
     RDKit          3D

 80 86  0  0  1  0  0  0  0  0999 V2000
  135.5890   80.7670  224.6080 N   0  0  0  0  0  0  0  0  0  0  0  0
  137.1080   81.5020  224.2400 S   0  0  0  0  0  0  0  0  0  0  0  0
  138.0360   81.1890  225.3860 O   0  0  0  0  0  0  0  0  0  0  0  0
  136.9250   82.9760  224.2140 O   0  0  0  0  0  0  0  0  0  0  0  0
  137.8200   80.8720  222.7740 C   0  0  0  0  0  0  0  0  0  0  0  0
  139.0470   81.3940  222.3750 C   0  0  0  0  0  0  0  0  0  0  0  0
  139.6160   80.8990  221.2080 C   0  0  0  0  0  0  0  0  0  0  0  0
  139.0180   79.9240  220.4420 C   0  0  0  0  0  0  0  0  0  0  0  0
  139.6880   79.4410  219.1760 C   0  0  0  0  0  0  0  0  0  0  0  0
  140.8680   78.6410  219.6360 C   0  0  0  0  0  0  0  0  0  0  0  0
  140.6580   77.6020  220.5360 N   0  0  0  0  0  0  0  0  0  0  0  0
  140.8640   77.7970  221.9210 C   0  0  0  0  0  0  0  0  0  0  0  0
  141.0590   76.3890  222.5180 C   0  0  0  0  0  0  0  0  0  0  0  0
  140.4370   75.5430  221.4240 C   0  0  2  0  0  0  0  0  0  0  0  0
  140.7770   74.1280  221.4730 C   0  0  0  0  0  0  0  0  0  0  0  0
  141.5520   73.4650  220.5980 N   0  0  0  0  0  0  0  0  0  0  0  0
  141.8120   72.1450  220.7260 C   0  0  0  0  0  0  0  0  0  0  0  0
  142.6310   71.4380  219.8060 N   0  0  0  0  0  0  0  0  0  0  0  0
  143.6130   72.0880  218.9580 C   0  0  0  0  0  0  0  0  0  0  0  0
  144.9750   71.6210  219.4440 C   0  0  0  0  0  0  0  0  0  0  0  0
  144.9860   70.1370  219.3240 C   0  0  0  0  0  0  0  0  0  0  0  0
  146.1990   69.5170  219.0910 C   0  0  0  0  0  0  0  0  0  0  0  0
  146.2460   68.1350  218.9750 C   0  0  0  0  0  0  0  0  0  0  0  0
  145.1000   67.3560  219.0900 C   0  0  0  0  0  0  0  0  0  0  0  0
  143.9020   67.9950  219.3230 C   0  0  0  0  0  0  0  0  0  0  0  0
  143.8450   69.3700  219.4380 C   0  0  0  0  0  0  0  0  0  0  0  0
  142.5050   69.9980  219.6910 C   0  0  0  0  0  0  0  0  0  0  0  0
  141.2710   71.4780  221.7700 N   0  0  0  0  0  0  0  0  0  0  0  0
  140.4870   72.0970  222.6760 C   0  0  0  0  0  0  0  0  0  0  0  0
  139.8980   71.4290  223.7840 N   0  0  0  0  0  0  0  0  0  0  0  0
  138.7020   70.5920  223.5970 C   0  0  0  0  0  0  0  0  0  0  0  0
  139.1510   69.1650  223.8470 C   0  0  0  0  0  0  0  0  0  0  0  0
  139.7160   69.1150  225.2210 C   0  0  0  0  0  0  0  0  0  0  0  0
  139.6170   67.8850  225.8790 C   0  0  0  0  0  0  0  0  0  0  0  0
  140.1350   67.7990  227.1710 C   0  0  0  0  0  0  0  0  0  0  0  0
  140.7230   68.9040  227.7690 C   0  0  0  0  0  0  0  0  0  0  0  0
  140.8210   70.1250  227.1180 C   0  0  0  0  0  0  0  0  0  0  0  0
  140.3040   70.2010  225.8370 C   0  0  0  0  0  0  0  0  0  0  0  0
  140.4060   71.5070  225.1330 C   0  0  0  0  0  0  0  0  0  0  0  0
  140.2620   73.3970  222.5060 N   0  0  0  0  0  0  0  0  0  0  0  0
  141.0070   76.2700  220.1880 C   0  0  0  0  0  0  0  0  0  0  0  0
  137.7960   79.4070  220.8430 C   0  0  0  0  0  0  0  0  0  0  0  0
  137.1950   79.8820  222.0130 C   0  0  0  0  0  0  0  0  0  0  0  0
  134.8930   80.9850  223.8800 H   0  0  0  0  0  0  0  0  0  0  0  0
  135.6960   79.7340  224.8060 H   0  0  0  0  0  0  0  0  0  0  0  0
  139.5505   82.1740  222.9650 H   0  0  0  0  0  0  0  0  0  0  0  0
  140.5857   81.3035  220.8823 H   0  0  0  0  0  0  0  0  0  0  0  0
  139.0002   78.8124  218.5914 H   0  0  0  0  0  0  0  0  0  0  0  0
  139.9863   80.2758  218.5248 H   0  0  0  0  0  0  0  0  0  0  0  0
  141.3331   78.2046  218.7398 H   0  0  0  0  0  0  0  0  0  0  0  0
  141.4788   79.3630  220.1979 H   0  0  0  0  0  0  0  0  0  0  0  0
  141.7590   78.4132  222.0923 H   0  0  0  0  0  0  0  0  0  0  0  0
  140.0164   78.3209  222.3870 H   0  0  0  0  0  0  0  0  0  0  0  0
  142.1235   76.1513  222.6609 H   0  0  0  0  0  0  0  0  0  0  0  0
  140.6194   76.2470  223.5163 H   0  0  0  0  0  0  0  0  0  0  0  0
  139.3399   75.4810  221.4737 H   0  0  0  0  0  0  0  0  0  0  0  0
  143.4626   71.7954  217.9084 H   0  0  0  0  0  0  0  0  0  0  0  0
  143.5241   73.1831  219.0117 H   0  0  0  0  0  0  0  0  0  0  0  0
  145.7699   72.0576  218.8215 H   0  0  0  0  0  0  0  0  0  0  0  0
  145.1537   71.9354  220.4828 H   0  0  0  0  0  0  0  0  0  0  0  0
  147.1186   70.1135  218.9984 H   0  0  0  0  0  0  0  0  0  0  0  0
  147.2125   67.6443  218.7877 H   0  0  0  0  0  0  0  0  0  0  0  0
  145.1486   66.2610  218.9976 H   0  0  0  0  0  0  0  0  0  0  0  0
  142.9798   67.4030  219.4186 H   0  0  0  0  0  0  0  0  0  0  0  0
  141.8302   69.7595  218.8556 H   0  0  0  0  0  0  0  0  0  0  0  0
  142.0988   69.6007  220.6329 H   0  0  0  0  0  0  0  0  0  0  0  0
  137.9187   70.8780  224.3144 H   0  0  0  0  0  0  0  0  0  0  0  0
  138.2785   70.7117  222.5889 H   0  0  0  0  0  0  0  0  0  0  0  0
  138.2933   68.4808  223.7673 H   0  0  0  0  0  0  0  0  0  0  0  0
  139.9023   68.8569  223.1050 H   0  0  0  0  0  0  0  0  0  0  0  0
  139.1473   67.0162  225.3947 H   0  0  0  0  0  0  0  0  0  0  0  0
  140.0768   66.8476  227.7201 H   0  0  0  0  0  0  0  0  0  0  0  0
  141.1233   68.8092  228.7892 H   0  0  0  0  0  0  0  0  0  0  0  0
  141.2898   70.9957  227.5998 H   0  0  0  0  0  0  0  0  0  0  0  0
  139.8257   72.2578  225.6893 H   0  0  0  0  0  0  0  0  0  0  0  0
  141.4686   71.7868  225.0829 H   0  0  0  0  0  0  0  0  0  0  0  0
  142.0954   76.1387  220.0973 H   0  0  0  0  0  0  0  0  0  0  0  0
  140.6294   75.9196  219.2161 H   0  0  0  0  0  0  0  0  0  0  0  0
  137.3018   78.6276  220.2444 H   0  0  0  0  0  0  0  0  0  0  0  0
  136.2256   79.4739  222.3352 H   0  0  0  0  0  0  0  0  0  0  0  0
  1  2  1  0
  2  3  2  0
  2  4  2  0
  2  5  1  0
  5  6  2  0
  6  7  1  0
  7  8  2  0
  8  9  1  0
  9 10  1  0
 10 11  1  0
 11 12  1  0
 12 13  1  0
 13 14  1  0
 14 15  1  0
 15 16  2  0
 16 17  1  0
 17 18  1  0
 18 19  1  0
 19 20  1  0
 20 21  1  0
 21 22  2  0
 22 23  1  0
 23 24  2  0
 24 25  1  0
 25 26  2  0
 26 27  1  0
 17 28  2  0
 28 29  1  0
 29 30  1  0
 30 31  1  0
 31 32  1  0
 32 33  1  0
 33 34  2  0
 34 35  1  0
 35 36  2  0
 36 37  1  0
 37 38  2  0
 38 39  1  0
 29 40  2  0
 14 41  1  0
  8 42  1  0
 42 43  2  0
 43  5  1  0
 41 11  1  0
 40 15  1  0
 27 18  1  0
 39 30  1  0
 26 21  1  0
 38 33  1  0
  1 44  1  0
  1 45  1  0
  6 46  1  0
  7 47  1  0
  9 48  1  0
  9 49  1  0
 10 50  1  0
 10 51  1  0
 12 52  1  0
 12 53  1  0
 13 54  1  0
 13 55  1  0
 14 56  1  6
 19 57  1  0
 19 58  1  0
 20 59  1  0
 20 60  1  0
 22 61  1  0
 23 62  1  0
 24 63  1  0
 25 64  1  0
 27 65  1  0
 27 66  1  0
 31 67  1  0
 31 68  1  0
 32 69  1  0
 32 70  1  0
 34 71  1  0
 35 72  1  0
 36 73  1  0
 37 74  1  0
 39 75  1  0
 39 76  1  0
 41 77  1  0
 41 78  1  0
 42 79  1  0
 43 80  1  0
M  END
>  <smiles>  (1) 
NS(=O)(=O)c1ccc(CCN2CCC(c3nc(N4CCc5ccccc5C4)nc(N4CCc5ccccc5C4)n3)C2)cc1

>  <score_type>  (1) 
oracle

>  <origin>  (1) 
autodockgpu

>  <m_score__min__energy>  (1) 
-11.56

>  <m_primary>  (1) 
energy

>  <rmsd>  (1) 
3.884454837782659

>  <m_score__min__rmsd>  (1) 
3.884454837782659

>  <meeko>  (1) 
{"free_energy": -9.21, "intermolecular_energy": -11.6, "internal_energy": -1.63, "cluster_size": 14, "cluster_id": 2, "rank_in_cluster": 14}

>  <energy>  (1) 
-11.56

>  <cluster_rmsd>  (1) 
0.0

>  <cluster>  (1) 
1

$$$$

     RDKit          3D

 80 86  0  0  1  0  0  0  0  0999 V2000
  138.3640   83.8790  218.4780 N   0  0  0  0  0  0  0  0  0  0  0  0
  139.6500   84.3080  219.5480 S   0  0  0  0  0  0  0  0  0  0  0  0
  139.0960   85.3200  220.5180 O   0  0  0  0  0  0  0  0  0  0  0  0
  140.7110   84.9890  218.7620 O   0  0  0  0  0  0  0  0  0  0  0  0
  140.2440   82.9430  220.4640 C   0  0  0  0  0  0  0  0  0  0  0  0
  141.3600   82.2720  219.9740 C   0  0  0  0  0  0  0  0  0  0  0  0
  141.8330   81.1840  220.6970 C   0  0  0  0  0  0  0  0  0  0  0  0
  141.2460   80.7510  221.8640 C   0  0  0  0  0  0  0  0  0  0  0  0
  141.8070   79.5510  222.5920 C   0  0  0  0  0  0  0  0  0  0  0  0
  140.6120   78.7640  223.0340 C   0  0  0  0  0  0  0  0  0  0  0  0
  140.2730   77.6150  222.3270 N   0  0  0  0  0  0  0  0  0  0  0  0
  138.9250   77.3350  222.0110 C   0  0  0  0  0  0  0  0  0  0  0  0
  138.8650   75.8210  221.7290 C   0  0  0  0  0  0  0  0  0  0  0  0
  140.3290   75.5400  221.4500 C   0  0  2  0  0  0  0  0  0  0  0  0
  140.7080   74.1360  221.5110 C   0  0  0  0  0  0  0  0  0  0  0  0
  141.4790   73.4800  220.6270 N   0  0  0  0  0  0  0  0  0  0  0  0
  141.7780   72.1700  220.7670 C   0  0  0  0  0  0  0  0  0  0  0  0
  142.5930   71.4710  219.8380 N   0  0  0  0  0  0  0  0  0  0  0  0
  143.5690   72.1290  218.9890 C   0  0  0  0  0  0  0  0  0  0  0  0
  144.9350   71.6620  219.4640 C   0  0  0  0  0  0  0  0  0  0  0  0
  144.9490   70.1790  219.3330 C   0  0  0  0  0  0  0  0  0  0  0  0
  146.1610   69.5630  219.0890 C   0  0  0  0  0  0  0  0  0  0  0  0
  146.2110   68.1820  218.9630 C   0  0  0  0  0  0  0  0  0  0  0  0
  145.0670   67.3990  219.0790 C   0  0  0  0  0  0  0  0  0  0  0  0
  143.8690   68.0340  219.3230 C   0  0  0  0  0  0  0  0  0  0  0  0
  143.8090   69.4080  219.4490 C   0  0  0  0  0  0  0  0  0  0  0  0
  142.4700   70.0320  219.7130 C   0  0  0  0  0  0  0  0  0  0  0  0
  141.2800   71.5050  221.8340 N   0  0  0  0  0  0  0  0  0  0  0  0
  140.5020   72.1150  222.7500 C   0  0  0  0  0  0  0  0  0  0  0  0
  139.9580   71.4490  223.8810 N   0  0  0  0  0  0  0  0  0  0  0  0
  138.7360   70.6390  223.7500 C   0  0  0  0  0  0  0  0  0  0  0  0
  139.1670   69.2000  223.9630 C   0  0  0  0  0  0  0  0  0  0  0  0
  139.8020   69.1250  225.3050 C   0  0  0  0  0  0  0  0  0  0  0  0
  139.7120   67.8900  225.9560 C   0  0  0  0  0  0  0  0  0  0  0  0
  140.2960   67.7800  227.2180 C   0  0  0  0  0  0  0  0  0  0  0  0
  140.9390   68.8660  227.7930 C   0  0  0  0  0  0  0  0  0  0  0  0
  141.0280   70.0920  227.1490 C   0  0  0  0  0  0  0  0  0  0  0  0
  140.4460   70.1910  225.8990 C   0  0  0  0  0  0  0  0  0  0  0  0
  140.5390   71.5020  225.2020 C   0  0  0  0  0  0  0  0  0  0  0  0
  140.2380   73.4070  222.5660 N   0  0  0  0  0  0  0  0  0  0  0  0
  140.9670   76.3970  222.5630 C   0  0  0  0  0  0  0  0  0  0  0  0
  140.1340   81.4220  222.3480 C   0  0  0  0  0  0  0  0  0  0  0  0
  139.6310   82.5220  221.6460 C   0  0  0  0  0  0  0  0  0  0  0  0
  137.5260   83.6030  219.0090 H   0  0  0  0  0  0  0  0  0  0  0  0
  138.1890   84.6350  217.7600 H   0  0  0  0  0  0  0  0  0  0  0  0
  141.8521   82.5927  219.0439 H   0  0  0  0  0  0  0  0  0  0  0  0
  142.7150   80.6453  220.3203 H   0  0  0  0  0  0  0  0  0  0  0  0
  142.4361   78.9508  221.9182 H   0  0  0  0  0  0  0  0  0  0  0  0
  142.4415   79.8456  223.4409 H   0  0  0  0  0  0  0  0  0  0  0  0
  140.7899   78.4625  224.0768 H   0  0  0  0  0  0  0  0  0  0  0  0
  139.7646   79.4441  222.8628 H   0  0  0  0  0  0  0  0  0  0  0  0
  138.2717   77.5931  222.8575 H   0  0  0  0  0  0  0  0  0  0  0  0
  138.5819   77.9216  221.1460 H   0  0  0  0  0  0  0  0  0  0  0  0
  138.5016   75.2584  222.6016 H   0  0  0  0  0  0  0  0  0  0  0  0
  138.1778   75.5297  220.9210 H   0  0  0  0  0  0  0  0  0  0  0  0
  140.6445   75.7823  220.4244 H   0  0  0  0  0  0  0  0  0  0  0  0
  143.4134   71.8432  217.9382 H   0  0  0  0  0  0  0  0  0  0  0  0
  143.4780   73.2235  219.0509 H   0  0  0  0  0  0  0  0  0  0  0  0
  145.7253   72.1052  218.8403 H   0  0  0  0  0  0  0  0  0  0  0  0
  145.1188   71.9693  220.5041 H   0  0  0  0  0  0  0  0  0  0  0  0
  147.0788   70.1621  218.9954 H   0  0  0  0  0  0  0  0  0  0  0  0
  147.1777   67.6951  218.7668 H   0  0  0  0  0  0  0  0  0  0  0  0
  145.1175   66.3047  218.9788 H   0  0  0  0  0  0  0  0  0  0  0  0
  142.9487   67.4392  219.4187 H   0  0  0  0  0  0  0  0  0  0  0  0
  141.7916   69.7983  218.8792 H   0  0  0  0  0  0  0  0  0  0  0  0
  142.0698   69.6274  220.6543 H   0  0  0  0  0  0  0  0  0  0  0  0
  137.9979   70.9340  224.5104 H   0  0  0  0  0  0  0  0  0  0  0  0
  138.2626   70.7778  222.7668 H   0  0  0  0  0  0  0  0  0  0  0  0
  138.2920   68.5346  223.9224 H   0  0  0  0  0  0  0  0  0  0  0  0
  139.8714   68.8835  223.1796 H   0  0  0  0  0  0  0  0  0  0  0  0
  139.1990   67.0361  225.4893 H   0  0  0  0  0  0  0  0  0  0  0  0
  140.2462   66.8248  227.7612 H   0  0  0  0  0  0  0  0  0  0  0  0
  141.3918   68.7522  228.7890 H   0  0  0  0  0  0  0  0  0  0  0  0
  141.5396   70.9481  227.6131 H   0  0  0  0  0  0  0  0  0  0  0  0
  140.0059   72.2594  225.7954 H   0  0  0  0  0  0  0  0  0  0  0  0
  141.6034   71.7591  225.0975 H   0  0  0  0  0  0  0  0  0  0  0  0
  140.7616   75.9921  223.5649 H   0  0  0  0  0  0  0  0  0  0  0  0
  142.0647   76.4643  222.5394 H   0  0  0  0  0  0  0  0  0  0  0  0
  139.6500   81.0913  223.2788 H   0  0  0  0  0  0  0  0  0  0  0  0
  138.7489   83.0578  222.0265 H   0  0  0  0  0  0  0  0  0  0  0  0
  1  2  1  0
  2  3  2  0
  2  4  2  0
  2  5  1  0
  5  6  2  0
  6  7  1  0
  7  8  2  0
  8  9  1  0
  9 10  1  0
 10 11  1  0
 11 12  1  0
 12 13  1  0
 13 14  1  0
 14 15  1  0
 15 16  2  0
 16 17  1  0
 17 18  1  0
 18 19  1  0
 19 20  1  0
 20 21  1  0
 21 22  2  0
 22 23  1  0
 23 24  2  0
 24 25  1  0
 25 26  2  0
 26 27  1  0
 17 28  2  0
 28 29  1  0
 29 30  1  0
 30 31  1  0
 31 32  1  0
 32 33  1  0
 33 34  2  0
 34 35  1  0
 35 36  2  0
 36 37  1  0
 37 38  2  0
 38 39  1  0
 29 40  2  0
 14 41  1  0
  8 42  1  0
 42 43  2  0
 43  5  1  0
 41 11  1  0
 40 15  1  0
 27 18  1  0
 39 30  1  0
 26 21  1  0
 38 33  1  0
  1 44  1  0
  1 45  1  0
  6 46  1  0
  7 47  1  0
  9 48  1  0
  9 49  1  0
 10 50  1  0
 10 51  1  0
 12 52  1  0
 12 53  1  0
 13 54  1  0
 13 55  1  0
 14 56  1  6
 19 57  1  0
 19 58  1  0
 20 59  1  0
 20 60  1  0
 22 61  1  0
 23 62  1  0
 24 63  1  0
 25 64  1  0
 27 65  1  0
 27 66  1  0
 31 67  1  0
 31 68  1  0
 32 69  1  0
 32 70  1  0
 34 71  1  0
 35 72  1  0
 36 73  1  0
 37 74  1  0
 39 75  1  0
 39 76  1  0
 41 77  1  0
 41 78  1  0
 42 79  1  0
 43 80  1  0
M  END
>  <smiles>  (2) 
NS(=O)(=O)c1ccc(CCN2CCC(c3nc(N4CCc5ccccc5C4)nc(N4CCc5ccccc5C4)n3)C2)cc1

>  <score_type>  (2) 
oracle

>  <origin>  (2) 
autodockgpu

>  <m_score__min__energy>  (2) 
-11.56

>  <m_primary>  (2) 
energy

>  <rmsd>  (2) 
3.4921319647799174

>  <m_score__min__rmsd>  (2) 
3.4921319647799174

>  <meeko>  (2) 
{"free_energy": -10.27, "intermolecular_energy": -12.65, "internal_energy": -1.45, "cluster_size": 13, "cluster_id": 1, "rank_in_cluster": 10}

>  <energy>  (2) 
-11.43

>  <cluster_rmsd>  (2) 
0.71

>  <cluster>  (2) 
1

$$$$

     RDKit          3D

 80 86  0  0  1  0  0  0  0  0999 V2000
  140.9760   68.1050  228.1640 N   0  0  0  0  0  0  0  0  0  0  0  0
  140.2860   69.6620  227.8780 S   0  0  0  0  0  0  0  0  0  0  0  0
  141.2810   70.6800  228.3740 O   0  0  0  0  0  0  0  0  0  0  0  0
  139.0660   69.7980  228.7130 O   0  0  0  0  0  0  0  0  0  0  0  0
  139.9960   69.9660  226.1810 C   0  0  0  0  0  0  0  0  0  0  0  0
  139.1990   69.0600  225.4900 C   0  0  0  0  0  0  0  0  0  0  0  0
  138.9670   69.2950  224.1400 C   0  0  0  0  0  0  0  0  0  0  0  0
  139.4930   70.3770  223.4710 C   0  0  0  0  0  0  0  0  0  0  0  0
  139.2110   70.5640  221.9980 C   0  0  0  0  0  0  0  0  0  0  0  0
  137.7270   70.4220  221.8590 C   0  0  0  0  0  0  0  0  0  0  0  0
  136.9050   71.1970  222.6720 N   0  0  0  0  0  0  0  0  0  0  0  0
  135.5870   70.7830  222.9660 C   0  0  0  0  0  0  0  0  0  0  0  0
  134.8360   72.0550  223.4060 C   0  0  0  0  0  0  0  0  0  0  0  0
  136.0070   72.9480  223.7680 C   0  0  2  0  0  0  0  0  0  0  0  0
  135.6900   74.3660  223.8720 C   0  0  0  0  0  0  0  0  0  0  0  0
  134.6000   74.8980  224.4520 N   0  0  0  0  0  0  0  0  0  0  0  0
  134.3910   76.2310  224.5000 C   0  0  0  0  0  0  0  0  0  0  0  0
  133.2430   76.8000  225.1120 N   0  0  0  0  0  0  0  0  0  0  0  0
  131.9510   76.1390  225.1400 C   0  0  0  0  0  0  0  0  0  0  0  0
  131.6820   75.7870  226.5940 C   0  0  0  0  0  0  0  0  0  0  0  0
  131.7030   77.0660  227.3550 C   0  0  0  0  0  0  0  0  0  0  0  0
  130.9190   77.1560  228.4900 C   0  0  0  0  0  0  0  0  0  0  0  0
  130.9160   78.3340  229.2240 C   0  0  0  0  0  0  0  0  0  0  0  0
  131.6870   79.4280  228.8470 C   0  0  0  0  0  0  0  0  0  0  0  0
  132.4610   79.3160  227.7130 C   0  0  0  0  0  0  0  0  0  0  0  0
  132.4700   78.1490  226.9750 C   0  0  0  0  0  0  0  0  0  0  0  0
  133.3370   78.0990  225.7500 C   0  0  0  0  0  0  0  0  0  0  0  0
  135.3120   77.0500  223.9440 N   0  0  0  0  0  0  0  0  0  0  0  0
  136.4230   76.5680  223.3500 C   0  0  0  0  0  0  0  0  0  0  0  0
  137.4100   77.3960  222.7520 N   0  0  0  0  0  0  0  0  0  0  0  0
  137.0770   78.7680  222.3350 C   0  0  0  0  0  0  0  0  0  0  0  0
  137.8510   79.6830  223.2660 C   0  0  0  0  0  0  0  0  0  0  0  0
  139.2900   79.3400  223.1240 C   0  0  0  0  0  0  0  0  0  0  0  0
  140.1930   80.3800  223.3670 C   0  0  0  0  0  0  0  0  0  0  0  0
  141.5530   80.0970  223.2440 C   0  0  0  0  0  0  0  0  0  0  0  0
  141.9790   78.8250  222.8910 C   0  0  0  0  0  0  0  0  0  0  0  0
  141.0840   77.7940  222.6490 C   0  0  0  0  0  0  0  0  0  0  0  0
  139.7380   78.0830  222.7740 C   0  0  0  0  0  0  0  0  0  0  0  0
  138.7730   76.9810  222.5160 C   0  0  0  0  0  0  0  0  0  0  0  0
  136.5820   75.2470  223.3300 N   0  0  0  0  0  0  0  0  0  0  0  0
  136.9510   72.6150  222.5940 C   0  0  0  0  0  0  0  0  0  0  0  0
  140.2880   71.2770  224.1640 C   0  0  0  0  0  0  0  0  0  0  0  0
  140.5400   71.0710  225.5230 C   0  0  0  0  0  0  0  0  0  0  0  0
  140.3080   67.3600  227.9170 H   0  0  0  0  0  0  0  0  0  0  0  0
  141.9200   68.0080  227.6990 H   0  0  0  0  0  0  0  0  0  0  0  0
  138.7657   68.1847  225.9960 H   0  0  0  0  0  0  0  0  0  0  0  0
  138.3365   68.5866  223.5826 H   0  0  0  0  0  0  0  0  0  0  0  0
  139.5353   71.5617  221.6672 H   0  0  0  0  0  0  0  0  0  0  0  0
  139.7527   69.8324  221.3805 H   0  0  0  0  0  0  0  0  0  0  0  0
  137.4742   70.6650  220.8164 H   0  0  0  0  0  0  0  0  0  0  0  0
  137.5250   69.3893  222.1796 H   0  0  0  0  0  0  0  0  0  0  0  0
  135.1138   70.3483  222.0732 H   0  0  0  0  0  0  0  0  0  0  0  0
  135.5702   70.0112  223.7497 H   0  0  0  0  0  0  0  0  0  0  0  0
  134.2386   72.4794  222.5857 H   0  0  0  0  0  0  0  0  0  0  0  0
  134.1055   71.9026  224.2142 H   0  0  0  0  0  0  0  0  0  0  0  0
  136.4160   72.7654  224.7727 H   0  0  0  0  0  0  0  0  0  0  0  0
  131.1697   76.8142  224.7610 H   0  0  0  0  0  0  0  0  0  0  0  0
  131.9480   75.2411  224.5046 H   0  0  0  0  0  0  0  0  0  0  0  0
  130.6985   75.3041  226.6914 H   0  0  0  0  0  0  0  0  0  0  0  0
  132.4380   75.0860  226.9776 H   0  0  0  0  0  0  0  0  0  0  0  0
  130.3033   76.3019  228.8085 H   0  0  0  0  0  0  0  0  0  0  0  0
  130.2890   78.4038  230.1251 H   0  0  0  0  0  0  0  0  0  0  0  0
  131.6791   80.3562  229.4373 H   0  0  0  0  0  0  0  0  0  0  0  0
  133.0796   80.1668  227.3914 H   0  0  0  0  0  0  0  0  0  0  0  0
  133.0082   78.8742  225.0423 H   0  0  0  0  0  0  0  0  0  0  0  0
  134.3816   78.2740  226.0469 H   0  0  0  0  0  0  0  0  0  0  0  0
  137.3825   78.9360  221.2917 H   0  0  0  0  0  0  0  0  0  0  0  0
  135.9946   78.9563  222.3902 H   0  0  0  0  0  0  0  0  0  0  0  0
  137.6847   80.7336  222.9859 H   0  0  0  0  0  0  0  0  0  0  0  0
  137.5194   79.5519  224.3066 H   0  0  0  0  0  0  0  0  0  0  0  0
  139.8430   81.3851  223.6452 H   0  0  0  0  0  0  0  0  0  0  0  0
  142.2939   80.8889  223.4284 H   0  0  0  0  0  0  0  0  0  0  0  0
  143.0575   78.6286  222.8005 H   0  0  0  0  0  0  0  0  0  0  0  0
  141.4305   76.7882  222.3693 H   0  0  0  0  0  0  0  0  0  0  0  0
  138.8711   76.6596  221.4686 H   0  0  0  0  0  0  0  0  0  0  0  0
  139.0037   76.1558  223.2058 H   0  0  0  0  0  0  0  0  0  0  0  0
  136.5645   72.9887  221.6343 H   0  0  0  0  0  0  0  0  0  0  0  0
  137.9549   73.0611  222.6510 H   0  0  0  0  0  0  0  0  0  0  0  0
  140.7177   72.1478  223.6473 H   0  0  0  0  0  0  0  0  0  0  0  0
  141.1698   71.7826  226.0770 H   0  0  0  0  0  0  0  0  0  0  0  0
  1  2  1  0
  2  3  2  0
  2  4  2  0
  2  5  1  0
  5  6  2  0
  6  7  1  0
  7  8  2  0
  8  9  1  0
  9 10  1  0
 10 11  1  0
 11 12  1  0
 12 13  1  0
 13 14  1  0
 14 15  1  0
 15 16  2  0
 16 17  1  0
 17 18  1  0
 18 19  1  0
 19 20  1  0
 20 21  1  0
 21 22  2  0
 22 23  1  0
 23 24  2  0
 24 25  1  0
 25 26  2  0
 26 27  1  0
 17 28  2  0
 28 29  1  0
 29 30  1  0
 30 31  1  0
 31 32  1  0
 32 33  1  0
 33 34  2  0
 34 35  1  0
 35 36  2  0
 36 37  1  0
 37 38  2  0
 38 39  1  0
 29 40  2  0
 14 41  1  0
  8 42  1  0
 42 43  2  0
 43  5  1  0
 41 11  1  0
 40 15  1  0
 27 18  1  0
 39 30  1  0
 26 21  1  0
 38 33  1  0
  1 44  1  0
  1 45  1  0
  6 46  1  0
  7 47  1  0
  9 48  1  0
  9 49  1  0
 10 50  1  0
 10 51  1  0
 12 52  1  0
 12 53  1  0
 13 54  1  0
 13 55  1  0
 14 56  1  1
 19 57  1  0
 19 58  1  0
 20 59  1  0
 20 60  1  0
 22 61  1  0
 23 62  1  0
 24 63  1  0
 25 64  1  0
 27 65  1  0
 27 66  1  0
 31 67  1  0
 31 68  1  0
 32 69  1  0
 32 70  1  0
 34 71  1  0
 35 72  1  0
 36 73  1  0
 37 74  1  0
 39 75  1  0
 39 76  1  0
 41 77  1  0
 41 78  1  0
 42 79  1  0
 43 80  1  0
M  END
>  <smiles>  (3) 
NS(=O)(=O)c1ccc(CCN2CCC(c3nc(N4CCc5ccccc5C4)nc(N4CCc5ccccc5C4)n3)C2)cc1

>  <score_type>  (3) 
oracle

>  <origin>  (3) 
autodockgpu

>  <m_score__min__energy>  (3) 
-11.56

>  <m_primary>  (3) 
energy

>  <rmsd>  (3) 
10.515383955027476

>  <m_score__min__rmsd>  (3) 
10.515383955027476

>  <meeko>  (3) 
{"free_energy": -9.39, "intermolecular_energy": -11.78, "internal_energy": -1.74, "cluster_size": 5, "cluster_id": 7, "rank_in_cluster": 5}

>  <energy>  (3) 
-11.31

>  <cluster_rmsd>  (3) 
0.74

>  <cluster>  (3) 
1

$$$$

     RDKit          3D

 80 86  0  0  1  0  0  0  0  0999 V2000
  142.5940   81.0700  216.1530 N   0  0  0  0  0  0  0  0  0  0  0  0
  141.9460   82.1890  217.2980 S   0  0  0  0  0  0  0  0  0  0  0  0
  140.5680   82.5630  216.8150 O   0  0  0  0  0  0  0  0  0  0  0  0
  142.7710   83.4240  217.2700 O   0  0  0  0  0  0  0  0  0  0  0  0
  141.7950   81.5000  218.8970 C   0  0  0  0  0  0  0  0  0  0  0  0
  141.9980   80.1300  219.0320 C   0  0  0  0  0  0  0  0  0  0  0  0
  141.8760   79.5770  220.3010 C   0  0  0  0  0  0  0  0  0  0  0  0
  141.5640   80.3250  221.4140 C   0  0  0  0  0  0  0  0  0  0  0  0
  141.4350   79.6550  222.7630 C   0  0  0  0  0  0  0  0  0  0  0  0
  140.0360   79.1210  222.8040 C   0  0  0  0  0  0  0  0  0  0  0  0
  139.7650   77.9130  222.1690 N   0  0  0  0  0  0  0  0  0  0  0  0
  138.4560   77.6070  221.7330 C   0  0  0  0  0  0  0  0  0  0  0  0
  138.4120   76.0740  221.5810 C   0  0  0  0  0  0  0  0  0  0  0  0
  139.8950   75.7690  221.4900 C   0  0  2  0  0  0  0  0  0  0  0  0
  140.2510   74.3750  221.7160 C   0  0  0  0  0  0  0  0  0  0  0  0
  139.8020   73.5900  222.7100 N   0  0  0  0  0  0  0  0  0  0  0  0
  140.1910   72.3020  222.8390 C   0  0  0  0  0  0  0  0  0  0  0  0
  139.7190   71.4660  223.8860 N   0  0  0  0  0  0  0  0  0  0  0  0
  138.6080   70.5480  223.7260 C   0  0  0  0  0  0  0  0  0  0  0  0
  139.1910   69.1480  223.8240 C   0  0  0  0  0  0  0  0  0  0  0  0
  139.8460   69.0500  225.1570 C   0  0  0  0  0  0  0  0  0  0  0  0
  139.8990   67.8080  225.7620 C   0  0  0  0  0  0  0  0  0  0  0  0
  140.5040   67.6800  227.0050 C   0  0  0  0  0  0  0  0  0  0  0  0
  141.0610   68.7740  227.6580 C   0  0  0  0  0  0  0  0  0  0  0  0
  140.9980   70.0030  227.0370 C   0  0  0  0  0  0  0  0  0  0  0  0
  140.3970   70.1400  225.8010 C   0  0  0  0  0  0  0  0  0  0  0  0
  140.3640   71.5080  225.1850 C   0  0  0  0  0  0  0  0  0  0  0  0
  141.0600   71.7970  221.9360 N   0  0  0  0  0  0  0  0  0  0  0  0
  141.5410   72.5420  220.9200 C   0  0  0  0  0  0  0  0  0  0  0  0
  142.4580   72.0470  219.9550 N   0  0  0  0  0  0  0  0  0  0  0  0
  143.5260   72.9130  219.4300 C   0  0  0  0  0  0  0  0  0  0  0  0
  144.8260   72.3370  219.9610 C   0  0  0  0  0  0  0  0  0  0  0  0
  144.9060   70.9280  219.4940 C   0  0  0  0  0  0  0  0  0  0  0  0
  146.1940   70.4150  219.3160 C   0  0  0  0  0  0  0  0  0  0  0  0
  146.3110   69.0960  218.8780 C   0  0  0  0  0  0  0  0  0  0  0  0
  145.1790   68.3330  218.6310 C   0  0  0  0  0  0  0  0  0  0  0  0
  143.9000   68.8420  218.8060 C   0  0  0  0  0  0  0  0  0  0  0  0
  143.7940   70.1500  219.2400 C   0  0  0  0  0  0  0  0  0  0  0  0
  142.4260   70.7010  219.4310 C   0  0  0  0  0  0  0  0  0  0  0  0
  141.1260   73.8040  220.8370 N   0  0  0  0  0  0  0  0  0  0  0  0
  140.4160   76.7220  222.5860 C   0  0  0  0  0  0  0  0  0  0  0  0
  141.3630   81.6890  221.2740 C   0  0  0  0  0  0  0  0  0  0  0  0
  141.4790   82.2790  220.0120 C   0  0  0  0  0  0  0  0  0  0  0  0
  143.3640   81.5000  215.6210 H   0  0  0  0  0  0  0  0  0  0  0  0
  142.8460   80.1510  216.6090 H   0  0  0  0  0  0  0  0  0  0  0  0
  142.2471   79.5047  218.1620 H   0  0  0  0  0  0  0  0  0  0  0  0
  142.0356   78.4953  220.4214 H   0  0  0  0  0  0  0  0  0  0  0  0
  142.1634   78.8362  222.8583 H   0  0  0  0  0  0  0  0  0  0  0  0
  141.6330   80.3533  223.5895 H   0  0  0  0  0  0  0  0  0  0  0  0
  139.7669   78.9978  223.8635 H   0  0  0  0  0  0  0  0  0  0  0  0
  139.4505   79.8594  222.2365 H   0  0  0  0  0  0  0  0  0  0  0  0
  137.7169   77.9396  222.4767 H   0  0  0  0  0  0  0  0  0  0  0  0
  138.2150   78.1148  220.7875 H   0  0  0  0  0  0  0  0  0  0  0  0
  137.9499   75.5913  222.4548 H   0  0  0  0  0  0  0  0  0  0  0  0
  137.8142   75.7121  220.7315 H   0  0  0  0  0  0  0  0  0  0  0  0
  140.3234   75.9189  220.4880 H   0  0  0  0  0  0  0  0  0  0  0  0
  137.8652   70.7074  224.5215 H   0  0  0  0  0  0  0  0  0  0  0  0
  138.0991   70.7016  222.7630 H   0  0  0  0  0  0  0  0  0  0  0  0
  138.3914   68.3975  223.7384 H   0  0  0  0  0  0  0  0  0  0  0  0
  139.9118   68.9619  223.0142 H   0  0  0  0  0  0  0  0  0  0  0  0
  139.4656   66.9288  225.2628 H   0  0  0  0  0  0  0  0  0  0  0  0
  140.5436   66.6906  227.4842 H   0  0  0  0  0  0  0  0  0  0  0  0
  141.5385   68.6618  228.6426 H   0  0  0  0  0  0  0  0  0  0  0  0
  141.4314   70.8848  227.5315 H   0  0  0  0  0  0  0  0  0  0  0  0
  139.8053   72.1884  225.8445 H   0  0  0  0  0  0  0  0  0  0  0  0
  141.3965   71.8653  225.0576 H   0  0  0  0  0  0  0  0  0  0  0  0
  143.5229   72.9006  218.3301 H   0  0  0  0  0  0  0  0  0  0  0  0
  143.3893   73.9586  219.7433 H   0  0  0  0  0  0  0  0  0  0  0  0
  145.6795   72.9119  219.5722 H   0  0  0  0  0  0  0  0  0  0  0  0
  144.8549   72.3864  221.0595 H   0  0  0  0  0  0  0  0  0  0  0  0
  147.0842   71.0300  219.5144 H   0  0  0  0  0  0  0  0  0  0  0  0
  147.3084   68.6574  218.7273 H   0  0  0  0  0  0  0  0  0  0  0  0
  145.2987   67.2952  218.2867 H   0  0  0  0  0  0  0  0  0  0  0  0
  143.0077   68.2301  218.6076 H   0  0  0  0  0  0  0  0  0  0  0  0
  141.9067   70.7087  218.4613 H   0  0  0  0  0  0  0  0  0  0  0  0
  141.8991   70.0640  220.1567 H   0  0  0  0  0  0  0  0  0  0  0  0
  140.0983   76.4081  223.5913 H   0  0  0  0  0  0  0  0  0  0  0  0
  141.5103   76.7868  222.6769 H   0  0  0  0  0  0  0  0  0  0  0  0
  141.1135   82.3041  222.1512 H   0  0  0  0  0  0  0  0  0  0  0  0
  141.3207   83.3614  219.8968 H   0  0  0  0  0  0  0  0  0  0  0  0
  1  2  1  0
  2  3  2  0
  2  4  2  0
  2  5  1  0
  5  6  2  0
  6  7  1  0
  7  8  2  0
  8  9  1  0
  9 10  1  0
 10 11  1  0
 11 12  1  0
 12 13  1  0
 13 14  1  0
 14 15  1  0
 15 16  2  0
 16 17  1  0
 17 18  1  0
 18 19  1  0
 19 20  1  0
 20 21  1  0
 21 22  2  0
 22 23  1  0
 23 24  2  0
 24 25  1  0
 25 26  2  0
 26 27  1  0
 17 28  2  0
 28 29  1  0
 29 30  1  0
 30 31  1  0
 31 32  1  0
 32 33  1  0
 33 34  2  0
 34 35  1  0
 35 36  2  0
 36 37  1  0
 37 38  2  0
 38 39  1  0
 29 40  2  0
 14 41  1  0
  8 42  1  0
 42 43  2  0
 43  5  1  0
 41 11  1  0
 40 15  1  0
 27 18  1  0
 39 30  1  0
 26 21  1  0
 38 33  1  0
  1 44  1  0
  1 45  1  0
  6 46  1  0
  7 47  1  0
  9 48  1  0
  9 49  1  0
 10 50  1  0
 10 51  1  0
 12 52  1  0
 12 53  1  0
 13 54  1  0
 13 55  1  0
 14 56  1  6
 19 57  1  0
 19 58  1  0
 20 59  1  0
 20 60  1  0
 22 61  1  0
 23 62  1  0
 24 63  1  0
 25 64  1  0
 27 65  1  0
 27 66  1  0
 31 67  1  0
 31 68  1  0
 32 69  1  0
 32 70  1  0
 34 71  1  0
 35 72  1  0
 36 73  1  0
 37 74  1  0
 39 75  1  0
 39 76  1  0
 41 77  1  0
 41 78  1  0
 42 79  1  0
 43 80  1  0
M  END
>  <smiles>  (4) 
NS(=O)(=O)c1ccc(CCN2CCC(c3nc(N4CCc5ccccc5C4)nc(N4CCc5ccccc5C4)n3)C2)cc1

>  <score_type>  (4) 
oracle

>  <origin>  (4) 
autodockgpu

>  <m_score__min__energy>  (4) 
-11.56

>  <m_primary>  (4) 
energy

>  <rmsd>  (4) 
3.6257216330923048

>  <m_score__min__rmsd>  (4) 
3.6257216330923048

>  <meeko>  (4) 
{"free_energy": -11.11, "intermolecular_energy": -13.5, "internal_energy": -1.54, "cluster_size": 13, "cluster_id": 1, "rank_in_cluster": 4}

>  <energy>  (4) 
-11.11

>  <cluster_rmsd>  (4) 
0.58

>  <cluster>  (4) 
1

$$$$

     RDKit          3D

 80 86  0  0  1  0  0  0  0  0999 V2000
  143.3220   79.5930  222.7200 N   0  0  0  0  0  0  0  0  0  0  0  0
  142.0710   80.7720  222.8940 S   0  0  0  0  0  0  0  0  0  0  0  0
  142.1850   81.7090  221.7190 O   0  0  0  0  0  0  0  0  0  0  0  0
  142.3400   81.5690  224.1180 O   0  0  0  0  0  0  0  0  0  0  0  0
  140.4740   80.0630  222.8730 C   0  0  0  0  0  0  0  0  0  0  0  0
  140.3710   78.6950  223.1080 C   0  0  0  0  0  0  0  0  0  0  0  0
  139.1030   78.1260  223.0890 C   0  0  0  0  0  0  0  0  0  0  0  0
  137.9610   78.8560  222.8480 C   0  0  0  0  0  0  0  0  0  0  0  0
  136.6150   78.1690  222.8290 C   0  0  0  0  0  0  0  0  0  0  0  0
  136.5900   77.3870  221.5510 C   0  0  0  0  0  0  0  0  0  0  0  0
  137.7540   76.7460  221.1400 N   0  0  0  0  0  0  0  0  0  0  0  0
  138.1980   76.8480  219.8030 C   0  0  0  0  0  0  0  0  0  0  0  0
  139.1450   75.6520  219.5820 C   0  0  0  0  0  0  0  0  0  0  0  0
  139.4830   75.3070  221.0190 C   0  0  2  0  0  0  0  0  0  0  0  0
  140.0630   73.9850  221.2140 C   0  0  0  0  0  0  0  0  0  0  0  0
  140.9270   73.3660  220.3910 N   0  0  0  0  0  0  0  0  0  0  0  0
  141.4130   72.1340  220.6560 C   0  0  0  0  0  0  0  0  0  0  0  0
  142.3270   71.4740  219.7920 N   0  0  0  0  0  0  0  0  0  0  0  0
  143.2880   72.1810  218.9670 C   0  0  0  0  0  0  0  0  0  0  0  0
  144.6610   71.8420  219.5230 C   0  0  0  0  0  0  0  0  0  0  0  0
  144.7990   70.3610  219.4460 C   0  0  0  0  0  0  0  0  0  0  0  0
  146.0680   69.8370  219.2820 C   0  0  0  0  0  0  0  0  0  0  0  0
  146.2330   68.4620  219.2080 C   0  0  0  0  0  0  0  0  0  0  0  0
  145.1500   67.5930  219.2980 C   0  0  0  0  0  0  0  0  0  0  0  0
  143.8950   68.1360  219.4620 C   0  0  0  0  0  0  0  0  0  0  0  0
  143.7200   69.5050  219.5350 C   0  0  0  0  0  0  0  0  0  0  0  0
  142.3240   70.0260  219.7130 C   0  0  0  0  0  0  0  0  0  0  0  0
  141.0130   71.5110  221.7870 N   0  0  0  0  0  0  0  0  0  0  0  0
  140.1490   72.0880  222.6470 C   0  0  0  0  0  0  0  0  0  0  0  0
  139.7020   71.4640  223.8420 N   0  0  0  0  0  0  0  0  0  0  0  0
  138.4300   70.7250  223.8650 C   0  0  0  0  0  0  0  0  0  0  0  0
  138.8020   69.2650  224.0480 C   0  0  0  0  0  0  0  0  0  0  0  0
  139.5820   69.1650  225.3090 C   0  0  0  0  0  0  0  0  0  0  0  0
  139.4990   67.9430  225.9850 C   0  0  0  0  0  0  0  0  0  0  0  0
  140.2170   67.8100  227.1730 C   0  0  0  0  0  0  0  0  0  0  0  0
  140.9820   68.8620  227.6550 C   0  0  0  0  0  0  0  0  0  0  0  0
  141.0650   70.0750  226.9860 C   0  0  0  0  0  0  0  0  0  0  0  0
  140.3490   70.1970  225.8090 C   0  0  0  0  0  0  0  0  0  0  0  0
  140.4340   71.4950  225.0870 C   0  0  0  0  0  0  0  0  0  0  0  0
  139.6990   73.3030  222.3400 N   0  0  0  0  0  0  0  0  0  0  0  0
  138.0850   75.4630  221.6520 C   0  0  0  0  0  0  0  0  0  0  0  0
  138.0690   80.2170  222.6130 C   0  0  0  0  0  0  0  0  0  0  0  0
  139.3290   80.8240  222.6260 C   0  0  0  0  0  0  0  0  0  0  0  0
  142.9200   78.6590  222.5560 H   0  0  0  0  0  0  0  0  0  0  0  0
  144.0350   79.8900  221.9990 H   0  0  0  0  0  0  0  0  0  0  0  0
  141.2646   78.0837  223.3025 H   0  0  0  0  0  0  0  0  0  0  0  0
  139.0079   77.0459  223.2745 H   0  0  0  0  0  0  0  0  0  0  0  0
  136.5127   77.4973  223.6941 H   0  0  0  0  0  0  0  0  0  0  0  0
  135.7855   78.8891  222.8862 H   0  0  0  0  0  0  0  0  0  0  0  0
  135.8149   76.6140  221.6589 H   0  0  0  0  0  0  0  0  0  0  0  0
  136.4137   78.1466  220.7751 H   0  0  0  0  0  0  0  0  0  0  0  0
  137.3447   76.7938  219.1109 H   0  0  0  0  0  0  0  0  0  0  0  0
  138.7058   77.8059  219.6172 H   0  0  0  0  0  0  0  0  0  0  0  0
  138.6378   74.8198  219.0719 H   0  0  0  0  0  0  0  0  0  0  0  0
  140.0142   75.8643  218.9422 H   0  0  0  0  0  0  0  0  0  0  0  0
  140.2745   75.9336  221.4560 H   0  0  0  0  0  0  0  0  0  0  0  0
  143.2085   71.8495  217.9211 H   0  0  0  0  0  0  0  0  0  0  0  0
  143.1071   73.2659  218.9843 H   0  0  0  0  0  0  0  0  0  0  0  0
  145.4440   72.3277  218.9221 H   0  0  0  0  0  0  0  0  0  0  0  0
  144.7674   72.1964  220.5589 H   0  0  0  0  0  0  0  0  0  0  0  0
  146.9391   70.5049  219.2108 H   0  0  0  0  0  0  0  0  0  0  0  0
  147.2437   68.0487  219.0750 H   0  0  0  0  0  0  0  0  0  0  0  0
  145.2921   66.5038  219.2399 H   0  0  0  0  0  0  0  0  0  0  0  0
  143.0212   67.4719  219.5358 H   0  0  0  0  0  0  0  0  0  0  0  0
  141.7087   69.7117  218.8570 H   0  0  0  0  0  0  0  0  0  0  0  0
  141.9100   69.6202  220.6478 H   0  0  0  0  0  0  0  0  0  0  0  0
  137.8030   71.0680  224.7012 H   0  0  0  0  0  0  0  0  0  0  0  0
  137.8538   70.8828  222.9414 H   0  0  0  0  0  0  0  0  0  0  0  0
  137.8925   68.6502  224.1177 H   0  0  0  0  0  0  0  0  0  0  0  0
  139.3926   68.9025  223.1937 H   0  0  0  0  0  0  0  0  0  0  0  0
  138.8887   67.1160  225.5931 H   0  0  0  0  0  0  0  0  0  0  0  0
  140.1764   66.8636  227.7322 H   0  0  0  0  0  0  0  0  0  0  0  0
  141.5389   68.7310  228.5945 H   0  0  0  0  0  0  0  0  0  0  0  0
  141.6743   70.9041  227.3752 H   0  0  0  0  0  0  0  0  0  0  0  0
  140.0160   72.2864  225.7265 H   0  0  0  0  0  0  0  0  0  0  0  0
  141.4919   71.6905  224.8575 H   0  0  0  0  0  0  0  0  0  0  0  0
  137.3861   74.6874  221.3057 H   0  0  0  0  0  0  0  0  0  0  0  0
  138.0468   75.3652  222.7470 H   0  0  0  0  0  0  0  0  0  0  0  0
  137.1683   80.8173  222.4172 H   0  0  0  0  0  0  0  0  0  0  0  0
  139.4186   81.9046  222.4410 H   0  0  0  0  0  0  0  0  0  0  0  0
  1  2  1  0
  2  3  2  0
  2  4  2  0
  2  5  1  0
  5  6  2  0
  6  7  1  0
  7  8  2  0
  8  9  1  0
  9 10  1  0
 10 11  1  0
 11 12  1  0
 12 13  1  0
 13 14  1  0
 14 15  1  0
 15 16  2  0
 16 17  1  0
 17 18  1  0
 18 19  1  0
 19 20  1  0
 20 21  1  0
 21 22  2  0
 22 23  1  0
 23 24  2  0
 24 25  1  0
 25 26  2  0
 26 27  1  0
 17 28  2  0
 28 29  1  0
 29 30  1  0
 30 31  1  0
 31 32  1  0
 32 33  1  0
 33 34  2  0
 34 35  1  0
 35 36  2  0
 36 37  1  0
 37 38  2  0
 38 39  1  0
 29 40  2  0
 14 41  1  0
  8 42  1  0
 42 43  2  0
 43  5  1  0
 41 11  1  0
 40 15  1  0
 27 18  1  0
 39 30  1  0
 26 21  1  0
 38 33  1  0
  1 44  1  0
  1 45  1  0
  6 46  1  0
  7 47  1  0
  9 48  1  0
  9 49  1  0
 10 50  1  0
 10 51  1  0
 12 52  1  0
 12 53  1  0
 13 54  1  0
 13 55  1  0
 14 56  1  1
 19 57  1  0
 19 58  1  0
 20 59  1  0
 20 60  1  0
 22 61  1  0
 23 62  1  0
 24 63  1  0
 25 64  1  0
 27 65  1  0
 27 66  1  0
 31 67  1  0
 31 68  1  0
 32 69  1  0
 32 70  1  0
 34 71  1  0
 35 72  1  0
 36 73  1  0
 37 74  1  0
 39 75  1  0
 39 76  1  0
 41 77  1  0
 41 78  1  0
 42 79  1  0
 43 80  1  0
M  END
>  <smiles>  (5) 
NS(=O)(=O)c1ccc(CCN2CCC(c3nc(N4CCc5ccccc5C4)nc(N4CCc5ccccc5C4)n3)C2)cc1

>  <score_type>  (5) 
oracle

>  <origin>  (5) 
autodockgpu

>  <m_score__min__energy>  (5) 
-11.56

>  <m_primary>  (5) 
energy

>  <rmsd>  (5) 
3.8142683430478854

>  <m_score__min__rmsd>  (5) 
3.8142683430478854

>  <meeko>  (5) 
{"free_energy": -11.21, "intermolecular_energy": -13.6, "internal_energy": -1.54, "cluster_size": 3, "cluster_id": 3, "rank_in_cluster": 1}

>  <energy>  (5) 
-11.07

>  <cluster_rmsd>  (5) 
0.56

>  <cluster>  (5) 
1

$$$$

     RDKit          3D

 80 86  0  0  1  0  0  0  0  0999 V2000
  144.0660   82.4160  216.6390 N   0  0  0  0  0  0  0  0  0  0  0  0
  142.4040   82.0440  216.9280 S   0  0  0  0  0  0  0  0  0  0  0  0
  141.9790   81.0750  215.8550 O   0  0  0  0  0  0  0  0  0  0  0  0
  141.6050   83.2820  216.7430 O   0  0  0  0  0  0  0  0  0  0  0  0
  142.1470   81.2860  218.4810 C   0  0  0  0  0  0  0  0  0  0  0  0
  142.3250   79.9090  218.5650 C   0  0  0  0  0  0  0  0  0  0  0  0
  142.1190   79.3000  219.7970 C   0  0  0  0  0  0  0  0  0  0  0  0
  141.7480   80.0010  220.9230 C   0  0  0  0  0  0  0  0  0  0  0  0
  141.5280   79.2720  222.2280 C   0  0  0  0  0  0  0  0  0  0  0  0
  140.0760   78.9040  222.2330 C   0  0  0  0  0  0  0  0  0  0  0  0
  139.7080   77.6430  221.7770 N   0  0  0  0  0  0  0  0  0  0  0  0
  138.3480   77.3230  221.5660 C   0  0  0  0  0  0  0  0  0  0  0  0
  138.2710   75.7830  221.5870 C   0  0  0  0  0  0  0  0  0  0  0  0
  139.7220   75.4370  221.3200 C   0  0  2  0  0  0  0  0  0  0  0  0
  140.0960   74.0670  221.6410 C   0  0  0  0  0  0  0  0  0  0  0  0
  139.6830   73.3560  222.7040 N   0  0  0  0  0  0  0  0  0  0  0  0
  140.0860   72.0850  222.9200 C   0  0  0  0  0  0  0  0  0  0  0  0
  139.6510   71.3280  224.0400 N   0  0  0  0  0  0  0  0  0  0  0  0
  138.5740   70.3590  223.9710 C   0  0  0  0  0  0  0  0  0  0  0  0
  139.2100   68.9960  224.1880 C   0  0  0  0  0  0  0  0  0  0  0  0
  139.8740   69.0410  225.5190 C   0  0  0  0  0  0  0  0  0  0  0  0
  139.9760   67.8600  226.2310 C   0  0  0  0  0  0  0  0  0  0  0  0
  140.5910   67.8660  227.4750 C   0  0  0  0  0  0  0  0  0  0  0  0
  141.1100   69.0330  228.0250 C   0  0  0  0  0  0  0  0  0  0  0  0
  140.9980   70.1980  227.2980 C   0  0  0  0  0  0  0  0  0  0  0  0
  140.3870   70.2030  226.0590 C   0  0  0  0  0  0  0  0  0  0  0  0
  140.2990   71.5090  225.3250 C   0  0  0  0  0  0  0  0  0  0  0  0
  140.9340   71.5180  222.0340 N   0  0  0  0  0  0  0  0  0  0  0  0
  141.3800   72.1860  220.9500 C   0  0  0  0  0  0  0  0  0  0  0  0
  142.2740   71.6250  220.0000 N   0  0  0  0  0  0  0  0  0  0  0  0
  143.2030   72.4870  219.2520 C   0  0  0  0  0  0  0  0  0  0  0  0
  144.5910   72.1340  219.7520 C   0  0  0  0  0  0  0  0  0  0  0  0
  144.7890   70.6810  219.5110 C   0  0  0  0  0  0  0  0  0  0  0  0
  146.1090   70.2690  219.3050 C   0  0  0  0  0  0  0  0  0  0  0  0
  146.3350   68.9120  219.0750 C   0  0  0  0  0  0  0  0  0  0  0  0
  145.2770   68.0150  219.0530 C   0  0  0  0  0  0  0  0  0  0  0  0
  143.9670   68.4230  219.2560 C   0  0  0  0  0  0  0  0  0  0  0  0
  143.7520   69.7700  219.4830 C   0  0  0  0  0  0  0  0  0  0  0  0
  142.3500   70.2130  219.7030 C   0  0  0  0  0  0  0  0  0  0  0  0
  140.9520   73.4350  220.7830 N   0  0  0  0  0  0  0  0  0  0  0  0
  140.4030   76.4870  222.2220 C   0  0  0  0  0  0  0  0  0  0  0  0
  141.5720   81.3730  220.8340 C   0  0  0  0  0  0  0  0  0  0  0  0
  141.7720   82.0180  219.6100 C   0  0  0  0  0  0  0  0  0  0  0  0
  144.6360   82.2070  217.4710 H   0  0  0  0  0  0  0  0  0  0  0  0
  144.4160   81.9610  215.7510 H   0  0  0  0  0  0  0  0  0  0  0  0
  142.6196   79.3204  217.6836 H   0  0  0  0  0  0  0  0  0  0  0  0
  142.2582   78.2117  219.8763 H   0  0  0  0  0  0  0  0  0  0  0  0
  142.1548   78.3693  222.2759 H   0  0  0  0  0  0  0  0  0  0  0  0
  141.7977   79.8921  223.0956 H   0  0  0  0  0  0  0  0  0  0  0  0
  139.7234   78.9891  223.2715 H   0  0  0  0  0  0  0  0  0  0  0  0
  139.6214   79.5950  221.5078 H   0  0  0  0  0  0  0  0  0  0  0  0
  137.7256   77.7487  222.3668 H   0  0  0  0  0  0  0  0  0  0  0  0
  137.9780   77.7341  220.6151 H   0  0  0  0  0  0  0  0  0  0  0  0
  137.9355   75.4054  222.5642 H   0  0  0  0  0  0  0  0  0  0  0  0
  137.5547   75.3476  220.8747 H   0  0  0  0  0  0  0  0  0  0  0  0
  140.0028   75.4717  220.2570 H   0  0  0  0  0  0  0  0  0  0  0  0
  137.8296   70.5609  224.7553 H   0  0  0  0  0  0  0  0  0  0  0  0
  138.0548   70.4076  223.0025 H   0  0  0  0  0  0  0  0  0  0  0  0
  138.4390   68.2115  224.1753 H   0  0  0  0  0  0  0  0  0  0  0  0
  139.9338   68.7659  223.3923 H   0  0  0  0  0  0  0  0  0  0  0  0
  139.5734   66.9245  225.8152 H   0  0  0  0  0  0  0  0  0  0  0  0
  140.6698   66.9252  228.0395 H   0  0  0  0  0  0  0  0  0  0  0  0
  141.5959   69.0262  229.0118 H   0  0  0  0  0  0  0  0  0  0  0  0
  141.4001   71.1357  227.7092 H   0  0  0  0  0  0  0  0  0  0  0  0
  139.7173   72.2234  225.9261 H   0  0  0  0  0  0  0  0  0  0  0  0
  141.3165   71.8925  225.1589 H   0  0  0  0  0  0  0  0  0  0  0  0
  143.1233   72.2897  218.1728 H   0  0  0  0  0  0  0  0  0  0  0  0
  142.9774   73.5527  219.4049 H   0  0  0  0  0  0  0  0  0  0  0  0
  145.3479   72.7136  219.2032 H   0  0  0  0  0  0  0  0  0  0  0  0
  144.6921   72.3696  220.8217 H   0  0  0  0  0  0  0  0  0  0  0  0
  146.9399   70.9895  219.3236 H   0  0  0  0  0  0  0  0  0  0  0  0
  147.3605   68.5501  218.9097 H   0  0  0  0  0  0  0  0  0  0  0  0
  145.4828   66.9501  218.8694 H   0  0  0  0  0  0  0  0  0  0  0  0
  143.1338   67.7050  219.2372 H   0  0  0  0  0  0  0  0  0  0  0  0
  141.7651   70.0083  218.7942 H   0  0  0  0  0  0  0  0  0  0  0  0
  141.9479   69.6601  220.5647 H   0  0  0  0  0  0  0  0  0  0  0  0
  140.2312   76.2876  223.2900 H   0  0  0  0  0  0  0  0  0  0  0  0
  141.4995   76.5355  222.1484 H   0  0  0  0  0  0  0  0  0  0  0  0
  141.2765   81.9513  221.7219 H   0  0  0  0  0  0  0  0  0  0  0  0
  141.6335   83.1067  219.5356 H   0  0  0  0  0  0  0  0  0  0  0  0
  1  2  1  0
  2  3  2  0
  2  4  2  0
  2  5  1  0
  5  6  2  0
  6  7  1  0
  7  8  2  0
  8  9  1  0
  9 10  1  0
 10 11  1  0
 11 12  1  0
 12 13  1  0
 13 14  1  0
 14 15  1  0
 15 16  2  0
 16 17  1  0
 17 18  1  0
 18 19  1  0
 19 20  1  0
 20 21  1  0
 21 22  2  0
 22 23  1  0
 23 24  2  0
 24 25  1  0
 25 26  2  0
 26 27  1  0
 17 28  2  0
 28 29  1  0
 29 30  1  0
 30 31  1  0
 31 32  1  0
 32 33  1  0
 33 34  2  0
 34 35  1  0
 35 36  2  0
 36 37  1  0
 37 38  2  0
 38 39  1  0
 29 40  2  0
 14 41  1  0
  8 42  1  0
 42 43  2  0
 43  5  1  0
 41 11  1  0
 40 15  1  0
 27 18  1  0
 39 30  1  0
 26 21  1  0
 38 33  1  0
  1 44  1  0
  1 45  1  0
  6 46  1  0
  7 47  1  0
  9 48  1  0
  9 49  1  0
 10 50  1  0
 10 51  1  0
 12 52  1  0
 12 53  1  0
 13 54  1  0
 13 55  1  0
 14 56  1  6
 19 57  1  0
 19 58  1  0
 20 59  1  0
 20 60  1  0
 22 61  1  0
 23 62  1  0
 24 63  1  0
 25 64  1  0
 27 65  1  0
 27 66  1  0
 31 67  1  0
 31 68  1  0
 32 69  1  0
 32 70  1  0
 34 71  1  0
 35 72  1  0
 36 73  1  0
 37 74  1  0
 39 75  1  0
 39 76  1  0
 41 77  1  0
 41 78  1  0
 42 79  1  0
 43 80  1  0
M  END
>  <smiles>  (6) 
NS(=O)(=O)c1ccc(CCN2CCC(c3nc(N4CCc5ccccc5C4)nc(N4CCc5ccccc5C4)n3)C2)cc1

>  <score_type>  (6) 
oracle

>  <origin>  (6) 
autodockgpu

>  <m_score__min__energy>  (6) 
-11.56

>  <m_primary>  (6) 
energy

>  <rmsd>  (6) 
3.8093962503770116

>  <m_score__min__rmsd>  (6) 
3.8093962503770116

>  <meeko>  (6) 
{"free_energy": -11.07, "intermolecular_energy": -13.46, "internal_energy": -1.5, "cluster_size": 13, "cluster_id": 1, "rank_in_cluster": 5}

>  <energy>  (6) 
-11.0

>  <cluster_rmsd>  (6) 
0.87

>  <cluster>  (6) 
1

$$$$

     RDKit          3D

 80 86  0  0  1  0  0  0  0  0999 V2000
  134.3020   72.9680  226.4210 N   0  0  0  0  0  0  0  0  0  0  0  0
  133.4620   74.4220  226.0150 S   0  0  0  0  0  0  0  0  0  0  0  0
  133.2270   75.1670  227.3050 O   0  0  0  0  0  0  0  0  0  0  0  0
  132.1280   74.0600  225.4700 O   0  0  0  0  0  0  0  0  0  0  0  0
  134.3840   75.4550  224.9490 C   0  0  0  0  0  0  0  0  0  0  0  0
  134.0250   76.7970  224.8790 C   0  0  0  0  0  0  0  0  0  0  0  0
  134.7530   77.6220  224.0300 C   0  0  0  0  0  0  0  0  0  0  0  0
  135.8020   77.1640  223.2650 C   0  0  0  0  0  0  0  0  0  0  0  0
  136.5420   78.1150  222.3520 C   0  0  0  0  0  0  0  0  0  0  0  0
  137.9840   77.9850  222.7340 C   0  0  0  0  0  0  0  0  0  0  0  0
  138.8010   77.1520  221.9760 N   0  0  0  0  0  0  0  0  0  0  0  0
  138.6950   77.1270  220.5680 C   0  0  0  0  0  0  0  0  0  0  0  0
  139.3170   75.7890  220.1230 C   0  0  0  0  0  0  0  0  0  0  0  0
  140.1440   75.4550  221.3500 C   0  0  2  0  0  0  0  0  0  0  0  0
  140.5800   74.0690  221.4390 C   0  0  0  0  0  0  0  0  0  0  0  0
  141.3740   73.4260  220.5680 N   0  0  0  0  0  0  0  0  0  0  0  0
  141.7260   72.1320  220.7350 C   0  0  0  0  0  0  0  0  0  0  0  0
  142.5670   71.4470  219.8180 N   0  0  0  0  0  0  0  0  0  0  0  0
  143.5270   72.1230  218.9660 C   0  0  0  0  0  0  0  0  0  0  0  0
  144.9030   71.7040  219.4540 C   0  0  0  0  0  0  0  0  0  0  0  0
  144.9630   70.2200  219.3410 C   0  0  0  0  0  0  0  0  0  0  0  0
  146.1940   69.6380  219.1110 C   0  0  0  0  0  0  0  0  0  0  0  0
  146.2860   68.2570  219.0020 C   0  0  0  0  0  0  0  0  0  0  0  0
  145.1660   67.4420  219.1220 C   0  0  0  0  0  0  0  0  0  0  0  0
  143.9480   68.0440  219.3520 C   0  0  0  0  0  0  0  0  0  0  0  0
  143.8460   69.4170  219.4610 C   0  0  0  0  0  0  0  0  0  0  0  0
  142.4870   70.0030  219.7100 C   0  0  0  0  0  0  0  0  0  0  0  0
  141.2570   71.4700  221.8160 N   0  0  0  0  0  0  0  0  0  0  0  0
  140.4570   72.0680  222.7220 C   0  0  0  0  0  0  0  0  0  0  0  0
  139.9420   71.4050  223.8680 N   0  0  0  0  0  0  0  0  0  0  0  0
  138.7520   70.5470  223.7590 C   0  0  0  0  0  0  0  0  0  0  0  0
  139.2380   69.1300  223.9990 C   0  0  0  0  0  0  0  0  0  0  0  0
  139.8800   69.1060  225.3390 C   0  0  0  0  0  0  0  0  0  0  0  0
  139.8390   67.8830  226.0160 C   0  0  0  0  0  0  0  0  0  0  0  0
  140.4310   67.8210  227.2770 C   0  0  0  0  0  0  0  0  0  0  0  0
  141.0330   68.9420  227.8280 C   0  0  0  0  0  0  0  0  0  0  0  0
  141.0730   70.1560  227.1590 C   0  0  0  0  0  0  0  0  0  0  0  0
  140.4840   70.2080  225.9090 C   0  0  0  0  0  0  0  0  0  0  0  0
  140.5250   71.5070  225.1860 C   0  0  0  0  0  0  0  0  0  0  0  0
  140.1410   73.3440  222.5110 N   0  0  0  0  0  0  0  0  0  0  0  0
  139.1390   75.8560  222.4490 C   0  0  0  0  0  0  0  0  0  0  0  0
  136.1550   75.8260  223.3370 C   0  0  0  0  0  0  0  0  0  0  0  0
  135.4450   74.9680  224.1820 C   0  0  0  0  0  0  0  0  0  0  0  0
  133.6360   72.2150  226.6450 H   0  0  0  0  0  0  0  0  0  0  0  0
  135.0100   72.7110  225.6790 H   0  0  0  0  0  0  0  0  0  0  0  0
  133.1909   77.1929  225.4769 H   0  0  0  0  0  0  0  0  0  0  0  0
  134.4796   78.6856  223.9666 H   0  0  0  0  0  0  0  0  0  0  0  0
  136.3949   77.8318  221.2993 H   0  0  0  0  0  0  0  0  0  0  0  0
  136.1810   79.1489  222.4561 H   0  0  0  0  0  0  0  0  0  0  0  0
  138.4223   78.9931  222.6938 H   0  0  0  0  0  0  0  0  0  0  0  0
  137.9572   77.5061  223.7239 H   0  0  0  0  0  0  0  0  0  0  0  0
  137.6396   77.1790  220.2625 H   0  0  0  0  0  0  0  0  0  0  0  0
  139.2083   77.9845  220.1084 H   0  0  0  0  0  0  0  0  0  0  0  0
  138.5479   75.0265  219.9303 H   0  0  0  0  0  0  0  0  0  0  0  0
  139.8855   75.8351  219.1824 H   0  0  0  0  0  0  0  0  0  0  0  0
  141.1170   75.9667  221.3881 H   0  0  0  0  0  0  0  0  0  0  0  0
  143.3861   71.8191  217.9183 H   0  0  0  0  0  0  0  0  0  0  0  0
  143.4025   73.2149  219.0131 H   0  0  0  0  0  0  0  0  0  0  0  0
  145.6831   72.1637  218.8294 H   0  0  0  0  0  0  0  0  0  0  0  0
  145.0712   72.0292  220.4913 H   0  0  0  0  0  0  0  0  0  0  0  0
  147.0939   70.2632  219.0150 H   0  0  0  0  0  0  0  0  0  0  0  0
  147.2678   67.7970  218.8164 H   0  0  0  0  0  0  0  0  0  0  0  0
  145.2497   66.3486  219.0358 H   0  0  0  0  0  0  0  0  0  0  0  0
  143.0454   67.4230  219.4501 H   0  0  0  0  0  0  0  0  0  0  0  0
  141.8208   69.7390  218.8754 H   0  0  0  0  0  0  0  0  0  0  0  0
  142.0929   69.5976  220.6536 H   0  0  0  0  0  0  0  0  0  0  0  0
  138.0061   70.8292  224.5166 H   0  0  0  0  0  0  0  0  0  0  0  0
  138.2701   70.6476  222.7753 H   0  0  0  0  0  0  0  0  0  0  0  0
  138.3887   68.4313  223.9756 H   0  0  0  0  0  0  0  0  0  0  0  0
  139.9512   68.8247  223.2191 H   0  0  0  0  0  0  0  0  0  0  0  0
  139.3567   67.0010  225.5695 H   0  0  0  0  0  0  0  0  0  0  0  0
  140.4203   66.8755  227.8390 H   0  0  0  0  0  0  0  0  0  0  0  0
  141.4922   68.8661  228.8247 H   0  0  0  0  0  0  0  0  0  0  0  0
  141.5529   71.0402  227.6038 H   0  0  0  0  0  0  0  0  0  0  0  0
  139.9653   72.2554  225.7662 H   0  0  0  0  0  0  0  0  0  0  0  0
  141.5785   71.8025  225.0725 H   0  0  0  0  0  0  0  0  0  0  0  0
  138.2671   75.1858  222.4755 H   0  0  0  0  0  0  0  0  0  0  0  0
  139.5213   75.8125  223.4795 H   0  0  0  0  0  0  0  0  0  0  0  0
  136.9895   75.4410  222.7325 H   0  0  0  0  0  0  0  0  0  0  0  0
  135.7229   73.9054  224.2431 H   0  0  0  0  0  0  0  0  0  0  0  0
  1  2  1  0
  2  3  2  0
  2  4  2  0
  2  5  1  0
  5  6  2  0
  6  7  1  0
  7  8  2  0
  8  9  1  0
  9 10  1  0
 10 11  1  0
 11 12  1  0
 12 13  1  0
 13 14  1  0
 14 15  1  0
 15 16  2  0
 16 17  1  0
 17 18  1  0
 18 19  1  0
 19 20  1  0
 20 21  1  0
 21 22  2  0
 22 23  1  0
 23 24  2  0
 24 25  1  0
 25 26  2  0
 26 27  1  0
 17 28  2  0
 28 29  1  0
 29 30  1  0
 30 31  1  0
 31 32  1  0
 32 33  1  0
 33 34  2  0
 34 35  1  0
 35 36  2  0
 36 37  1  0
 37 38  2  0
 38 39  1  0
 29 40  2  0
 14 41  1  0
  8 42  1  0
 42 43  2  0
 43  5  1  0
 41 11  1  0
 40 15  1  0
 27 18  1  0
 39 30  1  0
 26 21  1  0
 38 33  1  0
  1 44  1  0
  1 45  1  0
  6 46  1  0
  7 47  1  0
  9 48  1  0
  9 49  1  0
 10 50  1  0
 10 51  1  0
 12 52  1  0
 12 53  1  0
 13 54  1  0
 13 55  1  0
 14 56  1  1
 19 57  1  0
 19 58  1  0
 20 59  1  0
 20 60  1  0
 22 61  1  0
 23 62  1  0
 24 63  1  0
 25 64  1  0
 27 65  1  0
 27 66  1  0
 31 67  1  0
 31 68  1  0
 32 69  1  0
 32 70  1  0
 34 71  1  0
 35 72  1  0
 36 73  1  0
 37 74  1  0
 39 75  1  0
 39 76  1  0
 41 77  1  0
 41 78  1  0
 42 79  1  0
 43 80  1  0
M  END
>  <smiles>  (7) 
NS(=O)(=O)c1ccc(CCN2CCC(c3nc(N4CCc5ccccc5C4)nc(N4CCc5ccccc5C4)n3)C2)cc1

>  <score_type>  (7) 
oracle

>  <origin>  (7) 
autodockgpu

>  <m_score__min__energy>  (7) 
-11.56

>  <m_primary>  (7) 
energy

>  <rmsd>  (7) 
5.542956739105004

>  <m_score__min__rmsd>  (7) 
5.542956739105004

>  <meeko>  (7) 
{"free_energy": -10.37, "intermolecular_energy": -12.75, "internal_energy": -1.56, "cluster_size": 2, "cluster_id": 6, "rank_in_cluster": 1}

>  <energy>  (7) 
-10.75

>  <cluster_rmsd>  (7) 
1.06

>  <cluster>  (7) 
1

$$$$

     RDKit          3D

 80 86  0  0  1  0  0  0  0  0999 V2000
  146.4100   67.7600  220.4220 N   0  0  0  0  0  0  0  0  0  0  0  0
  145.9880   68.1470  218.7930 S   0  0  0  0  0  0  0  0  0  0  0  0
  146.6990   67.1550  217.9080 O   0  0  0  0  0  0  0  0  0  0  0  0
  146.5320   69.4910  218.4710 O   0  0  0  0  0  0  0  0  0  0  0  0
  144.2710   68.0110  218.4940 C   0  0  0  0  0  0  0  0  0  0  0  0
  143.8680   67.4790  217.2730 C   0  0  0  0  0  0  0  0  0  0  0  0
  142.5040   67.3720  217.0290 C   0  0  0  0  0  0  0  0  0  0  0  0
  141.5500   67.7680  217.9390 C   0  0  0  0  0  0  0  0  0  0  0  0
  140.0830   67.6350  217.6020 C   0  0  0  0  0  0  0  0  0  0  0  0
  139.7510   68.8550  216.8000 C   0  0  0  0  0  0  0  0  0  0  0  0
  139.9900   70.1060  217.3600 N   0  0  0  0  0  0  0  0  0  0  0  0
  141.1820   70.8080  217.0700 C   0  0  0  0  0  0  0  0  0  0  0  0
  141.3520   71.8330  218.2080 C   0  0  0  0  0  0  0  0  0  0  0  0
  139.9330   71.8870  218.7380 C   0  0  2  0  0  0  0  0  0  0  0  0
  139.7930   72.4740  220.0630 C   0  0  0  0  0  0  0  0  0  0  0  0
  139.6310   71.8060  221.2180 N   0  0  0  0  0  0  0  0  0  0  0  0
  139.5090   72.4410  222.4040 C   0  0  0  0  0  0  0  0  0  0  0  0
  139.3390   71.7410  223.6280 N   0  0  0  0  0  0  0  0  0  0  0  0
  138.0620   71.2080  224.0650 C   0  0  0  0  0  0  0  0  0  0  0  0
  138.1970   69.6940  224.0330 C   0  0  0  0  0  0  0  0  0  0  0  0
  139.3200   69.3460  224.9460 C   0  0  0  0  0  0  0  0  0  0  0  0
  139.2790   68.1210  225.5840 C   0  0  0  0  0  0  0  0  0  0  0  0
  140.3100   67.7640  226.4410 C   0  0  0  0  0  0  0  0  0  0  0  0
  141.3900   68.6090  226.6720 C   0  0  0  0  0  0  0  0  0  0  0  0
  141.4120   69.8250  226.0240 C   0  0  0  0  0  0  0  0  0  0  0  0
  140.3890   70.1900  225.1710 C   0  0  0  0  0  0  0  0  0  0  0  0
  140.4780   71.5310  224.5010 C   0  0  0  0  0  0  0  0  0  0  0  0
  139.5520   73.7920  222.4210 N   0  0  0  0  0  0  0  0  0  0  0  0
  139.7140   74.5110  221.2910 C   0  0  0  0  0  0  0  0  0  0  0  0
  139.7600   75.9300  221.2690 N   0  0  0  0  0  0  0  0  0  0  0  0
  138.5190   76.7160  221.3510 C   0  0  0  0  0  0  0  0  0  0  0  0
  138.5590   77.4160  222.6970 C   0  0  0  0  0  0  0  0  0  0  0  0
  139.7980   78.2360  222.7290 C   0  0  0  0  0  0  0  0  0  0  0  0
  139.7510   79.3830  223.5290 C   0  0  0  0  0  0  0  0  0  0  0  0
  140.8950   80.1800  223.5850 C   0  0  0  0  0  0  0  0  0  0  0  0
  142.0290   79.8340  222.8660 C   0  0  0  0  0  0  0  0  0  0  0  0
  142.0760   78.6980  222.0720 C   0  0  0  0  0  0  0  0  0  0  0  0
  140.9380   77.9140  222.0230 C   0  0  0  0  0  0  0  0  0  0  0  0
  140.9820   76.6940  221.1740 C   0  0  0  0  0  0  0  0  0  0  0  0
  139.8290   73.8370  220.1490 N   0  0  0  0  0  0  0  0  0  0  0  0
  139.5890   70.3830  218.6940 C   0  0  0  0  0  0  0  0  0  0  0  0
  141.9570   68.2970  219.1540 C   0  0  0  0  0  0  0  0  0  0  0  0
  143.3220   68.4190  219.4330 C   0  0  0  0  0  0  0  0  0  0  0  0
  145.8780   66.9410  220.7510 H   0  0  0  0  0  0  0  0  0  0  0  0
  147.4570   67.6690  220.5400 H   0  0  0  0  0  0  0  0  0  0  0  0
  144.6056   67.1535  216.5247 H   0  0  0  0  0  0  0  0  0  0  0  0
  142.1725   66.9529  216.0675 H   0  0  0  0  0  0  0  0  0  0  0  0
  139.9042   66.7247  217.0110 H   0  0  0  0  0  0  0  0  0  0  0  0
  139.4599   67.5551  218.5049 H   0  0  0  0  0  0  0  0  0  0  0  0
  140.3345   68.7997  215.8692 H   0  0  0  0  0  0  0  0  0  0  0  0
  138.6571   68.8147  216.6912 H   0  0  0  0  0  0  0  0  0  0  0  0
  142.0375   70.1169  217.0458 H   0  0  0  0  0  0  0  0  0  0  0  0
  141.1343   71.2985  216.0866 H   0  0  0  0  0  0  0  0  0  0  0  0
  142.0589   71.4786  218.9727 H   0  0  0  0  0  0  0  0  0  0  0  0
  141.7640   72.8039  217.8955 H   0  0  0  0  0  0  0  0  0  0  0  0
  139.2648   72.5441  218.1621 H   0  0  0  0  0  0  0  0  0  0  0  0
  137.8367   71.5486  225.0864 H   0  0  0  0  0  0  0  0  0  0  0  0
  137.2430   71.5498  223.4150 H   0  0  0  0  0  0  0  0  0  0  0  0
  137.2658   69.2228  224.3805 H   0  0  0  0  0  0  0  0  0  0  0  0
  138.3915   69.3353  223.0115 H   0  0  0  0  0  0  0  0  0  0  0  0
  138.4363   67.4348  225.4139 H   0  0  0  0  0  0  0  0  0  0  0  0
  140.2722   66.7895  226.9498 H   0  0  0  0  0  0  0  0  0  0  0  0
  142.2031   68.3153  227.3522 H   0  0  0  0  0  0  0  0  0  0  0  0
  142.2544   70.5131  226.1881 H   0  0  0  0  0  0  0  0  0  0  0  0
  140.4953   72.3185  225.2688 H   0  0  0  0  0  0  0  0  0  0  0  0
  141.3980   71.5668  223.8991 H   0  0  0  0  0  0  0  0  0  0  0  0
  138.4791   77.4544  220.5366 H   0  0  0  0  0  0  0  0  0  0  0  0
  137.6288   76.0771  221.2540 H   0  0  0  0  0  0  0  0  0  0  0  0
  137.6763   78.0622  222.8122 H   0  0  0  0  0  0  0  0  0  0  0  0
  138.5537   76.6841  223.5182 H   0  0  0  0  0  0  0  0  0  0  0  0
  138.8446   79.6470  224.0936 H   0  0  0  0  0  0  0  0  0  0  0  0
  140.8972   81.0893  224.2040 H   0  0  0  0  0  0  0  0  0  0  0  0
  142.9175   80.4796  222.9272 H   0  0  0  0  0  0  0  0  0  0  0  0
  142.9803   78.4318  221.5051 H   0  0  0  0  0  0  0  0  0  0  0  0
  141.1336   76.9943  220.1267 H   0  0  0  0  0  0  0  0  0  0  0  0
  141.8093   76.0611  221.5276 H   0  0  0  0  0  0  0  0  0  0  0  0
  140.1692   69.8049  219.4282 H   0  0  0  0  0  0  0  0  0  0  0  0
  138.5477   70.1271  218.9393 H   0  0  0  0  0  0  0  0  0  0  0  0
  141.2103   68.6191  219.8947 H   0  0  0  0  0  0  0  0  0  0  0  0
  143.6491   68.8381  220.3960 H   0  0  0  0  0  0  0  0  0  0  0  0
  1  2  1  0
  2  3  2  0
  2  4  2  0
  2  5  1  0
  5  6  2  0
  6  7  1  0
  7  8  2  0
  8  9  1  0
  9 10  1  0
 10 11  1  0
 11 12  1  0
 12 13  1  0
 13 14  1  0
 14 15  1  0
 15 16  2  0
 16 17  1  0
 17 18  1  0
 18 19  1  0
 19 20  1  0
 20 21  1  0
 21 22  2  0
 22 23  1  0
 23 24  2  0
 24 25  1  0
 25 26  2  0
 26 27  1  0
 17 28  2  0
 28 29  1  0
 29 30  1  0
 30 31  1  0
 31 32  1  0
 32 33  1  0
 33 34  2  0
 34 35  1  0
 35 36  2  0
 36 37  1  0
 37 38  2  0
 38 39  1  0
 29 40  2  0
 14 41  1  0
  8 42  1  0
 42 43  2  0
 43  5  1  0
 41 11  1  0
 40 15  1  0
 27 18  1  0
 39 30  1  0
 26 21  1  0
 38 33  1  0
  1 44  1  0
  1 45  1  0
  6 46  1  0
  7 47  1  0
  9 48  1  0
  9 49  1  0
 10 50  1  0
 10 51  1  0
 12 52  1  0
 12 53  1  0
 13 54  1  0
 13 55  1  0
 14 56  1  6
 19 57  1  0
 19 58  1  0
 20 59  1  0
 20 60  1  0
 22 61  1  0
 23 62  1  0
 24 63  1  0
 25 64  1  0
 27 65  1  0
 27 66  1  0
 31 67  1  0
 31 68  1  0
 32 69  1  0
 32 70  1  0
 34 71  1  0
 35 72  1  0
 36 73  1  0
 37 74  1  0
 39 75  1  0
 39 76  1  0
 41 77  1  0
 41 78  1  0
 42 79  1  0
 43 80  1  0
M  END
>  <smiles>  (8) 
NS(=O)(=O)c1ccc(CCN2CCC(c3nc(N4CCc5ccccc5C4)nc(N4CCc5ccccc5C4)n3)C2)cc1

>  <score_type>  (8) 
oracle

>  <origin>  (8) 
autodockgpu

>  <m_score__min__energy>  (8) 
-11.56

>  <m_primary>  (8) 
energy

>  <rmsd>  (8) 
11.288560850169056

>  <m_score__min__rmsd>  (8) 
11.288560850169056

>  <meeko>  (8) 
{"free_energy": -9.74, "intermolecular_energy": -12.13, "internal_energy": -1.78, "cluster_size": 1, "cluster_id": 11, "rank_in_cluster": 1}

>  <energy>  (8) 
-10.64

>  <cluster_rmsd>  (8) 
1.66

>  <cluster>  (8) 
1

$$$$

     RDKit          3D

 80 86  0  0  1  0  0  0  0  0999 V2000
  140.9340   67.7870  227.6960 N   0  0  0  0  0  0  0  0  0  0  0  0
  140.2180   69.2840  227.2170 S   0  0  0  0  0  0  0  0  0  0  0  0
  141.3390   70.2840  227.0840 O   0  0  0  0  0  0  0  0  0  0  0  0
  139.3370   69.7580  228.3150 O   0  0  0  0  0  0  0  0  0  0  0  0
  139.3990   69.1740  225.6770 C   0  0  0  0  0  0  0  0  0  0  0  0
  138.5430   70.2130  225.3250 C   0  0  0  0  0  0  0  0  0  0  0  0
  137.8870   70.1280  224.1030 C   0  0  0  0  0  0  0  0  0  0  0  0
  138.0510   69.0680  223.2400 C   0  0  0  0  0  0  0  0  0  0  0  0
  137.2950   69.0350  221.9320 C   0  0  0  0  0  0  0  0  0  0  0  0
  138.2340   69.6150  220.9200 C   0  0  0  0  0  0  0  0  0  0  0  0
  138.8130   70.8530  221.1790 N   0  0  0  0  0  0  0  0  0  0  0  0
  139.9820   70.9500  221.9670 C   0  0  0  0  0  0  0  0  0  0  0  0
  140.0280   72.4060  222.4710 C   0  0  0  0  0  0  0  0  0  0  0  0
  139.1010   73.0680  221.4710 C   0  0  2  0  0  0  0  0  0  0  0  0
  138.6090   74.3810  221.8640 C   0  0  0  0  0  0  0  0  0  0  0  0
  139.2670   75.5460  221.7450 N   0  0  0  0  0  0  0  0  0  0  0  0
  138.7270   76.7200  222.1390 C   0  0  0  0  0  0  0  0  0  0  0  0
  139.4160   77.9550  222.0140 N   0  0  0  0  0  0  0  0  0  0  0  0
  138.7390   79.2370  221.9510 C   0  0  0  0  0  0  0  0  0  0  0  0
  139.0970   79.9740  223.2310 C   0  0  0  0  0  0  0  0  0  0  0  0
  140.5810   80.0950  223.2540 C   0  0  0  0  0  0  0  0  0  0  0  0
  141.1310   81.1860  223.9000 C   0  0  0  0  0  0  0  0  0  0  0  0
  142.5110   81.3290  223.9420 C   0  0  0  0  0  0  0  0  0  0  0  0
  143.3570   80.3980  223.3490 C   0  0  0  0  0  0  0  0  0  0  0  0
  142.7870   79.3180  222.7110 C   0  0  0  0  0  0  0  0  0  0  0  0
  141.4150   79.1670  222.6630 C   0  0  0  0  0  0  0  0  0  0  0  0
  140.8650   77.9670  221.9490 C   0  0  0  0  0  0  0  0  0  0  0  0
  137.4840   76.7120  222.6720 N   0  0  0  0  0  0  0  0  0  0  0  0
  136.7810   75.5710  222.8140 C   0  0  0  0  0  0  0  0  0  0  0  0
  135.4750   75.5230  223.3730 N   0  0  0  0  0  0  0  0  0  0  0  0
  134.5910   74.3780  223.1000 C   0  0  0  0  0  0  0  0  0  0  0  0
  134.4430   73.6440  224.4190 C   0  0  0  0  0  0  0  0  0  0  0  0
  133.8920   74.6130  225.4030 C   0  0  0  0  0  0  0  0  0  0  0  0
  133.1220   74.0670  226.4340 C   0  0  0  0  0  0  0  0  0  0  0  0
  132.5870   74.9450  227.3770 C   0  0  0  0  0  0  0  0  0  0  0  0
  132.8190   76.3090  227.2800 C   0  0  0  0  0  0  0  0  0  0  0  0
  133.5820   76.8520  226.2560 C   0  0  0  0  0  0  0  0  0  0  0  0
  134.1080   75.9740  225.3270 C   0  0  0  0  0  0  0  0  0  0  0  0
  134.9280   76.5500  224.2270 C   0  0  0  0  0  0  0  0  0  0  0  0
  137.3580   74.4420  222.4090 N   0  0  0  0  0  0  0  0  0  0  0  0
  137.9960   71.9940  221.4010 C   0  0  0  0  0  0  0  0  0  0  0  0
  138.9040   68.0360  223.5960 C   0  0  0  0  0  0  0  0  0  0  0  0
  139.5810   68.0880  224.8180 C   0  0  0  0  0  0  0  0  0  0  0  0
  140.3910   66.9910  227.3310 H   0  0  0  0  0  0  0  0  0  0  0  0
  141.9620   67.7540  227.4540 H   0  0  0  0  0  0  0  0  0  0  0  0
  138.3905   71.0739  225.9926 H   0  0  0  0  0  0  0  0  0  0  0  0
  137.2074   70.9428  223.8127 H   0  0  0  0  0  0  0  0  0  0  0  0
  137.0312   68.0010  221.6651 H   0  0  0  0  0  0  0  0  0  0  0  0
  136.3522   69.5989  221.9882 H   0  0  0  0  0  0  0  0  0  0  0  0
  139.0549   68.8945  220.7895 H   0  0  0  0  0  0  0  0  0  0  0  0
  137.5998   69.7955  220.0395 H   0  0  0  0  0  0  0  0  0  0  0  0
  139.9310   70.2521  222.8157 H   0  0  0  0  0  0  0  0  0  0  0  0
  140.8823   70.6923  221.3898 H   0  0  0  0  0  0  0  0  0  0  0  0
  139.6466   72.4931  223.4991 H   0  0  0  0  0  0  0  0  0  0  0  0
  141.0360   72.8433  222.5241 H   0  0  0  0  0  0  0  0  0  0  0  0
  139.5805   73.3186  220.5132 H   0  0  0  0  0  0  0  0  0  0  0  0
  139.0832   79.8064  221.0751 H   0  0  0  0  0  0  0  0  0  0  0  0
  137.6507   79.1092  221.8552 H   0  0  0  0  0  0  0  0  0  0  0  0
  138.6351   80.9723  223.2356 H   0  0  0  0  0  0  0  0  0  0  0  0
  138.7303   79.4323  224.1154 H   0  0  0  0  0  0  0  0  0  0  0  0
  140.4809   81.9344  224.3767 H   0  0  0  0  0  0  0  0  0  0  0  0
  142.9456   82.1989  224.4563 H   0  0  0  0  0  0  0  0  0  0  0  0
  144.4495   80.5203  223.3882 H   0  0  0  0  0  0  0  0  0  0  0  0
  143.4330   78.5664  222.2337 H   0  0  0  0  0  0  0  0  0  0  0  0
  141.1795   77.9974  220.8954 H   0  0  0  0  0  0  0  0  0  0  0  0
  141.2497   77.0579  222.4344 H   0  0  0  0  0  0  0  0  0  0  0  0
  133.6105   74.7277  222.7445 H   0  0  0  0  0  0  0  0  0  0  0  0
  135.0058   73.7246  222.3183 H   0  0  0  0  0  0  0  0  0  0  0  0
  133.7550   72.7937  224.3018 H   0  0  0  0  0  0  0  0  0  0  0  0
  135.4132   73.2523  224.7585 H   0  0  0  0  0  0  0  0  0  0  0  0
  132.9442   72.9834  226.4995 H   0  0  0  0  0  0  0  0  0  0  0  0
  131.9766   74.5525  228.2037 H   0  0  0  0  0  0  0  0  0  0  0  0
  132.3857   76.9797  228.0366 H   0  0  0  0  0  0  0  0  0  0  0  0
  133.7607   77.9352  226.1865 H   0  0  0  0  0  0  0  0  0  0  0  0
  134.2952   77.2164  223.6224 H   0  0  0  0  0  0  0  0  0  0  0  0
  135.7657   77.1024  224.6777 H   0  0  0  0  0  0  0  0  0  0  0  0
  137.4312   71.9207  222.3420 H   0  0  0  0  0  0  0  0  0  0  0  0
  137.2115   72.1689  220.6500 H   0  0  0  0  0  0  0  0  0  0  0  0
  139.0479   67.1799  222.9204 H   0  0  0  0  0  0  0  0  0  0  0  0
  140.2594   67.2707  225.1039 H   0  0  0  0  0  0  0  0  0  0  0  0
  1  2  1  0
  2  3  2  0
  2  4  2  0
  2  5  1  0
  5  6  2  0
  6  7  1  0
  7  8  2  0
  8  9  1  0
  9 10  1  0
 10 11  1  0
 11 12  1  0
 12 13  1  0
 13 14  1  0
 14 15  1  0
 15 16  2  0
 16 17  1  0
 17 18  1  0
 18 19  1  0
 19 20  1  0
 20 21  1  0
 21 22  2  0
 22 23  1  0
 23 24  2  0
 24 25  1  0
 25 26  2  0
 26 27  1  0
 17 28  2  0
 28 29  1  0
 29 30  1  0
 30 31  1  0
 31 32  1  0
 32 33  1  0
 33 34  2  0
 34 35  1  0
 35 36  2  0
 36 37  1  0
 37 38  2  0
 38 39  1  0
 29 40  2  0
 14 41  1  0
  8 42  1  0
 42 43  2  0
 43  5  1  0
 41 11  1  0
 40 15  1  0
 27 18  1  0
 39 30  1  0
 26 21  1  0
 38 33  1  0
  1 44  1  0
  1 45  1  0
  6 46  1  0
  7 47  1  0
  9 48  1  0
  9 49  1  0
 10 50  1  0
 10 51  1  0
 12 52  1  0
 12 53  1  0
 13 54  1  0
 13 55  1  0
 14 56  1  6
 19 57  1  0
 19 58  1  0
 20 59  1  0
 20 60  1  0
 22 61  1  0
 23 62  1  0
 24 63  1  0
 25 64  1  0
 27 65  1  0
 27 66  1  0
 31 67  1  0
 31 68  1  0
 32 69  1  0
 32 70  1  0
 34 71  1  0
 35 72  1  0
 36 73  1  0
 37 74  1  0
 39 75  1  0
 39 76  1  0
 41 77  1  0
 41 78  1  0
 42 79  1  0
 43 80  1  0
M  END
>  <smiles>  (9) 
NS(=O)(=O)c1ccc(CCN2CCC(c3nc(N4CCc5ccccc5C4)nc(N4CCc5ccccc5C4)n3)C2)cc1

>  <score_type>  (9) 
oracle

>  <origin>  (9) 
autodockgpu

>  <m_score__min__energy>  (9) 
-11.56

>  <m_primary>  (9) 
energy

>  <rmsd>  (9) 
10.19744613912327

>  <m_score__min__rmsd>  (9) 
10.19744613912327

>  <meeko>  (9) 
{"free_energy": -10.03, "intermolecular_energy": -12.41, "internal_energy": -1.77, "cluster_size": 5, "cluster_id": 7, "rank_in_cluster": 3}

>  <energy>  (9) 
-10.57

>  <cluster_rmsd>  (9) 
1.48

>  <cluster>  (9) 
1

$$$$

     RDKit          3D

 80 86  0  0  1  0  0  0  0  0999 V2000
  142.8350   81.2980  216.3040 N   0  0  0  0  0  0  0  0  0  0  0  0
  142.4990   82.5110  217.4870 S   0  0  0  0  0  0  0  0  0  0  0  0
  141.4770   83.4420  216.8840 O   0  0  0  0  0  0  0  0  0  0  0  0
  143.7350   83.3050  217.7130 O   0  0  0  0  0  0  0  0  0  0  0  0
  141.8300   81.8470  218.9590 C   0  0  0  0  0  0  0  0  0  0  0  0
  142.1130   80.5170  219.2540 C   0  0  0  0  0  0  0  0  0  0  0  0
  141.5800   79.9830  220.4210 C   0  0  0  0  0  0  0  0  0  0  0  0
  140.7930   80.7130  221.2840 C   0  0  0  0  0  0  0  0  0  0  0  0
  140.2360   80.0630  222.5300 C   0  0  0  0  0  0  0  0  0  0  0  0
  141.0060   78.7880  222.6880 C   0  0  0  0  0  0  0  0  0  0  0  0
  140.4400   77.6070  222.2200 N   0  0  0  0  0  0  0  0  0  0  0  0
  139.0570   77.3610  222.3720 C   0  0  0  0  0  0  0  0  0  0  0  0
  138.8860   75.8340  222.2460 C   0  0  0  0  0  0  0  0  0  0  0  0
  140.1780   75.4750  221.5400 C   0  0  2  0  0  0  0  0  0  0  0  0
  140.5340   74.0640  221.5900 C   0  0  0  0  0  0  0  0  0  0  0  0
  141.2890   73.4010  220.6980 N   0  0  0  0  0  0  0  0  0  0  0  0
  141.5670   72.0850  220.8290 C   0  0  0  0  0  0  0  0  0  0  0  0
  142.3650   71.3790  219.8910 N   0  0  0  0  0  0  0  0  0  0  0  0
  143.3560   72.0240  219.0490 C   0  0  0  0  0  0  0  0  0  0  0  0
  144.7100   71.5200  219.5180 C   0  0  0  0  0  0  0  0  0  0  0  0
  144.6910   70.0390  219.3700 C   0  0  0  0  0  0  0  0  0  0  0  0
  145.8890   69.3980  219.1180 C   0  0  0  0  0  0  0  0  0  0  0  0
  145.9070   68.0180  218.9760 C   0  0  0  0  0  0  0  0  0  0  0  0
  144.7460   67.2610  219.0830 C   0  0  0  0  0  0  0  0  0  0  0  0
  143.5620   67.9190  219.3360 C   0  0  0  0  0  0  0  0  0  0  0  0
  143.5340   69.2930  219.4770 C   0  0  0  0  0  0  0  0  0  0  0  0
  142.2090   69.9440  219.7490 C   0  0  0  0  0  0  0  0  0  0  0  0
  141.0630   71.4210  221.8930 N   0  0  0  0  0  0  0  0  0  0  0  0
  140.2990   72.0390  222.8170 C   0  0  0  0  0  0  0  0  0  0  0  0
  139.7490   71.3740  223.9460 N   0  0  0  0  0  0  0  0  0  0  0  0
  138.5860   70.4860  223.7930 C   0  0  0  0  0  0  0  0  0  0  0  0
  139.0960   69.0840  224.0700 C   0  0  0  0  0  0  0  0  0  0  0  0
  139.6760   69.0900  225.4390 C   0  0  0  0  0  0  0  0  0  0  0  0
  139.6340   67.8720  226.1260 C   0  0  0  0  0  0  0  0  0  0  0  0
  140.1690   67.8380  227.4140 C   0  0  0  0  0  0  0  0  0  0  0  0
  140.7180   68.9790  227.9790 C   0  0  0  0  0  0  0  0  0  0  0  0
  140.7590   70.1870  227.2990 C   0  0  0  0  0  0  0  0  0  0  0  0
  140.2270   70.2120  226.0230 C   0  0  0  0  0  0  0  0  0  0  0  0
  140.2680   71.5040  225.2870 C   0  0  0  0  0  0  0  0  0  0  0  0
  140.0560   73.3360  222.6430 N   0  0  0  0  0  0  0  0  0  0  0  0
  141.1530   76.3820  222.3200 C   0  0  0  0  0  0  0  0  0  0  0  0
  140.5140   82.0370  220.9850 C   0  0  0  0  0  0  0  0  0  0  0  0
  141.0340   82.6070  219.8190 C   0  0  0  0  0  0  0  0  0  0  0  0
  143.5640   81.6190  215.6520 H   0  0  0  0  0  0  0  0  0  0  0  0
  143.0400   80.3640  216.7550 H   0  0  0  0  0  0  0  0  0  0  0  0
  142.7385   79.9078  218.5850 H   0  0  0  0  0  0  0  0  0  0  0  0
  141.7958   78.9326  220.6660 H   0  0  0  0  0  0  0  0  0  0  0  0
  140.3852   80.7141  223.4039 H   0  0  0  0  0  0  0  0  0  0  0  0
  139.1540   79.8816  222.4495 H   0  0  0  0  0  0  0  0  0  0  0  0
  141.9631   78.9197  222.1621 H   0  0  0  0  0  0  0  0  0  0  0  0
  141.0663   78.6439  223.7769 H   0  0  0  0  0  0  0  0  0  0  0  0
  138.7129   77.7049  223.3585 H   0  0  0  0  0  0  0  0  0  0  0  0
  138.4647   77.8985  221.6169 H   0  0  0  0  0  0  0  0  0  0  0  0
  138.8122   75.3500  223.2310 H   0  0  0  0  0  0  0  0  0  0  0  0
  137.9718   75.5142  221.7245 H   0  0  0  0  0  0  0  0  0  0  0  0
  140.1523   75.6313  220.4515 H   0  0  0  0  0  0  0  0  0  0  0  0
  143.1937   71.7540  217.9951 H   0  0  0  0  0  0  0  0  0  0  0  0
  143.2905   73.1195  219.1233 H   0  0  0  0  0  0  0  0  0  0  0  0
  145.5103   71.9524  218.8995 H   0  0  0  0  0  0  0  0  0  0  0  0
  144.9000   71.8105  220.5618 H   0  0  0  0  0  0  0  0  0  0  0  0
  146.8203   69.9769  219.0307 H   0  0  0  0  0  0  0  0  0  0  0  0
  146.8621   67.5111  218.7741 H   0  0  0  0  0  0  0  0  0  0  0  0
  144.7717   66.1672  218.9689 H   0  0  0  0  0  0  0  0  0  0  0  0
  142.6287   67.3438  219.4267 H   0  0  0  0  0  0  0  0  0  0  0  0
  141.5254   69.7357  218.9128 H   0  0  0  0  0  0  0  0  0  0  0  0
  141.7996   69.5373  220.6855 H   0  0  0  0  0  0  0  0  0  0  0  0
  137.8001   70.7568  224.5134 H   0  0  0  0  0  0  0  0  0  0  0  0
  138.1460   70.5652  222.7879 H   0  0  0  0  0  0  0  0  0  0  0  0
  138.2666   68.3635  224.0152 H   0  0  0  0  0  0  0  0  0  0  0  0
  139.8516   68.7893  223.3269 H   0  0  0  0  0  0  0  0  0  0  0  0
  139.1951   66.9737  225.6673 H   0  0  0  0  0  0  0  0  0  0  0  0
  140.1552   66.8985  227.9859 H   0  0  0  0  0  0  0  0  0  0  0  0
  141.1331   68.9245  228.9962 H   0  0  0  0  0  0  0  0  0  0  0  0
  141.1963   71.0872  227.7555 H   0  0  0  0  0  0  0  0  0  0  0  0
  139.6637   72.2438  225.8325 H   0  0  0  0  0  0  0  0  0  0  0  0
  141.3179   71.8247  225.2176 H   0  0  0  0  0  0  0  0  0  0  0  0
  141.2728   76.0579  223.3643 H   0  0  0  0  0  0  0  0  0  0  0  0
  142.1863   76.4024  221.9433 H   0  0  0  0  0  0  0  0  0  0  0  0
  139.8868   82.6363  221.6614 H   0  0  0  0  0  0  0  0  0  0  0  0
  140.8154   83.6578  219.5781 H   0  0  0  0  0  0  0  0  0  0  0  0
  1  2  1  0
  2  3  2  0
  2  4  2  0
  2  5  1  0
  5  6  2  0
  6  7  1  0
  7  8  2  0
  8  9  1  0
  9 10  1  0
 10 11  1  0
 11 12  1  0
 12 13  1  0
 13 14  1  0
 14 15  1  0
 15 16  2  0
 16 17  1  0
 17 18  1  0
 18 19  1  0
 19 20  1  0
 20 21  1  0
 21 22  2  0
 22 23  1  0
 23 24  2  0
 24 25  1  0
 25 26  2  0
 26 27  1  0
 17 28  2  0
 28 29  1  0
 29 30  1  0
 30 31  1  0
 31 32  1  0
 32 33  1  0
 33 34  2  0
 34 35  1  0
 35 36  2  0
 36 37  1  0
 37 38  2  0
 38 39  1  0
 29 40  2  0
 14 41  1  0
  8 42  1  0
 42 43  2  0
 43  5  1  0
 41 11  1  0
 40 15  1  0
 27 18  1  0
 39 30  1  0
 26 21  1  0
 38 33  1  0
  1 44  1  0
  1 45  1  0
  6 46  1  0
  7 47  1  0
  9 48  1  0
  9 49  1  0
 10 50  1  0
 10 51  1  0
 12 52  1  0
 12 53  1  0
 13 54  1  0
 13 55  1  0
 14 56  1  6
 19 57  1  0
 19 58  1  0
 20 59  1  0
 20 60  1  0
 22 61  1  0
 23 62  1  0
 24 63  1  0
 25 64  1  0
 27 65  1  0
 27 66  1  0
 31 67  1  0
 31 68  1  0
 32 69  1  0
 32 70  1  0
 34 71  1  0
 35 72  1  0
 36 73  1  0
 37 74  1  0
 39 75  1  0
 39 76  1  0
 41 77  1  0
 41 78  1  0
 42 79  1  0
 43 80  1  0
M  END
>  <smiles>  (10) 
NS(=O)(=O)c1ccc(CCN2CCC(c3nc(N4CCc5ccccc5C4)nc(N4CCc5ccccc5C4)n3)C2)cc1

>  <score_type>  (10) 
oracle

>  <origin>  (10) 
autodockgpu

>  <m_score__min__energy>  (10) 
-11.56

>  <m_primary>  (10) 
energy

>  <rmsd>  (10) 
3.69989470948036

>  <m_score__min__rmsd>  (10) 
3.69989470948036

>  <meeko>  (10) 
{"free_energy": -11.43, "intermolecular_energy": -13.82, "internal_energy": -1.46, "cluster_size": 13, "cluster_id": 1, "rank_in_cluster": 2}

>  <energy>  (10) 
-10.27

>  <cluster_rmsd>  (10) 
1.98

>  <cluster>  (10) 
1

$$$$

     RDKit          3D

 80 86  0  0  1  0  0  0  0  0999 V2000
  136.7030   83.7690  227.1360 N   0  0  0  0  0  0  0  0  0  0  0  0
  136.1090   82.1480  227.1080 S   0  0  0  0  0  0  0  0  0  0  0  0
  134.6040   82.2320  227.1190 O   0  0  0  0  0  0  0  0  0  0  0  0
  136.5200   81.4730  228.3660 O   0  0  0  0  0  0  0  0  0  0  0  0
  136.5960   81.2800  225.6710 C   0  0  0  0  0  0  0  0  0  0  0  0
  135.6110   80.6020  224.9610 C   0  0  0  0  0  0  0  0  0  0  0  0
  135.9940   79.9080  223.8190 C   0  0  0  0  0  0  0  0  0  0  0  0
  137.2950   79.8660  223.3730 C   0  0  0  0  0  0  0  0  0  0  0  0
  137.6430   79.0800  222.1300 C   0  0  0  0  0  0  0  0  0  0  0  0
  139.0480   78.6070  222.3420 C   0  0  0  0  0  0  0  0  0  0  0  0
  139.4830   77.4800  221.6530 N   0  0  0  0  0  0  0  0  0  0  0  0
  138.9870   77.1900  220.3620 C   0  0  0  0  0  0  0  0  0  0  0  0
  139.2470   75.6870  220.1400 C   0  0  0  0  0  0  0  0  0  0  0  0
  140.3200   75.4420  221.1830 C   0  0  2  0  0  0  0  0  0  0  0  0
  140.5440   74.0430  221.5180 C   0  0  0  0  0  0  0  0  0  0  0  0
  140.0560   73.3920  222.5880 N   0  0  0  0  0  0  0  0  0  0  0  0
  140.3190   72.0870  222.8160 C   0  0  0  0  0  0  0  0  0  0  0  0
  139.8050   71.3940  223.9440 N   0  0  0  0  0  0  0  0  0  0  0  0
  138.6460   70.5230  223.8780 C   0  0  0  0  0  0  0  0  0  0  0  0
  139.1550   69.1130  224.1270 C   0  0  0  0  0  0  0  0  0  0  0  0
  139.8050   69.1230  225.4660 C   0  0  0  0  0  0  0  0  0  0  0  0
  139.7930   67.9520  226.2000 C   0  0  0  0  0  0  0  0  0  0  0  0
  140.3910   67.9250  227.4520 C   0  0  0  0  0  0  0  0  0  0  0  0
  141.0070   69.0510  227.9870 C   0  0  0  0  0  0  0  0  0  0  0  0
  141.0080   70.2080  227.2390 C   0  0  0  0  0  0  0  0  0  0  0  0
  140.4140   70.2450  225.9920 C   0  0  0  0  0  0  0  0  0  0  0  0
  140.4520   71.5390  225.2340 C   0  0  0  0  0  0  0  0  0  0  0  0
  141.1010   71.4220  221.9370 N   0  0  0  0  0  0  0  0  0  0  0  0
  141.6160   72.0280  220.8470 C   0  0  0  0  0  0  0  0  0  0  0  0
  142.4440   71.3630  219.9030 N   0  0  0  0  0  0  0  0  0  0  0  0
  143.4070   72.1240  219.0930 C   0  0  0  0  0  0  0  0  0  0  0  0
  144.7820   71.7000  219.5750 C   0  0  0  0  0  0  0  0  0  0  0  0
  144.8740   70.2270  219.3980 C   0  0  0  0  0  0  0  0  0  0  0  0
  146.1570   69.7160  219.1800 C   0  0  0  0  0  0  0  0  0  0  0  0
  146.2850   68.3370  219.0100 C   0  0  0  0  0  0  0  0  0  0  0  0
  145.1680   67.5160  219.0560 C   0  0  0  0  0  0  0  0  0  0  0  0
  143.8940   68.0210  219.2710 C   0  0  0  0  0  0  0  0  0  0  0  0
  143.7780   69.3890  219.4390 C   0  0  0  0  0  0  0  0  0  0  0  0
  142.4150   69.9380  219.6710 C   0  0  0  0  0  0  0  0  0  0  0  0
  141.3260   73.3140  220.6670 N   0  0  0  0  0  0  0  0  0  0  0  0
  139.7340   76.2670  222.3470 C   0  0  0  0  0  0  0  0  0  0  0  0
  138.2730   80.5430  224.0840 C   0  0  0  0  0  0  0  0  0  0  0  0
  137.9240   81.2520  225.2370 C   0  0  0  0  0  0  0  0  0  0  0  0
  136.3050   84.3160  226.3600 H   0  0  0  0  0  0  0  0  0  0  0  0
  136.5730   84.2130  228.0870 H   0  0  0  0  0  0  0  0  0  0  0  0
  134.5622   80.6145  225.2925 H   0  0  0  0  0  0  0  0  0  0  0  0
  135.2239   79.3693  223.2474 H   0  0  0  0  0  0  0  0  0  0  0  0
  136.9620   78.2242  222.0120 H   0  0  0  0  0  0  0  0  0  0  0  0
  137.5486   79.6898  221.2194 H   0  0  0  0  0  0  0  0  0  0  0  0
  139.7147   79.4357  222.0615 H   0  0  0  0  0  0  0  0  0  0  0  0
  139.0708   78.3005  223.3982 H   0  0  0  0  0  0  0  0  0  0  0  0
  137.9094   77.4043  220.3086 H   0  0  0  0  0  0  0  0  0  0  0  0
  139.4779   77.8038  219.5924 H   0  0  0  0  0  0  0  0  0  0  0  0
  138.3467   75.0852  220.3329 H   0  0  0  0  0  0  0  0  0  0  0  0
  139.5320   75.4153  219.1129 H   0  0  0  0  0  0  0  0  0  0  0  0
  141.3321   75.7287  220.8612 H   0  0  0  0  0  0  0  0  0  0  0  0
  137.9137   70.8049  224.6489 H   0  0  0  0  0  0  0  0  0  0  0  0
  138.1443   70.5996  222.9021 H   0  0  0  0  0  0  0  0  0  0  0  0
  138.3171   68.4003  224.1177 H   0  0  0  0  0  0  0  0  0  0  0  0
  139.8646   68.8047  223.3451 H   0  0  0  0  0  0  0  0  0  0  0  0
  139.3133   67.0487  225.7951 H   0  0  0  0  0  0  0  0  0  0  0  0
  140.3774   66.9919  228.0343 H   0  0  0  0  0  0  0  0  0  0  0  0
  141.4802   69.0189  228.9795 H   0  0  0  0  0  0  0  0  0  0  0  0
  141.4875   71.1134  227.6394 H   0  0  0  0  0  0  0  0  0  0  0  0
  139.9304   72.3138  225.8150 H   0  0  0  0  0  0  0  0  0  0  0  0
  141.5019   71.8257  225.0740 H   0  0  0  0  0  0  0  0  0  0  0  0
  143.2844   71.8836  218.0266 H   0  0  0  0  0  0  0  0  0  0  0  0
  143.2577   73.2085  219.2009 H   0  0  0  0  0  0  0  0  0  0  0  0
  145.5607   72.2005  218.9808 H   0  0  0  0  0  0  0  0  0  0  0  0
  144.9291   71.9769  220.6294 H   0  0  0  0  0  0  0  0  0  0  0  0
  147.0348   70.3779  219.1438 H   0  0  0  0  0  0  0  0  0  0  0  0
  147.2788   67.8979  218.8383 H   0  0  0  0  0  0  0  0  0  0  0  0
  145.2962   66.4323  218.9179 H   0  0  0  0  0  0  0  0  0  0  0  0
  143.0140   67.3619  219.3063 H   0  0  0  0  0  0  0  0  0  0  0  0
  141.7934   69.7336  218.7868 H   0  0  0  0  0  0  0  0  0  0  0  0
  141.9989   69.4538  220.5668 H   0  0  0  0  0  0  0  0  0  0  0  0
  138.8109   75.8208  222.7454 H   0  0  0  0  0  0  0  0  0  0  0  0
  140.3757   76.3540  223.2362 H   0  0  0  0  0  0  0  0  0  0  0  0
  139.3185   80.5226  223.7428 H   0  0  0  0  0  0  0  0  0  0  0  0
  138.6975   81.7899  225.8048 H   0  0  0  0  0  0  0  0  0  0  0  0
  1  2  1  0
  2  3  2  0
  2  4  2  0
  2  5  1  0
  5  6  2  0
  6  7  1  0
  7  8  2  0
  8  9  1  0
  9 10  1  0
 10 11  1  0
 11 12  1  0
 12 13  1  0
 13 14  1  0
 14 15  1  0
 15 16  2  0
 16 17  1  0
 17 18  1  0
 18 19  1  0
 19 20  1  0
 20 21  1  0
 21 22  2  0
 22 23  1  0
 23 24  2  0
 24 25  1  0
 25 26  2  0
 26 27  1  0
 17 28  2  0
 28 29  1  0
 29 30  1  0
 30 31  1  0
 31 32  1  0
 32 33  1  0
 33 34  2  0
 34 35  1  0
 35 36  2  0
 36 37  1  0
 37 38  2  0
 38 39  1  0
 29 40  2  0
 14 41  1  0
  8 42  1  0
 42 43  2  0
 43  5  1  0
 41 11  1  0
 40 15  1  0
 27 18  1  0
 39 30  1  0
 26 21  1  0
 38 33  1  0
  1 44  1  0
  1 45  1  0
  6 46  1  0
  7 47  1  0
  9 48  1  0
  9 49  1  0
 10 50  1  0
 10 51  1  0
 12 52  1  0
 12 53  1  0
 13 54  1  0
 13 55  1  0
 14 56  1  6
 19 57  1  0
 19 58  1  0
 20 59  1  0
 20 60  1  0
 22 61  1  0
 23 62  1  0
 24 63  1  0
 25 64  1  0
 27 65  1  0
 27 66  1  0
 31 67  1  0
 31 68  1  0
 32 69  1  0
 32 70  1  0
 34 71  1  0
 35 72  1  0
 36 73  1  0
 37 74  1  0
 39 75  1  0
 39 76  1  0
 41 77  1  0
 41 78  1  0
 42 79  1  0
 43 80  1  0
M  END
>  <smiles>  (11) 
NS(=O)(=O)c1ccc(CCN2CCC(c3nc(N4CCc5ccccc5C4)nc(N4CCc5ccccc5C4)n3)C2)cc1

>  <score_type>  (11) 
oracle

>  <origin>  (11) 
autodockgpu

>  <m_score__min__energy>  (11) 
-11.56

>  <m_primary>  (11) 
energy

>  <rmsd>  (11) 
3.8796651884122015

>  <m_score__min__rmsd>  (11) 
3.8796651884122015

>  <meeko>  (11) 
{"free_energy": -10.75, "intermolecular_energy": -13.14, "internal_energy": -1.35, "cluster_size": 14, "cluster_id": 2, "rank_in_cluster": 9}

>  <energy>  (11) 
-10.13

>  <cluster_rmsd>  (11) 
1.08

>  <cluster>  (11) 
1

$$$$

     RDKit          3D

 80 86  0  0  1  0  0  0  0  0999 V2000
  136.5760   83.7960  226.6730 N   0  0  0  0  0  0  0  0  0  0  0  0
  136.1690   82.1940  226.1730 S   0  0  0  0  0  0  0  0  0  0  0  0
  134.7600   82.2460  225.6380 O   0  0  0  0  0  0  0  0  0  0  0  0
  136.1500   81.3160  227.3710 O   0  0  0  0  0  0  0  0  0  0  0  0
  137.2120   81.6020  224.9020 C   0  0  0  0  0  0  0  0  0  0  0  0
  138.0410   80.5240  225.1980 C   0  0  0  0  0  0  0  0  0  0  0  0
  138.8760   80.0510  224.1920 C   0  0  0  0  0  0  0  0  0  0  0  0
  138.9120   80.6040  222.9320 C   0  0  0  0  0  0  0  0  0  0  0  0
  139.8550   80.0470  221.8900 C   0  0  0  0  0  0  0  0  0  0  0  0
  140.4280   78.8060  222.5010 C   0  0  0  0  0  0  0  0  0  0  0  0
  140.2710   77.5980  221.8280 N   0  0  0  0  0  0  0  0  0  0  0  0
  139.1180   77.3530  221.0490 C   0  0  0  0  0  0  0  0  0  0  0  0
  139.0260   75.8210  220.9070 C   0  0  0  0  0  0  0  0  0  0  0  0
  140.4550   75.4330  221.2340 C   0  0  2  0  0  0  0  0  0  0  0  0
  140.6500   74.0280  221.5650 C   0  0  0  0  0  0  0  0  0  0  0  0
  140.1590   73.3870  222.6390 N   0  0  0  0  0  0  0  0  0  0  0  0
  140.3950   72.0760  222.8620 C   0  0  0  0  0  0  0  0  0  0  0  0
  139.8790   71.3920  223.9940 N   0  0  0  0  0  0  0  0  0  0  0  0
  138.7150   70.5270  223.9350 C   0  0  0  0  0  0  0  0  0  0  0  0
  139.2160   69.1160  224.1920 C   0  0  0  0  0  0  0  0  0  0  0  0
  139.8670   69.1300  225.5300 C   0  0  0  0  0  0  0  0  0  0  0  0
  139.8500   67.9640  226.2710 C   0  0  0  0  0  0  0  0  0  0  0  0
  140.4490   67.9420  227.5230 C   0  0  0  0  0  0  0  0  0  0  0  0
  141.0710   69.0680  228.0510 C   0  0  0  0  0  0  0  0  0  0  0  0
  141.0770   70.2200  227.2960 C   0  0  0  0  0  0  0  0  0  0  0  0
  140.4830   70.2520  226.0490 C   0  0  0  0  0  0  0  0  0  0  0  0
  140.5270   71.5420  225.2830 C   0  0  0  0  0  0  0  0  0  0  0  0
  141.1520   71.3950  221.9730 N   0  0  0  0  0  0  0  0  0  0  0  0
  141.6680   71.9900  220.8780 C   0  0  0  0  0  0  0  0  0  0  0  0
  142.4700   71.3090  219.9240 N   0  0  0  0  0  0  0  0  0  0  0  0
  143.4120   72.0550  219.0750 C   0  0  0  0  0  0  0  0  0  0  0  0
  144.7990   71.6370  219.5270 C   0  0  0  0  0  0  0  0  0  0  0  0
  144.8850   70.1610  219.3740 C   0  0  0  0  0  0  0  0  0  0  0  0
  146.1620   69.6460  219.1300 C   0  0  0  0  0  0  0  0  0  0  0  0
  146.2840   68.2640  218.9800 C   0  0  0  0  0  0  0  0  0  0  0  0
  145.1680   67.4450  219.0700 C   0  0  0  0  0  0  0  0  0  0  0  0
  143.9010   67.9550  219.3100 C   0  0  0  0  0  0  0  0  0  0  0  0
  143.7900   69.3260  219.4580 C   0  0  0  0  0  0  0  0  0  0  0  0
  142.4340   69.8800  219.7170 C   0  0  0  0  0  0  0  0  0  0  0  0
  141.4050   73.2830  220.7040 N   0  0  0  0  0  0  0  0  0  0  0  0
  140.7090   76.3840  222.4210 C   0  0  0  0  0  0  0  0  0  0  0  0
  138.0850   81.6780  222.6430 C   0  0  0  0  0  0  0  0  0  0  0  0
  137.2320   82.1780  223.6310 C   0  0  0  0  0  0  0  0  0  0  0  0
  136.9920   83.7880  227.6160 H   0  0  0  0  0  0  0  0  0  0  0  0
  137.1640   84.2910  225.9470 H   0  0  0  0  0  0  0  0  0  0  0  0
  138.0357   80.0611  226.1958 H   0  0  0  0  0  0  0  0  0  0  0  0
  139.5358   79.1988  224.4123 H   0  0  0  0  0  0  0  0  0  0  0  0
  139.3093   79.8053  220.9660 H   0  0  0  0  0  0  0  0  0  0  0  0
  140.6381   80.7695  221.6166 H   0  0  0  0  0  0  0  0  0  0  0  0
  141.5088   78.9726  222.6202 H   0  0  0  0  0  0  0  0  0  0  0  0
  139.8515   78.6730  223.4283 H   0  0  0  0  0  0  0  0  0  0  0  0
  138.2234   77.7454  221.5547 H   0  0  0  0  0  0  0  0  0  0  0  0
  139.1787   77.8479  220.0685 H   0  0  0  0  0  0  0  0  0  0  0  0
  138.3125   75.3879  221.6234 H   0  0  0  0  0  0  0  0  0  0  0  0
  138.6656   75.4698  219.9288 H   0  0  0  0  0  0  0  0  0  0  0  0
  141.1516   75.5326  220.3885 H   0  0  0  0  0  0  0  0  0  0  0  0
  137.9854   70.8179  224.7051 H   0  0  0  0  0  0  0  0  0  0  0  0
  138.2126   70.6003  222.9592 H   0  0  0  0  0  0  0  0  0  0  0  0
  138.3740   68.4081  224.1875 H   0  0  0  0  0  0  0  0  0  0  0  0
  139.9233   68.7991  223.4114 H   0  0  0  0  0  0  0  0  0  0  0  0
  139.3657   67.0605  225.8720 H   0  0  0  0  0  0  0  0  0  0  0  0
  140.4312   67.0125  228.1110 H   0  0  0  0  0  0  0  0  0  0  0  0
  141.5447   69.0395  229.0433 H   0  0  0  0  0  0  0  0  0  0  0  0
  141.5607   71.1257  227.6907 H   0  0  0  0  0  0  0  0  0  0  0  0
  140.0091   72.3227  225.8594 H   0  0  0  0  0  0  0  0  0  0  0  0
  141.5781   71.8230  225.1212 H   0  0  0  0  0  0  0  0  0  0  0  0
  143.2604   71.7967  218.0166 H   0  0  0  0  0  0  0  0  0  0  0  0
  143.2669   73.1414  219.1682 H   0  0  0  0  0  0  0  0  0  0  0  0
  145.5619   72.1256  218.9031 H   0  0  0  0  0  0  0  0  0  0  0  0
  144.9746   71.9321  220.5720 H   0  0  0  0  0  0  0  0  0  0  0  0
  147.0388   70.3065  219.0589 H   0  0  0  0  0  0  0  0  0  0  0  0
  147.2724   67.8208  218.7890 H   0  0  0  0  0  0  0  0  0  0  0  0
  145.2917   66.3589  218.9474 H   0  0  0  0  0  0  0  0  0  0  0  0
  143.0218   67.2976  219.3797 H   0  0  0  0  0  0  0  0  0  0  0  0
  141.7889   69.6613  218.8533 H   0  0  0  0  0  0  0  0  0  0  0  0
  142.0417   69.4114  220.6316 H   0  0  0  0  0  0  0  0  0  0  0  0
  140.1079   76.1144  223.3019 H   0  0  0  0  0  0  0  0  0  0  0  0
  141.7376   76.3911  222.8109 H   0  0  0  0  0  0  0  0  0  0  0  0
  138.0999   82.1342  221.6422 H   0  0  0  0  0  0  0  0  0  0  0  0
  136.5733   83.0296  223.4056 H   0  0  0  0  0  0  0  0  0  0  0  0
  1  2  1  0
  2  3  2  0
  2  4  2  0
  2  5  1  0
  5  6  2  0
  6  7  1  0
  7  8  2  0
  8  9  1  0
  9 10  1  0
 10 11  1  0
 11 12  1  0
 12 13  1  0
 13 14  1  0
 14 15  1  0
 15 16  2  0
 16 17  1  0
 17 18  1  0
 18 19  1  0
 19 20  1  0
 20 21  1  0
 21 22  2  0
 22 23  1  0
 23 24  2  0
 24 25  1  0
 25 26  2  0
 26 27  1  0
 17 28  2  0
 28 29  1  0
 29 30  1  0
 30 31  1  0
 31 32  1  0
 32 33  1  0
 33 34  2  0
 34 35  1  0
 35 36  2  0
 36 37  1  0
 37 38  2  0
 38 39  1  0
 29 40  2  0
 14 41  1  0
  8 42  1  0
 42 43  2  0
 43  5  1  0
 41 11  1  0
 40 15  1  0
 27 18  1  0
 39 30  1  0
 26 21  1  0
 38 33  1  0
  1 44  1  0
  1 45  1  0
  6 46  1  0
  7 47  1  0
  9 48  1  0
  9 49  1  0
 10 50  1  0
 10 51  1  0
 12 52  1  0
 12 53  1  0
 13 54  1  0
 13 55  1  0
 14 56  1  6
 19 57  1  0
 19 58  1  0
 20 59  1  0
 20 60  1  0
 22 61  1  0
 23 62  1  0
 24 63  1  0
 25 64  1  0
 27 65  1  0
 27 66  1  0
 31 67  1  0
 31 68  1  0
 32 69  1  0
 32 70  1  0
 34 71  1  0
 35 72  1  0
 36 73  1  0
 37 74  1  0
 39 75  1  0
 39 76  1  0
 41 77  1  0
 41 78  1  0
 42 79  1  0
 43 80  1  0
M  END
>  <smiles>  (12) 
NS(=O)(=O)c1ccc(CCN2CCC(c3nc(N4CCc5ccccc5C4)nc(N4CCc5ccccc5C4)n3)C2)cc1

>  <score_type>  (12) 
oracle

>  <origin>  (12) 
autodockgpu

>  <m_score__min__energy>  (12) 
-11.56

>  <m_primary>  (12) 
energy

>  <rmsd>  (12) 
3.7220938304950404

>  <m_score__min__rmsd>  (12) 
3.7220938304950404

>  <meeko>  (12) 
{"free_energy": -10.7, "intermolecular_energy": -13.08, "internal_energy": -1.42, "cluster_size": 14, "cluster_id": 2, "rank_in_cluster": 10}

>  <energy>  (12) 
-9.82

>  <cluster_rmsd>  (12) 
1.44

>  <cluster>  (12) 
1

$$$$

     RDKit          3D

 80 86  0  0  1  0  0  0  0  0999 V2000
  139.1600   67.1100  226.4510 N   0  0  0  0  0  0  0  0  0  0  0  0
  139.9480   68.6190  226.7440 S   0  0  0  0  0  0  0  0  0  0  0  0
  141.3610   68.3010  227.1630 O   0  0  0  0  0  0  0  0  0  0  0  0
  139.2870   69.2790  227.8990 O   0  0  0  0  0  0  0  0  0  0  0  0
  140.0150   69.6290  225.3200 C   0  0  0  0  0  0  0  0  0  0  0  0
  139.3950   69.1610  224.1660 C   0  0  0  0  0  0  0  0  0  0  0  0
  139.4480   69.9590  223.0300 C   0  0  0  0  0  0  0  0  0  0  0  0
  140.0840   71.1800  223.0050 C   0  0  0  0  0  0  0  0  0  0  0  0
  140.1140   71.9900  221.7290 C   0  0  0  0  0  0  0  0  0  0  0  0
  138.8120   71.7020  221.0490 C   0  0  0  0  0  0  0  0  0  0  0  0
  137.7060   72.4850  221.3680 N   0  0  0  0  0  0  0  0  0  0  0  0
  136.5840   72.5280  220.5120 C   0  0  0  0  0  0  0  0  0  0  0  0
  135.8320   73.8250  220.8710 C   0  0  0  0  0  0  0  0  0  0  0  0
  136.3980   74.0920  222.2520 C   0  0  2  0  0  0  0  0  0  0  0  0
  136.1940   75.4450  222.7490 C   0  0  0  0  0  0  0  0  0  0  0  0
  135.1510   75.8760  223.4790 N   0  0  0  0  0  0  0  0  0  0  0  0
  135.0480   77.1570  223.8960 C   0  0  0  0  0  0  0  0  0  0  0  0
  133.9490   77.6190  224.6690 N   0  0  0  0  0  0  0  0  0  0  0  0
  132.8350   76.7700  225.0490 C   0  0  0  0  0  0  0  0  0  0  0  0
  132.9190   76.6050  226.5580 C   0  0  0  0  0  0  0  0  0  0  0  0
  132.8400   77.9720  227.1420 C   0  0  0  0  0  0  0  0  0  0  0  0
  132.2830   78.1070  228.4000 C   0  0  0  0  0  0  0  0  0  0  0  0
  132.1950   79.3670  228.9750 C   0  0  0  0  0  0  0  0  0  0  0  0
  132.6590   80.5010  228.3170 C   0  0  0  0  0  0  0  0  0  0  0  0
  133.2120   80.3440  227.0650 C   0  0  0  0  0  0  0  0  0  0  0  0
  133.3020   79.0940  226.4830 C   0  0  0  0  0  0  0  0  0  0  0  0
  133.9140   78.9980  225.1160 C   0  0  0  0  0  0  0  0  0  0  0  0
  136.0280   78.0260  223.5640 N   0  0  0  0  0  0  0  0  0  0  0  0
  137.0960   77.6450  222.8340 C   0  0  0  0  0  0  0  0  0  0  0  0
  138.1430   78.5300  222.4620 N   0  0  0  0  0  0  0  0  0  0  0  0
  137.9180   79.9830  222.4450 C   0  0  0  0  0  0  0  0  0  0  0  0
  138.7630   80.5470  223.5720 C   0  0  0  0  0  0  0  0  0  0  0  0
  140.1710   80.1500  223.3080 C   0  0  0  0  0  0  0  0  0  0  0  0
  141.1530   81.0130  223.8050 C   0  0  0  0  0  0  0  0  0  0  0  0
  142.4870   80.6750  223.5760 C   0  0  0  0  0  0  0  0  0  0  0  0
  142.8110   79.5200  222.8780 C   0  0  0  0  0  0  0  0  0  0  0  0
  141.8370   78.6650  222.3840 C   0  0  0  0  0  0  0  0  0  0  0  0
  140.5180   79.0080  222.6160 C   0  0  0  0  0  0  0  0  0  0  0  0
  139.4690   78.0940  222.0890 C   0  0  0  0  0  0  0  0  0  0  0  0
  137.1510   76.3720  222.4480 N   0  0  0  0  0  0  0  0  0  0  0  0
  137.8790   73.7510  221.9880 C   0  0  0  0  0  0  0  0  0  0  0  0
  140.7000   71.6420  224.1570 C   0  0  0  0  0  0  0  0  0  0  0  0
  140.6660   70.8650  225.3190 C   0  0  0  0  0  0  0  0  0  0  0  0
  139.5340   66.6640  225.6010 H   0  0  0  0  0  0  0  0  0  0  0  0
  139.1780   66.4910  227.3070 H   0  0  0  0  0  0  0  0  0  0  0  0
  138.8790   68.1896  224.1533 H   0  0  0  0  0  0  0  0  0  0  0  0
  138.9611   69.6001  222.1113 H   0  0  0  0  0  0  0  0  0  0  0  0
  140.2016   73.0629  221.9554 H   0  0  0  0  0  0  0  0  0  0  0  0
  140.9746   71.7275  221.0962 H   0  0  0  0  0  0  0  0  0  0  0  0
  138.9814   71.8056  219.9671 H   0  0  0  0  0  0  0  0  0  0  0  0
  138.5405   70.6970  221.4043 H   0  0  0  0  0  0  0  0  0  0  0  0
  136.9052   72.5500  219.4602 H   0  0  0  0  0  0  0  0  0  0  0  0
  135.9450   71.6414  220.6369 H   0  0  0  0  0  0  0  0  0  0  0  0
  136.0675   74.6394  220.1701 H   0  0  0  0  0  0  0  0  0  0  0  0
  134.7355   73.7483  220.8294 H   0  0  0  0  0  0  0  0  0  0  0  0
  135.9141   73.5155  223.0542 H   0  0  0  0  0  0  0  0  0  0  0  0
  131.8824   77.2442  224.7702 H   0  0  0  0  0  0  0  0  0  0  0  0
  132.8812   75.7973  224.5374 H   0  0  0  0  0  0  0  0  0  0  0  0
  132.0822   75.9893  226.9194 H   0  0  0  0  0  0  0  0  0  0  0  0
  133.8532   76.1030  226.8501 H   0  0  0  0  0  0  0  0  0  0  0  0
  131.9128   77.2234  228.9405 H   0  0  0  0  0  0  0  0  0  0  0  0
  131.7478   79.4712  229.9746 H   0  0  0  0  0  0  0  0  0  0  0  0
  132.5865   81.4948  228.7829 H   0  0  0  0  0  0  0  0  0  0  0  0
  133.5864   81.2244  226.5221 H   0  0  0  0  0  0  0  0  0  0  0  0
  133.3159   79.5921  224.4094 H   0  0  0  0  0  0  0  0  0  0  0  0
  134.9434   79.3831  225.1601 H   0  0  0  0  0  0  0  0  0  0  0  0
  138.2333   80.4079  221.4806 H   0  0  0  0  0  0  0  0  0  0  0  0
  136.8538   80.2288  222.5757 H   0  0  0  0  0  0  0  0  0  0  0  0
  138.6785   81.6435  223.5938 H   0  0  0  0  0  0  0  0  0  0  0  0
  138.4245   80.1603  224.5446 H   0  0  0  0  0  0  0  0  0  0  0  0
  140.8832   81.9256  224.3567 H   0  0  0  0  0  0  0  0  0  0  0  0
  143.2880   81.3288  223.9515 H   0  0  0  0  0  0  0  0  0  0  0  0
  143.8706   79.2757  222.7118 H   0  0  0  0  0  0  0  0  0  0  0  0
  142.1029   77.7522  221.8308 H   0  0  0  0  0  0  0  0  0  0  0  0
  139.5394   78.0659  220.9916 H   0  0  0  0  0  0  0  0  0  0  0  0
  139.6356   77.0961  222.5207 H   0  0  0  0  0  0  0  0  0  0  0  0
  138.3565   74.4784  221.3151 H   0  0  0  0  0  0  0  0  0  0  0  0
  138.5325   73.7601  222.8728 H   0  0  0  0  0  0  0  0  0  0  0  0
  141.2131   72.6150  224.1574 H   0  0  0  0  0  0  0  0  0  0  0  0
  141.1536   71.2283  226.2356 H   0  0  0  0  0  0  0  0  0  0  0  0
  1  2  1  0
  2  3  2  0
  2  4  2  0
  2  5  1  0
  5  6  2  0
  6  7  1  0
  7  8  2  0
  8  9  1  0
  9 10  1  0
 10 11  1  0
 11 12  1  0
 12 13  1  0
 13 14  1  0
 14 15  1  0
 15 16  2  0
 16 17  1  0
 17 18  1  0
 18 19  1  0
 19 20  1  0
 20 21  1  0
 21 22  2  0
 22 23  1  0
 23 24  2  0
 24 25  1  0
 25 26  2  0
 26 27  1  0
 17 28  2  0
 28 29  1  0
 29 30  1  0
 30 31  1  0
 31 32  1  0
 32 33  1  0
 33 34  2  0
 34 35  1  0
 35 36  2  0
 36 37  1  0
 37 38  2  0
 38 39  1  0
 29 40  2  0
 14 41  1  0
  8 42  1  0
 42 43  2  0
 43  5  1  0
 41 11  1  0
 40 15  1  0
 27 18  1  0
 39 30  1  0
 26 21  1  0
 38 33  1  0
  1 44  1  0
  1 45  1  0
  6 46  1  0
  7 47  1  0
  9 48  1  0
  9 49  1  0
 10 50  1  0
 10 51  1  0
 12 52  1  0
 12 53  1  0
 13 54  1  0
 13 55  1  0
 14 56  1  1
 19 57  1  0
 19 58  1  0
 20 59  1  0
 20 60  1  0
 22 61  1  0
 23 62  1  0
 24 63  1  0
 25 64  1  0
 27 65  1  0
 27 66  1  0
 31 67  1  0
 31 68  1  0
 32 69  1  0
 32 70  1  0
 34 71  1  0
 35 72  1  0
 36 73  1  0
 37 74  1  0
 39 75  1  0
 39 76  1  0
 41 77  1  0
 41 78  1  0
 42 79  1  0
 43 80  1  0
M  END
>  <smiles>  (13) 
NS(=O)(=O)c1ccc(CCN2CCC(c3nc(N4CCc5ccccc5C4)nc(N4CCc5ccccc5C4)n3)C2)cc1

>  <score_type>  (13) 
oracle

>  <origin>  (13) 
autodockgpu

>  <m_score__min__energy>  (13) 
-11.56

>  <m_primary>  (13) 
energy

>  <rmsd>  (13) 
9.280952887750095

>  <m_score__min__rmsd>  (13) 
9.280952887750095

>  <meeko>  (13) 
{"free_energy": -9.53, "intermolecular_energy": -11.91, "internal_energy": -1.59, "cluster_size": 5, "cluster_id": 7, "rank_in_cluster": 4}

>  <energy>  (13) 
-9.73

>  <cluster_rmsd>  (13) 
1.78

>  <cluster>  (13) 
1

$$$$

     RDKit          3D

 80 86  0  0  1  0  0  0  0  0999 V2000
  142.5810   79.0000  222.2670 N   0  0  0  0  0  0  0  0  0  0  0  0
  141.1120   78.2320  222.7520 S   0  0  0  0  0  0  0  0  0  0  0  0
  140.5900   78.9940  223.9430 O   0  0  0  0  0  0  0  0  0  0  0  0
  141.4290   76.8570  223.2160 O   0  0  0  0  0  0  0  0  0  0  0  0
  139.8900   78.2710  221.5020 C   0  0  0  0  0  0  0  0  0  0  0  0
  138.5690   78.4610  221.8960 C   0  0  0  0  0  0  0  0  0  0  0  0
  137.5940   78.4900  220.9060 C   0  0  0  0  0  0  0  0  0  0  0  0
  137.8830   78.3380  219.5690 C   0  0  0  0  0  0  0  0  0  0  0  0
  136.7700   78.3660  218.5480 C   0  0  0  0  0  0  0  0  0  0  0  0
  136.3750   76.9340  218.3550 C   0  0  0  0  0  0  0  0  0  0  0  0
  137.1260   75.9460  218.9830 N   0  0  0  0  0  0  0  0  0  0  0  0
  137.8510   75.0010  218.2240 C   0  0  0  0  0  0  0  0  0  0  0  0
  138.1020   73.8080  219.1670 C   0  0  0  0  0  0  0  0  0  0  0  0
  137.8900   74.4770  220.5110 C   0  0  2  0  0  0  0  0  0  0  0  0
  137.6790   73.5640  221.6250 C   0  0  0  0  0  0  0  0  0  0  0  0
  138.5740   72.6940  222.1230 N   0  0  0  0  0  0  0  0  0  0  0  0
  138.2850   71.8840  223.1640 C   0  0  0  0  0  0  0  0  0  0  0  0
  139.2260   70.9640  223.6970 N   0  0  0  0  0  0  0  0  0  0  0  0
  140.6130   71.3070  223.9530 C   0  0  0  0  0  0  0  0  0  0  0  0
  140.7900   71.2780  225.4620 C   0  0  0  0  0  0  0  0  0  0  0  0
  140.4360   69.9020  225.9060 C   0  0  0  0  0  0  0  0  0  0  0  0
  141.0610   69.4050  227.0340 C   0  0  0  0  0  0  0  0  0  0  0  0
  140.7540   68.1270  227.4780 C   0  0  0  0  0  0  0  0  0  0  0  0
  139.8260   67.3310  226.8140 C   0  0  0  0  0  0  0  0  0  0  0  0
  139.2140   67.8450  225.6930 C   0  0  0  0  0  0  0  0  0  0  0  0
  139.5150   69.1160  225.2430 C   0  0  0  0  0  0  0  0  0  0  0  0
  138.8100   69.6110  224.0130 C   0  0  0  0  0  0  0  0  0  0  0  0
  137.0530   71.9550  223.7160 N   0  0  0  0  0  0  0  0  0  0  0  0
  136.1170   72.8100  223.2550 C   0  0  0  0  0  0  0  0  0  0  0  0
  134.8120   72.9110  223.8060 N   0  0  0  0  0  0  0  0  0  0  0  0
  133.9930   71.7050  224.0020 C   0  0  0  0  0  0  0  0  0  0  0  0
  133.8730   71.5240  225.5040 C   0  0  0  0  0  0  0  0  0  0  0  0
  133.2630   72.7650  226.0490 C   0  0  0  0  0  0  0  0  0  0  0  0
  132.5150   72.6150  227.2210 C   0  0  0  0  0  0  0  0  0  0  0  0
  131.9260   73.7570  227.7630 C   0  0  0  0  0  0  0  0  0  0  0  0
  132.0860   74.9910  227.1500 C   0  0  0  0  0  0  0  0  0  0  0  0
  132.8270   75.1410  225.9870 C   0  0  0  0  0  0  0  0  0  0  0  0
  133.4070   74.0030  225.4560 C   0  0  0  0  0  0  0  0  0  0  0  0
  134.2040   74.1570  224.2100 C   0  0  0  0  0  0  0  0  0  0  0  0
  136.4530   73.5880  222.2280 N   0  0  0  0  0  0  0  0  0  0  0  0
  136.6520   75.3330  220.1740 C   0  0  0  0  0  0  0  0  0  0  0  0
  139.2000   78.1470  219.1830 C   0  0  0  0  0  0  0  0  0  0  0  0
  140.2080   78.1140  220.1520 C   0  0  0  0  0  0  0  0  0  0  0  0
  143.3970   78.4820  222.6250 H   0  0  0  0  0  0  0  0  0  0  0  0
  142.6020   79.1720  221.2250 H   0  0  0  0  0  0  0  0  0  0  0  0
  138.3050   78.5843  222.9567 H   0  0  0  0  0  0  0  0  0  0  0  0
  136.5459   78.6410  221.2039 H   0  0  0  0  0  0  0  0  0  0  0  0
  135.9186   78.9535  218.9221 H   0  0  0  0  0  0  0  0  0  0  0  0
  137.0898   78.8340  217.6053 H   0  0  0  0  0  0  0  0  0  0  0  0
  135.3401   76.8319  218.7136 H   0  0  0  0  0  0  0  0  0  0  0  0
  136.5373   76.7532  217.2822 H   0  0  0  0  0  0  0  0  0  0  0  0
  137.2651   74.6814  217.3496 H   0  0  0  0  0  0  0  0  0  0  0  0
  138.7937   75.4232  217.8457 H   0  0  0  0  0  0  0  0  0  0  0  0
  137.3793   72.9962  218.9978 H   0  0  0  0  0  0  0  0  0  0  0  0
  139.0807   73.3213  219.0439 H   0  0  0  0  0  0  0  0  0  0  0  0
  138.7649   75.0331  220.8789 H   0  0  0  0  0  0  0  0  0  0  0  0
  141.2805   70.5733  223.4774 H   0  0  0  0  0  0  0  0  0  0  0  0
  140.8621   72.2960  223.5410 H   0  0  0  0  0  0  0  0  0  0  0  0
  141.8334   71.5053  225.7261 H   0  0  0  0  0  0  0  0  0  0  0  0
  140.1515   72.0288  225.9505 H   0  0  0  0  0  0  0  0  0  0  0  0
  141.7963   70.0181  227.5757 H   0  0  0  0  0  0  0  0  0  0  0  0
  141.2554   67.7343  228.3749 H   0  0  0  0  0  0  0  0  0  0  0  0
  139.5880   66.3194  227.1746 H   0  0  0  0  0  0  0  0  0  0  0  0
  138.4766   67.2364  225.1491 H   0  0  0  0  0  0  0  0  0  0  0  0
  139.0524   68.9512  223.1669 H   0  0  0  0  0  0  0  0  0  0  0  0
  137.7259   69.6073  224.1994 H   0  0  0  0  0  0  0  0  0  0  0  0
  132.9984   71.8406  223.5522 H   0  0  0  0  0  0  0  0  0  0  0  0
  134.4485   70.8252  223.5241 H   0  0  0  0  0  0  0  0  0  0  0  0
  133.2323   70.6587  225.7293 H   0  0  0  0  0  0  0  0  0  0  0  0
  134.8596   71.3431  225.9555 H   0  0  0  0  0  0  0  0  0  0  0  0
  132.3955   71.6312  227.6984 H   0  0  0  0  0  0  0  0  0  0  0  0
  131.3297   73.6786  228.6840 H   0  0  0  0  0  0  0  0  0  0  0  0
  131.6116   75.8761  227.5990 H   0  0  0  0  0  0  0  0  0  0  0  0
  132.9483   76.1234  225.5073 H   0  0  0  0  0  0  0  0  0  0  0  0
  133.5419   74.5079  223.4047 H   0  0  0  0  0  0  0  0  0  0  0  0
  135.0074   74.8826  224.4050 H   0  0  0  0  0  0  0  0  0  0  0  0
  135.7598   74.7155  219.9936 H   0  0  0  0  0  0  0  0  0  0  0  0
  136.3240   76.0240  220.9646 H   0  0  0  0  0  0  0  0  0  0  0  0
  139.4515   78.0219  218.1195 H   0  0  0  0  0  0  0  0  0  0  0  0
  141.2548   77.9638  219.8492 H   0  0  0  0  0  0  0  0  0  0  0  0
  1  2  1  0
  2  3  2  0
  2  4  2  0
  2  5  1  0
  5  6  2  0
  6  7  1  0
  7  8  2  0
  8  9  1  0
  9 10  1  0
 10 11  1  0
 11 12  1  0
 12 13  1  0
 13 14  1  0
 14 15  1  0
 15 16  2  0
 16 17  1  0
 17 18  1  0
 18 19  1  0
 19 20  1  0
 20 21  1  0
 21 22  2  0
 22 23  1  0
 23 24  2  0
 24 25  1  0
 25 26  2  0
 26 27  1  0
 17 28  2  0
 28 29  1  0
 29 30  1  0
 30 31  1  0
 31 32  1  0
 32 33  1  0
 33 34  2  0
 34 35  1  0
 35 36  2  0
 36 37  1  0
 37 38  2  0
 38 39  1  0
 29 40  2  0
 14 41  1  0
  8 42  1  0
 42 43  2  0
 43  5  1  0
 41 11  1  0
 40 15  1  0
 27 18  1  0
 39 30  1  0
 26 21  1  0
 38 33  1  0
  1 44  1  0
  1 45  1  0
  6 46  1  0
  7 47  1  0
  9 48  1  0
  9 49  1  0
 10 50  1  0
 10 51  1  0
 12 52  1  0
 12 53  1  0
 13 54  1  0
 13 55  1  0
 14 56  1  1
 19 57  1  0
 19 58  1  0
 20 59  1  0
 20 60  1  0
 22 61  1  0
 23 62  1  0
 24 63  1  0
 25 64  1  0
 27 65  1  0
 27 66  1  0
 31 67  1  0
 31 68  1  0
 32 69  1  0
 32 70  1  0
 34 71  1  0
 35 72  1  0
 36 73  1  0
 37 74  1  0
 39 75  1  0
 39 76  1  0
 41 77  1  0
 41 78  1  0
 42 79  1  0
 43 80  1  0
M  END
>  <smiles>  (14) 
NS(=O)(=O)c1ccc(CCN2CCC(c3nc(N4CCc5ccccc5C4)nc(N4CCc5ccccc5C4)n3)C2)cc1

>  <score_type>  (14) 
oracle

>  <origin>  (14) 
autodockgpu

>  <m_score__min__energy>  (14) 
-11.56

>  <m_primary>  (14) 
energy

>  <rmsd>  (14) 
4.571410486608308

>  <m_score__min__rmsd>  (14) 
4.571410486608308

>  <meeko>  (14) 
{"free_energy": -8.2, "intermolecular_energy": -10.58, "internal_energy": -2.0, "cluster_size": 1, "cluster_id": 16, "rank_in_cluster": 1}

>  <energy>  (14) 
-11.33

>  <cluster_rmsd>  (14) 
0.0

>  <cluster>  (14) 
2

$$$$

     RDKit          3D

 80 86  0  0  1  0  0  0  0  0999 V2000
  136.5710   81.3900  227.9590 N   0  0  0  0  0  0  0  0  0  0  0  0
  136.1920   81.9940  226.3860 S   0  0  0  0  0  0  0  0  0  0  0  0
  136.9970   83.2540  226.1940 O   0  0  0  0  0  0  0  0  0  0  0  0
  134.7580   82.3810  226.3620 O   0  0  0  0  0  0  0  0  0  0  0  0
  136.6220   80.8730  225.1150 C   0  0  0  0  0  0  0  0  0  0  0  0
  135.5950   80.1520  224.5150 C   0  0  0  0  0  0  0  0  0  0  0  0
  135.9320   79.2580  223.5060 C   0  0  0  0  0  0  0  0  0  0  0  0
  137.2290   79.0610  223.0860 C   0  0  0  0  0  0  0  0  0  0  0  0
  137.5240   78.0620  221.9920 C   0  0  0  0  0  0  0  0  0  0  0  0
  138.7790   78.5540  221.3370 C   0  0  0  0  0  0  0  0  0  0  0  0
  139.8550   77.6810  221.2210 N   0  0  0  0  0  0  0  0  0  0  0  0
  140.8390   77.8800  220.2260 C   0  0  0  0  0  0  0  0  0  0  0  0
  141.5340   76.5160  220.0450 C   0  0  0  0  0  0  0  0  0  0  0  0
  141.1510   75.8420  221.3470 C   0  0  2  0  0  0  0  0  0  0  0  0
  141.3210   74.3960  221.3640 C   0  0  0  0  0  0  0  0  0  0  0  0
  142.0590   73.6700  220.5070 N   0  0  0  0  0  0  0  0  0  0  0  0
  142.1560   72.3270  220.6030 C   0  0  0  0  0  0  0  0  0  0  0  0
  142.9360   71.5540  219.7010 N   0  0  0  0  0  0  0  0  0  0  0  0
  143.9850   72.1210  218.8740 C   0  0  0  0  0  0  0  0  0  0  0  0
  145.2940   71.5470  219.3900 C   0  0  0  0  0  0  0  0  0  0  0  0
  145.1890   70.0670  219.2710 C   0  0  0  0  0  0  0  0  0  0  0  0
  146.3520   69.3500  219.0640 C   0  0  0  0  0  0  0  0  0  0  0  0
  146.2910   67.9690  218.9500 C   0  0  0  0  0  0  0  0  0  0  0  0
  145.0830   67.2850  219.0400 C   0  0  0  0  0  0  0  0  0  0  0  0
  143.9360   68.0180  219.2460 C   0  0  0  0  0  0  0  0  0  0  0  0
  143.9870   69.3940  219.3600 C   0  0  0  0  0  0  0  0  0  0  0  0
  142.6970   70.1280  219.5830 C   0  0  0  0  0  0  0  0  0  0  0  0
  141.4860   71.6990  221.5940 N   0  0  0  0  0  0  0  0  0  0  0  0
  140.7310   72.3790  222.4810 C   0  0  0  0  0  0  0  0  0  0  0  0
  140.0100   71.7550  223.5340 N   0  0  0  0  0  0  0  0  0  0  0  0
  138.7520   71.0440  223.2540 C   0  0  0  0  0  0  0  0  0  0  0  0
  139.0420   69.5750  223.4980 C   0  0  0  0  0  0  0  0  0  0  0  0
  139.5100   69.4460  224.9030 C   0  0  0  0  0  0  0  0  0  0  0  0
  139.2490   68.2210  225.5250 C   0  0  0  0  0  0  0  0  0  0  0  0
  139.6730   68.0620  226.8440 C   0  0  0  0  0  0  0  0  0  0  0  0
  140.3270   69.0930  227.5030 C   0  0  0  0  0  0  0  0  0  0  0  0
  140.5850   70.3090  226.8880 C   0  0  0  0  0  0  0  0  0  0  0  0
  140.1620   70.4570  225.5800 C   0  0  0  0  0  0  0  0  0  0  0  0
  140.4360   71.7590  224.9140 C   0  0  0  0  0  0  0  0  0  0  0  0
  140.6690   73.7020  222.3440 N   0  0  0  0  0  0  0  0  0  0  0  0
  139.6770   76.2880  221.4390 C   0  0  0  0  0  0  0  0  0  0  0  0
  138.2480   79.7820  223.6880 C   0  0  0  0  0  0  0  0  0  0  0  0
  137.9450   80.6910  224.7050 C   0  0  0  0  0  0  0  0  0  0  0  0
  136.6270   82.1600  228.6400 H   0  0  0  0  0  0  0  0  0  0  0  0
  135.9160   80.6100  228.2430 H   0  0  0  0  0  0  0  0  0  0  0  0
  134.5493   80.2852  224.8292 H   0  0  0  0  0  0  0  0  0  0  0  0
  135.1288   78.6831  223.0220 H   0  0  0  0  0  0  0  0  0  0  0  0
  137.6785   77.0592  222.4170 H   0  0  0  0  0  0  0  0  0  0  0  0
  136.6926   77.9791  221.2765 H   0  0  0  0  0  0  0  0  0  0  0  0
  138.5099   78.8741  220.3196 H   0  0  0  0  0  0  0  0  0  0  0  0
  139.1438   79.3412  222.0132 H   0  0  0  0  0  0  0  0  0  0  0  0
  140.3713   78.1999  219.2831 H   0  0  0  0  0  0  0  0  0  0  0  0
  141.5544   78.6641  220.5148 H   0  0  0  0  0  0  0  0  0  0  0  0
  141.1410   75.9714  219.1738 H   0  0  0  0  0  0  0  0  0  0  0  0
  142.6163   76.5721  219.8566 H   0  0  0  0  0  0  0  0  0  0  0  0
  141.7857   76.1228  222.2004 H   0  0  0  0  0  0  0  0  0  0  0  0
  143.8343   71.8389  217.8215 H   0  0  0  0  0  0  0  0  0  0  0  0
  143.9834   73.2198  218.9247 H   0  0  0  0  0  0  0  0  0  0  0  0
  146.1348   71.9172  218.7850 H   0  0  0  0  0  0  0  0  0  0  0  0
  145.4742   71.8481  220.4325 H   0  0  0  0  0  0  0  0  0  0  0  0
  147.3184   69.8703  218.9902 H   0  0  0  0  0  0  0  0  0  0  0  0
  147.2189   67.4018  218.7847 H   0  0  0  0  0  0  0  0  0  0  0  0
  145.0453   66.1894  218.9491 H   0  0  0  0  0  0  0  0  0  0  0  0
  142.9674   67.5020  219.3207 H   0  0  0  0  0  0  0  0  0  0  0  0
  142.0240   69.9432  218.7327 H   0  0  0  0  0  0  0  0  0  0  0  0
  142.2392   69.7663  220.5155 H   0  0  0  0  0  0  0  0  0  0  0  0
  137.9563   71.3941  223.9280 H   0  0  0  0  0  0  0  0  0  0  0  0
  138.4076   71.2223  222.2246 H   0  0  0  0  0  0  0  0  0  0  0  0
  138.1283   68.9808  223.3492 H   0  0  0  0  0  0  0  0  0  0  0  0
  139.8054   69.2064  222.7971 H   0  0  0  0  0  0  0  0  0  0  0  0
  138.7278   67.4116  224.9928 H   0  0  0  0  0  0  0  0  0  0  0  0
  139.4875   67.1117  227.3660 H   0  0  0  0  0  0  0  0  0  0  0  0
  140.6502   68.9416  228.5435 H   0  0  0  0  0  0  0  0  0  0  0  0
  141.1040   71.1211  227.4182 H   0  0  0  0  0  0  0  0  0  0  0  0
  139.8974   72.5539  225.4507 H   0  0  0  0  0  0  0  0  0  0  0  0
  141.5219   71.9330  224.9364 H   0  0  0  0  0  0  0  0  0  0  0  0
  139.0557   75.8240  220.6588 H   0  0  0  0  0  0  0  0  0  0  0  0
  139.1566   76.0164  222.3693 H   0  0  0  0  0  0  0  0  0  0  0  0
  139.2903   79.6394  223.3668 H   0  0  0  0  0  0  0  0  0  0  0  0
  138.7512   81.2655  225.1846 H   0  0  0  0  0  0  0  0  0  0  0  0
  1  2  1  0
  2  3  2  0
  2  4  2  0
  2  5  1  0
  5  6  2  0
  6  7  1  0
  7  8  2  0
  8  9  1  0
  9 10  1  0
 10 11  1  0
 11 12  1  0
 12 13  1  0
 13 14  1  0
 14 15  1  0
 15 16  2  0
 16 17  1  0
 17 18  1  0
 18 19  1  0
 19 20  1  0
 20 21  1  0
 21 22  2  0
 22 23  1  0
 23 24  2  0
 24 25  1  0
 25 26  2  0
 26 27  1  0
 17 28  2  0
 28 29  1  0
 29 30  1  0
 30 31  1  0
 31 32  1  0
 32 33  1  0
 33 34  2  0
 34 35  1  0
 35 36  2  0
 36 37  1  0
 37 38  2  0
 38 39  1  0
 29 40  2  0
 14 41  1  0
  8 42  1  0
 42 43  2  0
 43  5  1  0
 41 11  1  0
 40 15  1  0
 27 18  1  0
 39 30  1  0
 26 21  1  0
 38 33  1  0
  1 44  1  0
  1 45  1  0
  6 46  1  0
  7 47  1  0
  9 48  1  0
  9 49  1  0
 10 50  1  0
 10 51  1  0
 12 52  1  0
 12 53  1  0
 13 54  1  0
 13 55  1  0
 14 56  1  1
 19 57  1  0
 19 58  1  0
 20 59  1  0
 20 60  1  0
 22 61  1  0
 23 62  1  0
 24 63  1  0
 25 64  1  0
 27 65  1  0
 27 66  1  0
 31 67  1  0
 31 68  1  0
 32 69  1  0
 32 70  1  0
 34 71  1  0
 35 72  1  0
 36 73  1  0
 37 74  1  0
 39 75  1  0
 39 76  1  0
 41 77  1  0
 41 78  1  0
 42 79  1  0
 43 80  1  0
M  END
>  <smiles>  (15) 
NS(=O)(=O)c1ccc(CCN2CCC(c3nc(N4CCc5ccccc5C4)nc(N4CCc5ccccc5C4)n3)C2)cc1

>  <score_type>  (15) 
oracle

>  <origin>  (15) 
autodockgpu

>  <m_score__min__energy>  (15) 
-11.56

>  <m_primary>  (15) 
energy

>  <rmsd>  (15) 
3.771218183697169

>  <m_score__min__rmsd>  (15) 
3.771218183697169

>  <meeko>  (15) 
{"free_energy": -10.8, "intermolecular_energy": -13.18, "internal_energy": -1.42, "cluster_size": 14, "cluster_id": 2, "rank_in_cluster": 8}

>  <energy>  (15) 
-11.24

>  <cluster_rmsd>  (15) 
0.12

>  <cluster>  (15) 
2

$$$$

     RDKit          3D

 80 86  0  0  1  0  0  0  0  0999 V2000
  135.8190   81.6800  228.5850 N   0  0  0  0  0  0  0  0  0  0  0  0
  135.6160   82.4940  227.0750 S   0  0  0  0  0  0  0  0  0  0  0  0
  136.3090   83.8270  227.1990 O   0  0  0  0  0  0  0  0  0  0  0  0
  134.1700   82.7690  226.8780 O   0  0  0  0  0  0  0  0  0  0  0  0
  136.3390   81.6260  225.7420 C   0  0  0  0  0  0  0  0  0  0  0  0
  137.7280   81.6170  225.6540 C   0  0  0  0  0  0  0  0  0  0  0  0
  138.3080   80.9300  224.5940 C   0  0  0  0  0  0  0  0  0  0  0  0
  137.5680   80.2690  223.6400 C   0  0  0  0  0  0  0  0  0  0  0  0
  138.2650   79.5530  222.5060 C   0  0  0  0  0  0  0  0  0  0  0  0
  138.5460   78.1760  223.0230 C   0  0  0  0  0  0  0  0  0  0  0  0
  139.3490   77.3300  222.2640 N   0  0  0  0  0  0  0  0  0  0  0  0
  139.3720   77.4330  220.8550 C   0  0  0  0  0  0  0  0  0  0  0  0
  139.9050   76.0800  220.3440 C   0  0  0  0  0  0  0  0  0  0  0  0
  140.5800   75.5650  221.6000 C   0  0  2  0  0  0  0  0  0  0  0  0
  140.8750   74.1380  221.5980 C   0  0  0  0  0  0  0  0  0  0  0  0
  141.6280   73.4820  220.7000 N   0  0  0  0  0  0  0  0  0  0  0  0
  141.8460   72.1510  220.7810 C   0  0  0  0  0  0  0  0  0  0  0  0
  142.6430   71.4510  219.8360 N   0  0  0  0  0  0  0  0  0  0  0  0
  143.6050   72.1070  218.9710 C   0  0  0  0  0  0  0  0  0  0  0  0
  144.9780   71.6350  219.4220 C   0  0  0  0  0  0  0  0  0  0  0  0
  144.9850   70.1520  219.2890 C   0  0  0  0  0  0  0  0  0  0  0  0
  146.1910   69.5320  219.0220 C   0  0  0  0  0  0  0  0  0  0  0  0
  146.2340   68.1510  218.8930 C   0  0  0  0  0  0  0  0  0  0  0  0
  145.0890   67.3720  219.0280 C   0  0  0  0  0  0  0  0  0  0  0  0
  143.8980   68.0110  219.2940 C   0  0  0  0  0  0  0  0  0  0  0  0
  143.8450   69.3850  219.4230 C   0  0  0  0  0  0  0  0  0  0  0  0
  142.5120   70.0120  219.7120 C   0  0  0  0  0  0  0  0  0  0  0  0
  141.2830   71.4650  221.8010 N   0  0  0  0  0  0  0  0  0  0  0  0
  140.5180   72.0760  222.7290 C   0  0  0  0  0  0  0  0  0  0  0  0
  139.9070   71.3880  223.8120 N   0  0  0  0  0  0  0  0  0  0  0  0
  138.7580   70.5000  223.5750 C   0  0  0  0  0  0  0  0  0  0  0  0
  139.2560   69.0940  223.8550 C   0  0  0  0  0  0  0  0  0  0  0  0
  139.7570   69.0760  225.2540 C   0  0  0  0  0  0  0  0  0  0  0  0
  139.6800   67.8450  225.9150 C   0  0  0  0  0  0  0  0  0  0  0  0
  140.1400   67.7880  227.2300 C   0  0  0  0  0  0  0  0  0  0  0  0
  140.6520   68.9200  227.8480 C   0  0  0  0  0  0  0  0  0  0  0  0
  140.7270   70.1410  227.1940 C   0  0  0  0  0  0  0  0  0  0  0  0
  140.2690   70.1880  225.8900 C   0  0  0  0  0  0  0  0  0  0  0  0
  140.3480   71.4940  225.1830 C   0  0  0  0  0  0  0  0  0  0  0  0
  140.3350   73.3880  222.6040 N   0  0  0  0  0  0  0  0  0  0  0  0
  139.5190   75.9720  222.6420 C   0  0  0  0  0  0  0  0  0  0  0  0
  136.1850   80.2810  223.7320 C   0  0  0  0  0  0  0  0  0  0  0  0
  135.5680   80.9610  224.7860 C   0  0  0  0  0  0  0  0  0  0  0  0
  135.9090   80.6640  228.4410 H   0  0  0  0  0  0  0  0  0  0  0  0
  136.6020   82.1060  229.1520 H   0  0  0  0  0  0  0  0  0  0  0  0
  138.3472   82.1371  226.3997 H   0  0  0  0  0  0  0  0  0  0  0  0
  139.4050   80.9139  224.5141 H   0  0  0  0  0  0  0  0  0  0  0  0
  137.6135   79.5069  221.6209 H   0  0  0  0  0  0  0  0  0  0  0  0
  139.1848   80.0712  222.1970 H   0  0  0  0  0  0  0  0  0  0  0  0
  139.0317   78.2907  224.0033 H   0  0  0  0  0  0  0  0  0  0  0  0
  137.5623   77.6837  223.0224 H   0  0  0  0  0  0  0  0  0  0  0  0
  138.3589   77.6166  220.4677 H   0  0  0  0  0  0  0  0  0  0  0  0
  140.0032   78.2694  220.5203 H   0  0  0  0  0  0  0  0  0  0  0  0
  139.0893   75.4174  220.0191 H   0  0  0  0  0  0  0  0  0  0  0  0
  140.5597   76.1455  219.4625 H   0  0  0  0  0  0  0  0  0  0  0  0
  141.5883   75.9718  221.7668 H   0  0  0  0  0  0  0  0  0  0  0  0
  143.4302   71.8229  217.9228 H   0  0  0  0  0  0  0  0  0  0  0  0
  143.5182   73.2017  219.0352 H   0  0  0  0  0  0  0  0  0  0  0  0
  145.7588   72.0765  218.7853 H   0  0  0  0  0  0  0  0  0  0  0  0
  145.1807   71.9404  220.4591 H   0  0  0  0  0  0  0  0  0  0  0  0
  147.1089   70.1282  218.9127 H   0  0  0  0  0  0  0  0  0  0  0  0
  147.1953   67.6609  218.6791 H   0  0  0  0  0  0  0  0  0  0  0  0
  145.1336   66.2777  218.9253 H   0  0  0  0  0  0  0  0  0  0  0  0
  142.9774   67.4193  219.4051 H   0  0  0  0  0  0  0  0  0  0  0  0
  141.8178   69.7813  218.8905 H   0  0  0  0  0  0  0  0  0  0  0  0
  142.1267   69.6072  220.6595 H   0  0  0  0  0  0  0  0  0  0  0  0
  137.9305   70.7553  224.2533 H   0  0  0  0  0  0  0  0  0  0  0  0
  138.3770   70.5970  222.5476 H   0  0  0  0  0  0  0  0  0  0  0  0
  138.4334   68.3729  223.7399 H   0  0  0  0  0  0  0  0  0  0  0  0
  140.0536   68.8147  223.1509 H   0  0  0  0  0  0  0  0  0  0  0  0
  139.2713   66.9544  225.4152 H   0  0  0  0  0  0  0  0  0  0  0  0
  140.0967   66.8376  227.7822 H   0  0  0  0  0  0  0  0  0  0  0  0
  141.0085   68.8470  228.8861 H   0  0  0  0  0  0  0  0  0  0  0  0
  141.1335   71.0339  227.6915 H   0  0  0  0  0  0  0  0  0  0  0  0
  139.7110   72.2218  225.7069 H   0  0  0  0  0  0  0  0  0  0  0  0
  141.3989   71.8189  225.1805 H   0  0  0  0  0  0  0  0  0  0  0  0
  138.5898   75.3936  222.5326 H   0  0  0  0  0  0  0  0  0  0  0  0
  139.7978   75.8039  223.6927 H   0  0  0  0  0  0  0  0  0  0  0  0
  135.5762   79.7582  222.9796 H   0  0  0  0  0  0  0  0  0  0  0  0
  134.4707   80.9724  224.8628 H   0  0  0  0  0  0  0  0  0  0  0  0
  1  2  1  0
  2  3  2  0
  2  4  2  0
  2  5  1  0
  5  6  2  0
  6  7  1  0
  7  8  2  0
  8  9  1  0
  9 10  1  0
 10 11  1  0
 11 12  1  0
 12 13  1  0
 13 14  1  0
 14 15  1  0
 15 16  2  0
 16 17  1  0
 17 18  1  0
 18 19  1  0
 19 20  1  0
 20 21  1  0
 21 22  2  0
 22 23  1  0
 23 24  2  0
 24 25  1  0
 25 26  2  0
 26 27  1  0
 17 28  2  0
 28 29  1  0
 29 30  1  0
 30 31  1  0
 31 32  1  0
 32 33  1  0
 33 34  2  0
 34 35  1  0
 35 36  2  0
 36 37  1  0
 37 38  2  0
 38 39  1  0
 29 40  2  0
 14 41  1  0
  8 42  1  0
 42 43  2  0
 43  5  1  0
 41 11  1  0
 40 15  1  0
 27 18  1  0
 39 30  1  0
 26 21  1  0
 38 33  1  0
  1 44  1  0
  1 45  1  0
  6 46  1  0
  7 47  1  0
  9 48  1  0
  9 49  1  0
 10 50  1  0
 10 51  1  0
 12 52  1  0
 12 53  1  0
 13 54  1  0
 13 55  1  0
 14 56  1  1
 19 57  1  0
 19 58  1  0
 20 59  1  0
 20 60  1  0
 22 61  1  0
 23 62  1  0
 24 63  1  0
 25 64  1  0
 27 65  1  0
 27 66  1  0
 31 67  1  0
 31 68  1  0
 32 69  1  0
 32 70  1  0
 34 71  1  0
 35 72  1  0
 36 73  1  0
 37 74  1  0
 39 75  1  0
 39 76  1  0
 41 77  1  0
 41 78  1  0
 42 79  1  0
 43 80  1  0
M  END
>  <smiles>  (16) 
NS(=O)(=O)c1ccc(CCN2CCC(c3nc(N4CCc5ccccc5C4)nc(N4CCc5ccccc5C4)n3)C2)cc1

>  <score_type>  (16) 
oracle

>  <origin>  (16) 
autodockgpu

>  <m_score__min__energy>  (16) 
-11.56

>  <m_primary>  (16) 
energy

>  <rmsd>  (16) 
4.077695735425677

>  <m_score__min__rmsd>  (16) 
4.077695735425677

>  <meeko>  (16) 
{"free_energy": -11.23, "intermolecular_energy": -13.62, "internal_energy": -1.34, "cluster_size": 14, "cluster_id": 2, "rank_in_cluster": 3}

>  <energy>  (16) 
-11.23

>  <cluster_rmsd>  (16) 
0.83

>  <cluster>  (16) 
2

$$$$

     RDKit          3D

 80 86  0  0  1  0  0  0  0  0999 V2000
  142.8920   79.7610  217.3850 N   0  0  0  0  0  0  0  0  0  0  0  0
  141.9960   78.4040  217.9670 S   0  0  0  0  0  0  0  0  0  0  0  0
  140.6670   78.4190  217.2550 O   0  0  0  0  0  0  0  0  0  0  0  0
  141.7200   78.6060  219.4130 O   0  0  0  0  0  0  0  0  0  0  0  0
  142.7820   76.8830  217.6220 C   0  0  0  0  0  0  0  0  0  0  0  0
  142.7170   76.4030  216.3180 C   0  0  0  0  0  0  0  0  0  0  0  0
  143.3390   75.1910  216.0390 C   0  0  0  0  0  0  0  0  0  0  0  0
  144.0060   74.4580  216.9940 C   0  0  0  0  0  0  0  0  0  0  0  0
  144.6480   73.1410  216.6240 C   0  0  0  0  0  0  0  0  0  0  0  0
  143.5090   72.1900  216.4230 C   0  0  0  0  0  0  0  0  0  0  0  0
  142.8500   71.6940  217.5430 N   0  0  0  0  0  0  0  0  0  0  0  0
  141.9560   70.6060  217.4290 C   0  0  0  0  0  0  0  0  0  0  0  0
  141.0540   70.6710  218.6770 C   0  0  0  0  0  0  0  0  0  0  0  0
  141.9090   71.5340  219.5840 C   0  0  2  0  0  0  0  0  0  0  0  0
  141.2070   72.1190  220.7180 C   0  0  0  0  0  0  0  0  0  0  0  0
  140.7710   71.4650  221.8080 N   0  0  0  0  0  0  0  0  0  0  0  0
  140.1270   72.0940  222.8130 C   0  0  0  0  0  0  0  0  0  0  0  0
  139.6640   71.4090  223.9680 N   0  0  0  0  0  0  0  0  0  0  0  0
  138.5500   70.4810  223.9460 C   0  0  0  0  0  0  0  0  0  0  0  0
  139.1320   69.1050  224.2270 C   0  0  0  0  0  0  0  0  0  0  0  0
  139.8000   69.1870  225.5550 C   0  0  0  0  0  0  0  0  0  0  0  0
  139.8570   68.0390  226.3220 C   0  0  0  0  0  0  0  0  0  0  0  0
  140.4730   68.0800  227.5650 C   0  0  0  0  0  0  0  0  0  0  0  0
  141.0390   69.2510  228.0580 C   0  0  0  0  0  0  0  0  0  0  0  0
  140.9710   70.3830  227.2770 C   0  0  0  0  0  0  0  0  0  0  0  0
  140.3590   70.3530  226.0390 C   0  0  0  0  0  0  0  0  0  0  0  0
  140.3210   71.6250  225.2440 C   0  0  0  0  0  0  0  0  0  0  0  0
  139.9160   73.4260  222.7120 N   0  0  0  0  0  0  0  0  0  0  0  0
  140.3330   74.1300  221.6400 C   0  0  0  0  0  0  0  0  0  0  0  0
  140.1270   75.5280  221.4960 N   0  0  0  0  0  0  0  0  0  0  0  0
  138.7700   76.0650  221.3070 C   0  0  0  0  0  0  0  0  0  0  0  0
  138.4490   76.8380  222.5720 C   0  0  0  0  0  0  0  0  0  0  0  0
  139.4950   77.8810  222.7280 C   0  0  0  0  0  0  0  0  0  0  0  0
  139.1050   79.0430  223.4020 C   0  0  0  0  0  0  0  0  0  0  0  0
  140.0600   80.0460  223.5670 C   0  0  0  0  0  0  0  0  0  0  0  0
  141.3460   79.8830  223.0740 C   0  0  0  0  0  0  0  0  0  0  0  0
  141.7340   78.7320  222.4050 C   0  0  0  0  0  0  0  0  0  0  0  0
  140.7810   77.7430  222.2450 C   0  0  0  0  0  0  0  0  0  0  0  0
  141.1900   76.5050  221.5290 C   0  0  0  0  0  0  0  0  0  0  0  0
  140.9640   73.4620  220.6770 N   0  0  0  0  0  0  0  0  0  0  0  0
  142.3930   72.5780  218.5560 C   0  0  0  0  0  0  0  0  0  0  0  0
  144.0680   74.9400  218.2920 C   0  0  0  0  0  0  0  0  0  0  0  0
  143.4540   76.1560  218.6080 C   0  0  0  0  0  0  0  0  0  0  0  0
  143.8130   79.8120  217.8450 H   0  0  0  0  0  0  0  0  0  0  0  0
  142.9370   79.7730  216.3290 H   0  0  0  0  0  0  0  0  0  0  0  0
  142.1902   76.9644  215.5323 H   0  0  0  0  0  0  0  0  0  0  0  0
  143.2961   74.8015  215.0112 H   0  0  0  0  0  0  0  0  0  0  0  0
  145.2324   73.2438  215.6977 H   0  0  0  0  0  0  0  0  0  0  0  0
  145.3431   72.7905  217.4011 H   0  0  0  0  0  0  0  0  0  0  0  0
  142.7584   72.7084  215.8083 H   0  0  0  0  0  0  0  0  0  0  0  0
  143.9772   71.3024  215.9724 H   0  0  0  0  0  0  0  0  0  0  0  0
  141.3520   70.7007  216.5145 H   0  0  0  0  0  0  0  0  0  0  0  0
  142.4913   69.6471  217.3659 H   0  0  0  0  0  0  0  0  0  0  0  0
  140.0869   71.1463  218.4560 H   0  0  0  0  0  0  0  0  0  0  0  0
  140.7785   69.6927  219.0977 H   0  0  0  0  0  0  0  0  0  0  0  0
  142.7022   70.9826  220.1102 H   0  0  0  0  0  0  0  0  0  0  0  0
  137.8162   70.7491  224.7204 H   0  0  0  0  0  0  0  0  0  0  0  0
  138.0309   70.5040  222.9765 H   0  0  0  0  0  0  0  0  0  0  0  0
  138.3305   68.3520  224.2515 H   0  0  0  0  0  0  0  0  0  0  0  0
  139.8444   68.8087  223.4430 H   0  0  0  0  0  0  0  0  0  0  0  0
  139.4181   67.1012  225.9508 H   0  0  0  0  0  0  0  0  0  0  0  0
  140.5146   67.1652  228.1744 H   0  0  0  0  0  0  0  0  0  0  0  0
  141.5270   69.2722  229.0436 H   0  0  0  0  0  0  0  0  0  0  0  0
  141.4095   71.3229  227.6435 H   0  0  0  0  0  0  0  0  0  0  0  0
  139.7687   72.3893  225.8105 H   0  0  0  0  0  0  0  0  0  0  0  0
  141.3525   71.9599  225.0602 H   0  0  0  0  0  0  0  0  0  0  0  0
  138.7409   76.7323  220.4330 H   0  0  0  0  0  0  0  0  0  0  0  0
  138.0394   75.2625  221.1277 H   0  0  0  0  0  0  0  0  0  0  0  0
  137.4583   77.3081  222.4850 H   0  0  0  0  0  0  0  0  0  0  0  0
  138.4326   76.1685  223.4446 H   0  0  0  0  0  0  0  0  0  0  0  0
  138.0818   79.1615  223.7880 H   0  0  0  0  0  0  0  0  0  0  0  0
  139.7909   80.9741  224.0926 H   0  0  0  0  0  0  0  0  0  0  0  0
  142.0794   80.6901  223.2178 H   0  0  0  0  0  0  0  0  0  0  0  0
  142.7565   78.6109  222.0180 H   0  0  0  0  0  0  0  0  0  0  0  0
  141.4661   76.7656  220.4966 H   0  0  0  0  0  0  0  0  0  0  0  0
  142.0422   76.0647  222.0673 H   0  0  0  0  0  0  0  0  0  0  0  0
  141.5732   73.2212  218.2036 H   0  0  0  0  0  0  0  0  0  0  0  0
  143.1367   73.2987  218.9268 H   0  0  0  0  0  0  0  0  0  0  0  0
  144.5972   74.3692  219.0693 H   0  0  0  0  0  0  0  0  0  0  0  0
  143.5002   76.5418  219.6371 H   0  0  0  0  0  0  0  0  0  0  0  0
  1  2  1  0
  2  3  2  0
  2  4  2  0
  2  5  1  0
  5  6  2  0
  6  7  1  0
  7  8  2  0
  8  9  1  0
  9 10  1  0
 10 11  1  0
 11 12  1  0
 12 13  1  0
 13 14  1  0
 14 15  1  0
 15 16  2  0
 16 17  1  0
 17 18  1  0
 18 19  1  0
 19 20  1  0
 20 21  1  0
 21 22  2  0
 22 23  1  0
 23 24  2  0
 24 25  1  0
 25 26  2  0
 26 27  1  0
 17 28  2  0
 28 29  1  0
 29 30  1  0
 30 31  1  0
 31 32  1  0
 32 33  1  0
 33 34  2  0
 34 35  1  0
 35 36  2  0
 36 37  1  0
 37 38  2  0
 38 39  1  0
 29 40  2  0
 14 41  1  0
  8 42  1  0
 42 43  2  0
 43  5  1  0
 41 11  1  0
 40 15  1  0
 27 18  1  0
 39 30  1  0
 26 21  1  0
 38 33  1  0
  1 44  1  0
  1 45  1  0
  6 46  1  0
  7 47  1  0
  9 48  1  0
  9 49  1  0
 10 50  1  0
 10 51  1  0
 12 52  1  0
 12 53  1  0
 13 54  1  0
 13 55  1  0
 14 56  1  1
 19 57  1  0
 19 58  1  0
 20 59  1  0
 20 60  1  0
 22 61  1  0
 23 62  1  0
 24 63  1  0
 25 64  1  0
 27 65  1  0
 27 66  1  0
 31 67  1  0
 31 68  1  0
 32 69  1  0
 32 70  1  0
 34 71  1  0
 35 72  1  0
 36 73  1  0
 37 74  1  0
 39 75  1  0
 39 76  1  0
 41 77  1  0
 41 78  1  0
 42 79  1  0
 43 80  1  0
M  END
>  <smiles>  (17) 
NS(=O)(=O)c1ccc(CCN2CCC(c3nc(N4CCc5ccccc5C4)nc(N4CCc5ccccc5C4)n3)C2)cc1

>  <score_type>  (17) 
oracle

>  <origin>  (17) 
autodockgpu

>  <m_score__min__energy>  (17) 
-11.56

>  <m_primary>  (17) 
energy

>  <rmsd>  (17) 
7.8504675455576365

>  <m_score__min__rmsd>  (17) 
7.8504675455576365

>  <meeko>  (17) 
{"free_energy": -10.05, "intermolecular_energy": -12.43, "internal_energy": -2.08, "cluster_size": 1, "cluster_id": 9, "rank_in_cluster": 1}

>  <energy>  (17) 
-11.22

>  <cluster_rmsd>  (17) 
0.27

>  <cluster>  (17) 
2

$$$$

     RDKit          3D

 80 86  0  0  1  0  0  0  0  0999 V2000
  144.7910   82.9510  215.4700 N   0  0  0  0  0  0  0  0  0  0  0  0
  143.7090   83.7580  216.5470 S   0  0  0  0  0  0  0  0  0  0  0  0
  142.8180   84.6320  215.7010 O   0  0  0  0  0  0  0  0  0  0  0  0
  144.5010   84.6590  217.4240 O   0  0  0  0  0  0  0  0  0  0  0  0
  142.6960   82.6480  217.4370 C   0  0  0  0  0  0  0  0  0  0  0  0
  142.7000   81.3130  217.0450 C   0  0  0  0  0  0  0  0  0  0  0  0
  141.8930   80.4260  217.7480 C   0  0  0  0  0  0  0  0  0  0  0  0
  141.1000   80.8150  218.8030 C   0  0  0  0  0  0  0  0  0  0  0  0
  140.2370   79.7990  219.5140 C   0  0  0  0  0  0  0  0  0  0  0  0
  141.1650   78.6810  219.8800 C   0  0  0  0  0  0  0  0  0  0  0  0
  140.6410   77.5650  220.5240 N   0  0  0  0  0  0  0  0  0  0  0  0
  140.1340   77.6640  221.8390 C   0  0  0  0  0  0  0  0  0  0  0  0
  140.1430   76.2290  222.4020 C   0  0  0  0  0  0  0  0  0  0  0  0
  140.2060   75.4340  221.1120 C   0  0  2  0  0  0  0  0  0  0  0  0
  140.6070   74.0420  221.2670 C   0  0  0  0  0  0  0  0  0  0  0  0
  141.3740   73.3350  220.4200 N   0  0  0  0  0  0  0  0  0  0  0  0
  141.6940   72.0430  220.6490 C   0  0  0  0  0  0  0  0  0  0  0  0
  142.5050   71.2910  219.7580 N   0  0  0  0  0  0  0  0  0  0  0  0
  143.5370   71.8870  218.9310 C   0  0  0  0  0  0  0  0  0  0  0  0
  144.8640   71.3660  219.4590 C   0  0  0  0  0  0  0  0  0  0  0  0
  144.8120   69.8820  219.3530 C   0  0  0  0  0  0  0  0  0  0  0  0
  146.0020   69.2050  219.1590 C   0  0  0  0  0  0  0  0  0  0  0  0
  145.9910   67.8220  219.0570 C   0  0  0  0  0  0  0  0  0  0  0  0
  144.8080   67.0950  219.1480 C   0  0  0  0  0  0  0  0  0  0  0  0
  143.6340   67.7890  219.3420 C   0  0  0  0  0  0  0  0  0  0  0  0
  143.6350   69.1670  219.4430 C   0  0  0  0  0  0  0  0  0  0  0  0
  142.3180   69.8560  219.6530 C   0  0  0  0  0  0  0  0  0  0  0  0
  141.2230   71.4490  221.7680 N   0  0  0  0  0  0  0  0  0  0  0  0
  140.4500   72.1130  222.6510 C   0  0  0  0  0  0  0  0  0  0  0  0
  139.9330   71.5230  223.8350 N   0  0  0  0  0  0  0  0  0  0  0  0
  138.7410   70.6620  223.7780 C   0  0  0  0  0  0  0  0  0  0  0  0
  139.2240   69.2610  224.1050 C   0  0  0  0  0  0  0  0  0  0  0  0
  139.8650   69.3190  225.4440 C   0  0  0  0  0  0  0  0  0  0  0  0
  139.8220   68.1390  226.1940 C   0  0  0  0  0  0  0  0  0  0  0  0
  140.4130   68.1530  227.4580 C   0  0  0  0  0  0  0  0  0  0  0  0
  141.0170   69.3050  227.9390 C   0  0  0  0  0  0  0  0  0  0  0  0
  141.0600   70.4750  227.1970 C   0  0  0  0  0  0  0  0  0  0  0  0
  140.4720   70.4520  225.9460 C   0  0  0  0  0  0  0  0  0  0  0  0
  140.5160   71.7040  225.1440 C   0  0  0  0  0  0  0  0  0  0  0  0
  140.1640   73.3850  222.3790 N   0  0  0  0  0  0  0  0  0  0  0  0
  141.2340   76.2870  220.3400 C   0  0  0  0  0  0  0  0  0  0  0  0
  141.0990   82.1460  219.1900 C   0  0  0  0  0  0  0  0  0  0  0  0
  141.8990   83.0660  218.5050 C   0  0  0  0  0  0  0  0  0  0  0  0
  144.7360   81.9300  215.5970 H   0  0  0  0  0  0  0  0  0  0  0  0
  144.6530   83.2690  214.4710 H   0  0  0  0  0  0  0  0  0  0  0  0
  143.3222   80.9703  216.2051 H   0  0  0  0  0  0  0  0  0  0  0  0
  141.8882   79.3677  217.4480 H   0  0  0  0  0  0  0  0  0  0  0  0
  139.7882   80.2388  220.4169 H   0  0  0  0  0  0  0  0  0  0  0  0
  139.4056   79.4526  218.8825 H   0  0  0  0  0  0  0  0  0  0  0  0
  141.6315   78.3285  218.9483 H   0  0  0  0  0  0  0  0  0  0  0  0
  141.8420   79.1267  220.6237 H   0  0  0  0  0  0  0  0  0  0  0  0
  140.7747   78.3185  222.4483 H   0  0  0  0  0  0  0  0  0  0  0  0
  139.1230   78.0974  221.8515 H   0  0  0  0  0  0  0  0  0  0  0  0
  141.0227   76.0460  223.0365 H   0  0  0  0  0  0  0  0  0  0  0  0
  139.2912   75.9840  223.0535 H   0  0  0  0  0  0  0  0  0  0  0  0
  139.2321   75.3024  220.6179 H   0  0  0  0  0  0  0  0  0  0  0  0
  143.4021   71.5892  217.8807 H   0  0  0  0  0  0  0  0  0  0  0  0
  143.4954   72.9855  218.9711 H   0  0  0  0  0  0  0  0  0  0  0  0
  145.6940   71.7606  218.8546 H   0  0  0  0  0  0  0  0  0  0  0  0
  145.0287   71.6834  220.4992 H   0  0  0  0  0  0  0  0  0  0  0  0
  146.9496   69.7589  219.0862 H   0  0  0  0  0  0  0  0  0  0  0  0
  146.9395   67.2873  218.9005 H   0  0  0  0  0  0  0  0  0  0  0  0
  144.8102   65.9980  219.0673 H   0  0  0  0  0  0  0  0  0  0  0  0
  142.6841   67.2394  219.4174 H   0  0  0  0  0  0  0  0  0  0  0  0
  141.6562   69.6387  218.8016 H   0  0  0  0  0  0  0  0  0  0  0  0
  141.8689   69.4870  220.5869 H   0  0  0  0  0  0  0  0  0  0  0  0
  137.9952   70.9917  224.5163 H   0  0  0  0  0  0  0  0  0  0  0  0
  138.2600   70.7030  222.7896 H   0  0  0  0  0  0  0  0  0  0  0  0
  138.3733   68.5639  224.1242 H   0  0  0  0  0  0  0  0  0  0  0  0
  139.9367   68.9064  223.3458 H   0  0  0  0  0  0  0  0  0  0  0  0
  139.3393   67.2320  225.8012 H   0  0  0  0  0  0  0  0  0  0  0  0
  140.3997   67.2439  228.0772 H   0  0  0  0  0  0  0  0  0  0  0  0
  141.4755   69.2898  228.9388 H   0  0  0  0  0  0  0  0  0  0  0  0
  141.5418   71.3837  227.5872 H   0  0  0  0  0  0  0  0  0  0  0  0
  139.9582   72.4881  225.6769 H   0  0  0  0  0  0  0  0  0  0  0  0
  141.5703   71.9890  225.0124 H   0  0  0  0  0  0  0  0  0  0  0  0
  142.2374   76.2291  220.7870 H   0  0  0  0  0  0  0  0  0  0  0  0
  141.4069   75.9905  219.2949 H   0  0  0  0  0  0  0  0  0  0  0  0
  140.4723   82.4768  220.0314 H   0  0  0  0  0  0  0  0  0  0  0  0
  141.9006   84.1233  218.8086 H   0  0  0  0  0  0  0  0  0  0  0  0
  1  2  1  0
  2  3  2  0
  2  4  2  0
  2  5  1  0
  5  6  2  0
  6  7  1  0
  7  8  2  0
  8  9  1  0
  9 10  1  0
 10 11  1  0
 11 12  1  0
 12 13  1  0
 13 14  1  0
 14 15  1  0
 15 16  2  0
 16 17  1  0
 17 18  1  0
 18 19  1  0
 19 20  1  0
 20 21  1  0
 21 22  2  0
 22 23  1  0
 23 24  2  0
 24 25  1  0
 25 26  2  0
 26 27  1  0
 17 28  2  0
 28 29  1  0
 29 30  1  0
 30 31  1  0
 31 32  1  0
 32 33  1  0
 33 34  2  0
 34 35  1  0
 35 36  2  0
 36 37  1  0
 37 38  2  0
 38 39  1  0
 29 40  2  0
 14 41  1  0
  8 42  1  0
 42 43  2  0
 43  5  1  0
 41 11  1  0
 40 15  1  0
 27 18  1  0
 39 30  1  0
 26 21  1  0
 38 33  1  0
  1 44  1  0
  1 45  1  0
  6 46  1  0
  7 47  1  0
  9 48  1  0
  9 49  1  0
 10 50  1  0
 10 51  1  0
 12 52  1  0
 12 53  1  0
 13 54  1  0
 13 55  1  0
 14 56  1  6
 19 57  1  0
 19 58  1  0
 20 59  1  0
 20 60  1  0
 22 61  1  0
 23 62  1  0
 24 63  1  0
 25 64  1  0
 27 65  1  0
 27 66  1  0
 31 67  1  0
 31 68  1  0
 32 69  1  0
 32 70  1  0
 34 71  1  0
 35 72  1  0
 36 73  1  0
 37 74  1  0
 39 75  1  0
 39 76  1  0
 41 77  1  0
 41 78  1  0
 42 79  1  0
 43 80  1  0
M  END
>  <smiles>  (18) 
NS(=O)(=O)c1ccc(CCN2CCC(c3nc(N4CCc5ccccc5C4)nc(N4CCc5ccccc5C4)n3)C2)cc1

>  <score_type>  (18) 
oracle

>  <origin>  (18) 
autodockgpu

>  <m_score__min__energy>  (18) 
-11.56

>  <m_primary>  (18) 
energy

>  <rmsd>  (18) 
4.248385930490253

>  <m_score__min__rmsd>  (18) 
4.248385930490253

>  <meeko>  (18) 
{"free_energy": -10.57, "intermolecular_energy": -12.96, "internal_energy": -1.34, "cluster_size": 13, "cluster_id": 1, "rank_in_cluster": 9}

>  <energy>  (18) 
-11.02

>  <cluster_rmsd>  (18) 
0.84

>  <cluster>  (18) 
2

$$$$

     RDKit          3D

 80 86  0  0  1  0  0  0  0  0999 V2000
  134.7970   82.6610  226.3400 N   0  0  0  0  0  0  0  0  0  0  0  0
  136.4220   82.6920  225.7540 S   0  0  0  0  0  0  0  0  0  0  0  0
  137.3240   82.7080  226.9620 O   0  0  0  0  0  0  0  0  0  0  0  0
  136.6380   83.9700  225.0290 O   0  0  0  0  0  0  0  0  0  0  0  0
  136.8180   81.2840  224.7980 C   0  0  0  0  0  0  0  0  0  0  0  0
  138.1640   80.9930  224.6040 C   0  0  0  0  0  0  0  0  0  0  0  0
  138.4840   79.8760  223.8410 C   0  0  0  0  0  0  0  0  0  0  0  0
  137.5300   79.0590  223.2780 C   0  0  0  0  0  0  0  0  0  0  0  0
  137.9500   77.8670  222.4480 C   0  0  0  0  0  0  0  0  0  0  0  0
  139.1670   78.3170  221.7000 C   0  0  0  0  0  0  0  0  0  0  0  0
  140.1440   77.3770  221.3900 N   0  0  0  0  0  0  0  0  0  0  0  0
  140.8960   77.4860  220.1990 C   0  0  0  0  0  0  0  0  0  0  0  0
  141.4610   76.0770  219.9290 C   0  0  0  0  0  0  0  0  0  0  0  0
  141.3360   75.4670  221.3120 C   0  0  2  0  0  0  0  0  0  0  0  0
  141.4290   74.0150  221.3540 C   0  0  0  0  0  0  0  0  0  0  0  0
  142.1110   73.2350  220.4980 N   0  0  0  0  0  0  0  0  0  0  0  0
  142.1380   71.8900  220.6170 C   0  0  0  0  0  0  0  0  0  0  0  0
  142.8570   71.0600  219.7170 N   0  0  0  0  0  0  0  0  0  0  0  0
  143.9090   71.5570  218.8490 C   0  0  0  0  0  0  0  0  0  0  0  0
  145.2040   70.9380  219.3470 C   0  0  0  0  0  0  0  0  0  0  0  0
  145.0290   69.4620  219.2690 C   0  0  0  0  0  0  0  0  0  0  0  0
  146.1530   68.6870  219.0520 C   0  0  0  0  0  0  0  0  0  0  0  0
  146.0270   67.3080  218.9750 C   0  0  0  0  0  0  0  0  0  0  0  0
  144.7930   66.6820  219.1140 C   0  0  0  0  0  0  0  0  0  0  0  0
  143.6850   67.4720  219.3300 C   0  0  0  0  0  0  0  0  0  0  0  0
  143.8010   68.8470  219.4070 C   0  0  0  0  0  0  0  0  0  0  0  0
  142.5520   69.6440  219.6430 C   0  0  0  0  0  0  0  0  0  0  0  0
  141.4540   71.3180  221.6330 N   0  0  0  0  0  0  0  0  0  0  0  0
  140.7540   72.0540  222.5200 C   0  0  0  0  0  0  0  0  0  0  0  0
  140.0200   71.4880  223.5970 N   0  0  0  0  0  0  0  0  0  0  0  0
  138.7940   70.7170  223.3380 C   0  0  0  0  0  0  0  0  0  0  0  0
  139.1220   69.2810  223.7040 C   0  0  0  0  0  0  0  0  0  0  0  0
  139.5500   69.2770  225.1270 C   0  0  0  0  0  0  0  0  0  0  0  0
  139.3090   68.0950  225.8350 C   0  0  0  0  0  0  0  0  0  0  0  0
  139.6960   68.0520  227.1740 C   0  0  0  0  0  0  0  0  0  0  0  0
  140.2970   69.1520  227.7690 C   0  0  0  0  0  0  0  0  0  0  0  0
  140.5360   70.3250  227.0680 C   0  0  0  0  0  0  0  0  0  0  0  0
  140.1490   70.3580  225.7410 C   0  0  0  0  0  0  0  0  0  0  0  0
  140.4030   71.6130  224.9840 C   0  0  0  0  0  0  0  0  0  0  0  0
  140.7600   73.3750  222.3590 N   0  0  0  0  0  0  0  0  0  0  0  0
  139.9440   76.0060  221.7010 C   0  0  0  0  0  0  0  0  0  0  0  0
  136.1900   79.3540  223.4740 C   0  0  0  0  0  0  0  0  0  0  0  0
  135.8320   80.4690  224.2360 C   0  0  0  0  0  0  0  0  0  0  0  0
  134.1330   82.8650  225.5790 H   0  0  0  0  0  0  0  0  0  0  0  0
  134.5920   81.7660  226.8640 H   0  0  0  0  0  0  0  0  0  0  0  0
  138.9503   81.6265  225.0404 H   0  0  0  0  0  0  0  0  0  0  0  0
  139.5451   79.6347  223.6803 H   0  0  0  0  0  0  0  0  0  0  0  0
  138.1903   77.0113  223.0961 H   0  0  0  0  0  0  0  0  0  0  0  0
  137.1497   77.5367  221.7694 H   0  0  0  0  0  0  0  0  0  0  0  0
  138.8216   78.7508  220.7500 H   0  0  0  0  0  0  0  0  0  0  0  0
  139.6691   79.0060  222.3951 H   0  0  0  0  0  0  0  0  0  0  0  0
  140.2516   77.8063  219.3670 H   0  0  0  0  0  0  0  0  0  0  0  0
  141.6981   78.2328  220.2934 H   0  0  0  0  0  0  0  0  0  0  0  0
  140.8585   75.5319  219.1875 H   0  0  0  0  0  0  0  0  0  0  0  0
  142.4771   76.0606  219.5080 H   0  0  0  0  0  0  0  0  0  0  0  0
  142.1555   75.7336  221.9957 H   0  0  0  0  0  0  0  0  0  0  0  0
  143.7183   71.2549  217.8086 H   0  0  0  0  0  0  0  0  0  0  0  0
  143.9580   72.6557  218.8705 H   0  0  0  0  0  0  0  0  0  0  0  0
  146.0445   71.2544  218.7118 H   0  0  0  0  0  0  0  0  0  0  0  0
  145.4253   71.2568  220.3763 H   0  0  0  0  0  0  0  0  0  0  0  0
  147.1397   69.1604  218.9413 H   0  0  0  0  0  0  0  0  0  0  0  0
  146.9237   66.6954  218.8000 H   0  0  0  0  0  0  0  0  0  0  0  0
  144.7040   65.5873  219.0532 H   0  0  0  0  0  0  0  0  0  0  0  0
  142.6965   67.0028  219.4425 H   0  0  0  0  0  0  0  0  0  0  0  0
  141.8491   69.4683  218.8153 H   0  0  0  0  0  0  0  0  0  0  0  0
  142.1038   69.3273  220.5963 H   0  0  0  0  0  0  0  0  0  0  0  0
  137.9677   71.0915  223.9601 H   0  0  0  0  0  0  0  0  0  0  0  0
  138.4756   70.8042  222.2887 H   0  0  0  0  0  0  0  0  0  0  0  0
  138.2323   68.6469  223.5763 H   0  0  0  0  0  0  0  0  0  0  0  0
  139.9176   68.8848  223.0558 H   0  0  0  0  0  0  0  0  0  0  0  0
  138.8310   67.2297  225.3525 H   0  0  0  0  0  0  0  0  0  0  0  0
  139.5235   67.1391  227.7630 H   0  0  0  0  0  0  0  0  0  0  0  0
  140.5924   69.0922  228.8269 H   0  0  0  0  0  0  0  0  0  0  0  0
  141.0133   71.1923  227.5476 H   0  0  0  0  0  0  0  0  0  0  0  0
  139.8237   72.4285  225.4415 H   0  0  0  0  0  0  0  0  0  0  0  0
  141.4817   71.8246  225.0237 H   0  0  0  0  0  0  0  0  0  0  0  0
  139.1434   75.5576  221.0944 H   0  0  0  0  0  0  0  0  0  0  0  0
  139.6258   75.7957  222.7328 H   0  0  0  0  0  0  0  0  0  0  0  0
  135.4125   78.7136  223.0320 H   0  0  0  0  0  0  0  0  0  0  0  0
  134.7696   80.7062  224.3941 H   0  0  0  0  0  0  0  0  0  0  0  0
  1  2  1  0
  2  3  2  0
  2  4  2  0
  2  5  1  0
  5  6  2  0
  6  7  1  0
  7  8  2  0
  8  9  1  0
  9 10  1  0
 10 11  1  0
 11 12  1  0
 12 13  1  0
 13 14  1  0
 14 15  1  0
 15 16  2  0
 16 17  1  0
 17 18  1  0
 18 19  1  0
 19 20  1  0
 20 21  1  0
 21 22  2  0
 22 23  1  0
 23 24  2  0
 24 25  1  0
 25 26  2  0
 26 27  1  0
 17 28  2  0
 28 29  1  0
 29 30  1  0
 30 31  1  0
 31 32  1  0
 32 33  1  0
 33 34  2  0
 34 35  1  0
 35 36  2  0
 36 37  1  0
 37 38  2  0
 38 39  1  0
 29 40  2  0
 14 41  1  0
  8 42  1  0
 42 43  2  0
 43  5  1  0
 41 11  1  0
 40 15  1  0
 27 18  1  0
 39 30  1  0
 26 21  1  0
 38 33  1  0
  1 44  1  0
  1 45  1  0
  6 46  1  0
  7 47  1  0
  9 48  1  0
  9 49  1  0
 10 50  1  0
 10 51  1  0
 12 52  1  0
 12 53  1  0
 13 54  1  0
 13 55  1  0
 14 56  1  1
 19 57  1  0
 19 58  1  0
 20 59  1  0
 20 60  1  0
 22 61  1  0
 23 62  1  0
 24 63  1  0
 25 64  1  0
 27 65  1  0
 27 66  1  0
 31 67  1  0
 31 68  1  0
 32 69  1  0
 32 70  1  0
 34 71  1  0
 35 72  1  0
 36 73  1  0
 37 74  1  0
 39 75  1  0
 39 76  1  0
 41 77  1  0
 41 78  1  0
 42 79  1  0
 43 80  1  0
M  END
>  <smiles>  (19) 
NS(=O)(=O)c1ccc(CCN2CCC(c3nc(N4CCc5ccccc5C4)nc(N4CCc5ccccc5C4)n3)C2)cc1

>  <score_type>  (19) 
oracle

>  <origin>  (19) 
autodockgpu

>  <m_score__min__energy>  (19) 
-11.56

>  <m_primary>  (19) 
energy

>  <rmsd>  (19) 
3.7871345837631214

>  <m_score__min__rmsd>  (19) 
3.7871345837631214

>  <meeko>  (19) 
{"free_energy": -9.92, "intermolecular_energy": -12.3, "internal_energy": -1.39, "cluster_size": 14, "cluster_id": 2, "rank_in_cluster": 13}

>  <energy>  (19) 
-10.93

>  <cluster_rmsd>  (19) 
0.95

>  <cluster>  (19) 
2

$$$$

     RDKit          3D

 80 86  0  0  1  0  0  0  0  0999 V2000
  135.7930   81.4990  230.9710 N   0  0  0  0  0  0  0  0  0  0  0  0
  134.4340   81.4650  229.9070 S   0  0  0  0  0  0  0  0  0  0  0  0
  133.6150   82.6970  230.2010 O   0  0  0  0  0  0  0  0  0  0  0  0
  133.5950   80.2890  230.2500 O   0  0  0  0  0  0  0  0  0  0  0  0
  134.8990   81.5100  228.2230 C   0  0  0  0  0  0  0  0  0  0  0  0
  136.1920   81.9240  227.9210 C   0  0  0  0  0  0  0  0  0  0  0  0
  136.5660   81.9640  226.5830 C   0  0  0  0  0  0  0  0  0  0  0  0
  135.7140   81.6150  225.5590 C   0  0  0  0  0  0  0  0  0  0  0  0
  136.1840   81.6950  224.1250 C   0  0  0  0  0  0  0  0  0  0  0  0
  137.6570   81.9520  224.2070 C   0  0  0  0  0  0  0  0  0  0  0  0
  138.5300   80.9880  223.7120 N   0  0  0  0  0  0  0  0  0  0  0  0
  139.5650   81.3450  222.8190 C   0  0  0  0  0  0  0  0  0  0  0  0
  139.9630   80.0430  222.0970 C   0  0  0  0  0  0  0  0  0  0  0  0
  139.4050   79.0160  223.0630 C   0  0  2  0  0  0  0  0  0  0  0  0
  139.2660   77.6720  222.5200 C   0  0  0  0  0  0  0  0  0  0  0  0
  140.1660   77.0220  221.7630 N   0  0  0  0  0  0  0  0  0  0  0  0
  139.9490   75.7710  221.3030 C   0  0  0  0  0  0  0  0  0  0  0  0
  140.8960   75.0780  220.5040 N   0  0  0  0  0  0  0  0  0  0  0  0
  141.5630   75.6800  219.3650 C   0  0  0  0  0  0  0  0  0  0  0  0
  143.0290   75.8070  219.7450 C   0  0  0  0  0  0  0  0  0  0  0  0
  143.5130   74.4320  220.0480 C   0  0  0  0  0  0  0  0  0  0  0  0
  144.8450   74.1490  219.8130 C   0  0  0  0  0  0  0  0  0  0  0  0
  145.3300   72.8780  220.0860 C   0  0  0  0  0  0  0  0  0  0  0  0
  144.5070   71.8790  220.5940 C   0  0  0  0  0  0  0  0  0  0  0  0
  143.1820   72.1830  220.8210 C   0  0  0  0  0  0  0  0  0  0  0  0
  142.6900   73.4450  220.5510 C   0  0  0  0  0  0  0  0  0  0  0  0
  141.2360   73.7040  220.8210 C   0  0  0  0  0  0  0  0  0  0  0  0
  138.7840   75.1610  221.6170 N   0  0  0  0  0  0  0  0  0  0  0  0
  137.8470   75.7680  222.3730 C   0  0  0  0  0  0  0  0  0  0  0  0
  136.6100   75.1610  222.7210 N   0  0  0  0  0  0  0  0  0  0  0  0
  136.1710   73.9300  222.0470 C   0  0  0  0  0  0  0  0  0  0  0  0
  136.2220   72.8390  223.1000 C   0  0  0  0  0  0  0  0  0  0  0  0
  135.3390   73.2650  224.2180 C   0  0  0  0  0  0  0  0  0  0  0  0
  134.7540   72.2350  224.9610 C   0  0  0  0  0  0  0  0  0  0  0  0
  133.9180   72.5940  226.0180 C   0  0  0  0  0  0  0  0  0  0  0  0
  133.6850   73.9310  226.3080 C   0  0  0  0  0  0  0  0  0  0  0  0
  134.2640   74.9530  225.5710 C   0  0  0  0  0  0  0  0  0  0  0  0
  135.0920   74.5870  224.5250 C   0  0  0  0  0  0  0  0  0  0  0  0
  135.7170   75.6780  223.7310 C   0  0  0  0  0  0  0  0  0  0  0  0
  138.1110   77.0000  222.8030 N   0  0  0  0  0  0  0  0  0  0  0  0
  138.0560   79.6870  223.3930 C   0  0  0  0  0  0  0  0  0  0  0  0
  134.4270   81.2040  225.8660 C   0  0  0  0  0  0  0  0  0  0  0  0
  134.0170   81.1500  227.2010 C   0  0  0  0  0  0  0  0  0  0  0  0
  136.0230   80.5490  231.2980 H   0  0  0  0  0  0  0  0  0  0  0  0
  136.6090   82.0150  230.5420 H   0  0  0  0  0  0  0  0  0  0  0  0
  136.8963   82.2107  228.7159 H   0  0  0  0  0  0  0  0  0  0  0  0
  137.5865   82.2884  226.3312 H   0  0  0  0  0  0  0  0  0  0  0  0
  135.9865   80.7481  223.6012 H   0  0  0  0  0  0  0  0  0  0  0  0
  135.6602   82.4834  223.5646 H   0  0  0  0  0  0  0  0  0  0  0  0
  137.8550   82.8827  223.6551 H   0  0  0  0  0  0  0  0  0  0  0  0
  137.8657   81.9736  225.2868 H   0  0  0  0  0  0  0  0  0  0  0  0
  139.2057   82.0906  222.0944 H   0  0  0  0  0  0  0  0  0  0  0  0
  140.4196   81.7929  223.3473 H   0  0  0  0  0  0  0  0  0  0  0  0
  139.4923   79.9672  221.1057 H   0  0  0  0  0  0  0  0  0  0  0  0
  141.0384   79.9424  221.8885 H   0  0  0  0  0  0  0  0  0  0  0  0
  140.0569   78.8109  223.9249 H   0  0  0  0  0  0  0  0  0  0  0  0
  141.4540   75.0391  218.4777 H   0  0  0  0  0  0  0  0  0  0  0  0
  141.1279   76.6601  219.1200 H   0  0  0  0  0  0  0  0  0  0  0  0
  143.6017   76.2348  218.9089 H   0  0  0  0  0  0  0  0  0  0  0  0
  143.1569   76.4716  220.6122 H   0  0  0  0  0  0  0  0  0  0  0  0
  145.5149   74.9245  219.4131 H   0  0  0  0  0  0  0  0  0  0  0  0
  146.3904   72.6555  219.8961 H   0  0  0  0  0  0  0  0  0  0  0  0
  144.9020   70.8750  220.8085 H   0  0  0  0  0  0  0  0  0  0  0  0
  142.5084   71.4114  221.2220 H   0  0  0  0  0  0  0  0  0  0  0  0
  140.6272   73.0286  220.2019 H   0  0  0  0  0  0  0  0  0  0  0  0
  141.0355   73.5256  221.8878 H   0  0  0  0  0  0  0  0  0  0  0  0
  135.1456   74.0469  221.6664 H   0  0  0  0  0  0  0  0  0  0  0  0
  136.8119   73.6904  221.1857 H   0  0  0  0  0  0  0  0  0  0  0  0
  135.8625   71.8895  222.6766 H   0  0  0  0  0  0  0  0  0  0  0  0
  137.2523   72.6852  223.4532 H   0  0  0  0  0  0  0  0  0  0  0  0
  134.9463   71.1790  224.7203 H   0  0  0  0  0  0  0  0  0  0  0  0
  133.4399   71.8119  226.6261 H   0  0  0  0  0  0  0  0  0  0  0  0
  133.0216   74.1876  227.1471 H   0  0  0  0  0  0  0  0  0  0  0  0
  134.0730   76.0100  225.8081 H   0  0  0  0  0  0  0  0  0  0  0  0
  134.9236   76.2610  223.2404 H   0  0  0  0  0  0  0  0  0  0  0  0
  136.3033   76.3076  224.4165 H   0  0  0  0  0  0  0  0  0  0  0  0
  137.3766   79.6957  222.5279 H   0  0  0  0  0  0  0  0  0  0  0  0
  137.4603   79.1943  224.1756 H   0  0  0  0  0  0  0  0  0  0  0  0
  133.7309   80.9214  225.0625 H   0  0  0  0  0  0  0  0  0  0  0  0
  132.9962   80.8229  227.4480 H   0  0  0  0  0  0  0  0  0  0  0  0
  1  2  1  0
  2  3  2  0
  2  4  2  0
  2  5  1  0
  5  6  2  0
  6  7  1  0
  7  8  2  0
  8  9  1  0
  9 10  1  0
 10 11  1  0
 11 12  1  0
 12 13  1  0
 13 14  1  0
 14 15  1  0
 15 16  2  0
 16 17  1  0
 17 18  1  0
 18 19  1  0
 19 20  1  0
 20 21  1  0
 21 22  2  0
 22 23  1  0
 23 24  2  0
 24 25  1  0
 25 26  2  0
 26 27  1  0
 17 28  2  0
 28 29  1  0
 29 30  1  0
 30 31  1  0
 31 32  1  0
 32 33  1  0
 33 34  2  0
 34 35  1  0
 35 36  2  0
 36 37  1  0
 37 38  2  0
 38 39  1  0
 29 40  2  0
 14 41  1  0
  8 42  1  0
 42 43  2  0
 43  5  1  0
 41 11  1  0
 40 15  1  0
 27 18  1  0
 39 30  1  0
 26 21  1  0
 38 33  1  0
  1 44  1  0
  1 45  1  0
  6 46  1  0
  7 47  1  0
  9 48  1  0
  9 49  1  0
 10 50  1  0
 10 51  1  0
 12 52  1  0
 12 53  1  0
 13 54  1  0
 13 55  1  0
 14 56  1  1
 19 57  1  0
 19 58  1  0
 20 59  1  0
 20 60  1  0
 22 61  1  0
 23 62  1  0
 24 63  1  0
 25 64  1  0
 27 65  1  0
 27 66  1  0
 31 67  1  0
 31 68  1  0
 32 69  1  0
 32 70  1  0
 34 71  1  0
 35 72  1  0
 36 73  1  0
 37 74  1  0
 39 75  1  0
 39 76  1  0
 41 77  1  0
 41 78  1  0
 42 79  1  0
 43 80  1  0
M  END
>  <smiles>  (20) 
NS(=O)(=O)c1ccc(CCN2CCC(c3nc(N4CCc5ccccc5C4)nc(N4CCc5ccccc5C4)n3)C2)cc1

>  <score_type>  (20) 
oracle

>  <origin>  (20) 
autodockgpu

>  <m_score__min__energy>  (20) 
-11.56

>  <m_primary>  (20) 
energy

>  <rmsd>  (20) 
6.397874027736506

>  <m_score__min__rmsd>  (20) 
6.397874027736506

>  <meeko>  (20) 
{"free_energy": -10.15, "intermolecular_energy": -12.54, "internal_energy": -1.52, "cluster_size": 1, "cluster_id": 8, "rank_in_cluster": 1}

>  <energy>  (20) 
-10.92

>  <cluster_rmsd>  (20) 
1.11

>  <cluster>  (20) 
2

$$$$

     RDKit          3D

 80 86  0  0  1  0  0  0  0  0999 V2000
  141.1890   71.8950  228.4350 N   0  0  0  0  0  0  0  0  0  0  0  0
  140.4860   70.3490  228.1170 S   0  0  0  0  0  0  0  0  0  0  0  0
  139.1970   70.2850  228.8960 O   0  0  0  0  0  0  0  0  0  0  0  0
  141.3830   69.3010  228.6660 O   0  0  0  0  0  0  0  0  0  0  0  0
  140.1120   70.1180  226.4250 C   0  0  0  0  0  0  0  0  0  0  0  0
  139.2750   69.0590  226.0880 C   0  0  0  0  0  0  0  0  0  0  0  0
  138.9770   68.8690  224.7440 C   0  0  0  0  0  0  0  0  0  0  0  0
  139.4750   69.6780  223.7480 C   0  0  0  0  0  0  0  0  0  0  0  0
  139.1210   69.4040  222.3040 C   0  0  0  0  0  0  0  0  0  0  0  0
  137.9380   70.2760  222.0170 C   0  0  0  0  0  0  0  0  0  0  0  0
  138.1540   71.6240  221.7470 N   0  0  0  0  0  0  0  0  0  0  0  0
  139.4610   72.1140  221.5290 C   0  0  0  0  0  0  0  0  0  0  0  0
  139.3890   73.6320  221.7880 C   0  0  0  0  0  0  0  0  0  0  0  0
  137.8970   73.8600  221.6430 C   0  0  2  0  0  0  0  0  0  0  0  0
  137.4110   75.1180  222.1920 C   0  0  0  0  0  0  0  0  0  0  0  0
  136.2500   75.3090  222.8410 N   0  0  0  0  0  0  0  0  0  0  0  0
  135.8830   76.5190  223.3150 C   0  0  0  0  0  0  0  0  0  0  0  0
  134.6580   76.7270  224.0030 N   0  0  0  0  0  0  0  0  0  0  0  0
  133.7030   75.6650  224.2600 C   0  0  0  0  0  0  0  0  0  0  0  0
  133.6970   75.4490  225.7640 C   0  0  0  0  0  0  0  0  0  0  0  0
  133.3090   76.7470  226.3810 C   0  0  0  0  0  0  0  0  0  0  0  0
  132.6380   76.7150  227.5890 C   0  0  0  0  0  0  0  0  0  0  0  0
  132.2620   77.9070  228.1920 C   0  0  0  0  0  0  0  0  0  0  0  0
  132.5480   79.1380  227.6110 C   0  0  0  0  0  0  0  0  0  0  0  0
  133.2190   79.1470  226.4070 C   0  0  0  0  0  0  0  0  0  0  0  0
  133.5950   77.9660  225.7980 C   0  0  0  0  0  0  0  0  0  0  0  0
  134.3210   78.0520  224.4880 C   0  0  0  0  0  0  0  0  0  0  0  0
  136.7150   77.5670  223.1260 N   0  0  0  0  0  0  0  0  0  0  0  0
  137.8920   77.4300  222.4820 C   0  0  0  0  0  0  0  0  0  0  0  0
  138.7910   78.5080  222.2610 N   0  0  0  0  0  0  0  0  0  0  0  0
  138.3390   79.8980  222.4240 C   0  0  0  0  0  0  0  0  0  0  0  0
  139.0710   80.4330  223.6400 C   0  0  0  0  0  0  0  0  0  0  0  0
  140.5270   80.2970  223.3730 C   0  0  0  0  0  0  0  0  0  0  0  0
  141.3550   81.2290  224.0080 C   0  0  0  0  0  0  0  0  0  0  0  0
  142.7280   81.1340  223.7810 C   0  0  0  0  0  0  0  0  0  0  0  0
  143.2380   80.1460  222.9520 C   0  0  0  0  0  0  0  0  0  0  0  0
  142.4180   79.2230  222.3210 C   0  0  0  0  0  0  0  0  0  0  0  0
  141.0580   79.3240  222.5510 C   0  0  0  0  0  0  0  0  0  0  0  0
  140.1730   78.3360  221.8780 C   0  0  0  0  0  0  0  0  0  0  0  0
  138.2080   76.2170  222.0340 N   0  0  0  0  0  0  0  0  0  0  0  0
  137.3770   72.6190  222.3990 C   0  0  0  0  0  0  0  0  0  0  0  0
  140.3100   70.7300  224.0890 C   0  0  0  0  0  0  0  0  0  0  0  0
  140.6290   70.9520  225.4320 C   0  0  0  0  0  0  0  0  0  0  0  0
  140.4670   72.5700  228.7260 H   0  0  0  0  0  0  0  0  0  0  0  0
  142.0030   71.8190  229.1050 H   0  0  0  0  0  0  0  0  0  0  0  0
  138.8624   68.3935  226.8605 H   0  0  0  0  0  0  0  0  0  0  0  0
  138.3148   68.0364  224.4642 H   0  0  0  0  0  0  0  0  0  0  0  0
  139.9617   69.6653  221.6445 H   0  0  0  0  0  0  0  0  0  0  0  0
  138.8996   68.3407  222.1298 H   0  0  0  0  0  0  0  0  0  0  0  0
  137.4245   69.8485  221.1432 H   0  0  0  0  0  0  0  0  0  0  0  0
  137.3718   70.2787  222.9601 H   0  0  0  0  0  0  0  0  0  0  0  0
  140.1689   71.6398  222.2248 H   0  0  0  0  0  0  0  0  0  0  0  0
  139.8114   71.8933  220.5099 H   0  0  0  0  0  0  0  0  0  0  0  0
  139.7443   73.8903  222.7965 H   0  0  0  0  0  0  0  0  0  0  0  0
  140.0155   74.2434  221.1219 H   0  0  0  0  0  0  0  0  0  0  0  0
  137.5579   73.9579  220.6012 H   0  0  0  0  0  0  0  0  0  0  0  0
  132.7018   75.9616  223.9142 H   0  0  0  0  0  0  0  0  0  0  0  0
  133.9775   74.7435  223.7256 H   0  0  0  0  0  0  0  0  0  0  0  0
  132.9690   74.6692  226.0321 H   0  0  0  0  0  0  0  0  0  0  0  0
  134.6845   75.1209  226.1206 H   0  0  0  0  0  0  0  0  0  0  0  0
  132.4041   75.7529  228.0683 H   0  0  0  0  0  0  0  0  0  0  0  0
  131.7253   77.8776  229.1517 H   0  0  0  0  0  0  0  0  0  0  0  0
  132.2474   80.0772  228.0983 H   0  0  0  0  0  0  0  0  0  0  0  0
  133.4579   80.1067  225.9254 H   0  0  0  0  0  0  0  0  0  0  0  0
  133.6777   78.5541  223.7505 H   0  0  0  0  0  0  0  0  0  0  0  0
  135.2498   78.6230  224.6341 H   0  0  0  0  0  0  0  0  0  0  0  0
  138.5938   80.4902  221.5327 H   0  0  0  0  0  0  0  0  0  0  0  0
  137.2479   79.9557  222.5515 H   0  0  0  0  0  0  0  0  0  0  0  0
  138.8144   81.4908  223.7990 H   0  0  0  0  0  0  0  0  0  0  0  0
  138.7863   79.8742  224.5437 H   0  0  0  0  0  0  0  0  0  0  0  0
  140.9383   82.0086  224.6627 H   0  0  0  0  0  0  0  0  0  0  0  0
  143.4116   81.8483  224.2633 H   0  0  0  0  0  0  0  0  0  0  0  0
  144.3248   80.0931  222.7904 H   0  0  0  0  0  0  0  0  0  0  0  0
  142.8318   78.4431  221.6649 H   0  0  0  0  0  0  0  0  0  0  0  0
  140.2595   78.4638  220.7889 H   0  0  0  0  0  0  0  0  0  0  0  0
  140.4903   77.3280  222.1833 H   0  0  0  0  0  0  0  0  0  0  0  0
  137.5927   72.6713  223.4764 H   0  0  0  0  0  0  0  0  0  0  0  0
  136.2881   72.4664  222.3680 H   0  0  0  0  0  0  0  0  0  0  0  0
  140.7196   71.3868  223.3074 H   0  0  0  0  0  0  0  0  0  0  0  0
  141.2899   71.7871  225.7073 H   0  0  0  0  0  0  0  0  0  0  0  0
  1  2  1  0
  2  3  2  0
  2  4  2  0
  2  5  1  0
  5  6  2  0
  6  7  1  0
  7  8  2  0
  8  9  1  0
  9 10  1  0
 10 11  1  0
 11 12  1  0
 12 13  1  0
 13 14  1  0
 14 15  1  0
 15 16  2  0
 16 17  1  0
 17 18  1  0
 18 19  1  0
 19 20  1  0
 20 21  1  0
 21 22  2  0
 22 23  1  0
 23 24  2  0
 24 25  1  0
 25 26  2  0
 26 27  1  0
 17 28  2  0
 28 29  1  0
 29 30  1  0
 30 31  1  0
 31 32  1  0
 32 33  1  0
 33 34  2  0
 34 35  1  0
 35 36  2  0
 36 37  1  0
 37 38  2  0
 38 39  1  0
 29 40  2  0
 14 41  1  0
  8 42  1  0
 42 43  2  0
 43  5  1  0
 41 11  1  0
 40 15  1  0
 27 18  1  0
 39 30  1  0
 26 21  1  0
 38 33  1  0
  1 44  1  0
  1 45  1  0
  6 46  1  0
  7 47  1  0
  9 48  1  0
  9 49  1  0
 10 50  1  0
 10 51  1  0
 12 52  1  0
 12 53  1  0
 13 54  1  0
 13 55  1  0
 14 56  1  6
 19 57  1  0
 19 58  1  0
 20 59  1  0
 20 60  1  0
 22 61  1  0
 23 62  1  0
 24 63  1  0
 25 64  1  0
 27 65  1  0
 27 66  1  0
 31 67  1  0
 31 68  1  0
 32 69  1  0
 32 70  1  0
 34 71  1  0
 35 72  1  0
 36 73  1  0
 37 74  1  0
 39 75  1  0
 39 76  1  0
 41 77  1  0
 41 78  1  0
 42 79  1  0
 43 80  1  0
M  END
>  <smiles>  (21) 
NS(=O)(=O)c1ccc(CCN2CCC(c3nc(N4CCc5ccccc5C4)nc(N4CCc5ccccc5C4)n3)C2)cc1

>  <score_type>  (21) 
oracle

>  <origin>  (21) 
autodockgpu

>  <m_score__min__energy>  (21) 
-11.56

>  <m_primary>  (21) 
energy

>  <rmsd>  (21) 
9.770393236351165

>  <m_score__min__rmsd>  (21) 
9.770393236351165

>  <meeko>  (21) 
{"free_energy": -10.06, "intermolecular_energy": -12.45, "internal_energy": -1.52, "cluster_size": 5, "cluster_id": 7, "rank_in_cluster": 2}

>  <energy>  (21) 
-10.8

>  <cluster_rmsd>  (21) 
1.1

>  <cluster>  (21) 
2

$$$$

     RDKit          3D

 80 86  0  0  1  0  0  0  0  0999 V2000
  146.3840   73.5100  219.0330 N   0  0  0  0  0  0  0  0  0  0  0  0
  145.3100   73.3050  220.3700 S   0  0  0  0  0  0  0  0  0  0  0  0
  146.0880   73.6500  221.6150 O   0  0  0  0  0  0  0  0  0  0  0  0
  144.9460   71.8680  220.4660 O   0  0  0  0  0  0  0  0  0  0  0  0
  143.9220   74.3620  220.2840 C   0  0  0  0  0  0  0  0  0  0  0  0
  144.0780   75.5820  219.6340 C   0  0  0  0  0  0  0  0  0  0  0  0
  142.9780   76.4280  219.5650 C   0  0  0  0  0  0  0  0  0  0  0  0
  141.7550   76.1070  220.1110 C   0  0  0  0  0  0  0  0  0  0  0  0
  140.6040   77.0820  220.0100 C   0  0  0  0  0  0  0  0  0  0  0  0
  139.7010   76.5170  218.9570 C   0  0  0  0  0  0  0  0  0  0  0  0
  138.9320   75.4000  219.2680 N   0  0  0  0  0  0  0  0  0  0  0  0
  137.7480   75.1190  218.5500 C   0  0  0  0  0  0  0  0  0  0  0  0
  136.9210   74.1860  219.4560 C   0  0  0  0  0  0  0  0  0  0  0  0
  138.0070   73.6740  220.3810 C   0  0  2  0  0  0  0  0  0  0  0  0
  137.5280   73.0530  221.6080 C   0  0  0  0  0  0  0  0  0  0  0  0
  136.3030   73.1900  222.1440 N   0  0  0  0  0  0  0  0  0  0  0  0
  135.9480   72.5720  223.2920 C   0  0  0  0  0  0  0  0  0  0  0  0
  134.6560   72.7110  223.8630 N   0  0  0  0  0  0  0  0  0  0  0  0
  133.7460   71.5960  224.0460 C   0  0  0  0  0  0  0  0  0  0  0  0
  133.6150   71.3920  225.5460 C   0  0  0  0  0  0  0  0  0  0  0  0
  133.0970   72.6690  226.1080 C   0  0  0  0  0  0  0  0  0  0  0  0
  132.3210   72.6060  227.2500 C   0  0  0  0  0  0  0  0  0  0  0  0
  131.8230   73.7780  227.8020 C   0  0  0  0  0  0  0  0  0  0  0  0
  132.0870   75.0190  227.2330 C   0  0  0  0  0  0  0  0  0  0  0  0
  132.8630   75.0590  226.0950 C   0  0  0  0  0  0  0  0  0  0  0  0
  133.3620   73.8980  225.5380 C   0  0  0  0  0  0  0  0  0  0  0  0
  134.1980   74.0180  224.2970 C   0  0  0  0  0  0  0  0  0  0  0  0
  136.8610   71.7930  223.9150 N   0  0  0  0  0  0  0  0  0  0  0  0
  138.1030   71.6220  223.4190 C   0  0  0  0  0  0  0  0  0  0  0  0
  139.0900   70.8150  224.0470 N   0  0  0  0  0  0  0  0  0  0  0  0
  140.4670   71.3090  224.2010 C   0  0  0  0  0  0  0  0  0  0  0  0
  140.6690   71.5190  225.6900 C   0  0  0  0  0  0  0  0  0  0  0  0
  140.4170   70.2150  226.3560 C   0  0  0  0  0  0  0  0  0  0  0  0
  141.1050   69.9960  227.5540 C   0  0  0  0  0  0  0  0  0  0  0  0
  140.8950   68.7830  228.2090 C   0  0  0  0  0  0  0  0  0  0  0  0
  140.0310   67.8370  227.6780 C   0  0  0  0  0  0  0  0  0  0  0  0
  139.3480   68.0520  226.4900 C   0  0  0  0  0  0  0  0  0  0  0  0
  139.5630   69.2570  225.8480 C   0  0  0  0  0  0  0  0  0  0  0  0
  138.8330   69.4950  224.5740 C   0  0  0  0  0  0  0  0  0  0  0  0
  138.4030   72.2520  222.2860 N   0  0  0  0  0  0  0  0  0  0  0  0
  138.7770   74.9900  220.6190 C   0  0  0  0  0  0  0  0  0  0  0  0
  141.6050   74.8910  220.7580 C   0  0  0  0  0  0  0  0  0  0  0  0
  142.6910   74.0150  220.8450 C   0  0  0  0  0  0  0  0  0  0  0  0
  145.8670   73.8080  218.1940 H   0  0  0  0  0  0  0  0  0  0  0  0
  147.1980   74.1370  219.2830 H   0  0  0  0  0  0  0  0  0  0  0  0
  145.0422   75.8680  219.1885 H   0  0  0  0  0  0  0  0  0  0  0  0
  143.0886   77.3951  219.0526 H   0  0  0  0  0  0  0  0  0  0  0  0
  140.0756   77.1558  220.9720 H   0  0  0  0  0  0  0  0  0  0  0  0
  140.9459   78.0964  219.7569 H   0  0  0  0  0  0  0  0  0  0  0  0
  139.0061   77.3172  218.6625 H   0  0  0  0  0  0  0  0  0  0  0  0
  140.3895   76.1597  218.1771 H   0  0  0  0  0  0  0  0  0  0  0  0
  137.1933   76.0470  218.3472 H   0  0  0  0  0  0  0  0  0  0  0  0
  137.9644   74.6527  217.5775 H   0  0  0  0  0  0  0  0  0  0  0  0
  136.1440   74.7369  220.0063 H   0  0  0  0  0  0  0  0  0  0  0  0
  136.3632   73.4021  218.9227 H   0  0  0  0  0  0  0  0  0  0  0  0
  138.5988   72.8466  219.9625 H   0  0  0  0  0  0  0  0  0  0  0  0
  132.7650   71.8293  223.6065 H   0  0  0  0  0  0  0  0  0  0  0  0
  134.1222   70.6885  223.5511 H   0  0  0  0  0  0  0  0  0  0  0  0
  132.9124   70.5723  225.7571 H   0  0  0  0  0  0  0  0  0  0  0  0
  134.5833   71.1262  225.9951 H   0  0  0  0  0  0  0  0  0  0  0  0
  132.1000   71.6351  227.7175 H   0  0  0  0  0  0  0  0  0  0  0  0
  131.2052   73.7239  228.7105 H   0  0  0  0  0  0  0  0  0  0  0  0
  131.6879   75.9422  227.6785 H   0  0  0  0  0  0  0  0  0  0  0  0
  133.0878   76.0276  225.6245 H   0  0  0  0  0  0  0  0  0  0  0  0
  133.5955   74.4740  223.4976 H   0  0  0  0  0  0  0  0  0  0  0  0
  135.0737   74.6460  224.5179 H   0  0  0  0  0  0  0  0  0  0  0  0
  141.1844   70.5682  223.8182 H   0  0  0  0  0  0  0  0  0  0  0  0
  140.6280   72.2392  223.6363 H   0  0  0  0  0  0  0  0  0  0  0  0
  141.6992   71.8501  225.8875 H   0  0  0  0  0  0  0  0  0  0  0  0
  139.9847   72.2910  226.0717 H   0  0  0  0  0  0  0  0  0  0  0  0
  141.7878   70.7541  227.9651 H   0  0  0  0  0  0  0  0  0  0  0  0
  141.4185   68.5749  229.1538 H   0  0  0  0  0  0  0  0  0  0  0  0
  139.8830   66.8883  228.2147 H   0  0  0  0  0  0  0  0  0  0  0  0
  138.6645   67.2958  226.0765 H   0  0  0  0  0  0  0  0  0  0  0  0
  139.1549   68.7473  223.8342 H   0  0  0  0  0  0  0  0  0  0  0  0
  137.7551   69.4118  224.7769 H   0  0  0  0  0  0  0  0  0  0  0  0
  138.1895   75.7121  221.2050 H   0  0  0  0  0  0  0  0  0  0  0  0
  139.7086   74.8969  221.1965 H   0  0  0  0  0  0  0  0  0  0  0  0
  140.6363   74.6163  221.2009 H   0  0  0  0  0  0  0  0  0  0  0  0
  142.5755   73.0485  221.3574 H   0  0  0  0  0  0  0  0  0  0  0  0
  1  2  1  0
  2  3  2  0
  2  4  2  0
  2  5  1  0
  5  6  2  0
  6  7  1  0
  7  8  2  0
  8  9  1  0
  9 10  1  0
 10 11  1  0
 11 12  1  0
 12 13  1  0
 13 14  1  0
 14 15  1  0
 15 16  2  0
 16 17  1  0
 17 18  1  0
 18 19  1  0
 19 20  1  0
 20 21  1  0
 21 22  2  0
 22 23  1  0
 23 24  2  0
 24 25  1  0
 25 26  2  0
 26 27  1  0
 17 28  2  0
 28 29  1  0
 29 30  1  0
 30 31  1  0
 31 32  1  0
 32 33  1  0
 33 34  2  0
 34 35  1  0
 35 36  2  0
 36 37  1  0
 37 38  2  0
 38 39  1  0
 29 40  2  0
 14 41  1  0
  8 42  1  0
 42 43  2  0
 43  5  1  0
 41 11  1  0
 40 15  1  0
 27 18  1  0
 39 30  1  0
 26 21  1  0
 38 33  1  0
  1 44  1  0
  1 45  1  0
  6 46  1  0
  7 47  1  0
  9 48  1  0
  9 49  1  0
 10 50  1  0
 10 51  1  0
 12 52  1  0
 12 53  1  0
 13 54  1  0
 13 55  1  0
 14 56  1  6
 19 57  1  0
 19 58  1  0
 20 59  1  0
 20 60  1  0
 22 61  1  0
 23 62  1  0
 24 63  1  0
 25 64  1  0
 27 65  1  0
 27 66  1  0
 31 67  1  0
 31 68  1  0
 32 69  1  0
 32 70  1  0
 34 71  1  0
 35 72  1  0
 36 73  1  0
 37 74  1  0
 39 75  1  0
 39 76  1  0
 41 77  1  0
 41 78  1  0
 42 79  1  0
 43 80  1  0
M  END
>  <smiles>  (22) 
NS(=O)(=O)c1ccc(CCN2CCC(c3nc(N4CCc5ccccc5C4)nc(N4CCc5ccccc5C4)n3)C2)cc1

>  <score_type>  (22) 
oracle

>  <origin>  (22) 
autodockgpu

>  <m_score__min__energy>  (22) 
-11.56

>  <m_primary>  (22) 
energy

>  <rmsd>  (22) 
5.986091309963951

>  <m_score__min__rmsd>  (22) 
5.986091309963951

>  <meeko>  (22) 
{"free_energy": -10.42, "intermolecular_energy": -12.81, "internal_energy": -1.38, "cluster_size": 1, "cluster_id": 5, "rank_in_cluster": 1}

>  <energy>  (22) 
-10.75

>  <cluster_rmsd>  (22) 
1.17

>  <cluster>  (22) 
2

$$$$

     RDKit          3D

 80 86  0  0  1  0  0  0  0  0999 V2000
  133.5730   67.4010  226.4610 N   0  0  0  0  0  0  0  0  0  0  0  0
  133.9840   68.7040  225.4040 S   0  0  0  0  0  0  0  0  0  0  0  0
  133.4270   68.3600  224.0460 O   0  0  0  0  0  0  0  0  0  0  0  0
  135.4630   68.7540  225.2710 O   0  0  0  0  0  0  0  0  0  0  0  0
  133.2880   70.2240  225.9110 C   0  0  0  0  0  0  0  0  0  0  0  0
  133.9110   70.9050  226.9510 C   0  0  0  0  0  0  0  0  0  0  0  0
  133.3590   72.1140  227.3600 C   0  0  0  0  0  0  0  0  0  0  0  0
  132.2330   72.6530  226.7820 C   0  0  0  0  0  0  0  0  0  0  0  0
  131.6790   73.9650  227.2860 C   0  0  0  0  0  0  0  0  0  0  0  0
  132.8350   74.9170  227.2580 C   0  0  0  0  0  0  0  0  0  0  0  0
  133.3420   75.3130  226.0250 N   0  0  0  0  0  0  0  0  0  0  0  0
  132.4960   75.4160  224.8980 C   0  0  0  0  0  0  0  0  0  0  0  0
  133.4240   75.3490  223.6690 C   0  0  0  0  0  0  0  0  0  0  0  0
  134.7490   75.7110  224.3110 C   0  0  2  0  0  0  0  0  0  0  0  0
  135.9260   75.3820  223.5200 C   0  0  0  0  0  0  0  0  0  0  0  0
  136.2730   74.1620  223.0770 N   0  0  0  0  0  0  0  0  0  0  0  0
  137.3890   73.9530  222.3460 C   0  0  0  0  0  0  0  0  0  0  0  0
  137.7610   72.6660  221.8740 N   0  0  0  0  0  0  0  0  0  0  0  0
  139.1240   72.3130  221.5250 C   0  0  0  0  0  0  0  0  0  0  0  0
  139.5790   71.2920  222.5540 C   0  0  0  0  0  0  0  0  0  0  0  0
  138.6350   70.1440  222.4640 C   0  0  0  0  0  0  0  0  0  0  0  0
  139.1130   68.8870  222.7810 C   0  0  0  0  0  0  0  0  0  0  0  0
  138.2600   67.7940  222.7090 C   0  0  0  0  0  0  0  0  0  0  0  0
  136.9300   67.9350  222.3270 C   0  0  0  0  0  0  0  0  0  0  0  0
  136.4740   69.1970  222.0160 C   0  0  0  0  0  0  0  0  0  0  0  0
  137.3160   70.2900  222.0830 C   0  0  0  0  0  0  0  0  0  0  0  0
  136.7510   71.6340  221.7290 C   0  0  0  0  0  0  0  0  0  0  0  0
  138.1790   75.0110  222.0560 N   0  0  0  0  0  0  0  0  0  0  0  0
  137.8770   76.2570  222.4760 C   0  0  0  0  0  0  0  0  0  0  0  0
  138.6830   77.3920  222.1940 N   0  0  0  0  0  0  0  0  0  0  0  0
  138.0600   78.6840  221.8650 C   0  0  0  0  0  0  0  0  0  0  0  0
  138.3700   79.6030  223.0310 C   0  0  0  0  0  0  0  0  0  0  0  0
  139.8490   79.6620  223.1640 C   0  0  0  0  0  0  0  0  0  0  0  0
  140.3680   80.8430  223.7040 C   0  0  0  0  0  0  0  0  0  0  0  0
  141.7530   80.9360  223.8440 C   0  0  0  0  0  0  0  0  0  0  0  0
  142.5720   79.8860  223.4570 C   0  0  0  0  0  0  0  0  0  0  0  0
  142.0590   78.7150  222.9210 C   0  0  0  0  0  0  0  0  0  0  0  0
  140.6850   78.6310  222.7860 C   0  0  0  0  0  0  0  0  0  0  0  0
  140.1270   77.3770  222.2120 C   0  0  0  0  0  0  0  0  0  0  0  0
  136.7660   76.4090  223.1920 N   0  0  0  0  0  0  0  0  0  0  0  0
  134.6330   74.8890  225.6110 C   0  0  0  0  0  0  0  0  0  0  0  0
  131.6150   71.9700  225.7460 C   0  0  0  0  0  0  0  0  0  0  0  0
  132.1440   70.7520  225.3090 C   0  0  0  0  0  0  0  0  0  0  0  0
  134.3140   67.2530  227.1610 H   0  0  0  0  0  0  0  0  0  0  0  0
  132.6080   67.5270  226.8740 H   0  0  0  0  0  0  0  0  0  0  0  0
  134.8121   70.5001  227.4349 H   0  0  0  0  0  0  0  0  0  0  0  0
  133.8435   72.6629  228.1809 H   0  0  0  0  0  0  0  0  0  0  0  0
  130.8711   74.3201  226.6294 H   0  0  0  0  0  0  0  0  0  0  0  0
  131.2498   73.8695  228.2943 H   0  0  0  0  0  0  0  0  0  0  0  0
  132.5173   75.8284  227.7857 H   0  0  0  0  0  0  0  0  0  0  0  0
  133.6591   74.3515  227.7175 H   0  0  0  0  0  0  0  0  0  0  0  0
  131.7773   74.5835  224.8812 H   0  0  0  0  0  0  0  0  0  0  0  0
  131.9118   76.3479  224.9140 H   0  0  0  0  0  0  0  0  0  0  0  0
  133.4463   74.3406  223.2302 H   0  0  0  0  0  0  0  0  0  0  0  0
  133.1261   75.9961  222.8309 H   0  0  0  0  0  0  0  0  0  0  0  0
  134.9013   76.7921  224.4453 H   0  0  0  0  0  0  0  0  0  0  0  0
  139.1576   71.8770  220.5157 H   0  0  0  0  0  0  0  0  0  0  0  0
  139.7777   73.1977  221.5247 H   0  0  0  0  0  0  0  0  0  0  0  0
  140.6033   70.9590  222.3304 H   0  0  0  0  0  0  0  0  0  0  0  0
  139.5815   71.7239  223.5657 H   0  0  0  0  0  0  0  0  0  0  0  0
  140.1608   68.7534  223.0879 H   0  0  0  0  0  0  0  0  0  0  0  0
  138.6445   66.7943  222.9596 H   0  0  0  0  0  0  0  0  0  0  0  0
  136.2612   67.0632  222.2747 H   0  0  0  0  0  0  0  0  0  0  0  0
  135.4265   69.3361  221.7106 H   0  0  0  0  0  0  0  0  0  0  0  0
  136.3998   71.6156  220.6867 H   0  0  0  0  0  0  0  0  0  0  0  0
  135.9149   71.8576  222.4079 H   0  0  0  0  0  0  0  0  0  0  0  0
  138.4860   79.0886  220.9350 H   0  0  0  0  0  0  0  0  0  0  0  0
  136.9761   78.5817  221.7081 H   0  0  0  0  0  0  0  0  0  0  0  0
  137.9689   80.6084  222.8352 H   0  0  0  0  0  0  0  0  0  0  0  0
  137.9097   79.2274  223.9568 H   0  0  0  0  0  0  0  0  0  0  0  0
  139.7079   81.6690  224.0075 H   0  0  0  0  0  0  0  0  0  0  0  0
  142.1988   81.8494  224.2647 H   0  0  0  0  0  0  0  0  0  0  0  0
  143.6607   79.9852  223.5789 H   0  0  0  0  0  0  0  0  0  0  0  0
  142.7167   77.8877  222.6160 H   0  0  0  0  0  0  0  0  0  0  0  0
  140.4948   77.2624  221.1817 H   0  0  0  0  0  0  0  0  0  0  0  0
  140.4526   76.5372  222.8435 H   0  0  0  0  0  0  0  0  0  0  0  0
  134.6703   73.8064  225.4196 H   0  0  0  0  0  0  0  0  0  0  0  0
  135.4397   75.0431  226.3427 H   0  0  0  0  0  0  0  0  0  0  0  0
  130.7136   72.3840  225.2705 H   0  0  0  0  0  0  0  0  0  0  0  0
  131.6568   70.2070  224.4871 H   0  0  0  0  0  0  0  0  0  0  0  0
  1  2  1  0
  2  3  2  0
  2  4  2  0
  2  5  1  0
  5  6  2  0
  6  7  1  0
  7  8  2  0
  8  9  1  0
  9 10  1  0
 10 11  1  0
 11 12  1  0
 12 13  1  0
 13 14  1  0
 14 15  1  0
 15 16  2  0
 16 17  1  0
 17 18  1  0
 18 19  1  0
 19 20  1  0
 20 21  1  0
 21 22  2  0
 22 23  1  0
 23 24  2  0
 24 25  1  0
 25 26  2  0
 26 27  1  0
 17 28  2  0
 28 29  1  0
 29 30  1  0
 30 31  1  0
 31 32  1  0
 32 33  1  0
 33 34  2  0
 34 35  1  0
 35 36  2  0
 36 37  1  0
 37 38  2  0
 38 39  1  0
 29 40  2  0
 14 41  1  0
  8 42  1  0
 42 43  2  0
 43  5  1  0
 41 11  1  0
 40 15  1  0
 27 18  1  0
 39 30  1  0
 26 21  1  0
 38 33  1  0
  1 44  1  0
  1 45  1  0
  6 46  1  0
  7 47  1  0
  9 48  1  0
  9 49  1  0
 10 50  1  0
 10 51  1  0
 12 52  1  0
 12 53  1  0
 13 54  1  0
 13 55  1  0
 14 56  1  1
 19 57  1  0
 19 58  1  0
 20 59  1  0
 20 60  1  0
 22 61  1  0
 23 62  1  0
 24 63  1  0
 25 64  1  0
 27 65  1  0
 27 66  1  0
 31 67  1  0
 31 68  1  0
 32 69  1  0
 32 70  1  0
 34 71  1  0
 35 72  1  0
 36 73  1  0
 37 74  1  0
 39 75  1  0
 39 76  1  0
 41 77  1  0
 41 78  1  0
 42 79  1  0
 43 80  1  0
M  END
>  <smiles>  (23) 
NS(=O)(=O)c1ccc(CCN2CCC(c3nc(N4CCc5ccccc5C4)nc(N4CCc5ccccc5C4)n3)C2)cc1

>  <score_type>  (23) 
oracle

>  <origin>  (23) 
autodockgpu

>  <m_score__min__energy>  (23) 
-11.56

>  <m_primary>  (23) 
energy

>  <rmsd>  (23) 
11.434272952249113

>  <m_score__min__rmsd>  (23) 
11.434272952249113

>  <meeko>  (23) 
{"free_energy": -8.65, "intermolecular_energy": -11.04, "internal_energy": -2.31, "cluster_size": 2, "cluster_id": 14, "rank_in_cluster": 2}

>  <energy>  (23) 
-10.7

>  <cluster_rmsd>  (23) 
0.89

>  <cluster>  (23) 
2

$$$$

     RDKit          3D

 80 86  0  0  1  0  0  0  0  0999 V2000
  135.9190   81.4320  227.4500 N   0  0  0  0  0  0  0  0  0  0  0  0
  135.3980   81.2780  225.8100 S   0  0  0  0  0  0  0  0  0  0  0  0
  134.7670   82.5920  225.4250 O   0  0  0  0  0  0  0  0  0  0  0  0
  134.3320   80.2460  225.7490 O   0  0  0  0  0  0  0  0  0  0  0  0
  136.7210   80.9660  224.7120 C   0  0  0  0  0  0  0  0  0  0  0  0
  136.4070   80.5250  223.4300 C   0  0  0  0  0  0  0  0  0  0  0  0
  137.4560   80.2720  222.5540 C   0  0  0  0  0  0  0  0  0  0  0  0
  138.7770   80.4390  222.9040 C   0  0  0  0  0  0  0  0  0  0  0  0
  139.8680   80.1320  221.9040 C   0  0  0  0  0  0  0  0  0  0  0  0
  140.5350   78.8930  222.4170 C   0  0  0  0  0  0  0  0  0  0  0  0
  140.1810   77.6680  221.8620 N   0  0  0  0  0  0  0  0  0  0  0  0
  138.8520   77.4190  221.4530 C   0  0  0  0  0  0  0  0  0  0  0  0
  138.7090   75.8850  221.3990 C   0  0  0  0  0  0  0  0  0  0  0  0
  140.1680   75.4810  221.3200 C   0  0  2  0  0  0  0  0  0  0  0  0
  140.4370   74.0840  221.6320 C   0  0  0  0  0  0  0  0  0  0  0  0
  139.9740   73.4020  222.6930 N   0  0  0  0  0  0  0  0  0  0  0  0
  140.2790   72.1020  222.9000 C   0  0  0  0  0  0  0  0  0  0  0  0
  139.7920   71.3750  224.0180 N   0  0  0  0  0  0  0  0  0  0  0  0
  138.6750   70.4530  223.9380 C   0  0  0  0  0  0  0  0  0  0  0  0
  139.2470   69.0650  224.1770 C   0  0  0  0  0  0  0  0  0  0  0  0
  139.8890   69.0930  225.5200 C   0  0  0  0  0  0  0  0  0  0  0  0
  139.9280   67.9160  226.2430 C   0  0  0  0  0  0  0  0  0  0  0  0
  140.5200   67.9050  227.4970 C   0  0  0  0  0  0  0  0  0  0  0  0
  141.0800   69.0540  228.0470 C   0  0  0  0  0  0  0  0  0  0  0  0
  141.0320   70.2160  227.3090 C   0  0  0  0  0  0  0  0  0  0  0  0
  140.4430   70.2360  226.0590 C   0  0  0  0  0  0  0  0  0  0  0  0
  140.4250   71.5390  225.3130 C   0  0  0  0  0  0  0  0  0  0  0  0
  141.0770   71.4760  222.0060 N   0  0  0  0  0  0  0  0  0  0  0  0
  141.5690   72.1140  220.9250 C   0  0  0  0  0  0  0  0  0  0  0  0
  142.4130   71.4910  219.9670 N   0  0  0  0  0  0  0  0  0  0  0  0
  143.3690   72.2910  219.1860 C   0  0  0  0  0  0  0  0  0  0  0  0
  144.7470   71.8740  219.6640 C   0  0  0  0  0  0  0  0  0  0  0  0
  144.8640   70.4090  219.4450 C   0  0  0  0  0  0  0  0  0  0  0  0
  146.1570   69.9250  219.2210 C   0  0  0  0  0  0  0  0  0  0  0  0
  146.3080   68.5550  219.0110 C   0  0  0  0  0  0  0  0  0  0  0  0
  145.2040   67.7140  219.0260 C   0  0  0  0  0  0  0  0  0  0  0  0
  143.9210   68.1930  219.2470 C   0  0  0  0  0  0  0  0  0  0  0  0
  143.7820   69.5530  219.4540 C   0  0  0  0  0  0  0  0  0  0  0  0
  142.4090   70.0730  219.6930 C   0  0  0  0  0  0  0  0  0  0  0  0
  141.2380   73.3940  220.7660 N   0  0  0  0  0  0  0  0  0  0  0  0
  140.7600   76.4650  222.3490 C   0  0  0  0  0  0  0  0  0  0  0  0
  139.0850   80.8780  224.1820 C   0  0  0  0  0  0  0  0  0  0  0  0
  138.0540   81.1430  225.0890 C   0  0  0  0  0  0  0  0  0  0  0  0
  135.8670   80.5250  227.9340 H   0  0  0  0  0  0  0  0  0  0  0  0
  136.8640   81.9010  227.5130 H   0  0  0  0  0  0  0  0  0  0  0  0
  135.3615   80.3812  223.1197 H   0  0  0  0  0  0  0  0  0  0  0  0
  137.2207   79.9234  221.5376 H   0  0  0  0  0  0  0  0  0  0  0  0
  139.4384   79.9540  220.9071 H   0  0  0  0  0  0  0  0  0  0  0  0
  140.5766   80.9669  221.8000 H   0  0  0  0  0  0  0  0  0  0  0  0
  141.6167   79.0190  222.2615 H   0  0  0  0  0  0  0  0  0  0  0  0
  140.1995   78.8209  223.4621 H   0  0  0  0  0  0  0  0  0  0  0  0
  138.1422   77.8445  222.1777 H   0  0  0  0  0  0  0  0  0  0  0  0
  138.6355   77.8801  220.4781 H   0  0  0  0  0  0  0  0  0  0  0  0
  138.2252   75.4890  222.3041 H   0  0  0  0  0  0  0  0  0  0  0  0
  138.0815   75.5092  220.5774 H   0  0  0  0  0  0  0  0  0  0  0  0
  140.5949   75.5401  220.3079 H   0  0  0  0  0  0  0  0  0  0  0  0
  137.9268   70.6940  224.7075 H   0  0  0  0  0  0  0  0  0  0  0  0
  138.1752   70.5156  222.9601 H   0  0  0  0  0  0  0  0  0  0  0  0
  138.4428   68.3148  224.1567 H   0  0  0  0  0  0  0  0  0  0  0  0
  139.9738   68.7964  223.3962 H   0  0  0  0  0  0  0  0  0  0  0  0
  139.4929   66.9952  225.8272 H   0  0  0  0  0  0  0  0  0  0  0  0
  140.5475   66.9665  228.0700 H   0  0  0  0  0  0  0  0  0  0  0  0
  141.5476   69.0349  229.0425 H   0  0  0  0  0  0  0  0  0  0  0  0
  141.4676   71.1389  227.7194 H   0  0  0  0  0  0  0  0  0  0  0  0
  139.8647   72.2832  225.8980 H   0  0  0  0  0  0  0  0  0  0  0  0
  141.4610   71.8766  225.1621 H   0  0  0  0  0  0  0  0  0  0  0  0
  143.2565   72.0808  218.1121 H   0  0  0  0  0  0  0  0  0  0  0  0
  143.2021   73.3693  219.3251 H   0  0  0  0  0  0  0  0  0  0  0  0
  145.5213   72.4038  219.0898 H   0  0  0  0  0  0  0  0  0  0  0  0
  144.8828   72.1217  220.7271 H   0  0  0  0  0  0  0  0  0  0  0  0
  147.0243   70.6015  219.2108 H   0  0  0  0  0  0  0  0  0  0  0  0
  147.3098   68.1374  218.8321 H   0  0  0  0  0  0  0  0  0  0  0  0
  145.3506   66.6369  218.8578 H   0  0  0  0  0  0  0  0  0  0  0  0
  143.0513   67.5196  219.2571 H   0  0  0  0  0  0  0  0  0  0  0  0
  141.7963   69.8848  218.7990 H   0  0  0  0  0  0  0  0  0  0  0  0
  141.9956   69.5560  220.5715 H   0  0  0  0  0  0  0  0  0  0  0  0
  140.4342   76.2356  223.3743 H   0  0  0  0  0  0  0  0  0  0  0  0
  141.8572   76.4652  222.4276 H   0  0  0  0  0  0  0  0  0  0  0  0
  140.1343   81.0172  224.4812 H   0  0  0  0  0  0  0  0  0  0  0  0
  138.2941   81.4924  226.1040 H   0  0  0  0  0  0  0  0  0  0  0  0
  1  2  1  0
  2  3  2  0
  2  4  2  0
  2  5  1  0
  5  6  2  0
  6  7  1  0
  7  8  2  0
  8  9  1  0
  9 10  1  0
 10 11  1  0
 11 12  1  0
 12 13  1  0
 13 14  1  0
 14 15  1  0
 15 16  2  0
 16 17  1  0
 17 18  1  0
 18 19  1  0
 19 20  1  0
 20 21  1  0
 21 22  2  0
 22 23  1  0
 23 24  2  0
 24 25  1  0
 25 26  2  0
 26 27  1  0
 17 28  2  0
 28 29  1  0
 29 30  1  0
 30 31  1  0
 31 32  1  0
 32 33  1  0
 33 34  2  0
 34 35  1  0
 35 36  2  0
 36 37  1  0
 37 38  2  0
 38 39  1  0
 29 40  2  0
 14 41  1  0
  8 42  1  0
 42 43  2  0
 43  5  1  0
 41 11  1  0
 40 15  1  0
 27 18  1  0
 39 30  1  0
 26 21  1  0
 38 33  1  0
  1 44  1  0
  1 45  1  0
  6 46  1  0
  7 47  1  0
  9 48  1  0
  9 49  1  0
 10 50  1  0
 10 51  1  0
 12 52  1  0
 12 53  1  0
 13 54  1  0
 13 55  1  0
 14 56  1  6
 19 57  1  0
 19 58  1  0
 20 59  1  0
 20 60  1  0
 22 61  1  0
 23 62  1  0
 24 63  1  0
 25 64  1  0
 27 65  1  0
 27 66  1  0
 31 67  1  0
 31 68  1  0
 32 69  1  0
 32 70  1  0
 34 71  1  0
 35 72  1  0
 36 73  1  0
 37 74  1  0
 39 75  1  0
 39 76  1  0
 41 77  1  0
 41 78  1  0
 42 79  1  0
 43 80  1  0
M  END
>  <smiles>  (24) 
NS(=O)(=O)c1ccc(CCN2CCC(c3nc(N4CCc5ccccc5C4)nc(N4CCc5ccccc5C4)n3)C2)cc1

>  <score_type>  (24) 
oracle

>  <origin>  (24) 
autodockgpu

>  <m_score__min__energy>  (24) 
-11.56

>  <m_primary>  (24) 
energy

>  <rmsd>  (24) 
3.833373757940249

>  <m_score__min__rmsd>  (24) 
3.833373757940249

>  <meeko>  (24) 
{"free_energy": -10.7, "intermolecular_energy": -13.08, "internal_energy": -1.47, "cluster_size": 14, "cluster_id": 2, "rank_in_cluster": 11}

>  <energy>  (24) 
-10.7

>  <cluster_rmsd>  (24) 
0.64

>  <cluster>  (24) 
2

$$$$

     RDKit          3D

 80 86  0  0  1  0  0  0  0  0999 V2000
  147.2910   74.6660  216.3490 N   0  0  0  0  0  0  0  0  0  0  0  0
  147.4230   73.3090  215.2880 S   0  0  0  0  0  0  0  0  0  0  0  0
  148.7690   72.6800  215.5450 O   0  0  0  0  0  0  0  0  0  0  0  0
  147.4310   73.8050  213.8870 O   0  0  0  0  0  0  0  0  0  0  0  0
  146.1930   72.1040  215.5830 C   0  0  0  0  0  0  0  0  0  0  0  0
  144.9460   72.5460  216.0160 C   0  0  0  0  0  0  0  0  0  0  0  0
  143.9650   71.5910  216.2550 C   0  0  0  0  0  0  0  0  0  0  0  0
  144.1790   70.2420  216.0830 C   0  0  0  0  0  0  0  0  0  0  0  0
  143.0700   69.2580  216.3750 C   0  0  0  0  0  0  0  0  0  0  0  0
  143.1250   69.0310  217.8540 C   0  0  0  0  0  0  0  0  0  0  0  0
  143.2100   70.1350  218.6950 N   0  0  0  0  0  0  0  0  0  0  0  0
  144.3040   70.2860  219.5770 C   0  0  0  0  0  0  0  0  0  0  0  0
  143.8310   71.2650  220.6700 C   0  0  0  0  0  0  0  0  0  0  0  0
  142.6620   71.9190  219.9580 C   0  0  2  0  0  0  0  0  0  0  0  0
  141.7380   72.6360  220.8250 C   0  0  0  0  0  0  0  0  0  0  0  0
  141.3920   73.9310  220.7230 N   0  0  0  0  0  0  0  0  0  0  0  0
  140.5230   74.5120  221.5780 C   0  0  0  0  0  0  0  0  0  0  0  0
  140.1520   75.8790  221.4740 N   0  0  0  0  0  0  0  0  0  0  0  0
  138.7720   76.3240  221.4230 C   0  0  0  0  0  0  0  0  0  0  0  0
  138.5180   77.0820  222.7150 C   0  0  0  0  0  0  0  0  0  0  0  0
  139.4940   78.2050  222.7500 C   0  0  0  0  0  0  0  0  0  0  0  0
  139.1280   79.3610  223.4150 C   0  0  0  0  0  0  0  0  0  0  0  0
  140.0150   80.4260  223.4690 C   0  0  0  0  0  0  0  0  0  0  0  0
  141.2690   80.3600  222.8710 C   0  0  0  0  0  0  0  0  0  0  0  0
  141.6140   79.1990  222.2150 C   0  0  0  0  0  0  0  0  0  0  0  0
  140.7380   78.1330  222.1540 C   0  0  0  0  0  0  0  0  0  0  0  0
  141.1800   76.9010  221.4210 C   0  0  0  0  0  0  0  0  0  0  0  0
  139.9900   73.7610  222.5670 N   0  0  0  0  0  0  0  0  0  0  0  0
  140.3030   72.4570  222.7140 C   0  0  0  0  0  0  0  0  0  0  0  0
  139.7660   71.6370  223.7420 N   0  0  0  0  0  0  0  0  0  0  0  0
  138.5500   70.8430  223.5020 C   0  0  0  0  0  0  0  0  0  0  0  0
  138.9930   69.3920  223.5140 C   0  0  0  0  0  0  0  0  0  0  0  0
  139.6310   69.1370  224.8320 C   0  0  0  0  0  0  0  0  0  0  0  0
  139.5520   67.8240  225.3070 C   0  0  0  0  0  0  0  0  0  0  0  0
  140.1380   67.5460  226.5410 C   0  0  0  0  0  0  0  0  0  0  0  0
  140.7730   68.5470  227.2610 C   0  0  0  0  0  0  0  0  0  0  0  0
  140.8510   69.8500  226.7920 C   0  0  0  0  0  0  0  0  0  0  0  0
  140.2670   70.1160  225.5670 C   0  0  0  0  0  0  0  0  0  0  0  0
  140.3480   71.5120  225.0580 C   0  0  0  0  0  0  0  0  0  0  0  0
  141.1630   71.9320  221.8450 N   0  0  0  0  0  0  0  0  0  0  0  0
  142.0400   70.6720  219.2960 C   0  0  0  0  0  0  0  0  0  0  0  0
  145.4220   69.8070  215.6520 C   0  0  0  0  0  0  0  0  0  0  0  0
  146.4330   70.7410  215.4010 C   0  0  0  0  0  0  0  0  0  0  0  0
  147.4470   75.5450  215.8350 H   0  0  0  0  0  0  0  0  0  0  0  0
  146.3880   74.6410  216.8980 H   0  0  0  0  0  0  0  0  0  0  0  0
  144.7435   73.6170  216.1643 H   0  0  0  0  0  0  0  0  0  0  0  0
  142.9749   71.9275  216.5963 H   0  0  0  0  0  0  0  0  0  0  0  0
  142.0955   69.6781  216.0853 H   0  0  0  0  0  0  0  0  0  0  0  0
  143.1924   68.3217  215.8108 H   0  0  0  0  0  0  0  0  0  0  0  0
  142.2134   68.4816  218.1316 H   0  0  0  0  0  0  0  0  0  0  0  0
  144.0774   68.5028  218.0086 H   0  0  0  0  0  0  0  0  0  0  0  0
  144.5740   69.3168  220.0217 H   0  0  0  0  0  0  0  0  0  0  0  0
  145.1958   70.6627  219.0547 H   0  0  0  0  0  0  0  0  0  0  0  0
  143.5097   70.7359  221.5793 H   0  0  0  0  0  0  0  0  0  0  0  0
  144.6017   71.9632  221.0285 H   0  0  0  0  0  0  0  0  0  0  0  0
  142.9512   72.7272  219.2701 H   0  0  0  0  0  0  0  0  0  0  0  0
  138.6171   76.9848  220.5574 H   0  0  0  0  0  0  0  0  0  0  0  0
  138.0823   75.4736  221.3173 H   0  0  0  0  0  0  0  0  0  0  0  0
  137.4898   77.4726  222.7297 H   0  0  0  0  0  0  0  0  0  0  0  0
  138.6381   76.4255  223.5894 H   0  0  0  0  0  0  0  0  0  0  0  0
  138.1420   79.4352  223.8969 H   0  0  0  0  0  0  0  0  0  0  0  0
  139.7197   81.3445  223.9973 H   0  0  0  0  0  0  0  0  0  0  0  0
  141.9651   81.2103  222.9205 H   0  0  0  0  0  0  0  0  0  0  0  0
  142.5999   79.1198  221.7335 H   0  0  0  0  0  0  0  0  0  0  0  0
  141.3806   77.1579  220.3704 H   0  0  0  0  0  0  0  0  0  0  0  0
  142.0915   76.5122  221.8984 H   0  0  0  0  0  0  0  0  0  0  0  0
  137.8114   71.0243  224.2967 H   0  0  0  0  0  0  0  0  0  0  0  0
  138.0731   71.1122  222.5480 H   0  0  0  0  0  0  0  0  0  0  0  0
  138.1232   68.7315  223.3825 H   0  0  0  0  0  0  0  0  0  0  0  0
  139.6987   69.1929  222.6940 H   0  0  0  0  0  0  0  0  0  0  0  0
  139.0453   67.0383  224.7274 H   0  0  0  0  0  0  0  0  0  0  0  0
  140.0964   66.5245  226.9469 H   0  0  0  0  0  0  0  0  0  0  0  0
  141.2278   68.3005  228.2318 H   0  0  0  0  0  0  0  0  0  0  0  0
  141.3559   70.6382  227.3698 H   0  0  0  0  0  0  0  0  0  0  0  0
  139.8090   72.1754  225.7503 H   0  0  0  0  0  0  0  0  0  0  0  0
  141.4100   71.7905  224.9904 H   0  0  0  0  0  0  0  0  0  0  0  0
  141.6041   69.9855  220.0367 H   0  0  0  0  0  0  0  0  0  0  0  0
  141.2022   70.8675  218.6105 H   0  0  0  0  0  0  0  0  0  0  0  0
  145.6128   68.7333  215.5080 H   0  0  0  0  0  0  0  0  0  0  0  0
  147.4212   70.3998  215.0588 H   0  0  0  0  0  0  0  0  0  0  0  0
  1  2  1  0
  2  3  2  0
  2  4  2  0
  2  5  1  0
  5  6  2  0
  6  7  1  0
  7  8  2  0
  8  9  1  0
  9 10  1  0
 10 11  1  0
 11 12  1  0
 12 13  1  0
 13 14  1  0
 14 15  1  0
 15 16  2  0
 16 17  1  0
 17 18  1  0
 18 19  1  0
 19 20  1  0
 20 21  1  0
 21 22  2  0
 22 23  1  0
 23 24  2  0
 24 25  1  0
 25 26  2  0
 26 27  1  0
 17 28  2  0
 28 29  1  0
 29 30  1  0
 30 31  1  0
 31 32  1  0
 32 33  1  0
 33 34  2  0
 34 35  1  0
 35 36  2  0
 36 37  1  0
 37 38  2  0
 38 39  1  0
 29 40  2  0
 14 41  1  0
  8 42  1  0
 42 43  2  0
 43  5  1  0
 41 11  1  0
 40 15  1  0
 27 18  1  0
 39 30  1  0
 26 21  1  0
 38 33  1  0
  1 44  1  0
  1 45  1  0
  6 46  1  0
  7 47  1  0
  9 48  1  0
  9 49  1  0
 10 50  1  0
 10 51  1  0
 12 52  1  0
 12 53  1  0
 13 54  1  0
 13 55  1  0
 14 56  1  6
 19 57  1  0
 19 58  1  0
 20 59  1  0
 20 60  1  0
 22 61  1  0
 23 62  1  0
 24 63  1  0
 25 64  1  0
 27 65  1  0
 27 66  1  0
 31 67  1  0
 31 68  1  0
 32 69  1  0
 32 70  1  0
 34 71  1  0
 35 72  1  0
 36 73  1  0
 37 74  1  0
 39 75  1  0
 39 76  1  0
 41 77  1  0
 41 78  1  0
 42 79  1  0
 43 80  1  0
M  END
>  <smiles>  (25) 
NS(=O)(=O)c1ccc(CCN2CCC(c3nc(N4CCc5ccccc5C4)nc(N4CCc5ccccc5C4)n3)C2)cc1

>  <score_type>  (25) 
oracle

>  <origin>  (25) 
autodockgpu

>  <m_score__min__energy>  (25) 
-11.56

>  <m_primary>  (25) 
energy

>  <rmsd>  (25) 
10.494823546333112

>  <m_score__min__rmsd>  (25) 
10.494823546333112

>  <meeko>  (25) 
{"free_energy": -9.27, "intermolecular_energy": -11.66, "internal_energy": -1.69, "cluster_size": 1, "cluster_id": 12, "rank_in_cluster": 1}

>  <energy>  (25) 
-10.22

>  <cluster_rmsd>  (25) 
1.18

>  <cluster>  (25) 
2

$$$$

     RDKit          3D

 80 86  0  0  1  0  0  0  0  0999 V2000
  144.5530   83.1540  214.4030 N   0  0  0  0  0  0  0  0  0  0  0  0
  143.0170   83.1420  215.1930 S   0  0  0  0  0  0  0  0  0  0  0  0
  141.9670   83.1800  214.1120 O   0  0  0  0  0  0  0  0  0  0  0  0
  142.8800   84.3940  215.9800 O   0  0  0  0  0  0  0  0  0  0  0  0
  142.7650   81.6990  216.1470 C   0  0  0  0  0  0  0  0  0  0  0  0
  142.1750   80.6050  215.5210 C   0  0  0  0  0  0  0  0  0  0  0  0
  141.9700   79.4570  216.2760 C   0  0  0  0  0  0  0  0  0  0  0  0
  142.3220   79.3640  217.6040 C   0  0  0  0  0  0  0  0  0  0  0  0
  142.0570   78.0880  218.3680 C   0  0  0  0  0  0  0  0  0  0  0  0
  140.8460   78.3720  219.2020 C   0  0  0  0  0  0  0  0  0  0  0  0
  140.5140   77.4830  220.2190 N   0  0  0  0  0  0  0  0  0  0  0  0
  140.6000   77.8740  221.5740 C   0  0  0  0  0  0  0  0  0  0  0  0
  140.6830   76.5660  222.3840 C   0  0  0  0  0  0  0  0  0  0  0  0
  140.1310   75.5840  221.3690 C   0  0  2  0  0  0  0  0  0  0  0  0
  140.4090   74.1830  221.6540 C   0  0  0  0  0  0  0  0  0  0  0  0
  139.9450   73.4760  222.6980 N   0  0  0  0  0  0  0  0  0  0  0  0
  140.2580   72.1750  222.8800 C   0  0  0  0  0  0  0  0  0  0  0  0
  139.7700   71.4210  223.9800 N   0  0  0  0  0  0  0  0  0  0  0  0
  138.6360   70.5210  223.8840 C   0  0  0  0  0  0  0  0  0  0  0  0
  139.1850   69.1170  224.0720 C   0  0  0  0  0  0  0  0  0  0  0  0
  139.8420   69.0910  225.4080 C   0  0  0  0  0  0  0  0  0  0  0  0
  139.8670   67.8910  226.0930 C   0  0  0  0  0  0  0  0  0  0  0  0
  140.4720   67.8300  227.3400 C   0  0  0  0  0  0  0  0  0  0  0  0
  141.0590   68.9500  227.9190 C   0  0  0  0  0  0  0  0  0  0  0  0
  141.0230   70.1360  227.2190 C   0  0  0  0  0  0  0  0  0  0  0  0
  140.4220   70.2070  225.9770 C   0  0  0  0  0  0  0  0  0  0  0  0
  140.4200   71.5320  225.2730 C   0  0  0  0  0  0  0  0  0  0  0  0
  141.0670   71.5730  221.9790 N   0  0  0  0  0  0  0  0  0  0  0  0
  141.5600   72.2370  220.9140 C   0  0  0  0  0  0  0  0  0  0  0  0
  142.4150   71.6400  219.9490 N   0  0  0  0  0  0  0  0  0  0  0  0
  143.4010   72.4550  219.2230 C   0  0  0  0  0  0  0  0  0  0  0  0
  144.7610   71.9950  219.7130 C   0  0  0  0  0  0  0  0  0  0  0  0
  144.8590   70.5380  219.4350 C   0  0  0  0  0  0  0  0  0  0  0  0
  146.1480   70.0420  219.2180 C   0  0  0  0  0  0  0  0  0  0  0  0
  146.2810   68.6790  218.9530 C   0  0  0  0  0  0  0  0  0  0  0  0
  145.1630   67.8580  218.9090 C   0  0  0  0  0  0  0  0  0  0  0  0
  143.8840   68.3490  219.1230 C   0  0  0  0  0  0  0  0  0  0  0  0
  143.7620   69.7020  219.3850 C   0  0  0  0  0  0  0  0  0  0  0  0
  142.3930   70.2350  219.6160 C   0  0  0  0  0  0  0  0  0  0  0  0
  141.2200   73.5170  220.7800 N   0  0  0  0  0  0  0  0  0  0  0  0
  140.8400   76.1050  220.1020 C   0  0  0  0  0  0  0  0  0  0  0  0
  142.9080   80.4570  218.2230 C   0  0  0  0  0  0  0  0  0  0  0  0
  143.1310   81.6280  217.4930 C   0  0  0  0  0  0  0  0  0  0  0  0
  144.9840   82.2190  214.4330 H   0  0  0  0  0  0  0  0  0  0  0  0
  144.4860   83.5680  213.4330 H   0  0  0  0  0  0  0  0  0  0  0  0
  141.8804   80.6479  214.4621 H   0  0  0  0  0  0  0  0  0  0  0  0
  141.5065   78.5847  215.7921 H   0  0  0  0  0  0  0  0  0  0  0  0
  141.8611   77.2570  217.6744 H   0  0  0  0  0  0  0  0  0  0  0  0
  142.9191   77.7917  218.9837 H   0  0  0  0  0  0  0  0  0  0  0  0
  140.9974   79.3565  219.6687 H   0  0  0  0  0  0  0  0  0  0  0  0
  140.0083   78.2936  218.4934 H   0  0  0  0  0  0  0  0  0  0  0  0
  141.4995   78.4850  221.7400 H   0  0  0  0  0  0  0  0  0  0  0  0
  139.7347   78.4826  221.8754 H   0  0  0  0  0  0  0  0  0  0  0  0
  141.7195   76.3245  222.6621 H   0  0  0  0  0  0  0  0  0  0  0  0
  140.1482   76.5846  223.3451 H   0  0  0  0  0  0  0  0  0  0  0  0
  139.0323   75.5586  221.3217 H   0  0  0  0  0  0  0  0  0  0  0  0
  137.9009   70.7503  224.6695 H   0  0  0  0  0  0  0  0  0  0  0  0
  138.1269   70.6234  222.9143 H   0  0  0  0  0  0  0  0  0  0  0  0
  138.3672   68.3821  224.0371 H   0  0  0  0  0  0  0  0  0  0  0  0
  139.8982   68.8605  223.2748 H   0  0  0  0  0  0  0  0  0  0  0  0
  139.4110   66.9917  225.6532 H   0  0  0  0  0  0  0  0  0  0  0  0
  140.4878   66.8737  227.8833 H   0  0  0  0  0  0  0  0  0  0  0  0
  141.5382   68.8906  228.9074 H   0  0  0  0  0  0  0  0  0  0  0  0
  141.4784   71.0377  227.6543 H   0  0  0  0  0  0  0  0  0  0  0  0
  139.8799   72.2673  225.8875 H   0  0  0  0  0  0  0  0  0  0  0  0
  141.4604   71.8550  225.1210 H   0  0  0  0  0  0  0  0  0  0  0  0
  143.3092   72.2913  218.1391 H   0  0  0  0  0  0  0  0  0  0  0  0
  143.2486   73.5294  219.4032 H   0  0  0  0  0  0  0  0  0  0  0  0
  145.5565   72.5349  219.1785 H   0  0  0  0  0  0  0  0  0  0  0  0
  144.8770   72.1959  220.7883 H   0  0  0  0  0  0  0  0  0  0  0  0
  147.0263   70.7033  219.2549 H   0  0  0  0  0  0  0  0  0  0  0  0
  147.2794   68.2518  218.7776 H   0  0  0  0  0  0  0  0  0  0  0  0
  145.2953   66.7865  218.6982 H   0  0  0  0  0  0  0  0  0  0  0  0
  143.0036   67.6906  219.0860 H   0  0  0  0  0  0  0  0  0  0  0  0
  141.7971   70.0947  218.7021 H   0  0  0  0  0  0  0  0  0  0  0  0
  141.9514   69.6892  220.4628 H   0  0  0  0  0  0  0  0  0  0  0  0
  141.9260   75.9332  220.1363 H   0  0  0  0  0  0  0  0  0  0  0  0
  140.5393   75.6250  219.1591 H   0  0  0  0  0  0  0  0  0  0  0  0
  143.1961   80.4032  219.2832 H   0  0  0  0  0  0  0  0  0  0  0  0
  143.5966   82.4971  217.9806 H   0  0  0  0  0  0  0  0  0  0  0  0
  1  2  1  0
  2  3  2  0
  2  4  2  0
  2  5  1  0
  5  6  2  0
  6  7  1  0
  7  8  2  0
  8  9  1  0
  9 10  1  0
 10 11  1  0
 11 12  1  0
 12 13  1  0
 13 14  1  0
 14 15  1  0
 15 16  2  0
 16 17  1  0
 17 18  1  0
 18 19  1  0
 19 20  1  0
 20 21  1  0
 21 22  2  0
 22 23  1  0
 23 24  2  0
 24 25  1  0
 25 26  2  0
 26 27  1  0
 17 28  2  0
 28 29  1  0
 29 30  1  0
 30 31  1  0
 31 32  1  0
 32 33  1  0
 33 34  2  0
 34 35  1  0
 35 36  2  0
 36 37  1  0
 37 38  2  0
 38 39  1  0
 29 40  2  0
 14 41  1  0
  8 42  1  0
 42 43  2  0
 43  5  1  0
 41 11  1  0
 40 15  1  0
 27 18  1  0
 39 30  1  0
 26 21  1  0
 38 33  1  0
  1 44  1  0
  1 45  1  0
  6 46  1  0
  7 47  1  0
  9 48  1  0
  9 49  1  0
 10 50  1  0
 10 51  1  0
 12 52  1  0
 12 53  1  0
 13 54  1  0
 13 55  1  0
 14 56  1  6
 19 57  1  0
 19 58  1  0
 20 59  1  0
 20 60  1  0
 22 61  1  0
 23 62  1  0
 24 63  1  0
 25 64  1  0
 27 65  1  0
 27 66  1  0
 31 67  1  0
 31 68  1  0
 32 69  1  0
 32 70  1  0
 34 71  1  0
 35 72  1  0
 36 73  1  0
 37 74  1  0
 39 75  1  0
 39 76  1  0
 41 77  1  0
 41 78  1  0
 42 79  1  0
 43 80  1  0
M  END
>  <smiles>  (26) 
NS(=O)(=O)c1ccc(CCN2CCC(c3nc(N4CCc5ccccc5C4)nc(N4CCc5ccccc5C4)n3)C2)cc1

>  <score_type>  (26) 
oracle

>  <origin>  (26) 
autodockgpu

>  <m_score__min__energy>  (26) 
-11.56

>  <m_primary>  (26) 
energy

>  <rmsd>  (26) 
4.769727630373525

>  <m_score__min__rmsd>  (26) 
4.769727630373525

>  <meeko>  (26) 
{"free_energy": -9.73, "intermolecular_energy": -12.12, "internal_energy": -1.42, "cluster_size": 13, "cluster_id": 1, "rank_in_cluster": 13}

>  <energy>  (26) 
-9.92

>  <cluster_rmsd>  (26) 
1.34

>  <cluster>  (26) 
2

$$$$

     RDKit          3D

 80 86  0  0  1  0  0  0  0  0999 V2000
  142.7810   81.2570  216.2570 N   0  0  0  0  0  0  0  0  0  0  0  0
  142.1800   82.3730  217.4300 S   0  0  0  0  0  0  0  0  0  0  0  0
  140.8850   82.9230  216.8900 O   0  0  0  0  0  0  0  0  0  0  0  0
  143.1310   83.5100  217.5300 O   0  0  0  0  0  0  0  0  0  0  0  0
  141.8510   81.6160  218.9700 C   0  0  0  0  0  0  0  0  0  0  0  0
  142.1360   80.2600  219.0970 C   0  0  0  0  0  0  0  0  0  0  0  0
  141.8730   79.6520  220.3190 C   0  0  0  0  0  0  0  0  0  0  0  0
  141.3460   80.3330  221.3930 C   0  0  0  0  0  0  0  0  0  0  0  0
  141.0730   79.6050  222.6890 C   0  0  0  0  0  0  0  0  0  0  0  0
  139.9180   78.6970  222.3940 C   0  0  0  0  0  0  0  0  0  0  0  0
  140.1560   77.5270  221.6800 N   0  0  0  0  0  0  0  0  0  0  0  0
  139.5180   77.2970  220.4410 C   0  0  0  0  0  0  0  0  0  0  0  0
  139.5800   75.7740  220.2130 C   0  0  0  0  0  0  0  0  0  0  0  0
  140.7060   75.4050  221.1600 C   0  0  2  0  0  0  0  0  0  0  0  0
  140.7940   73.9890  221.4880 C   0  0  0  0  0  0  0  0  0  0  0  0
  140.2380   73.3820  222.5500 N   0  0  0  0  0  0  0  0  0  0  0  0
  140.3750   72.0570  222.7730 C   0  0  0  0  0  0  0  0  0  0  0  0
  139.7900   71.4080  223.8930 N   0  0  0  0  0  0  0  0  0  0  0  0
  138.6210   70.5540  223.7920 C   0  0  0  0  0  0  0  0  0  0  0  0
  139.0910   69.1450  224.1130 C   0  0  0  0  0  0  0  0  0  0  0  0
  139.6680   69.1890  225.4850 C   0  0  0  0  0  0  0  0  0  0  0  0
  139.5960   68.0440  226.2540 C   0  0  0  0  0  0  0  0  0  0  0  0
  140.1250   68.0490  227.5370 C   0  0  0  0  0  0  0  0  0  0  0  0
  140.7300   69.1830  228.0690 C   0  0  0  0  0  0  0  0  0  0  0  0
  140.7910   70.3140  227.2850 C   0  0  0  0  0  0  0  0  0  0  0  0
  140.2660   70.3180  226.0070 C   0  0  0  0  0  0  0  0  0  0  0  0
  140.3680   71.5870  225.2110 C   0  0  0  0  0  0  0  0  0  0  0  0
  141.0980   71.3250  221.8950 N   0  0  0  0  0  0  0  0  0  0  0  0
  141.6770   71.8850  220.8130 C   0  0  0  0  0  0  0  0  0  0  0  0
  142.4460   71.1510  219.8720 N   0  0  0  0  0  0  0  0  0  0  0  0
  143.4430   71.8330  219.0320 C   0  0  0  0  0  0  0  0  0  0  0  0
  144.7960   71.3310  219.5030 C   0  0  0  0  0  0  0  0  0  0  0  0
  144.7920   69.8520  219.3570 C   0  0  0  0  0  0  0  0  0  0  0  0
  146.0370   69.2560  219.1310 C   0  0  0  0  0  0  0  0  0  0  0  0
  146.0740   67.8690  218.9880 C   0  0  0  0  0  0  0  0  0  0  0  0
  144.9080   67.1220  219.0670 C   0  0  0  0  0  0  0  0  0  0  0  0
  143.6730   67.7120  219.2900 C   0  0  0  0  0  0  0  0  0  0  0  0
  143.6460   69.0870  219.4310 C   0  0  0  0  0  0  0  0  0  0  0  0
  142.3240   69.7260  219.6700 C   0  0  0  0  0  0  0  0  0  0  0  0
  141.5110   73.1940  220.6390 N   0  0  0  0  0  0  0  0  0  0  0  0
  140.3250   76.2920  222.3630 C   0  0  0  0  0  0  0  0  0  0  0  0
  141.0630   81.6830  221.2610 C   0  0  0  0  0  0  0  0  0  0  0  0
  141.3170   82.3270  220.0460 C   0  0  0  0  0  0  0  0  0  0  0  0
  143.6080   81.6430  215.7790 H   0  0  0  0  0  0  0  0  0  0  0  0
  142.9330   80.2990  216.6760 H   0  0  0  0  0  0  0  0  0  0  0  0
  142.5561   79.6873  218.2570 H   0  0  0  0  0  0  0  0  0  0  0  0
  142.0955   78.5808  220.4327 H   0  0  0  0  0  0  0  0  0  0  0  0
  141.9534   79.0217  222.9966 H   0  0  0  0  0  0  0  0  0  0  0  0
  140.8497   80.3001  223.5118 H   0  0  0  0  0  0  0  0  0  0  0  0
  139.4809   78.4041  223.3600 H   0  0  0  0  0  0  0  0  0  0  0  0
  139.2734   79.2905  221.7290 H   0  0  0  0  0  0  0  0  0  0  0  0
  138.4723   77.6362  220.4798 H   0  0  0  0  0  0  0  0  0  0  0  0
  140.0076   77.8488  219.6250 H   0  0  0  0  0  0  0  0  0  0  0  0
  138.6363   75.2819  220.4911 H   0  0  0  0  0  0  0  0  0  0  0  0
  139.7389   75.4706  219.1677 H   0  0  0  0  0  0  0  0  0  0  0  0
  141.7120   75.5719  220.7475 H   0  0  0  0  0  0  0  0  0  0  0  0
  137.8535   70.8726  224.5127 H   0  0  0  0  0  0  0  0  0  0  0  0
  138.1738   70.6066  222.7884 H   0  0  0  0  0  0  0  0  0  0  0  0
  138.2425   68.4457  224.0807 H   0  0  0  0  0  0  0  0  0  0  0  0
  139.8361   68.7999  223.3811 H   0  0  0  0  0  0  0  0  0  0  0  0
  139.1232   67.1355  225.8528 H   0  0  0  0  0  0  0  0  0  0  0  0
  140.0645   67.1356  228.1470 H   0  0  0  0  0  0  0  0  0  0  0  0
  141.1477   69.1768  229.0866 H   0  0  0  0  0  0  0  0  0  0  0  0
  141.2634   71.2250  227.6812 H   0  0  0  0  0  0  0  0  0  0  0  0
  139.8286   72.3885  225.7370 H   0  0  0  0  0  0  0  0  0  0  0  0
  141.4296   71.8532  225.1006 H   0  0  0  0  0  0  0  0  0  0  0  0
  143.2884   71.5800  217.9727 H   0  0  0  0  0  0  0  0  0  0  0  0
  143.3649   72.9267  219.1193 H   0  0  0  0  0  0  0  0  0  0  0  0
  145.5954   71.7682  218.8868 H   0  0  0  0  0  0  0  0  0  0  0  0
  144.9766   71.6193  220.5491 H   0  0  0  0  0  0  0  0  0  0  0  0
  146.9544   69.8597  219.0683 H   0  0  0  0  0  0  0  0  0  0  0  0
  147.0350   67.3639  218.8113 H   0  0  0  0  0  0  0  0  0  0  0  0
  144.9646   66.0298  218.9493 H   0  0  0  0  0  0  0  0  0  0  0  0
  142.7536   67.1113  219.3521 H   0  0  0  0  0  0  0  0  0  0  0  0
  141.6777   69.5439  218.7987 H   0  0  0  0  0  0  0  0  0  0  0  0
  141.8917   69.2871  220.5813 H   0  0  0  0  0  0  0  0  0  0  0  0
  139.3952   75.9563  222.8456 H   0  0  0  0  0  0  0  0  0  0  0  0
  141.0482   76.3034  223.1918 H   0  0  0  0  0  0  0  0  0  0  0  0
  140.6409   82.2450  222.1072 H   0  0  0  0  0  0  0  0  0  0  0  0
  141.0950   83.3989  219.9377 H   0  0  0  0  0  0  0  0  0  0  0  0
  1  2  1  0
  2  3  2  0
  2  4  2  0
  2  5  1  0
  5  6  2  0
  6  7  1  0
  7  8  2  0
  8  9  1  0
  9 10  1  0
 10 11  1  0
 11 12  1  0
 12 13  1  0
 13 14  1  0
 14 15  1  0
 15 16  2  0
 16 17  1  0
 17 18  1  0
 18 19  1  0
 19 20  1  0
 20 21  1  0
 21 22  2  0
 22 23  1  0
 23 24  2  0
 24 25  1  0
 25 26  2  0
 26 27  1  0
 17 28  2  0
 28 29  1  0
 29 30  1  0
 30 31  1  0
 31 32  1  0
 32 33  1  0
 33 34  2  0
 34 35  1  0
 35 36  2  0
 36 37  1  0
 37 38  2  0
 38 39  1  0
 29 40  2  0
 14 41  1  0
  8 42  1  0
 42 43  2  0
 43  5  1  0
 41 11  1  0
 40 15  1  0
 27 18  1  0
 39 30  1  0
 26 21  1  0
 38 33  1  0
  1 44  1  0
  1 45  1  0
  6 46  1  0
  7 47  1  0
  9 48  1  0
  9 49  1  0
 10 50  1  0
 10 51  1  0
 12 52  1  0
 12 53  1  0
 13 54  1  0
 13 55  1  0
 14 56  1  6
 19 57  1  0
 19 58  1  0
 20 59  1  0
 20 60  1  0
 22 61  1  0
 23 62  1  0
 24 63  1  0
 25 64  1  0
 27 65  1  0
 27 66  1  0
 31 67  1  0
 31 68  1  0
 32 69  1  0
 32 70  1  0
 34 71  1  0
 35 72  1  0
 36 73  1  0
 37 74  1  0
 39 75  1  0
 39 76  1  0
 41 77  1  0
 41 78  1  0
 42 79  1  0
 43 80  1  0
M  END
>  <smiles>  (27) 
NS(=O)(=O)c1ccc(CCN2CCC(c3nc(N4CCc5ccccc5C4)nc(N4CCc5ccccc5C4)n3)C2)cc1

>  <score_type>  (27) 
oracle

>  <origin>  (27) 
autodockgpu

>  <m_score__min__energy>  (27) 
-11.56

>  <m_primary>  (27) 
energy

>  <rmsd>  (27) 
2.9901979657096356

>  <m_score__min__rmsd>  (27) 
2.9901979657096356

>  <meeko>  (27) 
{"free_energy": -11.31, "intermolecular_energy": -13.69, "internal_energy": -1.51, "cluster_size": 13, "cluster_id": 1, "rank_in_cluster": 3}

>  <energy>  (27) 
-9.21

>  <cluster_rmsd>  (27) 
1.65

>  <cluster>  (27) 
2

$$$$

     RDKit          3D

 80 86  0  0  1  0  0  0  0  0999 V2000
  134.2620   67.1230  226.0180 N   0  0  0  0  0  0  0  0  0  0  0  0
  134.6280   68.5440  225.1080 S   0  0  0  0  0  0  0  0  0  0  0  0
  134.2000   68.2770  223.6870 O   0  0  0  0  0  0  0  0  0  0  0  0
  136.1020   68.7280  225.0930 O   0  0  0  0  0  0  0  0  0  0  0  0
  133.7650   69.9510  225.6820 C   0  0  0  0  0  0  0  0  0  0  0  0
  134.2760   70.6120  226.7950 C   0  0  0  0  0  0  0  0  0  0  0  0
  133.5910   71.7290  227.2580 C   0  0  0  0  0  0  0  0  0  0  0  0
  132.4410   72.1980  226.6640 C   0  0  0  0  0  0  0  0  0  0  0  0
  131.7410   73.4130  227.2290 C   0  0  0  0  0  0  0  0  0  0  0  0
  132.7960   74.4710  227.3170 C   0  0  0  0  0  0  0  0  0  0  0  0
  133.3080   75.0000  226.1370 N   0  0  0  0  0  0  0  0  0  0  0  0
  132.4550   75.2990  225.0520 C   0  0  0  0  0  0  0  0  0  0  0  0
  133.3610   75.3470  223.8060 C   0  0  0  0  0  0  0  0  0  0  0  0
  134.7130   75.5480  224.4620 C   0  0  2  0  0  0  0  0  0  0  0  0
  135.8590   75.2640  223.6100 C   0  0  0  0  0  0  0  0  0  0  0  0
  136.2080   74.0640  223.1190 N   0  0  0  0  0  0  0  0  0  0  0  0
  137.2940   73.8970  222.3330 C   0  0  0  0  0  0  0  0  0  0  0  0
  137.6680   72.6310  221.8090 N   0  0  0  0  0  0  0  0  0  0  0  0
  139.0170   72.3220  221.3720 C   0  0  0  0  0  0  0  0  0  0  0  0
  139.5580   71.2910  222.3480 C   0  0  0  0  0  0  0  0  0  0  0  0
  138.6400   70.1210  222.2870 C   0  0  0  0  0  0  0  0  0  0  0  0
  139.1670   68.8700  222.5450 C   0  0  0  0  0  0  0  0  0  0  0  0
  138.3390   67.7580  222.4980 C   0  0  0  0  0  0  0  0  0  0  0  0
  136.9860   67.8710  222.1990 C   0  0  0  0  0  0  0  0  0  0  0  0
  136.4800   69.1270  221.9450 C   0  0  0  0  0  0  0  0  0  0  0  0
  137.2970   70.2400  221.9880 C   0  0  0  0  0  0  0  0  0  0  0  0
  136.6780   71.5770  221.7000 C   0  0  0  0  0  0  0  0  0  0  0  0
  138.0480   74.9790  222.0360 N   0  0  0  0  0  0  0  0  0  0  0  0
  137.7420   76.2070  222.5020 C   0  0  0  0  0  0  0  0  0  0  0  0
  138.5120   77.3660  222.2160 N   0  0  0  0  0  0  0  0  0  0  0  0
  137.8500   78.6580  221.9780 C   0  0  0  0  0  0  0  0  0  0  0  0
  138.2200   79.5370  223.1580 C   0  0  0  0  0  0  0  0  0  0  0  0
  139.7040   79.6160  223.2000 C   0  0  0  0  0  0  0  0  0  0  0  0
  140.2390   80.7840  223.7520 C   0  0  0  0  0  0  0  0  0  0  0  0
  141.6280   80.8960  223.8080 C   0  0  0  0  0  0  0  0  0  0  0  0
  142.4360   79.8750  223.3290 C   0  0  0  0  0  0  0  0  0  0  0  0
  141.9070   78.7170  222.7810 C   0  0  0  0  0  0  0  0  0  0  0  0
  140.5280   78.6150  222.7290 C   0  0  0  0  0  0  0  0  0  0  0  0
  139.9540   77.3750  222.1420 C   0  0  0  0  0  0  0  0  0  0  0  0
  136.6620   76.3170  223.2720 N   0  0  0  0  0  0  0  0  0  0  0  0
  134.5680   74.5660  225.6430 C   0  0  0  0  0  0  0  0  0  0  0  0
  131.9360   71.5360  225.5570 C   0  0  0  0  0  0  0  0  0  0  0  0
  132.6000   70.4080  225.0630 C   0  0  0  0  0  0  0  0  0  0  0  0
  133.3570   67.2240  226.5010 H   0  0  0  0  0  0  0  0  0  0  0  0
  134.3390   66.2520  225.4250 H   0  0  0  0  0  0  0  0  0  0  0  0
  135.1925   70.2616  227.2922 H   0  0  0  0  0  0  0  0  0  0  0  0
  133.9845   72.2611  228.1366 H   0  0  0  0  0  0  0  0  0  0  0  0
  130.9278   73.7343  226.5616 H   0  0  0  0  0  0  0  0  0  0  0  0
  131.2855   73.2055  228.2085 H   0  0  0  0  0  0  0  0  0  0  0  0
  132.3691   75.3079  227.8892 H   0  0  0  0  0  0  0  0  0  0  0  0
  133.6539   73.9570  227.7751 H   0  0  0  0  0  0  0  0  0  0  0  0
  131.6900   74.5167  224.9394 H   0  0  0  0  0  0  0  0  0  0  0  0
  131.9252   76.2509  225.2041 H   0  0  0  0  0  0  0  0  0  0  0  0
  133.3205   74.4066  223.2369 H   0  0  0  0  0  0  0  0  0  0  0  0
  133.0885   76.1156  223.0678 H   0  0  0  0  0  0  0  0  0  0  0  0
  134.9280   76.5916  224.7352 H   0  0  0  0  0  0  0  0  0  0  0  0
  139.0016   71.9094  220.3524 H   0  0  0  0  0  0  0  0  0  0  0  0
  139.6469   73.2236  221.3542 H   0  0  0  0  0  0  0  0  0  0  0  0
  140.5752   70.9903  222.0566 H   0  0  0  0  0  0  0  0  0  0  0  0
  139.6098   71.7005  223.3676 H   0  0  0  0  0  0  0  0  0  0  0  0
  140.2344   68.7568  222.7857 H   0  0  0  0  0  0  0  0  0  0  0  0
  138.7628   66.7637  222.7021 H   0  0  0  0  0  0  0  0  0  0  0  0
  136.3379   66.9828  222.1662 H   0  0  0  0  0  0  0  0  0  0  0  0
  135.4130   69.2449  221.7052 H   0  0  0  0  0  0  0  0  0  0  0  0
  136.2654   71.5724  220.6803 H   0  0  0  0  0  0  0  0  0  0  0  0
  135.8789   71.7634  222.4326 H   0  0  0  0  0  0  0  0  0  0  0  0
  138.2098   79.1054  221.0397 H   0  0  0  0  0  0  0  0  0  0  0  0
  136.7600   78.5429  221.8856 H   0  0  0  0  0  0  0  0  0  0  0  0
  137.7928   80.5422  223.0276 H   0  0  0  0  0  0  0  0  0  0  0  0
  137.8249   79.1184  224.0954 H   0  0  0  0  0  0  0  0  0  0  0  0
  139.5874   81.5861  224.1288 H   0  0  0  0  0  0  0  0  0  0  0  0
  142.0862   81.8003  224.2350 H   0  0  0  0  0  0  0  0  0  0  0  0
  143.5287   79.9878  223.3858 H   0  0  0  0  0  0  0  0  0  0  0  0
  142.5559   77.9131  222.4034 H   0  0  0  0  0  0  0  0  0  0  0  0
  140.2571   77.3069  221.0868 H   0  0  0  0  0  0  0  0  0  0  0  0
  140.3319   76.5169  222.7173 H   0  0  0  0  0  0  0  0  0  0  0  0
  134.5415   73.5186  225.3081 H   0  0  0  0  0  0  0  0  0  0  0  0
  135.3918   74.5764  226.3718 H   0  0  0  0  0  0  0  0  0  0  0  0
  131.0180   71.8952  225.0690 H   0  0  0  0  0  0  0  0  0  0  0  0
  132.2028   69.8794  224.1839 H   0  0  0  0  0  0  0  0  0  0  0  0
  1  2  1  0
  2  3  2  0
  2  4  2  0
  2  5  1  0
  5  6  2  0
  6  7  1  0
  7  8  2  0
  8  9  1  0
  9 10  1  0
 10 11  1  0
 11 12  1  0
 12 13  1  0
 13 14  1  0
 14 15  1  0
 15 16  2  0
 16 17  1  0
 17 18  1  0
 18 19  1  0
 19 20  1  0
 20 21  1  0
 21 22  2  0
 22 23  1  0
 23 24  2  0
 24 25  1  0
 25 26  2  0
 26 27  1  0
 17 28  2  0
 28 29  1  0
 29 30  1  0
 30 31  1  0
 31 32  1  0
 32 33  1  0
 33 34  2  0
 34 35  1  0
 35 36  2  0
 36 37  1  0
 37 38  2  0
 38 39  1  0
 29 40  2  0
 14 41  1  0
  8 42  1  0
 42 43  2  0
 43  5  1  0
 41 11  1  0
 40 15  1  0
 27 18  1  0
 39 30  1  0
 26 21  1  0
 38 33  1  0
  1 44  1  0
  1 45  1  0
  6 46  1  0
  7 47  1  0
  9 48  1  0
  9 49  1  0
 10 50  1  0
 10 51  1  0
 12 52  1  0
 12 53  1  0
 13 54  1  0
 13 55  1  0
 14 56  1  1
 19 57  1  0
 19 58  1  0
 20 59  1  0
 20 60  1  0
 22 61  1  0
 23 62  1  0
 24 63  1  0
 25 64  1  0
 27 65  1  0
 27 66  1  0
 31 67  1  0
 31 68  1  0
 32 69  1  0
 32 70  1  0
 34 71  1  0
 35 72  1  0
 36 73  1  0
 37 74  1  0
 39 75  1  0
 39 76  1  0
 41 77  1  0
 41 78  1  0
 42 79  1  0
 43 80  1  0
M  END
>  <smiles>  (28) 
NS(=O)(=O)c1ccc(CCN2CCC(c3nc(N4CCc5ccccc5C4)nc(N4CCc5ccccc5C4)n3)C2)cc1

>  <score_type>  (28) 
oracle

>  <origin>  (28) 
autodockgpu

>  <m_score__min__energy>  (28) 
-11.56

>  <m_primary>  (28) 
energy

>  <rmsd>  (28) 
11.540389998256948

>  <m_score__min__rmsd>  (28) 
11.540389998256948

>  <meeko>  (28) 
{"free_energy": -8.69, "intermolecular_energy": -11.08, "internal_energy": -2.51, "cluster_size": 2, "cluster_id": 14, "rank_in_cluster": 1}

>  <energy>  (28) 
-11.21

>  <cluster_rmsd>  (28) 
0.0

>  <cluster>  (28) 
3

$$$$

     RDKit          3D

 80 86  0  0  1  0  0  0  0  0999 V2000
  140.5480   72.1890  228.2940 N   0  0  0  0  0  0  0  0  0  0  0  0
  140.2130   70.5010  228.1450 S   0  0  0  0  0  0  0  0  0  0  0  0
  139.0120   70.2150  229.0110 O   0  0  0  0  0  0  0  0  0  0  0  0
  141.3550   69.7420  228.7150 O   0  0  0  0  0  0  0  0  0  0  0  0
  139.8260   70.0360  226.5060 C   0  0  0  0  0  0  0  0  0  0  0  0
  140.4980   70.6850  225.4750 C   0  0  0  0  0  0  0  0  0  0  0  0
  140.1920   70.3200  224.1690 C   0  0  0  0  0  0  0  0  0  0  0  0
  139.2600   69.3550  223.8630 C   0  0  0  0  0  0  0  0  0  0  0  0
  138.9680   69.0180  222.4190 C   0  0  0  0  0  0  0  0  0  0  0  0
  137.7220   69.7770  222.0810 C   0  0  0  0  0  0  0  0  0  0  0  0
  137.7670   71.1680  222.0890 N   0  0  0  0  0  0  0  0  0  0  0  0
  136.7470   71.9240  221.4690 C   0  0  0  0  0  0  0  0  0  0  0  0
  137.3570   73.3150  221.2070 C   0  0  0  0  0  0  0  0  0  0  0  0
  138.5160   73.2900  222.1840 C   0  0  2  0  0  0  0  0  0  0  0  0
  139.5420   74.2960  221.9470 C   0  0  0  0  0  0  0  0  0  0  0  0
  139.5340   75.5630  222.3940 N   0  0  0  0  0  0  0  0  0  0  0  0
  140.5350   76.4280  222.1220 C   0  0  0  0  0  0  0  0  0  0  0  0
  140.5320   77.7680  222.5930 N   0  0  0  0  0  0  0  0  0  0  0  0
  141.5330   78.2890  223.5050 C   0  0  0  0  0  0  0  0  0  0  0  0
  142.3380   79.3100  222.7200 C   0  0  0  0  0  0  0  0  0  0  0  0
  141.3760   80.3460  222.2530 C   0  0  0  0  0  0  0  0  0  0  0  0
  141.8450   81.6350  222.0830 C   0  0  0  0  0  0  0  0  0  0  0  0
  140.9750   82.6240  221.6470 C   0  0  0  0  0  0  0  0  0  0  0  0
  139.6390   82.3500  221.3740 C   0  0  0  0  0  0  0  0  0  0  0  0
  139.1930   81.0580  221.5490 C   0  0  0  0  0  0  0  0  0  0  0  0
  140.0510   80.0670  221.9840 C   0  0  0  0  0  0  0  0  0  0  0  0
  139.4960   78.6830  222.1540 C   0  0  0  0  0  0  0  0  0  0  0  0
  141.5740   75.9970  221.3730 N   0  0  0  0  0  0  0  0  0  0  0  0
  141.6320   74.7360  220.8990 C   0  0  0  0  0  0  0  0  0  0  0  0
  142.7060   74.2490  220.1060 N   0  0  0  0  0  0  0  0  0  0  0  0
  144.0040   74.9410  220.1050 C   0  0  0  0  0  0  0  0  0  0  0  0
  144.9780   73.9990  220.7860 C   0  0  0  0  0  0  0  0  0  0  0  0
  144.9710   72.7270  220.0170 C   0  0  0  0  0  0  0  0  0  0  0  0
  146.1560   71.9850  220.0500 C   0  0  0  0  0  0  0  0  0  0  0  0
  146.1880   70.7850  219.3400 C   0  0  0  0  0  0  0  0  0  0  0  0
  145.0760   70.3570  218.6300 C   0  0  0  0  0  0  0  0  0  0  0  0
  143.9000   71.0920  218.5960 C   0  0  0  0  0  0  0  0  0  0  0  0
  143.8780   72.2810  219.3030 C   0  0  0  0  0  0  0  0  0  0  0  0
  142.6200   73.0730  219.2710 C   0  0  0  0  0  0  0  0  0  0  0  0
  140.6210   73.9230  221.1960 N   0  0  0  0  0  0  0  0  0  0  0  0
  139.0080   71.8460  221.9550 C   0  0  0  0  0  0  0  0  0  0  0  0
  138.5930   68.7120  224.8930 C   0  0  0  0  0  0  0  0  0  0  0  0
  138.8770   69.0520  226.2190 C   0  0  0  0  0  0  0  0  0  0  0  0
  140.4200   72.6660  227.3890 H   0  0  0  0  0  0  0  0  0  0  0  0
  140.0050   72.6230  229.0910 H   0  0  0  0  0  0  0  0  0  0  0  0
  141.2474   71.4620  225.6865 H   0  0  0  0  0  0  0  0  0  0  0  0
  140.7175   70.8243  223.3447 H   0  0  0  0  0  0  0  0  0  0  0  0
  139.7999   69.3357  221.7733 H   0  0  0  0  0  0  0  0  0  0  0  0
  138.8431   67.9357  222.2673 H   0  0  0  0  0  0  0  0  0  0  0  0
  137.4183   69.4681  221.0699 H   0  0  0  0  0  0  0  0  0  0  0  0
  137.0258   69.5263  222.8949 H   0  0  0  0  0  0  0  0  0  0  0  0
  136.4435   71.4541  220.5219 H   0  0  0  0  0  0  0  0  0  0  0  0
  135.8488   71.9878  222.1008 H   0  0  0  0  0  0  0  0  0  0  0  0
  137.7026   73.4188  220.1679 H   0  0  0  0  0  0  0  0  0  0  0  0
  136.6605   74.1560  221.3398 H   0  0  0  0  0  0  0  0  0  0  0  0
  138.2357   73.5377  223.2184 H   0  0  0  0  0  0  0  0  0  0  0  0
  141.0484   78.7687  224.3681 H   0  0  0  0  0  0  0  0  0  0  0  0
  142.1769   77.4854  223.8919 H   0  0  0  0  0  0  0  0  0  0  0  0
  143.1032   79.7665  223.3650 H   0  0  0  0  0  0  0  0  0  0  0  0
  142.8546   78.8384  221.8710 H   0  0  0  0  0  0  0  0  0  0  0  0
  142.8982   81.8745  222.2914 H   0  0  0  0  0  0  0  0  0  0  0  0
  141.3508   83.6492  221.5141 H   0  0  0  0  0  0  0  0  0  0  0  0
  138.9581   83.1418  221.0284 H   0  0  0  0  0  0  0  0  0  0  0  0
  138.1412   80.8130  221.3398 H   0  0  0  0  0  0  0  0  0  0  0  0
  138.6919   78.7056  222.9043 H   0  0  0  0  0  0  0  0  0  0  0  0
  139.1039   78.3368  221.1863 H   0  0  0  0  0  0  0  0  0  0  0  0
  144.3275   75.1459  219.0738 H   0  0  0  0  0  0  0  0  0  0  0  0
  143.9464   75.9081  220.6260 H   0  0  0  0  0  0  0  0  0  0  0  0
  145.9879   74.4350  220.7837 H   0  0  0  0  0  0  0  0  0  0  0  0
  144.6852   73.8243  221.8318 H   0  0  0  0  0  0  0  0  0  0  0  0
  147.0318   72.3354  220.6159 H   0  0  0  0  0  0  0  0  0  0  0  0
  147.1022   70.1733  219.3431 H   0  0  0  0  0  0  0  0  0  0  0  0
  145.1282   69.4071  218.0778 H   0  0  0  0  0  0  0  0  0  0  0  0
  143.0225   70.7443  218.0311 H   0  0  0  0  0  0  0  0  0  0  0  0
  142.4220   73.3854  218.2350 H   0  0  0  0  0  0  0  0  0  0  0  0
  141.8068   72.4394  219.6547 H   0  0  0  0  0  0  0  0  0  0  0  0
  139.4456   71.7125  220.9547 H   0  0  0  0  0  0  0  0  0  0  0  0
  139.8094   71.5057  222.6272 H   0  0  0  0  0  0  0  0  0  0  0  0
  137.8441   67.9382  224.6688 H   0  0  0  0  0  0  0  0  0  0  0  0
  138.3509   68.5425  227.0398 H   0  0  0  0  0  0  0  0  0  0  0  0
  1  2  1  0
  2  3  2  0
  2  4  2  0
  2  5  1  0
  5  6  2  0
  6  7  1  0
  7  8  2  0
  8  9  1  0
  9 10  1  0
 10 11  1  0
 11 12  1  0
 12 13  1  0
 13 14  1  0
 14 15  1  0
 15 16  2  0
 16 17  1  0
 17 18  1  0
 18 19  1  0
 19 20  1  0
 20 21  1  0
 21 22  2  0
 22 23  1  0
 23 24  2  0
 24 25  1  0
 25 26  2  0
 26 27  1  0
 17 28  2  0
 28 29  1  0
 29 30  1  0
 30 31  1  0
 31 32  1  0
 32 33  1  0
 33 34  2  0
 34 35  1  0
 35 36  2  0
 36 37  1  0
 37 38  2  0
 38 39  1  0
 29 40  2  0
 14 41  1  0
  8 42  1  0
 42 43  2  0
 43  5  1  0
 41 11  1  0
 40 15  1  0
 27 18  1  0
 39 30  1  0
 26 21  1  0
 38 33  1  0
  1 44  1  0
  1 45  1  0
  6 46  1  0
  7 47  1  0
  9 48  1  0
  9 49  1  0
 10 50  1  0
 10 51  1  0
 12 52  1  0
 12 53  1  0
 13 54  1  0
 13 55  1  0
 14 56  1  1
 19 57  1  0
 19 58  1  0
 20 59  1  0
 20 60  1  0
 22 61  1  0
 23 62  1  0
 24 63  1  0
 25 64  1  0
 27 65  1  0
 27 66  1  0
 31 67  1  0
 31 68  1  0
 32 69  1  0
 32 70  1  0
 34 71  1  0
 35 72  1  0
 36 73  1  0
 37 74  1  0
 39 75  1  0
 39 76  1  0
 41 77  1  0
 41 78  1  0
 42 79  1  0
 43 80  1  0
M  END
>  <smiles>  (29) 
NS(=O)(=O)c1ccc(CCN2CCC(c3nc(N4CCc5ccccc5C4)nc(N4CCc5ccccc5C4)n3)C2)cc1

>  <score_type>  (29) 
oracle

>  <origin>  (29) 
autodockgpu

>  <m_score__min__energy>  (29) 
-11.56

>  <m_primary>  (29) 
energy

>  <rmsd>  (29) 
10.012133251385928

>  <m_score__min__rmsd>  (29) 
10.012133251385928

>  <meeko>  (29) 
{"free_energy": -10.02, "intermolecular_energy": -12.41, "internal_energy": -1.56, "cluster_size": 1, "cluster_id": 10, "rank_in_cluster": 1}

>  <energy>  (29) 
-10.9

>  <cluster_rmsd>  (29) 
0.45

>  <cluster>  (29) 
3

$$$$

     RDKit          3D

 80 86  0  0  1  0  0  0  0  0999 V2000
  140.9750   68.1710  228.7840 N   0  0  0  0  0  0  0  0  0  0  0  0
  140.2230   69.5800  228.1240 S   0  0  0  0  0  0  0  0  0  0  0  0
  141.1710   70.7300  228.3510 O   0  0  0  0  0  0  0  0  0  0  0  0
  138.9910   69.8660  228.9020 O   0  0  0  0  0  0  0  0  0  0  0  0
  139.9350   69.4430  226.4050 C   0  0  0  0  0  0  0  0  0  0  0  0
  140.3420   70.4990  225.5960 C   0  0  0  0  0  0  0  0  0  0  0  0
  140.1120   70.3970  224.2290 C   0  0  0  0  0  0  0  0  0  0  0  0
  139.5030   69.3040  223.6550 C   0  0  0  0  0  0  0  0  0  0  0  0
  139.2720   69.2660  222.1620 C   0  0  0  0  0  0  0  0  0  0  0  0
  138.1030   70.1710  221.9210 C   0  0  0  0  0  0  0  0  0  0  0  0
  138.3420   71.5250  221.7090 N   0  0  0  0  0  0  0  0  0  0  0  0
  139.6630   72.0140  221.5970 C   0  0  0  0  0  0  0  0  0  0  0  0
  139.5780   73.5240  221.8980 C   0  0  0  0  0  0  0  0  0  0  0  0
  138.1010   73.7640  221.6580 C   0  0  2  0  0  0  0  0  0  0  0  0
  137.5830   75.0080  222.2110 C   0  0  0  0  0  0  0  0  0  0  0  0
  136.4100   75.1690  222.8470 N   0  0  0  0  0  0  0  0  0  0  0  0
  136.0130   76.3670  223.3280 C   0  0  0  0  0  0  0  0  0  0  0  0
  134.7750   76.5440  224.0020 N   0  0  0  0  0  0  0  0  0  0  0  0
  133.9020   75.4420  224.3590 C   0  0  0  0  0  0  0  0  0  0  0  0
  133.9120   75.3620  225.8760 C   0  0  0  0  0  0  0  0  0  0  0  0
  133.4280   76.6770  226.3770 C   0  0  0  0  0  0  0  0  0  0  0  0
  132.7610   76.7040  227.5870 C   0  0  0  0  0  0  0  0  0  0  0  0
  132.2980   77.9140  228.0840 C   0  0  0  0  0  0  0  0  0  0  0  0
  132.4910   79.1050  227.3930 C   0  0  0  0  0  0  0  0  0  0  0  0
  133.1590   79.0570  226.1900 C   0  0  0  0  0  0  0  0  0  0  0  0
  133.6230   77.8570  225.6860 C   0  0  0  0  0  0  0  0  0  0  0  0
  134.3410   77.8790  224.3680 C   0  0  0  0  0  0  0  0  0  0  0  0
  136.8260   77.4340  223.1580 N   0  0  0  0  0  0  0  0  0  0  0  0
  138.0130   77.3260  222.5270 C   0  0  0  0  0  0  0  0  0  0  0  0
  138.8930   78.4240  222.3270 N   0  0  0  0  0  0  0  0  0  0  0  0
  138.4130   79.8030  222.5060 C   0  0  0  0  0  0  0  0  0  0  0  0
  139.1280   80.3350  223.7340 C   0  0  0  0  0  0  0  0  0  0  0  0
  140.5870   80.2310  223.4740 C   0  0  0  0  0  0  0  0  0  0  0  0
  141.3940   81.1690  224.1270 C   0  0  0  0  0  0  0  0  0  0  0  0
  142.7700   81.1030  223.9070 C   0  0  0  0  0  0  0  0  0  0  0  0
  143.3040   80.1370  223.0670 C   0  0  0  0  0  0  0  0  0  0  0  0
  142.5050   79.2070  222.4190 C   0  0  0  0  0  0  0  0  0  0  0  0
  141.1420   79.2790  222.6420 C   0  0  0  0  0  0  0  0  0  0  0  0
  140.2800   78.2840  221.9500 C   0  0  0  0  0  0  0  0  0  0  0  0
  138.3590   76.1240  222.0730 N   0  0  0  0  0  0  0  0  0  0  0  0
  137.5260   72.5040  222.3370 C   0  0  0  0  0  0  0  0  0  0  0  0
  139.0990   68.2550  224.4660 C   0  0  0  0  0  0  0  0  0  0  0  0
  139.3150   68.3240  225.8450 C   0  0  0  0  0  0  0  0  0  0  0  0
  140.6150   67.3200  228.3280 H   0  0  0  0  0  0  0  0  0  0  0  0
  142.0280   68.2530  228.7730 H   0  0  0  0  0  0  0  0  0  0  0  0
  140.8304   71.3866  226.0246 H   0  0  0  0  0  0  0  0  0  0  0  0
  140.4301   71.2248  223.5782 H   0  0  0  0  0  0  0  0  0  0  0  0
  140.1597   69.6317  221.6251 H   0  0  0  0  0  0  0  0  0  0  0  0
  139.0814   68.2442  221.8019 H   0  0  0  0  0  0  0  0  0  0  0  0
  137.5768   69.7916  221.0326 H   0  0  0  0  0  0  0  0  0  0  0  0
  137.5421   70.1424  222.8668 H   0  0  0  0  0  0  0  0  0  0  0  0
  140.3195   71.5146  222.3247 H   0  0  0  0  0  0  0  0  0  0  0  0
  140.0825   71.8229  220.5983 H   0  0  0  0  0  0  0  0  0  0  0  0
  139.8637   73.7490  222.9362 H   0  0  0  0  0  0  0  0  0  0  0  0
  140.2508   74.1525  221.2961 H   0  0  0  0  0  0  0  0  0  0  0  0
  137.8344   73.8952  220.5989 H   0  0  0  0  0  0  0  0  0  0  0  0
  132.8815   75.6314  223.9946 H   0  0  0  0  0  0  0  0  0  0  0  0
  134.2443   74.4992  223.9074 H   0  0  0  0  0  0  0  0  0  0  0  0
  133.2444   74.5572  226.2176 H   0  0  0  0  0  0  0  0  0  0  0  0
  134.9213   75.1419  226.2539 H   0  0  0  0  0  0  0  0  0  0  0  0
  132.5985   75.7740  228.1515 H   0  0  0  0  0  0  0  0  0  0  0  0
  131.7661   77.9313  229.0467 H   0  0  0  0  0  0  0  0  0  0  0  0
  132.1203   80.0590  227.7962 H   0  0  0  0  0  0  0  0  0  0  0  0
  133.3253   79.9850  225.6233 H   0  0  0  0  0  0  0  0  0  0  0  0
  133.6623   78.2640  223.5927 H   0  0  0  0  0  0  0  0  0  0  0  0
  135.2247   78.5282  224.4557 H   0  0  0  0  0  0  0  0  0  0  0  0
  138.6614   80.4122  221.6244 H   0  0  0  0  0  0  0  0  0  0  0  0
  137.3203   79.8382  222.6275 H   0  0  0  0  0  0  0  0  0  0  0  0
  138.8500   81.3853  223.9062 H   0  0  0  0  0  0  0  0  0  0  0  0
  138.8492   79.7580  224.6281 H   0  0  0  0  0  0  0  0  0  0  0  0
  140.9590   81.9313  224.7902 H   0  0  0  0  0  0  0  0  0  0  0  0
  143.4370   81.8230  224.4038 H   0  0  0  0  0  0  0  0  0  0  0  0
  144.3924   80.1078  222.9103 H   0  0  0  0  0  0  0  0  0  0  0  0
  142.9374   78.4438  221.7553 H   0  0  0  0  0  0  0  0  0  0  0  0
  140.3703   78.4289  220.8633 H   0  0  0  0  0  0  0  0  0  0  0  0
  140.6148   77.2780  222.2431 H   0  0  0  0  0  0  0  0  0  0  0  0
  137.6675   72.5216  223.4277 H   0  0  0  0  0  0  0  0  0  0  0  0
  136.4412   72.3589  222.2267 H   0  0  0  0  0  0  0  0  0  0  0  0
  138.6108   67.3727  224.0264 H   0  0  0  0  0  0  0  0  0  0  0  0
  138.9954   67.4937  226.4918 H   0  0  0  0  0  0  0  0  0  0  0  0
  1  2  1  0
  2  3  2  0
  2  4  2  0
  2  5  1  0
  5  6  2  0
  6  7  1  0
  7  8  2  0
  8  9  1  0
  9 10  1  0
 10 11  1  0
 11 12  1  0
 12 13  1  0
 13 14  1  0
 14 15  1  0
 15 16  2  0
 16 17  1  0
 17 18  1  0
 18 19  1  0
 19 20  1  0
 20 21  1  0
 21 22  2  0
 22 23  1  0
 23 24  2  0
 24 25  1  0
 25 26  2  0
 26 27  1  0
 17 28  2  0
 28 29  1  0
 29 30  1  0
 30 31  1  0
 31 32  1  0
 32 33  1  0
 33 34  2  0
 34 35  1  0
 35 36  2  0
 36 37  1  0
 37 38  2  0
 38 39  1  0
 29 40  2  0
 14 41  1  0
  8 42  1  0
 42 43  2  0
 43  5  1  0
 41 11  1  0
 40 15  1  0
 27 18  1  0
 39 30  1  0
 26 21  1  0
 38 33  1  0
  1 44  1  0
  1 45  1  0
  6 46  1  0
  7 47  1  0
  9 48  1  0
  9 49  1  0
 10 50  1  0
 10 51  1  0
 12 52  1  0
 12 53  1  0
 13 54  1  0
 13 55  1  0
 14 56  1  6
 19 57  1  0
 19 58  1  0
 20 59  1  0
 20 60  1  0
 22 61  1  0
 23 62  1  0
 24 63  1  0
 25 64  1  0
 27 65  1  0
 27 66  1  0
 31 67  1  0
 31 68  1  0
 32 69  1  0
 32 70  1  0
 34 71  1  0
 35 72  1  0
 36 73  1  0
 37 74  1  0
 39 75  1  0
 39 76  1  0
 41 77  1  0
 41 78  1  0
 42 79  1  0
 43 80  1  0
M  END
>  <smiles>  (30) 
NS(=O)(=O)c1ccc(CCN2CCC(c3nc(N4CCc5ccccc5C4)nc(N4CCc5ccccc5C4)n3)C2)cc1

>  <score_type>  (30) 
oracle

>  <origin>  (30) 
autodockgpu

>  <m_score__min__energy>  (30) 
-11.56

>  <m_primary>  (30) 
energy

>  <rmsd>  (30) 
9.921055095233353

>  <m_score__min__rmsd>  (30) 
9.921055095233353

>  <meeko>  (30) 
{"free_energy": -10.33, "intermolecular_energy": -12.72, "internal_energy": -1.56, "cluster_size": 5, "cluster_id": 7, "rank_in_cluster": 1}

>  <energy>  (30) 
-10.45

>  <cluster_rmsd>  (30) 
0.61

>  <cluster>  (30) 
3

$$$$

     RDKit          3D

 80 86  0  0  1  0  0  0  0  0999 V2000
  140.9550   83.1060  216.4240 N   0  0  0  0  0  0  0  0  0  0  0  0
  141.8420   83.5260  217.8460 S   0  0  0  0  0  0  0  0  0  0  0  0
  141.1720   84.7400  218.4380 O   0  0  0  0  0  0  0  0  0  0  0  0
  143.2120   83.9340  217.4440 O   0  0  0  0  0  0  0  0  0  0  0  0
  141.8260   82.2550  219.0450 C   0  0  0  0  0  0  0  0  0  0  0  0
  142.1890   80.9760  218.6360 C   0  0  0  0  0  0  0  0  0  0  0  0
  142.1750   79.9610  219.5860 C   0  0  0  0  0  0  0  0  0  0  0  0
  141.8200   80.1730  220.8990 C   0  0  0  0  0  0  0  0  0  0  0  0
  141.8150   79.0200  221.8750 C   0  0  0  0  0  0  0  0  0  0  0  0
  140.3730   78.6500  222.0410 C   0  0  0  0  0  0  0  0  0  0  0  0
  139.9560   77.3910  221.6230 N   0  0  0  0  0  0  0  0  0  0  0  0
  138.5850   77.1190  221.4130 C   0  0  0  0  0  0  0  0  0  0  0  0
  138.4450   75.5860  221.4840 C   0  0  0  0  0  0  0  0  0  0  0  0
  139.8830   75.1720  221.2400 C   0  0  2  0  0  0  0  0  0  0  0  0
  140.1990   73.7990  221.6090 C   0  0  0  0  0  0  0  0  0  0  0  0
  139.7940   73.1600  222.7190 N   0  0  0  0  0  0  0  0  0  0  0  0
  140.1390   71.8800  222.9770 C   0  0  0  0  0  0  0  0  0  0  0  0
  139.7140   71.1980  224.1480 N   0  0  0  0  0  0  0  0  0  0  0  0
  138.6850   70.1740  224.1400 C   0  0  0  0  0  0  0  0  0  0  0  0
  139.3800   68.8670  224.4820 C   0  0  0  0  0  0  0  0  0  0  0  0
  140.0080   69.0540  225.8190 C   0  0  0  0  0  0  0  0  0  0  0  0
  140.1490   67.9440  226.6290 C   0  0  0  0  0  0  0  0  0  0  0  0
  140.7330   68.0820  227.8800 C   0  0  0  0  0  0  0  0  0  0  0  0
  141.1830   69.3150  228.3410 C   0  0  0  0  0  0  0  0  0  0  0  0
  141.0330   70.4090  227.5170 C   0  0  0  0  0  0  0  0  0  0  0  0
  140.4530   70.2810  226.2700 C   0  0  0  0  0  0  0  0  0  0  0  0
  140.3210   71.5160  225.4270 C   0  0  0  0  0  0  0  0  0  0  0  0
  140.9190   71.2290  222.0860 N   0  0  0  0  0  0  0  0  0  0  0  0
  141.3520   71.8230  220.9550 C   0  0  0  0  0  0  0  0  0  0  0  0
  142.1750   71.1730  219.9970 N   0  0  0  0  0  0  0  0  0  0  0  0
  143.1760   71.9370  219.2360 C   0  0  0  0  0  0  0  0  0  0  0  0
  144.5280   71.4480  219.7210 C   0  0  0  0  0  0  0  0  0  0  0  0
  144.5770   69.9820  219.4830 C   0  0  0  0  0  0  0  0  0  0  0  0
  145.8470   69.4400  219.2640 C   0  0  0  0  0  0  0  0  0  0  0  0
  145.9340   68.0660  219.0370 C   0  0  0  0  0  0  0  0  0  0  0  0
  144.7920   67.2800  219.0300 C   0  0  0  0  0  0  0  0  0  0  0  0
  143.5310   67.8170  219.2460 C   0  0  0  0  0  0  0  0  0  0  0  0
  143.4550   69.1790  219.4710 C   0  0  0  0  0  0  0  0  0  0  0  0
  142.1060   69.7610  219.7040 C   0  0  0  0  0  0  0  0  0  0  0  0
  140.9830   73.0850  220.7480 N   0  0  0  0  0  0  0  0  0  0  0  0
  140.6000   76.2230  222.1120 C   0  0  0  0  0  0  0  0  0  0  0  0
  141.4590   81.4490  221.3010 C   0  0  0  0  0  0  0  0  0  0  0  0
  141.4620   82.4940  220.3720 C   0  0  0  0  0  0  0  0  0  0  0  0
  141.5560   82.6010  215.7570 H   0  0  0  0  0  0  0  0  0  0  0  0
  140.0570   82.6020  216.6620 H   0  0  0  0  0  0  0  0  0  0  0  0
  142.4779   80.7740  217.5940 H   0  0  0  0  0  0  0  0  0  0  0  0
  142.4598   78.9450  219.2751 H   0  0  0  0  0  0  0  0  0  0  0  0
  142.3868   78.1712  221.4718 H   0  0  0  0  0  0  0  0  0  0  0  0
  142.2820   79.2914  222.8332 H   0  0  0  0  0  0  0  0  0  0  0  0
  140.1393   78.7295  223.1129 H   0  0  0  0  0  0  0  0  0  0  0  0
  139.8399   79.3438  221.3744 H   0  0  0  0  0  0  0  0  0  0  0  0
  137.9758   77.5958  222.1950 H   0  0  0  0  0  0  0  0  0  0  0  0
  138.2377   77.5128  220.4464 H   0  0  0  0  0  0  0  0  0  0  0  0
  138.0878   75.2550  222.4703 H   0  0  0  0  0  0  0  0  0  0  0  0
  137.7163   75.1568  220.7806 H   0  0  0  0  0  0  0  0  0  0  0  0
  140.1718   75.1593  220.1787 H   0  0  0  0  0  0  0  0  0  0  0  0
  137.9142   70.4030  224.8906 H   0  0  0  0  0  0  0  0  0  0  0  0
  138.1860   70.1169  223.1614 H   0  0  0  0  0  0  0  0  0  0  0  0
  138.6482   68.0465  224.5182 H   0  0  0  0  0  0  0  0  0  0  0  0
  140.1335   68.6090  223.7233 H   0  0  0  0  0  0  0  0  0  0  0  0
  139.8012   66.9588  226.2851 H   0  0  0  0  0  0  0  0  0  0  0  0
  140.8427   67.1958  228.5223 H   0  0  0  0  0  0  0  0  0  0  0  0
  141.6451   69.4136  229.3344 H   0  0  0  0  0  0  0  0  0  0  0  0
  141.3794   71.3964  227.8564 H   0  0  0  0  0  0  0  0  0  0  0  0
  139.6914   72.2480  225.9541 H   0  0  0  0  0  0  0  0  0  0  0  0
  141.3231   71.9338  225.2502 H   0  0  0  0  0  0  0  0  0  0  0  0
  143.0643   71.7470  218.1583 H   0  0  0  0  0  0  0  0  0  0  0  0
  143.0594   73.0201  219.3885 H   0  0  0  0  0  0  0  0  0  0  0  0
  145.3324   71.9477  219.1612 H   0  0  0  0  0  0  0  0  0  0  0  0
  144.6650   71.6748  220.7886 H   0  0  0  0  0  0  0  0  0  0  0  0
  146.7457   70.0742  219.2704 H   0  0  0  0  0  0  0  0  0  0  0  0
  146.9163   67.6029  218.8622 H   0  0  0  0  0  0  0  0  0  0  0  0
  144.8884   66.1995  218.8479 H   0  0  0  0  0  0  0  0  0  0  0  0
  142.6301   67.1859  219.2386 H   0  0  0  0  0  0  0  0  0  0  0  0
  141.4940   69.6140  218.8018 H   0  0  0  0  0  0  0  0  0  0  0  0
  141.6595   69.2530  220.5715 H   0  0  0  0  0  0  0  0  0  0  0  0
  140.4127   76.0667  223.1846 H   0  0  0  0  0  0  0  0  0  0  0  0
  141.6980   76.2243  222.0459 H   0  0  0  0  0  0  0  0  0  0  0  0
  141.1715   81.6389  222.3456 H   0  0  0  0  0  0  0  0  0  0  0  0
  141.1766   83.5084  220.6876 H   0  0  0  0  0  0  0  0  0  0  0  0
  1  2  1  0
  2  3  2  0
  2  4  2  0
  2  5  1  0
  5  6  2  0
  6  7  1  0
  7  8  2  0
  8  9  1  0
  9 10  1  0
 10 11  1  0
 11 12  1  0
 12 13  1  0
 13 14  1  0
 14 15  1  0
 15 16  2  0
 16 17  1  0
 17 18  1  0
 18 19  1  0
 19 20  1  0
 20 21  1  0
 21 22  2  0
 22 23  1  0
 23 24  2  0
 24 25  1  0
 25 26  2  0
 26 27  1  0
 17 28  2  0
 28 29  1  0
 29 30  1  0
 30 31  1  0
 31 32  1  0
 32 33  1  0
 33 34  2  0
 34 35  1  0
 35 36  2  0
 36 37  1  0
 37 38  2  0
 38 39  1  0
 29 40  2  0
 14 41  1  0
  8 42  1  0
 42 43  2  0
 43  5  1  0
 41 11  1  0
 40 15  1  0
 27 18  1  0
 39 30  1  0
 26 21  1  0
 38 33  1  0
  1 44  1  0
  1 45  1  0
  6 46  1  0
  7 47  1  0
  9 48  1  0
  9 49  1  0
 10 50  1  0
 10 51  1  0
 12 52  1  0
 12 53  1  0
 13 54  1  0
 13 55  1  0
 14 56  1  6
 19 57  1  0
 19 58  1  0
 20 59  1  0
 20 60  1  0
 22 61  1  0
 23 62  1  0
 24 63  1  0
 25 64  1  0
 27 65  1  0
 27 66  1  0
 31 67  1  0
 31 68  1  0
 32 69  1  0
 32 70  1  0
 34 71  1  0
 35 72  1  0
 36 73  1  0
 37 74  1  0
 39 75  1  0
 39 76  1  0
 41 77  1  0
 41 78  1  0
 42 79  1  0
 43 80  1  0
M  END
>  <smiles>  (31) 
NS(=O)(=O)c1ccc(CCN2CCC(c3nc(N4CCc5ccccc5C4)nc(N4CCc5ccccc5C4)n3)C2)cc1

>  <score_type>  (31) 
oracle

>  <origin>  (31) 
autodockgpu

>  <m_score__min__energy>  (31) 
-11.56

>  <m_primary>  (31) 
energy

>  <rmsd>  (31) 
3.677709948038474

>  <m_score__min__rmsd>  (31) 
3.677709948038474

>  <meeko>  (31) 
{"free_energy": -10.13, "intermolecular_energy": -12.51, "internal_energy": -1.4, "cluster_size": 13, "cluster_id": 1, "rank_in_cluster": 11}

>  <energy>  (31) 
-10.45

>  <cluster_rmsd>  (31) 
0.0

>  <cluster>  (31) 
4

$$$$

     RDKit          3D

 80 86  0  0  1  0  0  0  0  0999 V2000
  145.9910   73.3790  217.9600 N   0  0  0  0  0  0  0  0  0  0  0  0
  145.4120   72.3370  219.2100 S   0  0  0  0  0  0  0  0  0  0  0  0
  144.1250   72.9360  219.7200 O   0  0  0  0  0  0  0  0  0  0  0  0
  146.3830   72.3620  220.3340 O   0  0  0  0  0  0  0  0  0  0  0  0
  145.0700   70.7230  218.6330 C   0  0  0  0  0  0  0  0  0  0  0  0
  144.3710   70.5990  217.4360 C   0  0  0  0  0  0  0  0  0  0  0  0
  144.0940   69.3180  216.9750 C   0  0  0  0  0  0  0  0  0  0  0  0
  144.4800   68.1820  217.6500 C   0  0  0  0  0  0  0  0  0  0  0  0
  144.1330   66.8190  217.0960 C   0  0  0  0  0  0  0  0  0  0  0  0
  143.0710   66.2830  218.0050 C   0  0  0  0  0  0  0  0  0  0  0  0
  141.9820   67.0940  218.3080 N   0  0  0  0  0  0  0  0  0  0  0  0
  141.2260   67.6980  217.2780 C   0  0  0  0  0  0  0  0  0  0  0  0
  140.4910   68.8820  217.9370 C   0  0  0  0  0  0  0  0  0  0  0  0
  140.5690   68.4710  219.3940 C   0  0  2  0  0  0  0  0  0  0  0  0
  140.3040   69.5380  220.3490 C   0  0  0  0  0  0  0  0  0  0  0  0
  139.9460   69.3860  221.6350 N   0  0  0  0  0  0  0  0  0  0  0  0
  139.7210   70.4410  222.4480 C   0  0  0  0  0  0  0  0  0  0  0  0
  139.3440   70.2860  223.8090 N   0  0  0  0  0  0  0  0  0  0  0  0
  138.4040   69.2780  224.2610 C   0  0  0  0  0  0  0  0  0  0  0  0
  139.2020   68.2960  225.1040 C   0  0  0  0  0  0  0  0  0  0  0  0
  139.8030   69.0800  226.2180 C   0  0  0  0  0  0  0  0  0  0  0  0
  140.0290   68.4310  227.4170 C   0  0  0  0  0  0  0  0  0  0  0  0
  140.5890   69.1300  228.4770 C   0  0  0  0  0  0  0  0  0  0  0  0
  140.9320   70.4730  228.3610 C   0  0  0  0  0  0  0  0  0  0  0  0
  140.6980   71.1010  227.1570 C   0  0  0  0  0  0  0  0  0  0  0  0
  140.1400   70.4130  226.0970 C   0  0  0  0  0  0  0  0  0  0  0  0
  139.9130   71.1610  224.8160 C   0  0  0  0  0  0  0  0  0  0  0  0
  139.8590   71.6870  221.9430 N   0  0  0  0  0  0  0  0  0  0  0  0
  140.2160   71.8960  220.6590 C   0  0  0  0  0  0  0  0  0  0  0  0
  140.3680   73.1890  220.0920 N   0  0  0  0  0  0  0  0  0  0  0  0
  139.9700   74.3860  220.8500 C   0  0  0  0  0  0  0  0  0  0  0  0
  141.2580   75.1210  221.1710 C   0  0  0  0  0  0  0  0  0  0  0  0
  141.9280   75.4200  219.8780 C   0  0  0  0  0  0  0  0  0  0  0  0
  142.7400   76.5580  219.8590 C   0  0  0  0  0  0  0  0  0  0  0  0
  143.3850   76.8720  218.6630 C   0  0  0  0  0  0  0  0  0  0  0  0
  143.2170   76.0730  217.5410 C   0  0  0  0  0  0  0  0  0  0  0  0
  142.4120   74.9440  217.5590 C   0  0  0  0  0  0  0  0  0  0  0  0
  141.7760   74.6410  218.7490 C   0  0  0  0  0  0  0  0  0  0  0  0
  140.9110   73.4310  218.7760 C   0  0  0  0  0  0  0  0  0  0  0  0
  140.4280   70.8230  219.9000 N   0  0  0  0  0  0  0  0  0  0  0  0
  142.0220   67.9580  219.4350 C   0  0  0  0  0  0  0  0  0  0  0  0
  145.1760   68.3110  218.8410 C   0  0  0  0  0  0  0  0  0  0  0  0
  145.4730   69.5850  219.3350 C   0  0  0  0  0  0  0  0  0  0  0  0
  145.7690   72.9920  217.0320 H   0  0  0  0  0  0  0  0  0  0  0  0
  145.6620   74.3740  218.1020 H   0  0  0  0  0  0  0  0  0  0  0  0
  144.0481   71.4870  216.8728 H   0  0  0  0  0  0  0  0  0  0  0  0
  143.5424   69.2067  216.0298 H   0  0  0  0  0  0  0  0  0  0  0  0
  143.7522   66.9064  216.0677 H   0  0  0  0  0  0  0  0  0  0  0  0
  145.0105   66.1570  217.0547 H   0  0  0  0  0  0  0  0  0  0  0  0
  142.6748   65.3695  217.5375 H   0  0  0  0  0  0  0  0  0  0  0  0
  143.5843   66.1522  218.9691 H   0  0  0  0  0  0  0  0  0  0  0  0
  141.8883   68.0565  216.4762 H   0  0  0  0  0  0  0  0  0  0  0  0
  140.5215   66.9868  216.8220 H   0  0  0  0  0  0  0  0  0  0  0  0
  141.0089   69.8351  217.7546 H   0  0  0  0  0  0  0  0  0  0  0  0
  139.4721   69.0581  217.5619 H   0  0  0  0  0  0  0  0  0  0  0  0
  139.8007   67.7440  219.6960 H   0  0  0  0  0  0  0  0  0  0  0  0
  137.6104   69.7414  224.8655 H   0  0  0  0  0  0  0  0  0  0  0  0
  137.9201   68.7738  223.4115 H   0  0  0  0  0  0  0  0  0  0  0  0
  138.5397   67.5143  225.5045 H   0  0  0  0  0  0  0  0  0  0  0  0
  139.9793   67.7997  224.5045 H   0  0  0  0  0  0  0  0  0  0  0  0
  139.7671   67.3687  227.5303 H   0  0  0  0  0  0  0  0  0  0  0  0
  140.7656   68.6104  229.4303 H   0  0  0  0  0  0  0  0  0  0  0  0
  141.3773   71.0182  229.2062 H   0  0  0  0  0  0  0  0  0  0  0  0
  140.9587   72.1631  227.0385 H   0  0  0  0  0  0  0  0  0  0  0  0
  139.2214   71.9958  225.0023 H   0  0  0  0  0  0  0  0  0  0  0  0
  140.8785   71.5415  224.4512 H   0  0  0  0  0  0  0  0  0  0  0  0
  139.3080   75.0210  220.2429 H   0  0  0  0  0  0  0  0  0  0  0  0
  139.4174   74.1209  221.7634 H   0  0  0  0  0  0  0  0  0  0  0  0
  141.0350   76.0565  221.7050 H   0  0  0  0  0  0  0  0  0  0  0  0
  141.9069   74.5086  221.8144 H   0  0  0  0  0  0  0  0  0  0  0  0
  142.8656   77.1833  220.7552 H   0  0  0  0  0  0  0  0  0  0  0  0
  144.0319   77.7600  218.6087 H   0  0  0  0  0  0  0  0  0  0  0  0
  143.7375   76.3430  216.6103 H   0  0  0  0  0  0  0  0  0  0  0  0
  142.2848   74.3162  216.6648 H   0  0  0  0  0  0  0  0  0  0  0  0
  140.0805   73.5712  218.0685 H   0  0  0  0  0  0  0  0  0  0  0  0
  141.5272   72.5640  218.4957 H   0  0  0  0  0  0  0  0  0  0  0  0
  142.7509   68.7716  219.3058 H   0  0  0  0  0  0  0  0  0  0  0  0
  142.3328   67.4897  220.3805 H   0  0  0  0  0  0  0  0  0  0  0  0
  145.4934   67.4155  219.3954 H   0  0  0  0  0  0  0  0  0  0  0  0
  146.0260   69.6912  220.2799 H   0  0  0  0  0  0  0  0  0  0  0  0
  1  2  1  0
  2  3  2  0
  2  4  2  0
  2  5  1  0
  5  6  2  0
  6  7  1  0
  7  8  2  0
  8  9  1  0
  9 10  1  0
 10 11  1  0
 11 12  1  0
 12 13  1  0
 13 14  1  0
 14 15  1  0
 15 16  2  0
 16 17  1  0
 17 18  1  0
 18 19  1  0
 19 20  1  0
 20 21  1  0
 21 22  2  0
 22 23  1  0
 23 24  2  0
 24 25  1  0
 25 26  2  0
 26 27  1  0
 17 28  2  0
 28 29  1  0
 29 30  1  0
 30 31  1  0
 31 32  1  0
 32 33  1  0
 33 34  2  0
 34 35  1  0
 35 36  2  0
 36 37  1  0
 37 38  2  0
 38 39  1  0
 29 40  2  0
 14 41  1  0
  8 42  1  0
 42 43  2  0
 43  5  1  0
 41 11  1  0
 40 15  1  0
 27 18  1  0
 39 30  1  0
 26 21  1  0
 38 33  1  0
  1 44  1  0
  1 45  1  0
  6 46  1  0
  7 47  1  0
  9 48  1  0
  9 49  1  0
 10 50  1  0
 10 51  1  0
 12 52  1  0
 12 53  1  0
 13 54  1  0
 13 55  1  0
 14 56  1  6
 19 57  1  0
 19 58  1  0
 20 59  1  0
 20 60  1  0
 22 61  1  0
 23 62  1  0
 24 63  1  0
 25 64  1  0
 27 65  1  0
 27 66  1  0
 31 67  1  0
 31 68  1  0
 32 69  1  0
 32 70  1  0
 34 71  1  0
 35 72  1  0
 36 73  1  0
 37 74  1  0
 39 75  1  0
 39 76  1  0
 41 77  1  0
 41 78  1  0
 42 79  1  0
 43 80  1  0
M  END
>  <smiles>  (32) 
NS(=O)(=O)c1ccc(CCN2CCC(c3nc(N4CCc5ccccc5C4)nc(N4CCc5ccccc5C4)n3)C2)cc1

>  <score_type>  (32) 
oracle

>  <origin>  (32) 
autodockgpu

>  <m_score__min__energy>  (32) 
-11.56

>  <m_primary>  (32) 
energy

>  <rmsd>  (32) 
11.93306900360399

>  <m_score__min__rmsd>  (32) 
11.93306900360399

>  <meeko>  (32) 
{"free_energy": -8.61, "intermolecular_energy": -11.0, "internal_energy": -2.77, "cluster_size": 1, "cluster_id": 15, "rank_in_cluster": 1}

>  <energy>  (32) 
-9.89

>  <cluster_rmsd>  (32) 
1.12

>  <cluster>  (32) 
4

$$$$

     RDKit          3D

 80 86  0  0  1  0  0  0  0  0999 V2000
  144.1700   71.8330  221.0600 N   0  0  0  0  0  0  0  0  0  0  0  0
  145.2310   72.9950  220.3480 S   0  0  0  0  0  0  0  0  0  0  0  0
  146.0810   72.2570  219.3450 O   0  0  0  0  0  0  0  0  0  0  0  0
  146.1430   73.5090  221.4020 O   0  0  0  0  0  0  0  0  0  0  0  0
  144.3710   74.2620  219.5060 C   0  0  0  0  0  0  0  0  0  0  0  0
  144.2930   75.5080  220.1200 C   0  0  0  0  0  0  0  0  0  0  0  0
  143.6070   76.5180  219.4560 C   0  0  0  0  0  0  0  0  0  0  0  0
  143.0090   76.3320  218.2300 C   0  0  0  0  0  0  0  0  0  0  0  0
  142.2670   77.4720  217.5710 C   0  0  0  0  0  0  0  0  0  0  0  0
  140.8560   77.3580  218.0590 C   0  0  0  0  0  0  0  0  0  0  0  0
  140.6140   76.6680  219.2420 N   0  0  0  0  0  0  0  0  0  0  0  0
  141.0470   77.1910  220.4820 C   0  0  0  0  0  0  0  0  0  0  0  0
  141.0960   75.9910  221.4490 C   0  0  0  0  0  0  0  0  0  0  0  0
  140.1940   75.0170  220.7160 C   0  0  2  0  0  0  0  0  0  0  0  0
  140.3040   73.6310  221.1510 C   0  0  0  0  0  0  0  0  0  0  0  0
  139.8940   73.1310  222.3280 N   0  0  0  0  0  0  0  0  0  0  0  0
  140.0390   71.8250  222.6430 C   0  0  0  0  0  0  0  0  0  0  0  0
  139.6070   71.2900  223.8850 N   0  0  0  0  0  0  0  0  0  0  0  0
  138.4310   70.4500  224.0200 C   0  0  0  0  0  0  0  0  0  0  0  0
  138.9330   69.0680  224.4010 C   0  0  0  0  0  0  0  0  0  0  0  0
  139.6900   69.2230  225.6730 C   0  0  0  0  0  0  0  0  0  0  0  0
  139.7170   68.1520  226.5460 C   0  0  0  0  0  0  0  0  0  0  0  0
  140.4140   68.2620  227.7400 C   0  0  0  0  0  0  0  0  0  0  0  0
  141.0920   69.4280  228.0820 C   0  0  0  0  0  0  0  0  0  0  0  0
  141.0520   70.4840  227.1970 C   0  0  0  0  0  0  0  0  0  0  0  0
  140.3600   70.3840  226.0070 C   0  0  0  0  0  0  0  0  0  0  0  0
  140.3590   71.5740  225.0930 C   0  0  0  0  0  0  0  0  0  0  0  0
  140.6190   71.0030  221.7400 N   0  0  0  0  0  0  0  0  0  0  0  0
  141.0480   71.4540  220.5440 C   0  0  0  0  0  0  0  0  0  0  0  0
  141.6640   70.6220  219.5710 N   0  0  0  0  0  0  0  0  0  0  0  0
  142.0500   71.1700  218.2610 C   0  0  0  0  0  0  0  0  0  0  0  0
  143.5670   71.1610  218.2380 C   0  0  0  0  0  0  0  0  0  0  0  0
  144.0020   69.7570  218.4590 C   0  0  0  0  0  0  0  0  0  0  0  0
  145.2280   69.4000  217.8880 C   0  0  0  0  0  0  0  0  0  0  0  0
  145.6700   68.0900  218.0730 C   0  0  0  0  0  0  0  0  0  0  0  0
  144.9090   67.1850  218.7990 C   0  0  0  0  0  0  0  0  0  0  0  0
  143.6930   67.5380  219.3640 C   0  0  0  0  0  0  0  0  0  0  0  0
  143.2620   68.8390  219.1750 C   0  0  0  0  0  0  0  0  0  0  0  0
  141.9590   69.2240  219.7800 C   0  0  0  0  0  0  0  0  0  0  0  0
  140.8800   72.7490  220.2820 N   0  0  0  0  0  0  0  0  0  0  0  0
  140.6880   75.2500  219.2740 C   0  0  0  0  0  0  0  0  0  0  0  0
  143.0890   75.0890  217.6230 C   0  0  0  0  0  0  0  0  0  0  0  0
  143.7720   74.0500  218.2630 C   0  0  0  0  0  0  0  0  0  0  0  0
  144.5180   71.5420  221.9860 H   0  0  0  0  0  0  0  0  0  0  0  0
  143.1690   72.1720  221.0630 H   0  0  0  0  0  0  0  0  0  0  0  0
  144.7594   75.6880  221.0998 H   0  0  0  0  0  0  0  0  0  0  0  0
  143.5390   77.5082  219.9303 H   0  0  0  0  0  0  0  0  0  0  0  0
  142.7011   78.4378  217.8689 H   0  0  0  0  0  0  0  0  0  0  0  0
  142.3273   77.4214  216.4738 H   0  0  0  0  0  0  0  0  0  0  0  0
  140.4772   78.3814  218.1974 H   0  0  0  0  0  0  0  0  0  0  0  0
  140.3541   76.7538  217.2889 H   0  0  0  0  0  0  0  0  0  0  0  0
  142.0451   77.6420  220.3801 H   0  0  0  0  0  0  0  0  0  0  0  0
  140.3717   77.9787  220.8475 H   0  0  0  0  0  0  0  0  0  0  0  0
  142.1173   75.5972  221.5579 H   0  0  0  0  0  0  0  0  0  0  0  0
  140.7882   76.2174  222.4805 H   0  0  0  0  0  0  0  0  0  0  0  0
  139.1202   75.1882  220.8821 H   0  0  0  0  0  0  0  0  0  0  0  0
  137.7697   70.8445  224.8055 H   0  0  0  0  0  0  0  0  0  0  0  0
  137.8524   70.4205  223.0849 H   0  0  0  0  0  0  0  0  0  0  0  0
  138.0845   68.3832  224.5460 H   0  0  0  0  0  0  0  0  0  0  0  0
  139.5710   68.6470  223.6099 H   0  0  0  0  0  0  0  0  0  0  0  0
  139.1898   67.2196  226.2958 H   0  0  0  0  0  0  0  0  0  0  0  0
  140.4312   67.4077  228.4327 H   0  0  0  0  0  0  0  0  0  0  0  0
  141.6436   69.5048  229.0306 H   0  0  0  0  0  0  0  0  0  0  0  0
  141.5783   71.4183  227.4423 H   0  0  0  0  0  0  0  0  0  0  0  0
  139.8998   72.4281  225.6122 H   0  0  0  0  0  0  0  0  0  0  0  0
  141.3974   71.8098  224.8169 H   0  0  0  0  0  0  0  0  0  0  0  0
  141.6512   70.5419  217.4508 H   0  0  0  0  0  0  0  0  0  0  0  0
  141.6495   72.1838  218.1131 H   0  0  0  0  0  0  0  0  0  0  0  0
  143.9312   71.5194  217.2639 H   0  0  0  0  0  0  0  0  0  0  0  0
  143.9731   71.8227  219.0173 H   0  0  0  0  0  0  0  0  0  0  0  0
  145.8221   70.1261  217.3138 H   0  0  0  0  0  0  0  0  0  0  0  0
  146.6297   67.7718  217.6398 H   0  0  0  0  0  0  0  0  0  0  0  0
  145.2810   66.1581  218.9301 H   0  0  0  0  0  0  0  0  0  0  0  0
  143.0961   66.8142  219.9383 H   0  0  0  0  0  0  0  0  0  0  0  0
  141.1616   68.6195  219.3231 H   0  0  0  0  0  0  0  0  0  0  0  0
  142.0185   69.0450  220.8637 H   0  0  0  0  0  0  0  0  0  0  0  0
  141.7157   74.8869  219.1260 H   0  0  0  0  0  0  0  0  0  0  0  0
  140.1211   74.7282  218.4889 H   0  0  0  0  0  0  0  0  0  0  0  0
  142.6180   74.9204  216.6433 H   0  0  0  0  0  0  0  0  0  0  0  0
  143.8375   73.0615  217.7849 H   0  0  0  0  0  0  0  0  0  0  0  0
  1  2  1  0
  2  3  2  0
  2  4  2  0
  2  5  1  0
  5  6  2  0
  6  7  1  0
  7  8  2  0
  8  9  1  0
  9 10  1  0
 10 11  1  0
 11 12  1  0
 12 13  1  0
 13 14  1  0
 14 15  1  0
 15 16  2  0
 16 17  1  0
 17 18  1  0
 18 19  1  0
 19 20  1  0
 20 21  1  0
 21 22  2  0
 22 23  1  0
 23 24  2  0
 24 25  1  0
 25 26  2  0
 26 27  1  0
 17 28  2  0
 28 29  1  0
 29 30  1  0
 30 31  1  0
 31 32  1  0
 32 33  1  0
 33 34  2  0
 34 35  1  0
 35 36  2  0
 36 37  1  0
 37 38  2  0
 38 39  1  0
 29 40  2  0
 14 41  1  0
  8 42  1  0
 42 43  2  0
 43  5  1  0
 41 11  1  0
 40 15  1  0
 27 18  1  0
 39 30  1  0
 26 21  1  0
 38 33  1  0
  1 44  1  0
  1 45  1  0
  6 46  1  0
  7 47  1  0
  9 48  1  0
  9 49  1  0
 10 50  1  0
 10 51  1  0
 12 52  1  0
 12 53  1  0
 13 54  1  0
 13 55  1  0
 14 56  1  6
 19 57  1  0
 19 58  1  0
 20 59  1  0
 20 60  1  0
 22 61  1  0
 23 62  1  0
 24 63  1  0
 25 64  1  0
 27 65  1  0
 27 66  1  0
 31 67  1  0
 31 68  1  0
 32 69  1  0
 32 70  1  0
 34 71  1  0
 35 72  1  0
 36 73  1  0
 37 74  1  0
 39 75  1  0
 39 76  1  0
 41 77  1  0
 41 78  1  0
 42 79  1  0
 43 80  1  0
M  END
>  <smiles>  (33) 
NS(=O)(=O)c1ccc(CCN2CCC(c3nc(N4CCc5ccccc5C4)nc(N4CCc5ccccc5C4)n3)C2)cc1

>  <score_type>  (33) 
oracle

>  <origin>  (33) 
autodockgpu

>  <m_score__min__energy>  (33) 
-11.56

>  <m_primary>  (33) 
energy

>  <rmsd>  (33) 
5.964513054827478

>  <m_score__min__rmsd>  (33) 
5.964513054827478

>  <meeko>  (33) 
{"free_energy": -10.45, "intermolecular_energy": -12.84, "internal_energy": -2.31, "cluster_size": 2, "cluster_id": 4, "rank_in_cluster": 1}

>  <energy>  (33) 
-10.42

>  <cluster_rmsd>  (33) 
0.0

>  <cluster>  (33) 
5

$$$$

     RDKit          3D

 80 86  0  0  1  0  0  0  0  0999 V2000
  136.0950   81.6040  227.8290 N   0  0  0  0  0  0  0  0  0  0  0  0
  135.9130   82.3140  226.2650 S   0  0  0  0  0  0  0  0  0  0  0  0
  136.1860   83.7890  226.4190 O   0  0  0  0  0  0  0  0  0  0  0  0
  134.4960   82.1720  225.8440 O   0  0  0  0  0  0  0  0  0  0  0  0
  137.0450   81.6700  225.1000 C   0  0  0  0  0  0  0  0  0  0  0  0
  137.1560   82.3240  223.8770 C   0  0  0  0  0  0  0  0  0  0  0  0
  138.0520   81.8130  222.9450 C   0  0  0  0  0  0  0  0  0  0  0  0
  138.8230   80.6980  223.1860 C   0  0  0  0  0  0  0  0  0  0  0  0
  139.7680   80.1900  222.1210 C   0  0  0  0  0  0  0  0  0  0  0  0
  140.3590   78.9350  222.6860 C   0  0  0  0  0  0  0  0  0  0  0  0
  139.9410   77.7120  222.1720 N   0  0  0  0  0  0  0  0  0  0  0  0
  138.5790   77.3400  222.2150 C   0  0  0  0  0  0  0  0  0  0  0  0
  138.5580   75.8060  222.0720 C   0  0  0  0  0  0  0  0  0  0  0  0
  139.9280   75.5720  221.4670 C   0  0  2  0  0  0  0  0  0  0  0  0
  140.4060   74.1980  221.5410 C   0  0  0  0  0  0  0  0  0  0  0  0
  141.2180   73.5900  220.6600 N   0  0  0  0  0  0  0  0  0  0  0  0
  141.6100   72.3060  220.8120 C   0  0  0  0  0  0  0  0  0  0  0  0
  142.4690   71.6570  219.8860 N   0  0  0  0  0  0  0  0  0  0  0  0
  143.4140   72.3710  219.0480 C   0  0  0  0  0  0  0  0  0  0  0  0
  144.7990   71.9750  219.5330 C   0  0  0  0  0  0  0  0  0  0  0  0
  144.8940   70.4960  219.3950 C   0  0  0  0  0  0  0  0  0  0  0  0
  146.1400   69.9470  219.1580 C   0  0  0  0  0  0  0  0  0  0  0  0
  146.2660   68.5720  219.0250 C   0  0  0  0  0  0  0  0  0  0  0  0
  145.1640   67.7280  219.1280 C   0  0  0  0  0  0  0  0  0  0  0  0
  143.9320   68.2960  219.3650 C   0  0  0  0  0  0  0  0  0  0  0  0
  143.7970   69.6640  219.4970 C   0  0  0  0  0  0  0  0  0  0  0  0
  142.4240   70.2130  219.7530 C   0  0  0  0  0  0  0  0  0  0  0  0
  141.1640   71.6180  221.8870 N   0  0  0  0  0  0  0  0  0  0  0  0
  140.3480   72.1810  222.8010 C   0  0  0  0  0  0  0  0  0  0  0  0
  139.8560   71.4900  223.9400 N   0  0  0  0  0  0  0  0  0  0  0  0
  138.6440   70.6610  223.8420 C   0  0  0  0  0  0  0  0  0  0  0  0
  139.1060   69.2270  224.0180 C   0  0  0  0  0  0  0  0  0  0  0  0
  139.7910   69.1430  225.3340 C   0  0  0  0  0  0  0  0  0  0  0  0
  139.7450   67.8980  225.9700 C   0  0  0  0  0  0  0  0  0  0  0  0
  140.3760   67.7800  227.2080 C   0  0  0  0  0  0  0  0  0  0  0  0
  141.0210   68.8690  227.7760 C   0  0  0  0  0  0  0  0  0  0  0  0
  141.0670   70.1040  227.1480 C   0  0  0  0  0  0  0  0  0  0  0  0
  140.4380   70.2120  225.9200 C   0  0  0  0  0  0  0  0  0  0  0  0
  140.4840   71.5340  225.2400 C   0  0  0  0  0  0  0  0  0  0  0  0
  139.9920   73.4490  222.6050 N   0  0  0  0  0  0  0  0  0  0  0  0
  140.7530   76.5560  222.3230 C   0  0  0  0  0  0  0  0  0  0  0  0
  138.7080   80.0500  224.4050 C   0  0  0  0  0  0  0  0  0  0  0  0
  137.8170   80.5370  225.3660 C   0  0  0  0  0  0  0  0  0  0  0  0
  136.1230   80.5760  227.7610 H   0  0  0  0  0  0  0  0  0  0  0  0
  136.9120   82.0240  228.3530 H   0  0  0  0  0  0  0  0  0  0  0  0
  136.5538   83.2172  223.6546 H   0  0  0  0  0  0  0  0  0  0  0  0
  138.1491   82.3209  221.9741 H   0  0  0  0  0  0  0  0  0  0  0  0
  139.2212   79.9742  221.1913 H   0  0  0  0  0  0  0  0  0  0  0  0
  140.5409   80.9313  221.8698 H   0  0  0  0  0  0  0  0  0  0  0  0
  141.4474   78.9939  222.5380 H   0  0  0  0  0  0  0  0  0  0  0  0
  140.0105   78.9206  223.7293 H   0  0  0  0  0  0  0  0  0  0  0  0
  138.1296   77.6416  223.1726 H   0  0  0  0  0  0  0  0  0  0  0  0
  138.0004   77.8289  221.4173 H   0  0  0  0  0  0  0  0  0  0  0  0
  138.4531   75.3077  223.0470 H   0  0  0  0  0  0  0  0  0  0  0  0
  137.7195   75.4100  221.4803 H   0  0  0  0  0  0  0  0  0  0  0  0
  139.9724   75.7357  220.3801 H   0  0  0  0  0  0  0  0  0  0  0  0
  143.2825   72.0826  217.9947 H   0  0  0  0  0  0  0  0  0  0  0  0
  143.2636   73.4587  219.1133 H   0  0  0  0  0  0  0  0  0  0  0  0
  145.5698   72.4633  218.9186 H   0  0  0  0  0  0  0  0  0  0  0  0
  144.9567   72.2859  220.5763 H   0  0  0  0  0  0  0  0  0  0  0  0
  147.0248   70.5953  219.0755 H   0  0  0  0  0  0  0  0  0  0  0  0
  147.2590   68.1390  218.8338 H   0  0  0  0  0  0  0  0  0  0  0  0
  145.2740   66.6385  219.0231 H   0  0  0  0  0  0  0  0  0  0  0  0
  143.0444   67.6519  219.4502 H   0  0  0  0  0  0  0  0  0  0  0  0
  141.7658   69.9475  218.9126 H   0  0  0  0  0  0  0  0  0  0  0  0
  142.0382   69.7822  220.6887 H   0  0  0  0  0  0  0  0  0  0  0  0
  137.9296   70.9327  224.6331 H   0  0  0  0  0  0  0  0  0  0  0  0
  138.1327   70.8053  222.8788 H   0  0  0  0  0  0  0  0  0  0  0  0
  138.2410   68.5477  223.9996 H   0  0  0  0  0  0  0  0  0  0  0  0
  139.7864   68.9340  223.2049 H   0  0  0  0  0  0  0  0  0  0  0  0
  139.2293   67.0422  225.5099 H   0  0  0  0  0  0  0  0  0  0  0  0
  140.3622   66.8162  227.7381 H   0  0  0  0  0  0  0  0  0  0  0  0
  141.5105   68.7490  228.7538 H   0  0  0  0  0  0  0  0  0  0  0  0
  141.5815   70.9615  227.6062 H   0  0  0  0  0  0  0  0  0  0  0  0
  139.9605   72.2737  225.8636 H   0  0  0  0  0  0  0  0  0  0  0  0
  141.5395   71.8107  225.1009 H   0  0  0  0  0  0  0  0  0  0  0  0
  140.8213   76.2335  223.3724 H   0  0  0  0  0  0  0  0  0  0  0  0
  141.8059   76.6741  222.0274 H   0  0  0  0  0  0  0  0  0  0  0  0
  139.3146   79.1569  224.6157 H   0  0  0  0  0  0  0  0  0  0  0  0
  137.7237   80.0257  226.3355 H   0  0  0  0  0  0  0  0  0  0  0  0
  1  2  1  0
  2  3  2  0
  2  4  2  0
  2  5  1  0
  5  6  2  0
  6  7  1  0
  7  8  2  0
  8  9  1  0
  9 10  1  0
 10 11  1  0
 11 12  1  0
 12 13  1  0
 13 14  1  0
 14 15  1  0
 15 16  2  0
 16 17  1  0
 17 18  1  0
 18 19  1  0
 19 20  1  0
 20 21  1  0
 21 22  2  0
 22 23  1  0
 23 24  2  0
 24 25  1  0
 25 26  2  0
 26 27  1  0
 17 28  2  0
 28 29  1  0
 29 30  1  0
 30 31  1  0
 31 32  1  0
 32 33  1  0
 33 34  2  0
 34 35  1  0
 35 36  2  0
 36 37  1  0
 37 38  2  0
 38 39  1  0
 29 40  2  0
 14 41  1  0
  8 42  1  0
 42 43  2  0
 43  5  1  0
 41 11  1  0
 40 15  1  0
 27 18  1  0
 39 30  1  0
 26 21  1  0
 38 33  1  0
  1 44  1  0
  1 45  1  0
  6 46  1  0
  7 47  1  0
  9 48  1  0
  9 49  1  0
 10 50  1  0
 10 51  1  0
 12 52  1  0
 12 53  1  0
 13 54  1  0
 13 55  1  0
 14 56  1  6
 19 57  1  0
 19 58  1  0
 20 59  1  0
 20 60  1  0
 22 61  1  0
 23 62  1  0
 24 63  1  0
 25 64  1  0
 27 65  1  0
 27 66  1  0
 31 67  1  0
 31 68  1  0
 32 69  1  0
 32 70  1  0
 34 71  1  0
 35 72  1  0
 36 73  1  0
 37 74  1  0
 39 75  1  0
 39 76  1  0
 41 77  1  0
 41 78  1  0
 42 79  1  0
 43 80  1  0
M  END
>  <smiles>  (34) 
NS(=O)(=O)c1ccc(CCN2CCC(c3nc(N4CCc5ccccc5C4)nc(N4CCc5ccccc5C4)n3)C2)cc1

>  <score_type>  (34) 
oracle

>  <origin>  (34) 
autodockgpu

>  <m_score__min__energy>  (34) 
-11.56

>  <m_primary>  (34) 
energy

>  <rmsd>  (34) 
4.077594031788447

>  <m_score__min__rmsd>  (34) 
4.077594031788447

>  <meeko>  (34) 
{"free_energy": -11.24, "intermolecular_energy": -13.63, "internal_energy": -1.47, "cluster_size": 14, "cluster_id": 2, "rank_in_cluster": 2}

>  <energy>  (34) 
-10.37

>  <cluster_rmsd>  (34) 
0.0

>  <cluster>  (34) 
6

$$$$

     RDKit          3D

 80 86  0  0  1  0  0  0  0  0999 V2000
  136.6160   81.4500  227.8520 N   0  0  0  0  0  0  0  0  0  0  0  0
  136.1080   82.0860  226.3280 S   0  0  0  0  0  0  0  0  0  0  0  0
  136.1490   83.5880  226.4440 O   0  0  0  0  0  0  0  0  0  0  0  0
  134.6910   81.7020  226.1060 O   0  0  0  0  0  0  0  0  0  0  0  0
  137.1630   81.6110  225.0180 C   0  0  0  0  0  0  0  0  0  0  0  0
  138.0480   80.5630  225.2490 C   0  0  0  0  0  0  0  0  0  0  0  0
  138.8920   80.1830  224.2110 C   0  0  0  0  0  0  0  0  0  0  0  0
  138.8840   80.8000  222.9810 C   0  0  0  0  0  0  0  0  0  0  0  0
  139.8390   80.3440  221.9010 C   0  0  0  0  0  0  0  0  0  0  0  0
  140.4750   79.0990  222.4380 C   0  0  0  0  0  0  0  0  0  0  0  0
  140.0580   77.8700  221.9380 N   0  0  0  0  0  0  0  0  0  0  0  0
  138.6870   77.6090  221.7170 C   0  0  0  0  0  0  0  0  0  0  0  0
  138.5510   76.0740  221.6850 C   0  0  0  0  0  0  0  0  0  0  0  0
  139.9890   75.6820  221.4060 C   0  0  2  0  0  0  0  0  0  0  0  0
  140.3100   74.2880  221.6800 C   0  0  0  0  0  0  0  0  0  0  0  0
  139.8580   73.5540  222.7110 N   0  0  0  0  0  0  0  0  0  0  0  0
  140.2120   72.2620  222.8830 C   0  0  0  0  0  0  0  0  0  0  0  0
  139.7380   71.4810  223.9700 N   0  0  0  0  0  0  0  0  0  0  0  0
  138.5810   70.6100  223.8740 C   0  0  0  0  0  0  0  0  0  0  0  0
  139.1040   69.1890  223.9990 C   0  0  0  0  0  0  0  0  0  0  0  0
  139.7960   69.1020  225.3140 C   0  0  0  0  0  0  0  0  0  0  0  0
  139.8130   67.8780  225.9560 C   0  0  0  0  0  0  0  0  0  0  0  0
  140.4500   67.7610  227.1830 C   0  0  0  0  0  0  0  0  0  0  0  0
  141.0770   68.8470  227.7840 C   0  0  0  0  0  0  0  0  0  0  0  0
  141.0490   70.0580  227.1260 C   0  0  0  0  0  0  0  0  0  0  0  0
  140.4160   70.1840  225.9050 C   0  0  0  0  0  0  0  0  0  0  0  0
  140.4240   71.5330  225.2470 C   0  0  0  0  0  0  0  0  0  0  0  0
  141.0500   71.6970  221.9850 N   0  0  0  0  0  0  0  0  0  0  0  0
  141.5320   72.3880  220.9320 C   0  0  0  0  0  0  0  0  0  0  0  0
  142.4170   71.8300  219.9710 N   0  0  0  0  0  0  0  0  0  0  0  0
  143.4220   72.6740  219.3070 C   0  0  0  0  0  0  0  0  0  0  0  0
  144.7680   72.1960  219.8190 C   0  0  0  0  0  0  0  0  0  0  0  0
  144.8770   70.7510  219.4870 C   0  0  0  0  0  0  0  0  0  0  0  0
  146.1740   70.2650  219.2900 C   0  0  0  0  0  0  0  0  0  0  0  0
  146.3170   68.9130  218.9770 C   0  0  0  0  0  0  0  0  0  0  0  0
  145.2030   68.0940  218.8670 C   0  0  0  0  0  0  0  0  0  0  0  0
  143.9170   68.5760  219.0610 C   0  0  0  0  0  0  0  0  0  0  0  0
  143.7850   69.9170  219.3720 C   0  0  0  0  0  0  0  0  0  0  0  0
  142.4080   70.4390  219.5830 C   0  0  0  0  0  0  0  0  0  0  0  0
  141.1520   73.6580  220.8070 N   0  0  0  0  0  0  0  0  0  0  0  0
  140.7080   76.6730  222.3430 C   0  0  0  0  0  0  0  0  0  0  0  0
  138.0010   81.8440  222.7560 C   0  0  0  0  0  0  0  0  0  0  0  0
  137.1370   82.2520  223.7770 C   0  0  0  0  0  0  0  0  0  0  0  0
  136.6870   82.2020  228.5530 H   0  0  0  0  0  0  0  0  0  0  0  0
  136.0130   80.6360  228.1520 H   0  0  0  0  0  0  0  0  0  0  0  0
  138.0793   80.0509  226.2220 H   0  0  0  0  0  0  0  0  0  0  0  0
  139.5955   79.3545  224.3803 H   0  0  0  0  0  0  0  0  0  0  0  0
  139.2938   80.1279  220.9704 H   0  0  0  0  0  0  0  0  0  0  0  0
  140.5853   81.1154  221.6601 H   0  0  0  0  0  0  0  0  0  0  0  0
  141.5552   79.1777  222.2458 H   0  0  0  0  0  0  0  0  0  0  0  0
  140.1703   79.0762  223.4947 H   0  0  0  0  0  0  0  0  0  0  0  0
  138.0807   78.0303  222.5324 H   0  0  0  0  0  0  0  0  0  0  0  0
  138.3338   78.0661  220.7809 H   0  0  0  0  0  0  0  0  0  0  0  0
  138.2000   75.6761  222.6486 H   0  0  0  0  0  0  0  0  0  0  0  0
  137.8194   75.6910  220.9583 H   0  0  0  0  0  0  0  0  0  0  0  0
  140.2723   75.7424  220.3448 H   0  0  0  0  0  0  0  0  0  0  0  0
  137.8722   70.8276  224.6866 H   0  0  0  0  0  0  0  0  0  0  0  0
  138.0481   70.7572  222.9230 H   0  0  0  0  0  0  0  0  0  0  0  0
  138.2695   68.4733  223.9616 H   0  0  0  0  0  0  0  0  0  0  0  0
  139.7899   68.9459  223.1741 H   0  0  0  0  0  0  0  0  0  0  0  0
  139.3258   67.0045  225.4982 H   0  0  0  0  0  0  0  0  0  0  0  0
  140.4593   66.7861  227.6924 H   0  0  0  0  0  0  0  0  0  0  0  0
  141.5807   68.7427  228.7563 H   0  0  0  0  0  0  0  0  0  0  0  0
  141.5364   70.9341  227.5787 H   0  0  0  0  0  0  0  0  0  0  0  0
  139.9166   72.2575  225.9010 H   0  0  0  0  0  0  0  0  0  0  0  0
  141.4668   71.8394  225.0777 H   0  0  0  0  0  0  0  0  0  0  0  0
  143.3627   72.5530  218.2153 H   0  0  0  0  0  0  0  0  0  0  0  0
  143.2620   73.7404  219.5244 H   0  0  0  0  0  0  0  0  0  0  0  0
  145.5780   72.7571  219.3301 H   0  0  0  0  0  0  0  0  0  0  0  0
  144.8515   72.3546  220.9043 H   0  0  0  0  0  0  0  0  0  0  0  0
  147.0495   70.9251  219.3787 H   0  0  0  0  0  0  0  0  0  0  0  0
  147.3210   68.4933  218.8162 H   0  0  0  0  0  0  0  0  0  0  0  0
  145.3435   67.0316  218.6188 H   0  0  0  0  0  0  0  0  0  0  0  0
  143.0391   67.9193  218.9713 H   0  0  0  0  0  0  0  0  0  0  0  0
  141.8397   70.3338  218.6471 H   0  0  0  0  0  0  0  0  0  0  0  0
  141.9427   69.8600  220.3943 H   0  0  0  0  0  0  0  0  0  0  0  0
  140.5273   76.4436  223.4035 H   0  0  0  0  0  0  0  0  0  0  0  0
  141.8056   76.6820  222.2710 H   0  0  0  0  0  0  0  0  0  0  0  0
  137.9798   82.3493  221.7791 H   0  0  0  0  0  0  0  0  0  0  0  0
  136.4346   83.0803  223.6024 H   0  0  0  0  0  0  0  0  0  0  0  0
  1  2  1  0
  2  3  2  0
  2  4  2  0
  2  5  1  0
  5  6  2  0
  6  7  1  0
  7  8  2  0
  8  9  1  0
  9 10  1  0
 10 11  1  0
 11 12  1  0
 12 13  1  0
 13 14  1  0
 14 15  1  0
 15 16  2  0
 16 17  1  0
 17 18  1  0
 18 19  1  0
 19 20  1  0
 20 21  1  0
 21 22  2  0
 22 23  1  0
 23 24  2  0
 24 25  1  0
 25 26  2  0
 26 27  1  0
 17 28  2  0
 28 29  1  0
 29 30  1  0
 30 31  1  0
 31 32  1  0
 32 33  1  0
 33 34  2  0
 34 35  1  0
 35 36  2  0
 36 37  1  0
 37 38  2  0
 38 39  1  0
 29 40  2  0
 14 41  1  0
  8 42  1  0
 42 43  2  0
 43  5  1  0
 41 11  1  0
 40 15  1  0
 27 18  1  0
 39 30  1  0
 26 21  1  0
 38 33  1  0
  1 44  1  0
  1 45  1  0
  6 46  1  0
  7 47  1  0
  9 48  1  0
  9 49  1  0
 10 50  1  0
 10 51  1  0
 12 52  1  0
 12 53  1  0
 13 54  1  0
 13 55  1  0
 14 56  1  6
 19 57  1  0
 19 58  1  0
 20 59  1  0
 20 60  1  0
 22 61  1  0
 23 62  1  0
 24 63  1  0
 25 64  1  0
 27 65  1  0
 27 66  1  0
 31 67  1  0
 31 68  1  0
 32 69  1  0
 32 70  1  0
 34 71  1  0
 35 72  1  0
 36 73  1  0
 37 74  1  0
 39 75  1  0
 39 76  1  0
 41 77  1  0
 41 78  1  0
 42 79  1  0
 43 80  1  0
M  END
>  <smiles>  (35) 
NS(=O)(=O)c1ccc(CCN2CCC(c3nc(N4CCc5ccccc5C4)nc(N4CCc5ccccc5C4)n3)C2)cc1

>  <score_type>  (35) 
oracle

>  <origin>  (35) 
autodockgpu

>  <m_score__min__energy>  (35) 
-11.56

>  <m_primary>  (35) 
energy

>  <rmsd>  (35) 
4.0494193536149785

>  <m_score__min__rmsd>  (35) 
4.0494193536149785

>  <meeko>  (35) 
{"free_energy": -11.22, "intermolecular_energy": -13.61, "internal_energy": -1.48, "cluster_size": 14, "cluster_id": 2, "rank_in_cluster": 4}

>  <energy>  (35) 
-10.36

>  <cluster_rmsd>  (35) 
0.9

>  <cluster>  (35) 
6

$$$$

     RDKit          3D

 80 86  0  0  1  0  0  0  0  0999 V2000
  136.5590   81.5660  227.9770 N   0  0  0  0  0  0  0  0  0  0  0  0
  136.1730   82.0890  226.3760 S   0  0  0  0  0  0  0  0  0  0  0  0
  136.9420   83.3620  226.1330 O   0  0  0  0  0  0  0  0  0  0  0  0
  134.7290   82.4330  226.3280 O   0  0  0  0  0  0  0  0  0  0  0  0
  136.6430   80.9270  225.1590 C   0  0  0  0  0  0  0  0  0  0  0  0
  138.0000   80.8020  224.8750 C   0  0  0  0  0  0  0  0  0  0  0  0
  138.3790   79.8820  223.9050 C   0  0  0  0  0  0  0  0  0  0  0  0
  137.4740   79.1000  223.2240 C   0  0  0  0  0  0  0  0  0  0  0  0
  137.9560   78.1280  222.1710 C   0  0  0  0  0  0  0  0  0  0  0  0
  139.3550   78.5560  221.8520 C   0  0  0  0  0  0  0  0  0  0  0  0
  140.2700   77.5910  221.4430 N   0  0  0  0  0  0  0  0  0  0  0  0
  140.8700   77.6640  220.1660 C   0  0  0  0  0  0  0  0  0  0  0  0
  141.3720   76.2400  219.8560 C   0  0  0  0  0  0  0  0  0  0  0  0
  141.4080   75.6560  221.2550 C   0  0  2  0  0  0  0  0  0  0  0  0
  141.4790   74.2030  221.3140 C   0  0  0  0  0  0  0  0  0  0  0  0
  142.1440   73.4030  220.4630 N   0  0  0  0  0  0  0  0  0  0  0  0
  142.1510   72.0590  220.5980 C   0  0  0  0  0  0  0  0  0  0  0  0
  142.8530   71.2080  219.7030 N   0  0  0  0  0  0  0  0  0  0  0  0
  143.9100   71.6780  218.8280 C   0  0  0  0  0  0  0  0  0  0  0  0
  145.1950   71.0390  219.3280 C   0  0  0  0  0  0  0  0  0  0  0  0
  144.9930   69.5660  219.2640 C   0  0  0  0  0  0  0  0  0  0  0  0
  146.1030   68.7690  219.0520 C   0  0  0  0  0  0  0  0  0  0  0  0
  145.9510   67.3910  218.9880 C   0  0  0  0  0  0  0  0  0  0  0  0
  144.7060   66.7900  219.1360 C   0  0  0  0  0  0  0  0  0  0  0  0
  143.6130   67.6020  219.3480 C   0  0  0  0  0  0  0  0  0  0  0  0
  143.7540   68.9750  219.4120 C   0  0  0  0  0  0  0  0  0  0  0  0
  142.5210   69.7970  219.6430 C   0  0  0  0  0  0  0  0  0  0  0  0
  141.4640   71.5090  221.6240 N   0  0  0  0  0  0  0  0  0  0  0  0
  140.7810   72.2660  222.5070 C   0  0  0  0  0  0  0  0  0  0  0  0
  140.0450   71.7250  223.5950 N   0  0  0  0  0  0  0  0  0  0  0  0
  138.7900   70.9950  223.3540 C   0  0  0  0  0  0  0  0  0  0  0  0
  139.0750   69.5490  223.7140 C   0  0  0  0  0  0  0  0  0  0  0  0
  139.5250   69.5290  225.1310 C   0  0  0  0  0  0  0  0  0  0  0  0
  139.2540   68.3550  225.8420 C   0  0  0  0  0  0  0  0  0  0  0  0
  139.6600   68.2980  227.1750 C   0  0  0  0  0  0  0  0  0  0  0  0
  140.3070   69.3770  227.7610 C   0  0  0  0  0  0  0  0  0  0  0  0
  140.5750   70.5410  227.0570 C   0  0  0  0  0  0  0  0  0  0  0  0
  140.1690   70.5890  225.7360 C   0  0  0  0  0  0  0  0  0  0  0  0
  140.4540   71.8350  224.9760 C   0  0  0  0  0  0  0  0  0  0  0  0
  140.8060   73.5860  222.3300 N   0  0  0  0  0  0  0  0  0  0  0  0
  140.0850   76.2300  221.8030 C   0  0  0  0  0  0  0  0  0  0  0  0
  136.1240   79.2290  223.5100 C   0  0  0  0  0  0  0  0  0  0  0  0
  135.7060   80.1440  224.4800 C   0  0  0  0  0  0  0  0  0  0  0  0
  136.5960   82.3680  228.6220 H   0  0  0  0  0  0  0  0  0  0  0  0
  135.9190   80.7860  228.2940 H   0  0  0  0  0  0  0  0  0  0  0  0
  138.7485   81.4121  225.4017 H   0  0  0  0  0  0  0  0  0  0  0  0
  139.4485   79.7741  223.6713 H   0  0  0  0  0  0  0  0  0  0  0  0
  137.9469   77.0999  222.5621 H   0  0  0  0  0  0  0  0  0  0  0  0
  137.3110   78.1343  221.2799 H   0  0  0  0  0  0  0  0  0  0  0  0
  139.2899   79.3029  221.0471 H   0  0  0  0  0  0  0  0  0  0  0  0
  139.7525   78.9116  222.8141 H   0  0  0  0  0  0  0  0  0  0  0  0
  140.1330   77.9825  219.4141 H   0  0  0  0  0  0  0  0  0  0  0  0
  141.6907   78.3961  220.1455 H   0  0  0  0  0  0  0  0  0  0  0  0
  140.6729   75.6946  219.2050 H   0  0  0  0  0  0  0  0  0  0  0  0
  142.3280   76.1963  219.3136 H   0  0  0  0  0  0  0  0  0  0  0  0
  142.3109   75.9172  221.8264 H   0  0  0  0  0  0  0  0  0  0  0  0
  143.7105   71.3706  217.7909 H   0  0  0  0  0  0  0  0  0  0  0  0
  143.9792   72.7758  218.8394 H   0  0  0  0  0  0  0  0  0  0  0  0
  146.0393   71.3341  218.6876 H   0  0  0  0  0  0  0  0  0  0  0  0
  145.4248   71.3627  220.3539 H   0  0  0  0  0  0  0  0  0  0  0  0
  147.0979   69.2233  218.9351 H   0  0  0  0  0  0  0  0  0  0  0  0
  146.8355   66.7600  218.8163 H   0  0  0  0  0  0  0  0  0  0  0  0
  144.5965   65.6966  219.0853 H   0  0  0  0  0  0  0  0  0  0  0  0
  142.6165   67.1518  219.4677 H   0  0  0  0  0  0  0  0  0  0  0  0
  141.8131   69.6267  218.8185 H   0  0  0  0  0  0  0  0  0  0  0  0
  142.0688   69.4976  220.6000 H   0  0  0  0  0  0  0  0  0  0  0  0
  137.9860   71.3961  223.9886 H   0  0  0  0  0  0  0  0  0  0  0  0
  138.4592   71.0938  222.3096 H   0  0  0  0  0  0  0  0  0  0  0  0
  138.1625   68.9453  223.5998 H   0  0  0  0  0  0  0  0  0  0  0  0
  139.8466   69.1270  223.0533 H   0  0  0  0  0  0  0  0  0  0  0  0
  138.7391   67.5072  225.3666 H   0  0  0  0  0  0  0  0  0  0  0  0
  139.4660   67.3910  227.7664 H   0  0  0  0  0  0  0  0  0  0  0  0
  140.6161   69.3067  228.8143 H   0  0  0  0  0  0  0  0  0  0  0  0
  141.0891   71.3909  227.5296 H   0  0  0  0  0  0  0  0  0  0  0  0
  139.9105   72.6695  225.4432 H   0  0  0  0  0  0  0  0  0  0  0  0
  141.5399   72.0092  224.9987 H   0  0  0  0  0  0  0  0  0  0  0  0
  139.2072   75.7879  221.3090 H   0  0  0  0  0  0  0  0  0  0  0  0
  139.8935   76.0438  222.8701 H   0  0  0  0  0  0  0  0  0  0  0  0
  135.3849   78.6139  222.9758 H   0  0  0  0  0  0  0  0  0  0  0  0
  134.6353   80.2482  224.7098 H   0  0  0  0  0  0  0  0  0  0  0  0
  1  2  1  0
  2  3  2  0
  2  4  2  0
  2  5  1  0
  5  6  2  0
  6  7  1  0
  7  8  2  0
  8  9  1  0
  9 10  1  0
 10 11  1  0
 11 12  1  0
 12 13  1  0
 13 14  1  0
 14 15  1  0
 15 16  2  0
 16 17  1  0
 17 18  1  0
 18 19  1  0
 19 20  1  0
 20 21  1  0
 21 22  2  0
 22 23  1  0
 23 24  2  0
 24 25  1  0
 25 26  2  0
 26 27  1  0
 17 28  2  0
 28 29  1  0
 29 30  1  0
 30 31  1  0
 31 32  1  0
 32 33  1  0
 33 34  2  0
 34 35  1  0
 35 36  2  0
 36 37  1  0
 37 38  2  0
 38 39  1  0
 29 40  2  0
 14 41  1  0
  8 42  1  0
 42 43  2  0
 43  5  1  0
 41 11  1  0
 40 15  1  0
 27 18  1  0
 39 30  1  0
 26 21  1  0
 38 33  1  0
  1 44  1  0
  1 45  1  0
  6 46  1  0
  7 47  1  0
  9 48  1  0
  9 49  1  0
 10 50  1  0
 10 51  1  0
 12 52  1  0
 12 53  1  0
 13 54  1  0
 13 55  1  0
 14 56  1  1
 19 57  1  0
 19 58  1  0
 20 59  1  0
 20 60  1  0
 22 61  1  0
 23 62  1  0
 24 63  1  0
 25 64  1  0
 27 65  1  0
 27 66  1  0
 31 67  1  0
 31 68  1  0
 32 69  1  0
 32 70  1  0
 34 71  1  0
 35 72  1  0
 36 73  1  0
 37 74  1  0
 39 75  1  0
 39 76  1  0
 41 77  1  0
 41 78  1  0
 42 79  1  0
 43 80  1  0
M  END
>  <smiles>  (36) 
NS(=O)(=O)c1ccc(CCN2CCC(c3nc(N4CCc5ccccc5C4)nc(N4CCc5ccccc5C4)n3)C2)cc1

>  <score_type>  (36) 
oracle

>  <origin>  (36) 
autodockgpu

>  <m_score__min__energy>  (36) 
-11.56

>  <m_primary>  (36) 
energy

>  <rmsd>  (36) 
3.836295564498691

>  <m_score__min__rmsd>  (36) 
3.836295564498691

>  <meeko>  (36) 
{"free_energy": -10.92, "intermolecular_energy": -13.31, "internal_energy": -1.39, "cluster_size": 14, "cluster_id": 2, "rank_in_cluster": 7}

>  <energy>  (36) 
-10.33

>  <cluster_rmsd>  (36) 
0.0

>  <cluster>  (36) 
7

$$$$

     RDKit          3D

 80 86  0  0  1  0  0  0  0  0999 V2000
  143.2350   79.8150  222.9230 N   0  0  0  0  0  0  0  0  0  0  0  0
  141.9270   80.9310  223.0960 S   0  0  0  0  0  0  0  0  0  0  0  0
  142.1990   82.0750  222.1530 O   0  0  0  0  0  0  0  0  0  0  0  0
  141.9570   81.4820  224.4750 O   0  0  0  0  0  0  0  0  0  0  0  0
  140.3850   80.2280  222.6700 C   0  0  0  0  0  0  0  0  0  0  0  0
  139.7810   80.6610  221.4930 C   0  0  0  0  0  0  0  0  0  0  0  0
  138.5530   80.1080  221.1510 C   0  0  0  0  0  0  0  0  0  0  0  0
  137.9210   79.1600  221.9240 C   0  0  0  0  0  0  0  0  0  0  0  0
  136.5790   78.6110  221.4980 C   0  0  0  0  0  0  0  0  0  0  0  0
  136.8930   77.4100  220.6600 C   0  0  0  0  0  0  0  0  0  0  0  0
  138.1540   76.8330  220.7690 N   0  0  0  0  0  0  0  0  0  0  0  0
  139.2060   77.2350  219.9150 C   0  0  0  0  0  0  0  0  0  0  0  0
  140.2310   76.0840  219.9430 C   0  0  0  0  0  0  0  0  0  0  0  0
  139.8200   75.3870  221.2240 C   0  0  2  0  0  0  0  0  0  0  0  0
  140.3310   74.0320  221.3780 C   0  0  0  0  0  0  0  0  0  0  0  0
  141.1570   73.3920  220.5340 N   0  0  0  0  0  0  0  0  0  0  0  0
  141.5790   72.1290  220.7610 C   0  0  0  0  0  0  0  0  0  0  0  0
  142.4540   71.4470  219.8740 N   0  0  0  0  0  0  0  0  0  0  0  0
  143.4760   72.1210  219.0950 C   0  0  0  0  0  0  0  0  0  0  0  0
  144.8130   71.6530  219.6470 C   0  0  0  0  0  0  0  0  0  0  0  0
  144.8420   70.1720  219.4960 C   0  0  0  0  0  0  0  0  0  0  0  0
  146.0700   69.5640  219.3190 C   0  0  0  0  0  0  0  0  0  0  0  0
  146.1350   68.1850  219.1760 C   0  0  0  0  0  0  0  0  0  0  0  0
  144.9890   67.3970  219.2100 C   0  0  0  0  0  0  0  0  0  0  0  0
  143.7750   68.0230  219.3890 C   0  0  0  0  0  0  0  0  0  0  0  0
  143.7010   69.3950  219.5310 C   0  0  0  0  0  0  0  0  0  0  0  0
  142.3450   70.0090  219.7210 C   0  0  0  0  0  0  0  0  0  0  0  0
  141.1510   71.4960  221.8760 N   0  0  0  0  0  0  0  0  0  0  0  0
  140.3220   72.0920  222.7560 C   0  0  0  0  0  0  0  0  0  0  0  0
  139.8480   71.4580  223.9360 N   0  0  0  0  0  0  0  0  0  0  0  0
  138.5930   70.6900  223.9150 C   0  0  0  0  0  0  0  0  0  0  0  0
  138.9910   69.2390  224.1130 C   0  0  0  0  0  0  0  0  0  0  0  0
  139.7290   69.1570  225.4000 C   0  0  0  0  0  0  0  0  0  0  0  0
  139.6500   67.9340  226.0740 C   0  0  0  0  0  0  0  0  0  0  0  0
  140.3290   67.8180  227.2870 C   0  0  0  0  0  0  0  0  0  0  0  0
  141.0520   68.8880  227.7940 C   0  0  0  0  0  0  0  0  0  0  0  0
  141.1300   70.1020  227.1280 C   0  0  0  0  0  0  0  0  0  0  0  0
  140.4540   70.2070  225.9260 C   0  0  0  0  0  0  0  0  0  0  0  0
  140.5340   71.5060  225.2060 C   0  0  0  0  0  0  0  0  0  0  0  0
  139.9360   73.3370  222.4860 N   0  0  0  0  0  0  0  0  0  0  0  0
  138.2870   75.4500  221.0660 C   0  0  0  0  0  0  0  0  0  0  0  0
  138.5260   78.7330  223.0960 C   0  0  0  0  0  0  0  0  0  0  0  0
  139.7620   79.2680  223.4700 C   0  0  0  0  0  0  0  0  0  0  0  0
  143.2970   79.4760  221.9520 H   0  0  0  0  0  0  0  0  0  0  0  0
  144.1380   80.2160  223.2980 H   0  0  0  0  0  0  0  0  0  0  0  0
  140.2606   81.4170  220.8539 H   0  0  0  0  0  0  0  0  0  0  0  0
  138.0651   80.4418  220.2233 H   0  0  0  0  0  0  0  0  0  0  0  0
  135.9837   78.3229  222.3770 H   0  0  0  0  0  0  0  0  0  0  0  0
  135.9879   79.3552  220.9441 H   0  0  0  0  0  0  0  0  0  0  0  0
  136.1578   76.6335  220.9179 H   0  0  0  0  0  0  0  0  0  0  0  0
  136.8593   77.7874  219.6273 H   0  0  0  0  0  0  0  0  0  0  0  0
  138.8315   77.3900  218.8924 H   0  0  0  0  0  0  0  0  0  0  0  0
  139.6538   78.1847  220.2428 H   0  0  0  0  0  0  0  0  0  0  0  0
  140.1262   75.4243  219.0690 H   0  0  0  0  0  0  0  0  0  0  0  0
  141.2831   76.4033  219.9096 H   0  0  0  0  0  0  0  0  0  0  0  0
  140.2226   75.8522  222.1359 H   0  0  0  0  0  0  0  0  0  0  0  0
  143.3864   71.8489  218.0330 H   0  0  0  0  0  0  0  0  0  0  0  0
  143.3756   73.2142  219.1653 H   0  0  0  0  0  0  0  0  0  0  0  0
  145.6380   72.1084  219.0796 H   0  0  0  0  0  0  0  0  0  0  0  0
  144.9312   71.9462  220.7006 H   0  0  0  0  0  0  0  0  0  0  0  0
  146.9889   70.1681  219.2916 H   0  0  0  0  0  0  0  0  0  0  0  0
  147.1141   67.7046  219.0326 H   0  0  0  0  0  0  0  0  0  0  0  0
  145.0505   66.3045  219.0971 H   0  0  0  0  0  0  0  0  0  0  0  0
  142.8535   67.4231  219.4192 H   0  0  0  0  0  0  0  0  0  0  0  0
  141.7203   69.7849  218.8438 H   0  0  0  0  0  0  0  0  0  0  0  0
  141.8890   69.5887  220.6295 H   0  0  0  0  0  0  0  0  0  0  0  0
  137.9291   71.0192  224.7280 H   0  0  0  0  0  0  0  0  0  0  0  0
  138.0467   70.8341  222.9712 H   0  0  0  0  0  0  0  0  0  0  0  0
  138.0936   68.6041  224.1522 H   0  0  0  0  0  0  0  0  0  0  0  0
  139.6188   68.8894  223.2802 H   0  0  0  0  0  0  0  0  0  0  0  0
  139.0727   67.0932  225.6620 H   0  0  0  0  0  0  0  0  0  0  0  0
  140.2909   66.8712  227.8456 H   0  0  0  0  0  0  0  0  0  0  0  0
  141.5789   68.7700  228.7524 H   0  0  0  0  0  0  0  0  0  0  0  0
  141.7049   70.9453  227.5382 H   0  0  0  0  0  0  0  0  0  0  0  0
  140.0750   72.2875  225.8293 H   0  0  0  0  0  0  0  0  0  0  0  0
  141.5945   71.7259  225.0138 H   0  0  0  0  0  0  0  0  0  0  0  0
  137.9303   74.8145  220.2421 H   0  0  0  0  0  0  0  0  0  0  0  0
  137.7061   75.0922  221.9289 H   0  0  0  0  0  0  0  0  0  0  0  0
  138.0362   77.9775  223.7279 H   0  0  0  0  0  0  0  0  0  0  0  0
  140.2460   78.9313  224.3986 H   0  0  0  0  0  0  0  0  0  0  0  0
  1  2  1  0
  2  3  2  0
  2  4  2  0
  2  5  1  0
  5  6  2  0
  6  7  1  0
  7  8  2  0
  8  9  1  0
  9 10  1  0
 10 11  1  0
 11 12  1  0
 12 13  1  0
 13 14  1  0
 14 15  1  0
 15 16  2  0
 16 17  1  0
 17 18  1  0
 18 19  1  0
 19 20  1  0
 20 21  1  0
 21 22  2  0
 22 23  1  0
 23 24  2  0
 24 25  1  0
 25 26  2  0
 26 27  1  0
 17 28  2  0
 28 29  1  0
 29 30  1  0
 30 31  1  0
 31 32  1  0
 32 33  1  0
 33 34  2  0
 34 35  1  0
 35 36  2  0
 36 37  1  0
 37 38  2  0
 38 39  1  0
 29 40  2  0
 14 41  1  0
  8 42  1  0
 42 43  2  0
 43  5  1  0
 41 11  1  0
 40 15  1  0
 27 18  1  0
 39 30  1  0
 26 21  1  0
 38 33  1  0
  1 44  1  0
  1 45  1  0
  6 46  1  0
  7 47  1  0
  9 48  1  0
  9 49  1  0
 10 50  1  0
 10 51  1  0
 12 52  1  0
 12 53  1  0
 13 54  1  0
 13 55  1  0
 14 56  1  1
 19 57  1  0
 19 58  1  0
 20 59  1  0
 20 60  1  0
 22 61  1  0
 23 62  1  0
 24 63  1  0
 25 64  1  0
 27 65  1  0
 27 66  1  0
 31 67  1  0
 31 68  1  0
 32 69  1  0
 32 70  1  0
 34 71  1  0
 35 72  1  0
 36 73  1  0
 37 74  1  0
 39 75  1  0
 39 76  1  0
 41 77  1  0
 41 78  1  0
 42 79  1  0
 43 80  1  0
M  END
>  <smiles>  (37) 
NS(=O)(=O)c1ccc(CCN2CCC(c3nc(N4CCc5ccccc5C4)nc(N4CCc5ccccc5C4)n3)C2)cc1

>  <score_type>  (37) 
oracle

>  <origin>  (37) 
autodockgpu

>  <m_score__min__energy>  (37) 
-11.56

>  <m_primary>  (37) 
energy

>  <rmsd>  (37) 
3.3404432740568346

>  <m_score__min__rmsd>  (37) 
3.3404432740568346

>  <meeko>  (37) 
{"free_energy": -10.45, "intermolecular_energy": -12.84, "internal_energy": -1.67, "cluster_size": 3, "cluster_id": 3, "rank_in_cluster": 3}

>  <energy>  (37) 
-10.06

>  <cluster_rmsd>  (37) 
1.1

>  <cluster>  (37) 
7

$$$$

     RDKit          3D

 80 86  0  0  1  0  0  0  0  0999 V2000
  144.0710   82.2760  214.5040 N   0  0  0  0  0  0  0  0  0  0  0  0
  142.9320   82.8630  215.6610 S   0  0  0  0  0  0  0  0  0  0  0  0
  141.6740   83.2060  214.9040 O   0  0  0  0  0  0  0  0  0  0  0  0
  143.4550   84.1270  216.2390 O   0  0  0  0  0  0  0  0  0  0  0  0
  142.5300   81.6690  216.8720 C   0  0  0  0  0  0  0  0  0  0  0  0
  142.5040   82.0800  218.2010 C   0  0  0  0  0  0  0  0  0  0  0  0
  142.1880   81.1330  219.1690 C   0  0  0  0  0  0  0  0  0  0  0  0
  141.9050   79.8210  218.8640 C   0  0  0  0  0  0  0  0  0  0  0  0
  141.5820   78.8420  219.9690 C   0  0  0  0  0  0  0  0  0  0  0  0
  140.3960   78.0710  219.4780 C   0  0  0  0  0  0  0  0  0  0  0  0
  139.8750   77.0640  220.2850 N   0  0  0  0  0  0  0  0  0  0  0  0
  139.3220   77.3680  221.5490 C   0  0  0  0  0  0  0  0  0  0  0  0
  139.3430   76.0490  222.3450 C   0  0  0  0  0  0  0  0  0  0  0  0
  139.4670   75.0510  221.2100 C   0  0  2  0  0  0  0  0  0  0  0  0
  139.8920   73.7160  221.6080 C   0  0  0  0  0  0  0  0  0  0  0  0
  139.5480   73.0740  222.7370 N   0  0  0  0  0  0  0  0  0  0  0  0
  139.9940   71.8320  223.0220 C   0  0  0  0  0  0  0  0  0  0  0  0
  139.6330   71.1470  224.2120 N   0  0  0  0  0  0  0  0  0  0  0  0
  138.6560   70.0760  224.2450 C   0  0  0  0  0  0  0  0  0  0  0  0
  139.4210   68.8080  224.5860 C   0  0  0  0  0  0  0  0  0  0  0  0
  140.0740   69.0450  225.9020 C   0  0  0  0  0  0  0  0  0  0  0  0
  140.2900   67.9540  226.7230 C   0  0  0  0  0  0  0  0  0  0  0  0
  140.8980   68.1380  227.9570 C   0  0  0  0  0  0  0  0  0  0  0  0
  141.3000   69.3980  228.3880 C   0  0  0  0  0  0  0  0  0  0  0  0
  141.0760   70.4710  227.5540 C   0  0  0  0  0  0  0  0  0  0  0  0
  140.4710   70.2980  226.3250 C   0  0  0  0  0  0  0  0  0  0  0  0
  140.2580   71.5130  225.4700 C   0  0  0  0  0  0  0  0  0  0  0  0
  140.8160   71.2220  222.1380 N   0  0  0  0  0  0  0  0  0  0  0  0
  141.1920   71.8220  220.9900 C   0  0  0  0  0  0  0  0  0  0  0  0
  142.0560   71.2150  220.0390 N   0  0  0  0  0  0  0  0  0  0  0  0
  142.9980   72.0340  219.2610 C   0  0  0  0  0  0  0  0  0  0  0  0
  144.3830   71.6500  219.7480 C   0  0  0  0  0  0  0  0  0  0  0  0
  144.5340   70.1870  219.5350 C   0  0  0  0  0  0  0  0  0  0  0  0
  145.8390   69.7320  219.3200 C   0  0  0  0  0  0  0  0  0  0  0  0
  146.0210   68.3640  219.1150 C   0  0  0  0  0  0  0  0  0  0  0  0
  144.9370   67.4990  219.1260 C   0  0  0  0  0  0  0  0  0  0  0  0
  143.6420   67.9500  219.3390 C   0  0  0  0  0  0  0  0  0  0  0  0
  143.4710   69.3070  219.5410 C   0  0  0  0  0  0  0  0  0  0  0  0
  142.0850   69.7960  219.7700 C   0  0  0  0  0  0  0  0  0  0  0  0
  140.7240   73.0460  220.7560 N   0  0  0  0  0  0  0  0  0  0  0  0
  140.5010   75.7900  220.3360 C   0  0  0  0  0  0  0  0  0  0  0  0
  141.9320   79.4170  217.5390 C   0  0  0  0  0  0  0  0  0  0  0  0
  142.2450   80.3430  216.5390 C   0  0  0  0  0  0  0  0  0  0  0  0
  144.4950   81.3940  214.8260 H   0  0  0  0  0  0  0  0  0  0  0  0
  143.6480   82.2220  213.5370 H   0  0  0  0  0  0  0  0  0  0  0  0
  142.7264   83.1213  218.4773 H   0  0  0  0  0  0  0  0  0  0  0  0
  142.1632   81.4457  220.2233 H   0  0  0  0  0  0  0  0  0  0  0  0
  142.4328   78.1681  220.1478 H   0  0  0  0  0  0  0  0  0  0  0  0
  141.3747   79.3517  220.9215 H   0  0  0  0  0  0  0  0  0  0  0  0
  139.5879   78.7963  219.3024 H   0  0  0  0  0  0  0  0  0  0  0  0
  140.7712   77.5374  218.5923 H   0  0  0  0  0  0  0  0  0  0  0  0
  139.9275   78.1323  222.0582 H   0  0  0  0  0  0  0  0  0  0  0  0
  138.3021   77.7699  221.4585 H   0  0  0  0  0  0  0  0  0  0  0  0
  140.2044   75.9988  223.0273 H   0  0  0  0  0  0  0  0  0  0  0  0
  138.4750   75.8936  223.0026 H   0  0  0  0  0  0  0  0  0  0  0  0
  138.5132   74.8120  220.7170 H   0  0  0  0  0  0  0  0  0  0  0  0
  137.8946   70.2790  225.0125 H   0  0  0  0  0  0  0  0  0  0  0  0
  138.1358   69.9808  223.2804 H   0  0  0  0  0  0  0  0  0  0  0  0
  138.7301   67.9547  224.6535 H   0  0  0  0  0  0  0  0  0  0  0  0
  140.1654   68.5738  223.8108 H   0  0  0  0  0  0  0  0  0  0  0  0
  139.9825   66.9482  226.4009 H   0  0  0  0  0  0  0  0  0  0  0  0
  141.0657   67.2679  228.6088 H   0  0  0  0  0  0  0  0  0  0  0  0
  141.7830   69.5336  229.3669 H   0  0  0  0  0  0  0  0  0  0  0  0
  141.3830   71.4786  227.8711 H   0  0  0  0  0  0  0  0  0  0  0  0
  139.6083   72.2219  226.0041 H   0  0  0  0  0  0  0  0  0  0  0  0
  141.2337   71.9759  225.2608 H   0  0  0  0  0  0  0  0  0  0  0  0
  142.8964   71.8180  218.1872 H   0  0  0  0  0  0  0  0  0  0  0  0
  142.8059   73.1087  219.3959 H   0  0  0  0  0  0  0  0  0  0  0  0
  145.1482   72.1951  219.1758 H   0  0  0  0  0  0  0  0  0  0  0  0
  144.5076   71.9047  220.8108 H   0  0  0  0  0  0  0  0  0  0  0  0
  146.6911   70.4276  219.3128 H   0  0  0  0  0  0  0  0  0  0  0  0
  147.0328   67.9682  218.9432 H   0  0  0  0  0  0  0  0  0  0  0  0
  145.1086   66.4250  218.9612 H   0  0  0  0  0  0  0  0  0  0  0  0
  142.7877   67.2571  219.3468 H   0  0  0  0  0  0  0  0  0  0  0  0
  141.4820   69.5909  218.8731 H   0  0  0  0  0  0  0  0  0  0  0  0
  141.6776   69.2725  220.6475 H   0  0  0  0  0  0  0  0  0  0  0  0
  141.4901   75.8348  220.8153 H   0  0  0  0  0  0  0  0  0  0  0  0
  140.7148   75.3275  219.3611 H   0  0  0  0  0  0  0  0  0  0  0  0
  141.7083   78.3729  217.2749 H   0  0  0  0  0  0  0  0  0  0  0  0
  142.2668   80.0258  215.4860 H   0  0  0  0  0  0  0  0  0  0  0  0
  1  2  1  0
  2  3  2  0
  2  4  2  0
  2  5  1  0
  5  6  2  0
  6  7  1  0
  7  8  2  0
  8  9  1  0
  9 10  1  0
 10 11  1  0
 11 12  1  0
 12 13  1  0
 13 14  1  0
 14 15  1  0
 15 16  2  0
 16 17  1  0
 17 18  1  0
 18 19  1  0
 19 20  1  0
 20 21  1  0
 21 22  2  0
 22 23  1  0
 23 24  2  0
 24 25  1  0
 25 26  2  0
 26 27  1  0
 17 28  2  0
 28 29  1  0
 29 30  1  0
 30 31  1  0
 31 32  1  0
 32 33  1  0
 33 34  2  0
 34 35  1  0
 35 36  2  0
 36 37  1  0
 37 38  2  0
 38 39  1  0
 29 40  2  0
 14 41  1  0
  8 42  1  0
 42 43  2  0
 43  5  1  0
 41 11  1  0
 40 15  1  0
 27 18  1  0
 39 30  1  0
 26 21  1  0
 38 33  1  0
  1 44  1  0
  1 45  1  0
  6 46  1  0
  7 47  1  0
  9 48  1  0
  9 49  1  0
 10 50  1  0
 10 51  1  0
 12 52  1  0
 12 53  1  0
 13 54  1  0
 13 55  1  0
 14 56  1  6
 19 57  1  0
 19 58  1  0
 20 59  1  0
 20 60  1  0
 22 61  1  0
 23 62  1  0
 24 63  1  0
 25 64  1  0
 27 65  1  0
 27 66  1  0
 31 67  1  0
 31 68  1  0
 32 69  1  0
 32 70  1  0
 34 71  1  0
 35 72  1  0
 36 73  1  0
 37 74  1  0
 39 75  1  0
 39 76  1  0
 41 77  1  0
 41 78  1  0
 42 79  1  0
 43 80  1  0
M  END
>  <smiles>  (38) 
NS(=O)(=O)c1ccc(CCN2CCC(c3nc(N4CCc5ccccc5C4)nc(N4CCc5ccccc5C4)n3)C2)cc1

>  <score_type>  (38) 
oracle

>  <origin>  (38) 
autodockgpu

>  <m_score__min__energy>  (38) 
-11.56

>  <m_primary>  (38) 
energy

>  <rmsd>  (38) 
4.2139433572625515

>  <m_score__min__rmsd>  (38) 
4.2139433572625515

>  <meeko>  (38) 
{"free_energy": -9.82, "intermolecular_energy": -12.2, "internal_energy": -1.39, "cluster_size": 13, "cluster_id": 1, "rank_in_cluster": 12}

>  <energy>  (38) 
-10.03

>  <cluster_rmsd>  (38) 
1.22

>  <cluster>  (38) 
7

$$$$

     RDKit          3D

 80 86  0  0  1  0  0  0  0  0999 V2000
  146.5230   69.6330  217.7870 N   0  0  0  0  0  0  0  0  0  0  0  0
  145.7990   68.3100  218.6280 S   0  0  0  0  0  0  0  0  0  0  0  0
  146.3290   68.3450  220.0400 O   0  0  0  0  0  0  0  0  0  0  0  0
  146.2740   67.0440  218.0140 O   0  0  0  0  0  0  0  0  0  0  0  0
  144.0570   68.4310  218.6970 C   0  0  0  0  0  0  0  0  0  0  0  0
  143.5010   69.1580  219.7440 C   0  0  0  0  0  0  0  0  0  0  0  0
  142.1160   69.2540  219.8050 C   0  0  0  0  0  0  0  0  0  0  0  0
  141.2860   68.6630  218.8790 C   0  0  0  0  0  0  0  0  0  0  0  0
  139.7860   68.7980  219.0140 C   0  0  0  0  0  0  0  0  0  0  0  0
  139.5040   70.2580  218.8350 C   0  0  0  0  0  0  0  0  0  0  0  0
  139.6210   71.0990  219.9370 N   0  0  0  0  0  0  0  0  0  0  0  0
  139.6160   70.5720  221.2490 C   0  0  0  0  0  0  0  0  0  0  0  0
  139.2360   71.7470  222.1710 C   0  0  0  0  0  0  0  0  0  0  0  0
  139.5610   72.9180  221.2650 C   0  0  2  0  0  0  0  0  0  0  0  0
  138.9740   74.1880  221.6680 C   0  0  0  0  0  0  0  0  0  0  0  0
  139.5530   75.3970  221.5780 N   0  0  0  0  0  0  0  0  0  0  0  0
  138.9280   76.5250  221.9790 C   0  0  0  0  0  0  0  0  0  0  0  0
  139.5340   77.8060  221.8860 N   0  0  0  0  0  0  0  0  0  0  0  0
  138.7730   79.0380  221.7870 C   0  0  0  0  0  0  0  0  0  0  0  0
  139.0150   79.7960  223.0810 C   0  0  0  0  0  0  0  0  0  0  0  0
  140.4840   80.0210  223.1760 C   0  0  0  0  0  0  0  0  0  0  0  0
  140.9240   81.1470  223.8460 C   0  0  0  0  0  0  0  0  0  0  0  0
  142.2870   81.3860  223.9550 C   0  0  0  0  0  0  0  0  0  0  0  0
  143.2240   80.5180  223.4060 C   0  0  0  0  0  0  0  0  0  0  0  0
  142.7640   79.4010  222.7430 C   0  0  0  0  0  0  0  0  0  0  0  0
  141.4090   79.1550  222.6280 C   0  0  0  0  0  0  0  0  0  0  0  0
  140.9800   77.9200  221.8910 C   0  0  0  0  0  0  0  0  0  0  0  0
  137.6800   76.4260  222.4880 N   0  0  0  0  0  0  0  0  0  0  0  0
  137.0520   75.2370  222.6000 C   0  0  0  0  0  0  0  0  0  0  0  0
  135.7430   75.0920  223.1330 N   0  0  0  0  0  0  0  0  0  0  0  0
  134.9190   73.9280  222.7720 C   0  0  0  0  0  0  0  0  0  0  0  0
  134.7880   73.1040  224.0390 C   0  0  0  0  0  0  0  0  0  0  0  0
  134.1780   73.9800  225.0730 C   0  0  0  0  0  0  0  0  0  0  0  0
  133.4210   73.3320  226.0550 C   0  0  0  0  0  0  0  0  0  0  0  0
  132.8320   74.1210  227.0430 C   0  0  0  0  0  0  0  0  0  0  0  0
  133.0010   75.4980  227.0380 C   0  0  0  0  0  0  0  0  0  0  0  0
  133.7500   76.1420  226.0640 C   0  0  0  0  0  0  0  0  0  0  0  0
  134.3300   75.3510  225.0890 C   0  0  0  0  0  0  0  0  0  0  0  0
  135.1370   76.0350  224.0430 C   0  0  0  0  0  0  0  0  0  0  0  0
  137.7120   74.1560  222.1900 N   0  0  0  0  0  0  0  0  0  0  0  0
  138.9960   72.3740  219.9370 C   0  0  0  0  0  0  0  0  0  0  0  0
  141.8450   67.9390  217.8380 C   0  0  0  0  0  0  0  0  0  0  0  0
  143.2350   67.8230  217.7450 C   0  0  0  0  0  0  0  0  0  0  0  0
  146.4900   70.4890  218.3590 H   0  0  0  0  0  0  0  0  0  0  0  0
  147.4890   69.3870  217.4350 H   0  0  0  0  0  0  0  0  0  0  0  0
  144.1372   69.6417  220.4998 H   0  0  0  0  0  0  0  0  0  0  0  0
  141.6636   69.8265  220.6281 H   0  0  0  0  0  0  0  0  0  0  0  0
  139.2746   68.2087  218.2386 H   0  0  0  0  0  0  0  0  0  0  0  0
  139.4261   68.4263  219.9847 H   0  0  0  0  0  0  0  0  0  0  0  0
  140.1984   70.6306  218.0676 H   0  0  0  0  0  0  0  0  0  0  0  0
  138.4342   70.2953  218.5817 H   0  0  0  0  0  0  0  0  0  0  0  0
  138.8755   69.7630  221.3342 H   0  0  0  0  0  0  0  0  0  0  0  0
  140.5936   70.1455  221.5181 H   0  0  0  0  0  0  0  0  0  0  0  0
  138.1697   71.7246  222.4405 H   0  0  0  0  0  0  0  0  0  0  0  0
  139.7545   71.7575  223.1411 H   0  0  0  0  0  0  0  0  0  0  0  0
  140.6263   73.1919  221.2504 H   0  0  0  0  0  0  0  0  0  0  0  0
  139.1194   79.6313  220.9279 H   0  0  0  0  0  0  0  0  0  0  0  0
  137.7023   78.8348  221.6379 H   0  0  0  0  0  0  0  0  0  0  0  0
  138.4843   80.7593  223.0611 H   0  0  0  0  0  0  0  0  0  0  0  0
  138.6445   79.2286  223.9475 H   0  0  0  0  0  0  0  0  0  0  0  0
  140.2006   81.8474  224.2888 H   0  0  0  0  0  0  0  0  0  0  0  0
  142.6339   82.2833  224.4883 H   0  0  0  0  0  0  0  0  0  0  0  0
  144.3019   80.7172  223.4983 H   0  0  0  0  0  0  0  0  0  0  0  0
  143.4838   78.6969  222.3001 H   0  0  0  0  0  0  0  0  0  0  0  0
  141.3422   77.9737  220.8537 H   0  0  0  0  0  0  0  0  0  0  0  0
  141.4038   77.0397  222.3964 H   0  0  0  0  0  0  0  0  0  0  0  0
  133.9280   74.2539  222.4231 H   0  0  0  0  0  0  0  0  0  0  0  0
  135.3751   73.3468  221.9570 H   0  0  0  0  0  0  0  0  0  0  0  0
  134.1432   72.2318  223.8561 H   0  0  0  0  0  0  0  0  0  0  0  0
  135.7711   72.7371  224.3691 H   0  0  0  0  0  0  0  0  0  0  0  0
  133.2948   72.2393  226.0482 H   0  0  0  0  0  0  0  0  0  0  0  0
  132.2290   73.6479  227.8320 H   0  0  0  0  0  0  0  0  0  0  0  0
  132.5271   76.0968  227.8297 H   0  0  0  0  0  0  0  0  0  0  0  0
  133.8771   77.2346  226.0670 H   0  0  0  0  0  0  0  0  0  0  0  0
  134.4822   76.7102  223.4726 H   0  0  0  0  0  0  0  0  0  0  0  0
  135.9417   76.5944  224.5426 H   0  0  0  0  0  0  0  0  0  0  0  0
  137.8990   72.2958  219.9565 H   0  0  0  0  0  0  0  0  0  0  0  0
  139.1886   72.9958  219.0503 H   0  0  0  0  0  0  0  0  0  0  0  0
  141.1986   67.4583  217.0890 H   0  0  0  0  0  0  0  0  0  0  0  0
  143.6831   67.2509  216.9192 H   0  0  0  0  0  0  0  0  0  0  0  0
  1  2  1  0
  2  3  2  0
  2  4  2  0
  2  5  1  0
  5  6  2  0
  6  7  1  0
  7  8  2  0
  8  9  1  0
  9 10  1  0
 10 11  1  0
 11 12  1  0
 12 13  1  0
 13 14  1  0
 14 15  1  0
 15 16  2  0
 16 17  1  0
 17 18  1  0
 18 19  1  0
 19 20  1  0
 20 21  1  0
 21 22  2  0
 22 23  1  0
 23 24  2  0
 24 25  1  0
 25 26  2  0
 26 27  1  0
 17 28  2  0
 28 29  1  0
 29 30  1  0
 30 31  1  0
 31 32  1  0
 32 33  1  0
 33 34  2  0
 34 35  1  0
 35 36  2  0
 36 37  1  0
 37 38  2  0
 38 39  1  0
 29 40  2  0
 14 41  1  0
  8 42  1  0
 42 43  2  0
 43  5  1  0
 41 11  1  0
 40 15  1  0
 27 18  1  0
 39 30  1  0
 26 21  1  0
 38 33  1  0
  1 44  1  0
  1 45  1  0
  6 46  1  0
  7 47  1  0
  9 48  1  0
  9 49  1  0
 10 50  1  0
 10 51  1  0
 12 52  1  0
 12 53  1  0
 13 54  1  0
 13 55  1  0
 14 56  1  6
 19 57  1  0
 19 58  1  0
 20 59  1  0
 20 60  1  0
 22 61  1  0
 23 62  1  0
 24 63  1  0
 25 64  1  0
 27 65  1  0
 27 66  1  0
 31 67  1  0
 31 68  1  0
 32 69  1  0
 32 70  1  0
 34 71  1  0
 35 72  1  0
 36 73  1  0
 37 74  1  0
 39 75  1  0
 39 76  1  0
 41 77  1  0
 41 78  1  0
 42 79  1  0
 43 80  1  0
M  END
>  <smiles>  (39) 
NS(=O)(=O)c1ccc(CCN2CCC(c3nc(N4CCc5ccccc5C4)nc(N4CCc5ccccc5C4)n3)C2)cc1

>  <score_type>  (39) 
oracle

>  <origin>  (39) 
autodockgpu

>  <m_score__min__energy>  (39) 
-11.56

>  <m_primary>  (39) 
energy

>  <rmsd>  (39) 
10.455032888062558

>  <m_score__min__rmsd>  (39) 
10.455032888062558

>  <meeko>  (39) 
{"free_energy": -8.94, "intermolecular_energy": -11.33, "internal_energy": -1.48, "cluster_size": 1, "cluster_id": 13, "rank_in_cluster": 1}

>  <energy>  (39) 
-9.53

>  <cluster_rmsd>  (39) 
1.42

>  <cluster>  (39) 
7

$$$$

     RDKit          3D

 80 86  0  0  1  0  0  0  0  0999 V2000
  143.6130   81.7880  217.0290 N   0  0  0  0  0  0  0  0  0  0  0  0
  142.0190   81.9620  217.6710 S   0  0  0  0  0  0  0  0  0  0  0  0
  141.0770   81.3120  216.6900 O   0  0  0  0  0  0  0  0  0  0  0  0
  141.6820   83.4080  217.7110 O   0  0  0  0  0  0  0  0  0  0  0  0
  141.8280   81.1690  219.2170 C   0  0  0  0  0  0  0  0  0  0  0  0
  141.5310   81.9640  220.3190 C   0  0  0  0  0  0  0  0  0  0  0  0
  141.3810   81.3390  221.5510 C   0  0  0  0  0  0  0  0  0  0  0  0
  141.5150   79.9790  221.7180 C   0  0  0  0  0  0  0  0  0  0  0  0
  141.3510   79.3670  223.0900 C   0  0  0  0  0  0  0  0  0  0  0  0
  139.9630   78.8050  223.1080 C   0  0  0  0  0  0  0  0  0  0  0  0
  139.7080   77.6360  222.3990 N   0  0  0  0  0  0  0  0  0  0  0  0
  138.3830   77.2570  222.0860 C   0  0  0  0  0  0  0  0  0  0  0  0
  138.4360   75.7440  221.7990 C   0  0  0  0  0  0  0  0  0  0  0  0
  139.9150   75.5730  221.5160 C   0  0  2  0  0  0  0  0  0  0  0  0
  140.3980   74.2010  221.5710 C   0  0  0  0  0  0  0  0  0  0  0  0
  141.2170   73.6080  220.6860 N   0  0  0  0  0  0  0  0  0  0  0  0
  141.6120   72.3240  220.8220 C   0  0  0  0  0  0  0  0  0  0  0  0
  142.4790   71.6920  219.8910 N   0  0  0  0  0  0  0  0  0  0  0  0
  143.4300   72.4210  219.0720 C   0  0  0  0  0  0  0  0  0  0  0  0
  144.8120   72.0190  219.5610 C   0  0  0  0  0  0  0  0  0  0  0  0
  144.9100   70.5430  219.3980 C   0  0  0  0  0  0  0  0  0  0  0  0
  146.1590   70.0000  219.1610 C   0  0  0  0  0  0  0  0  0  0  0  0
  146.2870   68.6270  219.0070 C   0  0  0  0  0  0  0  0  0  0  0  0
  145.1870   67.7800  219.0870 C   0  0  0  0  0  0  0  0  0  0  0  0
  143.9510   68.3420  219.3240 C   0  0  0  0  0  0  0  0  0  0  0  0
  143.8140   69.7080  219.4780 C   0  0  0  0  0  0  0  0  0  0  0  0
  142.4380   70.2500  219.7340 C   0  0  0  0  0  0  0  0  0  0  0  0
  141.1630   71.6180  221.8840 N   0  0  0  0  0  0  0  0  0  0  0  0
  140.3390   72.1650  222.8010 C   0  0  0  0  0  0  0  0  0  0  0  0
  139.8440   71.4550  223.9270 N   0  0  0  0  0  0  0  0  0  0  0  0
  138.6800   70.5650  223.7930 C   0  0  0  0  0  0  0  0  0  0  0  0
  139.2070   69.1570  223.9930 C   0  0  0  0  0  0  0  0  0  0  0  0
  139.8490   69.1150  225.3340 C   0  0  0  0  0  0  0  0  0  0  0  0
  139.8440   67.8720  225.9750 C   0  0  0  0  0  0  0  0  0  0  0  0
  140.4360   67.7920  227.2350 C   0  0  0  0  0  0  0  0  0  0  0  0
  141.0050   68.9140  227.8180 C   0  0  0  0  0  0  0  0  0  0  0  0
  141.0100   70.1480  227.1840 C   0  0  0  0  0  0  0  0  0  0  0  0
  140.4200   70.2170  225.9340 C   0  0  0  0  0  0  0  0  0  0  0  0
  140.4230   71.5370  225.2480 C   0  0  0  0  0  0  0  0  0  0  0  0
  139.9800   73.4340  222.6220 N   0  0  0  0  0  0  0  0  0  0  0  0
  140.4910   76.4720  222.6290 C   0  0  0  0  0  0  0  0  0  0  0  0
  141.8100   79.1910  220.6170 C   0  0  0  0  0  0  0  0  0  0  0  0
  141.9670   79.7870  219.3620 C   0  0  0  0  0  0  0  0  0  0  0  0
  144.1290   81.0520  217.5330 H   0  0  0  0  0  0  0  0  0  0  0  0
  143.5960   81.6600  215.9800 H   0  0  0  0  0  0  0  0  0  0  0  0
  141.4184   83.0536  220.2184 H   0  0  0  0  0  0  0  0  0  0  0  0
  141.1452   81.9570  222.4299 H   0  0  0  0  0  0  0  0  0  0  0  0
  142.0919   78.5693  223.2472 H   0  0  0  0  0  0  0  0  0  0  0  0
  141.5049   80.1061  223.8901 H   0  0  0  0  0  0  0  0  0  0  0  0
  139.7064   78.6088  224.1595 H   0  0  0  0  0  0  0  0  0  0  0  0
  139.3588   79.5671  222.5940 H   0  0  0  0  0  0  0  0  0  0  0  0
  137.7149   77.4626  222.9354 H   0  0  0  0  0  0  0  0  0  0  0  0
  137.9938   77.8192  221.2243 H   0  0  0  0  0  0  0  0  0  0  0  0
  138.1175   75.1532  222.6705 H   0  0  0  0  0  0  0  0  0  0  0  0
  137.7707   75.4053  220.9911 H   0  0  0  0  0  0  0  0  0  0  0  0
  140.2084   75.8406  220.4902 H   0  0  0  0  0  0  0  0  0  0  0  0
  143.3070   72.1497  218.0131 H   0  0  0  0  0  0  0  0  0  0  0  0
  143.2776   73.5073  219.1542 H   0  0  0  0  0  0  0  0  0  0  0  0
  145.5868   72.5190  218.9613 H   0  0  0  0  0  0  0  0  0  0  0  0
  144.9614   72.3122  220.6106 H   0  0  0  0  0  0  0  0  0  0  0  0
  147.0435   70.6506  219.0951 H   0  0  0  0  0  0  0  0  0  0  0  0
  147.2821   68.1984  218.8172 H   0  0  0  0  0  0  0  0  0  0  0  0
  145.3001   66.6927  218.9647 H   0  0  0  0  0  0  0  0  0  0  0  0
  143.0636   67.6955  219.3913 H   0  0  0  0  0  0  0  0  0  0  0  0
  141.7859   69.9970  218.8850 H   0  0  0  0  0  0  0  0  0  0  0  0
  142.0470   69.8031  220.6599 H   0  0  0  0  0  0  0  0  0  0  0  0
  137.9262   70.8035  224.5578 H   0  0  0  0  0  0  0  0  0  0  0  0
  138.1957   70.6790  222.8120 H   0  0  0  0  0  0  0  0  0  0  0  0
  138.3787   68.4345  223.9487 H   0  0  0  0  0  0  0  0  0  0  0  0
  139.9289   68.8943  223.2057 H   0  0  0  0  0  0  0  0  0  0  0  0
  139.3893   66.9890  225.5021 H   0  0  0  0  0  0  0  0  0  0  0  0
  140.4517   66.8313  227.7706 H   0  0  0  0  0  0  0  0  0  0  0  0
  141.4661   68.8230  228.8125 H   0  0  0  0  0  0  0  0  0  0  0  0
  141.4632   71.0331  227.6544 H   0  0  0  0  0  0  0  0  0  0  0  0
  139.8411   72.2519  225.8483 H   0  0  0  0  0  0  0  0  0  0  0  0
  141.4673   71.8667  225.1444 H   0  0  0  0  0  0  0  0  0  0  0  0
  140.3196   76.0503  223.6304 H   0  0  0  0  0  0  0  0  0  0  0  0
  141.5806   76.6207  222.6018 H   0  0  0  0  0  0  0  0  0  0  0  0
  141.9201   78.1023  220.7298 H   0  0  0  0  0  0  0  0  0  0  0  0
  142.2009   79.1649  218.4855 H   0  0  0  0  0  0  0  0  0  0  0  0
  1  2  1  0
  2  3  2  0
  2  4  2  0
  2  5  1  0
  5  6  2  0
  6  7  1  0
  7  8  2  0
  8  9  1  0
  9 10  1  0
 10 11  1  0
 11 12  1  0
 12 13  1  0
 13 14  1  0
 14 15  1  0
 15 16  2  0
 16 17  1  0
 17 18  1  0
 18 19  1  0
 19 20  1  0
 20 21  1  0
 21 22  2  0
 22 23  1  0
 23 24  2  0
 24 25  1  0
 25 26  2  0
 26 27  1  0
 17 28  2  0
 28 29  1  0
 29 30  1  0
 30 31  1  0
 31 32  1  0
 32 33  1  0
 33 34  2  0
 34 35  1  0
 35 36  2  0
 36 37  1  0
 37 38  2  0
 38 39  1  0
 29 40  2  0
 14 41  1  0
  8 42  1  0
 42 43  2  0
 43  5  1  0
 41 11  1  0
 40 15  1  0
 27 18  1  0
 39 30  1  0
 26 21  1  0
 38 33  1  0
  1 44  1  0
  1 45  1  0
  6 46  1  0
  7 47  1  0
  9 48  1  0
  9 49  1  0
 10 50  1  0
 10 51  1  0
 12 52  1  0
 12 53  1  0
 13 54  1  0
 13 55  1  0
 14 56  1  6
 19 57  1  0
 19 58  1  0
 20 59  1  0
 20 60  1  0
 22 61  1  0
 23 62  1  0
 24 63  1  0
 25 64  1  0
 27 65  1  0
 27 66  1  0
 31 67  1  0
 31 68  1  0
 32 69  1  0
 32 70  1  0
 34 71  1  0
 35 72  1  0
 36 73  1  0
 37 74  1  0
 39 75  1  0
 39 76  1  0
 41 77  1  0
 41 78  1  0
 42 79  1  0
 43 80  1  0
M  END
>  <smiles>  (40) 
NS(=O)(=O)c1ccc(CCN2CCC(c3nc(N4CCc5ccccc5C4)nc(N4CCc5ccccc5C4)n3)C2)cc1

>  <score_type>  (40) 
oracle

>  <origin>  (40) 
autodockgpu

>  <m_score__min__energy>  (40) 
-11.56

>  <m_primary>  (40) 
energy

>  <rmsd>  (40) 
3.420574005856302

>  <m_score__min__rmsd>  (40) 
3.420574005856302

>  <meeko>  (40) 
{"free_energy": -11.56, "intermolecular_energy": -13.95, "internal_energy": -1.59, "cluster_size": 13, "cluster_id": 1, "rank_in_cluster": 1}

>  <energy>  (40) 
-9.39

>  <cluster_rmsd>  (40) 
1.48

>  <cluster>  (40) 
7

$$$$

     RDKit          3D

 80 86  0  0  1  0  0  0  0  0999 V2000
  134.9270   80.9070  227.9680 N   0  0  0  0  0  0  0  0  0  0  0  0
  135.2680   81.9900  226.6660 S   0  0  0  0  0  0  0  0  0  0  0  0
  136.0160   83.1600  227.2530 O   0  0  0  0  0  0  0  0  0  0  0  0
  133.9820   82.5120  226.1370 O   0  0  0  0  0  0  0  0  0  0  0  0
  136.2730   81.2630  225.4350 C   0  0  0  0  0  0  0  0  0  0  0  0
  137.6360   81.5410  225.4670 C   0  0  0  0  0  0  0  0  0  0  0  0
  138.4400   80.9680  224.4880 C   0  0  0  0  0  0  0  0  0  0  0  0
  137.9420   80.1470  223.5020 C   0  0  0  0  0  0  0  0  0  0  0  0
  138.8730   79.5680  222.4600 C   0  0  0  0  0  0  0  0  0  0  0  0
  138.3870   78.1700  222.2320 C   0  0  0  0  0  0  0  0  0  0  0  0
  139.2210   77.2750  221.5690 N   0  0  0  0  0  0  0  0  0  0  0  0
  139.2580   77.2350  220.1570 C   0  0  0  0  0  0  0  0  0  0  0  0
  139.8350   75.8530  219.7920 C   0  0  0  0  0  0  0  0  0  0  0  0
  140.5100   75.4880  221.0990 C   0  0  2  0  0  0  0  0  0  0  0  0
  140.8440   74.0780  221.2460 C   0  0  0  0  0  0  0  0  0  0  0  0
  141.5970   73.3470  220.4070 N   0  0  0  0  0  0  0  0  0  0  0  0
  141.8540   72.0390  220.6270 C   0  0  0  0  0  0  0  0  0  0  0  0
  142.6500   71.2610  219.7450 N   0  0  0  0  0  0  0  0  0  0  0  0
  143.7000   71.8260  218.9190 C   0  0  0  0  0  0  0  0  0  0  0  0
  145.0110   71.2750  219.4570 C   0  0  0  0  0  0  0  0  0  0  0  0
  144.9220   69.7920  219.3600 C   0  0  0  0  0  0  0  0  0  0  0  0
  146.0950   69.0850  219.1760 C   0  0  0  0  0  0  0  0  0  0  0  0
  146.0500   67.7010  219.0830 C   0  0  0  0  0  0  0  0  0  0  0  0
  144.8490   67.0050  219.1730 C   0  0  0  0  0  0  0  0  0  0  0  0
  143.6920   67.7290  219.3570 C   0  0  0  0  0  0  0  0  0  0  0  0
  143.7270   69.1070  219.4490 C   0  0  0  0  0  0  0  0  0  0  0  0
  142.4270   69.8310  219.6480 C   0  0  0  0  0  0  0  0  0  0  0  0
  141.3310   71.4550  221.7280 N   0  0  0  0  0  0  0  0  0  0  0  0
  140.5690   72.1430  222.6020 C   0  0  0  0  0  0  0  0  0  0  0  0
  140.0000   71.5630  223.7680 N   0  0  0  0  0  0  0  0  0  0  0  0
  138.7830   70.7420  223.6720 C   0  0  0  0  0  0  0  0  0  0  0  0
  139.2110   69.3250  224.0030 C   0  0  0  0  0  0  0  0  0  0  0  0
  139.8150   69.3530  225.3600 C   0  0  0  0  0  0  0  0  0  0  0  0
  139.7120   68.1720  226.1010 C   0  0  0  0  0  0  0  0  0  0  0  0
  140.2670   68.1590  227.3810 C   0  0  0  0  0  0  0  0  0  0  0  0
  140.8950   69.2880  227.8870 C   0  0  0  0  0  0  0  0  0  0  0  0
  140.9970   70.4610  227.1540 C   0  0  0  0  0  0  0  0  0  0  0  0
  140.4440   70.4640  225.8860 C   0  0  0  0  0  0  0  0  0  0  0  0
  140.5510   71.7180  225.0940 C   0  0  0  0  0  0  0  0  0  0  0  0
  140.3470   73.4290  222.3400 N   0  0  0  0  0  0  0  0  0  0  0  0
  139.4260   75.9680  222.0860 C   0  0  0  0  0  0  0  0  0  0  0  0
  136.5840   79.8730  223.4740 C   0  0  0  0  0  0  0  0  0  0  0  0
  135.7460   80.4320  224.4440 C   0  0  0  0  0  0  0  0  0  0  0  0
  134.6260   79.9900  227.6090 H   0  0  0  0  0  0  0  0  0  0  0  0
  135.7310   80.8590  228.6530 H   0  0  0  0  0  0  0  0  0  0  0  0
  138.0639   82.1935  226.2423 H   0  0  0  0  0  0  0  0  0  0  0  0
  139.5193   81.1797  224.5021 H   0  0  0  0  0  0  0  0  0  0  0  0
  138.8202   80.1513  221.5289 H   0  0  0  0  0  0  0  0  0  0  0  0
  139.9224   79.5897  222.7891 H   0  0  0  0  0  0  0  0  0  0  0  0
  138.1673   77.7379  223.2194 H   0  0  0  0  0  0  0  0  0  0  0  0
  137.5299   78.2913  221.5533 H   0  0  0  0  0  0  0  0  0  0  0  0
  138.2449   77.3486  219.7437 H   0  0  0  0  0  0  0  0  0  0  0  0
  139.8692   78.0512  219.7443 H   0  0  0  0  0  0  0  0  0  0  0  0
  139.0420   75.1372  219.5296 H   0  0  0  0  0  0  0  0  0  0  0  0
  140.4979   75.8479  218.9142 H   0  0  0  0  0  0  0  0  0  0  0  0
  141.5048   75.9386  221.2307 H   0  0  0  0  0  0  0  0  0  0  0  0
  143.5625   71.5250  217.8699 H   0  0  0  0  0  0  0  0  0  0  0  0
  143.6856   72.9254  218.9516 H   0  0  0  0  0  0  0  0  0  0  0  0
  145.8537   71.6447  218.8543 H   0  0  0  0  0  0  0  0  0  0  0  0
  145.1786   71.5948  220.4961 H   0  0  0  0  0  0  0  0  0  0  0  0
  147.0563   69.6147  219.1038 H   0  0  0  0  0  0  0  0  0  0  0  0
  146.9855   67.1416  218.9347 H   0  0  0  0  0  0  0  0  0  0  0  0
  144.8241   65.9077  219.0993 H   0  0  0  0  0  0  0  0  0  0  0  0
  142.7284   67.2037  219.4316 H   0  0  0  0  0  0  0  0  0  0  0  0
  141.7641   69.6253  218.7946 H   0  0  0  0  0  0  0  0  0  0  0  0
  141.9641   69.4796  220.5819 H   0  0  0  0  0  0  0  0  0  0  0  0
  138.0278   71.0916  224.3913 H   0  0  0  0  0  0  0  0  0  0  0  0
  138.3315   70.8043  222.6709 H   0  0  0  0  0  0  0  0  0  0  0  0
  138.3380   68.6558  223.9930 H   0  0  0  0  0  0  0  0  0  0  0  0
  139.9337   68.9527  223.2620 H   0  0  0  0  0  0  0  0  0  0  0  0
  139.2107   67.2837  225.6891 H   0  0  0  0  0  0  0  0  0  0  0  0
  140.2062   67.2472  227.9933 H   0  0  0  0  0  0  0  0  0  0  0  0
  141.3245   69.2517  228.8990 H   0  0  0  0  0  0  0  0  0  0  0  0
  141.4965   71.3513  227.5636 H   0  0  0  0  0  0  0  0  0  0  0  0
  140.0036   72.5167  225.6160 H   0  0  0  0  0  0  0  0  0  0  0  0
  141.6172   71.9697  224.9942 H   0  0  0  0  0  0  0  0  0  0  0  0
  138.5150   75.3540  222.0293 H   0  0  0  0  0  0  0  0  0  0  0  0
  139.6981   75.9167  223.1506 H   0  0  0  0  0  0  0  0  0  0  0  0
  136.1675   79.2195  222.6933 H   0  0  0  0  0  0  0  0  0  0  0  0
  134.6675   80.2163  224.4264 H   0  0  0  0  0  0  0  0  0  0  0  0
  1  2  1  0
  2  3  2  0
  2  4  2  0
  2  5  1  0
  5  6  2  0
  6  7  1  0
  7  8  2  0
  8  9  1  0
  9 10  1  0
 10 11  1  0
 11 12  1  0
 12 13  1  0
 13 14  1  0
 14 15  1  0
 15 16  2  0
 16 17  1  0
 17 18  1  0
 18 19  1  0
 19 20  1  0
 20 21  1  0
 21 22  2  0
 22 23  1  0
 23 24  2  0
 24 25  1  0
 25 26  2  0
 26 27  1  0
 17 28  2  0
 28 29  1  0
 29 30  1  0
 30 31  1  0
 31 32  1  0
 32 33  1  0
 33 34  2  0
 34 35  1  0
 35 36  2  0
 36 37  1  0
 37 38  2  0
 38 39  1  0
 29 40  2  0
 14 41  1  0
  8 42  1  0
 42 43  2  0
 43  5  1  0
 41 11  1  0
 40 15  1  0
 27 18  1  0
 39 30  1  0
 26 21  1  0
 38 33  1  0
  1 44  1  0
  1 45  1  0
  6 46  1  0
  7 47  1  0
  9 48  1  0
  9 49  1  0
 10 50  1  0
 10 51  1  0
 12 52  1  0
 12 53  1  0
 13 54  1  0
 13 55  1  0
 14 56  1  1
 19 57  1  0
 19 58  1  0
 20 59  1  0
 20 60  1  0
 22 61  1  0
 23 62  1  0
 24 63  1  0
 25 64  1  0
 27 65  1  0
 27 66  1  0
 31 67  1  0
 31 68  1  0
 32 69  1  0
 32 70  1  0
 34 71  1  0
 35 72  1  0
 36 73  1  0
 37 74  1  0
 39 75  1  0
 39 76  1  0
 41 77  1  0
 41 78  1  0
 42 79  1  0
 43 80  1  0
M  END
>  <smiles>  (41) 
NS(=O)(=O)c1ccc(CCN2CCC(c3nc(N4CCc5ccccc5C4)nc(N4CCc5ccccc5C4)n3)C2)cc1

>  <score_type>  (41) 
oracle

>  <origin>  (41) 
autodockgpu

>  <m_score__min__energy>  (41) 
-11.56

>  <m_primary>  (41) 
energy

>  <rmsd>  (41) 
3.8788281812327874

>  <m_score__min__rmsd>  (41) 
3.8788281812327874

>  <meeko>  (41) 
{"free_energy": -10.93, "intermolecular_energy": -13.32, "internal_energy": -1.34, "cluster_size": 14, "cluster_id": 2, "rank_in_cluster": 6}

>  <energy>  (41) 
-10.15

>  <cluster_rmsd>  (41) 
0.0

>  <cluster>  (41) 
8

$$$$

     RDKit          3D

 80 86  0  0  1  0  0  0  0  0999 V2000
  146.6740   73.8010  220.5260 N   0  0  0  0  0  0  0  0  0  0  0  0
  145.3020   73.2720  219.6200 S   0  0  0  0  0  0  0  0  0  0  0  0
  144.5300   72.3260  220.5050 O   0  0  0  0  0  0  0  0  0  0  0  0
  145.7810   72.4890  218.4530 O   0  0  0  0  0  0  0  0  0  0  0  0
  144.2430   74.5890  219.1760 C   0  0  0  0  0  0  0  0  0  0  0  0
  144.0870   75.6290  220.0880 C   0  0  0  0  0  0  0  0  0  0  0  0
  143.2430   76.6770  219.7410 C   0  0  0  0  0  0  0  0  0  0  0  0
  142.5640   76.7230  218.5440 C   0  0  0  0  0  0  0  0  0  0  0  0
  141.6520   77.8890  218.2380 C   0  0  0  0  0  0  0  0  0  0  0  0
  140.2660   77.3840  218.5000 C   0  0  0  0  0  0  0  0  0  0  0  0
  140.0360   76.6370  219.6500 N   0  0  0  0  0  0  0  0  0  0  0  0
  140.3750   77.1510  220.9220 C   0  0  0  0  0  0  0  0  0  0  0  0
  140.4860   75.9270  221.8530 C   0  0  0  0  0  0  0  0  0  0  0  0
  139.6970   74.9080  221.0540 C   0  0  2  0  0  0  0  0  0  0  0  0
  139.9050   73.5220  221.4500 C   0  0  0  0  0  0  0  0  0  0  0  0
  139.5870   72.9770  222.6370 N   0  0  0  0  0  0  0  0  0  0  0  0
  139.8200   71.6750  222.9140 C   0  0  0  0  0  0  0  0  0  0  0  0
  139.4850   71.0920  224.1650 N   0  0  0  0  0  0  0  0  0  0  0  0
  138.4410   70.0970  224.3220 C   0  0  0  0  0  0  0  0  0  0  0  0
  139.1380   68.8010  224.7010 C   0  0  0  0  0  0  0  0  0  0  0  0
  139.8840   69.0700  225.9610 C   0  0  0  0  0  0  0  0  0  0  0  0
  140.0750   68.0180  226.8370 C   0  0  0  0  0  0  0  0  0  0  0  0
  140.7670   68.2330  228.0200 C   0  0  0  0  0  0  0  0  0  0  0  0
  141.2790   69.4850  228.3460 C   0  0  0  0  0  0  0  0  0  0  0  0
  141.0790   70.5190  227.4570 C   0  0  0  0  0  0  0  0  0  0  0  0
  140.3890   70.3150  226.2780 C   0  0  0  0  0  0  0  0  0  0  0  0
  140.2080   71.4870  225.3590 C   0  0  0  0  0  0  0  0  0  0  0  0
  140.3920   70.9040  221.9620 N   0  0  0  0  0  0  0  0  0  0  0  0
  140.7300   71.4010  220.7550 C   0  0  0  0  0  0  0  0  0  0  0  0
  141.3350   70.6240  219.7320 N   0  0  0  0  0  0  0  0  0  0  0  0
  141.5050   71.1770  218.3790 C   0  0  0  0  0  0  0  0  0  0  0  0
  143.0000   71.3520  218.1870 C   0  0  0  0  0  0  0  0  0  0  0  0
  143.6270   70.0190  218.3790 C   0  0  0  0  0  0  0  0  0  0  0  0
  144.8190   69.7980  217.6800 C   0  0  0  0  0  0  0  0  0  0  0  0
  145.4380   68.5580  217.8340 C   0  0  0  0  0  0  0  0  0  0  0  0
  144.8790   67.5880  218.6530 C   0  0  0  0  0  0  0  0  0  0  0  0
  143.6970   67.8050  219.3450 C   0  0  0  0  0  0  0  0  0  0  0  0
  143.0900   69.0380  219.1870 C   0  0  0  0  0  0  0  0  0  0  0  0
  141.8220   69.2780  219.9270 C   0  0  0  0  0  0  0  0  0  0  0  0
  140.4790   72.6890  220.5320 N   0  0  0  0  0  0  0  0  0  0  0  0
  140.2270   75.2290  219.6420 C   0  0  0  0  0  0  0  0  0  0  0  0
  142.7220   75.6860  217.6390 C   0  0  0  0  0  0  0  0  0  0  0  0
  143.5640   74.6150  217.9550 C   0  0  0  0  0  0  0  0  0  0  0  0
  147.1640   74.5610  220.0320 H   0  0  0  0  0  0  0  0  0  0  0  0
  146.4130   74.0340  221.5240 H   0  0  0  0  0  0  0  0  0  0  0  0
  144.6152   75.6215  221.0529 H   0  0  0  0  0  0  0  0  0  0  0  0
  143.1117   77.5052  220.4530 H   0  0  0  0  0  0  0  0  0  0  0  0
  141.8823   78.7413  218.8942 H   0  0  0  0  0  0  0  0  0  0  0  0
  141.7714   78.2434  217.2035 H   0  0  0  0  0  0  0  0  0  0  0  0
  139.6044   78.2616  218.5457 H   0  0  0  0  0  0  0  0  0  0  0  0
  140.0787   76.6765  217.6788 H   0  0  0  0  0  0  0  0  0  0  0  0
  141.3353   77.6856  220.8758 H   0  0  0  0  0  0  0  0  0  0  0  0
  139.6226   77.8677  221.2830 H   0  0  0  0  0  0  0  0  0  0  0  0
  141.5315   75.6145  221.9919 H   0  0  0  0  0  0  0  0  0  0  0  0
  140.1208   76.0924  222.8773 H   0  0  0  0  0  0  0  0  0  0  0  0
  138.6071   74.9854  221.1805 H   0  0  0  0  0  0  0  0  0  0  0  0
  137.7428   70.4000  225.1162 H   0  0  0  0  0  0  0  0  0  0  0  0
  137.8581   69.9807  223.3964 H   0  0  0  0  0  0  0  0  0  0  0  0
  138.3965   68.0046  224.8620 H   0  0  0  0  0  0  0  0  0  0  0  0
  139.8170   68.4683  223.9021 H   0  0  0  0  0  0  0  0  0  0  0  0
  139.6817   67.0189  226.5982 H   0  0  0  0  0  0  0  0  0  0  0  0
  140.9143   67.3943  228.7164 H   0  0  0  0  0  0  0  0  0  0  0  0
  141.8275   69.6449  229.2860 H   0  0  0  0  0  0  0  0  0  0  0  0
  141.4737   71.5191  227.6893 H   0  0  0  0  0  0  0  0  0  0  0  0
  139.6418   72.2721  225.8815 H   0  0  0  0  0  0  0  0  0  0  0  0
  141.1988   71.8641  225.0654 H   0  0  0  0  0  0  0  0  0  0  0  0
  141.1014   70.4820  217.6279 H   0  0  0  0  0  0  0  0  0  0  0  0
  140.9681   72.1298  218.2614 H   0  0  0  0  0  0  0  0  0  0  0  0
  143.2087   71.7240  217.1731 H   0  0  0  0  0  0  0  0  0  0  0  0
  143.4033   72.0802  218.9061 H   0  0  0  0  0  0  0  0  0  0  0  0
  145.2521   70.5745  217.0323 H   0  0  0  0  0  0  0  0  0  0  0  0
  146.3773   68.3473  217.3017 H   0  0  0  0  0  0  0  0  0  0  0  0
  145.3881   66.6184  218.7566 H   0  0  0  0  0  0  0  0  0  0  0  0
  143.2607   67.0297  219.9920 H   0  0  0  0  0  0  0  0  0  0  0  0
  141.0611   68.5685  219.5696 H   0  0  0  0  0  0  0  0  0  0  0  0
  142.0198   69.1374  220.9999 H   0  0  0  0  0  0  0  0  0  0  0  0
  141.2866   74.9568  219.5270 H   0  0  0  0  0  0  0  0  0  0  0  0
  139.7376   74.6890  218.8180 H   0  0  0  0  0  0  0  0  0  0  0  0
  142.1882   75.7049  216.6774 H   0  0  0  0  0  0  0  0  0  0  0  0
  143.6923   73.7896  217.2393 H   0  0  0  0  0  0  0  0  0  0  0  0
  1  2  1  0
  2  3  2  0
  2  4  2  0
  2  5  1  0
  5  6  2  0
  6  7  1  0
  7  8  2  0
  8  9  1  0
  9 10  1  0
 10 11  1  0
 11 12  1  0
 12 13  1  0
 13 14  1  0
 14 15  1  0
 15 16  2  0
 16 17  1  0
 17 18  1  0
 18 19  1  0
 19 20  1  0
 20 21  1  0
 21 22  2  0
 22 23  1  0
 23 24  2  0
 24 25  1  0
 25 26  2  0
 26 27  1  0
 17 28  2  0
 28 29  1  0
 29 30  1  0
 30 31  1  0
 31 32  1  0
 32 33  1  0
 33 34  2  0
 34 35  1  0
 35 36  2  0
 36 37  1  0
 37 38  2  0
 38 39  1  0
 29 40  2  0
 14 41  1  0
  8 42  1  0
 42 43  2  0
 43  5  1  0
 41 11  1  0
 40 15  1  0
 27 18  1  0
 39 30  1  0
 26 21  1  0
 38 33  1  0
  1 44  1  0
  1 45  1  0
  6 46  1  0
  7 47  1  0
  9 48  1  0
  9 49  1  0
 10 50  1  0
 10 51  1  0
 12 52  1  0
 12 53  1  0
 13 54  1  0
 13 55  1  0
 14 56  1  6
 19 57  1  0
 19 58  1  0
 20 59  1  0
 20 60  1  0
 22 61  1  0
 23 62  1  0
 24 63  1  0
 25 64  1  0
 27 65  1  0
 27 66  1  0
 31 67  1  0
 31 68  1  0
 32 69  1  0
 32 70  1  0
 34 71  1  0
 35 72  1  0
 36 73  1  0
 37 74  1  0
 39 75  1  0
 39 76  1  0
 41 77  1  0
 41 78  1  0
 42 79  1  0
 43 80  1  0
M  END
>  <smiles>  (42) 
NS(=O)(=O)c1ccc(CCN2CCC(c3nc(N4CCc5ccccc5C4)nc(N4CCc5ccccc5C4)n3)C2)cc1

>  <score_type>  (42) 
oracle

>  <origin>  (42) 
autodockgpu

>  <m_score__min__energy>  (42) 
-11.56

>  <m_primary>  (42) 
energy

>  <rmsd>  (42) 
5.757065456201417

>  <m_score__min__rmsd>  (42) 
5.757065456201417

>  <meeko>  (42) 
{"free_energy": -9.89, "intermolecular_energy": -12.28, "internal_energy": -2.85, "cluster_size": 2, "cluster_id": 4, "rank_in_cluster": 2}

>  <energy>  (42) 
-10.05

>  <cluster_rmsd>  (42) 
0.0

>  <cluster>  (42) 
9

$$$$

     RDKit          3D

 80 86  0  0  1  0  0  0  0  0999 V2000
  143.3040   79.3190  222.7750 N   0  0  0  0  0  0  0  0  0  0  0  0
  142.1750   80.6140  222.9450 S   0  0  0  0  0  0  0  0  0  0  0  0
  142.4570   81.5910  221.8320 O   0  0  0  0  0  0  0  0  0  0  0  0
  142.4520   81.3160  224.2250 O   0  0  0  0  0  0  0  0  0  0  0  0
  140.5170   80.0830  222.7970 C   0  0  0  0  0  0  0  0  0  0  0  0
  139.7270   80.6920  221.8260 C   0  0  0  0  0  0  0  0  0  0  0  0
  138.4070   80.2750  221.7070 C   0  0  0  0  0  0  0  0  0  0  0  0
  137.8590   79.2960  222.5040 C   0  0  0  0  0  0  0  0  0  0  0  0
  136.4110   78.9010  222.3270 C   0  0  0  0  0  0  0  0  0  0  0  0
  136.4440   77.4820  221.8480 C   0  0  0  0  0  0  0  0  0  0  0  0
  137.6720   76.9230  221.5070 N   0  0  0  0  0  0  0  0  0  0  0  0
  138.2680   77.2030  220.2570 C   0  0  0  0  0  0  0  0  0  0  0  0
  139.2780   76.0650  220.0100 C   0  0  0  0  0  0  0  0  0  0  0  0
  139.4560   75.5500  221.4250 C   0  0  2  0  0  0  0  0  0  0  0  0
  140.0580   74.2280  221.5270 C   0  0  0  0  0  0  0  0  0  0  0  0
  140.9370   73.6850  220.6680 N   0  0  0  0  0  0  0  0  0  0  0  0
  141.4440   72.4460  220.8460 C   0  0  0  0  0  0  0  0  0  0  0  0
  142.3740   71.8660  219.9430 N   0  0  0  0  0  0  0  0  0  0  0  0
  143.3300   72.6470  219.1810 C   0  0  0  0  0  0  0  0  0  0  0  0
  144.7040   72.2890  219.7220 C   0  0  0  0  0  0  0  0  0  0  0  0
  144.8670   70.8210  219.5370 C   0  0  0  0  0  0  0  0  0  0  0  0
  146.1450   70.3300  219.3450 C   0  0  0  0  0  0  0  0  0  0  0  0
  146.3330   68.9670  219.1710 C   0  0  0  0  0  0  0  0  0  0  0  0
  145.2640   68.0770  219.1860 C   0  0  0  0  0  0  0  0  0  0  0  0
  143.9980   68.5870  219.3800 C   0  0  0  0  0  0  0  0  0  0  0  0
  143.8010   69.9430  219.5530 C   0  0  0  0  0  0  0  0  0  0  0  0
  142.3950   70.4280  219.7570 C   0  0  0  0  0  0  0  0  0  0  0  0
  141.0470   71.7350  221.9260 N   0  0  0  0  0  0  0  0  0  0  0  0
  140.1670   72.2330  222.8180 C   0  0  0  0  0  0  0  0  0  0  0  0
  139.7240   71.5150  223.9620 N   0  0  0  0  0  0  0  0  0  0  0  0
  138.5190   70.6730  223.8900 C   0  0  0  0  0  0  0  0  0  0  0  0
  139.0050   69.2420  224.0240 C   0  0  0  0  0  0  0  0  0  0  0  0
  139.7360   69.1440  225.3140 C   0  0  0  0  0  0  0  0  0  0  0  0
  139.7270   67.8870  225.9290 C   0  0  0  0  0  0  0  0  0  0  0  0
  140.4020   67.7560  227.1420 C   0  0  0  0  0  0  0  0  0  0  0  0
  141.0530   68.8420  227.7070 C   0  0  0  0  0  0  0  0  0  0  0  0
  141.0620   70.0890  227.1000 C   0  0  0  0  0  0  0  0  0  0  0  0
  140.3900   70.2100  225.8970 C   0  0  0  0  0  0  0  0  0  0  0  0
  140.3960   71.5450  225.2400 C   0  0  0  0  0  0  0  0  0  0  0  0
  139.6980   73.4590  222.5970 N   0  0  0  0  0  0  0  0  0  0  0  0
  137.9880   75.5940  221.8960 C   0  0  0  0  0  0  0  0  0  0  0  0
  138.6490   78.6930  223.4690 C   0  0  0  0  0  0  0  0  0  0  0  0
  139.9820   79.0870  223.6170 C   0  0  0  0  0  0  0  0  0  0  0  0
  142.8150   78.4340  222.5750 H   0  0  0  0  0  0  0  0  0  0  0  0
  144.0650   79.5570  222.0800 H   0  0  0  0  0  0  0  0  0  0  0  0
  140.1348   81.4783  221.1737 H   0  0  0  0  0  0  0  0  0  0  0  0
  137.7726   80.7478  220.9428 H   0  0  0  0  0  0  0  0  0  0  0  0
  135.8725   78.9723  223.2835 H   0  0  0  0  0  0  0  0  0  0  0  0
  135.8896   79.5611  221.6182 H   0  0  0  0  0  0  0  0  0  0  0  0
  136.0151   76.8598  222.6473 H   0  0  0  0  0  0  0  0  0  0  0  0
  135.8872   77.5058  220.8996 H   0  0  0  0  0  0  0  0  0  0  0  0
  137.5060   77.2179  219.4639 H   0  0  0  0  0  0  0  0  0  0  0  0
  138.7582   78.1877  220.2533 H   0  0  0  0  0  0  0  0  0  0  0  0
  138.8659   75.2923  219.3443 H   0  0  0  0  0  0  0  0  0  0  0  0
  140.2086   76.3749  219.5120 H   0  0  0  0  0  0  0  0  0  0  0  0
  140.1659   76.1343  222.0289 H   0  0  0  0  0  0  0  0  0  0  0  0
  143.2636   72.3929  218.1128 H   0  0  0  0  0  0  0  0  0  0  0  0
  143.1317   73.7247  219.2773 H   0  0  0  0  0  0  0  0  0  0  0  0
  145.4834   72.8301  219.1655 H   0  0  0  0  0  0  0  0  0  0  0  0
  144.7967   72.5670  220.7822 H   0  0  0  0  0  0  0  0  0  0  0  0
  147.0057   71.0148  219.3304 H   0  0  0  0  0  0  0  0  0  0  0  0
  147.3514   68.5806  219.0175 H   0  0  0  0  0  0  0  0  0  0  0  0
  145.4242   66.9976  219.0471 H   0  0  0  0  0  0  0  0  0  0  0  0
  143.1345   67.9058  219.3972 H   0  0  0  0  0  0  0  0  0  0  0  0
  141.7913   70.1686  218.8748 H   0  0  0  0  0  0  0  0  0  0  0  0
  141.9807   69.9477  220.6557 H   0  0  0  0  0  0  0  0  0  0  0  0
  137.8288   70.9213  224.7097 H   0  0  0  0  0  0  0  0  0  0  0  0
  137.9728   70.8282  222.9479 H   0  0  0  0  0  0  0  0  0  0  0  0
  138.1486   68.5517  224.0230 H   0  0  0  0  0  0  0  0  0  0  0  0
  139.6605   68.9724  223.1828 H   0  0  0  0  0  0  0  0  0  0  0  0
  139.2061   67.0328  225.4718 H   0  0  0  0  0  0  0  0  0  0  0  0
  140.4182   66.7830  227.6549 H   0  0  0  0  0  0  0  0  0  0  0  0
  141.5777   68.7107  228.6648 H   0  0  0  0  0  0  0  0  0  0  0  0
  141.5812   70.9450  227.5557 H   0  0  0  0  0  0  0  0  0  0  0  0
  139.8851   72.2666  225.8944 H   0  0  0  0  0  0  0  0  0  0  0  0
  141.4424   71.8386  225.0701 H   0  0  0  0  0  0  0  0  0  0  0  0
  137.3649   74.8521  221.3751 H   0  0  0  0  0  0  0  0  0  0  0  0
  137.8237   75.3592  222.9580 H   0  0  0  0  0  0  0  0  0  0  0  0
  138.2295   77.9081  224.1155 H   0  0  0  0  0  0  0  0  0  0  0  0
  140.6122   78.6106  224.3825 H   0  0  0  0  0  0  0  0  0  0  0  0
  1  2  1  0
  2  3  2  0
  2  4  2  0
  2  5  1  0
  5  6  2  0
  6  7  1  0
  7  8  2  0
  8  9  1  0
  9 10  1  0
 10 11  1  0
 11 12  1  0
 12 13  1  0
 13 14  1  0
 14 15  1  0
 15 16  2  0
 16 17  1  0
 17 18  1  0
 18 19  1  0
 19 20  1  0
 20 21  1  0
 21 22  2  0
 22 23  1  0
 23 24  2  0
 24 25  1  0
 25 26  2  0
 26 27  1  0
 17 28  2  0
 28 29  1  0
 29 30  1  0
 30 31  1  0
 31 32  1  0
 32 33  1  0
 33 34  2  0
 34 35  1  0
 35 36  2  0
 36 37  1  0
 37 38  2  0
 38 39  1  0
 29 40  2  0
 14 41  1  0
  8 42  1  0
 42 43  2  0
 43  5  1  0
 41 11  1  0
 40 15  1  0
 27 18  1  0
 39 30  1  0
 26 21  1  0
 38 33  1  0
  1 44  1  0
  1 45  1  0
  6 46  1  0
  7 47  1  0
  9 48  1  0
  9 49  1  0
 10 50  1  0
 10 51  1  0
 12 52  1  0
 12 53  1  0
 13 54  1  0
 13 55  1  0
 14 56  1  1
 19 57  1  0
 19 58  1  0
 20 59  1  0
 20 60  1  0
 22 61  1  0
 23 62  1  0
 24 63  1  0
 25 64  1  0
 27 65  1  0
 27 66  1  0
 31 67  1  0
 31 68  1  0
 32 69  1  0
 32 70  1  0
 34 71  1  0
 35 72  1  0
 36 73  1  0
 37 74  1  0
 39 75  1  0
 39 76  1  0
 41 77  1  0
 41 78  1  0
 42 79  1  0
 43 80  1  0
M  END
>  <smiles>  (43) 
NS(=O)(=O)c1ccc(CCN2CCC(c3nc(N4CCc5ccccc5C4)nc(N4CCc5ccccc5C4)n3)C2)cc1

>  <score_type>  (43) 
oracle

>  <origin>  (43) 
autodockgpu

>  <m_score__min__energy>  (43) 
-11.56

>  <m_primary>  (43) 
energy

>  <rmsd>  (43) 
3.4714498612856697

>  <m_score__min__rmsd>  (43) 
3.4714498612856697

>  <meeko>  (43) 
{"free_energy": -10.9, "intermolecular_energy": -13.28, "internal_energy": -1.65, "cluster_size": 3, "cluster_id": 3, "rank_in_cluster": 2}

>  <energy>  (43) 
-10.02

>  <cluster_rmsd>  (43) 
0.0

>  <cluster>  (43) 
10

$$$$

     RDKit          3D

 80 86  0  0  1  0  0  0  0  0999 V2000
  144.3290   82.8490  216.0230 N   0  0  0  0  0  0  0  0  0  0  0  0
  142.8060   83.0950  216.8000 S   0  0  0  0  0  0  0  0  0  0  0  0
  141.7480   82.9980  215.7300 O   0  0  0  0  0  0  0  0  0  0  0  0
  142.7660   84.4820  217.3310 O   0  0  0  0  0  0  0  0  0  0  0  0
  142.4670   81.8840  218.0130 C   0  0  0  0  0  0  0  0  0  0  0  0
  142.8540   80.5750  217.7440 C   0  0  0  0  0  0  0  0  0  0  0  0
  142.5840   79.6070  218.7050 C   0  0  0  0  0  0  0  0  0  0  0  0
  141.9560   79.8930  219.8960 C   0  0  0  0  0  0  0  0  0  0  0  0
  141.6820   78.7880  220.8890 C   0  0  0  0  0  0  0  0  0  0  0  0
  140.1970   78.5940  220.8640 C   0  0  0  0  0  0  0  0  0  0  0  0
  139.6830   77.3410  221.1840 N   0  0  0  0  0  0  0  0  0  0  0  0
  138.7680   77.1890  222.2500 C   0  0  0  0  0  0  0  0  0  0  0  0
  138.8290   75.7010  222.6450 C   0  0  0  0  0  0  0  0  0  0  0  0
  139.4360   75.1110  221.3880 C   0  0  2  0  0  0  0  0  0  0  0  0
  139.9880   73.7720  221.5400 C   0  0  0  0  0  0  0  0  0  0  0  0
  140.7920   73.1380  220.6710 N   0  0  0  0  0  0  0  0  0  0  0  0
  141.2550   71.8900  220.9000 C   0  0  0  0  0  0  0  0  0  0  0  0
  142.1070   71.2150  219.9850 N   0  0  0  0  0  0  0  0  0  0  0  0
  143.1510   71.8840  219.2330 C   0  0  0  0  0  0  0  0  0  0  0  0
  144.4710   71.3510  219.7650 C   0  0  0  0  0  0  0  0  0  0  0  0
  144.4520   69.8770  219.5570 C   0  0  0  0  0  0  0  0  0  0  0  0
  145.6600   69.2360  219.3540 C   0  0  0  0  0  0  0  0  0  0  0  0
  145.6780   67.8630  219.1580 C   0  0  0  0  0  0  0  0  0  0  0  0
  144.5080   67.1110  219.1630 C   0  0  0  0  0  0  0  0  0  0  0  0
  143.3150   67.7700  219.3680 C   0  0  0  0  0  0  0  0  0  0  0  0
  143.2860   69.1370  219.5620 C   0  0  0  0  0  0  0  0  0  0  0  0
  141.9510   69.7870  219.7770 C   0  0  0  0  0  0  0  0  0  0  0  0
  140.8920   71.2650  222.0420 N   0  0  0  0  0  0  0  0  0  0  0  0
  140.0870   71.8570  222.9480 C   0  0  0  0  0  0  0  0  0  0  0  0
  139.6810   71.2310  224.1580 N   0  0  0  0  0  0  0  0  0  0  0  0
  138.6170   70.2160  224.1490 C   0  0  0  0  0  0  0  0  0  0  0  0
  139.2940   68.9020  224.4950 C   0  0  0  0  0  0  0  0  0  0  0  0
  139.9490   69.0800  225.8170 C   0  0  0  0  0  0  0  0  0  0  0  0
  140.0830   67.9250  226.5940 C   0  0  0  0  0  0  0  0  0  0  0  0
  140.6930   68.0510  227.8420 C   0  0  0  0  0  0  0  0  0  0  0  0
  141.1440   69.2860  228.2830 C   0  0  0  0  0  0  0  0  0  0  0  0
  141.0110   70.4330  227.5140 C   0  0  0  0  0  0  0  0  0  0  0  0
  140.4060   70.2980  226.2780 C   0  0  0  0  0  0  0  0  0  0  0  0
  140.2610   71.5240  225.4480 C   0  0  0  0  0  0  0  0  0  0  0  0
  139.6590   73.0870  222.6760 N   0  0  0  0  0  0  0  0  0  0  0  0
  140.5040   76.1850  221.0950 C   0  0  0  0  0  0  0  0  0  0  0  0
  141.5720   81.1990  220.1580 C   0  0  0  0  0  0  0  0  0  0  0  0
  141.8290   82.1980  219.2150 C   0  0  0  0  0  0  0  0  0  0  0  0
  145.1040   83.0460  216.6730 H   0  0  0  0  0  0  0  0  0  0  0  0
  144.3810   81.8970  215.5660 H   0  0  0  0  0  0  0  0  0  0  0  0
  143.3574   80.3142  216.8014 H   0  0  0  0  0  0  0  0  0  0  0  0
  142.8852   78.5681  218.5049 H   0  0  0  0  0  0  0  0  0  0  0  0
  142.1966   77.8634  220.5884 H   0  0  0  0  0  0  0  0  0  0  0  0
  142.0458   79.0416  221.8957 H   0  0  0  0  0  0  0  0  0  0  0  0
  139.7641   79.3132  221.5749 H   0  0  0  0  0  0  0  0  0  0  0  0
  139.9264   78.7326  219.8068 H   0  0  0  0  0  0  0  0  0  0  0  0
  139.0606   77.8234  223.0997 H   0  0  0  0  0  0  0  0  0  0  0  0
  137.7511   77.4893  221.9573 H   0  0  0  0  0  0  0  0  0  0  0  0
  139.4725   75.5390  223.5223 H   0  0  0  0  0  0  0  0  0  0  0  0
  137.8637   75.2631  222.9392 H   0  0  0  0  0  0  0  0  0  0  0  0
  138.7093   74.9311  220.5821 H   0  0  0  0  0  0  0  0  0  0  0  0
  143.0531   71.6568  218.1612 H   0  0  0  0  0  0  0  0  0  0  0  0
  143.0870   72.9763  219.3464 H   0  0  0  0  0  0  0  0  0  0  0  0
  145.3108   71.8007  219.2149 H   0  0  0  0  0  0  0  0  0  0  0  0
  144.5978   71.5989  220.8292 H   0  0  0  0  0  0  0  0  0  0  0  0
  146.5985   69.8097  219.3480 H   0  0  0  0  0  0  0  0  0  0  0  0
  146.6408   67.3567  218.9947 H   0  0  0  0  0  0  0  0  0  0  0  0
  144.5340   66.0223  219.0079 H   0  0  0  0  0  0  0  0  0  0  0  0
  142.3742   67.2000  219.3772 H   0  0  0  0  0  0  0  0  0  0  0  0
  141.3193   69.6171  218.8926 H   0  0  0  0  0  0  0  0  0  0  0  0
  141.4815   69.3473  220.6693 H   0  0  0  0  0  0  0  0  0  0  0  0
  137.8491   70.4598  224.8979 H   0  0  0  0  0  0  0  0  0  0  0  0
  138.1137   70.1666  223.1722 H   0  0  0  0  0  0  0  0  0  0  0  0
  138.5472   68.0962  224.5498 H   0  0  0  0  0  0  0  0  0  0  0  0
  140.0326   68.6291  223.7268 H   0  0  0  0  0  0  0  0  0  0  0  0
  139.7200   66.9512  226.2335 H   0  0  0  0  0  0  0  0  0  0  0  0
  140.8172   67.1643  228.4810 H   0  0  0  0  0  0  0  0  0  0  0  0
  141.6212   69.3583  229.2715 H   0  0  0  0  0  0  0  0  0  0  0  0
  141.3716   71.4085  227.8724 H   0  0  0  0  0  0  0  0  0  0  0  0
  139.6120   72.2376  225.9767 H   0  0  0  0  0  0  0  0  0  0  0  0
  141.2629   71.9479  225.2849 H   0  0  0  0  0  0  0  0  0  0  0  0
  141.3045   76.1879  221.8495 H   0  0  0  0  0  0  0  0  0  0  0  0
  141.0511   76.0638  220.1485 H   0  0  0  0  0  0  0  0  0  0  0  0
  141.0676   81.4478  221.1033 H   0  0  0  0  0  0  0  0  0  0  0  0
  141.5275   83.2358  219.4204 H   0  0  0  0  0  0  0  0  0  0  0  0
  1  2  1  0
  2  3  2  0
  2  4  2  0
  2  5  1  0
  5  6  2  0
  6  7  1  0
  7  8  2  0
  8  9  1  0
  9 10  1  0
 10 11  1  0
 11 12  1  0
 12 13  1  0
 13 14  1  0
 14 15  1  0
 15 16  2  0
 16 17  1  0
 17 18  1  0
 18 19  1  0
 19 20  1  0
 20 21  1  0
 21 22  2  0
 22 23  1  0
 23 24  2  0
 24 25  1  0
 25 26  2  0
 26 27  1  0
 17 28  2  0
 28 29  1  0
 29 30  1  0
 30 31  1  0
 31 32  1  0
 32 33  1  0
 33 34  2  0
 34 35  1  0
 35 36  2  0
 36 37  1  0
 37 38  2  0
 38 39  1  0
 29 40  2  0
 14 41  1  0
  8 42  1  0
 42 43  2  0
 43  5  1  0
 41 11  1  0
 40 15  1  0
 27 18  1  0
 39 30  1  0
 26 21  1  0
 38 33  1  0
  1 44  1  0
  1 45  1  0
  6 46  1  0
  7 47  1  0
  9 48  1  0
  9 49  1  0
 10 50  1  0
 10 51  1  0
 12 52  1  0
 12 53  1  0
 13 54  1  0
 13 55  1  0
 14 56  1  6
 19 57  1  0
 19 58  1  0
 20 59  1  0
 20 60  1  0
 22 61  1  0
 23 62  1  0
 24 63  1  0
 25 64  1  0
 27 65  1  0
 27 66  1  0
 31 67  1  0
 31 68  1  0
 32 69  1  0
 32 70  1  0
 34 71  1  0
 35 72  1  0
 36 73  1  0
 37 74  1  0
 39 75  1  0
 39 76  1  0
 41 77  1  0
 41 78  1  0
 42 79  1  0
 43 80  1  0
M  END
>  <smiles>  (44) 
NS(=O)(=O)c1ccc(CCN2CCC(c3nc(N4CCc5ccccc5C4)nc(N4CCc5ccccc5C4)n3)C2)cc1

>  <score_type>  (44) 
oracle

>  <origin>  (44) 
autodockgpu

>  <m_score__min__energy>  (44) 
-11.56

>  <m_primary>  (44) 
energy

>  <rmsd>  (44) 
4.337747309231157

>  <m_score__min__rmsd>  (44) 
4.337747309231157

>  <meeko>  (44) 
{"free_energy": -10.75, "intermolecular_energy": -13.13, "internal_energy": -1.4, "cluster_size": 13, "cluster_id": 1, "rank_in_cluster": 7}

>  <energy>  (44) 
-9.74

>  <cluster_rmsd>  (44) 
0.0

>  <cluster>  (44) 
11

$$$$

     RDKit          3D

 80 86  0  0  1  0  0  0  0  0999 V2000
  132.0620   73.6630  225.1300 N   0  0  0  0  0  0  0  0  0  0  0  0
  133.4940   74.2490  225.8990 S   0  0  0  0  0  0  0  0  0  0  0  0
  134.3690   73.0510  226.1670 O   0  0  0  0  0  0  0  0  0  0  0  0
  133.1190   74.8220  227.2170 O   0  0  0  0  0  0  0  0  0  0  0  0
  134.3880   75.3630  224.8940 C   0  0  0  0  0  0  0  0  0  0  0  0
  134.0090   76.7020  224.9180 C   0  0  0  0  0  0  0  0  0  0  0  0
  134.7150   77.5920  224.1180 C   0  0  0  0  0  0  0  0  0  0  0  0
  135.7610   77.2020  223.3110 C   0  0  0  0  0  0  0  0  0  0  0  0
  136.4760   78.2230  222.4560 C   0  0  0  0  0  0  0  0  0  0  0  0
  137.9320   78.0320  222.7500 C   0  0  0  0  0  0  0  0  0  0  0  0
  138.6660   77.1680  221.9440 N   0  0  0  0  0  0  0  0  0  0  0  0
  138.3930   77.0650  220.5620 C   0  0  0  0  0  0  0  0  0  0  0  0
  138.9810   75.7120  220.1170 C   0  0  0  0  0  0  0  0  0  0  0  0
  139.9540   75.4550  221.2500 C   0  0  2  0  0  0  0  0  0  0  0  0
  140.4220   74.0800  221.3590 C   0  0  0  0  0  0  0  0  0  0  0  0
  141.2300   73.4430  220.4950 N   0  0  0  0  0  0  0  0  0  0  0  0
  141.6110   72.1600  220.6810 C   0  0  0  0  0  0  0  0  0  0  0  0
  142.4660   71.4810  219.7720 N   0  0  0  0  0  0  0  0  0  0  0  0
  143.3960   72.1680  218.8950 C   0  0  0  0  0  0  0  0  0  0  0  0
  144.7900   71.8050  219.3800 C   0  0  0  0  0  0  0  0  0  0  0  0
  144.8970   70.3220  219.3020 C   0  0  0  0  0  0  0  0  0  0  0  0
  146.1450   69.7740  219.0740 C   0  0  0  0  0  0  0  0  0  0  0  0
  146.2810   68.3960  218.9960 C   0  0  0  0  0  0  0  0  0  0  0  0
  145.1880   67.5480  219.1460 C   0  0  0  0  0  0  0  0  0  0  0  0
  143.9530   68.1140  219.3730 C   0  0  0  0  0  0  0  0  0  0  0  0
  143.8080   69.4860  219.4510 C   0  0  0  0  0  0  0  0  0  0  0  0
  142.4330   70.0330  219.6990 C   0  0  0  0  0  0  0  0  0  0  0  0
  141.1600   71.5040  221.7730 N   0  0  0  0  0  0  0  0  0  0  0  0
  140.3470   72.0970  222.6710 C   0  0  0  0  0  0  0  0  0  0  0  0
  139.8500   71.4390  223.8280 N   0  0  0  0  0  0  0  0  0  0  0  0
  138.6340   70.6140  223.7490 C   0  0  0  0  0  0  0  0  0  0  0  0
  139.0890   69.1830  223.9650 C   0  0  0  0  0  0  0  0  0  0  0  0
  139.7710   69.1310  225.2850 C   0  0  0  0  0  0  0  0  0  0  0  0
  139.7170   67.9040  225.9530 C   0  0  0  0  0  0  0  0  0  0  0  0
  140.3450   67.8170  227.1960 C   0  0  0  0  0  0  0  0  0  0  0  0
  140.9940   68.9170  227.7360 C   0  0  0  0  0  0  0  0  0  0  0  0
  141.0470   70.1350  227.0740 C   0  0  0  0  0  0  0  0  0  0  0  0
  140.4220   70.2120  225.8430 C   0  0  0  0  0  0  0  0  0  0  0  0
  140.4750   71.5150  225.1280 C   0  0  0  0  0  0  0  0  0  0  0  0
  140.0020   73.3620  222.4430 N   0  0  0  0  0  0  0  0  0  0  0  0
  139.0810   75.9030  222.4400 C   0  0  0  0  0  0  0  0  0  0  0  0
  136.1340   75.8680  223.2900 C   0  0  0  0  0  0  0  0  0  0  0  0
  135.4460   74.9450  224.0840 C   0  0  0  0  0  0  0  0  0  0  0  0
  131.3090   74.3640  225.1800 H   0  0  0  0  0  0  0  0  0  0  0  0
  132.2630   73.3160  224.1520 H   0  0  0  0  0  0  0  0  0  0  0  0
  133.1768   77.0448  225.5504 H   0  0  0  0  0  0  0  0  0  0  0  0
  134.4263   78.6534  224.1296 H   0  0  0  0  0  0  0  0  0  0  0  0
  136.2712   78.0446  221.3900 H   0  0  0  0  0  0  0  0  0  0  0  0
  136.1435   79.2482  222.6759 H   0  0  0  0  0  0  0  0  0  0  0  0
  138.4087   79.0211  222.6836 H   0  0  0  0  0  0  0  0  0  0  0  0
  137.9452   77.5520  223.7396 H   0  0  0  0  0  0  0  0  0  0  0  0
  137.3079   77.0883  220.3832 H   0  0  0  0  0  0  0  0  0  0  0  0
  138.8324   77.9018  219.9993 H   0  0  0  0  0  0  0  0  0  0  0  0
  138.2081   74.9314  220.0591 H   0  0  0  0  0  0  0  0  0  0  0  0
  139.4319   75.7131  219.1137 H   0  0  0  0  0  0  0  0  0  0  0  0
  140.9150   75.9795  221.1430 H   0  0  0  0  0  0  0  0  0  0  0  0
  143.2559   71.8352  217.8560 H   0  0  0  0  0  0  0  0  0  0  0  0
  143.2363   73.2561  218.9177 H   0  0  0  0  0  0  0  0  0  0  0  0
  145.5493   72.2743  218.7372 H   0  0  0  0  0  0  0  0  0  0  0  0
  144.9566   72.1604  220.4076 H   0  0  0  0  0  0  0  0  0  0  0  0
  147.0234   70.4255  218.9554 H   0  0  0  0  0  0  0  0  0  0  0  0
  147.2755   67.9636  218.8114 H   0  0  0  0  0  0  0  0  0  0  0  0
  145.3070   66.4561  219.0850 H   0  0  0  0  0  0  0  0  0  0  0  0
  143.0720   67.4664  219.4936 H   0  0  0  0  0  0  0  0  0  0  0  0
  141.7686   69.7274  218.8773 H   0  0  0  0  0  0  0  0  0  0  0  0
  142.0610   69.6377  220.6558 H   0  0  0  0  0  0  0  0  0  0  0  0
  137.9189   70.9104  224.5305 H   0  0  0  0  0  0  0  0  0  0  0  0
  138.1256   70.7349  222.7810 H   0  0  0  0  0  0  0  0  0  0  0  0
  138.2209   68.5075  223.9628 H   0  0  0  0  0  0  0  0  0  0  0  0
  139.7700   68.8652  223.1618 H   0  0  0  0  0  0  0  0  0  0  0  0
  139.1983   67.0387  225.5146 H   0  0  0  0  0  0  0  0  0  0  0  0
  140.3251   66.8681  227.7520 H   0  0  0  0  0  0  0  0  0  0  0  0
  141.4809   68.8211  228.7177 H   0  0  0  0  0  0  0  0  0  0  0  0
  141.5642   71.0025  227.5098 H   0  0  0  0  0  0  0  0  0  0  0  0
  139.9531   72.2732  225.7303 H   0  0  0  0  0  0  0  0  0  0  0  0
  141.5320   71.7835  224.9842 H   0  0  0  0  0  0  0  0  0  0  0  0
  138.2305   75.2255  222.6063 H   0  0  0  0  0  0  0  0  0  0  0  0
  139.5846   75.9191  223.4178 H   0  0  0  0  0  0  0  0  0  0  0  0
  136.9668   75.5366  222.6523 H   0  0  0  0  0  0  0  0  0  0  0  0
  135.7395   73.8850  224.0705 H   0  0  0  0  0  0  0  0  0  0  0  0
  1  2  1  0
  2  3  2  0
  2  4  2  0
  2  5  1  0
  5  6  2  0
  6  7  1  0
  7  8  2  0
  8  9  1  0
  9 10  1  0
 10 11  1  0
 11 12  1  0
 12 13  1  0
 13 14  1  0
 14 15  1  0
 15 16  2  0
 16 17  1  0
 17 18  1  0
 18 19  1  0
 19 20  1  0
 20 21  1  0
 21 22  2  0
 22 23  1  0
 23 24  2  0
 24 25  1  0
 25 26  2  0
 26 27  1  0
 17 28  2  0
 28 29  1  0
 29 30  1  0
 30 31  1  0
 31 32  1  0
 32 33  1  0
 33 34  2  0
 34 35  1  0
 35 36  2  0
 36 37  1  0
 37 38  2  0
 38 39  1  0
 29 40  2  0
 14 41  1  0
  8 42  1  0
 42 43  2  0
 43  5  1  0
 41 11  1  0
 40 15  1  0
 27 18  1  0
 39 30  1  0
 26 21  1  0
 38 33  1  0
  1 44  1  0
  1 45  1  0
  6 46  1  0
  7 47  1  0
  9 48  1  0
  9 49  1  0
 10 50  1  0
 10 51  1  0
 12 52  1  0
 12 53  1  0
 13 54  1  0
 13 55  1  0
 14 56  1  6
 19 57  1  0
 19 58  1  0
 20 59  1  0
 20 60  1  0
 22 61  1  0
 23 62  1  0
 24 63  1  0
 25 64  1  0
 27 65  1  0
 27 66  1  0
 31 67  1  0
 31 68  1  0
 32 69  1  0
 32 70  1  0
 34 71  1  0
 35 72  1  0
 36 73  1  0
 37 74  1  0
 39 75  1  0
 39 76  1  0
 41 77  1  0
 41 78  1  0
 42 79  1  0
 43 80  1  0
M  END
>  <smiles>  (45) 
NS(=O)(=O)c1ccc(CCN2CCC(c3nc(N4CCc5ccccc5C4)nc(N4CCc5ccccc5C4)n3)C2)cc1

>  <score_type>  (45) 
oracle

>  <origin>  (45) 
autodockgpu

>  <m_score__min__energy>  (45) 
-11.56

>  <m_primary>  (45) 
energy

>  <rmsd>  (45) 
5.599908795895716

>  <m_score__min__rmsd>  (45) 
5.599908795895716

>  <meeko>  (45) 
{"free_energy": -10.36, "intermolecular_energy": -12.75, "internal_energy": -1.61, "cluster_size": 2, "cluster_id": 6, "rank_in_cluster": 2}

>  <energy>  (45) 
-9.27

>  <cluster_rmsd>  (45) 
0.0

>  <cluster>  (45) 
12

$$$$

     RDKit          3D

 80 86  0  0  1  0  0  0  0  0999 V2000
  144.2040   82.6420  215.8980 N   0  0  0  0  0  0  0  0  0  0  0  0
  142.7170   82.9800  216.7090 S   0  0  0  0  0  0  0  0  0  0  0  0
  141.6130   82.7850  215.7000 O   0  0  0  0  0  0  0  0  0  0  0  0
  142.7070   84.4140  217.0980 O   0  0  0  0  0  0  0  0  0  0  0  0
  142.4250   81.9010  218.0520 C   0  0  0  0  0  0  0  0  0  0  0  0
  142.8030   80.5700  217.9060 C   0  0  0  0  0  0  0  0  0  0  0  0
  142.5700   79.7070  218.9700 C   0  0  0  0  0  0  0  0  0  0  0  0
  141.9850   80.1160  220.1470 C   0  0  0  0  0  0  0  0  0  0  0  0
  141.7490   79.1190  221.2590 C   0  0  0  0  0  0  0  0  0  0  0  0
  140.2640   78.9390  221.3180 C   0  0  0  0  0  0  0  0  0  0  0  0
  139.7540   77.6540  221.4660 N   0  0  0  0  0  0  0  0  0  0  0  0
  138.7180   77.3910  222.3910 C   0  0  0  0  0  0  0  0  0  0  0  0
  138.7760   75.8760  222.6670 C   0  0  0  0  0  0  0  0  0  0  0  0
  139.5540   75.4100  221.4520 C   0  0  2  0  0  0  0  0  0  0  0  0
  140.1240   74.0740  221.5620 C   0  0  0  0  0  0  0  0  0  0  0  0
  140.9770   73.4980  220.6990 N   0  0  0  0  0  0  0  0  0  0  0  0
  141.4540   72.2490  220.8860 C   0  0  0  0  0  0  0  0  0  0  0  0
  142.3570   71.6350  219.9770 N   0  0  0  0  0  0  0  0  0  0  0  0
  143.2940   72.3860  219.1620 C   0  0  0  0  0  0  0  0  0  0  0  0
  144.6820   72.0410  219.6770 C   0  0  0  0  0  0  0  0  0  0  0  0
  144.8350   70.5660  219.5380 C   0  0  0  0  0  0  0  0  0  0  0  0
  146.1050   70.0650  219.3280 C   0  0  0  0  0  0  0  0  0  0  0  0
  146.2850   68.6950  219.1960 C   0  0  0  0  0  0  0  0  0  0  0  0
  145.2140   67.8110  219.2720 C   0  0  0  0  0  0  0  0  0  0  0  0
  143.9560   68.3320  219.4820 C   0  0  0  0  0  0  0  0  0  0  0  0
  143.7670   69.6940  219.6140 C   0  0  0  0  0  0  0  0  0  0  0  0
  142.3690   70.1910  219.8410 C   0  0  0  0  0  0  0  0  0  0  0  0
  141.0540   71.5610  221.9780 N   0  0  0  0  0  0  0  0  0  0  0  0
  140.1990   72.0920  222.8770 C   0  0  0  0  0  0  0  0  0  0  0  0
  139.7540   71.4000  224.0340 N   0  0  0  0  0  0  0  0  0  0  0  0
  138.6170   70.4690  223.9530 C   0  0  0  0  0  0  0  0  0  0  0  0
  139.1960   69.0860  224.1820 C   0  0  0  0  0  0  0  0  0  0  0  0
  139.8680   69.1040  225.5070 C   0  0  0  0  0  0  0  0  0  0  0  0
  139.9200   67.8810  226.1840 C   0  0  0  0  0  0  0  0  0  0  0  0
  140.5430   67.8580  227.4320 C   0  0  0  0  0  0  0  0  0  0  0  0
  141.0870   69.0160  227.9690 C   0  0  0  0  0  0  0  0  0  0  0  0
  141.0360   70.2290  227.2990 C   0  0  0  0  0  0  0  0  0  0  0  0
  140.4160   70.2420  226.0620 C   0  0  0  0  0  0  0  0  0  0  0  0
  140.3590   71.5400  225.3380 C   0  0  0  0  0  0  0  0  0  0  0  0
  139.7590   73.3270  222.6470 N   0  0  0  0  0  0  0  0  0  0  0  0
  140.6150   76.5270  221.3870 C   0  0  0  0  0  0  0  0  0  0  0  0
  141.6090   81.4420  220.2880 C   0  0  0  0  0  0  0  0  0  0  0  0
  141.8300   82.3390  219.2380 C   0  0  0  0  0  0  0  0  0  0  0  0
  145.0020   82.7570  216.5400 H   0  0  0  0  0  0  0  0  0  0  0  0
  144.1750   81.7050  215.4100 H   0  0  0  0  0  0  0  0  0  0  0  0
  143.2716   80.2120  216.9774 H   0  0  0  0  0  0  0  0  0  0  0  0
  142.8656   78.6524  218.8673 H   0  0  0  0  0  0  0  0  0  0  0  0
  142.2444   78.1635  221.0317 H   0  0  0  0  0  0  0  0  0  0  0  0
  142.1586   79.4690  222.2180 H   0  0  0  0  0  0  0  0  0  0  0  0
  139.8992   79.5325  222.1692 H   0  0  0  0  0  0  0  0  0  0  0  0
  139.9165   79.2520  220.3224 H   0  0  0  0  0  0  0  0  0  0  0  0
  138.8817   77.9562  223.3204 H   0  0  0  0  0  0  0  0  0  0  0  0
  137.7367   77.6933  221.9965 H   0  0  0  0  0  0  0  0  0  0  0  0
  139.3098   75.6527  223.6025 H   0  0  0  0  0  0  0  0  0  0  0  0
  137.7962   75.3939  222.7996 H   0  0  0  0  0  0  0  0  0  0  0  0
  138.9404   75.2858  220.5475 H   0  0  0  0  0  0  0  0  0  0  0  0
  143.1971   72.0957  218.1054 H   0  0  0  0  0  0  0  0  0  0  0  0
  143.1017   73.4671  219.2265 H   0  0  0  0  0  0  0  0  0  0  0  0
  145.4474   72.5595  219.0809 H   0  0  0  0  0  0  0  0  0  0  0  0
  144.8052   72.3549  220.7240 H   0  0  0  0  0  0  0  0  0  0  0  0
  146.9666   70.7461  219.2659 H   0  0  0  0  0  0  0  0  0  0  0  0
  147.2975   68.2996  219.0275 H   0  0  0  0  0  0  0  0  0  0  0  0
  145.3670   66.7267  219.1674 H   0  0  0  0  0  0  0  0  0  0  0  0
  143.0913   67.6550  219.5453 H   0  0  0  0  0  0  0  0  0  0  0  0
  141.7395   69.9030  218.9861 H   0  0  0  0  0  0  0  0  0  0  0  0
  141.9795   69.7440  220.7675 H   0  0  0  0  0  0  0  0  0  0  0  0
  137.8728   70.7055  224.7277 H   0  0  0  0  0  0  0  0  0  0  0  0
  138.1069   70.5377  222.9809 H   0  0  0  0  0  0  0  0  0  0  0  0
  138.3918   68.3355  224.1776 H   0  0  0  0  0  0  0  0  0  0  0  0
  139.9093   68.8250  223.3863 H   0  0  0  0  0  0  0  0  0  0  0  0
  139.4851   66.9697  225.7478 H   0  0  0  0  0  0  0  0  0  0  0  0
  140.6034   66.9147  227.9946 H   0  0  0  0  0  0  0  0  0  0  0  0
  141.5729   68.9705  228.9548 H   0  0  0  0  0  0  0  0  0  0  0  0
  141.4700   71.1421  227.7325 H   0  0  0  0  0  0  0  0  0  0  0  0
  139.7668   72.2527  225.9307 H   0  0  0  0  0  0  0  0  0  0  0  0
  141.3891   71.9006  225.2004 H   0  0  0  0  0  0  0  0  0  0  0  0
  141.3144   76.4817  222.2348 H   0  0  0  0  0  0  0  0  0  0  0  0
  141.2793   76.4989  220.5107 H   0  0  0  0  0  0  0  0  0  0  0  0
  141.1392   81.7874  221.2207 H   0  0  0  0  0  0  0  0  0  0  0  0
  141.5344   83.3930  219.3462 H   0  0  0  0  0  0  0  0  0  0  0  0
  1  2  1  0
  2  3  2  0
  2  4  2  0
  2  5  1  0
  5  6  2  0
  6  7  1  0
  7  8  2  0
  8  9  1  0
  9 10  1  0
 10 11  1  0
 11 12  1  0
 12 13  1  0
 13 14  1  0
 14 15  1  0
 15 16  2  0
 16 17  1  0
 17 18  1  0
 18 19  1  0
 19 20  1  0
 20 21  1  0
 21 22  2  0
 22 23  1  0
 23 24  2  0
 24 25  1  0
 25 26  2  0
 26 27  1  0
 17 28  2  0
 28 29  1  0
 29 30  1  0
 30 31  1  0
 31 32  1  0
 32 33  1  0
 33 34  2  0
 34 35  1  0
 35 36  2  0
 36 37  1  0
 37 38  2  0
 38 39  1  0
 29 40  2  0
 14 41  1  0
  8 42  1  0
 42 43  2  0
 43  5  1  0
 41 11  1  0
 40 15  1  0
 27 18  1  0
 39 30  1  0
 26 21  1  0
 38 33  1  0
  1 44  1  0
  1 45  1  0
  6 46  1  0
  7 47  1  0
  9 48  1  0
  9 49  1  0
 10 50  1  0
 10 51  1  0
 12 52  1  0
 12 53  1  0
 13 54  1  0
 13 55  1  0
 14 56  1  6
 19 57  1  0
 19 58  1  0
 20 59  1  0
 20 60  1  0
 22 61  1  0
 23 62  1  0
 24 63  1  0
 25 64  1  0
 27 65  1  0
 27 66  1  0
 31 67  1  0
 31 68  1  0
 32 69  1  0
 32 70  1  0
 34 71  1  0
 35 72  1  0
 36 73  1  0
 37 74  1  0
 39 75  1  0
 39 76  1  0
 41 77  1  0
 41 78  1  0
 42 79  1  0
 43 80  1  0
M  END
>  <smiles>  (46) 
NS(=O)(=O)c1ccc(CCN2CCC(c3nc(N4CCc5ccccc5C4)nc(N4CCc5ccccc5C4)n3)C2)cc1

>  <score_type>  (46) 
oracle

>  <origin>  (46) 
autodockgpu

>  <m_score__min__energy>  (46) 
-11.56

>  <m_primary>  (46) 
energy

>  <rmsd>  (46) 
4.264830036527976

>  <m_score__min__rmsd>  (46) 
4.264830036527976

>  <meeko>  (46) 
{"free_energy": -11.0, "intermolecular_energy": -13.39, "internal_energy": -1.42, "cluster_size": 13, "cluster_id": 1, "rank_in_cluster": 6}

>  <energy>  (46) 
-8.94

>  <cluster_rmsd>  (46) 
0.0

>  <cluster>  (46) 
13

$$$$

     RDKit          3D

 80 86  0  0  1  0  0  0  0  0999 V2000
  145.1250   82.5580  215.0490 N   0  0  0  0  0  0  0  0  0  0  0  0
  143.7330   83.3000  215.7530 S   0  0  0  0  0  0  0  0  0  0  0  0
  142.9310   83.8900  214.6210 O   0  0  0  0  0  0  0  0  0  0  0  0
  144.1820   84.4290  216.6070 O   0  0  0  0  0  0  0  0  0  0  0  0
  142.7200   82.1570  216.6010 C   0  0  0  0  0  0  0  0  0  0  0  0
  143.2980   81.4200  217.6300 C   0  0  0  0  0  0  0  0  0  0  0  0
  142.4970   80.5070  218.3050 C   0  0  0  0  0  0  0  0  0  0  0  0
  141.1700   80.3070  217.9960 C   0  0  0  0  0  0  0  0  0  0  0  0
  140.3620   79.2870  218.7650 C   0  0  0  0  0  0  0  0  0  0  0  0
  141.2900   78.7580  219.8150 C   0  0  0  0  0  0  0  0  0  0  0  0
  140.8770   77.6750  220.5830 N   0  0  0  0  0  0  0  0  0  0  0  0
  140.7050   77.8060  221.9790 C   0  0  0  0  0  0  0  0  0  0  0  0
  140.7720   76.3750  222.5470 C   0  0  0  0  0  0  0  0  0  0  0  0
  140.4850   75.5730  221.2930 C   0  0  2  0  0  0  0  0  0  0  0  0
  140.8380   74.1620  221.3710 C   0  0  0  0  0  0  0  0  0  0  0  0
  141.6160   73.4870  220.5090 N   0  0  0  0  0  0  0  0  0  0  0  0
  141.8890   72.1740  220.6640 C   0  0  0  0  0  0  0  0  0  0  0  0
  142.7120   71.4540  219.7570 N   0  0  0  0  0  0  0  0  0  0  0  0
  143.7010   72.0920  218.9080 C   0  0  0  0  0  0  0  0  0  0  0  0
  145.0590   71.6270  219.4090 C   0  0  0  0  0  0  0  0  0  0  0  0
  145.0670   70.1420  219.3040 C   0  0  0  0  0  0  0  0  0  0  0  0
  146.2790   69.5150  219.0860 C   0  0  0  0  0  0  0  0  0  0  0  0
  146.3230   68.1320  218.9850 C   0  0  0  0  0  0  0  0  0  0  0  0
  145.1740   67.3570  219.1000 C   0  0  0  0  0  0  0  0  0  0  0  0
  143.9760   68.0020  219.3190 C   0  0  0  0  0  0  0  0  0  0  0  0
  143.9220   69.3790  219.4190 C   0  0  0  0  0  0  0  0  0  0  0  0
  142.5830   70.0130  219.6560 C   0  0  0  0  0  0  0  0  0  0  0  0
  141.3570   71.5240  221.7230 N   0  0  0  0  0  0  0  0  0  0  0  0
  140.5690   72.1540  222.6190 C   0  0  0  0  0  0  0  0  0  0  0  0
  139.9890   71.5050  223.7410 N   0  0  0  0  0  0  0  0  0  0  0  0
  138.7470   70.7310  223.5930 C   0  0  0  0  0  0  0  0  0  0  0  0
  139.1330   69.2800  223.8130 C   0  0  0  0  0  0  0  0  0  0  0  0
  139.7450   69.1880  225.1650 C   0  0  0  0  0  0  0  0  0  0  0  0
  139.6100   67.9580  225.8150 C   0  0  0  0  0  0  0  0  0  0  0  0
  140.1710   67.8320  227.0860 C   0  0  0  0  0  0  0  0  0  0  0  0
  140.8360   68.9000  227.6700 C   0  0  0  0  0  0  0  0  0  0  0  0
  140.9700   70.1210  227.0270 C   0  0  0  0  0  0  0  0  0  0  0  0
  140.4100   70.2360  225.7670 C   0  0  0  0  0  0  0  0  0  0  0  0
  140.5510   71.5430  225.0710 C   0  0  0  0  0  0  0  0  0  0  0  0
  140.3320   73.4490  222.4210 N   0  0  0  0  0  0  0  0  0  0  0  0
  141.3420   76.3660  220.2850 C   0  0  0  0  0  0  0  0  0  0  0  0
  140.5990   81.0420  216.9700 C   0  0  0  0  0  0  0  0  0  0  0  0
  141.3760   81.9710  216.2700 C   0  0  0  0  0  0  0  0  0  0  0  0
  145.9420   82.6560  215.6690 H   0  0  0  0  0  0  0  0  0  0  0  0
  144.9250   81.5630  214.7530 H   0  0  0  0  0  0  0  0  0  0  0  0
  144.3555   81.5558  217.9006 H   0  0  0  0  0  0  0  0  0  0  0  0
  142.9419   79.9188  219.1211 H   0  0  0  0  0  0  0  0  0  0  0  0
  139.4848   79.7611  219.2295 H   0  0  0  0  0  0  0  0  0  0  0  0
  139.9830   78.4871  218.1119 H   0  0  0  0  0  0  0  0  0  0  0  0
  142.2188   78.4598  219.3066 H   0  0  0  0  0  0  0  0  0  0  0  0
  141.3755   79.5827  220.5379 H   0  0  0  0  0  0  0  0  0  0  0  0
  141.5066   78.4259  222.4071 H   0  0  0  0  0  0  0  0  0  0  0  0
  139.7507   78.2947  222.2250 H   0  0  0  0  0  0  0  0  0  0  0  0
  141.7664   76.1462  222.9579 H   0  0  0  0  0  0  0  0  0  0  0  0
  140.0875   76.1796  223.3856 H   0  0  0  0  0  0  0  0  0  0  0  0
  139.4159   75.4924  221.0469 H   0  0  0  0  0  0  0  0  0  0  0  0
  143.5570   71.7876  217.8608 H   0  0  0  0  0  0  0  0  0  0  0  0
  143.6144   73.1879  218.9481 H   0  0  0  0  0  0  0  0  0  0  0  0
  145.8595   72.0555  218.7880 H   0  0  0  0  0  0  0  0  0  0  0  0
  145.2312   71.9517  220.4458 H   0  0  0  0  0  0  0  0  0  0  0  0
  147.2012   70.1075  218.9933 H   0  0  0  0  0  0  0  0  0  0  0  0
  147.2895   67.6368  218.8098 H   0  0  0  0  0  0  0  0  0  0  0  0
  145.2201   66.2610  219.0185 H   0  0  0  0  0  0  0  0  0  0  0  0
  143.0517   67.4135  219.4153 H   0  0  0  0  0  0  0  0  0  0  0  0
  141.9134   69.7677  218.8185 H   0  0  0  0  0  0  0  0  0  0  0  0
  142.1693   69.6267  220.5992 H   0  0  0  0  0  0  0  0  0  0  0  0
  138.0069   71.0480  224.3425 H   0  0  0  0  0  0  0  0  0  0  0  0
  138.2921   70.8824  222.6030 H   0  0  0  0  0  0  0  0  0  0  0  0
  138.2399   68.6401  223.7593 H   0  0  0  0  0  0  0  0  0  0  0  0
  139.8398   68.9425  223.0406 H   0  0  0  0  0  0  0  0  0  0  0  0
  139.0800   67.1188  225.3409 H   0  0  0  0  0  0  0  0  0  0  0  0
  140.0854   66.8791  227.6288 H   0  0  0  0  0  0  0  0  0  0  0  0
  141.2699   68.7745  228.6730 H   0  0  0  0  0  0  0  0  0  0  0  0
  141.4990   70.9624  227.4984 H   0  0  0  0  0  0  0  0  0  0  0  0
  140.0306   72.3159  225.6557 H   0  0  0  0  0  0  0  0  0  0  0  0
  141.6237   71.7699  224.9829 H   0  0  0  0  0  0  0  0  0  0  0  0
  142.4186   76.2556  220.4817 H   0  0  0  0  0  0  0  0  0  0  0  0
  141.2453   76.0565  219.2339 H   0  0  0  0  0  0  0  0  0  0  0  0
  139.5409   80.8960  216.7073 H   0  0  0  0  0  0  0  0  0  0  0  0
  140.9265   82.5576  215.4553 H   0  0  0  0  0  0  0  0  0  0  0  0
  1  2  1  0
  2  3  2  0
  2  4  2  0
  2  5  1  0
  5  6  2  0
  6  7  1  0
  7  8  2  0
  8  9  1  0
  9 10  1  0
 10 11  1  0
 11 12  1  0
 12 13  1  0
 13 14  1  0
 14 15  1  0
 15 16  2  0
 16 17  1  0
 17 18  1  0
 18 19  1  0
 19 20  1  0
 20 21  1  0
 21 22  2  0
 22 23  1  0
 23 24  2  0
 24 25  1  0
 25 26  2  0
 26 27  1  0
 17 28  2  0
 28 29  1  0
 29 30  1  0
 30 31  1  0
 31 32  1  0
 32 33  1  0
 33 34  2  0
 34 35  1  0
 35 36  2  0
 36 37  1  0
 37 38  2  0
 38 39  1  0
 29 40  2  0
 14 41  1  0
  8 42  1  0
 42 43  2  0
 43  5  1  0
 41 11  1  0
 40 15  1  0
 27 18  1  0
 39 30  1  0
 26 21  1  0
 38 33  1  0
  1 44  1  0
  1 45  1  0
  6 46  1  0
  7 47  1  0
  9 48  1  0
  9 49  1  0
 10 50  1  0
 10 51  1  0
 12 52  1  0
 12 53  1  0
 13 54  1  0
 13 55  1  0
 14 56  1  6
 19 57  1  0
 19 58  1  0
 20 59  1  0
 20 60  1  0
 22 61  1  0
 23 62  1  0
 24 63  1  0
 25 64  1  0
 27 65  1  0
 27 66  1  0
 31 67  1  0
 31 68  1  0
 32 69  1  0
 32 70  1  0
 34 71  1  0
 35 72  1  0
 36 73  1  0
 37 74  1  0
 39 75  1  0
 39 76  1  0
 41 77  1  0
 41 78  1  0
 42 79  1  0
 43 80  1  0
M  END
>  <smiles>  (47) 
NS(=O)(=O)c1ccc(CCN2CCC(c3nc(N4CCc5ccccc5C4)nc(N4CCc5ccccc5C4)n3)C2)cc1

>  <score_type>  (47) 
oracle

>  <origin>  (47) 
autodockgpu

>  <m_score__min__energy>  (47) 
-11.56

>  <m_primary>  (47) 
energy

>  <rmsd>  (47) 
4.476204180832303

>  <m_score__min__rmsd>  (47) 
4.476204180832303

>  <meeko>  (47) 
{"free_energy": -10.64, "intermolecular_energy": -13.03, "internal_energy": -1.35, "cluster_size": 13, "cluster_id": 1, "rank_in_cluster": 8}

>  <energy>  (47) 
-8.69

>  <cluster_rmsd>  (47) 
0.0

>  <cluster>  (47) 
14

$$$$

     RDKit          3D

 80 86  0  0  1  0  0  0  0  0999 V2000
  136.1560   81.5240  227.8350 N   0  0  0  0  0  0  0  0  0  0  0  0
  135.8520   82.2470  226.2960 S   0  0  0  0  0  0  0  0  0  0  0  0
  136.0360   83.7340  226.4650 O   0  0  0  0  0  0  0  0  0  0  0  0
  134.4280   82.0190  225.9400 O   0  0  0  0  0  0  0  0  0  0  0  0
  136.9640   81.6970  225.0650 C   0  0  0  0  0  0  0  0  0  0  0  0
  137.7430   80.5800  225.3510 C   0  0  0  0  0  0  0  0  0  0  0  0
  138.6320   80.1410  224.3770 C   0  0  0  0  0  0  0  0  0  0  0  0
  138.7680   80.7630  223.1560 C   0  0  0  0  0  0  0  0  0  0  0  0
  139.7640   80.2380  222.1480 C   0  0  0  0  0  0  0  0  0  0  0  0
  140.3250   78.9920  222.7610 C   0  0  0  0  0  0  0  0  0  0  0  0
  139.8870   77.7610  222.2840 N   0  0  0  0  0  0  0  0  0  0  0  0
  138.5350   77.3740  222.4240 C   0  0  0  0  0  0  0  0  0  0  0  0
  138.5220   75.8380  222.2910 C   0  0  0  0  0  0  0  0  0  0  0  0
  139.8500   75.6160  221.5940 C   0  0  2  0  0  0  0  0  0  0  0  0
  140.3480   74.2490  221.6410 C   0  0  0  0  0  0  0  0  0  0  0  0
  141.1730   73.6700  220.7520 N   0  0  0  0  0  0  0  0  0  0  0  0
  141.5830   72.3900  220.8800 C   0  0  0  0  0  0  0  0  0  0  0  0
  142.4550   71.7730  219.9440 N   0  0  0  0  0  0  0  0  0  0  0  0
  143.4190   72.5130  219.1520 C   0  0  0  0  0  0  0  0  0  0  0  0
  144.7930   72.0910  219.6450 C   0  0  0  0  0  0  0  0  0  0  0  0
  144.8830   70.6180  219.4510 C   0  0  0  0  0  0  0  0  0  0  0  0
  146.1300   70.0710  219.2150 C   0  0  0  0  0  0  0  0  0  0  0  0
  146.2510   68.7010  219.0300 C   0  0  0  0  0  0  0  0  0  0  0  0
  145.1430   67.8610  219.0800 C   0  0  0  0  0  0  0  0  0  0  0  0
  143.9100   68.4260  219.3170 C   0  0  0  0  0  0  0  0  0  0  0  0
  143.7800   69.7890  219.5010 C   0  0  0  0  0  0  0  0  0  0  0  0
  142.4050   70.3350  219.7540 C   0  0  0  0  0  0  0  0  0  0  0  0
  141.1430   71.6730  221.9380 N   0  0  0  0  0  0  0  0  0  0  0  0
  140.3150   72.2060  222.8600 C   0  0  0  0  0  0  0  0  0  0  0  0
  139.8300   71.4840  223.9830 N   0  0  0  0  0  0  0  0  0  0  0  0
  138.6560   70.6070  223.8530 C   0  0  0  0  0  0  0  0  0  0  0  0
  139.1740   69.1910  224.0260 C   0  0  0  0  0  0  0  0  0  0  0  0
  139.8340   69.1240  225.3560 C   0  0  0  0  0  0  0  0  0  0  0  0
  139.8270   67.8720  225.9800 C   0  0  0  0  0  0  0  0  0  0  0  0
  140.4370   67.7690  227.2300 C   0  0  0  0  0  0  0  0  0  0  0  0
  141.0240   68.8780  227.8210 C   0  0  0  0  0  0  0  0  0  0  0  0
  141.0310   70.1200  227.2040 C   0  0  0  0  0  0  0  0  0  0  0  0
  140.4240   70.2130  225.9640 C   0  0  0  0  0  0  0  0  0  0  0  0
  140.4280   71.5420  225.2970 C   0  0  0  0  0  0  0  0  0  0  0  0
  139.9410   73.4720  222.6890 N   0  0  0  0  0  0  0  0  0  0  0  0
  140.7210   76.6150  222.3850 C   0  0  0  0  0  0  0  0  0  0  0  0
  137.9900   81.8750  222.8770 C   0  0  0  0  0  0  0  0  0  0  0  0
  137.0850   82.3440  223.8340 C   0  0  0  0  0  0  0  0  0  0  0  0
  136.2590   80.5030  227.7430 H   0  0  0  0  0  0  0  0  0  0  0  0
  136.9610   81.9960  228.3320 H   0  0  0  0  0  0  0  0  0  0  0  0
  137.6579   80.0610  226.3171 H   0  0  0  0  0  0  0  0  0  0  0  0
  139.2536   79.2589  224.5906 H   0  0  0  0  0  0  0  0  0  0  0  0
  139.2639   80.0077  221.1957 H   0  0  0  0  0  0  0  0  0  0  0  0
  140.5492   80.9751  221.9242 H   0  0  0  0  0  0  0  0  0  0  0  0
  141.4157   79.0245  222.6217 H   0  0  0  0  0  0  0  0  0  0  0  0
  139.9676   79.0198  223.8010 H   0  0  0  0  0  0  0  0  0  0  0  0
  138.1500   77.6765  223.4090 H   0  0  0  0  0  0  0  0  0  0  0  0
  137.8966   77.8515  221.6661 H   0  0  0  0  0  0  0  0  0  0  0  0
  138.4904   75.3445  223.2736 H   0  0  0  0  0  0  0  0  0  0  0  0
  137.6494   75.4288  221.7609 H   0  0  0  0  0  0  0  0  0  0  0  0
  139.8170   75.7735  220.5058 H   0  0  0  0  0  0  0  0  0  0  0  0
  143.3050   72.2665  218.0860 H   0  0  0  0  0  0  0  0  0  0  0  0
  143.2732   73.5982  219.2577 H   0  0  0  0  0  0  0  0  0  0  0  0
  145.5768   72.5986  219.0636 H   0  0  0  0  0  0  0  0  0  0  0  0
  144.9341   72.3603  220.7022 H   0  0  0  0  0  0  0  0  0  0  0  0
  147.0197   70.7166  219.1741 H   0  0  0  0  0  0  0  0  0  0  0  0
  147.2448   68.2696  218.8396 H   0  0  0  0  0  0  0  0  0  0  0  0
  145.2491   66.7759  218.9343 H   0  0  0  0  0  0  0  0  0  0  0  0
  143.0176   67.7843  219.3604 H   0  0  0  0  0  0  0  0  0  0  0  0
  141.7606   70.1061  218.8924 H   0  0  0  0  0  0  0  0  0  0  0  0
  142.0002   69.8701  220.6650 H   0  0  0  0  0  0  0  0  0  0  0  0
  137.9152   70.8413  224.6316 H   0  0  0  0  0  0  0  0  0  0  0  0
  138.1585   70.7393  222.8809 H   0  0  0  0  0  0  0  0  0  0  0  0
  138.3389   68.4763  223.9832 H   0  0  0  0  0  0  0  0  0  0  0  0
  139.8827   68.9338  223.2250 H   0  0  0  0  0  0  0  0  0  0  0  0
  139.3571   66.9999  225.5019 H   0  0  0  0  0  0  0  0  0  0  0  0
  140.4527   66.8005  227.7513 H   0  0  0  0  0  0  0  0  0  0  0  0
  141.4978   68.7692  228.8078 H   0  0  0  0  0  0  0  0  0  0  0  0
  141.4992   70.9941  227.6801 H   0  0  0  0  0  0  0  0  0  0  0  0
  139.8603   72.2527  225.9156 H   0  0  0  0  0  0  0  0  0  0  0  0
  141.4734   71.8646  225.1832 H   0  0  0  0  0  0  0  0  0  0  0  0
  140.8657   76.3002  223.4290 H   0  0  0  0  0  0  0  0  0  0  0  0
  141.7494   76.7430  222.0163 H   0  0  0  0  0  0  0  0  0  0  0  0
  138.0839   82.3862  221.9075 H   0  0  0  0  0  0  0  0  0  0  0  0
  136.4657   83.2266  223.6160 H   0  0  0  0  0  0  0  0  0  0  0  0
  1  2  1  0
  2  3  2  0
  2  4  2  0
  2  5  1  0
  5  6  2  0
  6  7  1  0
  7  8  2  0
  8  9  1  0
  9 10  1  0
 10 11  1  0
 11 12  1  0
 12 13  1  0
 13 14  1  0
 14 15  1  0
 15 16  2  0
 16 17  1  0
 17 18  1  0
 18 19  1  0
 19 20  1  0
 20 21  1  0
 21 22  2  0
 22 23  1  0
 23 24  2  0
 24 25  1  0
 25 26  2  0
 26 27  1  0
 17 28  2  0
 28 29  1  0
 29 30  1  0
 30 31  1  0
 31 32  1  0
 32 33  1  0
 33 34  2  0
 34 35  1  0
 35 36  2  0
 36 37  1  0
 37 38  2  0
 38 39  1  0
 29 40  2  0
 14 41  1  0
  8 42  1  0
 42 43  2  0
 43  5  1  0
 41 11  1  0
 40 15  1  0
 27 18  1  0
 39 30  1  0
 26 21  1  0
 38 33  1  0
  1 44  1  0
  1 45  1  0
  6 46  1  0
  7 47  1  0
  9 48  1  0
  9 49  1  0
 10 50  1  0
 10 51  1  0
 12 52  1  0
 12 53  1  0
 13 54  1  0
 13 55  1  0
 14 56  1  6
 19 57  1  0
 19 58  1  0
 20 59  1  0
 20 60  1  0
 22 61  1  0
 23 62  1  0
 24 63  1  0
 25 64  1  0
 27 65  1  0
 27 66  1  0
 31 67  1  0
 31 68  1  0
 32 69  1  0
 32 70  1  0
 34 71  1  0
 35 72  1  0
 36 73  1  0
 37 74  1  0
 39 75  1  0
 39 76  1  0
 41 77  1  0
 41 78  1  0
 42 79  1  0
 43 80  1  0
M  END
>  <smiles>  (48) 
NS(=O)(=O)c1ccc(CCN2CCC(c3nc(N4CCc5ccccc5C4)nc(N4CCc5ccccc5C4)n3)C2)cc1

>  <score_type>  (48) 
oracle

>  <origin>  (48) 
autodockgpu

>  <m_score__min__energy>  (48) 
-11.56

>  <m_primary>  (48) 
energy

>  <rmsd>  (48) 
4.330191966649058

>  <m_score__min__rmsd>  (48) 
4.330191966649058

>  <meeko>  (48) 
{"free_energy": -11.33, "intermolecular_energy": -13.72, "internal_energy": -1.48, "cluster_size": 14, "cluster_id": 2, "rank_in_cluster": 1}

>  <energy>  (48) 
-8.65

>  <cluster_rmsd>  (48) 
0.42

>  <cluster>  (48) 
14

$$$$

     RDKit          3D

 80 86  0  0  1  0  0  0  0  0999 V2000
  134.0520   80.0610  224.9710 N   0  0  0  0  0  0  0  0  0  0  0  0
  135.2560   81.2780  225.2020 S   0  0  0  0  0  0  0  0  0  0  0  0
  135.5740   81.3080  226.6750 O   0  0  0  0  0  0  0  0  0  0  0  0
  134.6660   82.5970  224.8540 O   0  0  0  0  0  0  0  0  0  0  0  0
  136.7330   80.9350  224.3320 C   0  0  0  0  0  0  0  0  0  0  0  0
  136.6270   80.6100  222.9840 C   0  0  0  0  0  0  0  0  0  0  0  0
  137.7990   80.3330  222.2890 C   0  0  0  0  0  0  0  0  0  0  0  0
  139.0420   80.3670  222.8780 C   0  0  0  0  0  0  0  0  0  0  0  0
  140.2730   80.0420  222.0650 C   0  0  0  0  0  0  0  0  0  0  0  0
  140.7920   78.7560  222.6320 C   0  0  0  0  0  0  0  0  0  0  0  0
  140.3280   77.5580  222.1000 N   0  0  0  0  0  0  0  0  0  0  0  0
  138.9450   77.2690  222.0740 C   0  0  0  0  0  0  0  0  0  0  0  0
  138.8380   75.7380  221.9320 C   0  0  0  0  0  0  0  0  0  0  0  0
  140.2220   75.4190  221.3990 C   0  0  2  0  0  0  0  0  0  0  0  0
  140.6110   74.0200  221.4990 C   0  0  0  0  0  0  0  0  0  0  0  0
  141.3760   73.3420  220.6260 N   0  0  0  0  0  0  0  0  0  0  0  0
  141.6850   72.0390  220.8040 C   0  0  0  0  0  0  0  0  0  0  0  0
  142.4940   71.3170  219.8860 N   0  0  0  0  0  0  0  0  0  0  0  0
  143.5280   71.9390  219.0810 C   0  0  0  0  0  0  0  0  0  0  0  0
  144.8520   71.3950  219.5890 C   0  0  0  0  0  0  0  0  0  0  0  0
  144.7960   69.9160  219.4290 C   0  0  0  0  0  0  0  0  0  0  0  0
  145.9830   69.2430  219.2100 C   0  0  0  0  0  0  0  0  0  0  0  0
  145.9670   67.8630  219.0580 C   0  0  0  0  0  0  0  0  0  0  0  0
  144.7820   67.1380  219.1220 C   0  0  0  0  0  0  0  0  0  0  0  0
  143.6100   67.8290  219.3420 C   0  0  0  0  0  0  0  0  0  0  0  0
  143.6160   69.2020  219.4930 C   0  0  0  0  0  0  0  0  0  0  0  0
  142.3020   69.8880  219.7280 C   0  0  0  0  0  0  0  0  0  0  0  0
  141.2060   71.4040  221.8970 N   0  0  0  0  0  0  0  0  0  0  0  0
  140.4350   72.0380  222.8040 C   0  0  0  0  0  0  0  0  0  0  0  0
  139.9100   71.4040  223.9620 N   0  0  0  0  0  0  0  0  0  0  0  0
  138.7140   70.5520  223.8650 C   0  0  0  0  0  0  0  0  0  0  0  0
  139.1900   69.1370  224.1390 C   0  0  0  0  0  0  0  0  0  0  0  0
  139.8250   69.1390  225.4830 C   0  0  0  0  0  0  0  0  0  0  0  0
  139.7720   67.9310  226.1860 C   0  0  0  0  0  0  0  0  0  0  0  0
  140.3570   67.8930  227.4520 C   0  0  0  0  0  0  0  0  0  0  0  0
  140.9640   69.0220  227.9810 C   0  0  0  0  0  0  0  0  0  0  0  0
  141.0160   70.2210  227.2850 C   0  0  0  0  0  0  0  0  0  0  0  0
  140.4340   70.2490  226.0310 C   0  0  0  0  0  0  0  0  0  0  0  0
  140.4870   71.5310  225.2790 C   0  0  0  0  0  0  0  0  0  0  0  0
  140.1590   73.3210  222.5830 N   0  0  0  0  0  0  0  0  0  0  0  0
  141.0590   76.3560  222.2940 C   0  0  0  0  0  0  0  0  0  0  0  0
  139.1410   80.6910  224.2220 C   0  0  0  0  0  0  0  0  0  0  0  0
  137.9830   80.9760  224.9520 C   0  0  0  0  0  0  0  0  0  0  0  0
  134.4900   79.1520  224.7660 H   0  0  0  0  0  0  0  0  0  0  0  0
  133.3670   80.0380  225.7750 H   0  0  0  0  0  0  0  0  0  0  0  0
  135.6479   80.5733  222.4839 H   0  0  0  0  0  0  0  0  0  0  0  0
  137.7294   80.0755  221.2218 H   0  0  0  0  0  0  0  0  0  0  0  0
  140.0122   79.9178  221.0036 H   0  0  0  0  0  0  0  0  0  0  0  0
  141.0227   80.8454  222.1163 H   0  0  0  0  0  0  0  0  0  0  0  0
  141.8849   78.7644  222.5071 H   0  0  0  0  0  0  0  0  0  0  0  0
  140.4210   78.7508  223.6675 H   0  0  0  0  0  0  0  0  0  0  0  0
  138.4667   77.6014  223.0071 H   0  0  0  0  0  0  0  0  0  0  0  0
  138.4385   77.7885  221.2472 H   0  0  0  0  0  0  0  0  0  0  0  0
  138.6526   75.2512  222.9008 H   0  0  0  0  0  0  0  0  0  0  0  0
  138.0087   75.3908  221.2982 H   0  0  0  0  0  0  0  0  0  0  0  0
  140.3330   75.5744  220.3157 H   0  0  0  0  0  0  0  0  0  0  0  0
  143.3920   71.6800  218.0206 H   0  0  0  0  0  0  0  0  0  0  0  0
  143.4902   73.0354  219.1610 H   0  0  0  0  0  0  0  0  0  0  0  0
  145.6833   71.8090  218.9994 H   0  0  0  0  0  0  0  0  0  0  0  0
  145.0171   71.6734  220.6403 H   0  0  0  0  0  0  0  0  0  0  0  0
  146.9324   69.7959  219.1566 H   0  0  0  0  0  0  0  0  0  0  0  0
  146.9136   67.3308  218.8829 H   0  0  0  0  0  0  0  0  0  0  0  0
  144.7801   66.0447  219.0005 H   0  0  0  0  0  0  0  0  0  0  0  0
  142.6582   67.2804  219.3980 H   0  0  0  0  0  0  0  0  0  0  0  0
  141.6397   69.7049  218.8690 H   0  0  0  0  0  0  0  0  0  0  0  0
  141.8515   69.4866  220.6477 H   0  0  0  0  0  0  0  0  0  0  0  0
  137.9659   70.8557  224.6120 H   0  0  0  0  0  0  0  0  0  0  0  0
  138.2377   70.6344  222.8769 H   0  0  0  0  0  0  0  0  0  0  0  0
  138.3364   68.4433  224.1266 H   0  0  0  0  0  0  0  0  0  0  0  0
  139.9052   68.8099  223.3699 H   0  0  0  0  0  0  0  0  0  0  0  0
  139.2864   67.0426  225.7560 H   0  0  0  0  0  0  0  0  0  0  0  0
  140.3366   66.9604  228.0350 H   0  0  0  0  0  0  0  0  0  0  0  0
  141.4175   68.9653  228.9816 H   0  0  0  0  0  0  0  0  0  0  0  0
  141.4997   71.1116  227.7126 H   0  0  0  0  0  0  0  0  0  0  0  0
  139.9298   72.2960  225.8396 H   0  0  0  0  0  0  0  0  0  0  0  0
  141.5430   71.8164  225.1636 H   0  0  0  0  0  0  0  0  0  0  0  0
  141.0538   76.0351  223.3461 H   0  0  0  0  0  0  0  0  0  0  0  0
  142.1308   76.4093  222.0521 H   0  0  0  0  0  0  0  0  0  0  0  0
  140.1254   80.7238  224.7118 H   0  0  0  0  0  0  0  0  0  0  0  0
  138.0573   81.2335  226.0189 H   0  0  0  0  0  0  0  0  0  0  0  0
  1  2  1  0
  2  3  2  0
  2  4  2  0
  2  5  1  0
  5  6  2  0
  6  7  1  0
  7  8  2  0
  8  9  1  0
  9 10  1  0
 10 11  1  0
 11 12  1  0
 12 13  1  0
 13 14  1  0
 14 15  1  0
 15 16  2  0
 16 17  1  0
 17 18  1  0
 18 19  1  0
 19 20  1  0
 20 21  1  0
 21 22  2  0
 22 23  1  0
 23 24  2  0
 24 25  1  0
 25 26  2  0
 26 27  1  0
 17 28  2  0
 28 29  1  0
 29 30  1  0
 30 31  1  0
 31 32  1  0
 32 33  1  0
 33 34  2  0
 34 35  1  0
 35 36  2  0
 36 37  1  0
 37 38  2  0
 38 39  1  0
 29 40  2  0
 14 41  1  0
  8 42  1  0
 42 43  2  0
 43  5  1  0
 41 11  1  0
 40 15  1  0
 27 18  1  0
 39 30  1  0
 26 21  1  0
 38 33  1  0
  1 44  1  0
  1 45  1  0
  6 46  1  0
  7 47  1  0
  9 48  1  0
  9 49  1  0
 10 50  1  0
 10 51  1  0
 12 52  1  0
 12 53  1  0
 13 54  1  0
 13 55  1  0
 14 56  1  6
 19 57  1  0
 19 58  1  0
 20 59  1  0
 20 60  1  0
 22 61  1  0
 23 62  1  0
 24 63  1  0
 25 64  1  0
 27 65  1  0
 27 66  1  0
 31 67  1  0
 31 68  1  0
 32 69  1  0
 32 70  1  0
 34 71  1  0
 35 72  1  0
 36 73  1  0
 37 74  1  0
 39 75  1  0
 39 76  1  0
 41 77  1  0
 41 78  1  0
 42 79  1  0
 43 80  1  0
M  END
>  <smiles>  (49) 
NS(=O)(=O)c1ccc(CCN2CCC(c3nc(N4CCc5ccccc5C4)nc(N4CCc5ccccc5C4)n3)C2)cc1

>  <score_type>  (49) 
oracle

>  <origin>  (49) 
autodockgpu

>  <m_score__min__energy>  (49) 
-11.56

>  <m_primary>  (49) 
energy

>  <rmsd>  (49) 
3.956914066966694

>  <m_score__min__rmsd>  (49) 
3.956914066966694

>  <meeko>  (49) 
{"free_energy": -10.22, "intermolecular_energy": -12.6, "internal_energy": -1.48, "cluster_size": 14, "cluster_id": 2, "rank_in_cluster": 12}

>  <energy>  (49) 
-8.61

>  <cluster_rmsd>  (49) 
0.0

>  <cluster>  (49) 
15

$$$$

     RDKit          3D

 80 86  0  0  1  0  0  0  0  0999 V2000
  136.1440   81.5400  228.4600 N   0  0  0  0  0  0  0  0  0  0  0  0
  135.9740   82.4860  227.0250 S   0  0  0  0  0  0  0  0  0  0  0  0
  136.8980   83.6690  227.1680 O   0  0  0  0  0  0  0  0  0  0  0  0
  134.5880   83.0170  226.9720 O   0  0  0  0  0  0  0  0  0  0  0  0
  136.4310   81.6090  225.5850 C   0  0  0  0  0  0  0  0  0  0  0  0
  137.7670   81.2470  225.4450 C   0  0  0  0  0  0  0  0  0  0  0  0
  138.1360   80.5520  224.2990 C   0  0  0  0  0  0  0  0  0  0  0  0
  137.2390   80.2140  223.3110 C   0  0  0  0  0  0  0  0  0  0  0  0
  137.7130   79.4680  222.0850 C   0  0  0  0  0  0  0  0  0  0  0  0
  138.9400   78.7300  222.5220 C   0  0  0  0  0  0  0  0  0  0  0  0
  139.3310   77.6040  221.8050 N   0  0  0  0  0  0  0  0  0  0  0  0
  138.7340   77.3000  220.5610 C   0  0  0  0  0  0  0  0  0  0  0  0
  138.9940   75.7990  220.3260 C   0  0  0  0  0  0  0  0  0  0  0  0
  140.1530   75.5740  221.2780 C   0  0  2  0  0  0  0  0  0  0  0  0
  140.4220   74.1790  221.6000 C   0  0  0  0  0  0  0  0  0  0  0  0
  139.9510   73.5020  222.6610 N   0  0  0  0  0  0  0  0  0  0  0  0
  140.2560   72.2050  222.8780 C   0  0  0  0  0  0  0  0  0  0  0  0
  139.7600   71.4830  223.9960 N   0  0  0  0  0  0  0  0  0  0  0  0
  138.5410   70.6980  223.9550 C   0  0  0  0  0  0  0  0  0  0  0  0
  138.9620   69.2450  224.0960 C   0  0  0  0  0  0  0  0  0  0  0  0
  139.6870   69.1330  225.3910 C   0  0  0  0  0  0  0  0  0  0  0  0
  139.6350   67.9250  226.0600 C   0  0  0  0  0  0  0  0  0  0  0  0
  140.3000   67.7860  227.2690 C   0  0  0  0  0  0  0  0  0  0  0  0
  141.0240   68.8350  227.8260 C   0  0  0  0  0  0  0  0  0  0  0  0
  141.0640   70.0300  227.1420 C   0  0  0  0  0  0  0  0  0  0  0  0
  140.4030   70.1790  225.9380 C   0  0  0  0  0  0  0  0  0  0  0  0
  140.4890   71.5100  225.2500 C   0  0  0  0  0  0  0  0  0  0  0  0
  141.0640   71.5750  221.9960 N   0  0  0  0  0  0  0  0  0  0  0  0
  141.5640   72.2080  220.9150 C   0  0  0  0  0  0  0  0  0  0  0  0
  142.4180   71.5810  219.9690 N   0  0  0  0  0  0  0  0  0  0  0  0
  143.4020   72.3730  219.2150 C   0  0  0  0  0  0  0  0  0  0  0  0
  144.7640   71.9310  219.7180 C   0  0  0  0  0  0  0  0  0  0  0  0
  144.8630   70.4660  219.4870 C   0  0  0  0  0  0  0  0  0  0  0  0
  146.1530   69.9640  219.2850 C   0  0  0  0  0  0  0  0  0  0  0  0
  146.2870   68.5940  219.0650 C   0  0  0  0  0  0  0  0  0  0  0  0
  145.1700   67.7710  219.0490 C   0  0  0  0  0  0  0  0  0  0  0  0
  143.8910   68.2670  219.2480 C   0  0  0  0  0  0  0  0  0  0  0  0
  143.7680   69.6270  219.4660 C   0  0  0  0  0  0  0  0  0  0  0  0
  142.3980   70.1650  219.6820 C   0  0  0  0  0  0  0  0  0  0  0  0
  141.2320   73.4860  220.7460 N   0  0  0  0  0  0  0  0  0  0  0  0
  139.6550   76.3980  222.4820 C   0  0  0  0  0  0  0  0  0  0  0  0
  135.9100   80.5770  223.4550 C   0  0  0  0  0  0  0  0  0  0  0  0
  135.5030   81.2760  224.5950 C   0  0  0  0  0  0  0  0  0  0  0  0
  136.1300   80.5340  228.2360 H   0  0  0  0  0  0  0  0  0  0  0  0
  136.9840   81.8430  229.0270 H   0  0  0  0  0  0  0  0  0  0  0  0
  138.5080   81.5027  226.2168 H   0  0  0  0  0  0  0  0  0  0  0  0
  139.1894   80.2598  224.1765 H   0  0  0  0  0  0  0  0  0  0  0  0
  136.9417   78.7634  221.7405 H   0  0  0  0  0  0  0  0  0  0  0  0
  137.9204   80.1480  221.2456 H   0  0  0  0  0  0  0  0  0  0  0  0
  139.7768   79.4431  222.4872 H   0  0  0  0  0  0  0  0  0  0  0  0
  138.6770   78.3372  223.5152 H   0  0  0  0  0  0  0  0  0  0  0  0
  137.6530   77.5007  220.5957 H   0  0  0  0  0  0  0  0  0  0  0  0
  139.1518   77.9150  219.7504 H   0  0  0  0  0  0  0  0  0  0  0  0
  138.1206   75.1873  220.5960 H   0  0  0  0  0  0  0  0  0  0  0  0
  139.1964   75.5244  219.2802 H   0  0  0  0  0  0  0  0  0  0  0  0
  141.1311   75.8718  220.8723 H   0  0  0  0  0  0  0  0  0  0  0  0
  137.8764   70.9837  224.7837 H   0  0  0  0  0  0  0  0  0  0  0  0
  137.9905   70.8647  223.0173 H   0  0  0  0  0  0  0  0  0  0  0  0
  138.0765   68.5925  224.0997 H   0  0  0  0  0  0  0  0  0  0  0  0
  139.6019   68.9354  223.2565 H   0  0  0  0  0  0  0  0  0  0  0  0
  139.0708   67.0807  225.6371 H   0  0  0  0  0  0  0  0  0  0  0  0
  140.2539   66.8237  227.7999 H   0  0  0  0  0  0  0  0  0  0  0  0
  141.5493   68.7138  228.7848 H   0  0  0  0  0  0  0  0  0  0  0  0
  141.6293   70.8762  227.5596 H   0  0  0  0  0  0  0  0  0  0  0  0
  140.0576   72.2832  225.9027 H   0  0  0  0  0  0  0  0  0  0  0  0
  141.5455   71.7348  225.0420 H   0  0  0  0  0  0  0  0  0  0  0  0
  143.3088   72.1736  218.1372 H   0  0  0  0  0  0  0  0  0  0  0  0
  143.2484   73.4525  219.3600 H   0  0  0  0  0  0  0  0  0  0  0  0
  145.5581   72.4543  219.1652 H   0  0  0  0  0  0  0  0  0  0  0  0
  144.8816   72.1670  220.7859 H   0  0  0  0  0  0  0  0  0  0  0  0
  147.0307   70.6269  219.2993 H   0  0  0  0  0  0  0  0  0  0  0  0
  147.2856   68.1622  218.9029 H   0  0  0  0  0  0  0  0  0  0  0  0
  145.3033   66.6934  218.8732 H   0  0  0  0  0  0  0  0  0  0  0  0
  143.0113   67.6068  219.2331 H   0  0  0  0  0  0  0  0  0  0  0  0
  141.8008   69.9938  218.7742 H   0  0  0  0  0  0  0  0  0  0  0  0
  141.9588   69.6464  220.5470 H   0  0  0  0  0  0  0  0  0  0  0  0
  138.7742   75.9424  222.9580 H   0  0  0  0  0  0  0  0  0  0  0  0
  140.3672   76.4986  223.3143 H   0  0  0  0  0  0  0  0  0  0  0  0
  135.1784   80.3164  222.6760 H   0  0  0  0  0  0  0  0  0  0  0  0
  134.4482   81.5650  224.7131 H   0  0  0  0  0  0  0  0  0  0  0  0
  1  2  1  0
  2  3  2  0
  2  4  2  0
  2  5  1  0
  5  6  2  0
  6  7  1  0
  7  8  2  0
  8  9  1  0
  9 10  1  0
 10 11  1  0
 11 12  1  0
 12 13  1  0
 13 14  1  0
 14 15  1  0
 15 16  2  0
 16 17  1  0
 17 18  1  0
 18 19  1  0
 19 20  1  0
 20 21  1  0
 21 22  2  0
 22 23  1  0
 23 24  2  0
 24 25  1  0
 25 26  2  0
 26 27  1  0
 17 28  2  0
 28 29  1  0
 29 30  1  0
 30 31  1  0
 31 32  1  0
 32 33  1  0
 33 34  2  0
 34 35  1  0
 35 36  2  0
 36 37  1  0
 37 38  2  0
 38 39  1  0
 29 40  2  0
 14 41  1  0
  8 42  1  0
 42 43  2  0
 43  5  1  0
 41 11  1  0
 40 15  1  0
 27 18  1  0
 39 30  1  0
 26 21  1  0
 38 33  1  0
  1 44  1  0
  1 45  1  0
  6 46  1  0
  7 47  1  0
  9 48  1  0
  9 49  1  0
 10 50  1  0
 10 51  1  0
 12 52  1  0
 12 53  1  0
 13 54  1  0
 13 55  1  0
 14 56  1  6
 19 57  1  0
 19 58  1  0
 20 59  1  0
 20 60  1  0
 22 61  1  0
 23 62  1  0
 24 63  1  0
 25 64  1  0
 27 65  1  0
 27 66  1  0
 31 67  1  0
 31 68  1  0
 32 69  1  0
 32 70  1  0
 34 71  1  0
 35 72  1  0
 36 73  1  0
 37 74  1  0
 39 75  1  0
 39 76  1  0
 41 77  1  0
 41 78  1  0
 42 79  1  0
 43 80  1  0
M  END
>  <smiles>  (50) 
NS(=O)(=O)c1ccc(CCN2CCC(c3nc(N4CCc5ccccc5C4)nc(N4CCc5ccccc5C4)n3)C2)cc1

>  <score_type>  (50) 
oracle

>  <origin>  (50) 
autodockgpu

>  <m_score__min__energy>  (50) 
-11.56

>  <m_primary>  (50) 
energy

>  <rmsd>  (50) 
4.106912821014595

>  <m_score__min__rmsd>  (50) 
4.106912821014595

>  <meeko>  (50) 
{"free_energy": -11.02, "intermolecular_energy": -13.41, "internal_energy": -1.35, "cluster_size": 14, "cluster_id": 2, "rank_in_cluster": 5}

>  <energy>  (50) 
-8.2

>  <cluster_rmsd>  (50) 
0.0

>  <cluster>  (50) 
16

$$$$

     RDKit          3D

 80 86  0  0  1  0  0  0  0  0999 V2000
  140.9310   67.9910  228.7040 N   0  0  0  0  0  0  0  0  0  0  0  0
  140.3640   69.5740  228.2490 S   0  0  0  0  0  0  0  0  0  0  0  0
  139.0730   69.8120  229.0020 O   0  0  0  0  0  0  0  0  0  0  0  0
  141.3930   70.6120  228.5860 O   0  0  0  0  0  0  0  0  0  0  0  0
  140.0470   69.6460  226.5410 C   0  0  0  0  0  0  0  0  0  0  0  0
  139.4100   68.5710  225.9590 C   0  0  0  0  0  0  0  0  0  0  0  0
  139.1410   68.5890  224.6090 C   0  0  0  0  0  0  0  0  0  0  0  0
  139.4890   69.6570  223.8000 C   0  0  0  0  0  0  0  0  0  0  0  0
  139.1440   69.5550  222.3660 C   0  0  0  0  0  0  0  0  0  0  0  0
  140.0030   70.4940  221.5290 C   0  0  0  0  0  0  0  0  0  0  0  0
  139.1520   71.4190  220.8760 N   0  0  0  0  0  0  0  0  0  0  0  0
  137.7760   71.3600  221.2270 C   0  0  0  0  0  0  0  0  0  0  0  0
  137.2120   72.4190  220.2730 C   0  0  0  0  0  0  0  0  0  0  0  0
  138.3080   73.4810  220.3820 C   0  0  1  0  0  0  0  0  0  0  0  0
  137.8030   74.5210  221.3190 C   0  0  0  0  0  0  0  0  0  0  0  0
  138.5260   75.6280  221.5830 N   0  0  0  0  0  0  0  0  0  0  0  0
  138.1150   76.6030  222.4290 C   0  0  0  0  0  0  0  0  0  0  0  0
  138.9020   77.7660  222.6840 N   0  0  0  0  0  0  0  0  0  0  0  0
  138.2160   79.0130  222.9150 C   0  0  0  0  0  0  0  0  0  0  0  0
  138.9420   79.8650  223.9250 C   0  0  0  0  0  0  0  0  0  0  0  0
  140.3760   79.9820  223.5770 C   0  0  0  0  0  0  0  0  0  0  0  0
  141.0710   81.1450  223.8270 C   0  0  0  0  0  0  0  0  0  0  0  0
  142.4050   81.2730  223.5100 C   0  0  0  0  0  0  0  0  0  0  0  0
  143.0300   80.1750  222.9210 C   0  0  0  0  0  0  0  0  0  0  0  0
  142.3420   79.0060  222.6670 C   0  0  0  0  0  0  0  0  0  0  0  0
  141.0090   78.9060  222.9940 C   0  0  0  0  0  0  0  0  0  0  0  0
  140.3270   77.6200  222.6940 C   0  0  0  0  0  0  0  0  0  0  0  0
  136.9040   76.4180  223.0270 N   0  0  0  0  0  0  0  0  0  0  0  0
  136.1460   75.3310  222.7970 C   0  0  0  0  0  0  0  0  0  0  0  0
  134.8950   75.2090  223.4600 N   0  0  0  0  0  0  0  0  0  0  0  0
  134.1490   76.4470  223.6720 C   0  0  0  0  0  0  0  0  0  0  0  0
  134.2510   76.6910  225.1840 C   0  0  0  0  0  0  0  0  0  0  0  0
  133.6510   75.4850  225.8240 C   0  0  0  0  0  0  0  0  0  0  0  0
  133.0420   75.7050  227.0620 C   0  0  0  0  0  0  0  0  0  0  0  0
  132.4670   74.6350  227.7080 C   0  0  0  0  0  0  0  0  0  0  0  0
  132.4910   73.3640  227.1440 C   0  0  0  0  0  0  0  0  0  0  0  0
  133.0960   73.1650  225.9210 C   0  0  0  0  0  0  0  0  0  0  0  0
  133.6880   74.2340  225.2430 C   0  0  0  0  0  0  0  0  0  0  0  0
  134.3350   73.9830  223.9190 C   0  0  0  0  0  0  0  0  0  0  0  0
  136.6240   74.4050  221.9410 N   0  0  0  0  0  0  0  0  0  0  0  0
  139.5510   72.7840  220.8590 C   0  0  0  0  0  0  0  0  0  0  0  0
  140.1240   70.7300  224.3770 C   0  0  0  0  0  0  0  0  0  0  0  0
  140.4050   70.7290  225.7480 C   0  0  0  0  0  0  0  0  0  0  0  0
  140.6520   67.3420  227.9090 H   0  0  0  0  0  0  0  0  0  0  0  0
  140.3480   67.6570  229.5220 H   0  0  0  0  0  0  0  0  0  0  0  0
  139.1183   67.7038  226.5697 H   0  0  0  0  0  0  0  0  0  0  0  0
  138.6319   67.7247  224.1575 H   0  0  0  0  0  0  0  0  0  0  0  0
  139.3087   68.5209  222.0292 H   0  0  0  0  0  0  0  0  0  0  0  0
  138.0889   69.8388  222.2387 H   0  0  0  0  0  0  0  0  0  0  0  0
  140.7066   71.0330  222.1805 H   0  0  0  0  0  0  0  0  0  0  0  0
  140.5759   69.9195  220.7863 H   0  0  0  0  0  0  0  0  0  0  0  0
  137.3474   70.3658  221.0326 H   0  0  0  0  0  0  0  0  0  0  0  0
  137.5617   71.5345  222.2917 H   0  0  0  0  0  0  0  0  0  0  0  0
  137.1157   72.0348  219.2468 H   0  0  0  0  0  0  0  0  0  0  0  0
  136.1986   72.7708  220.5163 H   0  0  0  0  0  0  0  0  0  0  0  0
  138.5557   73.9786  219.4328 H   0  0  0  0  0  0  0  0  0  0  0  0
  138.1477   79.5644  221.9656 H   0  0  0  0  0  0  0  0  0  0  0  0
  137.2145   78.7876  223.3103 H   0  0  0  0  0  0  0  0  0  0  0  0
  138.4914   80.8684  223.9414 H   0  0  0  0  0  0  0  0  0  0  0  0
  138.8558   79.3915  224.9141 H   0  0  0  0  0  0  0  0  0  0  0  0
  140.5469   81.9931  224.2918 H   0  0  0  0  0  0  0  0  0  0  0  0
  142.9549   82.2037  223.7133 H   0  0  0  0  0  0  0  0  0  0  0  0
  144.0947   80.2418  222.6529 H   0  0  0  0  0  0  0  0  0  0  0  0
  142.8595   78.1535  222.2028 H   0  0  0  0  0  0  0  0  0  0  0  0
  140.6558   77.2639  221.7065 H   0  0  0  0  0  0  0  0  0  0  0  0
  140.5924   76.8991  223.4813 H   0  0  0  0  0  0  0  0  0  0  0  0
  134.6027   77.2773  223.1109 H   0  0  0  0  0  0  0  0  0  0  0  0
  133.1076   76.3772  223.3248 H   0  0  0  0  0  0  0  0  0  0  0  0
  135.3031   76.8027  225.4852 H   0  0  0  0  0  0  0  0  0  0  0  0
  133.7318   77.6131  225.4843 H   0  0  0  0  0  0  0  0  0  0  0  0
  133.0227   76.7097  227.5095 H   0  0  0  0  0  0  0  0  0  0  0  0
  131.9819   74.7868  228.6835 H   0  0  0  0  0  0  0  0  0  0  0  0
  132.0277   72.5182  227.6731 H   0  0  0  0  0  0  0  0  0  0  0  0
  133.1127   72.1590  225.4765 H   0  0  0  0  0  0  0  0  0  0  0  0
  135.1283   73.2289  224.0288 H   0  0  0  0  0  0  0  0  0  0  0  0
  133.5934   73.6094  223.1975 H   0  0  0  0  0  0  0  0  0  0  0  0
  140.3883   72.9446  220.1639 H   0  0  0  0  0  0  0  0  0  0  0  0
  139.9110   73.1475  221.8328 H   0  0  0  0  0  0  0  0  0  0  0  0
  140.4126   71.5931  223.7591 H   0  0  0  0  0  0  0  0  0  0  0  0
  140.9134   71.5927  226.2013 H   0  0  0  0  0  0  0  0  0  0  0  0
  1  2  1  0
  2  3  2  0
  2  4  2  0
  2  5  1  0
  5  6  2  0
  6  7  1  0
  7  8  2  0
  8  9  1  0
  9 10  1  0
 10 11  1  0
 11 12  1  0
 12 13  1  0
 13 14  1  0
 14 15  1  0
 15 16  2  0
 16 17  1  0
 17 18  1  0
 18 19  1  0
 19 20  1  0
 20 21  1  0
 21 22  2  0
 22 23  1  0
 23 24  2  0
 24 25  1  0
 25 26  2  0
 26 27  1  0
 17 28  2  0
 28 29  1  0
 29 30  1  0
 30 31  1  0
 31 32  1  0
 32 33  1  0
 33 34  2  0
 34 35  1  0
 35 36  2  0
 36 37  1  0
 37 38  2  0
 38 39  1  0
 29 40  2  0
 14 41  1  0
  8 42  1  0
 42 43  2  0
 43  5  1  0
 41 11  1  0
 40 15  1  0
 27 18  1  0
 39 30  1  0
 26 21  1  0
 38 33  1  0
  1 44  1  0
  1 45  1  0
  6 46  1  0
  7 47  1  0
  9 48  1  0
  9 49  1  0
 10 50  1  0
 10 51  1  0
 12 52  1  0
 12 53  1  0
 13 54  1  0
 13 55  1  0
 14 56  1  6
 19 57  1  0
 19 58  1  0
 20 59  1  0
 20 60  1  0
 22 61  1  0
 23 62  1  0
 24 63  1  0
 25 64  1  0
 27 65  1  0
 27 66  1  0
 31 67  1  0
 31 68  1  0
 32 69  1  0
 32 70  1  0
 34 71  1  0
 35 72  1  0
 36 73  1  0
 37 74  1  0
 39 75  1  0
 39 76  1  0
 41 77  1  0
 41 78  1  0
 42 79  1  0
 43 80  1  0
M  END
>  <smiles>  (51) 
NS(=O)(=O)c1ccc(CCN2CCC(c3nc(N4CCc5ccccc5C4)nc(N4CCc5ccccc5C4)n3)C2)cc1

>  <score_type>  (51) 
oracle

>  <origin>  (51) 
autodockgpu

>  <m_score__min__energy>  (51) 
-10.83

>  <m_primary>  (51) 
energy

>  <rmsd>  (51) 
9.92104714008129

>  <m_score__min__rmsd>  (51) 
9.92104714008129

>  <meeko>  (51) 
{"free_energy": -10.44, "intermolecular_energy": -12.82, "internal_energy": -1.66, "cluster_size": 5, "cluster_id": 4, "rank_in_cluster": 2}

>  <energy>  (51) 
-10.83

>  <cluster_rmsd>  (51) 
0.0

>  <cluster>  (51) 
1

$$$$

     RDKit          3D

 80 86  0  0  1  0  0  0  0  0999 V2000
  143.0410   80.2530  217.8450 N   0  0  0  0  0  0  0  0  0  0  0  0
  142.0460   78.9350  218.4020 S   0  0  0  0  0  0  0  0  0  0  0  0
  142.1320   78.9270  219.9130 O   0  0  0  0  0  0  0  0  0  0  0  0
  140.6320   79.1170  217.9360 O   0  0  0  0  0  0  0  0  0  0  0  0
  142.6370   77.4180  217.7910 C   0  0  0  0  0  0  0  0  0  0  0  0
  143.2450   76.5590  218.6800 C   0  0  0  0  0  0  0  0  0  0  0  0
  143.7270   75.3490  218.2370 C   0  0  0  0  0  0  0  0  0  0  0  0
  143.6260   74.9540  216.9140 C   0  0  0  0  0  0  0  0  0  0  0  0
  144.1830   73.6290  216.5630 C   0  0  0  0  0  0  0  0  0  0  0  0
  145.0290   73.0730  217.7020 C   0  0  0  0  0  0  0  0  0  0  0  0
  144.2420   72.1550  218.4390 N   0  0  0  0  0  0  0  0  0  0  0  0
  144.6770   71.8820  219.7650 C   0  0  0  0  0  0  0  0  0  0  0  0
  143.6480   70.8180  220.1680 C   0  0  0  0  0  0  0  0  0  0  0  0
  142.3870   71.4260  219.5510 C   0  0  1  0  0  0  0  0  0  0  0  0
  141.6500   72.0960  220.6560 C   0  0  0  0  0  0  0  0  0  0  0  0
  141.3720   73.4140  220.6060 N   0  0  0  0  0  0  0  0  0  0  0  0
  140.7070   74.0730  221.5850 C   0  0  0  0  0  0  0  0  0  0  0  0
  140.4230   75.4700  221.5010 N   0  0  0  0  0  0  0  0  0  0  0  0
  139.5500   75.9240  220.4480 C   0  0  0  0  0  0  0  0  0  0  0  0
  138.6950   77.0810  220.8980 C   0  0  0  0  0  0  0  0  0  0  0  0
  139.5240   78.1290  221.5330 C   0  0  0  0  0  0  0  0  0  0  0  0
  139.2090   79.4630  221.3910 C   0  0  0  0  0  0  0  0  0  0  0  0
  139.9690   80.4520  221.9730 C   0  0  0  0  0  0  0  0  0  0  0  0
  141.0770   80.0510  222.7180 C   0  0  0  0  0  0  0  0  0  0  0  0
  141.4010   78.7180  222.8660 C   0  0  0  0  0  0  0  0  0  0  0  0
  140.6240   77.7500  222.2730 C   0  0  0  0  0  0  0  0  0  0  0  0
  141.0270   76.3340  222.4720 C   0  0  0  0  0  0  0  0  0  0  0  0
  140.3180   73.3310  222.6610 N   0  0  0  0  0  0  0  0  0  0  0  0
  140.5720   72.0150  222.7570 C   0  0  0  0  0  0  0  0  0  0  0  0
  140.1350   71.3100  223.9120 N   0  0  0  0  0  0  0  0  0  0  0  0
  140.5760   71.8370  225.2000 C   0  0  0  0  0  0  0  0  0  0  0  0
  141.6030   70.8080  225.6940 C   0  0  0  0  0  0  0  0  0  0  0  0
  140.8670   69.5130  225.7700 C   0  0  0  0  0  0  0  0  0  0  0  0
  141.3200   68.6230  226.7450 C   0  0  0  0  0  0  0  0  0  0  0  0
  140.6850   67.4100  226.8710 C   0  0  0  0  0  0  0  0  0  0  0  0
  139.6160   67.0760  226.0450 C   0  0  0  0  0  0  0  0  0  0  0  0
  139.1810   67.9660  225.0880 C   0  0  0  0  0  0  0  0  0  0  0  0
  139.8090   69.2070  224.9390 C   0  0  0  0  0  0  0  0  0  0  0  0
  139.3110   70.1480  223.8910 C   0  0  0  0  0  0  0  0  0  0  0  0
  141.2380   71.4300  221.7410 N   0  0  0  0  0  0  0  0  0  0  0  0
  142.8360   72.3620  218.4640 C   0  0  0  0  0  0  0  0  0  0  0  0
  143.0210   75.8080  216.0240 C   0  0  0  0  0  0  0  0  0  0  0  0
  142.5250   77.0420  216.4590 C   0  0  0  0  0  0  0  0  0  0  0  0
  142.8780   80.3180  216.7970 H   0  0  0  0  0  0  0  0  0  0  0  0
  144.0540   79.9550  217.9270 H   0  0  0  0  0  0  0  0  0  0  0  0
  143.3446   76.8393  219.7390 H   0  0  0  0  0  0  0  0  0  0  0  0
  144.2089   74.6726  218.9583 H   0  0  0  0  0  0  0  0  0  0  0  0
  143.3556   72.9341  216.3571 H   0  0  0  0  0  0  0  0  0  0  0  0
  144.8218   73.7416  215.6746 H   0  0  0  0  0  0  0  0  0  0  0  0
  145.9117   72.5600  217.2925 H   0  0  0  0  0  0  0  0  0  0  0  0
  145.3656   73.8910  218.3558 H   0  0  0  0  0  0  0  0  0  0  0  0
  145.7031   71.4860  219.7848 H   0  0  0  0  0  0  0  0  0  0  0  0
  144.7217   72.7585  220.4281 H   0  0  0  0  0  0  0  0  0  0  0  0
  143.8835   69.8358  219.7324 H   0  0  0  0  0  0  0  0  0  0  0  0
  143.5863   70.6166  221.2477 H   0  0  0  0  0  0  0  0  0  0  0  0
  141.7065   70.6934  219.0924 H   0  0  0  0  0  0  0  0  0  0  0  0
  140.1606   76.2433  219.5905 H   0  0  0  0  0  0  0  0  0  0  0  0
  138.8858   75.0929  220.1686 H   0  0  0  0  0  0  0  0  0  0  0  0
  138.1783   77.5085  220.0261 H   0  0  0  0  0  0  0  0  0  0  0  0
  137.9639   76.7148  221.6337 H   0  0  0  0  0  0  0  0  0  0  0  0
  138.3271   79.7448  220.7970 H   0  0  0  0  0  0  0  0  0  0  0  0
  139.7126   81.5152  221.8551 H   0  0  0  0  0  0  0  0  0  0  0  0
  141.7069   80.8142  223.1985 H   0  0  0  0  0  0  0  0  0  0  0  0
  142.2814   78.4291  223.4587 H   0  0  0  0  0  0  0  0  0  0  0  0
  142.1209   76.2590  222.3846 H   0  0  0  0  0  0  0  0  0  0  0  0
  140.6889   76.0180  223.4699 H   0  0  0  0  0  0  0  0  0  0  0  0
  141.0417   72.8261  225.0784 H   0  0  0  0  0  0  0  0  0  0  0  0
  139.7443   71.9759  225.9064 H   0  0  0  0  0  0  0  0  0  0  0  0
  142.4418   70.7322  224.9864 H   0  0  0  0  0  0  0  0  0  0  0  0
  142.0288   71.0924  226.6675 H   0  0  0  0  0  0  0  0  0  0  0  0
  142.1656   68.8859  227.3976 H   0  0  0  0  0  0  0  0  0  0  0  0
  141.0261   66.6949  227.6340 H   0  0  0  0  0  0  0  0  0  0  0  0
  139.1184   66.1013  226.1564 H   0  0  0  0  0  0  0  0  0  0  0  0
  138.3351   67.6994  224.4373 H   0  0  0  0  0  0  0  0  0  0  0  0
  139.3673   69.6688  222.9025 H   0  0  0  0  0  0  0  0  0  0  0  0
  138.2637   70.4198  224.0894 H   0  0  0  0  0  0  0  0  0  0  0  0
  142.3785   72.0987  217.4990 H   0  0  0  0  0  0  0  0  0  0  0  0
  142.5507   73.4093  218.6425 H   0  0  0  0  0  0  0  0  0  0  0  0
  142.9262   75.5209  214.9664 H   0  0  0  0  0  0  0  0  0  0  0  0
  142.0423   77.7199  215.7397 H   0  0  0  0  0  0  0  0  0  0  0  0
  1  2  1  0
  2  3  2  0
  2  4  2  0
  2  5  1  0
  5  6  2  0
  6  7  1  0
  7  8  2  0
  8  9  1  0
  9 10  1  0
 10 11  1  0
 11 12  1  0
 12 13  1  0
 13 14  1  0
 14 15  1  0
 15 16  2  0
 16 17  1  0
 17 18  1  0
 18 19  1  0
 19 20  1  0
 20 21  1  0
 21 22  2  0
 22 23  1  0
 23 24  2  0
 24 25  1  0
 25 26  2  0
 26 27  1  0
 17 28  2  0
 28 29  1  0
 29 30  1  0
 30 31  1  0
 31 32  1  0
 32 33  1  0
 33 34  2  0
 34 35  1  0
 35 36  2  0
 36 37  1  0
 37 38  2  0
 38 39  1  0
 29 40  2  0
 14 41  1  0
  8 42  1  0
 42 43  2  0
 43  5  1  0
 41 11  1  0
 40 15  1  0
 27 18  1  0
 39 30  1  0
 26 21  1  0
 38 33  1  0
  1 44  1  0
  1 45  1  0
  6 46  1  0
  7 47  1  0
  9 48  1  0
  9 49  1  0
 10 50  1  0
 10 51  1  0
 12 52  1  0
 12 53  1  0
 13 54  1  0
 13 55  1  0
 14 56  1  6
 19 57  1  0
 19 58  1  0
 20 59  1  0
 20 60  1  0
 22 61  1  0
 23 62  1  0
 24 63  1  0
 25 64  1  0
 27 65  1  0
 27 66  1  0
 31 67  1  0
 31 68  1  0
 32 69  1  0
 32 70  1  0
 34 71  1  0
 35 72  1  0
 36 73  1  0
 37 74  1  0
 39 75  1  0
 39 76  1  0
 41 77  1  0
 41 78  1  0
 42 79  1  0
 43 80  1  0
M  END
>  <smiles>  (52) 
NS(=O)(=O)c1ccc(CCN2CCC(c3nc(N4CCc5ccccc5C4)nc(N4CCc5ccccc5C4)n3)C2)cc1

>  <score_type>  (52) 
oracle

>  <origin>  (52) 
autodockgpu

>  <m_score__min__energy>  (52) 
-10.83

>  <m_primary>  (52) 
energy

>  <rmsd>  (52) 
7.869432338434793

>  <m_score__min__rmsd>  (52) 
7.869432338434793

>  <meeko>  (52) 
{"free_energy": -9.54, "intermolecular_energy": -11.93, "internal_energy": -2.9, "cluster_size": 5, "cluster_id": 6, "rank_in_cluster": 4}

>  <energy>  (52) 
-10.19

>  <cluster_rmsd>  (52) 
1.95

>  <cluster>  (52) 
1

$$$$

     RDKit          3D

 80 86  0  0  1  0  0  0  0  0999 V2000
  146.6180   73.2960  221.9900 N   0  0  0  0  0  0  0  0  0  0  0  0
  145.8180   73.4370  220.4480 S   0  0  0  0  0  0  0  0  0  0  0  0
  144.7920   74.5420  220.5840 O   0  0  0  0  0  0  0  0  0  0  0  0
  146.8150   73.7450  219.3710 O   0  0  0  0  0  0  0  0  0  0  0  0
  145.0050   71.9550  220.0410 C   0  0  0  0  0  0  0  0  0  0  0  0
  143.7060   71.7930  220.4720 C   0  0  0  0  0  0  0  0  0  0  0  0
  143.0280   70.6350  220.1710 C   0  0  0  0  0  0  0  0  0  0  0  0
  143.6050   69.6090  219.4430 C   0  0  0  0  0  0  0  0  0  0  0  0
  142.7710   68.4150  219.1850 C   0  0  0  0  0  0  0  0  0  0  0  0
  141.9790   68.5710  217.8920 C   0  0  0  0  0  0  0  0  0  0  0  0
  140.7490   69.2060  218.1920 N   0  0  0  0  0  0  0  0  0  0  0  0
  140.0780   68.7500  219.3590 C   0  0  0  0  0  0  0  0  0  0  0  0
  138.8010   69.5970  219.2790 C   0  0  0  0  0  0  0  0  0  0  0  0
  139.4000   70.9320  218.8320 C   0  0  1  0  0  0  0  0  0  0  0  0
  139.5030   71.7820  220.0490 C   0  0  0  0  0  0  0  0  0  0  0  0
  139.5570   71.2320  221.2790 N   0  0  0  0  0  0  0  0  0  0  0  0
  139.6480   71.9590  222.4180 C   0  0  0  0  0  0  0  0  0  0  0  0
  139.7080   71.3460  223.7050 N   0  0  0  0  0  0  0  0  0  0  0  0
  138.8450   70.2200  223.9630 C   0  0  0  0  0  0  0  0  0  0  0  0
  139.5080   69.2100  224.8650 C   0  0  0  0  0  0  0  0  0  0  0  0
  140.0690   69.8690  226.0650 C   0  0  0  0  0  0  0  0  0  0  0  0
  140.0720   69.2300  227.2860 C   0  0  0  0  0  0  0  0  0  0  0  0
  140.5890   69.8270  228.4140 C   0  0  0  0  0  0  0  0  0  0  0  0
  141.1130   71.1120  228.2740 C   0  0  0  0  0  0  0  0  0  0  0  0
  141.1140   71.7590  227.0550 C   0  0  0  0  0  0  0  0  0  0  0  0
  140.5910   71.1390  225.9440 C   0  0  0  0  0  0  0  0  0  0  0  0
  140.6240   71.8920  224.6630 C   0  0  0  0  0  0  0  0  0  0  0  0
  139.6820   73.3150  222.2720 N   0  0  0  0  0  0  0  0  0  0  0  0
  139.6300   73.9110  221.0680 C   0  0  0  0  0  0  0  0  0  0  0  0
  139.6700   75.3300  220.9980 N   0  0  0  0  0  0  0  0  0  0  0  0
  140.2820   75.9050  219.8040 C   0  0  0  0  0  0  0  0  0  0  0  0
  141.6090   76.4880  220.3060 C   0  0  0  0  0  0  0  0  0  0  0  0
  141.2380   77.4820  221.3540 C   0  0  0  0  0  0  0  0  0  0  0  0
  142.1140   78.5600  221.4950 C   0  0  0  0  0  0  0  0  0  0  0  0
  141.8310   79.5150  222.4430 C   0  0  0  0  0  0  0  0  0  0  0  0
  140.6980   79.4100  223.2450 C   0  0  0  0  0  0  0  0  0  0  0  0
  139.8440   78.3390  223.0930 C   0  0  0  0  0  0  0  0  0  0  0  0
  140.1080   77.3540  222.1370 C   0  0  0  0  0  0  0  0  0  0  0  0
  139.1610   76.2070  221.9980 C   0  0  0  0  0  0  0  0  0  0  0  0
  139.5410   73.1180  219.9810 N   0  0  0  0  0  0  0  0  0  0  0  0
  140.7240   70.6280  218.1890 C   0  0  0  0  0  0  0  0  0  0  0  0
  144.9000   69.7660  219.0110 C   0  0  0  0  0  0  0  0  0  0  0  0
  145.6040   70.9380  219.3090 C   0  0  0  0  0  0  0  0  0  0  0  0
  146.4920   72.2850  222.2920 H   0  0  0  0  0  0  0  0  0  0  0  0
  146.0570   73.8460  222.7000 H   0  0  0  0  0  0  0  0  0  0  0  0
  143.2139   72.5862  221.0540 H   0  0  0  0  0  0  0  0  0  0  0  0
  141.9915   70.5202  220.5209 H   0  0  0  0  0  0  0  0  0  0  0  0
  143.4221   67.5321  219.1037 H   0  0  0  0  0  0  0  0  0  0  0  0
  142.0624   68.2958  220.0179 H   0  0  0  0  0  0  0  0  0  0  0  0
  142.5493   69.1849  217.1793 H   0  0  0  0  0  0  0  0  0  0  0  0
  141.7939   67.5844  217.4422 H   0  0  0  0  0  0  0  0  0  0  0  0
  139.8578   67.6734  219.3091 H   0  0  0  0  0  0  0  0  0  0  0  0
  140.6481   68.8577  220.2936 H   0  0  0  0  0  0  0  0  0  0  0  0
  138.0919   69.1986  218.5384 H   0  0  0  0  0  0  0  0  0  0  0  0
  138.2124   69.6393  220.2073 H   0  0  0  0  0  0  0  0  0  0  0  0
  138.7948   71.4775  218.0930 H   0  0  0  0  0  0  0  0  0  0  0  0
  137.9237   70.5790  224.4449 H   0  0  0  0  0  0  0  0  0  0  0  0
  138.6205   69.7307  223.0037 H   0  0  0  0  0  0  0  0  0  0  0  0
  138.7643   68.4624  225.1781 H   0  0  0  0  0  0  0  0  0  0  0  0
  140.3266   68.7259  224.3122 H   0  0  0  0  0  0  0  0  0  0  0  0
  139.6505   68.2168  227.3614 H   0  0  0  0  0  0  0  0  0  0  0  0
  140.5888   69.3116  229.3858 H   0  0  0  0  0  0  0  0  0  0  0  0
  141.5344   71.6204  229.1538 H   0  0  0  0  0  0  0  0  0  0  0  0
  141.5338   72.7723  226.9716 H   0  0  0  0  0  0  0  0  0  0  0  0
  140.3534   72.9402  224.8582 H   0  0  0  0  0  0  0  0  0  0  0  0
  141.6399   71.8188  224.2475 H   0  0  0  0  0  0  0  0  0  0  0  0
  140.4590   75.1296  219.0442 H   0  0  0  0  0  0  0  0  0  0  0  0
  139.6431   76.6618  219.3255 H   0  0  0  0  0  0  0  0  0  0  0  0
  142.2393   75.6949  220.7346 H   0  0  0  0  0  0  0  0  0  0  0  0
  142.1850   76.9508  219.4911 H   0  0  0  0  0  0  0  0  0  0  0  0
  143.0099   78.6434  220.8623 H   0  0  0  0  0  0  0  0  0  0  0  0
  142.5083   80.3725  222.5692 H   0  0  0  0  0  0  0  0  0  0  0  0
  140.4845   80.1814  223.9996 H   0  0  0  0  0  0  0  0  0  0  0  0
  138.9492   78.2588  223.7278 H   0  0  0  0  0  0  0  0  0  0  0  0
  139.0799   75.6726  222.9560 H   0  0  0  0  0  0  0  0  0  0  0  0
  138.1626   76.5703  221.7131 H   0  0  0  0  0  0  0  0  0  0  0  0
  140.7682   71.0241  217.1637 H   0  0  0  0  0  0  0  0  0  0  0  0
  141.5792   71.0825  218.7106 H   0  0  0  0  0  0  0  0  0  0  0  0
  145.3846   68.9680  218.4293 H   0  0  0  0  0  0  0  0  0  0  0  0
  146.6408   71.0548  218.9605 H   0  0  0  0  0  0  0  0  0  0  0  0
  1  2  1  0
  2  3  2  0
  2  4  2  0
  2  5  1  0
  5  6  2  0
  6  7  1  0
  7  8  2  0
  8  9  1  0
  9 10  1  0
 10 11  1  0
 11 12  1  0
 12 13  1  0
 13 14  1  0
 14 15  1  0
 15 16  2  0
 16 17  1  0
 17 18  1  0
 18 19  1  0
 19 20  1  0
 20 21  1  0
 21 22  2  0
 22 23  1  0
 23 24  2  0
 24 25  1  0
 25 26  2  0
 26 27  1  0
 17 28  2  0
 28 29  1  0
 29 30  1  0
 30 31  1  0
 31 32  1  0
 32 33  1  0
 33 34  2  0
 34 35  1  0
 35 36  2  0
 36 37  1  0
 37 38  2  0
 38 39  1  0
 29 40  2  0
 14 41  1  0
  8 42  1  0
 42 43  2  0
 43  5  1  0
 41 11  1  0
 40 15  1  0
 27 18  1  0
 39 30  1  0
 26 21  1  0
 38 33  1  0
  1 44  1  0
  1 45  1  0
  6 46  1  0
  7 47  1  0
  9 48  1  0
  9 49  1  0
 10 50  1  0
 10 51  1  0
 12 52  1  0
 12 53  1  0
 13 54  1  0
 13 55  1  0
 14 56  1  6
 19 57  1  0
 19 58  1  0
 20 59  1  0
 20 60  1  0
 22 61  1  0
 23 62  1  0
 24 63  1  0
 25 64  1  0
 27 65  1  0
 27 66  1  0
 31 67  1  0
 31 68  1  0
 32 69  1  0
 32 70  1  0
 34 71  1  0
 35 72  1  0
 36 73  1  0
 37 74  1  0
 39 75  1  0
 39 76  1  0
 41 77  1  0
 41 78  1  0
 42 79  1  0
 43 80  1  0
M  END
>  <smiles>  (53) 
NS(=O)(=O)c1ccc(CCN2CCC(c3nc(N4CCc5ccccc5C4)nc(N4CCc5ccccc5C4)n3)C2)cc1

>  <score_type>  (53) 
oracle

>  <origin>  (53) 
autodockgpu

>  <m_score__min__energy>  (53) 
-10.83

>  <m_primary>  (53) 
energy

>  <rmsd>  (53) 
10.301976516034639

>  <m_score__min__rmsd>  (53) 
10.301976516034639

>  <meeko>  (53) 
{"free_energy": -10.83, "intermolecular_energy": -13.21, "internal_energy": -2.34, "cluster_size": 3, "cluster_id": 1, "rank_in_cluster": 1}

>  <energy>  (53) 
-9.4

>  <cluster_rmsd>  (53) 
1.9

>  <cluster>  (53) 
1

$$$$

     RDKit          3D

 80 86  0  0  1  0  0  0  0  0999 V2000
  140.8580   81.8880  221.6520 N   0  0  0  0  0  0  0  0  0  0  0  0
  141.6110   80.4580  222.3030 S   0  0  0  0  0  0  0  0  0  0  0  0
  142.9770   80.8710  222.8070 O   0  0  0  0  0  0  0  0  0  0  0  0
  140.7720   79.8830  223.4050 O   0  0  0  0  0  0  0  0  0  0  0  0
  141.8040   79.2490  221.0680 C   0  0  0  0  0  0  0  0  0  0  0  0
  142.1300   79.6720  219.7970 C   0  0  0  0  0  0  0  0  0  0  0  0
  142.2910   78.7470  218.7920 C   0  0  0  0  0  0  0  0  0  0  0  0
  142.1360   77.3880  219.0070 C   0  0  0  0  0  0  0  0  0  0  0  0
  142.3360   76.4970  217.8440 C   0  0  0  0  0  0  0  0  0  0  0  0
  143.6950   75.8100  217.9100 C   0  0  0  0  0  0  0  0  0  0  0  0
  143.5850   74.6760  218.7510 N   0  0  0  0  0  0  0  0  0  0  0  0
  143.9580   74.8660  220.1090 C   0  0  0  0  0  0  0  0  0  0  0  0
  143.7840   73.4350  220.6350 C   0  0  0  0  0  0  0  0  0  0  0  0
  142.4910   73.0470  219.9160 C   0  0  1  0  0  0  0  0  0  0  0  0
  141.3900   73.2000  220.9050 C   0  0  0  0  0  0  0  0  0  0  0  0
  141.2060   72.2920  221.8860 N   0  0  0  0  0  0  0  0  0  0  0  0
  140.2190   72.3820  222.8090 C   0  0  0  0  0  0  0  0  0  0  0  0
  140.0520   71.4070  223.8380 N   0  0  0  0  0  0  0  0  0  0  0  0
  139.0590   70.3790  223.6450 C   0  0  0  0  0  0  0  0  0  0  0  0
  139.5000   69.0660  224.2400 C   0  0  0  0  0  0  0  0  0  0  0  0
  139.9610   69.2520  225.6340 C   0  0  0  0  0  0  0  0  0  0  0  0
  139.7450   68.2790  226.5870 C   0  0  0  0  0  0  0  0  0  0  0  0
  140.1650   68.4340  227.8880 C   0  0  0  0  0  0  0  0  0  0  0  0
  140.8230   69.6210  228.2090 C   0  0  0  0  0  0  0  0  0  0  0  0
  141.0440   70.6000  227.2630 C   0  0  0  0  0  0  0  0  0  0  0  0
  140.6130   70.4190  225.9690 C   0  0  0  0  0  0  0  0  0  0  0  0
  140.8840   71.5120  225.0000 C   0  0  0  0  0  0  0  0  0  0  0  0
  139.3880   73.4590  222.7080 N   0  0  0  0  0  0  0  0  0  0  0  0
  139.5310   74.3900  221.7480 C   0  0  0  0  0  0  0  0  0  0  0  0
  138.6230   75.4840  221.7080 N   0  0  0  0  0  0  0  0  0  0  0  0
  137.8890   75.6730  220.4600 C   0  0  0  0  0  0  0  0  0  0  0  0
  138.5080   76.9370  219.8480 C   0  0  0  0  0  0  0  0  0  0  0  0
  138.3030   78.0120  220.8600 C   0  0  0  0  0  0  0  0  0  0  0  0
  138.1670   79.3030  220.3440 C   0  0  0  0  0  0  0  0  0  0  0  0
  137.9730   80.3430  221.2220 C   0  0  0  0  0  0  0  0  0  0  0  0
  137.9140   80.1160  222.5940 C   0  0  0  0  0  0  0  0  0  0  0  0
  138.0500   78.8370  223.0870 C   0  0  0  0  0  0  0  0  0  0  0  0
  138.2480   77.7610  222.2160 C   0  0  0  0  0  0  0  0  0  0  0  0
  138.3910   76.3870  222.7840 C   0  0  0  0  0  0  0  0  0  0  0  0
  140.5380   74.2300  220.8660 N   0  0  0  0  0  0  0  0  0  0  0  0
  142.3640   73.9470  218.7200 C   0  0  0  0  0  0  0  0  0  0  0  0
  141.8100   76.9620  220.2720 C   0  0  0  0  0  0  0  0  0  0  0  0
  141.6440   77.8900  221.3060 C   0  0  0  0  0  0  0  0  0  0  0  0
  140.4210   81.5920  220.7290 H   0  0  0  0  0  0  0  0  0  0  0  0
  141.6250   82.5610  221.3670 H   0  0  0  0  0  0  0  0  0  0  0  0
  142.2607   80.7440  219.5877 H   0  0  0  0  0  0  0  0  0  0  0  0
  142.5518   79.0989  217.7830 H   0  0  0  0  0  0  0  0  0  0  0  0
  141.5459   75.7317  217.8370 H   0  0  0  0  0  0  0  0  0  0  0  0
  142.2936   77.1028  216.9268 H   0  0  0  0  0  0  0  0  0  0  0  0
  144.0012   75.4956  216.9013 H   0  0  0  0  0  0  0  0  0  0  0  0
  144.4490   76.5040  218.3098 H   0  0  0  0  0  0  0  0  0  0  0  0
  144.9981   75.2117  220.2023 H   0  0  0  0  0  0  0  0  0  0  0  0
  143.3784   75.6311  220.6463 H   0  0  0  0  0  0  0  0  0  0  0  0
  144.6240   72.7873  220.3435 H   0  0  0  0  0  0  0  0  0  0  0  0
  143.7518   73.3434  221.7307 H   0  0  0  0  0  0  0  0  0  0  0  0
  142.4684   72.0104  219.5487 H   0  0  0  0  0  0  0  0  0  0  0  0
  138.1213   70.6928  224.1270 H   0  0  0  0  0  0  0  0  0  0  0  0
  138.9151   70.2369  222.5638 H   0  0  0  0  0  0  0  0  0  0  0  0
  138.6541   68.3629  224.2302 H   0  0  0  0  0  0  0  0  0  0  0  0
  140.3334   68.6688  223.6419 H   0  0  0  0  0  0  0  0  0  0  0  0
  139.2231   67.3544  226.2994 H   0  0  0  0  0  0  0  0  0  0  0  0
  139.9891   67.6541  228.6435 H   0  0  0  0  0  0  0  0  0  0  0  0
  141.1735   69.7799  229.2395 H   0  0  0  0  0  0  0  0  0  0  0  0
  141.5657   71.5269  227.5435 H   0  0  0  0  0  0  0  0  0  0  0  0
  140.6927   72.4783  225.4896 H   0  0  0  0  0  0  0  0  0  0  0  0
  141.9333   71.4342  224.6792 H   0  0  0  0  0  0  0  0  0  0  0  0
  138.0251   74.8093  219.7925 H   0  0  0  0  0  0  0  0  0  0  0  0
  136.8048   75.7688  220.6188 H   0  0  0  0  0  0  0  0  0  0  0  0
  139.5812   76.7866  219.6592 H   0  0  0  0  0  0  0  0  0  0  0  0
  138.0450   77.1916  218.8832 H   0  0  0  0  0  0  0  0  0  0  0  0
  138.2141   79.4834  219.2599 H   0  0  0  0  0  0  0  0  0  0  0  0
  137.8631   81.3670  220.8355 H   0  0  0  0  0  0  0  0  0  0  0  0
  137.7588   80.9580  223.2846 H   0  0  0  0  0  0  0  0  0  0  0  0
  138.0026   78.6610  224.1718 H   0  0  0  0  0  0  0  0  0  0  0  0
  139.2398   76.3594  223.4832 H   0  0  0  0  0  0  0  0  0  0  0  0
  137.4783   76.1035  223.3285 H   0  0  0  0  0  0  0  0  0  0  0  0
  142.2729   73.3638  217.7918 H   0  0  0  0  0  0  0  0  0  0  0  0
  141.4703   74.5878  218.7469 H   0  0  0  0  0  0  0  0  0  0  0  0
  141.6791   75.8884  220.4724 H   0  0  0  0  0  0  0  0  0  0  0  0
  141.3845   77.5402  222.3161 H   0  0  0  0  0  0  0  0  0  0  0  0
  1  2  1  0
  2  3  2  0
  2  4  2  0
  2  5  1  0
  5  6  2  0
  6  7  1  0
  7  8  2  0
  8  9  1  0
  9 10  1  0
 10 11  1  0
 11 12  1  0
 12 13  1  0
 13 14  1  0
 14 15  1  0
 15 16  2  0
 16 17  1  0
 17 18  1  0
 18 19  1  0
 19 20  1  0
 20 21  1  0
 21 22  2  0
 22 23  1  0
 23 24  2  0
 24 25  1  0
 25 26  2  0
 26 27  1  0
 17 28  2  0
 28 29  1  0
 29 30  1  0
 30 31  1  0
 31 32  1  0
 32 33  1  0
 33 34  2  0
 34 35  1  0
 35 36  2  0
 36 37  1  0
 37 38  2  0
 38 39  1  0
 29 40  2  0
 14 41  1  0
  8 42  1  0
 42 43  2  0
 43  5  1  0
 41 11  1  0
 40 15  1  0
 27 18  1  0
 39 30  1  0
 26 21  1  0
 38 33  1  0
  1 44  1  0
  1 45  1  0
  6 46  1  0
  7 47  1  0
  9 48  1  0
  9 49  1  0
 10 50  1  0
 10 51  1  0
 12 52  1  0
 12 53  1  0
 13 54  1  0
 13 55  1  0
 14 56  1  6
 19 57  1  0
 19 58  1  0
 20 59  1  0
 20 60  1  0
 22 61  1  0
 23 62  1  0
 24 63  1  0
 25 64  1  0
 27 65  1  0
 27 66  1  0
 31 67  1  0
 31 68  1  0
 32 69  1  0
 32 70  1  0
 34 71  1  0
 35 72  1  0
 36 73  1  0
 37 74  1  0
 39 75  1  0
 39 76  1  0
 41 77  1  0
 41 78  1  0
 42 79  1  0
 43 80  1  0
M  END
>  <smiles>  (54) 
NS(=O)(=O)c1ccc(CCN2CCC(c3nc(N4CCc5ccccc5C4)nc(N4CCc5ccccc5C4)n3)C2)cc1

>  <score_type>  (54) 
oracle

>  <origin>  (54) 
autodockgpu

>  <m_score__min__energy>  (54) 
-10.83

>  <m_primary>  (54) 
energy

>  <rmsd>  (54) 
5.522650432150065

>  <m_score__min__rmsd>  (54) 
5.522650432150065

>  <meeko>  (54) 
{"free_energy": -9.29, "intermolecular_energy": -11.68, "internal_energy": -3.54, "cluster_size": 4, "cluster_id": 11, "rank_in_cluster": 3}

>  <energy>  (54) 
-10.67

>  <cluster_rmsd>  (54) 
0.0

>  <cluster>  (54) 
2

$$$$

     RDKit          3D

 80 86  0  0  1  0  0  0  0  0999 V2000
  143.2860   80.4510  222.9460 N   0  0  0  0  0  0  0  0  0  0  0  0
  141.7350   80.0020  222.2920 S   0  0  0  0  0  0  0  0  0  0  0  0
  141.0070   79.2340  223.3750 O   0  0  0  0  0  0  0  0  0  0  0  0
  140.9700   81.2250  221.8810 O   0  0  0  0  0  0  0  0  0  0  0  0
  141.9280   78.9770  220.9010 C   0  0  0  0  0  0  0  0  0  0  0  0
  141.8140   77.6160  221.0830 C   0  0  0  0  0  0  0  0  0  0  0  0
  141.9610   76.7710  220.0070 C   0  0  0  0  0  0  0  0  0  0  0  0
  142.2230   77.2380  218.7310 C   0  0  0  0  0  0  0  0  0  0  0  0
  142.3580   76.2270  217.6600 C   0  0  0  0  0  0  0  0  0  0  0  0
  143.7090   75.5270  217.7360 C   0  0  0  0  0  0  0  0  0  0  0  0
  143.5900   74.4150  218.6050 N   0  0  0  0  0  0  0  0  0  0  0  0
  143.9970   74.6260  219.9510 C   0  0  0  0  0  0  0  0  0  0  0  0
  143.8000   73.2120  220.5120 C   0  0  0  0  0  0  0  0  0  0  0  0
  142.4830   72.8390  219.8310 C   0  0  1  0  0  0  0  0  0  0  0  0
  141.4080   73.0410  220.8380 C   0  0  0  0  0  0  0  0  0  0  0  0
  141.2250   72.1630  221.8450 N   0  0  0  0  0  0  0  0  0  0  0  0
  140.2610   72.2980  222.7870 C   0  0  0  0  0  0  0  0  0  0  0  0
  140.0960   71.3520  223.8430 N   0  0  0  0  0  0  0  0  0  0  0  0
  139.1120   70.3110  223.6760 C   0  0  0  0  0  0  0  0  0  0  0  0
  139.5590   69.0200  224.3130 C   0  0  0  0  0  0  0  0  0  0  0  0
  140.0110   69.2510  225.7030 C   0  0  0  0  0  0  0  0  0  0  0  0
  139.7970   68.3050  226.6820 C   0  0  0  0  0  0  0  0  0  0  0  0
  140.2090   68.5020  227.9810 C   0  0  0  0  0  0  0  0  0  0  0  0
  140.8570   69.7030  228.2700 C   0  0  0  0  0  0  0  0  0  0  0  0
  141.0760   70.6550  227.2970 C   0  0  0  0  0  0  0  0  0  0  0  0
  140.6530   70.4320  226.0060 C   0  0  0  0  0  0  0  0  0  0  0  0
  140.9210   71.4980  225.0060 C   0  0  0  0  0  0  0  0  0  0  0  0
  139.4520   73.3900  222.6760 N   0  0  0  0  0  0  0  0  0  0  0  0
  139.5940   74.2930  221.6910 C   0  0  0  0  0  0  0  0  0  0  0  0
  138.7090   75.4060  221.6420 N   0  0  0  0  0  0  0  0  0  0  0  0
  138.0140   75.6270  220.3780 C   0  0  0  0  0  0  0  0  0  0  0  0
  138.6740   76.8870  219.8020 C   0  0  0  0  0  0  0  0  0  0  0  0
  138.4620   77.9520  220.8240 C   0  0  0  0  0  0  0  0  0  0  0  0
  138.3660   79.2520  220.3240 C   0  0  0  0  0  0  0  0  0  0  0  0
  138.1690   80.2830  221.2120 C   0  0  0  0  0  0  0  0  0  0  0  0
  138.0680   80.0380  222.5780 C   0  0  0  0  0  0  0  0  0  0  0  0
  138.1650   78.7490  223.0560 C   0  0  0  0  0  0  0  0  0  0  0  0
  138.3650   77.6820  222.1740 C   0  0  0  0  0  0  0  0  0  0  0  0
  138.4660   76.2970  222.7250 C   0  0  0  0  0  0  0  0  0  0  0  0
  140.5770   74.0890  220.7920 N   0  0  0  0  0  0  0  0  0  0  0  0
  142.3520   73.7160  218.6170 C   0  0  0  0  0  0  0  0  0  0  0  0
  142.3370   78.5940  218.5450 C   0  0  0  0  0  0  0  0  0  0  0  0
  142.1910   79.4680  219.6290 C   0  0  0  0  0  0  0  0  0  0  0  0
  144.0100   79.9620  222.3400 H   0  0  0  0  0  0  0  0  0  0  0  0
  143.3900   79.9860  223.8920 H   0  0  0  0  0  0  0  0  0  0  0  0
  141.6066   77.2072  222.0829 H   0  0  0  0  0  0  0  0  0  0  0  0
  141.8670   75.6867  220.1667 H   0  0  0  0  0  0  0  0  0  0  0  0
  141.5588   75.4790  217.7688 H   0  0  0  0  0  0  0  0  0  0  0  0
  142.2811   76.7350  216.6873 H   0  0  0  0  0  0  0  0  0  0  0  0
  144.0066   75.1847  216.7338 H   0  0  0  0  0  0  0  0  0  0  0  0
  144.4730   76.2218  218.1149 H   0  0  0  0  0  0  0  0  0  0  0  0
  145.0469   74.9481  220.0146 H   0  0  0  0  0  0  0  0  0  0  0  0
  143.4479   75.4168  220.4831 H   0  0  0  0  0  0  0  0  0  0  0  0
  144.6177   72.5379  220.2170 H   0  0  0  0  0  0  0  0  0  0  0  0
  143.7895   73.1458  221.6100 H   0  0  0  0  0  0  0  0  0  0  0  0
  142.4274   71.7949  219.4893 H   0  0  0  0  0  0  0  0  0  0  0  0
  138.1693   70.6322  224.1430 H   0  0  0  0  0  0  0  0  0  0  0  0
  138.9757   70.1349  222.5988 H   0  0  0  0  0  0  0  0  0  0  0  0
  138.7182   68.3108  224.3200 H   0  0  0  0  0  0  0  0  0  0  0  0
  140.3986   68.6112  223.7317 H   0  0  0  0  0  0  0  0  0  0  0  0
  139.2838   67.3683  226.4189 H   0  0  0  0  0  0  0  0  0  0  0  0
  140.0344   67.7438  228.7586 H   0  0  0  0  0  0  0  0  0  0  0  0
  141.2009   69.8948  229.2971 H   0  0  0  0  0  0  0  0  0  0  0  0
  141.5893   71.5937  227.5525 H   0  0  0  0  0  0  0  0  0  0  0  0
  140.7197   72.4769  225.4655 H   0  0  0  0  0  0  0  0  0  0  0  0
  141.9726   71.4188  224.6932 H   0  0  0  0  0  0  0  0  0  0  0  0
  138.1518   74.7704  219.7019 H   0  0  0  0  0  0  0  0  0  0  0  0
  136.9278   75.7419  220.5084 H   0  0  0  0  0  0  0  0  0  0  0  0
  139.7489   76.7181  219.6404 H   0  0  0  0  0  0  0  0  0  0  0  0
  138.2428   77.1644  218.8288 H   0  0  0  0  0  0  0  0  0  0  0  0
  138.4461   79.4469  219.2444 H   0  0  0  0  0  0  0  0  0  0  0  0
  138.0903   81.3144  220.8379 H   0  0  0  0  0  0  0  0  0  0  0  0
  137.9107   80.8732  223.2764 H   0  0  0  0  0  0  0  0  0  0  0  0
  138.0847   78.5584  224.1364 H   0  0  0  0  0  0  0  0  0  0  0  0
  139.2951   76.2422  223.4459 H   0  0  0  0  0  0  0  0  0  0  0  0
  137.5338   76.0237  223.2411 H   0  0  0  0  0  0  0  0  0  0  0  0
  142.2264   73.1148  217.7044 H   0  0  0  0  0  0  0  0  0  0  0  0
  141.4751   74.3793  218.6488 H   0  0  0  0  0  0  0  0  0  0  0  0
  142.5436   78.9945  217.5415 H   0  0  0  0  0  0  0  0  0  0  0  0
  142.2854   80.5526  219.4717 H   0  0  0  0  0  0  0  0  0  0  0  0
  1  2  1  0
  2  3  2  0
  2  4  2  0
  2  5  1  0
  5  6  2  0
  6  7  1  0
  7  8  2  0
  8  9  1  0
  9 10  1  0
 10 11  1  0
 11 12  1  0
 12 13  1  0
 13 14  1  0
 14 15  1  0
 15 16  2  0
 16 17  1  0
 17 18  1  0
 18 19  1  0
 19 20  1  0
 20 21  1  0
 21 22  2  0
 22 23  1  0
 23 24  2  0
 24 25  1  0
 25 26  2  0
 26 27  1  0
 17 28  2  0
 28 29  1  0
 29 30  1  0
 30 31  1  0
 31 32  1  0
 32 33  1  0
 33 34  2  0
 34 35  1  0
 35 36  2  0
 36 37  1  0
 37 38  2  0
 38 39  1  0
 29 40  2  0
 14 41  1  0
  8 42  1  0
 42 43  2  0
 43  5  1  0
 41 11  1  0
 40 15  1  0
 27 18  1  0
 39 30  1  0
 26 21  1  0
 38 33  1  0
  1 44  1  0
  1 45  1  0
  6 46  1  0
  7 47  1  0
  9 48  1  0
  9 49  1  0
 10 50  1  0
 10 51  1  0
 12 52  1  0
 12 53  1  0
 13 54  1  0
 13 55  1  0
 14 56  1  6
 19 57  1  0
 19 58  1  0
 20 59  1  0
 20 60  1  0
 22 61  1  0
 23 62  1  0
 24 63  1  0
 25 64  1  0
 27 65  1  0
 27 66  1  0
 31 67  1  0
 31 68  1  0
 32 69  1  0
 32 70  1  0
 34 71  1  0
 35 72  1  0
 36 73  1  0
 37 74  1  0
 39 75  1  0
 39 76  1  0
 41 77  1  0
 41 78  1  0
 42 79  1  0
 43 80  1  0
M  END
>  <smiles>  (55) 
NS(=O)(=O)c1ccc(CCN2CCC(c3nc(N4CCc5ccccc5C4)nc(N4CCc5ccccc5C4)n3)C2)cc1

>  <score_type>  (55) 
oracle

>  <origin>  (55) 
autodockgpu

>  <m_score__min__energy>  (55) 
-10.83

>  <m_primary>  (55) 
energy

>  <rmsd>  (55) 
5.741659955791625

>  <m_score__min__rmsd>  (55) 
5.741659955791625

>  <meeko>  (55) 
{"free_energy": -9.76, "intermolecular_energy": -12.15, "internal_energy": -3.55, "cluster_size": 4, "cluster_id": 11, "rank_in_cluster": 1}

>  <energy>  (55) 
-10.24

>  <cluster_rmsd>  (55) 
0.93

>  <cluster>  (55) 
2

$$$$

     RDKit          3D

 80 86  0  0  1  0  0  0  0  0999 V2000
  143.2880   80.3890  217.9200 N   0  0  0  0  0  0  0  0  0  0  0  0
  141.7520   79.6160  217.6420 S   0  0  0  0  0  0  0  0  0  0  0  0
  141.0070   79.6290  218.9600 O   0  0  0  0  0  0  0  0  0  0  0  0
  140.9880   80.3430  216.5750 O   0  0  0  0  0  0  0  0  0  0  0  0
  141.9770   77.9680  217.1330 C   0  0  0  0  0  0  0  0  0  0  0  0
  143.2680   77.4970  217.0300 C   0  0  0  0  0  0  0  0  0  0  0  0
  143.4890   76.1990  216.6300 C   0  0  0  0  0  0  0  0  0  0  0  0
  142.4530   75.3340  216.3220 C   0  0  0  0  0  0  0  0  0  0  0  0
  142.8220   73.9640  215.9060 C   0  0  0  0  0  0  0  0  0  0  0  0
  141.5870   73.0820  215.7700 C   0  0  0  0  0  0  0  0  0  0  0  0
  141.5030   72.2480  216.9110 N   0  0  0  0  0  0  0  0  0  0  0  0
  142.5670   72.3580  217.8470 C   0  0  0  0  0  0  0  0  0  0  0  0
  142.1560   71.2700  218.8460 C   0  0  0  0  0  0  0  0  0  0  0  0
  140.6470   71.5160  218.8960 C   0  0  1  0  0  0  0  0  0  0  0  0
  140.3820   72.3000  220.1330 C   0  0  0  0  0  0  0  0  0  0  0  0
  140.1960   71.6850  221.3180 N   0  0  0  0  0  0  0  0  0  0  0  0
  139.9490   72.3500  222.4730 C   0  0  0  0  0  0  0  0  0  0  0  0
  139.7600   71.6700  223.7130 N   0  0  0  0  0  0  0  0  0  0  0  0
  138.6040   70.8190  223.8520 C   0  0  0  0  0  0  0  0  0  0  0  0
  138.9050   69.6120  224.7040 C   0  0  0  0  0  0  0  0  0  0  0  0
  139.5550   70.0140  225.9710 C   0  0  0  0  0  0  0  0  0  0  0  0
  139.3080   69.3300  227.1410 C   0  0  0  0  0  0  0  0  0  0  0  0
  139.9030   69.6890  228.3290 C   0  0  0  0  0  0  0  0  0  0  0  0
  140.7700   70.7810  228.3050 C   0  0  0  0  0  0  0  0  0  0  0  0
  141.0240   71.4730  227.1390 C   0  0  0  0  0  0  0  0  0  0  0  0
  140.4160   71.0910  225.9650 C   0  0  0  0  0  0  0  0  0  0  0  0
  140.7320   71.8780  224.7450 C   0  0  0  0  0  0  0  0  0  0  0  0
  139.8930   73.7100  222.3900 N   0  0  0  0  0  0  0  0  0  0  0  0
  140.0720   74.3690  221.2320 C   0  0  0  0  0  0  0  0  0  0  0  0
  139.9970   75.7890  221.2270 N   0  0  0  0  0  0  0  0  0  0  0  0
  140.5010   76.4610  220.0330 C   0  0  0  0  0  0  0  0  0  0  0  0
  141.8030   77.1270  220.4990 C   0  0  0  0  0  0  0  0  0  0  0  0
  141.4080   78.0420  221.6090 C   0  0  0  0  0  0  0  0  0  0  0  0
  142.2040   79.1800  221.7580 C   0  0  0  0  0  0  0  0  0  0  0  0
  141.8950   80.0670  222.7620 C   0  0  0  0  0  0  0  0  0  0  0  0
  140.8170   79.8380  223.6110 C   0  0  0  0  0  0  0  0  0  0  0  0
  140.0420   78.7090  223.4490 C   0  0  0  0  0  0  0  0  0  0  0  0
  140.3330   77.7910  222.4360 C   0  0  0  0  0  0  0  0  0  0  0  0
  139.4730   76.5780  222.2890 C   0  0  0  0  0  0  0  0  0  0  0  0
  140.3130   73.6360  220.1260 N   0  0  0  0  0  0  0  0  0  0  0  0
  140.2750   72.2340  217.6290 C   0  0  0  0  0  0  0  0  0  0  0  0
  141.1650   75.8000  216.4240 C   0  0  0  0  0  0  0  0  0  0  0  0
  140.9220   77.1180  216.8290 C   0  0  0  0  0  0  0  0  0  0  0  0
  143.4540   81.0180  217.0790 H   0  0  0  0  0  0  0  0  0  0  0  0
  144.0440   79.6530  217.8400 H   0  0  0  0  0  0  0  0  0  0  0  0
  144.1172   78.1550  217.2662 H   0  0  0  0  0  0  0  0  0  0  0  0
  144.5246   75.8363  216.5523 H   0  0  0  0  0  0  0  0  0  0  0  0
  143.3396   74.0098  214.9365 H   0  0  0  0  0  0  0  0  0  0  0  0
  143.4790   73.5301  216.6741 H   0  0  0  0  0  0  0  0  0  0  0  0
  140.6872   73.7112  215.7032 H   0  0  0  0  0  0  0  0  0  0  0  0
  141.6599   72.4690  214.8595 H   0  0  0  0  0  0  0  0  0  0  0  0
  143.5413   72.1410  217.3849 H   0  0  0  0  0  0  0  0  0  0  0  0
  142.7002   73.3597  218.2816 H   0  0  0  0  0  0  0  0  0  0  0  0
  142.3938   70.2625  218.4739 H   0  0  0  0  0  0  0  0  0  0  0  0
  142.6666   71.3162  219.8192 H   0  0  0  0  0  0  0  0  0  0  0  0
  140.0386   70.6009  218.9443 H   0  0  0  0  0  0  0  0  0  0  0  0
  137.7915   71.3936  224.3207 H   0  0  0  0  0  0  0  0  0  0  0  0
  138.3102   70.4700  222.8510 H   0  0  0  0  0  0  0  0  0  0  0  0
  137.9654   69.0871  224.9311 H   0  0  0  0  0  0  0  0  0  0  0  0
  139.5881   68.9506  224.1509 H   0  0  0  0  0  0  0  0  0  0  0  0
  138.6170   68.4743  227.1253 H   0  0  0  0  0  0  0  0  0  0  0  0
  139.7029   69.1372  229.2593 H   0  0  0  0  0  0  0  0  0  0  0  0
  141.2622   71.0975  229.2364 H   0  0  0  0  0  0  0  0  0  0  0  0
  141.7129   72.3306  227.1476 H   0  0  0  0  0  0  0  0  0  0  0  0
  140.7521   72.9465  225.0055 H   0  0  0  0  0  0  0  0  0  0  0  0
  141.7100   71.5457  224.3666 H   0  0  0  0  0  0  0  0  0  0  0  0
  140.6993   75.7350  219.2308 H   0  0  0  0  0  0  0  0  0  0  0  0
  139.7817   77.1836  219.6202 H   0  0  0  0  0  0  0  0  0  0  0  0
  142.5144   76.3696  220.8599 H   0  0  0  0  0  0  0  0  0  0  0  0
  142.2995   77.6690  219.6807 H   0  0  0  0  0  0  0  0  0  0  0  0
  143.0574   79.3622  221.0883 H   0  0  0  0  0  0  0  0  0  0  0  0
  142.5086   80.9701  222.8958 H   0  0  0  0  0  0  0  0  0  0  0  0
  140.5832   80.5565  224.4104 H   0  0  0  0  0  0  0  0  0  0  0  0
  139.1898   78.5298  224.1210 H   0  0  0  0  0  0  0  0  0  0  0  0
  139.4833   75.9985  223.2239 H   0  0  0  0  0  0  0  0  0  0  0  0
  138.4359   76.8713  222.0692 H   0  0  0  0  0  0  0  0  0  0  0  0
  139.4973   71.6870  217.0758 H   0  0  0  0  0  0  0  0  0  0  0  0
  139.8556   73.2364  217.8000 H   0  0  0  0  0  0  0  0  0  0  0  0
  140.3213   75.1353  216.1866 H   0  0  0  0  0  0  0  0  0  0  0  0
  139.8872   77.4830  216.9070 H   0  0  0  0  0  0  0  0  0  0  0  0
  1  2  1  0
  2  3  2  0
  2  4  2  0
  2  5  1  0
  5  6  2  0
  6  7  1  0
  7  8  2  0
  8  9  1  0
  9 10  1  0
 10 11  1  0
 11 12  1  0
 12 13  1  0
 13 14  1  0
 14 15  1  0
 15 16  2  0
 16 17  1  0
 17 18  1  0
 18 19  1  0
 19 20  1  0
 20 21  1  0
 21 22  2  0
 22 23  1  0
 23 24  2  0
 24 25  1  0
 25 26  2  0
 26 27  1  0
 17 28  2  0
 28 29  1  0
 29 30  1  0
 30 31  1  0
 31 32  1  0
 32 33  1  0
 33 34  2  0
 34 35  1  0
 35 36  2  0
 36 37  1  0
 37 38  2  0
 38 39  1  0
 29 40  2  0
 14 41  1  0
  8 42  1  0
 42 43  2  0
 43  5  1  0
 41 11  1  0
 40 15  1  0
 27 18  1  0
 39 30  1  0
 26 21  1  0
 38 33  1  0
  1 44  1  0
  1 45  1  0
  6 46  1  0
  7 47  1  0
  9 48  1  0
  9 49  1  0
 10 50  1  0
 10 51  1  0
 12 52  1  0
 12 53  1  0
 13 54  1  0
 13 55  1  0
 14 56  1  1
 19 57  1  0
 19 58  1  0
 20 59  1  0
 20 60  1  0
 22 61  1  0
 23 62  1  0
 24 63  1  0
 25 64  1  0
 27 65  1  0
 27 66  1  0
 31 67  1  0
 31 68  1  0
 32 69  1  0
 32 70  1  0
 34 71  1  0
 35 72  1  0
 36 73  1  0
 37 74  1  0
 39 75  1  0
 39 76  1  0
 41 77  1  0
 41 78  1  0
 42 79  1  0
 43 80  1  0
M  END
>  <smiles>  (56) 
NS(=O)(=O)c1ccc(CCN2CCC(c3nc(N4CCc5ccccc5C4)nc(N4CCc5ccccc5C4)n3)C2)cc1

>  <score_type>  (56) 
oracle

>  <origin>  (56) 
autodockgpu

>  <m_score__min__energy>  (56) 
-10.83

>  <m_primary>  (56) 
energy

>  <rmsd>  (56) 
7.3857531122480164

>  <m_score__min__rmsd>  (56) 
7.3857531122480164

>  <meeko>  (56) 
{"free_energy": -9.47, "intermolecular_energy": -11.85, "internal_energy": -2.78, "cluster_size": 5, "cluster_id": 6, "rank_in_cluster": 5}

>  <energy>  (56) 
-10.18

>  <cluster_rmsd>  (56) 
1.19

>  <cluster>  (56) 
2

$$$$

     RDKit          3D

 80 86  0  0  1  0  0  0  0  0999 V2000
  145.0450   71.8060  220.4620 N   0  0  0  0  0  0  0  0  0  0  0  0
  145.4300   73.4240  219.9440 S   0  0  0  0  0  0  0  0  0  0  0  0
  146.5610   73.9110  220.8260 O   0  0  0  0  0  0  0  0  0  0  0  0
  145.8250   73.4290  218.4970 O   0  0  0  0  0  0  0  0  0  0  0  0
  144.0600   74.4760  220.1460 C   0  0  0  0  0  0  0  0  0  0  0  0
  142.9680   73.9860  220.8290 C   0  0  0  0  0  0  0  0  0  0  0  0
  141.8630   74.7860  221.0100 C   0  0  0  0  0  0  0  0  0  0  0  0
  141.8020   76.0820  220.5260 C   0  0  0  0  0  0  0  0  0  0  0  0
  140.5590   76.8390  220.7860 C   0  0  0  0  0  0  0  0  0  0  0  0
  139.7450   77.0100  219.5090 C   0  0  0  0  0  0  0  0  0  0  0  0
  139.2290   75.7470  219.1330 N   0  0  0  0  0  0  0  0  0  0  0  0
  140.0360   74.9780  218.2510 C   0  0  0  0  0  0  0  0  0  0  0  0
  139.1140   73.7720  218.0310 C   0  0  0  0  0  0  0  0  0  0  0  0
  138.5890   73.5790  219.4550 C   0  0  1  0  0  0  0  0  0  0  0  0
  139.3720   72.4650  220.0530 C   0  0  0  0  0  0  0  0  0  0  0  0
  139.2630   72.1630  221.3620 N   0  0  0  0  0  0  0  0  0  0  0  0
  139.9540   71.1610  221.9570 C   0  0  0  0  0  0  0  0  0  0  0  0
  139.8130   70.8640  223.3460 N   0  0  0  0  0  0  0  0  0  0  0  0
  138.7860   69.9320  223.7410 C   0  0  0  0  0  0  0  0  0  0  0  0
  139.2210   69.0930  224.9150 C   0  0  0  0  0  0  0  0  0  0  0  0
  139.7550   69.9480  225.9990 C   0  0  0  0  0  0  0  0  0  0  0  0
  139.5600   69.6160  227.3220 C   0  0  0  0  0  0  0  0  0  0  0  0
  140.0490   70.3990  228.3440 C   0  0  0  0  0  0  0  0  0  0  0  0
  140.7520   71.5490  227.9880 C   0  0  0  0  0  0  0  0  0  0  0  0
  140.9520   71.8890  226.6660 C   0  0  0  0  0  0  0  0  0  0  0  0
  140.4520   71.0880  225.6640 C   0  0  0  0  0  0  0  0  0  0  0  0
  140.7030   71.5130  224.2620 C   0  0  0  0  0  0  0  0  0  0  0  0
  140.7950   70.4460  221.1580 N   0  0  0  0  0  0  0  0  0  0  0  0
  140.9390   70.7080  219.8470 C   0  0  0  0  0  0  0  0  0  0  0  0
  141.8380   69.9170  219.0790 N   0  0  0  0  0  0  0  0  0  0  0  0
  141.3050   68.6700  218.5390 C   0  0  0  0  0  0  0  0  0  0  0  0
  141.9940   67.5780  219.3680 C   0  0  0  0  0  0  0  0  0  0  0  0
  143.4560   67.7750  219.1540 C   0  0  0  0  0  0  0  0  0  0  0  0
  144.2350   66.6180  219.2300 C   0  0  0  0  0  0  0  0  0  0  0  0
  145.5920   66.7280  219.0400 C   0  0  0  0  0  0  0  0  0  0  0  0
  146.1780   67.9630  218.7790 C   0  0  0  0  0  0  0  0  0  0  0  0
  145.3950   69.0950  218.7070 C   0  0  0  0  0  0  0  0  0  0  0  0
  144.0120   69.0110  218.8960 C   0  0  0  0  0  0  0  0  0  0  0  0
  143.1940   70.2580  218.8110 C   0  0  0  0  0  0  0  0  0  0  0  0
  140.2160   71.7210  219.3290 N   0  0  0  0  0  0  0  0  0  0  0  0
  138.7570   74.8920  220.1670 C   0  0  0  0  0  0  0  0  0  0  0  0
  142.8890   76.5740  219.8440 C   0  0  0  0  0  0  0  0  0  0  0  0
  144.0210   75.7730  219.6520 C   0  0  0  0  0  0  0  0  0  0  0  0
  144.8660   71.8690  221.5080 H   0  0  0  0  0  0  0  0  0  0  0  0
  145.9250   71.2210  220.3890 H   0  0  0  0  0  0  0  0  0  0  0  0
  142.9795   72.9608  221.2274 H   0  0  0  0  0  0  0  0  0  0  0  0
  140.9988   74.3822  221.5578 H   0  0  0  0  0  0  0  0  0  0  0  0
  139.9551   76.2949  221.5271 H   0  0  0  0  0  0  0  0  0  0  0  0
  140.8291   77.8357  221.1649 H   0  0  0  0  0  0  0  0  0  0  0  0
  138.9164   77.7110  219.6882 H   0  0  0  0  0  0  0  0  0  0  0  0
  140.3820   77.4109  218.7068 H   0  0  0  0  0  0  0  0  0  0  0  0
  140.2391   75.5135  217.3118 H   0  0  0  0  0  0  0  0  0  0  0  0
  141.0373   74.7322  218.6343 H   0  0  0  0  0  0  0  0  0  0  0  0
  138.3030   74.0012  217.3240 H   0  0  0  0  0  0  0  0  0  0  0  0
  139.6014   72.8889  217.5922 H   0  0  0  0  0  0  0  0  0  0  0  0
  137.5248   73.3072  219.5146 H   0  0  0  0  0  0  0  0  0  0  0  0
  137.8819   70.4935  224.0189 H   0  0  0  0  0  0  0  0  0  0  0  0
  138.5858   69.2604  222.8931 H   0  0  0  0  0  0  0  0  0  0  0  0
  138.3575   68.5266  225.2939 H   0  0  0  0  0  0  0  0  0  0  0  0
  140.0129   68.4050  224.5842 H   0  0  0  0  0  0  0  0  0  0  0  0
  138.9994   68.7022  227.5682 H   0  0  0  0  0  0  0  0  0  0  0  0
  139.8913   70.1280  229.3984 H   0  0  0  0  0  0  0  0  0  0  0  0
  141.1559   72.1992  228.7780 H   0  0  0  0  0  0  0  0  0  0  0  0
  141.5117   72.8013  226.4121 H   0  0  0  0  0  0  0  0  0  0  0  0
  140.5600   72.6012  224.1880 H   0  0  0  0  0  0  0  0  0  0  0  0
  141.7332   71.2328  223.9971 H   0  0  0  0  0  0  0  0  0  0  0  0
  140.2131   68.6252  218.6648 H   0  0  0  0  0  0  0  0  0  0  0  0
  141.4928   68.5627  217.4605 H   0  0  0  0  0  0  0  0  0  0  0  0
  141.7434   67.6891  220.4333 H   0  0  0  0  0  0  0  0  0  0  0  0
  141.6702   66.5714  219.0647 H   0  0  0  0  0  0  0  0  0  0  0  0
  143.7732   65.6414  219.4371 H   0  0  0  0  0  0  0  0  0  0  0  0
  146.2227   65.8284  219.0949 H   0  0  0  0  0  0  0  0  0  0  0  0
  147.2655   68.0357  218.6303 H   0  0  0  0  0  0  0  0  0  0  0  0
  145.8606   70.0698  218.4997 H   0  0  0  0  0  0  0  0  0  0  0  0
  143.5486   70.9878  219.5537 H   0  0  0  0  0  0  0  0  0  0  0  0
  143.2837   70.7049  217.8099 H   0  0  0  0  0  0  0  0  0  0  0  0
  137.7988   75.2498  220.5717 H   0  0  0  0  0  0  0  0  0  0  0  0
  139.4337   74.8371  221.0325 H   0  0  0  0  0  0  0  0  0  0  0  0
  142.8695   77.6000  219.4479 H   0  0  0  0  0  0  0  0  0  0  0  0
  144.8868   76.1746  219.1051 H   0  0  0  0  0  0  0  0  0  0  0  0
  1  2  1  0
  2  3  2  0
  2  4  2  0
  2  5  1  0
  5  6  2  0
  6  7  1  0
  7  8  2  0
  8  9  1  0
  9 10  1  0
 10 11  1  0
 11 12  1  0
 12 13  1  0
 13 14  1  0
 14 15  1  0
 15 16  2  0
 16 17  1  0
 17 18  1  0
 18 19  1  0
 19 20  1  0
 20 21  1  0
 21 22  2  0
 22 23  1  0
 23 24  2  0
 24 25  1  0
 25 26  2  0
 26 27  1  0
 17 28  2  0
 28 29  1  0
 29 30  1  0
 30 31  1  0
 31 32  1  0
 32 33  1  0
 33 34  2  0
 34 35  1  0
 35 36  2  0
 36 37  1  0
 37 38  2  0
 38 39  1  0
 29 40  2  0
 14 41  1  0
  8 42  1  0
 42 43  2  0
 43  5  1  0
 41 11  1  0
 40 15  1  0
 27 18  1  0
 39 30  1  0
 26 21  1  0
 38 33  1  0
  1 44  1  0
  1 45  1  0
  6 46  1  0
  7 47  1  0
  9 48  1  0
  9 49  1  0
 10 50  1  0
 10 51  1  0
 12 52  1  0
 12 53  1  0
 13 54  1  0
 13 55  1  0
 14 56  1  6
 19 57  1  0
 19 58  1  0
 20 59  1  0
 20 60  1  0
 22 61  1  0
 23 62  1  0
 24 63  1  0
 25 64  1  0
 27 65  1  0
 27 66  1  0
 31 67  1  0
 31 68  1  0
 32 69  1  0
 32 70  1  0
 34 71  1  0
 35 72  1  0
 36 73  1  0
 37 74  1  0
 39 75  1  0
 39 76  1  0
 41 77  1  0
 41 78  1  0
 42 79  1  0
 43 80  1  0
M  END
>  <smiles>  (57) 
NS(=O)(=O)c1ccc(CCN2CCC(c3nc(N4CCc5ccccc5C4)nc(N4CCc5ccccc5C4)n3)C2)cc1

>  <score_type>  (57) 
oracle

>  <origin>  (57) 
autodockgpu

>  <m_score__min__energy>  (57) 
-10.83

>  <m_primary>  (57) 
energy

>  <rmsd>  (57) 
5.62951586749576

>  <m_score__min__rmsd>  (57) 
5.62951586749576

>  <meeko>  (57) 
{"free_energy": -10.19, "intermolecular_energy": -12.57, "internal_energy": -2.75, "cluster_size": 3, "cluster_id": 1, "rank_in_cluster": 2}

>  <energy>  (57) 
-10.13

>  <cluster_rmsd>  (57) 
1.52

>  <cluster>  (57) 
2

$$$$

     RDKit          3D

 80 86  0  0  1  0  0  0  0  0999 V2000
  144.4330   72.1240  221.1690 N   0  0  0  0  0  0  0  0  0  0  0  0
  145.1610   73.2390  220.0450 S   0  0  0  0  0  0  0  0  0  0  0  0
  145.5850   74.4540  220.8430 O   0  0  0  0  0  0  0  0  0  0  0  0
  146.3320   72.5990  219.3610 O   0  0  0  0  0  0  0  0  0  0  0  0
  144.0130   73.7270  218.8340 C   0  0  0  0  0  0  0  0  0  0  0  0
  142.7890   74.1970  219.2590 C   0  0  0  0  0  0  0  0  0  0  0  0
  141.8520   74.5930  218.3320 C   0  0  0  0  0  0  0  0  0  0  0  0
  142.0920   74.5370  216.9700 C   0  0  0  0  0  0  0  0  0  0  0  0
  141.0050   74.9930  216.0770 C   0  0  0  0  0  0  0  0  0  0  0  0
  140.2360   73.8080  215.5040 C   0  0  0  0  0  0  0  0  0  0  0  0
  139.3990   73.2820  216.5180 N   0  0  0  0  0  0  0  0  0  0  0  0
  139.9100   72.1650  217.2330 C   0  0  0  0  0  0  0  0  0  0  0  0
  138.7120   71.8600  218.1410 C   0  0  0  0  0  0  0  0  0  0  0  0
  138.2990   73.2840  218.5180 C   0  0  1  0  0  0  0  0  0  0  0  0
  138.8510   73.5430  219.8750 C   0  0  0  0  0  0  0  0  0  0  0  0
  139.0410   74.8020  220.3190 N   0  0  0  0  0  0  0  0  0  0  0  0
  139.5420   75.0940  221.5430 C   0  0  0  0  0  0  0  0  0  0  0  0
  139.7280   76.4380  221.9850 N   0  0  0  0  0  0  0  0  0  0  0  0
  138.6060   77.3410  221.9070 C   0  0  0  0  0  0  0  0  0  0  0  0
  138.6010   78.3180  223.0550 C   0  0  0  0  0  0  0  0  0  0  0  0
  139.9260   78.9610  223.2010 C   0  0  0  0  0  0  0  0  0  0  0  0
  140.0350   80.2730  223.6080 C   0  0  0  0  0  0  0  0  0  0  0  0
  141.2580   80.8880  223.7490 C   0  0  0  0  0  0  0  0  0  0  0  0
  142.3920   80.1290  223.4620 C   0  0  0  0  0  0  0  0  0  0  0  0
  142.2930   78.8150  223.0540 C   0  0  0  0  0  0  0  0  0  0  0  0
  141.0570   78.2250  222.9220 C   0  0  0  0  0  0  0  0  0  0  0  0
  141.0220   76.8060  222.4790 C   0  0  0  0  0  0  0  0  0  0  0  0
  139.8600   74.0330  222.3380 N   0  0  0  0  0  0  0  0  0  0  0  0
  139.6890   72.7600  221.9410 C   0  0  0  0  0  0  0  0  0  0  0  0
  140.0460   71.7070  222.8270 N   0  0  0  0  0  0  0  0  0  0  0  0
  139.6800   70.3560  222.4110 C   0  0  0  0  0  0  0  0  0  0  0  0
  138.5400   69.9670  223.3620 C   0  0  0  0  0  0  0  0  0  0  0  0
  139.1140   70.0610  224.7350 C   0  0  0  0  0  0  0  0  0  0  0  0
  138.5630   69.1900  225.6760 C   0  0  0  0  0  0  0  0  0  0  0  0
  139.0470   69.2230  226.9630 C   0  0  0  0  0  0  0  0  0  0  0  0
  140.0630   70.1040  227.3200 C   0  0  0  0  0  0  0  0  0  0  0  0
  140.5970   70.9580  226.3780 C   0  0  0  0  0  0  0  0  0  0  0  0
  140.1220   70.9450  225.0630 C   0  0  0  0  0  0  0  0  0  0  0  0
  140.7230   71.8830  224.0670 C   0  0  0  0  0  0  0  0  0  0  0  0
  139.1850   72.5510  220.7080 N   0  0  0  0  0  0  0  0  0  0  0  0
  138.8440   74.1960  217.4550 C   0  0  0  0  0  0  0  0  0  0  0  0
  143.3110   74.0690  216.5420 C   0  0  0  0  0  0  0  0  0  0  0  0
  144.2750   73.6630  217.4720 C   0  0  0  0  0  0  0  0  0  0  0  0
  145.0970   72.0700  221.9980 H   0  0  0  0  0  0  0  0  0  0  0  0
  144.4770   71.1550  220.7440 H   0  0  0  0  0  0  0  0  0  0  0  0
  142.5622   74.2553  220.3338 H   0  0  0  0  0  0  0  0  0  0  0  0
  140.8796   74.9666  218.6854 H   0  0  0  0  0  0  0  0  0  0  0  0
  140.3127   75.6288  216.6484 H   0  0  0  0  0  0  0  0  0  0  0  0
  141.4491   75.5584  215.2445 H   0  0  0  0  0  0  0  0  0  0  0  0
  139.6236   74.1399  214.6526 H   0  0  0  0  0  0  0  0  0  0  0  0
  140.9382   73.0356  215.1570 H   0  0  0  0  0  0  0  0  0  0  0  0
  140.1403   71.3226  216.5641 H   0  0  0  0  0  0  0  0  0  0  0  0
  140.8576   72.3468  217.7613 H   0  0  0  0  0  0  0  0  0  0  0  0
  137.9128   71.3324  217.5998 H   0  0  0  0  0  0  0  0  0  0  0  0
  138.9311   71.1991  218.9926 H   0  0  0  0  0  0  0  0  0  0  0  0
  137.2120   73.4463  218.5630 H   0  0  0  0  0  0  0  0  0  0  0  0
  138.6630   77.9007  220.9618 H   0  0  0  0  0  0  0  0  0  0  0  0
  137.6815   76.7470  221.9559 H   0  0  0  0  0  0  0  0  0  0  0  0
  137.8427   79.0923  222.8668 H   0  0  0  0  0  0  0  0  0  0  0  0
  138.3685   77.7731  223.9818 H   0  0  0  0  0  0  0  0  0  0  0  0
  139.1203   80.8438  223.8259 H   0  0  0  0  0  0  0  0  0  0  0  0
  141.3377   81.9356  224.0748 H   0  0  0  0  0  0  0  0  0  0  0  0
  143.3866   80.5878  223.5631 H   0  0  0  0  0  0  0  0  0  0  0  0
  143.2034   78.2381  222.8339 H   0  0  0  0  0  0  0  0  0  0  0  0
  141.7631   76.6638  221.6786 H   0  0  0  0  0  0  0  0  0  0  0  0
  141.2523   76.1697  223.3462 H   0  0  0  0  0  0  0  0  0  0  0  0
  139.3363   70.3489  221.3661 H   0  0  0  0  0  0  0  0  0  0  0  0
  140.5269   69.6557  222.4588 H   0  0  0  0  0  0  0  0  0  0  0  0
  137.6937   70.6610  223.2512 H   0  0  0  0  0  0  0  0  0  0  0  0
  138.1581   68.9577  223.1485 H   0  0  0  0  0  0  0  0  0  0  0  0
  137.7599   68.4929  225.3948 H   0  0  0  0  0  0  0  0  0  0  0  0
  138.6256   68.5445  227.7194 H   0  0  0  0  0  0  0  0  0  0  0  0
  140.4402   70.1193  228.3532 H   0  0  0  0  0  0  0  0  0  0  0  0
  141.4007   71.6530  226.6626 H   0  0  0  0  0  0  0  0  0  0  0  0
  140.6034   72.9204  224.4128 H   0  0  0  0  0  0  0  0  0  0  0  0
  141.7964   71.6744  223.9474 H   0  0  0  0  0  0  0  0  0  0  0  0
  138.0435   74.7963  216.9980 H   0  0  0  0  0  0  0  0  0  0  0  0
  139.5714   74.9276  217.8366 H   0  0  0  0  0  0  0  0  0  0  0  0
  143.5298   74.0133  215.4654 H   0  0  0  0  0  0  0  0  0  0  0  0
  145.2484   73.2901  217.1209 H   0  0  0  0  0  0  0  0  0  0  0  0
  1  2  1  0
  2  3  2  0
  2  4  2  0
  2  5  1  0
  5  6  2  0
  6  7  1  0
  7  8  2  0
  8  9  1  0
  9 10  1  0
 10 11  1  0
 11 12  1  0
 12 13  1  0
 13 14  1  0
 14 15  1  0
 15 16  2  0
 16 17  1  0
 17 18  1  0
 18 19  1  0
 19 20  1  0
 20 21  1  0
 21 22  2  0
 22 23  1  0
 23 24  2  0
 24 25  1  0
 25 26  2  0
 26 27  1  0
 17 28  2  0
 28 29  1  0
 29 30  1  0
 30 31  1  0
 31 32  1  0
 32 33  1  0
 33 34  2  0
 34 35  1  0
 35 36  2  0
 36 37  1  0
 37 38  2  0
 38 39  1  0
 29 40  2  0
 14 41  1  0
  8 42  1  0
 42 43  2  0
 43  5  1  0
 41 11  1  0
 40 15  1  0
 27 18  1  0
 39 30  1  0
 26 21  1  0
 38 33  1  0
  1 44  1  0
  1 45  1  0
  6 46  1  0
  7 47  1  0
  9 48  1  0
  9 49  1  0
 10 50  1  0
 10 51  1  0
 12 52  1  0
 12 53  1  0
 13 54  1  0
 13 55  1  0
 14 56  1  1
 19 57  1  0
 19 58  1  0
 20 59  1  0
 20 60  1  0
 22 61  1  0
 23 62  1  0
 24 63  1  0
 25 64  1  0
 27 65  1  0
 27 66  1  0
 31 67  1  0
 31 68  1  0
 32 69  1  0
 32 70  1  0
 34 71  1  0
 35 72  1  0
 36 73  1  0
 37 74  1  0
 39 75  1  0
 39 76  1  0
 41 77  1  0
 41 78  1  0
 42 79  1  0
 43 80  1  0
M  END
>  <smiles>  (58) 
NS(=O)(=O)c1ccc(CCN2CCC(c3nc(N4CCc5ccccc5C4)nc(N4CCc5ccccc5C4)n3)C2)cc1

>  <score_type>  (58) 
oracle

>  <origin>  (58) 
autodockgpu

>  <m_score__min__energy>  (58) 
-10.83

>  <m_primary>  (58) 
energy

>  <rmsd>  (58) 
7.651523627087989

>  <m_score__min__rmsd>  (58) 
7.651523627087989

>  <meeko>  (58) 
{"free_energy": -9.81, "intermolecular_energy": -12.2, "internal_energy": -2.4, "cluster_size": 4, "cluster_id": 9, "rank_in_cluster": 2}

>  <energy>  (58) 
-9.95

>  <cluster_rmsd>  (58) 
1.0

>  <cluster>  (58) 
2

$$$$

     RDKit          3D

 80 86  0  0  1  0  0  0  0  0999 V2000
  144.5470   74.1510  219.9630 N   0  0  0  0  0  0  0  0  0  0  0  0
  145.8750   73.0260  219.8950 S   0  0  0  0  0  0  0  0  0  0  0  0
  146.7010   73.3930  218.6800 O   0  0  0  0  0  0  0  0  0  0  0  0
  146.6890   73.1030  221.1520 O   0  0  0  0  0  0  0  0  0  0  0  0
  145.2920   71.3970  219.7140 C   0  0  0  0  0  0  0  0  0  0  0  0
  146.1230   70.4800  219.1070 C   0  0  0  0  0  0  0  0  0  0  0  0
  145.6990   69.1810  218.9450 C   0  0  0  0  0  0  0  0  0  0  0  0
  144.4540   68.7510  219.3700 C   0  0  0  0  0  0  0  0  0  0  0  0
  144.1170   67.3300  219.1380 C   0  0  0  0  0  0  0  0  0  0  0  0
  143.1850   67.1780  217.9420 C   0  0  0  0  0  0  0  0  0  0  0  0
  141.8700   67.5050  218.3530 N   0  0  0  0  0  0  0  0  0  0  0  0
  141.4980   67.0800  219.6580 C   0  0  0  0  0  0  0  0  0  0  0  0
  140.0330   67.5350  219.6780 C   0  0  0  0  0  0  0  0  0  0  0  0
  140.1700   68.8910  218.9840 C   0  0  1  0  0  0  0  0  0  0  0  0
  140.1690   69.9220  220.0560 C   0  0  0  0  0  0  0  0  0  0  0  0
  140.4980   71.2020  219.7890 N   0  0  0  0  0  0  0  0  0  0  0  0
  140.5150   72.1790  220.7270 C   0  0  0  0  0  0  0  0  0  0  0  0
  140.8640   73.5270  220.4120 N   0  0  0  0  0  0  0  0  0  0  0  0
  140.3590   74.5760  221.2620 C   0  0  0  0  0  0  0  0  0  0  0  0
  141.3520   75.7020  221.4010 C   0  0  0  0  0  0  0  0  0  0  0  0
  141.8390   76.1380  220.0730 C   0  0  0  0  0  0  0  0  0  0  0  0
  142.1340   77.4610  219.8270 C   0  0  0  0  0  0  0  0  0  0  0  0
  142.5860   77.8860  218.5990 C   0  0  0  0  0  0  0  0  0  0  0  0
  142.7360   76.9200  217.6040 C   0  0  0  0  0  0  0  0  0  0  0  0
  142.4430   75.5920  217.8410 C   0  0  0  0  0  0  0  0  0  0  0  0
  141.9930   75.1960  219.0790 C   0  0  0  0  0  0  0  0  0  0  0  0
  141.6960   73.7510  219.2670 C   0  0  0  0  0  0  0  0  0  0  0  0
  140.1800   71.8090  221.9960 N   0  0  0  0  0  0  0  0  0  0  0  0
  139.8450   70.5460  222.3120 C   0  0  0  0  0  0  0  0  0  0  0  0
  139.5080   70.2370  223.6590 N   0  0  0  0  0  0  0  0  0  0  0  0
  139.1990   71.3710  224.5260 C   0  0  0  0  0  0  0  0  0  0  0  0
  140.4020   71.4550  225.4750 C   0  0  0  0  0  0  0  0  0  0  0  0
  140.4570   70.1360  226.1690 C   0  0  0  0  0  0  0  0  0  0  0  0
  140.9840   70.1610  227.4620 C   0  0  0  0  0  0  0  0  0  0  0  0
  141.0630   68.9800  228.1610 C   0  0  0  0  0  0  0  0  0  0  0  0
  140.6290   67.7860  227.5930 C   0  0  0  0  0  0  0  0  0  0  0  0
  140.1110   67.7780  226.3160 C   0  0  0  0  0  0  0  0  0  0  0  0
  140.0200   68.9660  225.5830 C   0  0  0  0  0  0  0  0  0  0  0  0
  139.4530   68.9220  224.2020 C   0  0  0  0  0  0  0  0  0  0  0  0
  139.8500   69.6310  221.3220 N   0  0  0  0  0  0  0  0  0  0  0  0
  141.4400   68.8490  218.1810 C   0  0  0  0  0  0  0  0  0  0  0  0
  143.6230   69.6630  219.9750 C   0  0  0  0  0  0  0  0  0  0  0  0
  144.0390   70.9880  220.1490 C   0  0  0  0  0  0  0  0  0  0  0  0
  144.7410   74.8770  219.2120 H   0  0  0  0  0  0  0  0  0  0  0  0
  144.6250   74.6940  220.8690 H   0  0  0  0  0  0  0  0  0  0  0  0
  147.1193   70.7848  218.7541 H   0  0  0  0  0  0  0  0  0  0  0  0
  146.3731   68.4591  218.4608 H   0  0  0  0  0  0  0  0  0  0  0  0
  145.0427   66.7674  218.9465 H   0  0  0  0  0  0  0  0  0  0  0  0
  143.6071   66.9404  220.0314 H   0  0  0  0  0  0  0  0  0  0  0  0
  143.5015   67.8567  217.1363 H   0  0  0  0  0  0  0  0  0  0  0  0
  143.2170   66.1440  217.5682 H   0  0  0  0  0  0  0  0  0  0  0  0
  141.5886   65.9899  219.7738 H   0  0  0  0  0  0  0  0  0  0  0  0
  142.1196   67.4825  220.4714 H   0  0  0  0  0  0  0  0  0  0  0  0
  139.3845   66.8499  219.1122 H   0  0  0  0  0  0  0  0  0  0  0  0
  139.5705   67.5683  220.6755 H   0  0  0  0  0  0  0  0  0  0  0  0
  139.3515   69.1311  218.2895 H   0  0  0  0  0  0  0  0  0  0  0  0
  139.4290   74.9714  220.8274 H   0  0  0  0  0  0  0  0  0  0  0  0
  140.1760   74.1525  222.2606 H   0  0  0  0  0  0  0  0  0  0  0  0
  140.8666   76.5513  221.9041 H   0  0  0  0  0  0  0  0  0  0  0  0
  142.2088   75.3466  221.9923 H   0  0  0  0  0  0  0  0  0  0  0  0
  142.0047   78.1973  220.6340 H   0  0  0  0  0  0  0  0  0  0  0  0
  142.8195   78.9441  218.4096 H   0  0  0  0  0  0  0  0  0  0  0  0
  143.0954   77.2228  216.6094 H   0  0  0  0  0  0  0  0  0  0  0  0
  142.5695   74.8498  217.0391 H   0  0  0  0  0  0  0  0  0  0  0  0
  141.1802   73.3734  218.3718 H   0  0  0  0  0  0  0  0  0  0  0  0
  142.6476   73.2224  219.4251 H   0  0  0  0  0  0  0  0  0  0  0  0
  139.0995   72.2958  223.9388 H   0  0  0  0  0  0  0  0  0  0  0  0
  138.2465   71.2457  225.0617 H   0  0  0  0  0  0  0  0  0  0  0  0
  141.3278   71.6292  224.9071 H   0  0  0  0  0  0  0  0  0  0  0  0
  140.3012   72.2866  226.1879 H   0  0  0  0  0  0  0  0  0  0  0  0
  141.3281   71.1044  227.9110 H   0  0  0  0  0  0  0  0  0  0  0  0
  141.4741   68.9787  229.1813 H   0  0  0  0  0  0  0  0  0  0  0  0
  140.6994   66.8482  228.1636 H   0  0  0  0  0  0  0  0  0  0  0  0
  139.7673   66.8326  225.8708 H   0  0  0  0  0  0  0  0  0  0  0  0
  140.0444   68.2359  223.5779 H   0  0  0  0  0  0  0  0  0  0  0  0
  138.4133   68.5638  224.2282 H   0  0  0  0  0  0  0  0  0  0  0  0
  141.2475   69.0720  217.1212 H   0  0  0  0  0  0  0  0  0  0  0  0
  142.1855   69.5917  218.5013 H   0  0  0  0  0  0  0  0  0  0  0  0
  142.6276   69.3507  220.3237 H   0  0  0  0  0  0  0  0  0  0  0  0
  143.3673   71.7112  220.6345 H   0  0  0  0  0  0  0  0  0  0  0  0
  1  2  1  0
  2  3  2  0
  2  4  2  0
  2  5  1  0
  5  6  2  0
  6  7  1  0
  7  8  2  0
  8  9  1  0
  9 10  1  0
 10 11  1  0
 11 12  1  0
 12 13  1  0
 13 14  1  0
 14 15  1  0
 15 16  2  0
 16 17  1  0
 17 18  1  0
 18 19  1  0
 19 20  1  0
 20 21  1  0
 21 22  2  0
 22 23  1  0
 23 24  2  0
 24 25  1  0
 25 26  2  0
 26 27  1  0
 17 28  2  0
 28 29  1  0
 29 30  1  0
 30 31  1  0
 31 32  1  0
 32 33  1  0
 33 34  2  0
 34 35  1  0
 35 36  2  0
 36 37  1  0
 37 38  2  0
 38 39  1  0
 29 40  2  0
 14 41  1  0
  8 42  1  0
 42 43  2  0
 43  5  1  0
 41 11  1  0
 40 15  1  0
 27 18  1  0
 39 30  1  0
 26 21  1  0
 38 33  1  0
  1 44  1  0
  1 45  1  0
  6 46  1  0
  7 47  1  0
  9 48  1  0
  9 49  1  0
 10 50  1  0
 10 51  1  0
 12 52  1  0
 12 53  1  0
 13 54  1  0
 13 55  1  0
 14 56  1  6
 19 57  1  0
 19 58  1  0
 20 59  1  0
 20 60  1  0
 22 61  1  0
 23 62  1  0
 24 63  1  0
 25 64  1  0
 27 65  1  0
 27 66  1  0
 31 67  1  0
 31 68  1  0
 32 69  1  0
 32 70  1  0
 34 71  1  0
 35 72  1  0
 36 73  1  0
 37 74  1  0
 39 75  1  0
 39 76  1  0
 41 77  1  0
 41 78  1  0
 42 79  1  0
 43 80  1  0
M  END
>  <smiles>  (59) 
NS(=O)(=O)c1ccc(CCN2CCC(c3nc(N4CCc5ccccc5C4)nc(N4CCc5ccccc5C4)n3)C2)cc1

>  <score_type>  (59) 
oracle

>  <origin>  (59) 
autodockgpu

>  <m_score__min__energy>  (59) 
-10.83

>  <m_primary>  (59) 
energy

>  <rmsd>  (59) 
11.823654388335104

>  <m_score__min__rmsd>  (59) 
11.823654388335104

>  <meeko>  (59) 
{"free_energy": -9.4, "intermolecular_energy": -11.79, "internal_energy": -2.62, "cluster_size": 3, "cluster_id": 1, "rank_in_cluster": 3}

>  <energy>  (59) 
-9.84

>  <cluster_rmsd>  (59) 
1.35

>  <cluster>  (59) 
2

$$$$

     RDKit          3D

 80 86  0  0  1  0  0  0  0  0999 V2000
  139.6870   72.0360  228.7110 N   0  0  0  0  0  0  0  0  0  0  0  0
  140.8010   71.2720  227.6100 S   0  0  0  0  0  0  0  0  0  0  0  0
  141.8360   72.3120  227.2390 O   0  0  0  0  0  0  0  0  0  0  0  0
  141.4350   70.0770  228.2570 O   0  0  0  0  0  0  0  0  0  0  0  0
  139.9800   70.7490  226.1690 C   0  0  0  0  0  0  0  0  0  0  0  0
  140.1630   71.4870  225.0200 C   0  0  0  0  0  0  0  0  0  0  0  0
  139.5310   71.1070  223.8590 C   0  0  0  0  0  0  0  0  0  0  0  0
  138.7040   69.9980  223.7960 C   0  0  0  0  0  0  0  0  0  0  0  0
  138.0830   69.6950  222.4890 C   0  0  0  0  0  0  0  0  0  0  0  0
  136.6360   70.1690  222.4480 C   0  0  0  0  0  0  0  0  0  0  0  0
  136.6170   71.5160  222.0120 N   0  0  0  0  0  0  0  0  0  0  0  0
  136.6710   72.5050  223.0320 C   0  0  0  0  0  0  0  0  0  0  0  0
  136.5440   73.7740  222.1800 C   0  0  0  0  0  0  0  0  0  0  0  0
  137.4420   73.3900  221.0030 C   0  0  1  0  0  0  0  0  0  0  0  0
  138.7510   74.0590  221.2280 C   0  0  0  0  0  0  0  0  0  0  0  0
  139.9050   73.4790  220.8370 N   0  0  0  0  0  0  0  0  0  0  0  0
  141.1220   74.0440  221.0200 C   0  0  0  0  0  0  0  0  0  0  0  0
  142.3250   73.4060  220.5910 N   0  0  0  0  0  0  0  0  0  0  0  0
  143.4300   74.2400  220.1870 C   0  0  0  0  0  0  0  0  0  0  0  0
  144.7540   73.6280  220.5670 C   0  0  0  0  0  0  0  0  0  0  0  0
  144.8250   72.2180  220.1230 C   0  0  0  0  0  0  0  0  0  0  0  0
  146.0160   71.6710  219.6960 C   0  0  0  0  0  0  0  0  0  0  0  0
  146.1020   70.3620  219.2790 C   0  0  0  0  0  0  0  0  0  0  0  0
  144.9310   69.6050  219.3040 C   0  0  0  0  0  0  0  0  0  0  0  0
  143.7350   70.1440  219.7300 C   0  0  0  0  0  0  0  0  0  0  0  0
  143.6780   71.4560  220.1420 C   0  0  0  0  0  0  0  0  0  0  0  0
  142.3580   71.9730  220.5890 C   0  0  0  0  0  0  0  0  0  0  0  0
  141.1420   75.2600  221.6370 N   0  0  0  0  0  0  0  0  0  0  0  0
  140.0200   75.8780  222.0450 C   0  0  0  0  0  0  0  0  0  0  0  0
  140.1230   77.1450  222.6820 N   0  0  0  0  0  0  0  0  0  0  0  0
  138.8950   77.9300  222.7660 C   0  0  0  0  0  0  0  0  0  0  0  0
  139.1160   79.0790  221.7730 C   0  0  0  0  0  0  0  0  0  0  0  0
  140.3410   79.7860  222.2460 C   0  0  0  0  0  0  0  0  0  0  0  0
  140.3910   81.1530  221.9620 C   0  0  0  0  0  0  0  0  0  0  0  0
  141.4930   81.8670  222.3700 C   0  0  0  0  0  0  0  0  0  0  0  0
  142.5350   81.2430  223.0500 C   0  0  0  0  0  0  0  0  0  0  0  0
  142.4690   79.8940  223.3230 C   0  0  0  0  0  0  0  0  0  0  0  0
  141.3600   79.1440  222.9190 C   0  0  0  0  0  0  0  0  0  0  0  0
  141.3210   77.6830  223.2300 C   0  0  0  0  0  0  0  0  0  0  0  0
  138.8460   75.2520  221.8260 N   0  0  0  0  0  0  0  0  0  0  0  0
  137.5220   71.8890  220.9800 C   0  0  0  0  0  0  0  0  0  0  0  0
  138.5180   69.2600  224.9410 C   0  0  0  0  0  0  0  0  0  0  0  0
  139.1550   69.6330  226.1300 C   0  0  0  0  0  0  0  0  0  0  0  0
  140.2360   72.8090  229.1920 H   0  0  0  0  0  0  0  0  0  0  0  0
  139.4760   71.3510  229.4900 H   0  0  0  0  0  0  0  0  0  0  0  0
  140.8113   72.3756  225.0311 H   0  0  0  0  0  0  0  0  0  0  0  0
  139.6879   71.7047  222.9490 H   0  0  0  0  0  0  0  0  0  0  0  0
  138.6503   70.2028  221.6951 H   0  0  0  0  0  0  0  0  0  0  0  0
  138.0988   68.6055  222.3381 H   0  0  0  0  0  0  0  0  0  0  0  0
  136.0606   69.5445  221.7488 H   0  0  0  0  0  0  0  0  0  0  0  0
  136.1849   70.0900  223.4481 H   0  0  0  0  0  0  0  0  0  0  0  0
  135.8369   72.4050  223.7421 H   0  0  0  0  0  0  0  0  0  0  0  0
  137.5657   72.4634  223.6705 H   0  0  0  0  0  0  0  0  0  0  0  0
  135.5060   73.9506  221.8617 H   0  0  0  0  0  0  0  0  0  0  0  0
  136.8222   74.7071  222.6917 H   0  0  0  0  0  0  0  0  0  0  0  0
  137.0664   73.7127  220.0208 H   0  0  0  0  0  0  0  0  0  0  0  0
  143.3976   74.3716  219.0954 H   0  0  0  0  0  0  0  0  0  0  0  0
  143.3374   75.2076  220.7019 H   0  0  0  0  0  0  0  0  0  0  0  0
  145.5653   74.1979  220.0906 H   0  0  0  0  0  0  0  0  0  0  0  0
  144.8572   73.6598  221.6617 H   0  0  0  0  0  0  0  0  0  0  0  0
  146.9208   72.2965  219.6883 H   0  0  0  0  0  0  0  0  0  0  0  0
  147.0554   69.9307  218.9399 H   0  0  0  0  0  0  0  0  0  0  0  0
  144.9619   68.5552  218.9769 H   0  0  0  0  0  0  0  0  0  0  0  0
  142.8259   69.5247  219.7405 H   0  0  0  0  0  0  0  0  0  0  0  0
  141.5791   71.5991  219.9082 H   0  0  0  0  0  0  0  0  0  0  0  0
  142.1823   71.6237  221.6172 H   0  0  0  0  0  0  0  0  0  0  0  0
  138.0239   77.3246  222.4750 H   0  0  0  0  0  0  0  0  0  0  0  0
  138.6915   78.2873  223.7863 H   0  0  0  0  0  0  0  0  0  0  0  0
  139.2678   78.6851  220.7572 H   0  0  0  0  0  0  0  0  0  0  0  0
  138.2476   79.7529  221.7296 H   0  0  0  0  0  0  0  0  0  0  0  0
  139.5679   81.6466  221.4245 H   0  0  0  0  0  0  0  0  0  0  0  0
  141.5519   82.9445  222.1564 H   0  0  0  0  0  0  0  0  0  0  0  0
  143.4110   81.8267  223.3694 H   0  0  0  0  0  0  0  0  0  0  0  0
  143.2934   79.4042  223.8619 H   0  0  0  0  0  0  0  0  0  0  0  0
  142.1928   77.1833  222.7824 H   0  0  0  0  0  0  0  0  0  0  0  0
  141.3463   77.5247  224.3183 H   0  0  0  0  0  0  0  0  0  0  0  0
  137.2017   71.4888  220.0067 H   0  0  0  0  0  0  0  0  0  0  0  0
  138.5408   71.5021  221.1295 H   0  0  0  0  0  0  0  0  0  0  0  0
  137.8666   68.3738  224.9225 H   0  0  0  0  0  0  0  0  0  0  0  0
  139.0007   69.0369  227.0415 H   0  0  0  0  0  0  0  0  0  0  0  0
  1  2  1  0
  2  3  2  0
  2  4  2  0
  2  5  1  0
  5  6  2  0
  6  7  1  0
  7  8  2  0
  8  9  1  0
  9 10  1  0
 10 11  1  0
 11 12  1  0
 12 13  1  0
 13 14  1  0
 14 15  1  0
 15 16  2  0
 16 17  1  0
 17 18  1  0
 18 19  1  0
 19 20  1  0
 20 21  1  0
 21 22  2  0
 22 23  1  0
 23 24  2  0
 24 25  1  0
 25 26  2  0
 26 27  1  0
 17 28  2  0
 28 29  1  0
 29 30  1  0
 30 31  1  0
 31 32  1  0
 32 33  1  0
 33 34  2  0
 34 35  1  0
 35 36  2  0
 36 37  1  0
 37 38  2  0
 38 39  1  0
 29 40  2  0
 14 41  1  0
  8 42  1  0
 42 43  2  0
 43  5  1  0
 41 11  1  0
 40 15  1  0
 27 18  1  0
 39 30  1  0
 26 21  1  0
 38 33  1  0
  1 44  1  0
  1 45  1  0
  6 46  1  0
  7 47  1  0
  9 48  1  0
  9 49  1  0
 10 50  1  0
 10 51  1  0
 12 52  1  0
 12 53  1  0
 13 54  1  0
 13 55  1  0
 14 56  1  6
 19 57  1  0
 19 58  1  0
 20 59  1  0
 20 60  1  0
 22 61  1  0
 23 62  1  0
 24 63  1  0
 25 64  1  0
 27 65  1  0
 27 66  1  0
 31 67  1  0
 31 68  1  0
 32 69  1  0
 32 70  1  0
 34 71  1  0
 35 72  1  0
 36 73  1  0
 37 74  1  0
 39 75  1  0
 39 76  1  0
 41 77  1  0
 41 78  1  0
 42 79  1  0
 43 80  1  0
M  END
>  <smiles>  (60) 
NS(=O)(=O)c1ccc(CCN2CCC(c3nc(N4CCc5ccccc5C4)nc(N4CCc5ccccc5C4)n3)C2)cc1

>  <score_type>  (60) 
oracle

>  <origin>  (60) 
autodockgpu

>  <m_score__min__energy>  (60) 
-10.83

>  <m_primary>  (60) 
energy

>  <rmsd>  (60) 
9.861491212011074

>  <m_score__min__rmsd>  (60) 
9.861491212011074

>  <meeko>  (60) 
{"free_energy": -10.35, "intermolecular_energy": -12.74, "internal_energy": -2.2, "cluster_size": 5, "cluster_id": 5, "rank_in_cluster": 1}

>  <energy>  (60) 
-8.93

>  <cluster_rmsd>  (60) 
1.91

>  <cluster>  (60) 
2

$$$$

     RDKit          3D

 80 86  0  0  1  0  0  0  0  0999 V2000
  143.2740   80.4810  222.9390 N   0  0  0  0  0  0  0  0  0  0  0  0
  141.7240   80.0490  222.2710 S   0  0  0  0  0  0  0  0  0  0  0  0
  140.9760   79.2940  223.3490 O   0  0  0  0  0  0  0  0  0  0  0  0
  140.9790   81.2780  221.8470 O   0  0  0  0  0  0  0  0  0  0  0  0
  141.9190   79.0150  220.8860 C   0  0  0  0  0  0  0  0  0  0  0  0
  141.8140   77.6540  221.0780 C   0  0  0  0  0  0  0  0  0  0  0  0
  141.9620   76.8030  220.0080 C   0  0  0  0  0  0  0  0  0  0  0  0
  142.2170   77.2630  218.7270 C   0  0  0  0  0  0  0  0  0  0  0  0
  142.3550   76.2460  217.6630 C   0  0  0  0  0  0  0  0  0  0  0  0
  143.7030   75.5400  217.7520 C   0  0  0  0  0  0  0  0  0  0  0  0
  143.5670   74.4200  218.6070 N   0  0  0  0  0  0  0  0  0  0  0  0
  143.9790   74.6070  219.9550 C   0  0  0  0  0  0  0  0  0  0  0  0
  143.7610   73.1900  220.4990 C   0  0  0  0  0  0  0  0  0  0  0  0
  142.4360   72.8470  219.8150 C   0  0  1  0  0  0  0  0  0  0  0  0
  141.3660   73.0540  220.8280 C   0  0  0  0  0  0  0  0  0  0  0  0
  141.1840   72.1770  221.8350 N   0  0  0  0  0  0  0  0  0  0  0  0
  140.2250   72.3160  222.7810 C   0  0  0  0  0  0  0  0  0  0  0  0
  140.0590   71.3710  223.8380 N   0  0  0  0  0  0  0  0  0  0  0  0
  139.0660   70.3380  223.6780 C   0  0  0  0  0  0  0  0  0  0  0  0
  139.5060   69.0430  224.3100 C   0  0  0  0  0  0  0  0  0  0  0  0
  139.9710   69.2690  225.6970 C   0  0  0  0  0  0  0  0  0  0  0  0
  139.7560   68.3250  226.6780 C   0  0  0  0  0  0  0  0  0  0  0  0
  140.1800   68.5180  227.9730 C   0  0  0  0  0  0  0  0  0  0  0  0
  140.8390   69.7130  228.2580 C   0  0  0  0  0  0  0  0  0  0  0  0
  141.0590   70.6640  227.2840 C   0  0  0  0  0  0  0  0  0  0  0  0
  140.6240   70.4450  225.9960 C   0  0  0  0  0  0  0  0  0  0  0  0
  140.8940   71.5100  224.9950 C   0  0  0  0  0  0  0  0  0  0  0  0
  139.4200   73.4110  222.6730 N   0  0  0  0  0  0  0  0  0  0  0  0
  139.5610   74.3140  221.6870 C   0  0  0  0  0  0  0  0  0  0  0  0
  138.6820   75.4310  221.6420 N   0  0  0  0  0  0  0  0  0  0  0  0
  137.9890   75.6600  220.3780 C   0  0  0  0  0  0  0  0  0  0  0  0
  138.6550   76.9200  219.8080 C   0  0  0  0  0  0  0  0  0  0  0  0
  138.4470   77.9810  220.8340 C   0  0  0  0  0  0  0  0  0  0  0  0
  138.3570   79.2840  220.3380 C   0  0  0  0  0  0  0  0  0  0  0  0
  138.1630   80.3120  221.2310 C   0  0  0  0  0  0  0  0  0  0  0  0
  138.0600   80.0620  222.5950 C   0  0  0  0  0  0  0  0  0  0  0  0
  138.1510   78.7710  223.0680 C   0  0  0  0  0  0  0  0  0  0  0  0
  138.3470   77.7070  222.1830 C   0  0  0  0  0  0  0  0  0  0  0  0
  138.4410   76.3190  222.7280 C   0  0  0  0  0  0  0  0  0  0  0  0
  140.5410   74.1060  220.7840 N   0  0  0  0  0  0  0  0  0  0  0  0
  142.3180   73.7410  218.6120 C   0  0  0  0  0  0  0  0  0  0  0  0
  142.3230   78.6190  218.5320 C   0  0  0  0  0  0  0  0  0  0  0  0
  142.1750   79.4990  219.6100 C   0  0  0  0  0  0  0  0  0  0  0  0
  143.9990   79.9930  222.3330 H   0  0  0  0  0  0  0  0  0  0  0  0
  143.3690   80.0070  223.8810 H   0  0  0  0  0  0  0  0  0  0  0  0
  141.6129   77.2509  222.0815 H   0  0  0  0  0  0  0  0  0  0  0  0
  141.8748   75.7193  220.1755 H   0  0  0  0  0  0  0  0  0  0  0  0
  141.5518   75.5021  217.7704 H   0  0  0  0  0  0  0  0  0  0  0  0
  142.2872   76.7491  216.6871 H   0  0  0  0  0  0  0  0  0  0  0  0
  144.0145   75.2071  216.7509 H   0  0  0  0  0  0  0  0  0  0  0  0
  144.4636   76.2280  218.1496 H   0  0  0  0  0  0  0  0  0  0  0  0
  145.0339   74.9118  220.0209 H   0  0  0  0  0  0  0  0  0  0  0  0
  143.4426   75.3993  220.4978 H   0  0  0  0  0  0  0  0  0  0  0  0
  144.5673   72.5066  220.1941 H   0  0  0  0  0  0  0  0  0  0  0  0
  143.7517   73.1100  221.5960 H   0  0  0  0  0  0  0  0  0  0  0  0
  142.3619   71.8086  219.4598 H   0  0  0  0  0  0  0  0  0  0  0  0
  138.1295   70.6666  224.1523 H   0  0  0  0  0  0  0  0  0  0  0  0
  138.9212   70.1637  222.6016 H   0  0  0  0  0  0  0  0  0  0  0  0
  138.6589   68.3414  224.3230 H   0  0  0  0  0  0  0  0  0  0  0  0
  140.3372   68.6270  223.7218 H   0  0  0  0  0  0  0  0  0  0  0  0
  139.2319   67.3932  226.4191 H   0  0  0  0  0  0  0  0  0  0  0  0
  140.0060   67.7604  228.7513 H   0  0  0  0  0  0  0  0  0  0  0  0
  141.1914   69.9015  229.2828 H   0  0  0  0  0  0  0  0  0  0  0  0
  141.5823   71.5981  227.5361 H   0  0  0  0  0  0  0  0  0  0  0  0
  140.7040   72.4902  225.4566 H   0  0  0  0  0  0  0  0  0  0  0  0
  141.9428   71.4231  224.6747 H   0  0  0  0  0  0  0  0  0  0  0  0
  138.1240   74.8056  219.6984 H   0  0  0  0  0  0  0  0  0  0  0  0
  136.9031   75.7787  220.5077 H   0  0  0  0  0  0  0  0  0  0  0  0
  139.7292   76.7471  219.6465 H   0  0  0  0  0  0  0  0  0  0  0  0
  138.2256   77.2035  218.8358 H   0  0  0  0  0  0  0  0  0  0  0  0
  138.4393   79.4830  219.2593 H   0  0  0  0  0  0  0  0  0  0  0  0
  138.0884   81.3453  220.8614 H   0  0  0  0  0  0  0  0  0  0  0  0
  137.9058   80.8951  223.2966 H   0  0  0  0  0  0  0  0  0  0  0  0
  138.0690   78.5767  224.1476 H   0  0  0  0  0  0  0  0  0  0  0  0
  139.2685   76.2576  223.4501 H   0  0  0  0  0  0  0  0  0  0  0  0
  137.5065   76.0477  223.2409 H   0  0  0  0  0  0  0  0  0  0  0  0
  142.1818   73.1532  217.6922 H   0  0  0  0  0  0  0  0  0  0  0  0
  141.4520   74.4180  218.6531 H   0  0  0  0  0  0  0  0  0  0  0  0
  142.5248   79.0141  217.5254 H   0  0  0  0  0  0  0  0  0  0  0  0
  142.2622   80.5831  219.4451 H   0  0  0  0  0  0  0  0  0  0  0  0
  1  2  1  0
  2  3  2  0
  2  4  2  0
  2  5  1  0
  5  6  2  0
  6  7  1  0
  7  8  2  0
  8  9  1  0
  9 10  1  0
 10 11  1  0
 11 12  1  0
 12 13  1  0
 13 14  1  0
 14 15  1  0
 15 16  2  0
 16 17  1  0
 17 18  1  0
 18 19  1  0
 19 20  1  0
 20 21  1  0
 21 22  2  0
 22 23  1  0
 23 24  2  0
 24 25  1  0
 25 26  2  0
 26 27  1  0
 17 28  2  0
 28 29  1  0
 29 30  1  0
 30 31  1  0
 31 32  1  0
 32 33  1  0
 33 34  2  0
 34 35  1  0
 35 36  2  0
 36 37  1  0
 37 38  2  0
 38 39  1  0
 29 40  2  0
 14 41  1  0
  8 42  1  0
 42 43  2  0
 43  5  1  0
 41 11  1  0
 40 15  1  0
 27 18  1  0
 39 30  1  0
 26 21  1  0
 38 33  1  0
  1 44  1  0
  1 45  1  0
  6 46  1  0
  7 47  1  0
  9 48  1  0
  9 49  1  0
 10 50  1  0
 10 51  1  0
 12 52  1  0
 12 53  1  0
 13 54  1  0
 13 55  1  0
 14 56  1  6
 19 57  1  0
 19 58  1  0
 20 59  1  0
 20 60  1  0
 22 61  1  0
 23 62  1  0
 24 63  1  0
 25 64  1  0
 27 65  1  0
 27 66  1  0
 31 67  1  0
 31 68  1  0
 32 69  1  0
 32 70  1  0
 34 71  1  0
 35 72  1  0
 36 73  1  0
 37 74  1  0
 39 75  1  0
 39 76  1  0
 41 77  1  0
 41 78  1  0
 42 79  1  0
 43 80  1  0
M  END
>  <smiles>  (61) 
NS(=O)(=O)c1ccc(CCN2CCC(c3nc(N4CCc5ccccc5C4)nc(N4CCc5ccccc5C4)n3)C2)cc1

>  <score_type>  (61) 
oracle

>  <origin>  (61) 
autodockgpu

>  <m_score__min__energy>  (61) 
-10.83

>  <m_primary>  (61) 
energy

>  <rmsd>  (61) 
5.724179813272482

>  <m_score__min__rmsd>  (61) 
5.724179813272482

>  <meeko>  (61) 
{"free_energy": -9.74, "intermolecular_energy": -12.12, "internal_energy": -3.56, "cluster_size": 4, "cluster_id": 11, "rank_in_cluster": 2}

>  <energy>  (61) 
-10.66

>  <cluster_rmsd>  (61) 
0.0

>  <cluster>  (61) 
3

$$$$

     RDKit          3D

 80 86  0  0  1  0  0  0  0  0999 V2000
  142.9100   74.3850  220.8980 N   0  0  0  0  0  0  0  0  0  0  0  0
  143.3810   74.4950  219.2240 S   0  0  0  0  0  0  0  0  0  0  0  0
  143.5120   75.9680  218.8990 O   0  0  0  0  0  0  0  0  0  0  0  0
  144.6740   73.7690  218.9980 O   0  0  0  0  0  0  0  0  0  0  0  0
  142.1660   73.7930  218.1970 C   0  0  0  0  0  0  0  0  0  0  0  0
  141.3320   74.6480  217.5090 C   0  0  0  0  0  0  0  0  0  0  0  0
  140.3580   74.1320  216.6860 C   0  0  0  0  0  0  0  0  0  0  0  0
  140.1770   72.7700  216.5190 C   0  0  0  0  0  0  0  0  0  0  0  0
  139.0950   72.3420  215.6060 C   0  0  0  0  0  0  0  0  0  0  0  0
  137.8380   73.1770  215.8190 C   0  0  0  0  0  0  0  0  0  0  0  0
  137.3650   72.9500  217.1340 N   0  0  0  0  0  0  0  0  0  0  0  0
  137.8620   71.7900  217.7870 C   0  0  0  0  0  0  0  0  0  0  0  0
  137.0700   71.8610  219.0980 C   0  0  0  0  0  0  0  0  0  0  0  0
  137.1450   73.3650  219.3680 C   0  0  1  0  0  0  0  0  0  0  0  0
  138.2160   73.5650  220.3800 C   0  0  0  0  0  0  0  0  0  0  0  0
  138.8600   74.7450  220.4870 N   0  0  0  0  0  0  0  0  0  0  0  0
  139.8430   74.9800  221.3880 C   0  0  0  0  0  0  0  0  0  0  0  0
  140.5030   76.2420  221.4790 N   0  0  0  0  0  0  0  0  0  0  0  0
  141.1190   76.7750  220.2890 C   0  0  0  0  0  0  0  0  0  0  0  0
  141.0090   78.2770  220.2350 C   0  0  0  0  0  0  0  0  0  0  0  0
  141.4590   78.8810  221.5090 C   0  0  0  0  0  0  0  0  0  0  0  0
  142.1150   80.0930  221.5240 C   0  0  0  0  0  0  0  0  0  0  0  0
  142.5410   80.6700  222.6990 C   0  0  0  0  0  0  0  0  0  0  0  0
  142.2840   79.9780  223.8810 C   0  0  0  0  0  0  0  0  0  0  0  0
  141.6280   78.7640  223.8760 C   0  0  0  0  0  0  0  0  0  0  0  0
  141.2120   78.2100  222.6870 C   0  0  0  0  0  0  0  0  0  0  0  0
  140.5120   76.9010  222.7520 C   0  0  0  0  0  0  0  0  0  0  0  0
  140.1730   73.9430  222.2100 N   0  0  0  0  0  0  0  0  0  0  0  0
  139.5620   72.7470  222.1420 C   0  0  0  0  0  0  0  0  0  0  0  0
  139.9630   71.7150  223.0340 N   0  0  0  0  0  0  0  0  0  0  0  0
  139.5670   70.3560  222.6740 C   0  0  0  0  0  0  0  0  0  0  0  0
  138.4810   69.9990  223.6980 C   0  0  0  0  0  0  0  0  0  0  0  0
  139.1330   70.1250  225.0330 C   0  0  0  0  0  0  0  0  0  0  0  0
  138.6320   69.2810  226.0270 C   0  0  0  0  0  0  0  0  0  0  0  0
  139.1890   69.3440  227.2820 C   0  0  0  0  0  0  0  0  0  0  0  0
  140.2280   70.2280  227.5580 C   0  0  0  0  0  0  0  0  0  0  0  0
  140.7110   71.0540  226.5660 C   0  0  0  0  0  0  0  0  0  0  0  0
  140.1630   71.0100  225.2810 C   0  0  0  0  0  0  0  0  0  0  0  0
  140.7100   71.9190  224.2290 C   0  0  0  0  0  0  0  0  0  0  0  0
  138.5920   72.5930  221.2190 N   0  0  0  0  0  0  0  0  0  0  0  0
  137.4180   74.0360  218.0510 C   0  0  0  0  0  0  0  0  0  0  0  0
  141.0060   71.9140  217.2030 C   0  0  0  0  0  0  0  0  0  0  0  0
  142.0030   72.4230  218.0440 C   0  0  0  0  0  0  0  0  0  0  0  0
  141.8850   74.1040  220.8940 H   0  0  0  0  0  0  0  0  0  0  0  0
  142.9040   75.3640  221.3010 H   0  0  0  0  0  0  0  0  0  0  0  0
  141.4447   75.7368  217.6175 H   0  0  0  0  0  0  0  0  0  0  0  0
  139.7003   74.8258  216.1418 H   0  0  0  0  0  0  0  0  0  0  0  0
  139.4338   72.4608  214.5662 H   0  0  0  0  0  0  0  0  0  0  0  0
  138.8558   71.2890  215.8156 H   0  0  0  0  0  0  0  0  0  0  0  0
  138.0745   74.2434  215.6887 H   0  0  0  0  0  0  0  0  0  0  0  0
  137.0678   72.8920  215.0871 H   0  0  0  0  0  0  0  0  0  0  0  0
  137.6341   70.8743  217.2217 H   0  0  0  0  0  0  0  0  0  0  0  0
  138.9549   71.7592  217.9076 H   0  0  0  0  0  0  0  0  0  0  0  0
  136.0323   71.5202  218.9677 H   0  0  0  0  0  0  0  0  0  0  0  0
  137.4541   71.2237  219.9081 H   0  0  0  0  0  0  0  0  0  0  0  0
  136.2195   73.8014  219.7718 H   0  0  0  0  0  0  0  0  0  0  0  0
  142.1825   76.4940  220.2806 H   0  0  0  0  0  0  0  0  0  0  0  0
  140.5970   76.3592  219.4146 H   0  0  0  0  0  0  0  0  0  0  0  0
  141.6363   78.6557  219.4145 H   0  0  0  0  0  0  0  0  0  0  0  0
  139.9563   78.5485  220.0675 H   0  0  0  0  0  0  0  0  0  0  0  0
  142.3030   80.6125  220.5728 H   0  0  0  0  0  0  0  0  0  0  0  0
  143.0632   81.6382  222.7047 H   0  0  0  0  0  0  0  0  0  0  0  0
  142.6112   80.4089  224.8388 H   0  0  0  0  0  0  0  0  0  0  0  0
  141.4374   78.2386  224.8234 H   0  0  0  0  0  0  0  0  0  0  0  0
  141.0247   76.2583  223.4828 H   0  0  0  0  0  0  0  0  0  0  0  0
  139.4694   77.0836  223.0515 H   0  0  0  0  0  0  0  0  0  0  0  0
  139.1644   70.3247  221.6508 H   0  0  0  0  0  0  0  0  0  0  0  0
  140.4116   69.6515  222.6913 H   0  0  0  0  0  0  0  0  0  0  0  0
  137.6332   70.6952  223.6173 H   0  0  0  0  0  0  0  0  0  0  0  0
  138.0825   68.9871  223.5331 H   0  0  0  0  0  0  0  0  0  0  0  0
  137.8107   68.5821  225.8103 H   0  0  0  0  0  0  0  0  0  0  0  0
  138.8087   68.6874  228.0784 H   0  0  0  0  0  0  0  0  0  0  0  0
  140.6635   70.2674  228.5674 H   0  0  0  0  0  0  0  0  0  0  0  0
  141.5323   71.7517  226.7868 H   0  0  0  0  0  0  0  0  0  0  0  0
  140.6142   72.9654  224.5542 H   0  0  0  0  0  0  0  0  0  0  0  0
  141.7741   71.7018  224.0543 H   0  0  0  0  0  0  0  0  0  0  0  0
  136.6487   74.7879  217.8212 H   0  0  0  0  0  0  0  0  0  0  0  0
  138.3721   74.5829  218.0275 H   0  0  0  0  0  0  0  0  0  0  0  0
  140.8861   70.8264  217.0896 H   0  0  0  0  0  0  0  0  0  0  0  0
  142.6628   71.7313  218.5882 H   0  0  0  0  0  0  0  0  0  0  0  0
  1  2  1  0
  2  3  2  0
  2  4  2  0
  2  5  1  0
  5  6  2  0
  6  7  1  0
  7  8  2  0
  8  9  1  0
  9 10  1  0
 10 11  1  0
 11 12  1  0
 12 13  1  0
 13 14  1  0
 14 15  1  0
 15 16  2  0
 16 17  1  0
 17 18  1  0
 18 19  1  0
 19 20  1  0
 20 21  1  0
 21 22  2  0
 22 23  1  0
 23 24  2  0
 24 25  1  0
 25 26  2  0
 26 27  1  0
 17 28  2  0
 28 29  1  0
 29 30  1  0
 30 31  1  0
 31 32  1  0
 32 33  1  0
 33 34  2  0
 34 35  1  0
 35 36  2  0
 36 37  1  0
 37 38  2  0
 38 39  1  0
 29 40  2  0
 14 41  1  0
  8 42  1  0
 42 43  2  0
 43  5  1  0
 41 11  1  0
 40 15  1  0
 27 18  1  0
 39 30  1  0
 26 21  1  0
 38 33  1  0
  1 44  1  0
  1 45  1  0
  6 46  1  0
  7 47  1  0
  9 48  1  0
  9 49  1  0
 10 50  1  0
 10 51  1  0
 12 52  1  0
 12 53  1  0
 13 54  1  0
 13 55  1  0
 14 56  1  1
 19 57  1  0
 19 58  1  0
 20 59  1  0
 20 60  1  0
 22 61  1  0
 23 62  1  0
 24 63  1  0
 25 64  1  0
 27 65  1  0
 27 66  1  0
 31 67  1  0
 31 68  1  0
 32 69  1  0
 32 70  1  0
 34 71  1  0
 35 72  1  0
 36 73  1  0
 37 74  1  0
 39 75  1  0
 39 76  1  0
 41 77  1  0
 41 78  1  0
 42 79  1  0
 43 80  1  0
M  END
>  <smiles>  (62) 
NS(=O)(=O)c1ccc(CCN2CCC(c3nc(N4CCc5ccccc5C4)nc(N4CCc5ccccc5C4)n3)C2)cc1

>  <score_type>  (62) 
oracle

>  <origin>  (62) 
autodockgpu

>  <m_score__min__energy>  (62) 
-10.83

>  <m_primary>  (62) 
energy

>  <rmsd>  (62) 
8.220976310595761

>  <m_score__min__rmsd>  (62) 
8.220976310595761

>  <meeko>  (62) 
{"free_energy": -7.92, "intermolecular_energy": -10.31, "internal_energy": -3.49, "cluster_size": 4, "cluster_id": 9, "rank_in_cluster": 4}

>  <energy>  (62) 
-10.6

>  <cluster_rmsd>  (62) 
0.0

>  <cluster>  (62) 
4

$$$$

     RDKit          3D

 80 86  0  0  1  0  0  0  0  0999 V2000
  145.5850   73.1340  218.4940 N   0  0  0  0  0  0  0  0  0  0  0  0
  145.1180   73.3600  220.1570 S   0  0  0  0  0  0  0  0  0  0  0  0
  144.7330   71.9980  220.6960 O   0  0  0  0  0  0  0  0  0  0  0  0
  146.2490   73.9570  220.9390 O   0  0  0  0  0  0  0  0  0  0  0  0
  143.7460   74.4230  220.2710 C   0  0  0  0  0  0  0  0  0  0  0  0
  142.6370   73.9720  220.9530 C   0  0  0  0  0  0  0  0  0  0  0  0
  141.5310   74.7820  221.0650 C   0  0  0  0  0  0  0  0  0  0  0  0
  141.4850   76.0510  220.5120 C   0  0  0  0  0  0  0  0  0  0  0  0
  140.2390   76.8230  220.7030 C   0  0  0  0  0  0  0  0  0  0  0  0
  139.4560   76.9290  219.3990 C   0  0  0  0  0  0  0  0  0  0  0  0
  139.0000   75.6370  219.0420 N   0  0  0  0  0  0  0  0  0  0  0  0
  139.8500   74.8880  218.1840 C   0  0  0  0  0  0  0  0  0  0  0  0
  138.9850   73.6380  217.9780 C   0  0  0  0  0  0  0  0  0  0  0  0
  138.4520   73.4500  219.4000 C   0  0  1  0  0  0  0  0  0  0  0  0
  139.2770   72.3830  220.0270 C   0  0  0  0  0  0  0  0  0  0  0  0
  139.1550   72.0910  221.3380 N   0  0  0  0  0  0  0  0  0  0  0  0
  139.8820   71.1320  221.9590 C   0  0  0  0  0  0  0  0  0  0  0  0
  139.7270   70.8430  223.3480 N   0  0  0  0  0  0  0  0  0  0  0  0
  138.6570   69.9610  223.7440 C   0  0  0  0  0  0  0  0  0  0  0  0
  139.0530   69.1050  224.9210 C   0  0  0  0  0  0  0  0  0  0  0  0
  139.6250   69.9360  226.0030 C   0  0  0  0  0  0  0  0  0  0  0  0
  139.4150   69.6160  227.3270 C   0  0  0  0  0  0  0  0  0  0  0  0
  139.9380   70.3770  228.3480 C   0  0  0  0  0  0  0  0  0  0  0  0
  140.6940   71.4930  227.9890 C   0  0  0  0  0  0  0  0  0  0  0  0
  140.9100   71.8220  226.6670 C   0  0  0  0  0  0  0  0  0  0  0  0
  140.3750   71.0430  225.6670 C   0  0  0  0  0  0  0  0  0  0  0  0
  140.6450   71.4520  224.2640 C   0  0  0  0  0  0  0  0  0  0  0  0
  140.7740   70.4500  221.1860 N   0  0  0  0  0  0  0  0  0  0  0  0
  140.9330   70.7040  219.8750 C   0  0  0  0  0  0  0  0  0  0  0  0
  141.8850   69.9500  219.1360 N   0  0  0  0  0  0  0  0  0  0  0  0
  141.3780   68.7760  218.4310 C   0  0  0  0  0  0  0  0  0  0  0  0
  141.9410   67.5890  219.2240 C   0  0  0  0  0  0  0  0  0  0  0  0
  143.4240   67.7490  219.1820 C   0  0  0  0  0  0  0  0  0  0  0  0
  144.1550   66.5600  219.2320 C   0  0  0  0  0  0  0  0  0  0  0  0
  145.5280   66.6340  219.1960 C   0  0  0  0  0  0  0  0  0  0  0  0
  146.1740   67.8630  219.1120 C   0  0  0  0  0  0  0  0  0  0  0  0
  145.4370   69.0270  219.0630 C   0  0  0  0  0  0  0  0  0  0  0  0
  144.0400   68.9810  219.0980 C   0  0  0  0  0  0  0  0  0  0  0  0
  143.2710   70.2600  219.0430 C   0  0  0  0  0  0  0  0  0  0  0  0
  140.1720   71.6730  219.3300 N   0  0  0  0  0  0  0  0  0  0  0  0
  138.5550   74.7820  220.0880 C   0  0  0  0  0  0  0  0  0  0  0  0
  142.5890   76.5040  219.8310 C   0  0  0  0  0  0  0  0  0  0  0  0
  143.7230   75.6920  219.7080 C   0  0  0  0  0  0  0  0  0  0  0  0
  146.0840   72.1950  218.4560 H   0  0  0  0  0  0  0  0  0  0  0  0
  146.3450   73.8350  218.2690 H   0  0  0  0  0  0  0  0  0  0  0  0
  142.6361   72.9694  221.4055 H   0  0  0  0  0  0  0  0  0  0  0  0
  140.6529   74.4091  221.6126 H   0  0  0  0  0  0  0  0  0  0  0  0
  139.6159   76.3194  221.4567 H   0  0  0  0  0  0  0  0  0  0  0  0
  140.5031   77.8374  221.0364 H   0  0  0  0  0  0  0  0  0  0  0  0
  138.5961   77.6011  219.5362 H   0  0  0  0  0  0  0  0  0  0  0  0
  140.1002   77.3340  218.6046 H   0  0  0  0  0  0  0  0  0  0  0  0
  140.0398   75.4139  217.2367 H   0  0  0  0  0  0  0  0  0  0  0  0
  140.8568   74.6944  218.5826 H   0  0  0  0  0  0  0  0  0  0  0  0
  138.1732   73.8169  217.2576 H   0  0  0  0  0  0  0  0  0  0  0  0
  139.5162   72.7690  217.5625 H   0  0  0  0  0  0  0  0  0  0  0  0
  137.3998   73.1339  219.4540 H   0  0  0  0  0  0  0  0  0  0  0  0
  137.7799   70.5647  224.0201 H   0  0  0  0  0  0  0  0  0  0  0  0
  138.4253   69.2979  222.8975 H   0  0  0  0  0  0  0  0  0  0  0  0
  138.1643   68.5796  225.3006 H   0  0  0  0  0  0  0  0  0  0  0  0
  139.8128   68.3809  224.5919 H   0  0  0  0  0  0  0  0  0  0  0  0
  138.8135   68.7289  227.5745 H   0  0  0  0  0  0  0  0  0  0  0  0
  139.7669   70.1160  229.4028 H   0  0  0  0  0  0  0  0  0  0  0  0
  141.1277   72.1249  228.7780 H   0  0  0  0  0  0  0  0  0  0  0  0
  141.5104   72.7077  226.4121 H   0  0  0  0  0  0  0  0  0  0  0  0
  140.5523   72.5454  224.1874 H   0  0  0  0  0  0  0  0  0  0  0  0
  141.6610   71.1229  224.0006 H   0  0  0  0  0  0  0  0  0  0  0  0
  140.2781   68.7624  218.4364 H   0  0  0  0  0  0  0  0  0  0  0  0
  141.6790   68.7570  217.3732 H   0  0  0  0  0  0  0  0  0  0  0  0
  141.5808   67.6153  220.2630 H   0  0  0  0  0  0  0  0  0  0  0  0
  141.6222   66.6260  218.7986 H   0  0  0  0  0  0  0  0  0  0  0  0
  143.6449   65.5877  219.2986 H   0  0  0  0  0  0  0  0  0  0  0  0
  146.1228   65.7095  219.2341 H   0  0  0  0  0  0  0  0  0  0  0  0
  147.2728   67.9061  219.0847 H   0  0  0  0  0  0  0  0  0  0  0  0
  145.9508   69.9973  218.9960 H   0  0  0  0  0  0  0  0  0  0  0  0
  143.5648   70.9075  219.8822 H   0  0  0  0  0  0  0  0  0  0  0  0
  143.4797   70.7886  218.1012 H   0  0  0  0  0  0  0  0  0  0  0  0
  137.5779   75.1050  220.4765 H   0  0  0  0  0  0  0  0  0  0  0  0
  139.2242   74.7733  220.9610 H   0  0  0  0  0  0  0  0  0  0  0  0
  142.5819   77.5077  219.3810 H   0  0  0  0  0  0  0  0  0  0  0  0
  144.6026   76.0623  219.1610 H   0  0  0  0  0  0  0  0  0  0  0  0
  1  2  1  0
  2  3  2  0
  2  4  2  0
  2  5  1  0
  5  6  2  0
  6  7  1  0
  7  8  2  0
  8  9  1  0
  9 10  1  0
 10 11  1  0
 11 12  1  0
 12 13  1  0
 13 14  1  0
 14 15  1  0
 15 16  2  0
 16 17  1  0
 17 18  1  0
 18 19  1  0
 19 20  1  0
 20 21  1  0
 21 22  2  0
 22 23  1  0
 23 24  2  0
 24 25  1  0
 25 26  2  0
 26 27  1  0
 17 28  2  0
 28 29  1  0
 29 30  1  0
 30 31  1  0
 31 32  1  0
 32 33  1  0
 33 34  2  0
 34 35  1  0
 35 36  2  0
 36 37  1  0
 37 38  2  0
 38 39  1  0
 29 40  2  0
 14 41  1  0
  8 42  1  0
 42 43  2  0
 43  5  1  0
 41 11  1  0
 40 15  1  0
 27 18  1  0
 39 30  1  0
 26 21  1  0
 38 33  1  0
  1 44  1  0
  1 45  1  0
  6 46  1  0
  7 47  1  0
  9 48  1  0
  9 49  1  0
 10 50  1  0
 10 51  1  0
 12 52  1  0
 12 53  1  0
 13 54  1  0
 13 55  1  0
 14 56  1  6
 19 57  1  0
 19 58  1  0
 20 59  1  0
 20 60  1  0
 22 61  1  0
 23 62  1  0
 24 63  1  0
 25 64  1  0
 27 65  1  0
 27 66  1  0
 31 67  1  0
 31 68  1  0
 32 69  1  0
 32 70  1  0
 34 71  1  0
 35 72  1  0
 36 73  1  0
 37 74  1  0
 39 75  1  0
 39 76  1  0
 41 77  1  0
 41 78  1  0
 42 79  1  0
 43 80  1  0
M  END
>  <smiles>  (63) 
NS(=O)(=O)c1ccc(CCN2CCC(c3nc(N4CCc5ccccc5C4)nc(N4CCc5ccccc5C4)n3)C2)cc1

>  <score_type>  (63) 
oracle

>  <origin>  (63) 
autodockgpu

>  <m_score__min__energy>  (63) 
-10.83

>  <m_primary>  (63) 
energy

>  <rmsd>  (63) 
5.654713750172059

>  <m_score__min__rmsd>  (63) 
5.654713750172059

>  <meeko>  (63) 
{"free_energy": -9.69, "intermolecular_energy": -12.07, "internal_energy": -2.86, "cluster_size": 2, "cluster_id": 7, "rank_in_cluster": 2}

>  <energy>  (63) 
-10.44

>  <cluster_rmsd>  (63) 
0.94

>  <cluster>  (63) 
4

$$$$

     RDKit          3D

 80 86  0  0  1  0  0  0  0  0999 V2000
  145.9790   73.3450  218.2950 N   0  0  0  0  0  0  0  0  0  0  0  0
  145.4960   73.3960  219.9680 S   0  0  0  0  0  0  0  0  0  0  0  0
  145.2020   71.9710  220.3850 O   0  0  0  0  0  0  0  0  0  0  0  0
  146.5850   73.9980  220.8060 O   0  0  0  0  0  0  0  0  0  0  0  0
  144.0570   74.3540  220.1620 C   0  0  0  0  0  0  0  0  0  0  0  0
  144.0590   75.6320  219.6450 C   0  0  0  0  0  0  0  0  0  0  0  0
  142.9410   76.4210  219.7790 C   0  0  0  0  0  0  0  0  0  0  0  0
  141.7970   75.9800  220.4210 C   0  0  0  0  0  0  0  0  0  0  0  0
  140.6620   76.9240  220.4980 C   0  0  0  0  0  0  0  0  0  0  0  0
  139.9000   76.9730  219.1790 C   0  0  0  0  0  0  0  0  0  0  0  0
  139.2780   75.7180  218.9730 N   0  0  0  0  0  0  0  0  0  0  0  0
  139.9290   74.8380  218.0660 C   0  0  0  0  0  0  0  0  0  0  0  0
  138.9280   73.6760  218.0580 C   0  0  0  0  0  0  0  0  0  0  0  0
  138.5760   73.6230  219.5460 C   0  0  1  0  0  0  0  0  0  0  0  0
  139.3710   72.5120  220.1340 C   0  0  0  0  0  0  0  0  0  0  0  0
  139.2530   72.1880  221.4380 N   0  0  0  0  0  0  0  0  0  0  0  0
  139.9540   71.1880  222.0240 C   0  0  0  0  0  0  0  0  0  0  0  0
  139.8030   70.8660  223.4070 N   0  0  0  0  0  0  0  0  0  0  0  0
  138.7910   69.9080  223.7760 C   0  0  0  0  0  0  0  0  0  0  0  0
  139.2300   69.0600  224.9420 C   0  0  0  0  0  0  0  0  0  0  0  0
  139.7350   69.9090  226.0450 C   0  0  0  0  0  0  0  0  0  0  0  0
  139.5330   69.5530  227.3610 C   0  0  0  0  0  0  0  0  0  0  0  0
  139.9940   70.3290  228.3990 C   0  0  0  0  0  0  0  0  0  0  0  0
  140.6780   71.4980  228.0680 C   0  0  0  0  0  0  0  0  0  0  0  0
  140.8850   71.8640  226.7540 C   0  0  0  0  0  0  0  0  0  0  0  0
  140.4130   71.0680  225.7350 C   0  0  0  0  0  0  0  0  0  0  0  0
  140.6710   71.5190  224.3430 C   0  0  0  0  0  0  0  0  0  0  0  0
  140.8140   70.4980  221.2220 N   0  0  0  0  0  0  0  0  0  0  0  0
  140.9680   70.7840  219.9170 C   0  0  0  0  0  0  0  0  0  0  0  0
  141.8860   70.0190  219.1470 N   0  0  0  0  0  0  0  0  0  0  0  0
  141.3550   68.8200  218.5040 C   0  0  0  0  0  0  0  0  0  0  0  0
  141.9770   67.6630  219.2970 C   0  0  0  0  0  0  0  0  0  0  0  0
  143.4520   67.8370  219.1670 C   0  0  0  0  0  0  0  0  0  0  0  0
  144.2010   66.6590  219.2090 C   0  0  0  0  0  0  0  0  0  0  0  0
  145.5680   66.7460  219.0930 C   0  0  0  0  0  0  0  0  0  0  0  0
  146.1930   67.9800  218.9380 C   0  0  0  0  0  0  0  0  0  0  0  0
  145.4400   69.1330  218.8990 C   0  0  0  0  0  0  0  0  0  0  0  0
  144.0470   69.0730  219.0140 C   0  0  0  0  0  0  0  0  0  0  0  0
  143.2610   70.3420  218.9670 C   0  0  0  0  0  0  0  0  0  0  0  0
  140.2340   71.7930  219.4070 N   0  0  0  0  0  0  0  0  0  0  0  0
  138.8980   74.9730  220.1230 C   0  0  0  0  0  0  0  0  0  0  0  0
  141.7910   74.7070  220.9380 C   0  0  0  0  0  0  0  0  0  0  0  0
  142.9200   73.8900  220.8110 C   0  0  0  0  0  0  0  0  0  0  0  0
  145.9570   74.3510  217.9540 H   0  0  0  0  0  0  0  0  0  0  0  0
  145.2070   72.8730  217.7450 H   0  0  0  0  0  0  0  0  0  0  0  0
  144.9499   76.0183  219.1283 H   0  0  0  0  0  0  0  0  0  0  0  0
  142.9563   77.4385  219.3613 H   0  0  0  0  0  0  0  0  0  0  0  0
  139.9782   76.5997  221.2963 H   0  0  0  0  0  0  0  0  0  0  0  0
  141.0563   77.9284  220.7117 H   0  0  0  0  0  0  0  0  0  0  0  0
  139.1361   77.7634  219.2209 H   0  0  0  0  0  0  0  0  0  0  0  0
  140.5916   77.1913  218.3519 H   0  0  0  0  0  0  0  0  0  0  0  0
  140.0397   75.2884  217.0686 H   0  0  0  0  0  0  0  0  0  0  0  0
  140.9568   74.5624  218.3448 H   0  0  0  0  0  0  0  0  0  0  0  0
  138.0476   73.8991  217.4374 H   0  0  0  0  0  0  0  0  0  0  0  0
  139.3120   72.7348  217.6376 H   0  0  0  0  0  0  0  0  0  0  0  0
  137.5151   73.4216  219.7555 H   0  0  0  0  0  0  0  0  0  0  0  0
  137.8727   70.4470  224.0521 H   0  0  0  0  0  0  0  0  0  0  0  0
  138.6137   69.2457  222.9158 H   0  0  0  0  0  0  0  0  0  0  0  0
  138.3740   68.4707  225.3026 H   0  0  0  0  0  0  0  0  0  0  0  0
  140.0392   68.3931  224.6098 H   0  0  0  0  0  0  0  0  0  0  0  0
  138.9890   68.6241  227.5872 H   0  0  0  0  0  0  0  0  0  0  0  0
  139.8297   70.0391  229.4473 H   0  0  0  0  0  0  0  0  0  0  0  0
  141.0612   72.1429  228.8725 H   0  0  0  0  0  0  0  0  0  0  0  0
  141.4273   72.7921  226.5206 H   0  0  0  0  0  0  0  0  0  0  0  0
  140.5076   72.6052  224.2836 H   0  0  0  0  0  0  0  0  0  0  0  0
  141.7094   71.2632  224.0854 H   0  0  0  0  0  0  0  0  0  0  0  0
  140.2574   68.7942  218.5718 H   0  0  0  0  0  0  0  0  0  0  0  0
  141.5959   68.7743  217.4317 H   0  0  0  0  0  0  0  0  0  0  0  0
  141.6756   67.7156  220.3536 H   0  0  0  0  0  0  0  0  0  0  0  0
  141.6470   66.6848  218.9173 H   0  0  0  0  0  0  0  0  0  0  0  0
  143.7081   65.6834  219.3321 H   0  0  0  0  0  0  0  0  0  0  0  0
  146.1753   65.8293  219.1230 H   0  0  0  0  0  0  0  0  0  0  0  0
  147.2878   68.0346  218.8467 H   0  0  0  0  0  0  0  0  0  0  0  0
  145.9370   70.1067  218.7767 H   0  0  0  0  0  0  0  0  0  0  0  0
  143.5936   71.0163  219.7700 H   0  0  0  0  0  0  0  0  0  0  0  0
  143.4101   70.8464  218.0009 H   0  0  0  0  0  0  0  0  0  0  0  0
  138.0176   75.4168  220.6108 H   0  0  0  0  0  0  0  0  0  0  0  0
  139.6746   74.9427  220.9015 H   0  0  0  0  0  0  0  0  0  0  0  0
  140.8958   74.3288  221.4534 H   0  0  0  0  0  0  0  0  0  0  0  0
  142.9069   72.8724  221.2284 H   0  0  0  0  0  0  0  0  0  0  0  0
  1  2  1  0
  2  3  2  0
  2  4  2  0
  2  5  1  0
  5  6  2  0
  6  7  1  0
  7  8  2  0
  8  9  1  0
  9 10  1  0
 10 11  1  0
 11 12  1  0
 12 13  1  0
 13 14  1  0
 14 15  1  0
 15 16  2  0
 16 17  1  0
 17 18  1  0
 18 19  1  0
 19 20  1  0
 20 21  1  0
 21 22  2  0
 22 23  1  0
 23 24  2  0
 24 25  1  0
 25 26  2  0
 26 27  1  0
 17 28  2  0
 28 29  1  0
 29 30  1  0
 30 31  1  0
 31 32  1  0
 32 33  1  0
 33 34  2  0
 34 35  1  0
 35 36  2  0
 36 37  1  0
 37 38  2  0
 38 39  1  0
 29 40  2  0
 14 41  1  0
  8 42  1  0
 42 43  2  0
 43  5  1  0
 41 11  1  0
 40 15  1  0
 27 18  1  0
 39 30  1  0
 26 21  1  0
 38 33  1  0
  1 44  1  0
  1 45  1  0
  6 46  1  0
  7 47  1  0
  9 48  1  0
  9 49  1  0
 10 50  1  0
 10 51  1  0
 12 52  1  0
 12 53  1  0
 13 54  1  0
 13 55  1  0
 14 56  1  6
 19 57  1  0
 19 58  1  0
 20 59  1  0
 20 60  1  0
 22 61  1  0
 23 62  1  0
 24 63  1  0
 25 64  1  0
 27 65  1  0
 27 66  1  0
 31 67  1  0
 31 68  1  0
 32 69  1  0
 32 70  1  0
 34 71  1  0
 35 72  1  0
 36 73  1  0
 37 74  1  0
 39 75  1  0
 39 76  1  0
 41 77  1  0
 41 78  1  0
 42 79  1  0
 43 80  1  0
M  END
>  <smiles>  (64) 
NS(=O)(=O)c1ccc(CCN2CCC(c3nc(N4CCc5ccccc5C4)nc(N4CCc5ccccc5C4)n3)C2)cc1

>  <score_type>  (64) 
oracle

>  <origin>  (64) 
autodockgpu

>  <m_score__min__energy>  (64) 
-10.83

>  <m_primary>  (64) 
energy

>  <rmsd>  (64) 
5.726296055493774

>  <m_score__min__rmsd>  (64) 
5.726296055493774

>  <meeko>  (64) 
{"free_energy": -10.11, "intermolecular_energy": -12.5, "internal_energy": -2.75, "cluster_size": 2, "cluster_id": 7, "rank_in_cluster": 1}

>  <energy>  (64) 
-10.17

>  <cluster_rmsd>  (64) 
1.87

>  <cluster>  (64) 
4

$$$$

     RDKit          3D

 80 86  0  0  1  0  0  0  0  0999 V2000
  141.1230   72.0050  228.0950 N   0  0  0  0  0  0  0  0  0  0  0  0
  140.3980   70.4220  228.0670 S   0  0  0  0  0  0  0  0  0  0  0  0
  141.4580   69.4440  228.5260 O   0  0  0  0  0  0  0  0  0  0  0  0
  139.1950   70.3830  228.9610 O   0  0  0  0  0  0  0  0  0  0  0  0
  139.9010   70.0030  226.4530 C   0  0  0  0  0  0  0  0  0  0  0  0
  140.3050   70.8230  225.4220 C   0  0  0  0  0  0  0  0  0  0  0  0
  139.9320   70.5270  224.1310 C   0  0  0  0  0  0  0  0  0  0  0  0
  139.1550   69.4230  223.8210 C   0  0  0  0  0  0  0  0  0  0  0  0
  138.8230   69.2140  222.3960 C   0  0  0  0  0  0  0  0  0  0  0  0
  137.3340   69.4180  222.1460 C   0  0  0  0  0  0  0  0  0  0  0  0
  137.1080   70.7890  221.8710 N   0  0  0  0  0  0  0  0  0  0  0  0
  137.3460   71.6900  222.9440 C   0  0  0  0  0  0  0  0  0  0  0  0
  136.9170   73.0070  222.2850 C   0  0  0  0  0  0  0  0  0  0  0  0
  137.5130   72.8100  220.8910 C   0  0  1  0  0  0  0  0  0  0  0  0
  138.7840   73.5810  220.8560 C   0  0  0  0  0  0  0  0  0  0  0  0
  139.9530   72.9820  220.5480 N   0  0  0  0  0  0  0  0  0  0  0  0
  141.1380   73.6350  220.5050 C   0  0  0  0  0  0  0  0  0  0  0  0
  142.3570   72.9730  220.1720 N   0  0  0  0  0  0  0  0  0  0  0  0
  143.4720   73.7790  219.7380 C   0  0  0  0  0  0  0  0  0  0  0  0
  144.7850   73.2090  220.2120 C   0  0  0  0  0  0  0  0  0  0  0  0
  144.8770   71.7680  219.8880 C   0  0  0  0  0  0  0  0  0  0  0  0
  146.0840   71.1950  219.5480 C   0  0  0  0  0  0  0  0  0  0  0  0
  146.1890   69.8570  219.2430 C   0  0  0  0  0  0  0  0  0  0  0  0
  145.0210   69.0970  219.2900 C   0  0  0  0  0  0  0  0  0  0  0  0
  143.8090   69.6610  219.6300 C   0  0  0  0  0  0  0  0  0  0  0  0
  143.7320   71.0020  219.9310 C   0  0  0  0  0  0  0  0  0  0  0  0
  142.3960   71.5450  220.2880 C   0  0  0  0  0  0  0  0  0  0  0  0
  141.1080   74.9670  220.7970 N   0  0  0  0  0  0  0  0  0  0  0  0
  139.9690   75.6100  221.1110 C   0  0  0  0  0  0  0  0  0  0  0  0
  140.0200   77.0000  221.4040 N   0  0  0  0  0  0  0  0  0  0  0  0
  140.1940   77.8980  220.2650 C   0  0  0  0  0  0  0  0  0  0  0  0
  141.6290   78.4220  220.4180 C   0  0  0  0  0  0  0  0  0  0  0  0
  141.6700   79.0900  221.7500 C   0  0  0  0  0  0  0  0  0  0  0  0
  142.5690   80.1540  221.8590 C   0  0  0  0  0  0  0  0  0  0  0  0
  142.6580   80.8170  223.0600 C   0  0  0  0  0  0  0  0  0  0  0  0
  141.8720   80.4370  224.1440 C   0  0  0  0  0  0  0  0  0  0  0  0
  140.9890   79.3850  224.0200 C   0  0  0  0  0  0  0  0  0  0  0  0
  140.8790   78.6940  222.8090 C   0  0  0  0  0  0  0  0  0  0  0  0
  139.9130   77.5590  222.7090 C   0  0  0  0  0  0  0  0  0  0  0  0
  138.8300   74.8900  221.1310 N   0  0  0  0  0  0  0  0  0  0  0  0
  137.6930   71.3310  220.6930 C   0  0  0  0  0  0  0  0  0  0  0  0
  138.7510   68.6030  224.8470 C   0  0  0  0  0  0  0  0  0  0  0  0
  139.1220   68.8900  226.1650 C   0  0  0  0  0  0  0  0  0  0  0  0
  140.4620   72.6190  228.6580 H   0  0  0  0  0  0  0  0  0  0  0  0
  141.0720   72.4070  227.1170 H   0  0  0  0  0  0  0  0  0  0  0  0
  140.9223   71.7094  225.6298 H   0  0  0  0  0  0  0  0  0  0  0  0
  140.2621   71.1897  223.3174 H   0  0  0  0  0  0  0  0  0  0  0  0
  139.3917   69.9308  221.7854 H   0  0  0  0  0  0  0  0  0  0  0  0
  139.0856   68.1813  222.1231 H   0  0  0  0  0  0  0  0  0  0  0  0
  137.0153   68.8098  221.2866 H   0  0  0  0  0  0  0  0  0  0  0  0
  136.7577   69.1113  223.0313 H   0  0  0  0  0  0  0  0  0  0  0  0
  136.7273   71.4521  223.8218 H   0  0  0  0  0  0  0  0  0  0  0  0
  138.3732   71.6815  223.3373 H   0  0  0  0  0  0  0  0  0  0  0  0
  135.8223   73.1091  222.2507 H   0  0  0  0  0  0  0  0  0  0  0  0
  137.2482   73.9168  222.8071 H   0  0  0  0  0  0  0  0  0  0  0  0
  136.8785   73.1753  220.0700 H   0  0  0  0  0  0  0  0  0  0  0  0
  143.4765   73.8203  218.6388 H   0  0  0  0  0  0  0  0  0  0  0  0
  143.3579   74.7851  220.1678 H   0  0  0  0  0  0  0  0  0  0  0  0
  145.6100   73.7435  219.7183 H   0  0  0  0  0  0  0  0  0  0  0  0
  144.8502   73.3310  221.3033 H   0  0  0  0  0  0  0  0  0  0  0  0
  146.9864   71.8234  219.5198 H   0  0  0  0  0  0  0  0  0  0  0  0
  147.1551   69.4056  218.9731 H   0  0  0  0  0  0  0  0  0  0  0  0
  145.0671   68.0243  219.0507 H   0  0  0  0  0  0  0  0  0  0  0  0
  142.9028   69.0383  219.6607 H   0  0  0  0  0  0  0  0  0  0  0  0
  141.6430   71.1116  219.6133 H   0  0  0  0  0  0  0  0  0  0  0  0
  142.1860   71.2797  221.3347 H   0  0  0  0  0  0  0  0  0  0  0  0
  140.0761   77.3534  219.3166 H   0  0  0  0  0  0  0  0  0  0  0  0
  139.4486   78.7067  220.2469 H   0  0  0  0  0  0  0  0  0  0  0  0
  142.3477   77.5900  220.3831 H   0  0  0  0  0  0  0  0  0  0  0  0
  141.8992   79.1137  219.6065 H   0  0  0  0  0  0  0  0  0  0  0  0
  143.1914   80.4544  221.0032 H   0  0  0  0  0  0  0  0  0  0  0  0
  143.3590   81.6581  223.1656 H   0  0  0  0  0  0  0  0  0  0  0  0
  141.9551   80.9757  225.0994 H   0  0  0  0  0  0  0  0  0  0  0  0
  140.3680   79.0878  224.8779 H   0  0  0  0  0  0  0  0  0  0  0  0
  140.1558   76.7954  223.4626 H   0  0  0  0  0  0  0  0  0  0  0  0
  138.8876   77.9147  222.8880 H   0  0  0  0  0  0  0  0  0  0  0  0
  137.1666   70.9837  219.7918 H   0  0  0  0  0  0  0  0  0  0  0  0
  138.7416   71.0326  220.5470 H   0  0  0  0  0  0  0  0  0  0  0  0
  138.1340   67.7182  224.6313 H   0  0  0  0  0  0  0  0  0  0  0  0
  138.7938   68.2284  226.9802 H   0  0  0  0  0  0  0  0  0  0  0  0
  1  2  1  0
  2  3  2  0
  2  4  2  0
  2  5  1  0
  5  6  2  0
  6  7  1  0
  7  8  2  0
  8  9  1  0
  9 10  1  0
 10 11  1  0
 11 12  1  0
 12 13  1  0
 13 14  1  0
 14 15  1  0
 15 16  2  0
 16 17  1  0
 17 18  1  0
 18 19  1  0
 19 20  1  0
 20 21  1  0
 21 22  2  0
 22 23  1  0
 23 24  2  0
 24 25  1  0
 25 26  2  0
 26 27  1  0
 17 28  2  0
 28 29  1  0
 29 30  1  0
 30 31  1  0
 31 32  1  0
 32 33  1  0
 33 34  2  0
 34 35  1  0
 35 36  2  0
 36 37  1  0
 37 38  2  0
 38 39  1  0
 29 40  2  0
 14 41  1  0
  8 42  1  0
 42 43  2  0
 43  5  1  0
 41 11  1  0
 40 15  1  0
 27 18  1  0
 39 30  1  0
 26 21  1  0
 38 33  1  0
  1 44  1  0
  1 45  1  0
  6 46  1  0
  7 47  1  0
  9 48  1  0
  9 49  1  0
 10 50  1  0
 10 51  1  0
 12 52  1  0
 12 53  1  0
 13 54  1  0
 13 55  1  0
 14 56  1  6
 19 57  1  0
 19 58  1  0
 20 59  1  0
 20 60  1  0
 22 61  1  0
 23 62  1  0
 24 63  1  0
 25 64  1  0
 27 65  1  0
 27 66  1  0
 31 67  1  0
 31 68  1  0
 32 69  1  0
 32 70  1  0
 34 71  1  0
 35 72  1  0
 36 73  1  0
 37 74  1  0
 39 75  1  0
 39 76  1  0
 41 77  1  0
 41 78  1  0
 42 79  1  0
 43 80  1  0
M  END
>  <smiles>  (65) 
NS(=O)(=O)c1ccc(CCN2CCC(c3nc(N4CCc5ccccc5C4)nc(N4CCc5ccccc5C4)n3)C2)cc1

>  <score_type>  (65) 
oracle

>  <origin>  (65) 
autodockgpu

>  <m_score__min__energy>  (65) 
-10.83

>  <m_primary>  (65) 
energy

>  <rmsd>  (65) 
10.340741885599979

>  <m_score__min__rmsd>  (65) 
10.340741885599979

>  <meeko>  (65) 
{"free_energy": -9.65, "intermolecular_energy": -12.04, "internal_energy": -1.83, "cluster_size": 5, "cluster_id": 5, "rank_in_cluster": 4}

>  <energy>  (65) 
-10.17

>  <cluster_rmsd>  (65) 
1.41

>  <cluster>  (65) 
4

$$$$

     RDKit          3D

 80 86  0  0  1  0  0  0  0  0999 V2000
  140.7010   81.8430  221.9870 N   0  0  0  0  0  0  0  0  0  0  0  0
  141.5460   80.4260  222.5470 S   0  0  0  0  0  0  0  0  0  0  0  0
  142.9030   80.8870  223.0350 O   0  0  0  0  0  0  0  0  0  0  0  0
  140.7700   79.7550  223.6410 O   0  0  0  0  0  0  0  0  0  0  0  0
  141.7660   79.2890  221.2490 C   0  0  0  0  0  0  0  0  0  0  0  0
  142.0480   79.7900  219.9960 C   0  0  0  0  0  0  0  0  0  0  0  0
  142.2290   78.9230  218.9430 C   0  0  0  0  0  0  0  0  0  0  0  0
  142.1360   77.5500  219.0910 C   0  0  0  0  0  0  0  0  0  0  0  0
  142.3510   76.7270  217.8810 C   0  0  0  0  0  0  0  0  0  0  0  0
  143.6910   76.0040  217.9440 C   0  0  0  0  0  0  0  0  0  0  0  0
  143.5280   74.8210  218.7060 N   0  0  0  0  0  0  0  0  0  0  0  0
  143.9120   74.9000  220.0720 C   0  0  0  0  0  0  0  0  0  0  0  0
  143.6710   73.4470  220.5000 C   0  0  0  0  0  0  0  0  0  0  0  0
  142.3600   73.1700  219.7630 C   0  0  1  0  0  0  0  0  0  0  0  0
  141.2690   73.3080  220.7660 C   0  0  0  0  0  0  0  0  0  0  0  0
  141.0890   72.3800  221.7280 N   0  0  0  0  0  0  0  0  0  0  0  0
  140.1120   72.4550  222.6630 C   0  0  0  0  0  0  0  0  0  0  0  0
  139.9490   71.4590  223.6710 N   0  0  0  0  0  0  0  0  0  0  0  0
  138.9280   70.4590  223.4810 C   0  0  0  0  0  0  0  0  0  0  0  0
  139.3530   69.1220  224.0320 C   0  0  0  0  0  0  0  0  0  0  0  0
  139.8550   69.2620  225.4170 C   0  0  0  0  0  0  0  0  0  0  0  0
  139.6410   68.2710  226.3510 C   0  0  0  0  0  0  0  0  0  0  0  0
  140.1000   68.3850  227.6440 C   0  0  0  0  0  0  0  0  0  0  0  0
  140.7940   69.5470  227.9760 C   0  0  0  0  0  0  0  0  0  0  0  0
  141.0130   70.5450  227.0480 C   0  0  0  0  0  0  0  0  0  0  0  0
  140.5430   70.4050  225.7620 C   0  0  0  0  0  0  0  0  0  0  0  0
  140.8140   71.5160  224.8130 C   0  0  0  0  0  0  0  0  0  0  0  0
  139.2860   73.5390  222.5930 N   0  0  0  0  0  0  0  0  0  0  0  0
  139.4250   74.4900  221.6520 C   0  0  0  0  0  0  0  0  0  0  0  0
  138.5230   75.5890  221.6450 N   0  0  0  0  0  0  0  0  0  0  0  0
  137.7730   75.8050  220.4100 C   0  0  0  0  0  0  0  0  0  0  0  0
  138.3910   77.0770  219.8140 C   0  0  0  0  0  0  0  0  0  0  0  0
  138.2060   78.1350  220.8490 C   0  0  0  0  0  0  0  0  0  0  0  0
  138.0700   79.4350  220.3580 C   0  0  0  0  0  0  0  0  0  0  0  0
  137.8940   80.4600  221.2580 C   0  0  0  0  0  0  0  0  0  0  0  0
  137.8530   80.2080  222.6260 C   0  0  0  0  0  0  0  0  0  0  0  0
  137.9880   78.9190  223.0930 C   0  0  0  0  0  0  0  0  0  0  0  0
  138.1680   77.8580  222.2000 C   0  0  0  0  0  0  0  0  0  0  0  0
  138.3110   76.4730  222.7410 C   0  0  0  0  0  0  0  0  0  0  0  0
  140.4230   74.3440  220.7580 N   0  0  0  0  0  0  0  0  0  0  0  0
  142.2740   74.1560  218.6320 C   0  0  0  0  0  0  0  0  0  0  0  0
  141.8540   77.0480  220.3380 C   0  0  0  0  0  0  0  0  0  0  0  0
  141.6680   77.9150  221.4210 C   0  0  0  0  0  0  0  0  0  0  0  0
  139.8750   81.9690  222.6440 H   0  0  0  0  0  0  0  0  0  0  0  0
  140.2530   81.6110  221.0560 H   0  0  0  0  0  0  0  0  0  0  0  0
  142.1278   80.8758  219.8391 H   0  0  0  0  0  0  0  0  0  0  0  0
  142.4555   79.3355  217.9488 H   0  0  0  0  0  0  0  0  0  0  0  0
  141.5442   75.9833  217.8036 H   0  0  0  0  0  0  0  0  0  0  0  0
  142.3505   77.3886  217.0022 H   0  0  0  0  0  0  0  0  0  0  0  0
  144.0224   75.7476  216.9270 H   0  0  0  0  0  0  0  0  0  0  0  0
  144.4473   76.6520  218.4111 H   0  0  0  0  0  0  0  0  0  0  0  0
  144.9675   75.1888  220.1834 H   0  0  0  0  0  0  0  0  0  0  0  0
  143.3705   75.6533  220.6630 H   0  0  0  0  0  0  0  0  0  0  0  0
  144.4788   72.7818  220.1610 H   0  0  0  0  0  0  0  0  0  0  0  0
  143.6362   73.2828  221.5871 H   0  0  0  0  0  0  0  0  0  0  0  0
  142.2874   72.1630  219.3263 H   0  0  0  0  0  0  0  0  0  0  0  0
  138.0112   70.7823  223.9957 H   0  0  0  0  0  0  0  0  0  0  0  0
  138.7527   70.3465  222.4009 H   0  0  0  0  0  0  0  0  0  0  0  0
  138.4906   68.4392  224.0279 H   0  0  0  0  0  0  0  0  0  0  0  0
  140.1607   68.7208  223.4022 H   0  0  0  0  0  0  0  0  0  0  0  0
  139.0895   67.3662  226.0558 H   0  0  0  0  0  0  0  0  0  0  0  0
  139.9260   67.5910  228.3851 H   0  0  0  0  0  0  0  0  0  0  0  0
  141.1757   69.6716  229.0001 H   0  0  0  0  0  0  0  0  0  0  0  0
  141.5634   71.4527  227.3364 H   0  0  0  0  0  0  0  0  0  0  0  0
  140.6582   72.4737  225.3311 H   0  0  0  0  0  0  0  0  0  0  0  0
  141.8524   71.4227  224.4624 H   0  0  0  0  0  0  0  0  0  0  0  0
  137.8956   74.9533  219.7247 H   0  0  0  0  0  0  0  0  0  0  0  0
  136.6914   75.9032  220.5847 H   0  0  0  0  0  0  0  0  0  0  0  0
  139.4607   76.9241  219.6079 H   0  0  0  0  0  0  0  0  0  0  0  0
  137.9163   77.3524  218.8607 H   0  0  0  0  0  0  0  0  0  0  0  0
  138.1029   79.6347  219.2768 H   0  0  0  0  0  0  0  0  0  0  0  0
  137.7843   81.4915  220.8920 H   0  0  0  0  0  0  0  0  0  0  0  0
  137.7128   81.0379  223.3343 H   0  0  0  0  0  0  0  0  0  0  0  0
  137.9540   78.7232  224.1749 H   0  0  0  0  0  0  0  0  0  0  0  0
  139.1692   76.4278  223.4277 H   0  0  0  0  0  0  0  0  0  0  0  0
  137.4045   76.1844  223.2932 H   0  0  0  0  0  0  0  0  0  0  0  0
  142.1525   73.6434  217.6664 H   0  0  0  0  0  0  0  0  0  0  0  0
  141.4126   74.8358  218.7081 H   0  0  0  0  0  0  0  0  0  0  0  0
  141.7741   75.9609  220.4861 H   0  0  0  0  0  0  0  0  0  0  0  0
  141.4424   77.5044  222.4162 H   0  0  0  0  0  0  0  0  0  0  0  0
  1  2  1  0
  2  3  2  0
  2  4  2  0
  2  5  1  0
  5  6  2  0
  6  7  1  0
  7  8  2  0
  8  9  1  0
  9 10  1  0
 10 11  1  0
 11 12  1  0
 12 13  1  0
 13 14  1  0
 14 15  1  0
 15 16  2  0
 16 17  1  0
 17 18  1  0
 18 19  1  0
 19 20  1  0
 20 21  1  0
 21 22  2  0
 22 23  1  0
 23 24  2  0
 24 25  1  0
 25 26  2  0
 26 27  1  0
 17 28  2  0
 28 29  1  0
 29 30  1  0
 30 31  1  0
 31 32  1  0
 32 33  1  0
 33 34  2  0
 34 35  1  0
 35 36  2  0
 36 37  1  0
 37 38  2  0
 38 39  1  0
 29 40  2  0
 14 41  1  0
  8 42  1  0
 42 43  2  0
 43  5  1  0
 41 11  1  0
 40 15  1  0
 27 18  1  0
 39 30  1  0
 26 21  1  0
 38 33  1  0
  1 44  1  0
  1 45  1  0
  6 46  1  0
  7 47  1  0
  9 48  1  0
  9 49  1  0
 10 50  1  0
 10 51  1  0
 12 52  1  0
 12 53  1  0
 13 54  1  0
 13 55  1  0
 14 56  1  6
 19 57  1  0
 19 58  1  0
 20 59  1  0
 20 60  1  0
 22 61  1  0
 23 62  1  0
 24 63  1  0
 25 64  1  0
 27 65  1  0
 27 66  1  0
 31 67  1  0
 31 68  1  0
 32 69  1  0
 32 70  1  0
 34 71  1  0
 35 72  1  0
 36 73  1  0
 37 74  1  0
 39 75  1  0
 39 76  1  0
 41 77  1  0
 41 78  1  0
 42 79  1  0
 43 80  1  0
M  END
>  <smiles>  (66) 
NS(=O)(=O)c1ccc(CCN2CCC(c3nc(N4CCc5ccccc5C4)nc(N4CCc5ccccc5C4)n3)C2)cc1

>  <score_type>  (66) 
oracle

>  <origin>  (66) 
autodockgpu

>  <m_score__min__energy>  (66) 
-10.83

>  <m_primary>  (66) 
energy

>  <rmsd>  (66) 
5.403069786726225

>  <m_score__min__rmsd>  (66) 
5.403069786726225

>  <meeko>  (66) 
{"free_energy": -9.21, "intermolecular_energy": -11.6, "internal_energy": -3.59, "cluster_size": 4, "cluster_id": 11, "rank_in_cluster": 4}

>  <energy>  (66) 
-10.13

>  <cluster_rmsd>  (66) 
1.95

>  <cluster>  (66) 
4

$$$$

     RDKit          3D

 80 86  0  0  1  0  0  0  0  0999 V2000
  142.8230   79.6140  217.4270 N   0  0  0  0  0  0  0  0  0  0  0  0
  142.0360   78.4880  218.4980 S   0  0  0  0  0  0  0  0  0  0  0  0
  142.1860   79.0370  219.9010 O   0  0  0  0  0  0  0  0  0  0  0  0
  140.5920   78.3350  218.1220 O   0  0  0  0  0  0  0  0  0  0  0  0
  142.7960   76.9260  218.4140 C   0  0  0  0  0  0  0  0  0  0  0  0
  142.7840   76.2680  217.2030 C   0  0  0  0  0  0  0  0  0  0  0  0
  143.3740   75.0300  217.0960 C   0  0  0  0  0  0  0  0  0  0  0  0
  143.9880   74.4080  218.1700 C   0  0  0  0  0  0  0  0  0  0  0  0
  144.5870   73.0790  217.9250 C   0  0  0  0  0  0  0  0  0  0  0  0
  143.7340   72.2650  216.9580 C   0  0  0  0  0  0  0  0  0  0  0  0
  142.6960   71.6400  217.6910 N   0  0  0  0  0  0  0  0  0  0  0  0
  143.0650   71.0760  218.9420 C   0  0  0  0  0  0  0  0  0  0  0  0
  141.7280   70.4480  219.3550 C   0  0  0  0  0  0  0  0  0  0  0  0
  140.7710   71.5560  218.9140 C   0  0  1  0  0  0  0  0  0  0  0  0
  140.4180   72.3280  220.1350 C   0  0  0  0  0  0  0  0  0  0  0  0
  140.2450   71.7100  221.3220 N   0  0  0  0  0  0  0  0  0  0  0  0
  139.9210   72.3640  222.4630 C   0  0  0  0  0  0  0  0  0  0  0  0
  139.7490   71.6820  223.7050 N   0  0  0  0  0  0  0  0  0  0  0  0
  138.6060   70.8140  223.8500 C   0  0  0  0  0  0  0  0  0  0  0  0
  138.9300   69.6120  224.7000 C   0  0  0  0  0  0  0  0  0  0  0  0
  139.5810   70.0240  225.9640 C   0  0  0  0  0  0  0  0  0  0  0  0
  139.3500   69.3360  227.1350 C   0  0  0  0  0  0  0  0  0  0  0  0
  139.9460   69.7040  228.3200 C   0  0  0  0  0  0  0  0  0  0  0  0
  140.7970   70.8080  228.2910 C   0  0  0  0  0  0  0  0  0  0  0  0
  141.0340   71.5040  227.1230 C   0  0  0  0  0  0  0  0  0  0  0  0
  140.4250   71.1130  225.9520 C   0  0  0  0  0  0  0  0  0  0  0  0
  140.7240   71.9050  224.7310 C   0  0  0  0  0  0  0  0  0  0  0  0
  139.7690   73.7160  222.3660 N   0  0  0  0  0  0  0  0  0  0  0  0
  139.9310   74.3770  221.2070 C   0  0  0  0  0  0  0  0  0  0  0  0
  139.7540   75.7880  221.1860 N   0  0  0  0  0  0  0  0  0  0  0  0
  140.9710   76.5940  221.1410 C   0  0  0  0  0  0  0  0  0  0  0  0
  141.0550   77.2240  222.5380 C   0  0  0  0  0  0  0  0  0  0  0  0
  139.7950   78.0060  222.7000 C   0  0  0  0  0  0  0  0  0  0  0  0
  139.8910   79.1330  223.5190 C   0  0  0  0  0  0  0  0  0  0  0  0
  138.7670   79.9010  223.7110 C   0  0  0  0  0  0  0  0  0  0  0  0
  137.5610   79.5640  223.1040 C   0  0  0  0  0  0  0  0  0  0  0  0
  137.4840   78.4490  222.2980 C   0  0  0  0  0  0  0  0  0  0  0  0
  138.6120   77.6500  222.0860 C   0  0  0  0  0  0  0  0  0  0  0  0
  138.4930   76.4490  221.2060 C   0  0  0  0  0  0  0  0  0  0  0  0
  140.2540   73.6550  220.1150 N   0  0  0  0  0  0  0  0  0  0  0  0
  141.4850   72.3650  217.8680 C   0  0  0  0  0  0  0  0  0  0  0  0
  144.0030   75.0610  219.3780 C   0  0  0  0  0  0  0  0  0  0  0  0
  143.4070   76.3220  219.5050 C   0  0  0  0  0  0  0  0  0  0  0  0
  143.0440   79.0680  216.5410 H   0  0  0  0  0  0  0  0  0  0  0  0
  143.7760   79.8390  217.8310 H   0  0  0  0  0  0  0  0  0  0  0  0
  142.3053   76.7302  216.3271 H   0  0  0  0  0  0  0  0  0  0  0  0
  143.3574   74.5163  216.1235 H   0  0  0  0  0  0  0  0  0  0  0  0
  145.5912   73.2106  217.4957 H   0  0  0  0  0  0  0  0  0  0  0  0
  144.6446   72.5388  218.8815 H   0  0  0  0  0  0  0  0  0  0  0  0
  143.3016   72.9292  216.1952 H   0  0  0  0  0  0  0  0  0  0  0  0
  144.3524   71.5051  216.4578 H   0  0  0  0  0  0  0  0  0  0  0  0
  143.8550   70.3186  218.8313 H   0  0  0  0  0  0  0  0  0  0  0  0
  143.4854   71.7893  219.6662 H   0  0  0  0  0  0  0  0  0  0  0  0
  141.5365   69.5058  218.8207 H   0  0  0  0  0  0  0  0  0  0  0  0
  141.6551   70.1659  220.4157 H   0  0  0  0  0  0  0  0  0  0  0  0
  139.8338   71.1948  218.4654 H   0  0  0  0  0  0  0  0  0  0  0  0
  137.7877   71.3765  224.3233 H   0  0  0  0  0  0  0  0  0  0  0  0
  138.3115   70.4610  222.8507 H   0  0  0  0  0  0  0  0  0  0  0  0
  137.9997   69.0728  224.9322 H   0  0  0  0  0  0  0  0  0  0  0  0
  139.6201   68.9611  224.1430 H   0  0  0  0  0  0  0  0  0  0  0  0
  138.6717   68.4701  227.1227 H   0  0  0  0  0  0  0  0  0  0  0  0
  139.7585   69.1498  229.2515 H   0  0  0  0  0  0  0  0  0  0  0  0
  141.2904   71.1314  229.2194 H   0  0  0  0  0  0  0  0  0  0  0  0
  141.7100   72.3718  227.1278 H   0  0  0  0  0  0  0  0  0  0  0  0
  140.7299   72.9737  224.9914 H   0  0  0  0  0  0  0  0  0  0  0  0
  141.7051   71.5883  224.3475 H   0  0  0  0  0  0  0  0  0  0  0  0
  141.8501   75.9630  220.9438 H   0  0  0  0  0  0  0  0  0  0  0  0
  140.9493   77.3467  220.3392 H   0  0  0  0  0  0  0  0  0  0  0  0
  141.1237   76.4421  223.3086 H   0  0  0  0  0  0  0  0  0  0  0  0
  141.9461   77.8598  222.6456 H   0  0  0  0  0  0  0  0  0  0  0  0
  140.8439   79.4001  223.9994 H   0  0  0  0  0  0  0  0  0  0  0  0
  138.8217   80.7930  224.3524 H   0  0  0  0  0  0  0  0  0  0  0  0
  136.6696   80.1874  223.2675 H   0  0  0  0  0  0  0  0  0  0  0  0
  136.5296   78.1858  221.8185 H   0  0  0  0  0  0  0  0  0  0  0  0
  137.7230   75.7710  221.6027 H   0  0  0  0  0  0  0  0  0  0  0  0
  138.2044   76.7498  220.1880 H   0  0  0  0  0  0  0  0  0  0  0  0
  140.9061   72.4060  216.9335 H   0  0  0  0  0  0  0  0  0  0  0  0
  141.6409   73.4149  218.1567 H   0  0  0  0  0  0  0  0  0  0  0  0
  144.4847   74.5921  220.2487 H   0  0  0  0  0  0  0  0  0  0  0  0
  143.4230   76.8379  220.4764 H   0  0  0  0  0  0  0  0  0  0  0  0
  1  2  1  0
  2  3  2  0
  2  4  2  0
  2  5  1  0
  5  6  2  0
  6  7  1  0
  7  8  2  0
  8  9  1  0
  9 10  1  0
 10 11  1  0
 11 12  1  0
 12 13  1  0
 13 14  1  0
 14 15  1  0
 15 16  2  0
 16 17  1  0
 17 18  1  0
 18 19  1  0
 19 20  1  0
 20 21  1  0
 21 22  2  0
 22 23  1  0
 23 24  2  0
 24 25  1  0
 25 26  2  0
 26 27  1  0
 17 28  2  0
 28 29  1  0
 29 30  1  0
 30 31  1  0
 31 32  1  0
 32 33  1  0
 33 34  2  0
 34 35  1  0
 35 36  2  0
 36 37  1  0
 37 38  2  0
 38 39  1  0
 29 40  2  0
 14 41  1  0
  8 42  1  0
 42 43  2  0
 43  5  1  0
 41 11  1  0
 40 15  1  0
 27 18  1  0
 39 30  1  0
 26 21  1  0
 38 33  1  0
  1 44  1  0
  1 45  1  0
  6 46  1  0
  7 47  1  0
  9 48  1  0
  9 49  1  0
 10 50  1  0
 10 51  1  0
 12 52  1  0
 12 53  1  0
 13 54  1  0
 13 55  1  0
 14 56  1  6
 19 57  1  0
 19 58  1  0
 20 59  1  0
 20 60  1  0
 22 61  1  0
 23 62  1  0
 24 63  1  0
 25 64  1  0
 27 65  1  0
 27 66  1  0
 31 67  1  0
 31 68  1  0
 32 69  1  0
 32 70  1  0
 34 71  1  0
 35 72  1  0
 36 73  1  0
 37 74  1  0
 39 75  1  0
 39 76  1  0
 41 77  1  0
 41 78  1  0
 42 79  1  0
 43 80  1  0
M  END
>  <smiles>  (67) 
NS(=O)(=O)c1ccc(CCN2CCC(c3nc(N4CCc5ccccc5C4)nc(N4CCc5ccccc5C4)n3)C2)cc1

>  <score_type>  (67) 
oracle

>  <origin>  (67) 
autodockgpu

>  <m_score__min__energy>  (67) 
-10.83

>  <m_primary>  (67) 
energy

>  <rmsd>  (67) 
7.825802027610253

>  <m_score__min__rmsd>  (67) 
7.825802027610253

>  <meeko>  (67) 
{"free_energy": -9.8, "intermolecular_energy": -12.18, "internal_energy": -2.76, "cluster_size": 5, "cluster_id": 6, "rank_in_cluster": 2}

>  <energy>  (67) 
-10.35

>  <cluster_rmsd>  (67) 
0.0

>  <cluster>  (67) 
5

$$$$

     RDKit          3D

 80 86  0  0  1  0  0  0  0  0999 V2000
  142.9540   80.8970  217.7240 N   0  0  0  0  0  0  0  0  0  0  0  0
  141.8780   79.8120  216.8860 S   0  0  0  0  0  0  0  0  0  0  0  0
  140.6200   79.7070  217.7210 O   0  0  0  0  0  0  0  0  0  0  0  0
  141.5800   80.3340  215.5120 O   0  0  0  0  0  0  0  0  0  0  0  0
  142.5920   78.2340  216.7340 C   0  0  0  0  0  0  0  0  0  0  0  0
  142.6970   77.6930  215.4710 C   0  0  0  0  0  0  0  0  0  0  0  0
  143.2550   76.4460  215.3080 C   0  0  0  0  0  0  0  0  0  0  0  0
  143.7230   75.7010  216.3770 C   0  0  0  0  0  0  0  0  0  0  0  0
  144.3010   74.3750  216.0700 C   0  0  0  0  0  0  0  0  0  0  0  0
  144.8830   73.7300  217.3220 C   0  0  0  0  0  0  0  0  0  0  0  0
  143.9180   72.8450  217.8610 N   0  0  0  0  0  0  0  0  0  0  0  0
  144.2670   72.2070  219.0820 C   0  0  0  0  0  0  0  0  0  0  0  0
  143.0410   71.3050  219.2710 C   0  0  0  0  0  0  0  0  0  0  0  0
  141.9360   72.2700  218.8370 C   0  0  1  0  0  0  0  0  0  0  0  0
  141.3290   72.8120  220.0820 C   0  0  0  0  0  0  0  0  0  0  0  0
  140.9670   71.9940  221.0920 N   0  0  0  0  0  0  0  0  0  0  0  0
  140.4080   72.4340  222.2440 C   0  0  0  0  0  0  0  0  0  0  0  0
  140.0390   71.5430  223.2960 N   0  0  0  0  0  0  0  0  0  0  0  0
  138.9520   70.6260  223.0610 C   0  0  0  0  0  0  0  0  0  0  0  0
  139.1800   69.3070  223.7530 C   0  0  0  0  0  0  0  0  0  0  0  0
  139.5400   69.5160  225.1730 C   0  0  0  0  0  0  0  0  0  0  0  0
  139.1290   68.6290  226.1450 C   0  0  0  0  0  0  0  0  0  0  0  0
  139.4520   68.8080  227.4710 C   0  0  0  0  0  0  0  0  0  0  0  0
  140.2170   69.9270  227.7970 C   0  0  0  0  0  0  0  0  0  0  0  0
  140.6330   70.8210  226.8310 C   0  0  0  0  0  0  0  0  0  0  0  0
  140.2950   70.6180  225.5130 C   0  0  0  0  0  0  0  0  0  0  0  0
  140.7750   71.6170  224.5240 C   0  0  0  0  0  0  0  0  0  0  0  0
  140.2150   73.7800  222.3510 N   0  0  0  0  0  0  0  0  0  0  0  0
  140.5590   74.6360  221.3720 C   0  0  0  0  0  0  0  0  0  0  0  0
  140.3250   76.0260  221.5580 N   0  0  0  0  0  0  0  0  0  0  0  0
  139.6320   76.7180  220.4750 C   0  0  0  0  0  0  0  0  0  0  0  0
  140.7170   77.5950  219.8350 C   0  0  0  0  0  0  0  0  0  0  0  0
  141.2100   78.4830  220.9280 C   0  0  0  0  0  0  0  0  0  0  0  0
  141.6740   79.7350  220.5180 C   0  0  0  0  0  0  0  0  0  0  0  0
  142.1420   80.6050  221.4750 C   0  0  0  0  0  0  0  0  0  0  0  0
  142.1530   80.2470  222.8190 C   0  0  0  0  0  0  0  0  0  0  0  0
  141.6910   79.0080  223.2070 C   0  0  0  0  0  0  0  0  0  0  0  0
  141.2100   78.1040  222.2550 C   0  0  0  0  0  0  0  0  0  0  0  0
  140.7160   76.7690  222.7080 C   0  0  0  0  0  0  0  0  0  0  0  0
  141.1110   74.1210  220.2560 N   0  0  0  0  0  0  0  0  0  0  0  0
  142.5800   73.3150  217.9690 C   0  0  0  0  0  0  0  0  0  0  0  0
  143.6200   76.2360  217.6380 C   0  0  0  0  0  0  0  0  0  0  0  0
  143.0550   77.5040  217.8210 C   0  0  0  0  0  0  0  0  0  0  0  0
  143.8580   80.9000  217.1650 H   0  0  0  0  0  0  0  0  0  0  0  0
  143.2240   80.4440  218.6430 H   0  0  0  0  0  0  0  0  0  0  0  0
  142.3364   78.2555  214.5972 H   0  0  0  0  0  0  0  0  0  0  0  0
  143.3319   76.0267  214.2940 H   0  0  0  0  0  0  0  0  0  0  0  0
  143.5127   73.7244  215.6634 H   0  0  0  0  0  0  0  0  0  0  0  0
  145.1091   74.5064  215.3354 H   0  0  0  0  0  0  0  0  0  0  0  0
  145.7946   73.1717  217.0624 H   0  0  0  0  0  0  0  0  0  0  0  0
  145.1391   74.5039  218.0606 H   0  0  0  0  0  0  0  0  0  0  0  0
  145.1935   71.6218  218.9866 H   0  0  0  0  0  0  0  0  0  0  0  0
  144.4732   72.8900  219.9192 H   0  0  0  0  0  0  0  0  0  0  0  0
  143.0842   70.4158  218.6249 H   0  0  0  0  0  0  0  0  0  0  0  0
  142.9227   70.8876  220.2818 H   0  0  0  0  0  0  0  0  0  0  0  0
  141.1314   71.8054  218.2482 H   0  0  0  0  0  0  0  0  0  0  0  0
  138.0205   71.0718  223.4401 H   0  0  0  0  0  0  0  0  0  0  0  0
  138.8863   70.4401  221.9788 H   0  0  0  0  0  0  0  0  0  0  0  0
  138.2597   68.7069  223.6985 H   0  0  0  0  0  0  0  0  0  0  0  0
  140.0076   68.7835  223.2520 H   0  0  0  0  0  0  0  0  0  0  0  0
  138.5273   67.7555  225.8534 H   0  0  0  0  0  0  0  0  0  0  0  0
  139.1201   68.0971  228.2420 H   0  0  0  0  0  0  0  0  0  0  0  0
  140.4951   70.1013  228.8469 H   0  0  0  0  0  0  0  0  0  0  0  0
  141.2353   71.6965  227.1153 H   0  0  0  0  0  0  0  0  0  0  0  0
  140.6581   72.6246  224.9496 H   0  0  0  0  0  0  0  0  0  0  0  0
  141.8312   71.4021  224.3043 H   0  0  0  0  0  0  0  0  0  0  0  0
  139.2311   75.9987  219.7457 H   0  0  0  0  0  0  0  0  0  0  0  0
  138.7718   77.3039  220.8311 H   0  0  0  0  0  0  0  0  0  0  0  0
  141.5362   76.9713  219.4478 H   0  0  0  0  0  0  0  0  0  0  0  0
  140.3248   78.1736  218.9856 H   0  0  0  0  0  0  0  0  0  0  0  0
  141.6653   80.0184  219.4552 H   0  0  0  0  0  0  0  0  0  0  0  0
  142.5121   81.5961  221.1738 H   0  0  0  0  0  0  0  0  0  0  0  0
  142.5308   80.9534  223.5728 H   0  0  0  0  0  0  0  0  0  0  0  0
  141.7007   78.7289  224.2709 H   0  0  0  0  0  0  0  0  0  0  0  0
  141.5176   76.2364  223.2407 H   0  0  0  0  0  0  0  0  0  0  0  0
  139.8617   76.8913  223.3901 H   0  0  0  0  0  0  0  0  0  0  0  0
  142.0958   73.3657  216.9826 H   0  0  0  0  0  0  0  0  0  0  0  0
  142.5050   74.3327  218.3797 H   0  0  0  0  0  0  0  0  0  0  0  0
  143.9824   75.6666  218.5066 H   0  0  0  0  0  0  0  0  0  0  0  0
  142.9772   77.9254  218.8341 H   0  0  0  0  0  0  0  0  0  0  0  0
  1  2  1  0
  2  3  2  0
  2  4  2  0
  2  5  1  0
  5  6  2  0
  6  7  1  0
  7  8  2  0
  8  9  1  0
  9 10  1  0
 10 11  1  0
 11 12  1  0
 12 13  1  0
 13 14  1  0
 14 15  1  0
 15 16  2  0
 16 17  1  0
 17 18  1  0
 18 19  1  0
 19 20  1  0
 20 21  1  0
 21 22  2  0
 22 23  1  0
 23 24  2  0
 24 25  1  0
 25 26  2  0
 26 27  1  0
 17 28  2  0
 28 29  1  0
 29 30  1  0
 30 31  1  0
 31 32  1  0
 32 33  1  0
 33 34  2  0
 34 35  1  0
 35 36  2  0
 36 37  1  0
 37 38  2  0
 38 39  1  0
 29 40  2  0
 14 41  1  0
  8 42  1  0
 42 43  2  0
 43  5  1  0
 41 11  1  0
 40 15  1  0
 27 18  1  0
 39 30  1  0
 26 21  1  0
 38 33  1  0
  1 44  1  0
  1 45  1  0
  6 46  1  0
  7 47  1  0
  9 48  1  0
  9 49  1  0
 10 50  1  0
 10 51  1  0
 12 52  1  0
 12 53  1  0
 13 54  1  0
 13 55  1  0
 14 56  1  6
 19 57  1  0
 19 58  1  0
 20 59  1  0
 20 60  1  0
 22 61  1  0
 23 62  1  0
 24 63  1  0
 25 64  1  0
 27 65  1  0
 27 66  1  0
 31 67  1  0
 31 68  1  0
 32 69  1  0
 32 70  1  0
 34 71  1  0
 35 72  1  0
 36 73  1  0
 37 74  1  0
 39 75  1  0
 39 76  1  0
 41 77  1  0
 41 78  1  0
 42 79  1  0
 43 80  1  0
M  END
>  <smiles>  (68) 
NS(=O)(=O)c1ccc(CCN2CCC(c3nc(N4CCc5ccccc5C4)nc(N4CCc5ccccc5C4)n3)C2)cc1

>  <score_type>  (68) 
oracle

>  <origin>  (68) 
autodockgpu

>  <m_score__min__energy>  (68) 
-10.83

>  <m_primary>  (68) 
energy

>  <rmsd>  (68) 
7.533565612808185

>  <m_score__min__rmsd>  (68) 
7.533565612808185

>  <meeko>  (68) 
{"free_energy": -9.67, "intermolecular_energy": -12.05, "internal_energy": -2.46, "cluster_size": 5, "cluster_id": 6, "rank_in_cluster": 3}

>  <energy>  (68) 
-10.06

>  <cluster_rmsd>  (68) 
0.82

>  <cluster>  (68) 
5

$$$$

     RDKit          3D

 80 86  0  0  1  0  0  0  0  0999 V2000
  141.4620   81.7560  221.3280 N   0  0  0  0  0  0  0  0  0  0  0  0
  141.8320   80.6960  222.6600 S   0  0  0  0  0  0  0  0  0  0  0  0
  143.2980   80.8910  222.9840 O   0  0  0  0  0  0  0  0  0  0  0  0
  140.9650   81.0190  223.8400 O   0  0  0  0  0  0  0  0  0  0  0  0
  141.5650   79.0360  222.2160 C   0  0  0  0  0  0  0  0  0  0  0  0
  141.8030   78.6730  220.9080 C   0  0  0  0  0  0  0  0  0  0  0  0
  141.6040   77.3690  220.5160 C   0  0  0  0  0  0  0  0  0  0  0  0
  141.1660   76.3930  221.3940 C   0  0  0  0  0  0  0  0  0  0  0  0
  140.9910   75.0290  220.8500 C   0  0  0  0  0  0  0  0  0  0  0  0
  139.6400   74.4490  221.2520 C   0  0  0  0  0  0  0  0  0  0  0  0
  138.6290   75.3730  220.8900 N   0  0  0  0  0  0  0  0  0  0  0  0
  138.0880   76.1550  221.9460 C   0  0  0  0  0  0  0  0  0  0  0  0
  137.0090   76.9290  221.1780 C   0  0  0  0  0  0  0  0  0  0  0  0
  137.7750   77.2390  219.8910 C   0  0  1  0  0  0  0  0  0  0  0  0
  138.2480   78.6440  220.0020 C   0  0  0  0  0  0  0  0  0  0  0  0
  137.9100   79.4090  221.0600 N   0  0  0  0  0  0  0  0  0  0  0  0
  138.3110   80.6940  221.2100 C   0  0  0  0  0  0  0  0  0  0  0  0
  137.9390   81.4770  222.3450 N   0  0  0  0  0  0  0  0  0  0  0  0
  137.9210   82.9120  222.2040 C   0  0  0  0  0  0  0  0  0  0  0  0
  136.8140   83.5340  223.0170 C   0  0  0  0  0  0  0  0  0  0  0  0
  136.8410   83.0310  224.4080 C   0  0  0  0  0  0  0  0  0  0  0  0
  136.4940   83.8480  225.4620 C   0  0  0  0  0  0  0  0  0  0  0  0
  136.5140   83.3990  226.7630 C   0  0  0  0  0  0  0  0  0  0  0  0
  136.9010   82.0770  226.9770 C   0  0  0  0  0  0  0  0  0  0  0  0
  137.2500   81.2510  225.9280 C   0  0  0  0  0  0  0  0  0  0  0  0
  137.2210   81.7260  224.6370 C   0  0  0  0  0  0  0  0  0  0  0  0
  137.6080   80.7840  223.5550 C   0  0  0  0  0  0  0  0  0  0  0  0
  139.0940   81.2060  220.2180 N   0  0  0  0  0  0  0  0  0  0  0  0
  139.4570   80.4840  219.1430 C   0  0  0  0  0  0  0  0  0  0  0  0
  140.2750   81.0890  218.1500 N   0  0  0  0  0  0  0  0  0  0  0  0
  141.1440   80.1940  217.3910 C   0  0  0  0  0  0  0  0  0  0  0  0
  142.5540   80.5210  217.9000 C   0  0  0  0  0  0  0  0  0  0  0  0
  142.7550   81.9720  217.6170 C   0  0  0  0  0  0  0  0  0  0  0  0
  144.0750   82.3570  217.3720 C   0  0  0  0  0  0  0  0  0  0  0  0
  144.3310   83.6810  217.1030 C   0  0  0  0  0  0  0  0  0  0  0  0
  143.3000   84.6160  217.0750 C   0  0  0  0  0  0  0  0  0  0  0  0
  142.0030   84.2190  217.3190 C   0  0  0  0  0  0  0  0  0  0  0  0
  141.7150   82.8790  217.5960 C   0  0  0  0  0  0  0  0  0  0  0  0
  140.2980   82.4820  217.8550 C   0  0  0  0  0  0  0  0  0  0  0  0
  139.0180   79.2120  219.0670 N   0  0  0  0  0  0  0  0  0  0  0  0
  138.8840   76.2300  219.7840 C   0  0  0  0  0  0  0  0  0  0  0  0
  140.9270   76.7510  222.6990 C   0  0  0  0  0  0  0  0  0  0  0  0
  141.1260   78.0730  223.1140 C   0  0  0  0  0  0  0  0  0  0  0  0
  140.5170   82.1890  221.5540 H   0  0  0  0  0  0  0  0  0  0  0  0
  141.2700   81.1570  220.4760 H   0  0  0  0  0  0  0  0  0  0  0  0
  142.1503   79.4219  220.1810 H   0  0  0  0  0  0  0  0  0  0  0  0
  141.7997   77.0930  219.4693 H   0  0  0  0  0  0  0  0  0  0  0  0
  141.0530   75.0689  219.7525 H   0  0  0  0  0  0  0  0  0  0  0  0
  141.7839   74.3849  221.2580 H   0  0  0  0  0  0  0  0  0  0  0  0
  139.4753   73.4951  220.7295 H   0  0  0  0  0  0  0  0  0  0  0  0
  139.6149   74.2683  222.3368 H   0  0  0  0  0  0  0  0  0  0  0  0
  137.6542   75.5271  222.7382 H   0  0  0  0  0  0  0  0  0  0  0  0
  138.8177   76.7824  222.4788 H   0  0  0  0  0  0  0  0  0  0  0  0
  136.1204   76.3098  220.9858 H   0  0  0  0  0  0  0  0  0  0  0  0
  136.6060   77.8082  221.7021 H   0  0  0  0  0  0  0  0  0  0  0  0
  137.1725   77.1618  218.9739 H   0  0  0  0  0  0  0  0  0  0  0  0
  138.8854   83.3166  222.5449 H   0  0  0  0  0  0  0  0  0  0  0  0
  137.7476   83.1522  221.1446 H   0  0  0  0  0  0  0  0  0  0  0  0
  136.9422   84.6265  223.0255 H   0  0  0  0  0  0  0  0  0  0  0  0
  135.8485   83.2666  222.5629 H   0  0  0  0  0  0  0  0  0  0  0  0
  136.1931   84.8863  225.2583 H   0  0  0  0  0  0  0  0  0  0  0  0
  136.2359   84.0566  227.5998 H   0  0  0  0  0  0  0  0  0  0  0  0
  136.9288   81.6838  228.0040 H   0  0  0  0  0  0  0  0  0  0  0  0
  137.5517   80.2116  226.1242 H   0  0  0  0  0  0  0  0  0  0  0  0
  138.4820   80.2025  223.8837 H   0  0  0  0  0  0  0  0  0  0  0  0
  136.7516   80.1247  223.3504 H   0  0  0  0  0  0  0  0  0  0  0  0
  140.8910   79.1422  217.5904 H   0  0  0  0  0  0  0  0  0  0  0  0
  141.0452   80.3310  216.3040 H   0  0  0  0  0  0  0  0  0  0  0  0
  142.6272   80.3265  218.9802 H   0  0  0  0  0  0  0  0  0  0  0  0
  143.3184   79.9005  217.4094 H   0  0  0  0  0  0  0  0  0  0  0  0
  144.8902   81.6188  217.3937 H   0  0  0  0  0  0  0  0  0  0  0  0
  145.3637   84.0055  216.9074 H   0  0  0  0  0  0  0  0  0  0  0  0
  143.5205   85.6716  216.8581 H   0  0  0  0  0  0  0  0  0  0  0  0
  141.1903   84.9599  217.2957 H   0  0  0  0  0  0  0  0  0  0  0  0
  139.9019   83.0505  218.7093 H   0  0  0  0  0  0  0  0  0  0  0  0
  139.6757   82.6949  216.9733 H   0  0  0  0  0  0  0  0  0  0  0  0
  138.8296   75.6790  218.8335 H   0  0  0  0  0  0  0  0  0  0  0  0
  139.8881   76.6790  219.7998 H   0  0  0  0  0  0  0  0  0  0  0  0
  140.5783   75.9966  223.4196 H   0  0  0  0  0  0  0  0  0  0  0  0
  140.9328   78.3510  224.1606 H   0  0  0  0  0  0  0  0  0  0  0  0
  1  2  1  0
  2  3  2  0
  2  4  2  0
  2  5  1  0
  5  6  2  0
  6  7  1  0
  7  8  2  0
  8  9  1  0
  9 10  1  0
 10 11  1  0
 11 12  1  0
 12 13  1  0
 13 14  1  0
 14 15  1  0
 15 16  2  0
 16 17  1  0
 17 18  1  0
 18 19  1  0
 19 20  1  0
 20 21  1  0
 21 22  2  0
 22 23  1  0
 23 24  2  0
 24 25  1  0
 25 26  2  0
 26 27  1  0
 17 28  2  0
 28 29  1  0
 29 30  1  0
 30 31  1  0
 31 32  1  0
 32 33  1  0
 33 34  2  0
 34 35  1  0
 35 36  2  0
 36 37  1  0
 37 38  2  0
 38 39  1  0
 29 40  2  0
 14 41  1  0
  8 42  1  0
 42 43  2  0
 43  5  1  0
 41 11  1  0
 40 15  1  0
 27 18  1  0
 39 30  1  0
 26 21  1  0
 38 33  1  0
  1 44  1  0
  1 45  1  0
  6 46  1  0
  7 47  1  0
  9 48  1  0
  9 49  1  0
 10 50  1  0
 10 51  1  0
 12 52  1  0
 12 53  1  0
 13 54  1  0
 13 55  1  0
 14 56  1  6
 19 57  1  0
 19 58  1  0
 20 59  1  0
 20 60  1  0
 22 61  1  0
 23 62  1  0
 24 63  1  0
 25 64  1  0
 27 65  1  0
 27 66  1  0
 31 67  1  0
 31 68  1  0
 32 69  1  0
 32 70  1  0
 34 71  1  0
 35 72  1  0
 36 73  1  0
 37 74  1  0
 39 75  1  0
 39 76  1  0
 41 77  1  0
 41 78  1  0
 42 79  1  0
 43 80  1  0
M  END
>  <smiles>  (69) 
NS(=O)(=O)c1ccc(CCN2CCC(c3nc(N4CCc5ccccc5C4)nc(N4CCc5ccccc5C4)n3)C2)cc1

>  <score_type>  (69) 
oracle

>  <origin>  (69) 
autodockgpu

>  <m_score__min__energy>  (69) 
-10.83

>  <m_primary>  (69) 
energy

>  <rmsd>  (69) 
5.156853657217257

>  <m_score__min__rmsd>  (69) 
5.156853657217257

>  <meeko>  (69) 
{"free_energy": -7.04, "intermolecular_energy": -9.42, "internal_energy": -4.68, "cluster_size": 1, "cluster_id": 17, "rank_in_cluster": 1}

>  <energy>  (69) 
-9.96

>  <cluster_rmsd>  (69) 
1.63

>  <cluster>  (69) 
5

$$$$

     RDKit          3D

 80 86  0  0  1  0  0  0  0  0999 V2000
  141.0470   68.1710  228.3760 N   0  0  0  0  0  0  0  0  0  0  0  0
  140.2590   69.6770  227.9940 S   0  0  0  0  0  0  0  0  0  0  0  0
  139.0490   69.7820  228.8980 O   0  0  0  0  0  0  0  0  0  0  0  0
  141.2000   70.8260  228.2040 O   0  0  0  0  0  0  0  0  0  0  0  0
  139.7320   69.6910  226.3370 C   0  0  0  0  0  0  0  0  0  0  0  0
  139.4150   68.4840  225.7510 C   0  0  0  0  0  0  0  0  0  0  0  0
  138.9950   68.4520  224.4420 C   0  0  0  0  0  0  0  0  0  0  0  0
  138.8760   69.5990  223.6750 C   0  0  0  0  0  0  0  0  0  0  0  0
  138.4140   69.4310  222.2810 C   0  0  0  0  0  0  0  0  0  0  0  0
  139.5910   69.4060  221.3140 C   0  0  0  0  0  0  0  0  0  0  0  0
  139.7220   70.6900  220.7320 N   0  0  0  0  0  0  0  0  0  0  0  0
  138.5740   71.1930  220.0610 C   0  0  0  0  0  0  0  0  0  0  0  0
  139.1400   72.5120  219.5200 C   0  0  0  0  0  0  0  0  0  0  0  0
  139.9650   72.9590  220.7280 C   0  0  1  0  0  0  0  0  0  0  0  0
  139.1520   73.9760  221.4490 C   0  0  0  0  0  0  0  0  0  0  0  0
  139.6390   75.2100  221.6920 N   0  0  0  0  0  0  0  0  0  0  0  0
  138.9430   76.1710  222.3450 C   0  0  0  0  0  0  0  0  0  0  0  0
  139.4850   77.4690  222.5840 N   0  0  0  0  0  0  0  0  0  0  0  0
  138.5740   78.5850  222.6450 C   0  0  0  0  0  0  0  0  0  0  0  0
  139.0250   79.6140  223.6510 C   0  0  0  0  0  0  0  0  0  0  0  0
  140.4470   79.9640  223.4400 C   0  0  0  0  0  0  0  0  0  0  0  0
  140.9010   81.2460  223.6650 C   0  0  0  0  0  0  0  0  0  0  0  0
  142.2190   81.5900  223.4730 C   0  0  0  0  0  0  0  0  0  0  0  0
  143.0860   80.5880  223.0390 C   0  0  0  0  0  0  0  0  0  0  0  0
  142.6410   79.3020  222.8110 C   0  0  0  0  0  0  0  0  0  0  0  0
  141.3170   78.9840  223.0110 C   0  0  0  0  0  0  0  0  0  0  0  0
  140.9040   77.5810  222.7480 C   0  0  0  0  0  0  0  0  0  0  0  0
  137.6900   75.8340  222.7640 N   0  0  0  0  0  0  0  0  0  0  0  0
  137.1600   74.6180  222.5460 C   0  0  0  0  0  0  0  0  0  0  0  0
  135.8460   74.3430  223.0150 N   0  0  0  0  0  0  0  0  0  0  0  0
  134.9110   75.4650  223.0230 C   0  0  0  0  0  0  0  0  0  0  0  0
  134.7310   75.7920  224.5110 C   0  0  0  0  0  0  0  0  0  0  0  0
  134.2080   74.5420  225.1340 C   0  0  0  0  0  0  0  0  0  0  0  0
  133.3820   74.7260  226.2450 C   0  0  0  0  0  0  0  0  0  0  0  0
  132.8640   73.6150  226.8680 C   0  0  0  0  0  0  0  0  0  0  0  0
  133.1570   72.3360  226.4050 C   0  0  0  0  0  0  0  0  0  0  0  0
  133.9740   72.1720  225.3070 C   0  0  0  0  0  0  0  0  0  0  0  0
  134.5130   73.2840  224.6550 C   0  0  0  0  0  0  0  0  0  0  0  0
  135.3950   73.0700  223.4680 C   0  0  0  0  0  0  0  0  0  0  0  0
  137.9150   73.7160  221.8880 N   0  0  0  0  0  0  0  0  0  0  0  0
  140.2600   71.7290  221.5400 C   0  0  0  0  0  0  0  0  0  0  0  0
  139.1920   70.8040  224.2550 C   0  0  0  0  0  0  0  0  0  0  0  0
  139.6200   70.8540  225.5870 C   0  0  0  0  0  0  0  0  0  0  0  0
  141.9370   68.1520  227.7950 H   0  0  0  0  0  0  0  0  0  0  0  0
  140.4630   67.3850  227.9740 H   0  0  0  0  0  0  0  0  0  0  0  0
  139.4976   67.5510  226.3278 H   0  0  0  0  0  0  0  0  0  0  0  0
  138.7448   67.4817  223.9883 H   0  0  0  0  0  0  0  0  0  0  0  0
  137.8599   68.4844  222.1975 H   0  0  0  0  0  0  0  0  0  0  0  0
  137.7662   70.2815  222.0220 H   0  0  0  0  0  0  0  0  0  0  0  0
  140.5123   69.1493  221.8575 H   0  0  0  0  0  0  0  0  0  0  0  0
  139.4191   68.6531  220.5307 H   0  0  0  0  0  0  0  0  0  0  0  0
  138.2494   70.5246  219.2499 H   0  0  0  0  0  0  0  0  0  0  0  0
  137.6774   71.2963  220.6898 H   0  0  0  0  0  0  0  0  0  0  0  0
  139.7690   72.3530  218.6317 H   0  0  0  0  0  0  0  0  0  0  0  0
  138.3853   73.2362  219.1794 H   0  0  0  0  0  0  0  0  0  0  0  0
  140.9296   73.4224  220.4732 H   0  0  0  0  0  0  0  0  0  0  0  0
  138.5191   79.0560  221.6524 H   0  0  0  0  0  0  0  0  0  0  0  0
  137.5882   78.2085  222.9556 H   0  0  0  0  0  0  0  0  0  0  0  0
  138.4102   80.5196  223.5415 H   0  0  0  0  0  0  0  0  0  0  0  0
  138.9104   79.1945  224.6614 H   0  0  0  0  0  0  0  0  0  0  0  0
  140.1911   82.0136  224.0068 H   0  0  0  0  0  0  0  0  0  0  0  0
  142.5748   82.6149  223.6547 H   0  0  0  0  0  0  0  0  0  0  0  0
  144.1469   80.8277  222.8749 H   0  0  0  0  0  0  0  0  0  0  0  0
  143.3456   78.5297  222.4688 H   0  0  0  0  0  0  0  0  0  0  0  0
  141.3979   77.2300  221.8300 H   0  0  0  0  0  0  0  0  0  0  0  0
  141.1990   76.9685  223.6127 H   0  0  0  0  0  0  0  0  0  0  0  0
  135.3300   76.3262  222.4819 H   0  0  0  0  0  0  0  0  0  0  0  0
  133.9597   75.2251  222.5255 H   0  0  0  0  0  0  0  0  0  0  0  0
  135.6943   76.0723  224.9621 H   0  0  0  0  0  0  0  0  0  0  0  0
  134.0470   76.6401  224.6623 H   0  0  0  0  0  0  0  0  0  0  0  0
  133.1511   75.7365  226.6132 H   0  0  0  0  0  0  0  0  0  0  0  0
  132.2097   73.7389  227.7435 H   0  0  0  0  0  0  0  0  0  0  0  0
  132.7370   71.4564  226.9148 H   0  0  0  0  0  0  0  0  0  0  0  0
  134.2029   71.1599  224.9420 H   0  0  0  0  0  0  0  0  0  0  0  0
  136.2572   72.4485  223.7516 H   0  0  0  0  0  0  0  0  0  0  0  0
  134.8400   72.5565  222.6691 H   0  0  0  0  0  0  0  0  0  0  0  0
  141.3425   71.5991  221.6856 H   0  0  0  0  0  0  0  0  0  0  0  0
  139.8346   71.7607  222.5539 H   0  0  0  0  0  0  0  0  0  0  0  0
  139.1084   71.7323  223.6708 H   0  0  0  0  0  0  0  0  0  0  0  0
  139.8697   71.8232  226.0434 H   0  0  0  0  0  0  0  0  0  0  0  0
  1  2  1  0
  2  3  2  0
  2  4  2  0
  2  5  1  0
  5  6  2  0
  6  7  1  0
  7  8  2  0
  8  9  1  0
  9 10  1  0
 10 11  1  0
 11 12  1  0
 12 13  1  0
 13 14  1  0
 14 15  1  0
 15 16  2  0
 16 17  1  0
 17 18  1  0
 18 19  1  0
 19 20  1  0
 20 21  1  0
 21 22  2  0
 22 23  1  0
 23 24  2  0
 24 25  1  0
 25 26  2  0
 26 27  1  0
 17 28  2  0
 28 29  1  0
 29 30  1  0
 30 31  1  0
 31 32  1  0
 32 33  1  0
 33 34  2  0
 34 35  1  0
 35 36  2  0
 36 37  1  0
 37 38  2  0
 38 39  1  0
 29 40  2  0
 14 41  1  0
  8 42  1  0
 42 43  2  0
 43  5  1  0
 41 11  1  0
 40 15  1  0
 27 18  1  0
 39 30  1  0
 26 21  1  0
 38 33  1  0
  1 44  1  0
  1 45  1  0
  6 46  1  0
  7 47  1  0
  9 48  1  0
  9 49  1  0
 10 50  1  0
 10 51  1  0
 12 52  1  0
 12 53  1  0
 13 54  1  0
 13 55  1  0
 14 56  1  6
 19 57  1  0
 19 58  1  0
 20 59  1  0
 20 60  1  0
 22 61  1  0
 23 62  1  0
 24 63  1  0
 25 64  1  0
 27 65  1  0
 27 66  1  0
 31 67  1  0
 31 68  1  0
 32 69  1  0
 32 70  1  0
 34 71  1  0
 35 72  1  0
 36 73  1  0
 37 74  1  0
 39 75  1  0
 39 76  1  0
 41 77  1  0
 41 78  1  0
 42 79  1  0
 43 80  1  0
M  END
>  <smiles>  (70) 
NS(=O)(=O)c1ccc(CCN2CCC(c3nc(N4CCc5ccccc5C4)nc(N4CCc5ccccc5C4)n3)C2)cc1

>  <score_type>  (70) 
oracle

>  <origin>  (70) 
autodockgpu

>  <m_score__min__energy>  (70) 
-10.83

>  <m_primary>  (70) 
energy

>  <rmsd>  (70) 
9.901898212916983

>  <m_score__min__rmsd>  (70) 
9.901898212916983

>  <meeko>  (70) 
{"free_energy": -10.6, "intermolecular_energy": -12.98, "internal_energy": -2.01, "cluster_size": 5, "cluster_id": 4, "rank_in_cluster": 1}

>  <energy>  (70) 
-9.65

>  <cluster_rmsd>  (70) 
1.09

>  <cluster>  (70) 
5

$$$$

     RDKit          3D

 80 86  0  0  1  0  0  0  0  0999 V2000
  141.0780   71.0140  227.8950 N   0  0  0  0  0  0  0  0  0  0  0  0
  141.0980   69.9270  226.5340 S   0  0  0  0  0  0  0  0  0  0  0  0
  142.2810   70.3190  225.6750 O   0  0  0  0  0  0  0  0  0  0  0  0
  141.2080   68.5070  227.0020 O   0  0  0  0  0  0  0  0  0  0  0  0
  139.6400   70.0880  225.5980 C   0  0  0  0  0  0  0  0  0  0  0  0
  139.5740   71.1150  224.6810 C   0  0  0  0  0  0  0  0  0  0  0  0
  138.4380   71.2770  223.9220 C   0  0  0  0  0  0  0  0  0  0  0  0
  137.3420   70.4390  224.0430 C   0  0  0  0  0  0  0  0  0  0  0  0
  136.1830   70.7180  223.1690 C   0  0  0  0  0  0  0  0  0  0  0  0
  135.1510   71.5800  223.8870 C   0  0  0  0  0  0  0  0  0  0  0  0
  135.2060   72.8880  223.3500 N   0  0  0  0  0  0  0  0  0  0  0  0
  135.4390   73.9380  224.2800 C   0  0  0  0  0  0  0  0  0  0  0  0
  135.3420   75.1490  223.3440 C   0  0  0  0  0  0  0  0  0  0  0  0
  136.0900   74.6020  222.1270 C   0  0  1  0  0  0  0  0  0  0  0  0
  137.4660   75.1620  222.1840 C   0  0  0  0  0  0  0  0  0  0  0  0
  138.5390   74.4020  221.8830 N   0  0  0  0  0  0  0  0  0  0  0  0
  139.8130   74.8620  221.9210 C   0  0  0  0  0  0  0  0  0  0  0  0
  140.9270   74.0330  221.5920 N   0  0  0  0  0  0  0  0  0  0  0  0
  140.8520   72.6310  221.9200 C   0  0  0  0  0  0  0  0  0  0  0  0
  141.5490   71.7820  220.8870 C   0  0  0  0  0  0  0  0  0  0  0  0
  142.9090   72.3010  220.6160 C   0  0  0  0  0  0  0  0  0  0  0  0
  143.9480   71.4420  220.3290 C   0  0  0  0  0  0  0  0  0  0  0  0
  145.2190   71.9050  220.0750 C   0  0  0  0  0  0  0  0  0  0  0  0
  145.4180   73.2840  220.1180 C   0  0  0  0  0  0  0  0  0  0  0  0
  144.3830   74.1520  220.4040 C   0  0  0  0  0  0  0  0  0  0  0  0
  143.1220   73.6610  220.6540 C   0  0  0  0  0  0  0  0  0  0  0  0
  142.0530   74.6490  220.9550 C   0  0  0  0  0  0  0  0  0  0  0  0
  139.9780   76.1640  222.2890 N   0  0  0  0  0  0  0  0  0  0  0  0
  138.9410   76.9620  222.6000 C   0  0  0  0  0  0  0  0  0  0  0  0
  139.1950   78.3090  222.9760 N   0  0  0  0  0  0  0  0  0  0  0  0
  138.0300   79.1820  223.0880 C   0  0  0  0  0  0  0  0  0  0  0  0
  138.1510   80.1240  221.8820 C   0  0  0  0  0  0  0  0  0  0  0  0
  139.4640   80.8130  222.0430 C   0  0  0  0  0  0  0  0  0  0  0  0
  139.5320   82.1030  221.5120 C   0  0  0  0  0  0  0  0  0  0  0  0
  140.7140   82.7970  221.6270 C   0  0  0  0  0  0  0  0  0  0  0  0
  141.8160   82.2280  222.2570 C   0  0  0  0  0  0  0  0  0  0  0  0
  141.7320   80.9540  222.7750 C   0  0  0  0  0  0  0  0  0  0  0  0
  140.5420   80.2260  222.6720 C   0  0  0  0  0  0  0  0  0  0  0  0
  140.4850   78.8470  223.2450 C   0  0  0  0  0  0  0  0  0  0  0  0
  137.7030   76.4310  222.5370 N   0  0  0  0  0  0  0  0  0  0  0  0
  136.0390   73.1020  222.2170 C   0  0  0  0  0  0  0  0  0  0  0  0
  137.4050   69.4150  224.9560 C   0  0  0  0  0  0  0  0  0  0  0  0
  138.5530   69.2360  225.7370 C   0  0  0  0  0  0  0  0  0  0  0  0
  140.4000   70.5900  228.5960 H   0  0  0  0  0  0  0  0  0  0  0  0
  140.6030   71.9100  227.5920 H   0  0  0  0  0  0  0  0  0  0  0  0
  140.4248   71.8011  224.5568 H   0  0  0  0  0  0  0  0  0  0  0  0
  138.3989   72.1006  223.1939 H   0  0  0  0  0  0  0  0  0  0  0  0
  136.5303   71.2473  222.2694 H   0  0  0  0  0  0  0  0  0  0  0  0
  135.7119   69.7620  222.8966 H   0  0  0  0  0  0  0  0  0  0  0  0
  134.1461   71.1589  223.7358 H   0  0  0  0  0  0  0  0  0  0  0  0
  135.3667   71.6062  224.9653 H   0  0  0  0  0  0  0  0  0  0  0  0
  134.6691   73.9662  225.0652 H   0  0  0  0  0  0  0  0  0  0  0  0
  136.3824   73.8598  224.8403 H   0  0  0  0  0  0  0  0  0  0  0  0
  134.2976   75.3973  223.1040 H   0  0  0  0  0  0  0  0  0  0  0  0
  135.7460   76.0862  223.7543 H   0  0  0  0  0  0  0  0  0  0  0  0
  135.6537   74.8874  221.1584 H   0  0  0  0  0  0  0  0  0  0  0  0
  141.3287   72.4670  222.8977 H   0  0  0  0  0  0  0  0  0  0  0  0
  139.7916   72.3398  221.9466 H   0  0  0  0  0  0  0  0  0  0  0  0
  141.6237   70.7494  221.2586 H   0  0  0  0  0  0  0  0  0  0  0  0
  140.9668   71.8100  219.9541 H   0  0  0  0  0  0  0  0  0  0  0  0
  143.7566   70.3591  220.3023 H   0  0  0  0  0  0  0  0  0  0  0  0
  146.0445   71.2146  219.8472 H   0  0  0  0  0  0  0  0  0  0  0  0
  146.4212   73.6894  219.9198 H   0  0  0  0  0  0  0  0  0  0  0  0
  144.5665   75.2362  220.4320 H   0  0  0  0  0  0  0  0  0  0  0  0
  142.4604   75.4232  221.6218 H   0  0  0  0  0  0  0  0  0  0  0  0
  141.7128   75.0867  220.0049 H   0  0  0  0  0  0  0  0  0  0  0  0
  137.0987   78.5990  223.0362 H   0  0  0  0  0  0  0  0  0  0  0  0
  137.9984   79.7233  224.0451 H   0  0  0  0  0  0  0  0  0  0  0  0
  138.1304   79.5509  220.9433 H   0  0  0  0  0  0  0  0  0  0  0  0
  137.3174   80.8404  221.8392 H   0  0  0  0  0  0  0  0  0  0  0  0
  138.6609   82.5533  221.0136 H   0  0  0  0  0  0  0  0  0  0  0  0
  140.7888   83.8145  221.2157 H   0  0  0  0  0  0  0  0  0  0  0  0
  142.7546   82.7953  222.3417 H   0  0  0  0  0  0  0  0  0  0  0  0
  142.6055   80.5070  223.2722 H   0  0  0  0  0  0  0  0  0  0  0  0
  141.2564   78.2171  222.7780 H   0  0  0  0  0  0  0  0  0  0  0  0
  140.6665   78.8773  224.3295 H   0  0  0  0  0  0  0  0  0  0  0  0
  135.5962   72.6645  221.3101 H   0  0  0  0  0  0  0  0  0  0  0  0
  137.0307   72.6349  222.3082 H   0  0  0  0  0  0  0  0  0  0  0  0
  136.5502   68.7329  225.0741 H   0  0  0  0  0  0  0  0  0  0  0  0
  138.5939   68.4137  226.4665 H   0  0  0  0  0  0  0  0  0  0  0  0
  1  2  1  0
  2  3  2  0
  2  4  2  0
  2  5  1  0
  5  6  2  0
  6  7  1  0
  7  8  2  0
  8  9  1  0
  9 10  1  0
 10 11  1  0
 11 12  1  0
 12 13  1  0
 13 14  1  0
 14 15  1  0
 15 16  2  0
 16 17  1  0
 17 18  1  0
 18 19  1  0
 19 20  1  0
 20 21  1  0
 21 22  2  0
 22 23  1  0
 23 24  2  0
 24 25  1  0
 25 26  2  0
 26 27  1  0
 17 28  2  0
 28 29  1  0
 29 30  1  0
 30 31  1  0
 31 32  1  0
 32 33  1  0
 33 34  2  0
 34 35  1  0
 35 36  2  0
 36 37  1  0
 37 38  2  0
 38 39  1  0
 29 40  2  0
 14 41  1  0
  8 42  1  0
 42 43  2  0
 43  5  1  0
 41 11  1  0
 40 15  1  0
 27 18  1  0
 39 30  1  0
 26 21  1  0
 38 33  1  0
  1 44  1  0
  1 45  1  0
  6 46  1  0
  7 47  1  0
  9 48  1  0
  9 49  1  0
 10 50  1  0
 10 51  1  0
 12 52  1  0
 12 53  1  0
 13 54  1  0
 13 55  1  0
 14 56  1  6
 19 57  1  0
 19 58  1  0
 20 59  1  0
 20 60  1  0
 22 61  1  0
 23 62  1  0
 24 63  1  0
 25 64  1  0
 27 65  1  0
 27 66  1  0
 31 67  1  0
 31 68  1  0
 32 69  1  0
 32 70  1  0
 34 71  1  0
 35 72  1  0
 36 73  1  0
 37 74  1  0
 39 75  1  0
 39 76  1  0
 41 77  1  0
 41 78  1  0
 42 79  1  0
 43 80  1  0
M  END
>  <smiles>  (71) 
NS(=O)(=O)c1ccc(CCN2CCC(c3nc(N4CCc5ccccc5C4)nc(N4CCc5ccccc5C4)n3)C2)cc1

>  <score_type>  (71) 
oracle

>  <origin>  (71) 
autodockgpu

>  <m_score__min__energy>  (71) 
-10.83

>  <m_primary>  (71) 
energy

>  <rmsd>  (71) 
10.110989426316607

>  <m_score__min__rmsd>  (71) 
10.110989426316607

>  <meeko>  (71) 
{"free_energy": -9.18, "intermolecular_energy": -11.57, "internal_energy": -2.24, "cluster_size": 5, "cluster_id": 5, "rank_in_cluster": 5}

>  <energy>  (71) 
-9.18

>  <cluster_rmsd>  (71) 
1.52

>  <cluster>  (71) 
5

$$$$

     RDKit          3D

 80 86  0  0  1  0  0  0  0  0999 V2000
  142.1440   78.5080  221.2400 N   0  0  0  0  0  0  0  0  0  0  0  0
  141.3820   79.1270  222.6780 S   0  0  0  0  0  0  0  0  0  0  0  0
  142.1580   78.5810  223.8580 O   0  0  0  0  0  0  0  0  0  0  0  0
  141.3890   80.6270  222.6670 O   0  0  0  0  0  0  0  0  0  0  0  0
  139.7330   78.5840  222.7830 C   0  0  0  0  0  0  0  0  0  0  0  0
  139.4910   77.2330  222.6580 C   0  0  0  0  0  0  0  0  0  0  0  0
  138.2010   76.7620  222.7340 C   0  0  0  0  0  0  0  0  0  0  0  0
  137.1180   77.6020  222.9330 C   0  0  0  0  0  0  0  0  0  0  0  0
  135.7820   76.9730  222.9970 C   0  0  0  0  0  0  0  0  0  0  0  0
  135.1800   76.8240  221.6050 C   0  0  0  0  0  0  0  0  0  0  0  0
  135.6340   75.6040  221.0470 N   0  0  0  0  0  0  0  0  0  0  0  0
  136.7250   75.6980  220.1410 C   0  0  0  0  0  0  0  0  0  0  0  0
  136.8450   74.2290  219.7160 C   0  0  0  0  0  0  0  0  0  0  0  0
  136.6210   73.5460  221.0670 C   0  0  1  0  0  0  0  0  0  0  0  0
  137.9640   73.1710  221.5840 C   0  0  0  0  0  0  0  0  0  0  0  0
  138.0990   72.2750  222.5830 N   0  0  0  0  0  0  0  0  0  0  0  0
  139.2960   71.9010  223.0930 C   0  0  0  0  0  0  0  0  0  0  0  0
  139.4060   70.9460  224.1480 N   0  0  0  0  0  0  0  0  0  0  0  0
  138.5200   69.8090  224.1310 C   0  0  0  0  0  0  0  0  0  0  0  0
  139.1960   68.5730  224.6670 C   0  0  0  0  0  0  0  0  0  0  0  0
  139.8460   68.8540  225.9670 C   0  0  0  0  0  0  0  0  0  0  0  0
  139.8940   67.8940  226.9560 C   0  0  0  0  0  0  0  0  0  0  0  0
  140.4930   68.1370  228.1710 C   0  0  0  0  0  0  0  0  0  0  0  0
  141.0520   69.3990  228.3670 C   0  0  0  0  0  0  0  0  0  0  0  0
  141.0090   70.3660  227.3830 C   0  0  0  0  0  0  0  0  0  0  0  0
  140.4040   70.0960  226.1770 C   0  0  0  0  0  0  0  0  0  0  0  0
  140.3920   71.1810  225.1620 C   0  0  0  0  0  0  0  0  0  0  0  0
  140.4000   72.4830  222.5420 N   0  0  0  0  0  0  0  0  0  0  0  0
  140.3180   73.3810  221.5450 C   0  0  0  0  0  0  0  0  0  0  0  0
  141.5140   73.9450  221.0240 N   0  0  0  0  0  0  0  0  0  0  0  0
  141.6440   75.3960  221.1210 C   0  0  0  0  0  0  0  0  0  0  0  0
  141.4910   75.8840  219.6750 C   0  0  0  0  0  0  0  0  0  0  0  0
  142.5790   75.2120  218.9080 C   0  0  0  0  0  0  0  0  0  0  0  0
  143.0650   75.9230  217.8090 C   0  0  0  0  0  0  0  0  0  0  0  0
  144.0710   75.3610  217.0580 C   0  0  0  0  0  0  0  0  0  0  0  0
  144.5930   74.1130  217.3850 C   0  0  0  0  0  0  0  0  0  0  0  0
  144.1020   73.4250  218.4730 C   0  0  0  0  0  0  0  0  0  0  0  0
  143.0790   73.9730  219.2530 C   0  0  0  0  0  0  0  0  0  0  0  0
  142.5700   73.2000  220.4260 C   0  0  0  0  0  0  0  0  0  0  0  0
  139.0890   73.7020  221.0910 N   0  0  0  0  0  0  0  0  0  0  0  0
  135.8840   74.5240  221.9380 C   0  0  0  0  0  0  0  0  0  0  0  0
  137.3550   78.9500  223.0570 C   0  0  0  0  0  0  0  0  0  0  0  0
  138.6620   79.4450  222.9830 C   0  0  0  0  0  0  0  0  0  0  0  0
  142.9350   77.8820  221.5750 H   0  0  0  0  0  0  0  0  0  0  0  0
  142.6400   79.3110  220.7600 H   0  0  0  0  0  0  0  0  0  0  0  0
  140.3257   76.5346  222.4982 H   0  0  0  0  0  0  0  0  0  0  0  0
  138.0234   75.6811  222.6333 H   0  0  0  0  0  0  0  0  0  0  0  0
  135.8747   75.9781  223.4570 H   0  0  0  0  0  0  0  0  0  0  0  0
  135.1210   77.6156  223.5972 H   0  0  0  0  0  0  0  0  0  0  0  0
  134.0822   76.8143  221.6746 H   0  0  0  0  0  0  0  0  0  0  0  0
  135.4881   77.6670  220.9690 H   0  0  0  0  0  0  0  0  0  0  0  0
  136.4921   76.3522  219.2879 H   0  0  0  0  0  0  0  0  0  0  0  0
  137.6420   76.1347  220.5635 H   0  0  0  0  0  0  0  0  0  0  0  0
  136.0723   73.9507  218.9842 H   0  0  0  0  0  0  0  0  0  0  0  0
  137.7874   73.9663  219.2132 H   0  0  0  0  0  0  0  0  0  0  0  0
  136.0146   72.6295  221.0188 H   0  0  0  0  0  0  0  0  0  0  0  0
  137.6398   70.0326  224.7518 H   0  0  0  0  0  0  0  0  0  0  0  0
  138.2258   69.6166  223.0887 H   0  0  0  0  0  0  0  0  0  0  0  0
  138.4450   67.7807  224.8026 H   0  0  0  0  0  0  0  0  0  0  0  0
  139.9651   68.2512  223.9494 H   0  0  0  0  0  0  0  0  0  0  0  0
  139.4419   66.9088  226.7689 H   0  0  0  0  0  0  0  0  0  0  0  0
  140.5292   67.3668  228.9555 H   0  0  0  0  0  0  0  0  0  0  0  0
  141.5379   69.6291  229.3267 H   0  0  0  0  0  0  0  0  0  0  0  0
  141.4589   71.3535  227.5631 H   0  0  0  0  0  0  0  0  0  0  0  0
  140.1689   72.1350  225.6622 H   0  0  0  0  0  0  0  0  0  0  0  0
  141.3802   71.2111  224.6798 H   0  0  0  0  0  0  0  0  0  0  0  0
  140.8541   75.8167  221.7605 H   0  0  0  0  0  0  0  0  0  0  0  0
  142.5989   75.7047  221.5714 H   0  0  0  0  0  0  0  0  0  0  0  0
  140.5067   75.5985  219.2755 H   0  0  0  0  0  0  0  0  0  0  0  0
  141.5607   76.9796  219.6055 H   0  0  0  0  0  0  0  0  0  0  0  0
  142.6530   76.9095  217.5499 H   0  0  0  0  0  0  0  0  0  0  0  0
  144.4679   75.9048  216.1881 H   0  0  0  0  0  0  0  0  0  0  0  0
  145.3973   73.6760  216.7750 H   0  0  0  0  0  0  0  0  0  0  0  0
  144.5171   72.4391  218.7295 H   0  0  0  0  0  0  0  0  0  0  0  0
  142.1934   72.2217  220.0925 H   0  0  0  0  0  0  0  0  0  0  0  0
  143.3788   73.0355  221.1532 H   0  0  0  0  0  0  0  0  0  0  0  0
  134.9442   74.0925  222.3128 H   0  0  0  0  0  0  0  0  0  0  0  0
  136.4448   74.8189  222.8372 H   0  0  0  0  0  0  0  0  0  0  0  0
  136.5147   79.6421  223.2149 H   0  0  0  0  0  0  0  0  0  0  0  0
  138.8424   80.5254  223.0841 H   0  0  0  0  0  0  0  0  0  0  0  0
  1  2  1  0
  2  3  2  0
  2  4  2  0
  2  5  1  0
  5  6  2  0
  6  7  1  0
  7  8  2  0
  8  9  1  0
  9 10  1  0
 10 11  1  0
 11 12  1  0
 12 13  1  0
 13 14  1  0
 14 15  1  0
 15 16  2  0
 16 17  1  0
 17 18  1  0
 18 19  1  0
 19 20  1  0
 20 21  1  0
 21 22  2  0
 22 23  1  0
 23 24  2  0
 24 25  1  0
 25 26  2  0
 26 27  1  0
 17 28  2  0
 28 29  1  0
 29 30  1  0
 30 31  1  0
 31 32  1  0
 32 33  1  0
 33 34  2  0
 34 35  1  0
 35 36  2  0
 36 37  1  0
 37 38  2  0
 38 39  1  0
 29 40  2  0
 14 41  1  0
  8 42  1  0
 42 43  2  0
 43  5  1  0
 41 11  1  0
 40 15  1  0
 27 18  1  0
 39 30  1  0
 26 21  1  0
 38 33  1  0
  1 44  1  0
  1 45  1  0
  6 46  1  0
  7 47  1  0
  9 48  1  0
  9 49  1  0
 10 50  1  0
 10 51  1  0
 12 52  1  0
 12 53  1  0
 13 54  1  0
 13 55  1  0
 14 56  1  6
 19 57  1  0
 19 58  1  0
 20 59  1  0
 20 60  1  0
 22 61  1  0
 23 62  1  0
 24 63  1  0
 25 64  1  0
 27 65  1  0
 27 66  1  0
 31 67  1  0
 31 68  1  0
 32 69  1  0
 32 70  1  0
 34 71  1  0
 35 72  1  0
 36 73  1  0
 37 74  1  0
 39 75  1  0
 39 76  1  0
 41 77  1  0
 41 78  1  0
 42 79  1  0
 43 80  1  0
M  END
>  <smiles>  (72) 
NS(=O)(=O)c1ccc(CCN2CCC(c3nc(N4CCc5ccccc5C4)nc(N4CCc5ccccc5C4)n3)C2)cc1

>  <score_type>  (72) 
oracle

>  <origin>  (72) 
autodockgpu

>  <m_score__min__energy>  (72) 
-10.83

>  <m_primary>  (72) 
energy

>  <rmsd>  (72) 
5.534859869534372

>  <m_score__min__rmsd>  (72) 
5.534859869534372

>  <meeko>  (72) 
{"free_energy": -9.84, "intermolecular_energy": -12.22, "internal_energy": -2.53, "cluster_size": 7, "cluster_id": 2, "rank_in_cluster": 6}

>  <energy>  (72) 
-10.16

>  <cluster_rmsd>  (72) 
0.0

>  <cluster>  (72) 
6

$$$$

     RDKit          3D

 80 86  0  0  1  0  0  0  0  0999 V2000
  143.3340   80.4680  222.3350 N   0  0  0  0  0  0  0  0  0  0  0  0
  141.7920   81.1610  222.7530 S   0  0  0  0  0  0  0  0  0  0  0  0
  141.6630   81.0720  224.2590 O   0  0  0  0  0  0  0  0  0  0  0  0
  141.7140   82.5820  222.2810 O   0  0  0  0  0  0  0  0  0  0  0  0
  140.4950   80.2640  222.0190 C   0  0  0  0  0  0  0  0  0  0  0  0
  139.3670   80.0280  222.7750 C   0  0  0  0  0  0  0  0  0  0  0  0
  138.3190   79.3210  222.2310 C   0  0  0  0  0  0  0  0  0  0  0  0
  138.3520   78.8290  220.9370 C   0  0  0  0  0  0  0  0  0  0  0  0
  137.1620   78.0870  220.4700 C   0  0  0  0  0  0  0  0  0  0  0  0
  137.4470   76.5910  220.3920 C   0  0  0  0  0  0  0  0  0  0  0  0
  138.7640   76.3590  220.8560 N   0  0  0  0  0  0  0  0  0  0  0  0
  138.8870   75.9520  222.2120 C   0  0  0  0  0  0  0  0  0  0  0  0
  140.4150   75.8960  222.3350 C   0  0  0  0  0  0  0  0  0  0  0  0
  140.7640   75.2660  220.9850 C   0  0  1  0  0  0  0  0  0  0  0  0
  141.0110   73.8210  221.2380 C   0  0  0  0  0  0  0  0  0  0  0  0
  140.5970   73.2350  222.3800 N   0  0  0  0  0  0  0  0  0  0  0  0
  140.7980   71.9260  222.6610 C   0  0  0  0  0  0  0  0  0  0  0  0
  140.3440   71.3330  223.8780 N   0  0  0  0  0  0  0  0  0  0  0  0
  139.3540   70.2880  223.7960 C   0  0  0  0  0  0  0  0  0  0  0  0
  139.5640   69.2420  224.8620 C   0  0  0  0  0  0  0  0  0  0  0  0
  139.7150   69.8740  226.1920 C   0  0  0  0  0  0  0  0  0  0  0  0
  139.2290   69.2590  227.3260 C   0  0  0  0  0  0  0  0  0  0  0  0
  139.3590   69.8310  228.5710 C   0  0  0  0  0  0  0  0  0  0  0  0
  140.0050   71.0640  228.6430 C   0  0  0  0  0  0  0  0  0  0  0  0
  140.4950   71.6880  227.5140 C   0  0  0  0  0  0  0  0  0  0  0  0
  140.3510   71.0930  226.2810 C   0  0  0  0  0  0  0  0  0  0  0  0
  140.9010   71.8170  225.1060 C   0  0  0  0  0  0  0  0  0  0  0  0
  141.4600   71.1960  221.7180 N   0  0  0  0  0  0  0  0  0  0  0  0
  141.8930   71.7350  220.5650 C   0  0  0  0  0  0  0  0  0  0  0  0
  142.5760   70.9090  219.6310 N   0  0  0  0  0  0  0  0  0  0  0  0
  141.7520   69.9910  218.8510 C   0  0  0  0  0  0  0  0  0  0  0  0
  142.0920   68.6060  219.4190 C   0  0  0  0  0  0  0  0  0  0  0  0
  143.5610   68.4430  219.2220 C   0  0  0  0  0  0  0  0  0  0  0  0
  143.9990   67.1300  219.0390 C   0  0  0  0  0  0  0  0  0  0  0  0
  145.3430   66.9080  218.8500 C   0  0  0  0  0  0  0  0  0  0  0  0
  146.2460   67.9660  218.8430 C   0  0  0  0  0  0  0  0  0  0  0  0
  145.7980   69.2560  219.0250 C   0  0  0  0  0  0  0  0  0  0  0  0
  144.4360   69.5100  219.2190 C   0  0  0  0  0  0  0  0  0  0  0  0
  143.9840   70.9210  219.4140 C   0  0  0  0  0  0  0  0  0  0  0  0
  141.6530   73.0450  220.3580 N   0  0  0  0  0  0  0  0  0  0  0  0
  139.6070   75.5330  220.0630 C   0  0  0  0  0  0  0  0  0  0  0  0
  139.4760   79.0620  220.1810 C   0  0  0  0  0  0  0  0  0  0  0  0
  140.5500   79.7790  220.7190 C   0  0  0  0  0  0  0  0  0  0  0  0
  143.3840   80.4870  221.2730 H   0  0  0  0  0  0  0  0  0  0  0  0
  143.3040   79.4360  222.5690 H   0  0  0  0  0  0  0  0  0  0  0  0
  139.3047   80.4026  223.8074 H   0  0  0  0  0  0  0  0  0  0  0  0
  137.4244   79.1405  222.8452 H   0  0  0  0  0  0  0  0  0  0  0  0
  136.3325   78.2591  221.1716 H   0  0  0  0  0  0  0  0  0  0  0  0
  136.8971   78.4463  219.4647 H   0  0  0  0  0  0  0  0  0  0  0  0
  136.7301   76.0436  221.0216 H   0  0  0  0  0  0  0  0  0  0  0  0
  137.3468   76.2423  219.3536 H   0  0  0  0  0  0  0  0  0  0  0  0
  138.4486   76.6890  222.9009 H   0  0  0  0  0  0  0  0  0  0  0  0
  138.3670   75.0160  222.4641 H   0  0  0  0  0  0  0  0  0  0  0  0
  140.8534   76.8990  222.4436 H   0  0  0  0  0  0  0  0  0  0  0  0
  140.7906   75.3504  223.2132 H   0  0  0  0  0  0  0  0  0  0  0  0
  141.6653   75.6800  220.5092 H   0  0  0  0  0  0  0  0  0  0  0  0
  138.3552   70.7313  223.9222 H   0  0  0  0  0  0  0  0  0  0  0  0
  139.4459   69.8023  222.8134 H   0  0  0  0  0  0  0  0  0  0  0  0
  138.6968   68.5655  224.8800 H   0  0  0  0  0  0  0  0  0  0  0  0
  140.4812   68.6804  224.6309 H   0  0  0  0  0  0  0  0  0  0  0  0
  138.7243   68.2860  227.2334 H   0  0  0  0  0  0  0  0  0  0  0  0
  138.9691   69.3354  229.4723 H   0  0  0  0  0  0  0  0  0  0  0  0
  140.1270   71.5506  229.6219 H   0  0  0  0  0  0  0  0  0  0  0  0
  141.0008   72.6611  227.5993 H   0  0  0  0  0  0  0  0  0  0  0  0
  140.6683   72.8875  225.2057 H   0  0  0  0  0  0  0  0  0  0  0  0
  141.9881   71.6512  225.0787 H   0  0  0  0  0  0  0  0  0  0  0  0
  140.6836   70.2161  218.9845 H   0  0  0  0  0  0  0  0  0  0  0  0
  141.9470   70.0633  217.7708 H   0  0  0  0  0  0  0  0  0  0  0  0
  141.8400   68.5569  220.4886 H   0  0  0  0  0  0  0  0  0  0  0  0
  141.5227   67.8091  218.9182 H   0  0  0  0  0  0  0  0  0  0  0  0
  143.2857   66.2926  219.0458 H   0  0  0  0  0  0  0  0  0  0  0  0
  145.7084   65.8810  218.7025 H   0  0  0  0  0  0  0  0  0  0  0  0
  147.3183   67.7726  218.6921 H   0  0  0  0  0  0  0  0  0  0  0  0
  146.5147   70.0904  219.0177 H   0  0  0  0  0  0  0  0  0  0  0  0
  144.4919   71.3580  220.2864 H   0  0  0  0  0  0  0  0  0  0  0  0
  144.2277   71.5251  218.5276 H   0  0  0  0  0  0  0  0  0  0  0  0
  139.9362   76.0578  219.1541 H   0  0  0  0  0  0  0  0  0  0  0  0
  139.1123   74.6181  219.7048 H   0  0  0  0  0  0  0  0  0  0  0  0
  139.5312   78.6835  219.1497 H   0  0  0  0  0  0  0  0  0  0  0  0
  141.4458   79.9602  220.1069 H   0  0  0  0  0  0  0  0  0  0  0  0
  1  2  1  0
  2  3  2  0
  2  4  2  0
  2  5  1  0
  5  6  2  0
  6  7  1  0
  7  8  2  0
  8  9  1  0
  9 10  1  0
 10 11  1  0
 11 12  1  0
 12 13  1  0
 13 14  1  0
 14 15  1  0
 15 16  2  0
 16 17  1  0
 17 18  1  0
 18 19  1  0
 19 20  1  0
 20 21  1  0
 21 22  2  0
 22 23  1  0
 23 24  2  0
 24 25  1  0
 25 26  2  0
 26 27  1  0
 17 28  2  0
 28 29  1  0
 29 30  1  0
 30 31  1  0
 31 32  1  0
 32 33  1  0
 33 34  2  0
 34 35  1  0
 35 36  2  0
 36 37  1  0
 37 38  2  0
 38 39  1  0
 29 40  2  0
 14 41  1  0
  8 42  1  0
 42 43  2  0
 43  5  1  0
 41 11  1  0
 40 15  1  0
 27 18  1  0
 39 30  1  0
 26 21  1  0
 38 33  1  0
  1 44  1  0
  1 45  1  0
  6 46  1  0
  7 47  1  0
  9 48  1  0
  9 49  1  0
 10 50  1  0
 10 51  1  0
 12 52  1  0
 12 53  1  0
 13 54  1  0
 13 55  1  0
 14 56  1  6
 19 57  1  0
 19 58  1  0
 20 59  1  0
 20 60  1  0
 22 61  1  0
 23 62  1  0
 24 63  1  0
 25 64  1  0
 27 65  1  0
 27 66  1  0
 31 67  1  0
 31 68  1  0
 32 69  1  0
 32 70  1  0
 34 71  1  0
 35 72  1  0
 36 73  1  0
 37 74  1  0
 39 75  1  0
 39 76  1  0
 41 77  1  0
 41 78  1  0
 42 79  1  0
 43 80  1  0
M  END
>  <smiles>  (73) 
NS(=O)(=O)c1ccc(CCN2CCC(c3nc(N4CCc5ccccc5C4)nc(N4CCc5ccccc5C4)n3)C2)cc1

>  <score_type>  (73) 
oracle

>  <origin>  (73) 
autodockgpu

>  <m_score__min__energy>  (73) 
-10.83

>  <m_primary>  (73) 
energy

>  <rmsd>  (73) 
3.80919353384815

>  <m_score__min__rmsd>  (73) 
3.80919353384815

>  <meeko>  (73) 
{"free_energy": -9.63, "intermolecular_energy": -12.02, "internal_energy": -1.79, "cluster_size": 1, "cluster_id": 13, "rank_in_cluster": 1}

>  <energy>  (73) 
-9.8

>  <cluster_rmsd>  (73) 
1.46

>  <cluster>  (73) 
6

$$$$

     RDKit          3D

 80 86  0  0  1  0  0  0  0  0999 V2000
  137.0630   73.7790  222.6410 N   0  0  0  0  0  0  0  0  0  0  0  0
  136.1270   72.4750  221.9650 S   0  0  0  0  0  0  0  0  0  0  0  0
  136.2910   71.2890  222.8920 O   0  0  0  0  0  0  0  0  0  0  0  0
  134.6880   72.8760  221.8410 O   0  0  0  0  0  0  0  0  0  0  0  0
  136.7200   72.0470  220.3870 C   0  0  0  0  0  0  0  0  0  0  0  0
  136.7030   73.0180  219.4090 C   0  0  0  0  0  0  0  0  0  0  0  0
  137.1630   72.7200  218.1470 C   0  0  0  0  0  0  0  0  0  0  0  0
  137.6470   71.4660  217.8130 C   0  0  0  0  0  0  0  0  0  0  0  0
  138.1120   71.2730  216.4230 C   0  0  0  0  0  0  0  0  0  0  0  0
  139.4290   70.5060  216.3880 C   0  0  0  0  0  0  0  0  0  0  0  0
  140.4180   71.2820  217.0410 N   0  0  0  0  0  0  0  0  0  0  0  0
  140.2210   72.6890  217.0240 C   0  0  0  0  0  0  0  0  0  0  0  0
  141.5040   73.1450  217.7290 C   0  0  0  0  0  0  0  0  0  0  0  0
  141.5930   72.0820  218.8260 C   0  0  1  0  0  0  0  0  0  0  0  0
  141.0700   72.7070  220.0700 C   0  0  0  0  0  0  0  0  0  0  0  0
  140.7610   71.9570  221.1470 N   0  0  0  0  0  0  0  0  0  0  0  0
  140.2800   72.4740  222.3030 C   0  0  0  0  0  0  0  0  0  0  0  0
  139.9660   71.6530  223.4280 N   0  0  0  0  0  0  0  0  0  0  0  0
  138.9570   70.6350  223.2660 C   0  0  0  0  0  0  0  0  0  0  0  0
  139.2770   69.4040  224.0750 C   0  0  0  0  0  0  0  0  0  0  0  0
  139.5970   69.7670  225.4740 C   0  0  0  0  0  0  0  0  0  0  0  0
  139.2420   68.9390  226.5180 C   0  0  0  0  0  0  0  0  0  0  0  0
  139.5300   69.2600  227.8250 C   0  0  0  0  0  0  0  0  0  0  0  0
  140.1990   70.4610  228.0560 C   0  0  0  0  0  0  0  0  0  0  0  0
  140.5590   71.2950  227.0180 C   0  0  0  0  0  0  0  0  0  0  0  0
  140.2580   70.9500  225.7200 C   0  0  0  0  0  0  0  0  0  0  0  0
  140.6750   71.8930  224.6500 C   0  0  0  0  0  0  0  0  0  0  0  0
  140.1110   73.8260  222.3400 N   0  0  0  0  0  0  0  0  0  0  0  0
  140.4040   74.6170  221.2930 C   0  0  0  0  0  0  0  0  0  0  0  0
  140.2000   76.0190  221.4080 N   0  0  0  0  0  0  0  0  0  0  0  0
  140.0640   76.7600  220.1570 C   0  0  0  0  0  0  0  0  0  0  0  0
  141.3680   77.5620  220.0530 C   0  0  0  0  0  0  0  0  0  0  0  0
  141.4140   78.4110  221.2780 C   0  0  0  0  0  0  0  0  0  0  0  0
  142.0820   79.6290  221.1380 C   0  0  0  0  0  0  0  0  0  0  0  0
  142.1610   80.4630  222.2290 C   0  0  0  0  0  0  0  0  0  0  0  0
  141.5900   80.1010  223.4450 C   0  0  0  0  0  0  0  0  0  0  0  0
  140.9340   78.8950  223.5670 C   0  0  0  0  0  0  0  0  0  0  0  0
  140.8390   78.0290  222.4730 C   0  0  0  0  0  0  0  0  0  0  0  0
  140.1210   76.7300  222.6390 C   0  0  0  0  0  0  0  0  0  0  0  0
  140.8800   74.0270  220.1770 N   0  0  0  0  0  0  0  0  0  0  0  0
  140.7950   70.8980  218.3570 C   0  0  0  0  0  0  0  0  0  0  0  0
  137.6650   70.4960  218.7860 C   0  0  0  0  0  0  0  0  0  0  0  0
  137.2010   70.7830  220.0750 C   0  0  0  0  0  0  0  0  0  0  0  0
  138.0560   73.4100  222.7320 H   0  0  0  0  0  0  0  0  0  0  0  0
  136.7520   73.9200  223.6440 H   0  0  0  0  0  0  0  0  0  0  0  0
  136.3239   74.0253  219.6361 H   0  0  0  0  0  0  0  0  0  0  0  0
  137.1458   73.5049  217.3766 H   0  0  0  0  0  0  0  0  0  0  0  0
  137.3515   70.7073  215.8648 H   0  0  0  0  0  0  0  0  0  0  0  0
  138.2702   72.2612  215.9664 H   0  0  0  0  0  0  0  0  0  0  0  0
  139.3113   69.5427  216.9058 H   0  0  0  0  0  0  0  0  0  0  0  0
  139.7265   70.3149  215.3464 H   0  0  0  0  0  0  0  0  0  0  0  0
  140.1578   73.0802  215.9978 H   0  0  0  0  0  0  0  0  0  0  0  0
  139.2871   73.0322  217.4931 H   0  0  0  0  0  0  0  0  0  0  0  0
  142.3738   73.1120  217.0564 H   0  0  0  0  0  0  0  0  0  0  0  0
  141.4917   74.1843  218.0893 H   0  0  0  0  0  0  0  0  0  0  0  0
  142.6131   71.7273  219.0347 H   0  0  0  0  0  0  0  0  0  0  0  0
  137.9878   71.0372  223.5959 H   0  0  0  0  0  0  0  0  0  0  0  0
  138.9227   70.3500  222.2041 H   0  0  0  0  0  0  0  0  0  0  0  0
  138.4077   68.7300  224.0664 H   0  0  0  0  0  0  0  0  0  0  0  0
  140.1505   68.9051  223.6300 H   0  0  0  0  0  0  0  0  0  0  0  0
  138.7153   67.9981  226.3007 H   0  0  0  0  0  0  0  0  0  0  0  0
  139.2439   68.5958  228.6538 H   0  0  0  0  0  0  0  0  0  0  0  0
  140.4452   70.7498  229.0885 H   0  0  0  0  0  0  0  0  0  0  0  0
  141.0872   72.2368  227.2278 H   0  0  0  0  0  0  0  0  0  0  0  0
  140.4739   72.9219  224.9830 H   0  0  0  0  0  0  0  0  0  0  0  0
  141.7481   71.7437  224.4596 H   0  0  0  0  0  0  0  0  0  0  0  0
  139.9598   76.0720  219.3051 H   0  0  0  0  0  0  0  0  0  0  0  0
  139.1711   77.4023  220.1419 H   0  0  0  0  0  0  0  0  0  0  0  0
  142.2342   76.8847  220.0222 H   0  0  0  0  0  0  0  0  0  0  0  0
  141.4016   78.1681  219.1356 H   0  0  0  0  0  0  0  0  0  0  0  0
  142.5348   79.9151  220.1772 H   0  0  0  0  0  0  0  0  0  0  0  0
  142.6818   81.4277  222.1390 H   0  0  0  0  0  0  0  0  0  0  0  0
  141.6621   80.7775  224.3093 H   0  0  0  0  0  0  0  0  0  0  0  0
  140.4830   78.6122  224.5296 H   0  0  0  0  0  0  0  0  0  0  0  0
  140.5940   76.1425  223.4397 H   0  0  0  0  0  0  0  0  0  0  0  0
  139.0696   76.9082  222.9087 H   0  0  0  0  0  0  0  0  0  0  0  0
  141.4086   69.9851  218.3442 H   0  0  0  0  0  0  0  0  0  0  0  0
  139.9394   70.6611  219.0065 H   0  0  0  0  0  0  0  0  0  0  0  0
  138.0452   69.4908  218.5512 H   0  0  0  0  0  0  0  0  0  0  0  0
  137.2177   70.0000  220.8474 H   0  0  0  0  0  0  0  0  0  0  0  0
  1  2  1  0
  2  3  2  0
  2  4  2  0
  2  5  1  0
  5  6  2  0
  6  7  1  0
  7  8  2  0
  8  9  1  0
  9 10  1  0
 10 11  1  0
 11 12  1  0
 12 13  1  0
 13 14  1  0
 14 15  1  0
 15 16  2  0
 16 17  1  0
 17 18  1  0
 18 19  1  0
 19 20  1  0
 20 21  1  0
 21 22  2  0
 22 23  1  0
 23 24  2  0
 24 25  1  0
 25 26  2  0
 26 27  1  0
 17 28  2  0
 28 29  1  0
 29 30  1  0
 30 31  1  0
 31 32  1  0
 32 33  1  0
 33 34  2  0
 34 35  1  0
 35 36  2  0
 36 37  1  0
 37 38  2  0
 38 39  1  0
 29 40  2  0
 14 41  1  0
  8 42  1  0
 42 43  2  0
 43  5  1  0
 41 11  1  0
 40 15  1  0
 27 18  1  0
 39 30  1  0
 26 21  1  0
 38 33  1  0
  1 44  1  0
  1 45  1  0
  6 46  1  0
  7 47  1  0
  9 48  1  0
  9 49  1  0
 10 50  1  0
 10 51  1  0
 12 52  1  0
 12 53  1  0
 13 54  1  0
 13 55  1  0
 14 56  1  1
 19 57  1  0
 19 58  1  0
 20 59  1  0
 20 60  1  0
 22 61  1  0
 23 62  1  0
 24 63  1  0
 25 64  1  0
 27 65  1  0
 27 66  1  0
 31 67  1  0
 31 68  1  0
 32 69  1  0
 32 70  1  0
 34 71  1  0
 35 72  1  0
 36 73  1  0
 37 74  1  0
 39 75  1  0
 39 76  1  0
 41 77  1  0
 41 78  1  0
 42 79  1  0
 43 80  1  0
M  END
>  <smiles>  (74) 
NS(=O)(=O)c1ccc(CCN2CCC(c3nc(N4CCc5ccccc5C4)nc(N4CCc5ccccc5C4)n3)C2)cc1

>  <score_type>  (74) 
oracle

>  <origin>  (74) 
autodockgpu

>  <m_score__min__energy>  (74) 
-10.83

>  <m_primary>  (74) 
energy

>  <rmsd>  (74) 
8.646482963939835

>  <m_score__min__rmsd>  (74) 
8.646482963939835

>  <meeko>  (74) 
{"free_energy": -8.14, "intermolecular_energy": -10.53, "internal_energy": -3.73, "cluster_size": 2, "cluster_id": 16, "rank_in_cluster": 1}

>  <energy>  (74) 
-9.67

>  <cluster_rmsd>  (74) 
0.81

>  <cluster>  (74) 
6

$$$$

     RDKit          3D

 80 86  0  0  1  0  0  0  0  0999 V2000
  142.2120   77.5710  220.6840 N   0  0  0  0  0  0  0  0  0  0  0  0
  141.4510   78.7030  221.7670 S   0  0  0  0  0  0  0  0  0  0  0  0
  142.2850   78.7340  223.0300 O   0  0  0  0  0  0  0  0  0  0  0  0
  141.3720   80.0590  221.1320 O   0  0  0  0  0  0  0  0  0  0  0  0
  139.8390   78.1840  222.1650 C   0  0  0  0  0  0  0  0  0  0  0  0
  139.6360   76.8430  222.4060 C   0  0  0  0  0  0  0  0  0  0  0  0
  138.3750   76.3920  222.7230 C   0  0  0  0  0  0  0  0  0  0  0  0
  137.2860   77.2420  222.8090 C   0  0  0  0  0  0  0  0  0  0  0  0
  135.9850   76.6340  223.1590 C   0  0  0  0  0  0  0  0  0  0  0  0
  135.0960   76.4990  221.9280 C   0  0  0  0  0  0  0  0  0  0  0  0
  135.5370   75.3820  221.1760 N   0  0  0  0  0  0  0  0  0  0  0  0
  136.6230   75.6140  220.2890 C   0  0  0  0  0  0  0  0  0  0  0  0
  136.7270   74.2330  219.6300 C   0  0  0  0  0  0  0  0  0  0  0  0
  136.5060   73.3420  220.8540 C   0  0  1  0  0  0  0  0  0  0  0  0
  137.8500   72.8780  221.2930 C   0  0  0  0  0  0  0  0  0  0  0  0
  137.9960   72.1220  222.4000 N   0  0  0  0  0  0  0  0  0  0  0  0
  139.1950   71.6750  222.8450 C   0  0  0  0  0  0  0  0  0  0  0  0
  139.3170   70.8720  224.0190 N   0  0  0  0  0  0  0  0  0  0  0  0
  138.3870   69.7850  224.1980 C   0  0  0  0  0  0  0  0  0  0  0  0
  139.0380   68.6050  224.8740 C   0  0  0  0  0  0  0  0  0  0  0  0
  139.7590   69.0340  226.0930 C   0  0  0  0  0  0  0  0  0  0  0  0
  139.8160   68.2190  227.2030 C   0  0  0  0  0  0  0  0  0  0  0  0
  140.4820   68.6000  228.3470 C   0  0  0  0  0  0  0  0  0  0  0  0
  141.0990   69.8500  228.3400 C   0  0  0  0  0  0  0  0  0  0  0  0
  141.0480   70.6720  227.2330 C   0  0  0  0  0  0  0  0  0  0  0  0
  140.3760   70.2660  226.1030 C   0  0  0  0  0  0  0  0  0  0  0  0
  140.3580   71.1990  224.9470 C   0  0  0  0  0  0  0  0  0  0  0  0
  140.2870   72.0330  222.1100 N   0  0  0  0  0  0  0  0  0  0  0  0
  140.1930   72.7850  221.0000 C   0  0  0  0  0  0  0  0  0  0  0  0
  141.3780   73.1170  220.2890 N   0  0  0  0  0  0  0  0  0  0  0  0
  141.6740   72.3110  219.1080 C   0  0  0  0  0  0  0  0  0  0  0  0
  142.8780   71.4580  219.5280 C   0  0  0  0  0  0  0  0  0  0  0  0
  143.9460   72.4300  219.9020 C   0  0  0  0  0  0  0  0  0  0  0  0
  145.2550   71.9910  219.6920 C   0  0  0  0  0  0  0  0  0  0  0  0
  146.2890   72.8380  220.0130 C   0  0  0  0  0  0  0  0  0  0  0  0
  146.0380   74.1030  220.5360 C   0  0  0  0  0  0  0  0  0  0  0  0
  144.7400   74.5210  220.7360 C   0  0  0  0  0  0  0  0  0  0  0  0
  143.6700   73.6790  220.4180 C   0  0  0  0  0  0  0  0  0  0  0  0
  142.2750   74.1630  220.6480 C   0  0  0  0  0  0  0  0  0  0  0  0
  138.9640   73.1900  220.6210 N   0  0  0  0  0  0  0  0  0  0  0  0
  135.7840   74.1700  221.8780 C   0  0  0  0  0  0  0  0  0  0  0  0
  137.4850   78.5800  222.5690 C   0  0  0  0  0  0  0  0  0  0  0  0
  138.7610   79.0550  222.2460 C   0  0  0  0  0  0  0  0  0  0  0  0
  142.2820   76.6560  221.2210 H   0  0  0  0  0  0  0  0  0  0  0  0
  143.2210   77.8680  220.5560 H   0  0  0  0  0  0  0  0  0  0  0  0
  140.4771   76.1366  222.3454 H   0  0  0  0  0  0  0  0  0  0  0  0
  138.2275   75.3189  222.9147 H   0  0  0  0  0  0  0  0  0  0  0  0
  136.1582   75.6363  223.5887 H   0  0  0  0  0  0  0  0  0  0  0  0
  135.4787   77.2848  223.8871 H   0  0  0  0  0  0  0  0  0  0  0  0
  134.0517   76.3481  222.2390 H   0  0  0  0  0  0  0  0  0  0  0  0
  135.1559   77.4121  221.3175 H   0  0  0  0  0  0  0  0  0  0  0  0
  136.3904   76.4001  219.5555 H   0  0  0  0  0  0  0  0  0  0  0  0
  137.5465   75.9691  220.7696 H   0  0  0  0  0  0  0  0  0  0  0  0
  135.9470   74.0833  218.8690 H   0  0  0  0  0  0  0  0  0  0  0  0
  137.6635   74.0481  219.0833 H   0  0  0  0  0  0  0  0  0  0  0  0
  135.8910   72.4504  220.6621 H   0  0  0  0  0  0  0  0  0  0  0  0
  137.5465   70.1322  224.8168 H   0  0  0  0  0  0  0  0  0  0  0  0
  138.0371   69.4639  223.2058 H   0  0  0  0  0  0  0  0  0  0  0  0
  138.2634   67.8746  225.1506 H   0  0  0  0  0  0  0  0  0  0  0  0
  139.7586   68.1512  224.1777 H   0  0  0  0  0  0  0  0  0  0  0  0
  139.3168   67.2392  227.1746 H   0  0  0  0  0  0  0  0  0  0  0  0
  140.5252   67.9449  229.2296 H   0  0  0  0  0  0  0  0  0  0  0  0
  141.6385   70.1885  229.2369 H   0  0  0  0  0  0  0  0  0  0  0  0
  141.5451   71.6530  227.2538 H   0  0  0  0  0  0  0  0  0  0  0  0
  140.1972   72.2223  225.3172 H   0  0  0  0  0  0  0  0  0  0  0  0
  141.3222   71.1161  224.4242 H   0  0  0  0  0  0  0  0  0  0  0  0
  140.8167   71.6737  218.8455 H   0  0  0  0  0  0  0  0  0  0  0  0
  141.8817   72.9252  218.2194 H   0  0  0  0  0  0  0  0  0  0  0  0
  142.6179   70.8234  220.3880 H   0  0  0  0  0  0  0  0  0  0  0  0
  143.2032   70.7863  218.7199 H   0  0  0  0  0  0  0  0  0  0  0  0
  145.4540   70.9909  219.2794 H   0  0  0  0  0  0  0  0  0  0  0  0
  147.3275   72.5119  219.8545 H   0  0  0  0  0  0  0  0  0  0  0  0
  146.8756   74.7693  220.7898 H   0  0  0  0  0  0  0  0  0  0  0  0
  144.5448   75.5221  221.1479 H   0  0  0  0  0  0  0  0  0  0  0  0
  142.1404   74.4217  221.7086 H   0  0  0  0  0  0  0  0  0  0  0  0
  142.0778   75.0587  220.0407 H   0  0  0  0  0  0  0  0  0  0  0  0
  134.8432   73.6901  222.1856 H   0  0  0  0  0  0  0  0  0  0  0  0
  136.3534   74.3107  222.8086 H   0  0  0  0  0  0  0  0  0  0  0  0
  136.6387   79.2800  222.6309 H   0  0  0  0  0  0  0  0  0  0  0  0
  138.9112   80.1278  222.0546 H   0  0  0  0  0  0  0  0  0  0  0  0
  1  2  1  0
  2  3  2  0
  2  4  2  0
  2  5  1  0
  5  6  2  0
  6  7  1  0
  7  8  2  0
  8  9  1  0
  9 10  1  0
 10 11  1  0
 11 12  1  0
 12 13  1  0
 13 14  1  0
 14 15  1  0
 15 16  2  0
 16 17  1  0
 17 18  1  0
 18 19  1  0
 19 20  1  0
 20 21  1  0
 21 22  2  0
 22 23  1  0
 23 24  2  0
 24 25  1  0
 25 26  2  0
 26 27  1  0
 17 28  2  0
 28 29  1  0
 29 30  1  0
 30 31  1  0
 31 32  1  0
 32 33  1  0
 33 34  2  0
 34 35  1  0
 35 36  2  0
 36 37  1  0
 37 38  2  0
 38 39  1  0
 29 40  2  0
 14 41  1  0
  8 42  1  0
 42 43  2  0
 43  5  1  0
 41 11  1  0
 40 15  1  0
 27 18  1  0
 39 30  1  0
 26 21  1  0
 38 33  1  0
  1 44  1  0
  1 45  1  0
  6 46  1  0
  7 47  1  0
  9 48  1  0
  9 49  1  0
 10 50  1  0
 10 51  1  0
 12 52  1  0
 12 53  1  0
 13 54  1  0
 13 55  1  0
 14 56  1  6
 19 57  1  0
 19 58  1  0
 20 59  1  0
 20 60  1  0
 22 61  1  0
 23 62  1  0
 24 63  1  0
 25 64  1  0
 27 65  1  0
 27 66  1  0
 31 67  1  0
 31 68  1  0
 32 69  1  0
 32 70  1  0
 34 71  1  0
 35 72  1  0
 36 73  1  0
 37 74  1  0
 39 75  1  0
 39 76  1  0
 41 77  1  0
 41 78  1  0
 42 79  1  0
 43 80  1  0
M  END
>  <smiles>  (75) 
NS(=O)(=O)c1ccc(CCN2CCC(c3nc(N4CCc5ccccc5C4)nc(N4CCc5ccccc5C4)n3)C2)cc1

>  <score_type>  (75) 
oracle

>  <origin>  (75) 
autodockgpu

>  <m_score__min__energy>  (75) 
-10.83

>  <m_primary>  (75) 
energy

>  <rmsd>  (75) 
5.662323023025214

>  <m_score__min__rmsd>  (75) 
5.662323023025214

>  <meeko>  (75) 
{"free_energy": -10.24, "intermolecular_energy": -12.63, "internal_energy": -2.29, "cluster_size": 7, "cluster_id": 2, "rank_in_cluster": 2}

>  <energy>  (75) 
-9.54

>  <cluster_rmsd>  (75) 
1.18

>  <cluster>  (75) 
6

$$$$

     RDKit          3D

 80 86  0  0  1  0  0  0  0  0999 V2000
  143.2140   79.6080  222.7420 N   0  0  0  0  0  0  0  0  0  0  0  0
  141.5130   79.7670  223.0820 S   0  0  0  0  0  0  0  0  0  0  0  0
  141.2660   79.0990  224.4180 O   0  0  0  0  0  0  0  0  0  0  0  0
  141.1210   81.2140  223.1140 O   0  0  0  0  0  0  0  0  0  0  0  0
  140.5650   78.9650  221.8630 C   0  0  0  0  0  0  0  0  0  0  0  0
  139.2610   79.3770  221.6870 C   0  0  0  0  0  0  0  0  0  0  0  0
  138.4790   78.7680  220.7340 C   0  0  0  0  0  0  0  0  0  0  0  0
  138.9530   77.7430  219.9320 C   0  0  0  0  0  0  0  0  0  0  0  0
  138.0120   77.1720  218.9450 C   0  0  0  0  0  0  0  0  0  0  0  0
  136.5970   77.1120  219.5080 C   0  0  0  0  0  0  0  0  0  0  0  0
  136.3760   75.8150  220.0310 N   0  0  0  0  0  0  0  0  0  0  0  0
  136.7240   74.7300  219.1810 C   0  0  0  0  0  0  0  0  0  0  0  0
  136.2660   73.5530  220.0520 C   0  0  0  0  0  0  0  0  0  0  0  0
  136.7350   74.0420  221.4230 C   0  0  1  0  0  0  0  0  0  0  0  0
  138.0140   73.3400  221.7120 C   0  0  0  0  0  0  0  0  0  0  0  0
  138.1110   72.4660  222.7340 N   0  0  0  0  0  0  0  0  0  0  0  0
  139.2500   71.8020  223.0430 C   0  0  0  0  0  0  0  0  0  0  0  0
  139.3200   70.8790  224.1290 N   0  0  0  0  0  0  0  0  0  0  0  0
  138.3600   69.8040  224.1700 C   0  0  0  0  0  0  0  0  0  0  0  0
  138.9630   68.5430  224.7360 C   0  0  0  0  0  0  0  0  0  0  0  0
  139.6600   68.8240  226.0120 C   0  0  0  0  0  0  0  0  0  0  0  0
  139.6660   67.8980  227.0320 C   0  0  0  0  0  0  0  0  0  0  0  0
  140.3070   68.1400  228.2260 C   0  0  0  0  0  0  0  0  0  0  0  0
  140.9540   69.3680  228.3650 C   0  0  0  0  0  0  0  0  0  0  0  0
  140.9530   70.3020  227.3490 C   0  0  0  0  0  0  0  0  0  0  0  0
  140.3040   70.0320  226.1660 C   0  0  0  0  0  0  0  0  0  0  0  0
  140.3420   71.0800  225.1130 C   0  0  0  0  0  0  0  0  0  0  0  0
  140.3350   72.0600  222.2570 N   0  0  0  0  0  0  0  0  0  0  0  0
  140.2890   72.9230  221.2280 C   0  0  0  0  0  0  0  0  0  0  0  0
  141.4630   73.1390  220.4560 N   0  0  0  0  0  0  0  0  0  0  0  0
  141.6550   72.2610  219.3050 C   0  0  0  0  0  0  0  0  0  0  0  0
  142.8170   71.3480  219.7210 C   0  0  0  0  0  0  0  0  0  0  0  0
  143.9610   72.2610  220.0040 C   0  0  0  0  0  0  0  0  0  0  0  0
  145.2280   71.7250  219.7660 C   0  0  0  0  0  0  0  0  0  0  0  0
  146.3290   72.5140  220.0060 C   0  0  0  0  0  0  0  0  0  0  0  0
  146.1850   73.8160  220.4750 C   0  0  0  0  0  0  0  0  0  0  0  0
  144.9260   74.3300  220.7040 C   0  0  0  0  0  0  0  0  0  0  0  0
  143.7900   73.5490  220.4690 C   0  0  0  0  0  0  0  0  0  0  0  0
  142.4420   74.1370  220.7280 C   0  0  0  0  0  0  0  0  0  0  0  0
  139.1180   73.5440  220.9840 N   0  0  0  0  0  0  0  0  0  0  0  0
  136.8680   75.5370  221.3360 C   0  0  0  0  0  0  0  0  0  0  0  0
  140.2520   77.3300  220.1050 C   0  0  0  0  0  0  0  0  0  0  0  0
  141.0620   77.9390  221.0700 C   0  0  0  0  0  0  0  0  0  0  0  0
  143.3180   79.7620  221.6950 H   0  0  0  0  0  0  0  0  0  0  0  0
  143.4810   78.5920  222.8780 H   0  0  0  0  0  0  0  0  0  0  0  0
  138.8488   80.1880  222.3053 H   0  0  0  0  0  0  0  0  0  0  0  0
  137.4406   79.1067  220.6039 H   0  0  0  0  0  0  0  0  0  0  0  0
  138.0132   77.8003  218.0421 H   0  0  0  0  0  0  0  0  0  0  0  0
  138.3362   76.1488  218.7041 H   0  0  0  0  0  0  0  0  0  0  0  0
  136.4839   77.8588  220.3077 H   0  0  0  0  0  0  0  0  0  0  0  0
  135.8663   77.3279  218.7146 H   0  0  0  0  0  0  0  0  0  0  0  0
  136.1788   74.7680  218.2263 H   0  0  0  0  0  0  0  0  0  0  0  0
  137.7810   74.6989  218.8780 H   0  0  0  0  0  0  0  0  0  0  0  0
  135.1747   73.4193  220.0172 H   0  0  0  0  0  0  0  0  0  0  0  0
  136.6595   72.5712  219.7498 H   0  0  0  0  0  0  0  0  0  0  0  0
  136.0397   73.8224  222.2466 H   0  0  0  0  0  0  0  0  0  0  0  0
  137.5107   70.1075  224.7998 H   0  0  0  0  0  0  0  0  0  0  0  0
  138.0313   69.5966  223.1409 H   0  0  0  0  0  0  0  0  0  0  0  0
  138.1635   67.8091  224.9151 H   0  0  0  0  0  0  0  0  0  0  0  0
  139.6918   68.1445  224.0148 H   0  0  0  0  0  0  0  0  0  0  0  0
  139.1448   66.9400  226.8886 H   0  0  0  0  0  0  0  0  0  0  0  0
  140.3089   67.3962  229.0364 H   0  0  0  0  0  0  0  0  0  0  0  0
  141.4766   69.5970  229.3054 H   0  0  0  0  0  0  0  0  0  0  0  0
  141.4712   71.2627  227.4849 H   0  0  0  0  0  0  0  0  0  0  0  0
  140.1957   72.0636  225.5833 H   0  0  0  0  0  0  0  0  0  0  0  0
  141.3185   71.0255  224.6096 H   0  0  0  0  0  0  0  0  0  0  0  0
  140.7472   71.6722  219.1071 H   0  0  0  0  0  0  0  0  0  0  0  0
  141.8653   72.8174  218.3797 H   0  0  0  0  0  0  0  0  0  0  0  0
  142.5515   70.7743  220.6212 H   0  0  0  0  0  0  0  0  0  0  0  0
  143.0629   70.6179  218.9358 H   0  0  0  0  0  0  0  0  0  0  0  0
  145.3432   70.6958  219.3952 H   0  0  0  0  0  0  0  0  0  0  0  0
  147.3361   72.1104  219.8248 H   0  0  0  0  0  0  0  0  0  0  0  0
  147.0747   74.4349  220.6630 H   0  0  0  0  0  0  0  0  0  0  0  0
  144.8147   75.3601  221.0736 H   0  0  0  0  0  0  0  0  0  0  0  0
  142.3693   74.4537  221.7789 H   0  0  0  0  0  0  0  0  0  0  0  0
  142.2797   75.0146  220.0850 H   0  0  0  0  0  0  0  0  0  0  0  0
  136.2593   76.0355  222.1047 H   0  0  0  0  0  0  0  0  0  0  0  0
  137.8942   75.8961  221.5032 H   0  0  0  0  0  0  0  0  0  0  0  0
  140.6566   76.5180  219.4829 H   0  0  0  0  0  0  0  0  0  0  0  0
  142.1009   77.6023  221.2015 H   0  0  0  0  0  0  0  0  0  0  0  0
  1  2  1  0
  2  3  2  0
  2  4  2  0
  2  5  1  0
  5  6  2  0
  6  7  1  0
  7  8  2  0
  8  9  1  0
  9 10  1  0
 10 11  1  0
 11 12  1  0
 12 13  1  0
 13 14  1  0
 14 15  1  0
 15 16  2  0
 16 17  1  0
 17 18  1  0
 18 19  1  0
 19 20  1  0
 20 21  1  0
 21 22  2  0
 22 23  1  0
 23 24  2  0
 24 25  1  0
 25 26  2  0
 26 27  1  0
 17 28  2  0
 28 29  1  0
 29 30  1  0
 30 31  1  0
 31 32  1  0
 32 33  1  0
 33 34  2  0
 34 35  1  0
 35 36  2  0
 36 37  1  0
 37 38  2  0
 38 39  1  0
 29 40  2  0
 14 41  1  0
  8 42  1  0
 42 43  2  0
 43  5  1  0
 41 11  1  0
 40 15  1  0
 27 18  1  0
 39 30  1  0
 26 21  1  0
 38 33  1  0
  1 44  1  0
  1 45  1  0
  6 46  1  0
  7 47  1  0
  9 48  1  0
  9 49  1  0
 10 50  1  0
 10 51  1  0
 12 52  1  0
 12 53  1  0
 13 54  1  0
 13 55  1  0
 14 56  1  1
 19 57  1  0
 19 58  1  0
 20 59  1  0
 20 60  1  0
 22 61  1  0
 23 62  1  0
 24 63  1  0
 25 64  1  0
 27 65  1  0
 27 66  1  0
 31 67  1  0
 31 68  1  0
 32 69  1  0
 32 70  1  0
 34 71  1  0
 35 72  1  0
 36 73  1  0
 37 74  1  0
 39 75  1  0
 39 76  1  0
 41 77  1  0
 41 78  1  0
 42 79  1  0
 43 80  1  0
M  END
>  <smiles>  (76) 
NS(=O)(=O)c1ccc(CCN2CCC(c3nc(N4CCc5ccccc5C4)nc(N4CCc5ccccc5C4)n3)C2)cc1

>  <score_type>  (76) 
oracle

>  <origin>  (76) 
autodockgpu

>  <m_score__min__energy>  (76) 
-10.83

>  <m_primary>  (76) 
energy

>  <rmsd>  (76) 
4.956117466854594

>  <m_score__min__rmsd>  (76) 
4.956117466854594

>  <meeko>  (76) 
{"free_energy": -9.95, "intermolecular_energy": -12.34, "internal_energy": -2.13, "cluster_size": 7, "cluster_id": 2, "rank_in_cluster": 5}

>  <energy>  (76) 
-9.47

>  <cluster_rmsd>  (76) 
1.23

>  <cluster>  (76) 
6

$$$$

     RDKit          3D

 80 86  0  0  1  0  0  0  0  0999 V2000
  133.7010   72.6000  226.9890 N   0  0  0  0  0  0  0  0  0  0  0  0
  133.0180   74.1050  226.4400 S   0  0  0  0  0  0  0  0  0  0  0  0
  131.7100   73.7720  225.7550 O   0  0  0  0  0  0  0  0  0  0  0  0
  132.8060   75.0350  227.5980 O   0  0  0  0  0  0  0  0  0  0  0  0
  134.0760   74.8800  225.2980 C   0  0  0  0  0  0  0  0  0  0  0  0
  133.9290   76.2360  225.1010 C   0  0  0  0  0  0  0  0  0  0  0  0
  134.7460   76.8860  224.2050 C   0  0  0  0  0  0  0  0  0  0  0  0
  135.7240   76.2240  223.4820 C   0  0  0  0  0  0  0  0  0  0  0  0
  136.5370   77.0360  222.5510 C   0  0  0  0  0  0  0  0  0  0  0  0
  137.9750   77.1530  223.0410 C   0  0  0  0  0  0  0  0  0  0  0  0
  138.8380   76.6970  222.0160 N   0  0  0  0  0  0  0  0  0  0  0  0
  140.2260   76.6910  222.3220 C   0  0  0  0  0  0  0  0  0  0  0  0
  140.7940   76.2320  220.9740 C   0  0  0  0  0  0  0  0  0  0  0  0
  139.7670   75.1590  220.6070 C   0  0  1  0  0  0  0  0  0  0  0  0
  140.3790   73.8470  220.9470 C   0  0  0  0  0  0  0  0  0  0  0  0
  140.0490   73.2000  222.0840 N   0  0  0  0  0  0  0  0  0  0  0  0
  140.5780   72.0050  222.4420 C   0  0  0  0  0  0  0  0  0  0  0  0
  140.2050   71.3430  223.6500 N   0  0  0  0  0  0  0  0  0  0  0  0
  139.0240   70.5150  223.6350 C   0  0  0  0  0  0  0  0  0  0  0  0
  139.1800   69.3120  224.5300 C   0  0  0  0  0  0  0  0  0  0  0  0
  139.6560   69.7170  225.8720 C   0  0  0  0  0  0  0  0  0  0  0  0
  139.2350   69.0500  227.0020 C   0  0  0  0  0  0  0  0  0  0  0  0
  139.6670   69.4120  228.2580 C   0  0  0  0  0  0  0  0  0  0  0  0
  140.5510   70.4860  228.3450 C   0  0  0  0  0  0  0  0  0  0  0  0
  140.9770   71.1600  227.2200 C   0  0  0  0  0  0  0  0  0  0  0  0
  140.5300   70.7770  225.9760 C   0  0  0  0  0  0  0  0  0  0  0  0
  141.0290   71.5450  224.8050 C   0  0  0  0  0  0  0  0  0  0  0  0
  141.4890   71.4630  221.5850 N   0  0  0  0  0  0  0  0  0  0  0  0
  141.8520   72.0690  220.4410 C   0  0  0  0  0  0  0  0  0  0  0  0
  142.8100   71.4400  219.6000 N   0  0  0  0  0  0  0  0  0  0  0  0
  142.5590   71.5120  218.1630 C   0  0  0  0  0  0  0  0  0  0  0  0
  142.1640   70.0800  217.7790 C   0  0  0  0  0  0  0  0  0  0  0  0
  143.3240   69.2270  218.1660 C   0  0  0  0  0  0  0  0  0  0  0  0
  143.5130   68.0830  217.3880 C   0  0  0  0  0  0  0  0  0  0  0  0
  144.5660   67.2520  217.6900 C   0  0  0  0  0  0  0  0  0  0  0  0
  145.4240   67.5430  218.7460 C   0  0  0  0  0  0  0  0  0  0  0  0
  145.2240   68.6760  219.5040 C   0  0  0  0  0  0  0  0  0  0  0  0
  144.1600   69.5380  219.2190 C   0  0  0  0  0  0  0  0  0  0  0  0
  143.9720   70.7580  220.0610 C   0  0  0  0  0  0  0  0  0  0  0  0
  141.2800   73.2560  220.1540 N   0  0  0  0  0  0  0  0  0  0  0  0
  138.5150   75.4660  221.3810 C   0  0  0  0  0  0  0  0  0  0  0  0
  135.8730   74.8720  223.6750 C   0  0  0  0  0  0  0  0  0  0  0  0
  135.0500   74.1960  224.5830 C   0  0  0  0  0  0  0  0  0  0  0  0
  133.5050   72.5540  228.0330 H   0  0  0  0  0  0  0  0  0  0  0  0
  134.7550   72.6780  226.9320 H   0  0  0  0  0  0  0  0  0  0  0  0
  133.1625   76.7957  225.6572 H   0  0  0  0  0  0  0  0  0  0  0  0
  134.6179   77.9686  224.0579 H   0  0  0  0  0  0  0  0  0  0  0  0
  136.5325   76.5591  221.5598 H   0  0  0  0  0  0  0  0  0  0  0  0
  136.1027   78.0451  222.4953 H   0  0  0  0  0  0  0  0  0  0  0  0
  138.2021   78.2031  223.2772 H   0  0  0  0  0  0  0  0  0  0  0  0
  138.1143   76.5465  223.9481 H   0  0  0  0  0  0  0  0  0  0  0  0
  140.5876   77.6927  222.5975 H   0  0  0  0  0  0  0  0  0  0  0  0
  140.5083   76.0646  223.1811 H   0  0  0  0  0  0  0  0  0  0  0  0
  140.8114   77.0496  220.2383 H   0  0  0  0  0  0  0  0  0  0  0  0
  141.8374   75.8849  221.0040 H   0  0  0  0  0  0  0  0  0  0  0  0
  139.4959   75.1338  219.5412 H   0  0  0  0  0  0  0  0  0  0  0  0
  138.1663   71.1098  223.9822 H   0  0  0  0  0  0  0  0  0  0  0  0
  138.8646   70.1606  222.6059 H   0  0  0  0  0  0  0  0  0  0  0  0
  138.2078   68.8069  224.6288 H   0  0  0  0  0  0  0  0  0  0  0  0
  139.9196   68.6316  224.0826 H   0  0  0  0  0  0  0  0  0  0  0  0
  138.5361   68.2070  226.8978 H   0  0  0  0  0  0  0  0  0  0  0  0
  139.3282   68.8754  229.1565 H   0  0  0  0  0  0  0  0  0  0  0  0
  140.9169   70.8029  229.3328 H   0  0  0  0  0  0  0  0  0  0  0  0
  141.6749   72.0047  227.3170 H   0  0  0  0  0  0  0  0  0  0  0  0
  141.0342   72.6158  225.0566 H   0  0  0  0  0  0  0  0  0  0  0  0
  142.0435   71.1912  224.5692 H   0  0  0  0  0  0  0  0  0  0  0  0
  141.7412   72.2144  217.9443 H   0  0  0  0  0  0  0  0  0  0  0  0
  143.4318   71.8742  217.5999 H   0  0  0  0  0  0  0  0  0  0  0  0
  141.2608   69.7711  218.3257 H   0  0  0  0  0  0  0  0  0  0  0  0
  141.9356   69.9944  216.7064 H   0  0  0  0  0  0  0  0  0  0  0  0
  142.8353   67.8520  216.5530 H   0  0  0  0  0  0  0  0  0  0  0  0
  144.7322   66.3457  217.0892 H   0  0  0  0  0  0  0  0  0  0  0  0
  146.2620   66.8685  218.9757 H   0  0  0  0  0  0  0  0  0  0  0  0
  145.9046   68.9038  220.3376 H   0  0  0  0  0  0  0  0  0  0  0  0
  143.8406   70.4676  221.1138 H   0  0  0  0  0  0  0  0  0  0  0  0
  144.8528   71.4125  219.9850 H   0  0  0  0  0  0  0  0  0  0  0  0
  137.6509   75.5799  220.7099 H   0  0  0  0  0  0  0  0  0  0  0  0
  138.2300   74.6712  222.0860 H   0  0  0  0  0  0  0  0  0  0  0  0
  136.6412   74.3193  223.1144 H   0  0  0  0  0  0  0  0  0  0  0  0
  135.1759   73.1134  224.7315 H   0  0  0  0  0  0  0  0  0  0  0  0
  1  2  1  0
  2  3  2  0
  2  4  2  0
  2  5  1  0
  5  6  2  0
  6  7  1  0
  7  8  2  0
  8  9  1  0
  9 10  1  0
 10 11  1  0
 11 12  1  0
 12 13  1  0
 13 14  1  0
 14 15  1  0
 15 16  2  0
 16 17  1  0
 17 18  1  0
 18 19  1  0
 19 20  1  0
 20 21  1  0
 21 22  2  0
 22 23  1  0
 23 24  2  0
 24 25  1  0
 25 26  2  0
 26 27  1  0
 17 28  2  0
 28 29  1  0
 29 30  1  0
 30 31  1  0
 31 32  1  0
 32 33  1  0
 33 34  2  0
 34 35  1  0
 35 36  2  0
 36 37  1  0
 37 38  2  0
 38 39  1  0
 29 40  2  0
 14 41  1  0
  8 42  1  0
 42 43  2  0
 43  5  1  0
 41 11  1  0
 40 15  1  0
 27 18  1  0
 39 30  1  0
 26 21  1  0
 38 33  1  0
  1 44  1  0
  1 45  1  0
  6 46  1  0
  7 47  1  0
  9 48  1  0
  9 49  1  0
 10 50  1  0
 10 51  1  0
 12 52  1  0
 12 53  1  0
 13 54  1  0
 13 55  1  0
 14 56  1  6
 19 57  1  0
 19 58  1  0
 20 59  1  0
 20 60  1  0
 22 61  1  0
 23 62  1  0
 24 63  1  0
 25 64  1  0
 27 65  1  0
 27 66  1  0
 31 67  1  0
 31 68  1  0
 32 69  1  0
 32 70  1  0
 34 71  1  0
 35 72  1  0
 36 73  1  0
 37 74  1  0
 39 75  1  0
 39 76  1  0
 41 77  1  0
 41 78  1  0
 42 79  1  0
 43 80  1  0
M  END
>  <smiles>  (77) 
NS(=O)(=O)c1ccc(CCN2CCC(c3nc(N4CCc5ccccc5C4)nc(N4CCc5ccccc5C4)n3)C2)cc1

>  <score_type>  (77) 
oracle

>  <origin>  (77) 
autodockgpu

>  <m_score__min__energy>  (77) 
-10.83

>  <m_primary>  (77) 
energy

>  <rmsd>  (77) 
6.150236240477776

>  <m_score__min__rmsd>  (77) 
6.150236240477776

>  <meeko>  (77) 
{"free_energy": -9.81, "intermolecular_energy": -12.19, "internal_energy": -1.63, "cluster_size": 1, "cluster_id": 10, "rank_in_cluster": 1}

>  <energy>  (77) 
-10.11

>  <cluster_rmsd>  (77) 
0.0

>  <cluster>  (77) 
7

$$$$

     RDKit          3D

 80 86  0  0  1  0  0  0  0  0999 V2000
  140.5870   72.2270  228.3550 N   0  0  0  0  0  0  0  0  0  0  0  0
  140.1520   70.5440  228.2350 S   0  0  0  0  0  0  0  0  0  0  0  0
  141.3450   69.7450  228.7130 O   0  0  0  0  0  0  0  0  0  0  0  0
  138.9360   70.2600  229.0650 O   0  0  0  0  0  0  0  0  0  0  0  0
  139.8060   70.1150  226.5850 C   0  0  0  0  0  0  0  0  0  0  0  0
  139.3440   68.8410  226.3340 C   0  0  0  0  0  0  0  0  0  0  0  0
  139.0590   68.4630  225.0420 C   0  0  0  0  0  0  0  0  0  0  0  0
  139.2220   69.3210  223.9680 C   0  0  0  0  0  0  0  0  0  0  0  0
  138.8810   68.7940  222.6290 C   0  0  0  0  0  0  0  0  0  0  0  0
  137.3750   68.8250  222.3970 C   0  0  0  0  0  0  0  0  0  0  0  0
  137.0710   69.9330  221.5680 N   0  0  0  0  0  0  0  0  0  0  0  0
  135.7550   70.4580  221.6820 C   0  0  0  0  0  0  0  0  0  0  0  0
  135.8080   71.5430  220.5990 C   0  0  0  0  0  0  0  0  0  0  0  0
  137.2130   72.0940  220.8470 C   0  0  1  0  0  0  0  0  0  0  0  0
  137.0480   73.3440  221.6370 C   0  0  0  0  0  0  0  0  0  0  0  0
  136.0970   73.4440  222.5890 N   0  0  0  0  0  0  0  0  0  0  0  0
  135.9030   74.5570  223.3350 C   0  0  0  0  0  0  0  0  0  0  0  0
  134.8900   74.6310  224.3380 N   0  0  0  0  0  0  0  0  0  0  0  0
  134.0320   73.4870  224.5220 C   0  0  0  0  0  0  0  0  0  0  0  0
  133.6560   73.3040  225.9700 C   0  0  0  0  0  0  0  0  0  0  0  0
  133.1580   74.5740  226.5460 C   0  0  0  0  0  0  0  0  0  0  0  0
  132.1570   74.5750  227.4940 C   0  0  0  0  0  0  0  0  0  0  0  0
  131.6800   75.7450  228.0400 C   0  0  0  0  0  0  0  0  0  0  0  0
  132.2500   76.9370  227.5940 C   0  0  0  0  0  0  0  0  0  0  0  0
  133.2520   76.9460  226.6450 C   0  0  0  0  0  0  0  0  0  0  0  0
  133.7100   75.7610  226.1170 C   0  0  0  0  0  0  0  0  0  0  0  0
  134.7900   75.8410  225.0990 C   0  0  0  0  0  0  0  0  0  0  0  0
  136.7300   75.6110  223.0790 N   0  0  0  0  0  0  0  0  0  0  0  0
  137.6920   75.5610  222.1410 C   0  0  0  0  0  0  0  0  0  0  0  0
  138.5130   76.7020  221.9330 N   0  0  0  0  0  0  0  0  0  0  0  0
  139.7760   76.4750  221.2360 C   0  0  0  0  0  0  0  0  0  0  0  0
  140.8420   76.6480  222.3270 C   0  0  0  0  0  0  0  0  0  0  0  0
  140.6590   78.0330  222.8490 C   0  0  0  0  0  0  0  0  0  0  0  0
  141.8170   78.6500  223.3280 C   0  0  0  0  0  0  0  0  0  0  0  0
  141.7200   79.9290  223.8220 C   0  0  0  0  0  0  0  0  0  0  0  0
  140.4980   80.5940  223.8460 C   0  0  0  0  0  0  0  0  0  0  0  0
  139.3650   79.9710  223.3690 C   0  0  0  0  0  0  0  0  0  0  0  0
  139.4350   78.6700  222.8600 C   0  0  0  0  0  0  0  0  0  0  0  0
  138.1890   78.0240  222.3510 C   0  0  0  0  0  0  0  0  0  0  0  0
  137.8230   74.4160  221.4410 N   0  0  0  0  0  0  0  0  0  0  0  0
  137.9870   71.0210  221.5590 C   0  0  0  0  0  0  0  0  0  0  0  0
  139.6830   70.5910  224.2140 C   0  0  0  0  0  0  0  0  0  0  0  0
  139.9770   70.9930  225.5220 C   0  0  0  0  0  0  0  0  0  0  0  0
  139.9480   72.6410  229.0970 H   0  0  0  0  0  0  0  0  0  0  0  0
  140.2850   72.7080  227.4610 H   0  0  0  0  0  0  0  0  0  0  0  0
  139.2039   68.1304  227.1619 H   0  0  0  0  0  0  0  0  0  0  0  0
  138.6889   67.4439  224.8562 H   0  0  0  0  0  0  0  0  0  0  0  0
  139.3756   69.4098  221.8634 H   0  0  0  0  0  0  0  0  0  0  0  0
  139.2240   67.7508  222.5652 H   0  0  0  0  0  0  0  0  0  0  0  0
  137.0561   67.8945  221.9046 H   0  0  0  0  0  0  0  0  0  0  0  0
  136.8473   68.9169  223.3578 H   0  0  0  0  0  0  0  0  0  0  0  0
  134.9913   69.6976  221.4614 H   0  0  0  0  0  0  0  0  0  0  0  0
  135.4843   70.8173  222.6858 H   0  0  0  0  0  0  0  0  0  0  0  0
  135.7081   71.1178  219.5894 H   0  0  0  0  0  0  0  0  0  0  0  0
  135.0012   72.2890  220.6495 H   0  0  0  0  0  0  0  0  0  0  0  0
  137.7706   72.3480  219.9335 H   0  0  0  0  0  0  0  0  0  0  0  0
  133.1157   73.6289  223.9302 H   0  0  0  0  0  0  0  0  0  0  0  0
  134.5774   72.5906  224.1917 H   0  0  0  0  0  0  0  0  0  0  0  0
  132.8680   72.5401  226.0447 H   0  0  0  0  0  0  0  0  0  0  0  0
  134.5485   72.9877  226.5299 H   0  0  0  0  0  0  0  0  0  0  0  0
  131.7287   73.6165  227.8224 H   0  0  0  0  0  0  0  0  0  0  0  0
  130.8820   75.7400  228.7970 H   0  0  0  0  0  0  0  0  0  0  0  0
  131.8929   77.8916  228.0079 H   0  0  0  0  0  0  0  0  0  0  0  0
  133.6844   77.9006  226.3108 H   0  0  0  0  0  0  0  0  0  0  0  0
  134.5748   76.6755  224.4155 H   0  0  0  0  0  0  0  0  0  0  0  0
  135.7447   75.9973  225.6226 H   0  0  0  0  0  0  0  0  0  0  0  0
  139.8115   75.4603  220.8127 H   0  0  0  0  0  0  0  0  0  0  0  0
  139.9214   77.1636  220.3906 H   0  0  0  0  0  0  0  0  0  0  0  0
  140.6924   75.9117  223.1305 H   0  0  0  0  0  0  0  0  0  0  0  0
  141.8571   76.4918  221.9332 H   0  0  0  0  0  0  0  0  0  0  0  0
  142.7834   78.1249  223.3103 H   0  0  0  0  0  0  0  0  0  0  0  0
  142.6201   80.4334  224.2033 H   0  0  0  0  0  0  0  0  0  0  0  0
  140.4363   81.6170  224.2457 H   0  0  0  0  0  0  0  0  0  0  0  0
  138.4006   80.4996  223.3887 H   0  0  0  0  0  0  0  0  0  0  0  0
  137.4348   77.9875  223.1509 H   0  0  0  0  0  0  0  0  0  0  0  0
  137.7792   78.5997  221.5080 H   0  0  0  0  0  0  0  0  0  0  0  0
  138.9049   70.7630  221.0105 H   0  0  0  0  0  0  0  0  0  0  0  0
  138.3245   71.3176  222.5631 H   0  0  0  0  0  0  0  0  0  0  0  0
  139.8217   71.2948  223.3801 H   0  0  0  0  0  0  0  0  0  0  0  0
  140.3463   72.0120  225.7098 H   0  0  0  0  0  0  0  0  0  0  0  0
  1  2  1  0
  2  3  2  0
  2  4  2  0
  2  5  1  0
  5  6  2  0
  6  7  1  0
  7  8  2  0
  8  9  1  0
  9 10  1  0
 10 11  1  0
 11 12  1  0
 12 13  1  0
 13 14  1  0
 14 15  1  0
 15 16  2  0
 16 17  1  0
 17 18  1  0
 18 19  1  0
 19 20  1  0
 20 21  1  0
 21 22  2  0
 22 23  1  0
 23 24  2  0
 24 25  1  0
 25 26  2  0
 26 27  1  0
 17 28  2  0
 28 29  1  0
 29 30  1  0
 30 31  1  0
 31 32  1  0
 32 33  1  0
 33 34  2  0
 34 35  1  0
 35 36  2  0
 36 37  1  0
 37 38  2  0
 38 39  1  0
 29 40  2  0
 14 41  1  0
  8 42  1  0
 42 43  2  0
 43  5  1  0
 41 11  1  0
 40 15  1  0
 27 18  1  0
 39 30  1  0
 26 21  1  0
 38 33  1  0
  1 44  1  0
  1 45  1  0
  6 46  1  0
  7 47  1  0
  9 48  1  0
  9 49  1  0
 10 50  1  0
 10 51  1  0
 12 52  1  0
 12 53  1  0
 13 54  1  0
 13 55  1  0
 14 56  1  6
 19 57  1  0
 19 58  1  0
 20 59  1  0
 20 60  1  0
 22 61  1  0
 23 62  1  0
 24 63  1  0
 25 64  1  0
 27 65  1  0
 27 66  1  0
 31 67  1  0
 31 68  1  0
 32 69  1  0
 32 70  1  0
 34 71  1  0
 35 72  1  0
 36 73  1  0
 37 74  1  0
 39 75  1  0
 39 76  1  0
 41 77  1  0
 41 78  1  0
 42 79  1  0
 43 80  1  0
M  END
>  <smiles>  (78) 
NS(=O)(=O)c1ccc(CCN2CCC(c3nc(N4CCc5ccccc5C4)nc(N4CCc5ccccc5C4)n3)C2)cc1

>  <score_type>  (78) 
oracle

>  <origin>  (78) 
autodockgpu

>  <m_score__min__energy>  (78) 
-10.83

>  <m_primary>  (78) 
energy

>  <rmsd>  (78) 
10.793377238259316

>  <m_score__min__rmsd>  (78) 
10.793377238259316

>  <meeko>  (78) 
{"free_energy": -10.13, "intermolecular_energy": -12.51, "internal_energy": -1.72, "cluster_size": 5, "cluster_id": 4, "rank_in_cluster": 5}

>  <energy>  (78) 
-9.69

>  <cluster_rmsd>  (78) 
0.34

>  <cluster>  (78) 
7

$$$$

     RDKit          3D

 80 86  0  0  1  0  0  0  0  0999 V2000
  142.9500   79.3950  222.2850 N   0  0  0  0  0  0  0  0  0  0  0  0
  142.1120   79.9040  223.7240 S   0  0  0  0  0  0  0  0  0  0  0  0
  141.8720   78.6630  224.5560 O   0  0  0  0  0  0  0  0  0  0  0  0
  142.9290   80.9150  224.4730 O   0  0  0  0  0  0  0  0  0  0  0  0
  140.5800   80.6220  223.3220 C   0  0  0  0  0  0  0  0  0  0  0  0
  139.4540   80.1280  223.9450 C   0  0  0  0  0  0  0  0  0  0  0  0
  138.2230   80.6690  223.6530 C   0  0  0  0  0  0  0  0  0  0  0  0
  138.0650   81.7020  222.7460 C   0  0  0  0  0  0  0  0  0  0  0  0
  136.6900   82.1960  222.5200 C   0  0  0  0  0  0  0  0  0  0  0  0
  136.3950   82.3340  221.0320 C   0  0  0  0  0  0  0  0  0  0  0  0
  136.1810   81.0410  220.4940 N   0  0  0  0  0  0  0  0  0  0  0  0
  137.3280   80.3790  219.9810 C   0  0  0  0  0  0  0  0  0  0  0  0
  136.6770   79.1010  219.4370 C   0  0  0  0  0  0  0  0  0  0  0  0
  135.6800   78.8150  220.5620 C   0  0  1  0  0  0  0  0  0  0  0  0
  136.2890   77.7580  221.4130 C   0  0  0  0  0  0  0  0  0  0  0  0
  135.5340   77.0290  222.2600 N   0  0  0  0  0  0  0  0  0  0  0  0
  136.0370   76.0570  223.0580 C   0  0  0  0  0  0  0  0  0  0  0  0
  135.2110   75.2990  223.9420 N   0  0  0  0  0  0  0  0  0  0  0  0
  134.9720   73.9120  223.6280 C   0  0  0  0  0  0  0  0  0  0  0  0
  134.8750   73.0710  224.8750 C   0  0  0  0  0  0  0  0  0  0  0  0
  133.9330   73.6760  225.8430 C   0  0  0  0  0  0  0  0  0  0  0  0
  133.1440   72.8850  226.6500 C   0  0  0  0  0  0  0  0  0  0  0  0
  132.2610   73.4290  227.5550 C   0  0  0  0  0  0  0  0  0  0  0  0
  132.1930   74.8200  227.6250 C   0  0  0  0  0  0  0  0  0  0  0  0
  132.9790   75.6200  226.8200 C   0  0  0  0  0  0  0  0  0  0  0  0
  133.8540   75.0490  225.9240 C   0  0  0  0  0  0  0  0  0  0  0  0
  134.6700   75.9670  225.0890 C   0  0  0  0  0  0  0  0  0  0  0  0
  137.3800   75.8350  222.9740 N   0  0  0  0  0  0  0  0  0  0  0  0
  138.1740   76.5360  222.1450 C   0  0  0  0  0  0  0  0  0  0  0  0
  139.5660   76.2470  222.1150 N   0  0  0  0  0  0  0  0  0  0  0  0
  140.4690   77.3830  222.2760 C   0  0  0  0  0  0  0  0  0  0  0  0
  141.0850   77.5720  220.8830 C   0  0  0  0  0  0  0  0  0  0  0  0
  141.7600   76.2810  220.5660 C   0  0  0  0  0  0  0  0  0  0  0  0
  142.8800   76.3780  219.7370 C   0  0  0  0  0  0  0  0  0  0  0  0
  143.5510   75.2240  219.4050 C   0  0  0  0  0  0  0  0  0  0  0  0
  143.1260   73.9890  219.8830 C   0  0  0  0  0  0  0  0  0  0  0  0
  142.0190   73.9110  220.7010 C   0  0  0  0  0  0  0  0  0  0  0  0
  141.3170   75.0680  221.0530 C   0  0  0  0  0  0  0  0  0  0  0  0
  140.1220   74.9470  221.9410 C   0  0  0  0  0  0  0  0  0  0  0  0
  137.5980   77.4860  221.3820 N   0  0  0  0  0  0  0  0  0  0  0  0
  135.4430   80.1140  221.2810 C   0  0  0  0  0  0  0  0  0  0  0  0
  139.1850   82.1970  222.1220 C   0  0  0  0  0  0  0  0  0  0  0  0
  140.4450   81.6590  222.4080 C   0  0  0  0  0  0  0  0  0  0  0  0
  143.0650   78.3420  222.3710 H   0  0  0  0  0  0  0  0  0  0  0  0
  143.9410   79.7640  222.3350 H   0  0  0  0  0  0  0  0  0  0  0  0
  139.5390   79.3062  224.6713 H   0  0  0  0  0  0  0  0  0  0  0  0
  137.3330   80.2660  224.1585 H   0  0  0  0  0  0  0  0  0  0  0  0
  135.9759   81.4866  222.9636 H   0  0  0  0  0  0  0  0  0  0  0  0
  136.5928   83.1863  222.9889 H   0  0  0  0  0  0  0  0  0  0  0  0
  135.4948   82.9495  220.8878 H   0  0  0  0  0  0  0  0  0  0  0  0
  137.2416   82.8183  220.5234 H   0  0  0  0  0  0  0  0  0  0  0  0
  137.8130   80.9613  219.1837 H   0  0  0  0  0  0  0  0  0  0  0  0
  138.1332   80.2137  220.7120 H   0  0  0  0  0  0  0  0  0  0  0  0
  136.1702   79.2773  218.4767 H   0  0  0  0  0  0  0  0  0  0  0  0
  137.3763   78.2811  219.2165 H   0  0  0  0  0  0  0  0  0  0  0  0
  134.7014   78.4464  220.2206 H   0  0  0  0  0  0  0  0  0  0  0  0
  134.0291   73.8300  223.0675 H   0  0  0  0  0  0  0  0  0  0  0  0
  135.8177   73.5436  223.0288 H   0  0  0  0  0  0  0  0  0  0  0  0
  134.5194   72.0656  224.6055 H   0  0  0  0  0  0  0  0  0  0  0  0
  135.8702   73.0124  225.3399 H   0  0  0  0  0  0  0  0  0  0  0  0
  133.2219   71.7908  226.5688 H   0  0  0  0  0  0  0  0  0  0  0  0
  131.6345   72.7923  228.1969 H   0  0  0  0  0  0  0  0  0  0  0  0
  131.4983   75.2898  228.3368 H   0  0  0  0  0  0  0  0  0  0  0  0
  132.9059   76.7150  226.8947 H   0  0  0  0  0  0  0  0  0  0  0  0
  134.0360   76.7998  224.7507 H   0  0  0  0  0  0  0  0  0  0  0  0
  135.5081   76.3333  225.7001 H   0  0  0  0  0  0  0  0  0  0  0  0
  139.9146   78.2821  222.5830 H   0  0  0  0  0  0  0  0  0  0  0  0
  141.2280   77.2120  223.0536 H   0  0  0  0  0  0  0  0  0  0  0  0
  140.3009   77.7876  220.1422 H   0  0  0  0  0  0  0  0  0  0  0  0
  141.7894   78.4166  220.8600 H   0  0  0  0  0  0  0  0  0  0  0  0
  143.2175   77.3542  219.3586 H   0  0  0  0  0  0  0  0  0  0  0  0
  144.4352   75.2787  218.7530 H   0  0  0  0  0  0  0  0  0  0  0  0
  143.6729   73.0749  219.6085 H   0  0  0  0  0  0  0  0  0  0  0  0
  141.6861   72.9331  221.0789 H   0  0  0  0  0  0  0  0  0  0  0  0
  139.3783   74.2826  221.4768 H   0  0  0  0  0  0  0  0  0  0  0  0
  140.4117   74.5233  222.9139 H   0  0  0  0  0  0  0  0  0  0  0  0
  134.3733   80.3697  221.2975 H   0  0  0  0  0  0  0  0  0  0  0  0
  135.7505   80.0930  222.3369 H   0  0  0  0  0  0  0  0  0  0  0  0
  139.0909   83.0180  221.3960 H   0  0  0  0  0  0  0  0  0  0  0  0
  141.3364   82.0611  221.9043 H   0  0  0  0  0  0  0  0  0  0  0  0
  1  2  1  0
  2  3  2  0
  2  4  2  0
  2  5  1  0
  5  6  2  0
  6  7  1  0
  7  8  2  0
  8  9  1  0
  9 10  1  0
 10 11  1  0
 11 12  1  0
 12 13  1  0
 13 14  1  0
 14 15  1  0
 15 16  2  0
 16 17  1  0
 17 18  1  0
 18 19  1  0
 19 20  1  0
 20 21  1  0
 21 22  2  0
 22 23  1  0
 23 24  2  0
 24 25  1  0
 25 26  2  0
 26 27  1  0
 17 28  2  0
 28 29  1  0
 29 30  1  0
 30 31  1  0
 31 32  1  0
 32 33  1  0
 33 34  2  0
 34 35  1  0
 35 36  2  0
 36 37  1  0
 37 38  2  0
 38 39  1  0
 29 40  2  0
 14 41  1  0
  8 42  1  0
 42 43  2  0
 43  5  1  0
 41 11  1  0
 40 15  1  0
 27 18  1  0
 39 30  1  0
 26 21  1  0
 38 33  1  0
  1 44  1  0
  1 45  1  0
  6 46  1  0
  7 47  1  0
  9 48  1  0
  9 49  1  0
 10 50  1  0
 10 51  1  0
 12 52  1  0
 12 53  1  0
 13 54  1  0
 13 55  1  0
 14 56  1  6
 19 57  1  0
 19 58  1  0
 20 59  1  0
 20 60  1  0
 22 61  1  0
 23 62  1  0
 24 63  1  0
 25 64  1  0
 27 65  1  0
 27 66  1  0
 31 67  1  0
 31 68  1  0
 32 69  1  0
 32 70  1  0
 34 71  1  0
 35 72  1  0
 36 73  1  0
 37 74  1  0
 39 75  1  0
 39 76  1  0
 41 77  1  0
 41 78  1  0
 42 79  1  0
 43 80  1  0
M  END
>  <smiles>  (79) 
NS(=O)(=O)c1ccc(CCN2CCC(c3nc(N4CCc5ccccc5C4)nc(N4CCc5ccccc5C4)n3)C2)cc1

>  <score_type>  (79) 
oracle

>  <origin>  (79) 
autodockgpu

>  <m_score__min__energy>  (79) 
-10.83

>  <m_primary>  (79) 
energy

>  <rmsd>  (79) 
4.7964782403274375

>  <m_score__min__rmsd>  (79) 
4.7964782403274375

>  <meeko>  (79) 
{"free_energy": -9.04, "intermolecular_energy": -11.42, "internal_energy": -2.84, "cluster_size": 1, "cluster_id": 14, "rank_in_cluster": 1}

>  <energy>  (79) 
-9.88

>  <cluster_rmsd>  (79) 
0.0

>  <cluster>  (79) 
8

$$$$

     RDKit          3D

 80 86  0  0  1  0  0  0  0  0999 V2000
  139.1510   74.9330  219.2150 N   0  0  0  0  0  0  0  0  0  0  0  0
  140.2430   75.7610  218.1390 S   0  0  0  0  0  0  0  0  0  0  0  0
  141.5670   75.0300  218.2060 O   0  0  0  0  0  0  0  0  0  0  0  0
  139.6930   75.7680  216.7430 O   0  0  0  0  0  0  0  0  0  0  0  0
  140.4770   77.4070  218.6480 C   0  0  0  0  0  0  0  0  0  0  0  0
  139.3940   78.0780  219.1750 C   0  0  0  0  0  0  0  0  0  0  0  0
  139.5380   79.3820  219.5900 C   0  0  0  0  0  0  0  0  0  0  0  0
  140.7420   80.0590  219.4970 C   0  0  0  0  0  0  0  0  0  0  0  0
  140.7660   81.4570  219.9770 C   0  0  0  0  0  0  0  0  0  0  0  0
  141.8190   81.6440  221.0640 C   0  0  0  0  0  0  0  0  0  0  0  0
  141.5220   80.7660  222.1340 N   0  0  0  0  0  0  0  0  0  0  0  0
  140.1450   80.6050  222.4480 C   0  0  0  0  0  0  0  0  0  0  0  0
  140.2560   79.6830  223.6680 C   0  0  0  0  0  0  0  0  0  0  0  0
  141.3680   78.7480  223.1890 C   0  0  1  0  0  0  0  0  0  0  0  0
  140.7050   77.5040  222.7130 C   0  0  0  0  0  0  0  0  0  0  0  0
  141.4280   76.4680  222.2430 N   0  0  0  0  0  0  0  0  0  0  0  0
  140.8760   75.3150  221.7940 C   0  0  0  0  0  0  0  0  0  0  0  0
  141.6690   74.2340  221.3070 N   0  0  0  0  0  0  0  0  0  0  0  0
  141.1310   72.8990  221.4010 C   0  0  0  0  0  0  0  0  0  0  0  0
  141.5460   72.0510  220.2250 C   0  0  0  0  0  0  0  0  0  0  0  0
  143.0080   72.1340  220.0100 C   0  0  0  0  0  0  0  0  0  0  0  0
  143.7200   71.0420  219.5610 C   0  0  0  0  0  0  0  0  0  0  0  0
  145.0800   71.1000  219.3560 C   0  0  0  0  0  0  0  0  0  0  0  0
  145.7150   72.3120  219.6220 C   0  0  0  0  0  0  0  0  0  0  0  0
  145.0110   73.4100  220.0720 C   0  0  0  0  0  0  0  0  0  0  0  0
  143.6520   73.3250  220.2680 C   0  0  0  0  0  0  0  0  0  0  0  0
  142.9540   74.5440  220.7530 C   0  0  0  0  0  0  0  0  0  0  0  0
  139.5150   75.2380  221.8340 N   0  0  0  0  0  0  0  0  0  0  0  0
  138.7500   76.2440  222.2930 C   0  0  0  0  0  0  0  0  0  0  0  0
  137.3370   76.0890  222.3010 N   0  0  0  0  0  0  0  0  0  0  0  0
  136.5550   77.2300  221.8350 C   0  0  0  0  0  0  0  0  0  0  0  0
  135.9040   77.7840  223.1090 C   0  0  0  0  0  0  0  0  0  0  0  0
  135.0950   76.6610  223.6650 C   0  0  0  0  0  0  0  0  0  0  0  0
  133.9570   77.0400  224.3810 C   0  0  0  0  0  0  0  0  0  0  0  0
  133.1640   76.0540  224.9200 C   0  0  0  0  0  0  0  0  0  0  0  0
  133.4880   74.7100  224.7580 C   0  0  0  0  0  0  0  0  0  0  0  0
  134.6150   74.3540  224.0490 C   0  0  0  0  0  0  0  0  0  0  0  0
  135.4380   75.3360  223.4900 C   0  0  0  0  0  0  0  0  0  0  0  0
  136.6520   74.9150  222.7270 C   0  0  0  0  0  0  0  0  0  0  0  0
  139.3750   77.3590  222.7220 N   0  0  0  0  0  0  0  0  0  0  0  0
  142.1290   79.4800  222.1200 C   0  0  0  0  0  0  0  0  0  0  0  0
  141.8240   79.3930  218.9720 C   0  0  0  0  0  0  0  0  0  0  0  0
  141.6950   78.0660  218.5460 C   0  0  0  0  0  0  0  0  0  0  0  0
  138.7350   75.6830  219.8420 H   0  0  0  0  0  0  0  0  0  0  0  0
  139.7300   74.3400  219.8750 H   0  0  0  0  0  0  0  0  0  0  0  0
  138.4204   77.5738  219.2632 H   0  0  0  0  0  0  0  0  0  0  0  0
  138.6661   79.9047  220.0103 H   0  0  0  0  0  0  0  0  0  0  0  0
  140.9982   82.1231  219.1330 H   0  0  0  0  0  0  0  0  0  0  0  0
  139.7797   81.6993  220.3994 H   0  0  0  0  0  0  0  0  0  0  0  0
  142.8151   81.4118  220.6593 H   0  0  0  0  0  0  0  0  0  0  0  0
  141.8133   82.6852  221.4186 H   0  0  0  0  0  0  0  0  0  0  0  0
  139.6696   81.5637  222.7028 H   0  0  0  0  0  0  0  0  0  0  0  0
  139.5253   80.2147  221.6273 H   0  0  0  0  0  0  0  0  0  0  0  0
  140.5481   80.2358  224.5730 H   0  0  0  0  0  0  0  0  0  0  0  0
  139.3208   79.1822  223.9588 H   0  0  0  0  0  0  0  0  0  0  0  0
  142.0905   78.4635  223.9681 H   0  0  0  0  0  0  0  0  0  0  0  0
  141.4974   72.4305  222.3263 H   0  0  0  0  0  0  0  0  0  0  0  0
  140.0332   72.9692  221.4052 H   0  0  0  0  0  0  0  0  0  0  0  0
  141.2684   71.0044  220.4187 H   0  0  0  0  0  0  0  0  0  0  0  0
  141.0346   72.4211  219.3242 H   0  0  0  0  0  0  0  0  0  0  0  0
  143.1877   70.1003  219.3615 H   0  0  0  0  0  0  0  0  0  0  0  0
  145.6426   70.2256  218.9970 H   0  0  0  0  0  0  0  0  0  0  0  0
  146.8013   72.3949  219.4698 H   0  0  0  0  0  0  0  0  0  0  0  0
  145.5371   74.3546  220.2743 H   0  0  0  0  0  0  0  0  0  0  0  0
  143.5702   75.0230  221.5281 H   0  0  0  0  0  0  0  0  0  0  0  0
  142.8046   75.2174  219.8962 H   0  0  0  0  0  0  0  0  0  0  0  0
  137.2055   77.9849  221.3691 H   0  0  0  0  0  0  0  0  0  0  0  0
  135.8151   76.9503  221.0706 H   0  0  0  0  0  0  0  0  0  0  0  0
  136.6743   78.0962  223.8296 H   0  0  0  0  0  0  0  0  0  0  0  0
  135.2841   78.6680  222.8988 H   0  0  0  0  0  0  0  0  0  0  0  0
  133.7012   78.1019  224.5107 H   0  0  0  0  0  0  0  0  0  0  0  0
  132.2625   76.3309  225.4862 H   0  0  0  0  0  0  0  0  0  0  0  0
  132.8448   73.9323  225.1957 H   0  0  0  0  0  0  0  0  0  0  0  0
  134.8683   73.2911  223.9223 H   0  0  0  0  0  0  0  0  0  0  0  0
  137.3087   74.3142  223.3734 H   0  0  0  0  0  0  0  0  0  0  0  0
  136.3631   74.3061  221.8576 H   0  0  0  0  0  0  0  0  0  0  0  0
  143.1991   79.5431  222.3666 H   0  0  0  0  0  0  0  0  0  0  0  0
  142.0879   78.9870  221.1375 H   0  0  0  0  0  0  0  0  0  0  0  0
  142.7941   79.9045  218.8865 H   0  0  0  0  0  0  0  0  0  0  0  0
  142.5659   77.5407  218.1269 H   0  0  0  0  0  0  0  0  0  0  0  0
  1  2  1  0
  2  3  2  0
  2  4  2  0
  2  5  1  0
  5  6  2  0
  6  7  1  0
  7  8  2  0
  8  9  1  0
  9 10  1  0
 10 11  1  0
 11 12  1  0
 12 13  1  0
 13 14  1  0
 14 15  1  0
 15 16  2  0
 16 17  1  0
 17 18  1  0
 18 19  1  0
 19 20  1  0
 20 21  1  0
 21 22  2  0
 22 23  1  0
 23 24  2  0
 24 25  1  0
 25 26  2  0
 26 27  1  0
 17 28  2  0
 28 29  1  0
 29 30  1  0
 30 31  1  0
 31 32  1  0
 32 33  1  0
 33 34  2  0
 34 35  1  0
 35 36  2  0
 36 37  1  0
 37 38  2  0
 38 39  1  0
 29 40  2  0
 14 41  1  0
  8 42  1  0
 42 43  2  0
 43  5  1  0
 41 11  1  0
 40 15  1  0
 27 18  1  0
 39 30  1  0
 26 21  1  0
 38 33  1  0
  1 44  1  0
  1 45  1  0
  6 46  1  0
  7 47  1  0
  9 48  1  0
  9 49  1  0
 10 50  1  0
 10 51  1  0
 12 52  1  0
 12 53  1  0
 13 54  1  0
 13 55  1  0
 14 56  1  1
 19 57  1  0
 19 58  1  0
 20 59  1  0
 20 60  1  0
 22 61  1  0
 23 62  1  0
 24 63  1  0
 25 64  1  0
 27 65  1  0
 27 66  1  0
 31 67  1  0
 31 68  1  0
 32 69  1  0
 32 70  1  0
 34 71  1  0
 35 72  1  0
 36 73  1  0
 37 74  1  0
 39 75  1  0
 39 76  1  0
 41 77  1  0
 41 78  1  0
 42 79  1  0
 43 80  1  0
M  END
>  <smiles>  (80) 
NS(=O)(=O)c1ccc(CCN2CCC(c3nc(N4CCc5ccccc5C4)nc(N4CCc5ccccc5C4)n3)C2)cc1

>  <score_type>  (80) 
oracle

>  <origin>  (80) 
autodockgpu

>  <m_score__min__energy>  (80) 
-10.83

>  <m_primary>  (80) 
energy

>  <rmsd>  (80) 
4.774656999304892

>  <m_score__min__rmsd>  (80) 
4.774656999304892

>  <meeko>  (80) 
{"free_energy": -6.6, "intermolecular_energy": -8.99, "internal_energy": -4.79, "cluster_size": 1, "cluster_id": 18, "rank_in_cluster": 1}

>  <energy>  (80) 
-9.77

>  <cluster_rmsd>  (80) 
0.26

>  <cluster>  (80) 
8

$$$$

     RDKit          3D

 80 86  0  0  1  0  0  0  0  0999 V2000
  140.9800   67.7020  227.4260 N   0  0  0  0  0  0  0  0  0  0  0  0
  140.3320   69.3180  227.3620 S   0  0  0  0  0  0  0  0  0  0  0  0
  139.4400   69.4830  228.5740 O   0  0  0  0  0  0  0  0  0  0  0  0
  141.4440   70.3250  227.3610 O   0  0  0  0  0  0  0  0  0  0  0  0
  139.3820   69.5420  225.9230 C   0  0  0  0  0  0  0  0  0  0  0  0
  139.8390   70.4430  224.9840 C   0  0  0  0  0  0  0  0  0  0  0  0
  139.1160   70.6500  223.8320 C   0  0  0  0  0  0  0  0  0  0  0  0
  137.9310   69.9820  223.5730 C   0  0  0  0  0  0  0  0  0  0  0  0
  137.2500   70.2920  222.2980 C   0  0  0  0  0  0  0  0  0  0  0  0
  135.8300   70.7880  222.5440 C   0  0  0  0  0  0  0  0  0  0  0  0
  135.8010   72.1880  222.3360 N   0  0  0  0  0  0  0  0  0  0  0  0
  136.0070   72.9960  223.4870 C   0  0  0  0  0  0  0  0  0  0  0  0
  135.8180   74.3890  222.8720 C   0  0  0  0  0  0  0  0  0  0  0  0
  136.5570   74.1920  221.5470 C   0  0  1  0  0  0  0  0  0  0  0  0
  137.9040   74.8010  221.7140 C   0  0  0  0  0  0  0  0  0  0  0  0
  139.0220   74.1090  221.4150 N   0  0  0  0  0  0  0  0  0  0  0  0
  140.2710   74.6140  221.5510 C   0  0  0  0  0  0  0  0  0  0  0  0
  141.4350   73.8560  221.2210 N   0  0  0  0  0  0  0  0  0  0  0  0
  141.3750   72.4220  221.3600 C   0  0  0  0  0  0  0  0  0  0  0  0
  142.1850   71.7290  220.2940 C   0  0  0  0  0  0  0  0  0  0  0  0
  143.5470   72.3040  220.2150 C   0  0  0  0  0  0  0  0  0  0  0  0
  144.6330   71.5100  219.9170 C   0  0  0  0  0  0  0  0  0  0  0  0
  145.9070   72.0260  219.8400 C   0  0  0  0  0  0  0  0  0  0  0  0
  146.0580   73.3920  220.0760 C   0  0  0  0  0  0  0  0  0  0  0  0
  144.9770   74.1950  220.3760 C   0  0  0  0  0  0  0  0  0  0  0  0
  143.7140   73.6520  220.4460 C   0  0  0  0  0  0  0  0  0  0  0  0
  142.5930   74.5720  220.7730 C   0  0  0  0  0  0  0  0  0  0  0  0
  140.3620   75.8910  222.0200 N   0  0  0  0  0  0  0  0  0  0  0  0
  139.2780   76.6220  222.3330 C   0  0  0  0  0  0  0  0  0  0  0  0
  139.4550   77.9470  222.8170 N   0  0  0  0  0  0  0  0  0  0  0  0
  138.2400   78.7260  223.0360 C   0  0  0  0  0  0  0  0  0  0  0  0
  138.2580   79.7720  221.9140 C   0  0  0  0  0  0  0  0  0  0  0  0
  139.5270   80.5330  222.0970 C   0  0  0  0  0  0  0  0  0  0  0  0
  139.4920   81.8650  221.6790 C   0  0  0  0  0  0  0  0  0  0  0  0
  140.6290   82.6260  221.8210 C   0  0  0  0  0  0  0  0  0  0  0  0
  141.7870   82.0830  222.3680 C   0  0  0  0  0  0  0  0  0  0  0  0
  141.8040   80.7670  222.7760 C   0  0  0  0  0  0  0  0  0  0  0  0
  140.6620   79.9710  222.6430 C   0  0  0  0  0  0  0  0  0  0  0  0
  140.7150   78.5480  223.0960 C   0  0  0  0  0  0  0  0  0  0  0  0
  138.0690   76.0480  222.1690 N   0  0  0  0  0  0  0  0  0  0  0  0
  136.5870   72.7140  221.2740 C   0  0  0  0  0  0  0  0  0  0  0  0
  137.4740   69.0830  224.5060 C   0  0  0  0  0  0  0  0  0  0  0  0
  138.1970   68.8610  225.6830 C   0  0  0  0  0  0  0  0  0  0  0  0
  140.1630   67.0520  227.2290 H   0  0  0  0  0  0  0  0  0  0  0  0
  141.2360   67.4920  228.4320 H   0  0  0  0  0  0  0  0  0  0  0  0
  140.7762   70.9929  225.1552 H   0  0  0  0  0  0  0  0  0  0  0  0
  139.4922   71.3709  223.0912 H   0  0  0  0  0  0  0  0  0  0  0  0
  137.8166   71.0716  221.7678 H   0  0  0  0  0  0  0  0  0  0  0  0
  137.2009   69.3737  221.6945 H   0  0  0  0  0  0  0  0  0  0  0  0
  135.1383   70.2946  221.8453 H   0  0  0  0  0  0  0  0  0  0  0  0
  135.5218   70.5534  223.5736 H   0  0  0  0  0  0  0  0  0  0  0  0
  135.2612   72.7904  224.2689 H   0  0  0  0  0  0  0  0  0  0  0  0
  136.9699   72.8409  223.9956 H   0  0  0  0  0  0  0  0  0  0  0  0
  134.7553   74.6265  222.7162 H   0  0  0  0  0  0  0  0  0  0  0  0
  136.1837   75.2231  223.4888 H   0  0  0  0  0  0  0  0  0  0  0  0
  136.0772   74.6747  220.6828 H   0  0  0  0  0  0  0  0  0  0  0  0
  141.7700   72.1418  222.3477 H   0  0  0  0  0  0  0  0  0  0  0  0
  140.3259   72.1087  221.2544 H   0  0  0  0  0  0  0  0  0  0  0  0
  142.2585   70.6583  220.5353 H   0  0  0  0  0  0  0  0  0  0  0  0
  141.6855   71.8682  219.3239 H   0  0  0  0  0  0  0  0  0  0  0  0
  144.4780   70.4361  219.7360 H   0  0  0  0  0  0  0  0  0  0  0  0
  146.7702   71.3871  219.6021 H   0  0  0  0  0  0  0  0  0  0  0  0
  147.0615   73.8393  220.0218 H   0  0  0  0  0  0  0  0  0  0  0  0
  145.1244   75.2695  220.5593 H   0  0  0  0  0  0  0  0  0  0  0  0
  142.9165   75.2602  221.5678 H   0  0  0  0  0  0  0  0  0  0  0  0
  142.3240   75.1238  219.8602 H   0  0  0  0  0  0  0  0  0  0  0  0
  137.3477   78.0872  222.9599 H   0  0  0  0  0  0  0  0  0  0  0  0
  138.2054   79.1813  224.0367 H   0  0  0  0  0  0  0  0  0  0  0  0
  138.2434   79.2803  220.9301 H   0  0  0  0  0  0  0  0  0  0  0  0
  137.3781   80.4307  221.9569 H   0  0  0  0  0  0  0  0  0  0  0  0
  138.5768   82.2955  221.2464 H   0  0  0  0  0  0  0  0  0  0  0  0
  140.6225   83.6774  221.4979 H   0  0  0  0  0  0  0  0  0  0  0  0
  142.6887   82.7039  222.4748 H   0  0  0  0  0  0  0  0  0  0  0  0
  142.7209   80.3402  223.2087 H   0  0  0  0  0  0  0  0  0  0  0  0
  141.5104   78.0141  222.5554 H   0  0  0  0  0  0  0  0  0  0  0  0
  140.9298   78.4993  224.1737 H   0  0  0  0  0  0  0  0  0  0  0  0
  136.1403   72.4814  220.2961 H   0  0  0  0  0  0  0  0  0  0  0  0
  137.6039   72.2965  221.2331 H   0  0  0  0  0  0  0  0  0  0  0  0
  136.5366   68.5360  224.3270 H   0  0  0  0  0  0  0  0  0  0  0  0
  137.8228   68.1401  226.4248 H   0  0  0  0  0  0  0  0  0  0  0  0
  1  2  1  0
  2  3  2  0
  2  4  2  0
  2  5  1  0
  5  6  2  0
  6  7  1  0
  7  8  2  0
  8  9  1  0
  9 10  1  0
 10 11  1  0
 11 12  1  0
 12 13  1  0
 13 14  1  0
 14 15  1  0
 15 16  2  0
 16 17  1  0
 17 18  1  0
 18 19  1  0
 19 20  1  0
 20 21  1  0
 21 22  2  0
 22 23  1  0
 23 24  2  0
 24 25  1  0
 25 26  2  0
 26 27  1  0
 17 28  2  0
 28 29  1  0
 29 30  1  0
 30 31  1  0
 31 32  1  0
 32 33  1  0
 33 34  2  0
 34 35  1  0
 35 36  2  0
 36 37  1  0
 37 38  2  0
 38 39  1  0
 29 40  2  0
 14 41  1  0
  8 42  1  0
 42 43  2  0
 43  5  1  0
 41 11  1  0
 40 15  1  0
 27 18  1  0
 39 30  1  0
 26 21  1  0
 38 33  1  0
  1 44  1  0
  1 45  1  0
  6 46  1  0
  7 47  1  0
  9 48  1  0
  9 49  1  0
 10 50  1  0
 10 51  1  0
 12 52  1  0
 12 53  1  0
 13 54  1  0
 13 55  1  0
 14 56  1  6
 19 57  1  0
 19 58  1  0
 20 59  1  0
 20 60  1  0
 22 61  1  0
 23 62  1  0
 24 63  1  0
 25 64  1  0
 27 65  1  0
 27 66  1  0
 31 67  1  0
 31 68  1  0
 32 69  1  0
 32 70  1  0
 34 71  1  0
 35 72  1  0
 36 73  1  0
 37 74  1  0
 39 75  1  0
 39 76  1  0
 41 77  1  0
 41 78  1  0
 42 79  1  0
 43 80  1  0
M  END
>  <smiles>  (81) 
NS(=O)(=O)c1ccc(CCN2CCC(c3nc(N4CCc5ccccc5C4)nc(N4CCc5ccccc5C4)n3)C2)cc1

>  <score_type>  (81) 
oracle

>  <origin>  (81) 
autodockgpu

>  <m_score__min__energy>  (81) 
-10.83

>  <m_primary>  (81) 
energy

>  <rmsd>  (81) 
10.247642143632808

>  <m_score__min__rmsd>  (81) 
10.247642143632808

>  <meeko>  (81) 
{"free_energy": -9.96, "intermolecular_energy": -12.35, "internal_energy": -2.07, "cluster_size": 5, "cluster_id": 5, "rank_in_cluster": 3}

>  <energy>  (81) 
-9.84

>  <cluster_rmsd>  (81) 
0.0

>  <cluster>  (81) 
9

$$$$

     RDKit          3D

 80 86  0  0  1  0  0  0  0  0999 V2000
  139.7350   72.2390  228.9040 N   0  0  0  0  0  0  0  0  0  0  0  0
  141.0230   71.5430  227.9600 S   0  0  0  0  0  0  0  0  0  0  0  0
  141.9120   72.6850  227.5170 O   0  0  0  0  0  0  0  0  0  0  0  0
  141.7850   70.5420  228.7770 O   0  0  0  0  0  0  0  0  0  0  0  0
  140.3890   70.7390  226.5540 C   0  0  0  0  0  0  0  0  0  0  0  0
  140.1840   71.4940  225.4190 C   0  0  0  0  0  0  0  0  0  0  0  0
  139.6830   70.8960  224.2860 C   0  0  0  0  0  0  0  0  0  0  0  0
  139.3700   69.5480  224.2370 C   0  0  0  0  0  0  0  0  0  0  0  0
  138.8400   69.0260  222.9600 C   0  0  0  0  0  0  0  0  0  0  0  0
  139.2420   69.9210  221.7940 C   0  0  0  0  0  0  0  0  0  0  0  0
  138.1280   70.7170  221.4330 N   0  0  0  0  0  0  0  0  0  0  0  0
  137.1130   70.8570  222.4190 C   0  0  0  0  0  0  0  0  0  0  0  0
  136.0900   71.6840  221.6300 C   0  0  0  0  0  0  0  0  0  0  0  0
  137.0320   72.6490  220.9090 C   0  0  1  0  0  0  0  0  0  0  0  0
  136.9990   73.9270  221.6690 C   0  0  0  0  0  0  0  0  0  0  0  0
  136.0600   74.1520  222.6100 N   0  0  0  0  0  0  0  0  0  0  0  0
  135.9830   75.2980  223.3290 C   0  0  0  0  0  0  0  0  0  0  0  0
  134.9790   75.5040  224.3220 N   0  0  0  0  0  0  0  0  0  0  0  0
  134.6320   76.8600  224.6660 C   0  0  0  0  0  0  0  0  0  0  0  0
  133.1650   76.9910  224.9880 C   0  0  0  0  0  0  0  0  0  0  0  0
  132.7500   75.9600  225.9660 C   0  0  0  0  0  0  0  0  0  0  0  0
  131.7910   76.2330  226.9170 C   0  0  0  0  0  0  0  0  0  0  0  0
  131.3920   75.2880  227.8350 C   0  0  0  0  0  0  0  0  0  0  0  0
  131.9990   74.0350  227.7660 C   0  0  0  0  0  0  0  0  0  0  0  0
  132.9600   73.7520  226.8170 C   0  0  0  0  0  0  0  0  0  0  0  0
  133.3390   74.7160  225.9110 C   0  0  0  0  0  0  0  0  0  0  0  0
  134.3790   74.3460  224.9160 C   0  0  0  0  0  0  0  0  0  0  0  0
  136.9200   76.2500  223.0550 N   0  0  0  0  0  0  0  0  0  0  0  0
  137.8760   76.0740  222.1260 C   0  0  0  0  0  0  0  0  0  0  0  0
  138.8170   77.1150  221.8980 N   0  0  0  0  0  0  0  0  0  0  0  0
  140.1270   76.7080  221.3970 C   0  0  0  0  0  0  0  0  0  0  0  0
  141.0690   76.9290  222.5880 C   0  0  0  0  0  0  0  0  0  0  0  0
  140.9540   78.3770  222.9250 C   0  0  0  0  0  0  0  0  0  0  0  0
  142.0990   78.9570  223.4750 C   0  0  0  0  0  0  0  0  0  0  0  0
  142.0630   80.2900  223.8080 C   0  0  0  0  0  0  0  0  0  0  0  0
  140.9120   81.0460  223.6030 C   0  0  0  0  0  0  0  0  0  0  0  0
  139.7910   80.4580  223.0580 C   0  0  0  0  0  0  0  0  0  0  0  0
  139.8000   79.1040  222.7110 C   0  0  0  0  0  0  0  0  0  0  0  0
  138.5680   78.4980  222.1230 C   0  0  0  0  0  0  0  0  0  0  0  0
  137.8860   74.9050  221.4540 N   0  0  0  0  0  0  0  0  0  0  0  0
  138.3860   71.9980  220.8710 C   0  0  0  0  0  0  0  0  0  0  0  0
  139.5730   68.7930  225.3670 C   0  0  0  0  0  0  0  0  0  0  0  0
  140.0830   69.3850  226.5280 C   0  0  0  0  0  0  0  0  0  0  0  0
  138.8330   71.9700  228.4100 H   0  0  0  0  0  0  0  0  0  0  0  0
  139.7810   73.2910  228.7950 H   0  0  0  0  0  0  0  0  0  0  0  0
  140.4197   72.5685  225.4193 H   0  0  0  0  0  0  0  0  0  0  0  0
  139.5255   71.5103  223.3872 H   0  0  0  0  0  0  0  0  0  0  0  0
  139.2393   68.0150  222.7915 H   0  0  0  0  0  0  0  0  0  0  0  0
  137.7419   69.0021  223.0205 H   0  0  0  0  0  0  0  0  0  0  0  0
  140.0788   70.5686  222.0948 H   0  0  0  0  0  0  0  0  0  0  0  0
  139.5584   69.3059  220.9387 H   0  0  0  0  0  0  0  0  0  0  0  0
  136.7028   69.8830  222.7242 H   0  0  0  0  0  0  0  0  0  0  0  0
  137.4446   71.3094  223.3653 H   0  0  0  0  0  0  0  0  0  0  0  0
  135.5211   71.0631  220.9224 H   0  0  0  0  0  0  0  0  0  0  0  0
  135.3114   72.1645  222.2406 H   0  0  0  0  0  0  0  0  0  0  0  0
  136.7468   72.8714  219.8701 H   0  0  0  0  0  0  0  0  0  0  0  0
  135.2193   77.1674  225.5438 H   0  0  0  0  0  0  0  0  0  0  0  0
  134.8539   77.5027  223.8013 H   0  0  0  0  0  0  0  0  0  0  0  0
  132.9761   77.9881  225.4123 H   0  0  0  0  0  0  0  0  0  0  0  0
  132.5861   76.8542  224.0627 H   0  0  0  0  0  0  0  0  0  0  0  0
  131.3322   77.2324  226.9433 H   0  0  0  0  0  0  0  0  0  0  0  0
  130.6258   75.5123  228.5918 H   0  0  0  0  0  0  0  0  0  0  0  0
  131.7055   73.2548  228.4837 H   0  0  0  0  0  0  0  0  0  0  0  0
  133.4235   72.7550  226.7847 H   0  0  0  0  0  0  0  0  0  0  0  0
  135.1606   73.7577  225.4190 H   0  0  0  0  0  0  0  0  0  0  0  0
  133.8981   73.7611  224.1181 H   0  0  0  0  0  0  0  0  0  0  0  0
  140.1187   75.6497  221.0970 H   0  0  0  0  0  0  0  0  0  0  0  0
  140.4330   77.2758  220.5059 H   0  0  0  0  0  0  0  0  0  0  0  0
  140.7594   76.3098  223.4428 H   0  0  0  0  0  0  0  0  0  0  0  0
  142.1046   76.6477  222.3463 H   0  0  0  0  0  0  0  0  0  0  0  0
  143.0089   78.3607  223.6380 H   0  0  0  0  0  0  0  0  0  0  0  0
  142.9549   80.7656  224.2420 H   0  0  0  0  0  0  0  0  0  0  0  0
  140.8974   82.1115  223.8757 H   0  0  0  0  0  0  0  0  0  0  0  0
  138.8835   81.0580  222.8951 H   0  0  0  0  0  0  0  0  0  0  0  0
  137.7256   78.6161  222.8204 H   0  0  0  0  0  0  0  0  0  0  0  0
  138.3133   78.9973  221.1765 H   0  0  0  0  0  0  0  0  0  0  0  0
  138.7568   71.9119  219.8390 H   0  0  0  0  0  0  0  0  0  0  0  0
  139.1602   72.5648  221.4089 H   0  0  0  0  0  0  0  0  0  0  0  0
  139.3338   67.7194  225.3590 H   0  0  0  0  0  0  0  0  0  0  0  0
  140.2428   68.7724  227.4276 H   0  0  0  0  0  0  0  0  0  0  0  0
  1  2  1  0
  2  3  2  0
  2  4  2  0
  2  5  1  0
  5  6  2  0
  6  7  1  0
  7  8  2  0
  8  9  1  0
  9 10  1  0
 10 11  1  0
 11 12  1  0
 12 13  1  0
 13 14  1  0
 14 15  1  0
 15 16  2  0
 16 17  1  0
 17 18  1  0
 18 19  1  0
 19 20  1  0
 20 21  1  0
 21 22  2  0
 22 23  1  0
 23 24  2  0
 24 25  1  0
 25 26  2  0
 26 27  1  0
 17 28  2  0
 28 29  1  0
 29 30  1  0
 30 31  1  0
 31 32  1  0
 32 33  1  0
 33 34  2  0
 34 35  1  0
 35 36  2  0
 36 37  1  0
 37 38  2  0
 38 39  1  0
 29 40  2  0
 14 41  1  0
  8 42  1  0
 42 43  2  0
 43  5  1  0
 41 11  1  0
 40 15  1  0
 27 18  1  0
 39 30  1  0
 26 21  1  0
 38 33  1  0
  1 44  1  0
  1 45  1  0
  6 46  1  0
  7 47  1  0
  9 48  1  0
  9 49  1  0
 10 50  1  0
 10 51  1  0
 12 52  1  0
 12 53  1  0
 13 54  1  0
 13 55  1  0
 14 56  1  6
 19 57  1  0
 19 58  1  0
 20 59  1  0
 20 60  1  0
 22 61  1  0
 23 62  1  0
 24 63  1  0
 25 64  1  0
 27 65  1  0
 27 66  1  0
 31 67  1  0
 31 68  1  0
 32 69  1  0
 32 70  1  0
 34 71  1  0
 35 72  1  0
 36 73  1  0
 37 74  1  0
 39 75  1  0
 39 76  1  0
 41 77  1  0
 41 78  1  0
 42 79  1  0
 43 80  1  0
M  END
>  <smiles>  (82) 
NS(=O)(=O)c1ccc(CCN2CCC(c3nc(N4CCc5ccccc5C4)nc(N4CCc5ccccc5C4)n3)C2)cc1

>  <score_type>  (82) 
oracle

>  <origin>  (82) 
autodockgpu

>  <m_score__min__energy>  (82) 
-10.83

>  <m_primary>  (82) 
energy

>  <rmsd>  (82) 
10.137888255262922

>  <m_score__min__rmsd>  (82) 
10.137888255262922

>  <meeko>  (82) 
{"free_energy": -10.17, "intermolecular_energy": -12.56, "internal_energy": -1.68, "cluster_size": 5, "cluster_id": 4, "rank_in_cluster": 3}

>  <energy>  (82) 
-9.81

>  <cluster_rmsd>  (82) 
0.31

>  <cluster>  (82) 
9

$$$$

     RDKit          3D

 80 86  0  0  1  0  0  0  0  0999 V2000
  142.5770   80.4250  217.0470 N   0  0  0  0  0  0  0  0  0  0  0  0
  141.4190   79.1410  216.8350 S   0  0  0  0  0  0  0  0  0  0  0  0
  140.6200   79.0530  218.1180 O   0  0  0  0  0  0  0  0  0  0  0  0
  140.5340   79.4270  215.6590 O   0  0  0  0  0  0  0  0  0  0  0  0
  142.2260   77.6240  216.5630 C   0  0  0  0  0  0  0  0  0  0  0  0
  143.2210   77.2580  217.4430 C   0  0  0  0  0  0  0  0  0  0  0  0
  143.8840   76.0660  217.2630 C   0  0  0  0  0  0  0  0  0  0  0  0
  143.5890   75.2070  216.2180 C   0  0  0  0  0  0  0  0  0  0  0  0
  144.3730   73.9560  216.1340 C   0  0  0  0  0  0  0  0  0  0  0  0
  145.2390   73.7690  217.3740 C   0  0  0  0  0  0  0  0  0  0  0  0
  144.6260   72.8030  218.2080 N   0  0  0  0  0  0  0  0  0  0  0  0
  145.0950   72.7460  219.5490 C   0  0  0  0  0  0  0  0  0  0  0  0
  144.2720   71.5610  220.0680 C   0  0  0  0  0  0  0  0  0  0  0  0
  142.9260   71.8670  219.4090 C   0  0  1  0  0  0  0  0  0  0  0  0
  142.0740   72.5010  220.4510 C   0  0  0  0  0  0  0  0  0  0  0  0
  141.6150   71.7890  221.5010 N   0  0  0  0  0  0  0  0  0  0  0  0
  140.8350   72.3150  222.4750 C   0  0  0  0  0  0  0  0  0  0  0  0
  140.3680   71.5360  223.5760 N   0  0  0  0  0  0  0  0  0  0  0  0
  139.2330   70.6730  223.3650 C   0  0  0  0  0  0  0  0  0  0  0  0
  139.3480   69.4010  224.1670 C   0  0  0  0  0  0  0  0  0  0  0  0
  139.6650   69.7010  225.5810 C   0  0  0  0  0  0  0  0  0  0  0  0
  139.1590   68.9220  226.5990 C   0  0  0  0  0  0  0  0  0  0  0  0
  139.4420   69.1860  227.9200 C   0  0  0  0  0  0  0  0  0  0  0  0
  140.2650   70.2790  228.1920 C   0  0  0  0  0  0  0  0  0  0  0  0
  140.7760   71.0640  227.1790 C   0  0  0  0  0  0  0  0  0  0  0  0
  140.4770   70.7770  225.8670 C   0  0  0  0  0  0  0  0  0  0  0  0
  141.0590   71.6630  224.8250 C   0  0  0  0  0  0  0  0  0  0  0  0
  140.5170   73.6350  222.3510 N   0  0  0  0  0  0  0  0  0  0  0  0
  140.9490   74.3870  221.3240 C   0  0  0  0  0  0  0  0  0  0  0  0
  140.5740   75.7570  221.2650 N   0  0  0  0  0  0  0  0  0  0  0  0
  140.8570   76.4540  220.0140 C   0  0  0  0  0  0  0  0  0  0  0  0
  142.0100   77.4030  220.3660 C   0  0  0  0  0  0  0  0  0  0  0  0
  141.4920   78.2730  221.4610 C   0  0  0  0  0  0  0  0  0  0  0  0
  142.0340   79.5590  221.5110 C   0  0  0  0  0  0  0  0  0  0  0  0
  141.5990   80.4160  222.4950 C   0  0  0  0  0  0  0  0  0  0  0  0
  140.6420   80.0110  223.4200 C   0  0  0  0  0  0  0  0  0  0  0  0
  140.1170   78.7380  223.3570 C   0  0  0  0  0  0  0  0  0  0  0  0
  140.5420   77.8470  222.3660 C   0  0  0  0  0  0  0  0  0  0  0  0
  139.9520   76.4750  222.3260 C   0  0  0  0  0  0  0  0  0  0  0  0
  141.7220   73.7900  220.3950 N   0  0  0  0  0  0  0  0  0  0  0  0
  143.2050   72.7550  218.2290 C   0  0  0  0  0  0  0  0  0  0  0  0
  142.5970   75.5690  215.3380 C   0  0  0  0  0  0  0  0  0  0  0  0
  141.9130   76.7780  215.5080 C   0  0  0  0  0  0  0  0  0  0  0  0
  142.9520   80.6430  216.0760 H   0  0  0  0  0  0  0  0  0  0  0  0
  143.4150   80.0290  217.5600 H   0  0  0  0  0  0  0  0  0  0  0  0
  143.4839   77.9153  218.2849 H   0  0  0  0  0  0  0  0  0  0  0  0
  144.6755   75.7859  217.9736 H   0  0  0  0  0  0  0  0  0  0  0  0
  143.6826   73.1042  216.0458 H   0  0  0  0  0  0  0  0  0  0  0  0
  145.0299   74.0129  215.2535 H   0  0  0  0  0  0  0  0  0  0  0  0
  146.2403   73.4225  217.0786 H   0  0  0  0  0  0  0  0  0  0  0  0
  145.3382   74.7233  217.9121 H   0  0  0  0  0  0  0  0  0  0  0  0
  146.1754   72.5444  219.5955 H   0  0  0  0  0  0  0  0  0  0  0  0
  144.9774   73.6781  220.1212 H   0  0  0  0  0  0  0  0  0  0  0  0
  144.6832   70.5985  219.7297 H   0  0  0  0  0  0  0  0  0  0  0  0
  144.2409   71.4615  221.1630 H   0  0  0  0  0  0  0  0  0  0  0  0
  142.3917   70.9816  219.0339 H   0  0  0  0  0  0  0  0  0  0  0  0
  138.3188   71.2047  223.6676 H   0  0  0  0  0  0  0  0  0  0  0  0
  139.1965   70.4060  222.2985 H   0  0  0  0  0  0  0  0  0  0  0  0
  138.3937   68.8561  224.1187 H   0  0  0  0  0  0  0  0  0  0  0  0
  140.1588   68.7889  223.7450 H   0  0  0  0  0  0  0  0  0  0  0  0
  138.5126   68.0676  226.3496 H   0  0  0  0  0  0  0  0  0  0  0  0
  139.0356   68.5604  228.7284 H   0  0  0  0  0  0  0  0  0  0  0  0
  140.5118   70.5202  229.2365 H   0  0  0  0  0  0  0  0  0  0  0  0
  141.4231   71.9201  227.4205 H   0  0  0  0  0  0  0  0  0  0  0  0
  140.9910   72.7067  225.1657 H   0  0  0  0  0  0  0  0  0  0  0  0
  142.1069   71.3672  224.6691 H   0  0  0  0  0  0  0  0  0  0  0  0
  141.1613   75.7434  219.2314 H   0  0  0  0  0  0  0  0  0  0  0  0
  139.9786   76.9856  219.6192 H   0  0  0  0  0  0  0  0  0  0  0  0
  142.8855   76.8328  220.7100 H   0  0  0  0  0  0  0  0  0  0  0  0
  142.3326   77.9926  219.4952 H   0  0  0  0  0  0  0  0  0  0  0  0
  142.7913   79.8792  220.7803 H   0  0  0  0  0  0  0  0  0  0  0  0
  142.0127   81.4337  222.5512 H   0  0  0  0  0  0  0  0  0  0  0  0
  140.3041   80.7069  224.2020 H   0  0  0  0  0  0  0  0  0  0  0  0
  139.3601   78.4213  224.0897 H   0  0  0  0  0  0  0  0  0  0  0  0
  140.1359   75.9620  223.2815 H   0  0  0  0  0  0  0  0  0  0  0  0
  138.8657   76.5318  222.1624 H   0  0  0  0  0  0  0  0  0  0  0  0
  142.8084   72.3184  217.3005 H   0  0  0  0  0  0  0  0  0  0  0  0
  142.7342   73.7462  218.3056 H   0  0  0  0  0  0  0  0  0  0  0  0
  142.3402   74.9067  214.4981 H   0  0  0  0  0  0  0  0  0  0  0  0
  141.1204   77.0603  214.7994 H   0  0  0  0  0  0  0  0  0  0  0  0
  1  2  1  0
  2  3  2  0
  2  4  2  0
  2  5  1  0
  5  6  2  0
  6  7  1  0
  7  8  2  0
  8  9  1  0
  9 10  1  0
 10 11  1  0
 11 12  1  0
 12 13  1  0
 13 14  1  0
 14 15  1  0
 15 16  2  0
 16 17  1  0
 17 18  1  0
 18 19  1  0
 19 20  1  0
 20 21  1  0
 21 22  2  0
 22 23  1  0
 23 24  2  0
 24 25  1  0
 25 26  2  0
 26 27  1  0
 17 28  2  0
 28 29  1  0
 29 30  1  0
 30 31  1  0
 31 32  1  0
 32 33  1  0
 33 34  2  0
 34 35  1  0
 35 36  2  0
 36 37  1  0
 37 38  2  0
 38 39  1  0
 29 40  2  0
 14 41  1  0
  8 42  1  0
 42 43  2  0
 43  5  1  0
 41 11  1  0
 40 15  1  0
 27 18  1  0
 39 30  1  0
 26 21  1  0
 38 33  1  0
  1 44  1  0
  1 45  1  0
  6 46  1  0
  7 47  1  0
  9 48  1  0
  9 49  1  0
 10 50  1  0
 10 51  1  0
 12 52  1  0
 12 53  1  0
 13 54  1  0
 13 55  1  0
 14 56  1  6
 19 57  1  0
 19 58  1  0
 20 59  1  0
 20 60  1  0
 22 61  1  0
 23 62  1  0
 24 63  1  0
 25 64  1  0
 27 65  1  0
 27 66  1  0
 31 67  1  0
 31 68  1  0
 32 69  1  0
 32 70  1  0
 34 71  1  0
 35 72  1  0
 36 73  1  0
 37 74  1  0
 39 75  1  0
 39 76  1  0
 41 77  1  0
 41 78  1  0
 42 79  1  0
 43 80  1  0
M  END
>  <smiles>  (83) 
NS(=O)(=O)c1ccc(CCN2CCC(c3nc(N4CCc5ccccc5C4)nc(N4CCc5ccccc5C4)n3)C2)cc1

>  <score_type>  (83) 
oracle

>  <origin>  (83) 
autodockgpu

>  <m_score__min__energy>  (83) 
-10.83

>  <m_primary>  (83) 
energy

>  <rmsd>  (83) 
7.818073492064309

>  <m_score__min__rmsd>  (83) 
7.818073492064309

>  <meeko>  (83) 
{"free_energy": -10.16, "intermolecular_energy": -12.55, "internal_energy": -2.52, "cluster_size": 5, "cluster_id": 6, "rank_in_cluster": 1}

>  <energy>  (83) 
-9.19

>  <cluster_rmsd>  (83) 
1.4

>  <cluster>  (83) 
9

$$$$

     RDKit          3D

 80 86  0  0  1  0  0  0  0  0999 V2000
  131.7050   71.9820  227.4790 N   0  0  0  0  0  0  0  0  0  0  0  0
  133.3270   72.4190  227.0160 S   0  0  0  0  0  0  0  0  0  0  0  0
  133.4080   73.9300  227.0720 O   0  0  0  0  0  0  0  0  0  0  0  0
  134.3220   71.7840  227.9400 O   0  0  0  0  0  0  0  0  0  0  0  0
  133.6650   71.8930  225.3930 C   0  0  0  0  0  0  0  0  0  0  0  0
  134.9060   71.3500  225.1380 C   0  0  0  0  0  0  0  0  0  0  0  0
  135.2130   70.9220  223.8670 C   0  0  0  0  0  0  0  0  0  0  0  0
  134.3150   71.0150  222.8180 C   0  0  0  0  0  0  0  0  0  0  0  0
  134.7660   70.5190  221.5000 C   0  0  0  0  0  0  0  0  0  0  0  0
  134.1100   71.3000  220.3680 C   0  0  0  0  0  0  0  0  0  0  0  0
  135.0060   72.3110  219.9410 N   0  0  0  0  0  0  0  0  0  0  0  0
  134.9890   73.5190  220.6900 C   0  0  0  0  0  0  0  0  0  0  0  0
  135.9960   74.3460  219.8810 C   0  0  0  0  0  0  0  0  0  0  0  0
  137.0460   73.2720  219.5920 C   0  0  1  0  0  0  0  0  0  0  0  0
  138.1490   73.4780  220.5690 C   0  0  0  0  0  0  0  0  0  0  0  0
  138.8060   74.6540  220.6380 N   0  0  0  0  0  0  0  0  0  0  0  0
  139.8170   74.8940  221.5060 C   0  0  0  0  0  0  0  0  0  0  0  0
  140.4910   76.1510  221.5560 N   0  0  0  0  0  0  0  0  0  0  0  0
  141.3400   76.5130  220.4490 C   0  0  0  0  0  0  0  0  0  0  0  0
  141.2950   77.9950  220.1770 C   0  0  0  0  0  0  0  0  0  0  0  0
  141.5140   78.7620  221.4240 C   0  0  0  0  0  0  0  0  0  0  0  0
  142.1960   79.9590  221.4070 C   0  0  0  0  0  0  0  0  0  0  0  0
  142.4110   80.6860  222.5560 C   0  0  0  0  0  0  0  0  0  0  0  0
  141.9090   80.1620  223.7460 C   0  0  0  0  0  0  0  0  0  0  0  0
  141.2250   78.9640  223.7740 C   0  0  0  0  0  0  0  0  0  0  0  0
  141.0250   78.2580  222.6100 C   0  0  0  0  0  0  0  0  0  0  0  0
  140.2800   76.9760  222.7090 C   0  0  0  0  0  0  0  0  0  0  0  0
  140.1620   73.8680  222.3350 N   0  0  0  0  0  0  0  0  0  0  0  0
  139.5380   72.6770  222.3050 C   0  0  0  0  0  0  0  0  0  0  0  0
  139.9560   71.6560  223.2020 N   0  0  0  0  0  0  0  0  0  0  0  0
  139.5720   70.2900  222.8550 C   0  0  0  0  0  0  0  0  0  0  0  0
  138.4960   69.9300  223.8890 C   0  0  0  0  0  0  0  0  0  0  0  0
  139.1560   70.0720  225.2190 C   0  0  0  0  0  0  0  0  0  0  0  0
  138.6690   69.2310  226.2220 C   0  0  0  0  0  0  0  0  0  0  0  0
  139.2340   69.3090  227.4730 C   0  0  0  0  0  0  0  0  0  0  0  0
  140.2650   70.2060  227.7350 C   0  0  0  0  0  0  0  0  0  0  0  0
  140.7330   71.0290  226.7340 C   0  0  0  0  0  0  0  0  0  0  0  0
  140.1770   70.9700  225.4530 C   0  0  0  0  0  0  0  0  0  0  0  0
  140.7080   71.8770  224.3900 C   0  0  0  0  0  0  0  0  0  0  0  0
  138.5400   72.5160  221.4130 N   0  0  0  0  0  0  0  0  0  0  0  0
  136.3610   71.9400  219.7200 C   0  0  0  0  0  0  0  0  0  0  0  0
  133.0770   71.5560  223.0690 C   0  0  0  0  0  0  0  0  0  0  0  0
  132.7480   71.9960  224.3560 C   0  0  0  0  0  0  0  0  0  0  0  0
  131.0620   72.6330  226.9390 H   0  0  0  0  0  0  0  0  0  0  0  0
  131.5660   72.2660  228.4900 H   0  0  0  0  0  0  0  0  0  0  0  0
  135.6467   71.2594  225.9461 H   0  0  0  0  0  0  0  0  0  0  0  0
  136.2071   70.4907  223.6779 H   0  0  0  0  0  0  0  0  0  0  0  0
  135.8580   70.6307  221.4282 H   0  0  0  0  0  0  0  0  0  0  0  0
  134.4795   69.4610  221.4073 H   0  0  0  0  0  0  0  0  0  0  0  0
  133.8880   70.6229  219.5300 H   0  0  0  0  0  0  0  0  0  0  0  0
  133.1702   71.7524  220.7175 H   0  0  0  0  0  0  0  0  0  0  0  0
  133.9912   73.9820  220.6959 H   0  0  0  0  0  0  0  0  0  0  0  0
  135.2316   73.4068  221.7570 H   0  0  0  0  0  0  0  0  0  0  0  0
  135.5507   74.7415  218.9562 H   0  0  0  0  0  0  0  0  0  0  0  0
  136.3772   75.2426  220.3917 H   0  0  0  0  0  0  0  0  0  0  0  0
  137.4806   73.3213  218.5827 H   0  0  0  0  0  0  0  0  0  0  0  0
  142.3752   76.2244  220.6837 H   0  0  0  0  0  0  0  0  0  0  0  0
  140.9794   75.9874  219.5525 H   0  0  0  0  0  0  0  0  0  0  0  0
  142.0805   78.2531  219.4515 H   0  0  0  0  0  0  0  0  0  0  0  0
  140.3042   78.2509  219.7734 H   0  0  0  0  0  0  0  0  0  0  0  0
  142.5787   80.3438  220.4502 H   0  0  0  0  0  0  0  0  0  0  0  0
  142.9564   81.6410  222.5358 H   0  0  0  0  0  0  0  0  0  0  0  0
  142.0615   80.7160  224.6840 H   0  0  0  0  0  0  0  0  0  0  0  0
  140.8395   78.5732  224.7272 H   0  0  0  0  0  0  0  0  0  0  0  0
  140.6210   76.4334  223.6030 H   0  0  0  0  0  0  0  0  0  0  0  0
  139.2065   77.2069  222.7742 H   0  0  0  0  0  0  0  0  0  0  0  0
  139.1633   70.2464  221.8347 H   0  0  0  0  0  0  0  0  0  0  0  0
  140.4240   69.5944  222.8723 H   0  0  0  0  0  0  0  0  0  0  0  0
  137.6410   70.6175  223.8090 H   0  0  0  0  0  0  0  0  0  0  0  0
  138.1060   68.9132  223.7341 H   0  0  0  0  0  0  0  0  0  0  0  0
  137.8527   68.5230  226.0160 H   0  0  0  0  0  0  0  0  0  0  0  0
  138.8664   68.6541  228.2768 H   0  0  0  0  0  0  0  0  0  0  0  0
  140.7064   70.2580  228.7412 H   0  0  0  0  0  0  0  0  0  0  0  0
  141.5487   71.7364  226.9441 H   0  0  0  0  0  0  0  0  0  0  0  0
  140.6032   72.9249  224.7078 H   0  0  0  0  0  0  0  0  0  0  0  0
  141.7732   71.6696  224.2101 H   0  0  0  0  0  0  0  0  0  0  0  0
  136.4661   71.3487  218.7984 H   0  0  0  0  0  0  0  0  0  0  0  0
  136.7781   71.3071  220.5172 H   0  0  0  0  0  0  0  0  0  0  0  0
  132.3420   71.6435  222.2553 H   0  0  0  0  0  0  0  0  0  0  0  0
  131.7543   72.4272  224.5475 H   0  0  0  0  0  0  0  0  0  0  0  0
  1  2  1  0
  2  3  2  0
  2  4  2  0
  2  5  1  0
  5  6  2  0
  6  7  1  0
  7  8  2  0
  8  9  1  0
  9 10  1  0
 10 11  1  0
 11 12  1  0
 12 13  1  0
 13 14  1  0
 14 15  1  0
 15 16  2  0
 16 17  1  0
 17 18  1  0
 18 19  1  0
 19 20  1  0
 20 21  1  0
 21 22  2  0
 22 23  1  0
 23 24  2  0
 24 25  1  0
 25 26  2  0
 26 27  1  0
 17 28  2  0
 28 29  1  0
 29 30  1  0
 30 31  1  0
 31 32  1  0
 32 33  1  0
 33 34  2  0
 34 35  1  0
 35 36  2  0
 36 37  1  0
 37 38  2  0
 38 39  1  0
 29 40  2  0
 14 41  1  0
  8 42  1  0
 42 43  2  0
 43  5  1  0
 41 11  1  0
 40 15  1  0
 27 18  1  0
 39 30  1  0
 26 21  1  0
 38 33  1  0
  1 44  1  0
  1 45  1  0
  6 46  1  0
  7 47  1  0
  9 48  1  0
  9 49  1  0
 10 50  1  0
 10 51  1  0
 12 52  1  0
 12 53  1  0
 13 54  1  0
 13 55  1  0
 14 56  1  6
 19 57  1  0
 19 58  1  0
 20 59  1  0
 20 60  1  0
 22 61  1  0
 23 62  1  0
 24 63  1  0
 25 64  1  0
 27 65  1  0
 27 66  1  0
 31 67  1  0
 31 68  1  0
 32 69  1  0
 32 70  1  0
 34 71  1  0
 35 72  1  0
 36 73  1  0
 37 74  1  0
 39 75  1  0
 39 76  1  0
 41 77  1  0
 41 78  1  0
 42 79  1  0
 43 80  1  0
M  END
>  <smiles>  (84) 
NS(=O)(=O)c1ccc(CCN2CCC(c3nc(N4CCc5ccccc5C4)nc(N4CCc5ccccc5C4)n3)C2)cc1

>  <score_type>  (84) 
oracle

>  <origin>  (84) 
autodockgpu

>  <m_score__min__energy>  (84) 
-10.83

>  <m_primary>  (84) 
energy

>  <rmsd>  (84) 
9.97226716430482

>  <m_score__min__rmsd>  (84) 
9.97226716430482

>  <meeko>  (84) 
{"free_energy": -9.6, "intermolecular_energy": -11.98, "internal_energy": -2.38, "cluster_size": 4, "cluster_id": 12, "rank_in_cluster": 2}

>  <energy>  (84) 
-7.92

>  <cluster_rmsd>  (84) 
1.77

>  <cluster>  (84) 
9

$$$$

     RDKit          3D

 80 86  0  0  1  0  0  0  0  0999 V2000
  135.8600   75.2730  225.3090 N   0  0  0  0  0  0  0  0  0  0  0  0
  134.2600   74.5840  225.3320 S   0  0  0  0  0  0  0  0  0  0  0  0
  133.8880   74.3810  226.7850 O   0  0  0  0  0  0  0  0  0  0  0  0
  133.2910   75.4980  224.6420 O   0  0  0  0  0  0  0  0  0  0  0  0
  134.2420   73.0460  224.5200 C   0  0  0  0  0  0  0  0  0  0  0  0
  133.0730   72.6600  223.8990 C   0  0  0  0  0  0  0  0  0  0  0  0
  133.0170   71.4500  223.2470 C   0  0  0  0  0  0  0  0  0  0  0  0
  134.1010   70.5910  223.1880 C   0  0  0  0  0  0  0  0  0  0  0  0
  133.9140   69.3200  222.4560 C   0  0  0  0  0  0  0  0  0  0  0  0
  133.3910   69.5730  221.0470 C   0  0  0  0  0  0  0  0  0  0  0  0
  134.3640   70.3130  220.3330 N   0  0  0  0  0  0  0  0  0  0  0  0
  134.2570   71.7280  220.4120 C   0  0  0  0  0  0  0  0  0  0  0  0
  135.3960   72.1340  219.4680 C   0  0  0  0  0  0  0  0  0  0  0  0
  136.4550   71.1090  219.8790 C   0  0  1  0  0  0  0  0  0  0  0  0
  137.3950   71.8090  220.7940 C   0  0  0  0  0  0  0  0  0  0  0  0
  137.9720   71.1600  221.8260 N   0  0  0  0  0  0  0  0  0  0  0  0
  138.8330   71.7490  222.6900 C   0  0  0  0  0  0  0  0  0  0  0  0
  139.4300   71.0340  223.7710 N   0  0  0  0  0  0  0  0  0  0  0  0
  140.6940   71.5050  224.2820 C   0  0  0  0  0  0  0  0  0  0  0  0
  140.7990   71.3010  225.7720 C   0  0  0  0  0  0  0  0  0  0  0  0
  140.4440   69.9100  226.1360 C   0  0  0  0  0  0  0  0  0  0  0  0
  141.0800   69.2680  227.1760 C   0  0  0  0  0  0  0  0  0  0  0  0
  140.7640   67.9750  227.5280 C   0  0  0  0  0  0  0  0  0  0  0  0
  139.7710   67.3350  226.7880 C   0  0  0  0  0  0  0  0  0  0  0  0
  139.1290   67.9710  225.7450 C   0  0  0  0  0  0  0  0  0  0  0  0
  139.4640   69.2640  225.4140 C   0  0  0  0  0  0  0  0  0  0  0  0
  138.7350   69.8890  224.2810 C   0  0  0  0  0  0  0  0  0  0  0  0
  139.1020   73.0680  222.4740 N   0  0  0  0  0  0  0  0  0  0  0  0
  138.5520   73.7590  221.4600 C   0  0  0  0  0  0  0  0  0  0  0  0
  138.8830   75.1320  221.3010 N   0  0  0  0  0  0  0  0  0  0  0  0
  140.0860   75.4250  220.5270 C   0  0  0  0  0  0  0  0  0  0  0  0
  141.0930   75.9200  221.5730 C   0  0  0  0  0  0  0  0  0  0  0  0
  140.4580   77.1090  222.2100 C   0  0  0  0  0  0  0  0  0  0  0  0
  141.3420   78.0830  222.6780 C   0  0  0  0  0  0  0  0  0  0  0  0
  140.8230   79.2080  223.2750 C   0  0  0  0  0  0  0  0  0  0  0  0
  139.4480   79.3720  223.4110 C   0  0  0  0  0  0  0  0  0  0  0  0
  138.5890   78.4020  222.9430 C   0  0  0  0  0  0  0  0  0  0  0  0
  139.0900   77.2480  222.3320 C   0  0  0  0  0  0  0  0  0  0  0  0
  138.1310   76.2160  221.8370 C   0  0  0  0  0  0  0  0  0  0  0  0
  137.7060   73.1010  220.6420 N   0  0  0  0  0  0  0  0  0  0  0  0
  135.7290   69.9570  220.5150 C   0  0  0  0  0  0  0  0  0  0  0  0
  135.2680   70.9720  223.8070 C   0  0  0  0  0  0  0  0  0  0  0  0
  135.3420   72.2000  224.4740 C   0  0  0  0  0  0  0  0  0  0  0  0
  136.5150   74.4800  225.0370 H   0  0  0  0  0  0  0  0  0  0  0  0
  136.1340   75.4970  226.3080 H   0  0  0  0  0  0  0  0  0  0  0  0
  132.1903   73.3158  223.9248 H   0  0  0  0  0  0  0  0  0  0  0  0
  132.0783   71.1547  222.7554 H   0  0  0  0  0  0  0  0  0  0  0  0
  134.8791   68.7960  222.3928 H   0  0  0  0  0  0  0  0  0  0  0  0
  133.1781   68.7082  222.9984 H   0  0  0  0  0  0  0  0  0  0  0  0
  133.2094   68.6135  220.5407 H   0  0  0  0  0  0  0  0  0  0  0  0
  132.4468   70.1356  221.0908 H   0  0  0  0  0  0  0  0  0  0  0  0
  133.2809   72.0844  220.0511 H   0  0  0  0  0  0  0  0  0  0  0  0
  134.3278   72.1421  221.4286 H   0  0  0  0  0  0  0  0  0  0  0  0
  135.1098   72.0249  218.4115 H   0  0  0  0  0  0  0  0  0  0  0  0
  135.7116   73.1849  219.5457 H   0  0  0  0  0  0  0  0  0  0  0  0
  137.0442   70.7030  219.0435 H   0  0  0  0  0  0  0  0  0  0  0  0
  141.5072   70.9533  223.7877 H   0  0  0  0  0  0  0  0  0  0  0  0
  140.7694   72.5828  224.0754 H   0  0  0  0  0  0  0  0  0  0  0  0
  141.8310   71.5061  226.0927 H   0  0  0  0  0  0  0  0  0  0  0  0
  140.1003   71.9871  226.2731 H   0  0  0  0  0  0  0  0  0  0  0  0
  141.8597   69.8018  227.7391 H   0  0  0  0  0  0  0  0  0  0  0  0
  141.2746   67.4674  228.3597 H   0  0  0  0  0  0  0  0  0  0  0  0
  139.4933   66.3011  227.0408 H   0  0  0  0  0  0  0  0  0  0  0  0
  138.3483   67.4435  225.1773 H   0  0  0  0  0  0  0  0  0  0  0  0
  138.6274   69.1488  223.4745 H   0  0  0  0  0  0  0  0  0  0  0  0
  137.7515   70.2193  224.6464 H   0  0  0  0  0  0  0  0  0  0  0  0
  140.4576   74.5194  220.0252 H   0  0  0  0  0  0  0  0  0  0  0  0
  139.9066   76.1632  219.7314 H   0  0  0  0  0  0  0  0  0  0  0  0
  141.2830   75.1382  222.3231 H   0  0  0  0  0  0  0  0  0  0  0  0
  142.0623   76.1714  221.1177 H   0  0  0  0  0  0  0  0  0  0  0  0
  142.4292   77.9535  222.5716 H   0  0  0  0  0  0  0  0  0  0  0  0
  141.5030   79.9874  223.6494 H   0  0  0  0  0  0  0  0  0  0  0  0
  139.0469   80.2762  223.8922 H   0  0  0  0  0  0  0  0  0  0  0  0
  137.5025   78.5359  223.0505 H   0  0  0  0  0  0  0  0  0  0  0  0
  137.5049   75.8600  222.6684 H   0  0  0  0  0  0  0  0  0  0  0  0
  137.4769   76.6445  221.0634 H   0  0  0  0  0  0  0  0  0  0  0  0
  135.9638   69.0102  220.0066 H   0  0  0  0  0  0  0  0  0  0  0  0
  136.0025   69.7948  221.5680 H   0  0  0  0  0  0  0  0  0  0  0  0
  136.1459   70.3098  223.7779 H   0  0  0  0  0  0  0  0  0  0  0  0
  136.2797   72.4976  224.9661 H   0  0  0  0  0  0  0  0  0  0  0  0
  1  2  1  0
  2  3  2  0
  2  4  2  0
  2  5  1  0
  5  6  2  0
  6  7  1  0
  7  8  2  0
  8  9  1  0
  9 10  1  0
 10 11  1  0
 11 12  1  0
 12 13  1  0
 13 14  1  0
 14 15  1  0
 15 16  2  0
 16 17  1  0
 17 18  1  0
 18 19  1  0
 19 20  1  0
 20 21  1  0
 21 22  2  0
 22 23  1  0
 23 24  2  0
 24 25  1  0
 25 26  2  0
 26 27  1  0
 17 28  2  0
 28 29  1  0
 29 30  1  0
 30 31  1  0
 31 32  1  0
 32 33  1  0
 33 34  2  0
 34 35  1  0
 35 36  2  0
 36 37  1  0
 37 38  2  0
 38 39  1  0
 29 40  2  0
 14 41  1  0
  8 42  1  0
 42 43  2  0
 43  5  1  0
 41 11  1  0
 40 15  1  0
 27 18  1  0
 39 30  1  0
 26 21  1  0
 38 33  1  0
  1 44  1  0
  1 45  1  0
  6 46  1  0
  7 47  1  0
  9 48  1  0
  9 49  1  0
 10 50  1  0
 10 51  1  0
 12 52  1  0
 12 53  1  0
 13 54  1  0
 13 55  1  0
 14 56  1  6
 19 57  1  0
 19 58  1  0
 20 59  1  0
 20 60  1  0
 22 61  1  0
 23 62  1  0
 24 63  1  0
 25 64  1  0
 27 65  1  0
 27 66  1  0
 31 67  1  0
 31 68  1  0
 32 69  1  0
 32 70  1  0
 34 71  1  0
 35 72  1  0
 36 73  1  0
 37 74  1  0
 39 75  1  0
 39 76  1  0
 41 77  1  0
 41 78  1  0
 42 79  1  0
 43 80  1  0
M  END
>  <smiles>  (85) 
NS(=O)(=O)c1ccc(CCN2CCC(c3nc(N4CCc5ccccc5C4)nc(N4CCc5ccccc5C4)n3)C2)cc1

>  <score_type>  (85) 
oracle

>  <origin>  (85) 
autodockgpu

>  <m_score__min__energy>  (85) 
-10.83

>  <m_primary>  (85) 
energy

>  <rmsd>  (85) 
10.478451694004091

>  <m_score__min__rmsd>  (85) 
10.478451694004091

>  <meeko>  (85) 
{"free_energy": -8.45, "intermolecular_energy": -10.84, "internal_energy": -2.59, "cluster_size": 1, "cluster_id": 15, "rank_in_cluster": 1}

>  <energy>  (85) 
-9.81

>  <cluster_rmsd>  (85) 
0.0

>  <cluster>  (85) 
10

$$$$

     RDKit          3D

 80 86  0  0  1  0  0  0  0  0999 V2000
  144.2260   82.4970  216.3180 N   0  0  0  0  0  0  0  0  0  0  0  0
  142.7630   83.1770  216.9770 S   0  0  0  0  0  0  0  0  0  0  0  0
  143.1030   84.5730  217.4530 O   0  0  0  0  0  0  0  0  0  0  0  0
  141.6850   83.2020  215.9350 O   0  0  0  0  0  0  0  0  0  0  0  0
  142.2030   82.2370  218.3290 C   0  0  0  0  0  0  0  0  0  0  0  0
  142.5140   80.8950  218.3520 C   0  0  0  0  0  0  0  0  0  0  0  0
  142.0890   80.1160  219.4040 C   0  0  0  0  0  0  0  0  0  0  0  0
  141.3490   80.6320  220.4540 C   0  0  0  0  0  0  0  0  0  0  0  0
  140.9530   79.6920  221.5240 C   0  0  0  0  0  0  0  0  0  0  0  0
  141.7280   78.3840  221.4170 C   0  0  0  0  0  0  0  0  0  0  0  0
  140.8560   77.3850  220.9200 N   0  0  0  0  0  0  0  0  0  0  0  0
  141.3250   76.6460  219.7990 C   0  0  0  0  0  0  0  0  0  0  0  0
  140.0980   75.7650  219.5300 C   0  0  0  0  0  0  0  0  0  0  0  0
  139.7070   75.4130  220.9660 C   0  0  1  0  0  0  0  0  0  0  0  0
  140.2310   74.0460  221.2290 C   0  0  0  0  0  0  0  0  0  0  0  0
  139.9260   73.3920  222.3680 N   0  0  0  0  0  0  0  0  0  0  0  0
  140.3770   72.1480  222.6580 C   0  0  0  0  0  0  0  0  0  0  0  0
  140.0330   71.4800  223.8710 N   0  0  0  0  0  0  0  0  0  0  0  0
  139.0170   70.4580  223.8200 C   0  0  0  0  0  0  0  0  0  0  0  0
  139.3090   69.3390  224.7860 C   0  0  0  0  0  0  0  0  0  0  0  0
  139.6060   69.8740  226.1340 C   0  0  0  0  0  0  0  0  0  0  0  0
  139.2210   69.1900  227.2670 C   0  0  0  0  0  0  0  0  0  0  0  0
  139.4880   69.6730  228.5280 C   0  0  0  0  0  0  0  0  0  0  0  0
  140.1650   70.8880  228.6180 C   0  0  0  0  0  0  0  0  0  0  0  0
  140.5530   71.5800  227.4890 C   0  0  0  0  0  0  0  0  0  0  0  0
  140.2740   71.0750  226.2400 C   0  0  0  0  0  0  0  0  0  0  0  0
  140.7210   71.8700  225.0660 C   0  0  0  0  0  0  0  0  0  0  0  0
  141.1810   71.5610  221.7250 N   0  0  0  0  0  0  0  0  0  0  0  0
  141.5140   72.1720  220.5750 C   0  0  0  0  0  0  0  0  0  0  0  0
  142.3580   71.4950  219.6530 N   0  0  0  0  0  0  0  0  0  0  0  0
  141.7010   70.5860  218.7180 C   0  0  0  0  0  0  0  0  0  0  0  0
  142.1120   69.1890  219.2030 C   0  0  0  0  0  0  0  0  0  0  0  0
  143.6020   69.1680  219.1480 C   0  0  0  0  0  0  0  0  0  0  0  0
  144.1750   67.9180  218.9040 C   0  0  0  0  0  0  0  0  0  0  0  0
  145.5460   67.8270  218.8390 C   0  0  0  0  0  0  0  0  0  0  0  0
  146.3440   68.9540  219.0130 C   0  0  0  0  0  0  0  0  0  0  0  0
  145.7620   70.1800  219.2530 C   0  0  0  0  0  0  0  0  0  0  0  0
  144.3710   70.3000  219.3240 C   0  0  0  0  0  0  0  0  0  0  0  0
  143.7730   71.6440  219.5860 C   0  0  0  0  0  0  0  0  0  0  0  0
  141.0240   73.4090  220.3590 N   0  0  0  0  0  0  0  0  0  0  0  0
  140.2970   76.4720  221.8550 C   0  0  0  0  0  0  0  0  0  0  0  0
  141.0370   81.9700  220.4340 C   0  0  0  0  0  0  0  0  0  0  0  0
  141.4620   82.7770  219.3720 C   0  0  0  0  0  0  0  0  0  0  0  0
  143.9420   81.5770  215.8660 H   0  0  0  0  0  0  0  0  0  0  0  0
  144.8430   82.2030  217.1270 H   0  0  0  0  0  0  0  0  0  0  0  0
  143.0987   80.4487  217.5341 H   0  0  0  0  0  0  0  0  0  0  0  0
  142.3462   79.0465  219.4107 H   0  0  0  0  0  0  0  0  0  0  0  0
  141.1583   80.1527  222.5016 H   0  0  0  0  0  0  0  0  0  0  0  0
  139.8802   79.4731  221.4185 H   0  0  0  0  0  0  0  0  0  0  0  0
  142.5772   78.5109  220.7295 H   0  0  0  0  0  0  0  0  0  0  0  0
  142.1123   78.0914  222.4053 H   0  0  0  0  0  0  0  0  0  0  0  0
  141.5531   77.3005  218.9448 H   0  0  0  0  0  0  0  0  0  0  0  0
  142.2631   76.0963  219.9655 H   0  0  0  0  0  0  0  0  0  0  0  0
  139.3011   76.3207  219.0140 H   0  0  0  0  0  0  0  0  0  0  0  0
  140.2814   74.9014  218.8738 H   0  0  0  0  0  0  0  0  0  0  0  0
  138.6228   75.3961  221.1511 H   0  0  0  0  0  0  0  0  0  0  0  0
  138.0458   70.9066  224.0760 H   0  0  0  0  0  0  0  0  0  0  0  0
  138.9997   70.0396  222.8028 H   0  0  0  0  0  0  0  0  0  0  0  0
  138.4332   68.6761  224.8457 H   0  0  0  0  0  0  0  0  0  0  0  0
  140.1864   68.7817  224.4260 H   0  0  0  0  0  0  0  0  0  0  0  0
  138.6870   68.2342  227.1608 H   0  0  0  0  0  0  0  0  0  0  0  0
  139.1794   69.1221  229.4287 H   0  0  0  0  0  0  0  0  0  0  0  0
  140.3948   71.3040  229.6100 H   0  0  0  0  0  0  0  0  0  0  0  0
  141.0863   72.5370  227.5878 H   0  0  0  0  0  0  0  0  0  0  0  0
  140.5237   72.9346  225.2600 H   0  0  0  0  0  0  0  0  0  0  0  0
  141.7960   71.6898  224.9180 H   0  0  0  0  0  0  0  0  0  0  0  0
  140.6085   70.7074  218.7578 H   0  0  0  0  0  0  0  0  0  0  0  0
  141.9910   70.7726  217.6734 H   0  0  0  0  0  0  0  0  0  0  0  0
  141.7633   69.0220  220.2328 H   0  0  0  0  0  0  0  0  0  0  0  0
  141.6704   68.3960  218.5815 H   0  0  0  0  0  0  0  0  0  0  0  0
  143.5447   67.0270  218.7670 H   0  0  0  0  0  0  0  0  0  0  0  0
  146.0174   66.8518  218.6472 H   0  0  0  0  0  0  0  0  0  0  0  0
  147.4391   68.8662  218.9590 H   0  0  0  0  0  0  0  0  0  0  0  0
  146.3954   71.0689  219.3894 H   0  0  0  0  0  0  0  0  0  0  0  0
  144.1514   72.0407  220.5397 H   0  0  0  0  0  0  0  0  0  0  0  0
  144.0441   72.3443  218.7822 H   0  0  0  0  0  0  0  0  0  0  0  0
  139.5206   76.9551  222.4663 H   0  0  0  0  0  0  0  0  0  0  0  0
  141.0298   76.0800  222.5757 H   0  0  0  0  0  0  0  0  0  0  0  0
  140.4513   82.4086  221.2553 H   0  0  0  0  0  0  0  0  0  0  0  0
  141.2071   83.8470  219.3636 H   0  0  0  0  0  0  0  0  0  0  0  0
  1  2  1  0
  2  3  2  0
  2  4  2  0
  2  5  1  0
  5  6  2  0
  6  7  1  0
  7  8  2  0
  8  9  1  0
  9 10  1  0
 10 11  1  0
 11 12  1  0
 12 13  1  0
 13 14  1  0
 14 15  1  0
 15 16  2  0
 16 17  1  0
 17 18  1  0
 18 19  1  0
 19 20  1  0
 20 21  1  0
 21 22  2  0
 22 23  1  0
 23 24  2  0
 24 25  1  0
 25 26  2  0
 26 27  1  0
 17 28  2  0
 28 29  1  0
 29 30  1  0
 30 31  1  0
 31 32  1  0
 32 33  1  0
 33 34  2  0
 34 35  1  0
 35 36  2  0
 36 37  1  0
 37 38  2  0
 38 39  1  0
 29 40  2  0
 14 41  1  0
  8 42  1  0
 42 43  2  0
 43  5  1  0
 41 11  1  0
 40 15  1  0
 27 18  1  0
 39 30  1  0
 26 21  1  0
 38 33  1  0
  1 44  1  0
  1 45  1  0
  6 46  1  0
  7 47  1  0
  9 48  1  0
  9 49  1  0
 10 50  1  0
 10 51  1  0
 12 52  1  0
 12 53  1  0
 13 54  1  0
 13 55  1  0
 14 56  1  6
 19 57  1  0
 19 58  1  0
 20 59  1  0
 20 60  1  0
 22 61  1  0
 23 62  1  0
 24 63  1  0
 25 64  1  0
 27 65  1  0
 27 66  1  0
 31 67  1  0
 31 68  1  0
 32 69  1  0
 32 70  1  0
 34 71  1  0
 35 72  1  0
 36 73  1  0
 37 74  1  0
 39 75  1  0
 39 76  1  0
 41 77  1  0
 41 78  1  0
 42 79  1  0
 43 80  1  0
M  END
>  <smiles>  (86) 
NS(=O)(=O)c1ccc(CCN2CCC(c3nc(N4CCc5ccccc5C4)nc(N4CCc5ccccc5C4)n3)C2)cc1

>  <score_type>  (86) 
oracle

>  <origin>  (86) 
autodockgpu

>  <m_score__min__energy>  (86) 
-10.83

>  <m_primary>  (86) 
energy

>  <rmsd>  (86) 
3.085264052022362

>  <m_score__min__rmsd>  (86) 
3.085264052022362

>  <meeko>  (86) 
{"free_energy": -10.66, "intermolecular_energy": -13.05, "internal_energy": -1.5, "cluster_size": 1, "cluster_id": 3, "rank_in_cluster": 1}

>  <energy>  (86) 
-9.76

>  <cluster_rmsd>  (86) 
0.0

>  <cluster>  (86) 
11

$$$$

     RDKit          3D

 80 86  0  0  1  0  0  0  0  0999 V2000
  143.7010   76.7620  219.6040 N   0  0  0  0  0  0  0  0  0  0  0  0
  142.4610   77.4830  218.6150 S   0  0  0  0  0  0  0  0  0  0  0  0
  142.9430   78.8700  218.2460 O   0  0  0  0  0  0  0  0  0  0  0  0
  142.2160   76.6470  217.3950 O   0  0  0  0  0  0  0  0  0  0  0  0
  140.9700   77.6170  219.5010 C   0  0  0  0  0  0  0  0  0  0  0  0
  140.3590   76.4520  219.9120 C   0  0  0  0  0  0  0  0  0  0  0  0
  139.1780   76.5150  220.6150 C   0  0  0  0  0  0  0  0  0  0  0  0
  138.5680   77.7170  220.9290 C   0  0  0  0  0  0  0  0  0  0  0  0
  137.3010   77.6500  221.6890 C   0  0  0  0  0  0  0  0  0  0  0  0
  136.1560   77.1780  220.8020 C   0  0  0  0  0  0  0  0  0  0  0  0
  136.0600   75.7690  220.9030 N   0  0  0  0  0  0  0  0  0  0  0  0
  136.6280   75.0250  219.8330 C   0  0  0  0  0  0  0  0  0  0  0  0
  136.2500   73.6030  220.2680 C   0  0  0  0  0  0  0  0  0  0  0  0
  136.5200   73.7080  221.7700 C   0  0  1  0  0  0  0  0  0  0  0  0
  137.8480   73.0830  222.0100 C   0  0  0  0  0  0  0  0  0  0  0  0
  138.0390   72.2310  223.0380 N   0  0  0  0  0  0  0  0  0  0  0  0
  139.2270   71.6360  223.3030 C   0  0  0  0  0  0  0  0  0  0  0  0
  139.3970   70.7350  224.3970 N   0  0  0  0  0  0  0  0  0  0  0  0
  138.5580   69.5640  224.4490 C   0  0  0  0  0  0  0  0  0  0  0  0
  139.2940   68.3810  225.0240 C   0  0  0  0  0  0  0  0  0  0  0  0
  139.9580   68.7450  226.2960 C   0  0  0  0  0  0  0  0  0  0  0  0
  140.0660   67.8340  227.3240 C   0  0  0  0  0  0  0  0  0  0  0  0
  140.6790   68.1550  228.5140 C   0  0  0  0  0  0  0  0  0  0  0  0
  141.1910   69.4450  228.6410 C   0  0  0  0  0  0  0  0  0  0  0  0
  141.0880   70.3650  227.6180 C   0  0  0  0  0  0  0  0  0  0  0  0
  140.4700   70.0170  226.4380 C   0  0  0  0  0  0  0  0  0  0  0  0
  140.3930   71.0540  225.3770 C   0  0  0  0  0  0  0  0  0  0  0  0
  140.2590   71.9420  222.4660 N   0  0  0  0  0  0  0  0  0  0  0  0
  140.1190   72.7850  221.4280 C   0  0  0  0  0  0  0  0  0  0  0  0
  141.2430   73.0550  220.6010 N   0  0  0  0  0  0  0  0  0  0  0  0
  141.3640   72.2510  219.3870 C   0  0  0  0  0  0  0  0  0  0  0  0
  142.5490   71.3180  219.6720 C   0  0  0  0  0  0  0  0  0  0  0  0
  143.7090   72.2160  219.9420 C   0  0  0  0  0  0  0  0  0  0  0  0
  144.9590   71.7010  219.5930 C   0  0  0  0  0  0  0  0  0  0  0  0
  146.0720   72.4770  219.8140 C   0  0  0  0  0  0  0  0  0  0  0  0
  145.9570   73.7470  220.3720 C   0  0  0  0  0  0  0  0  0  0  0  0
  144.7160   74.2400  220.7110 C   0  0  0  0  0  0  0  0  0  0  0  0
  143.5670   73.4720  220.4970 C   0  0  0  0  0  0  0  0  0  0  0  0
  142.2370   74.0370  220.8750 C   0  0  0  0  0  0  0  0  0  0  0  0
  138.9050   73.3360  221.2300 N   0  0  0  0  0  0  0  0  0  0  0  0
  136.4610   75.1670  222.1280 C   0  0  0  0  0  0  0  0  0  0  0  0
  139.1740   78.8800  220.5210 C   0  0  0  0  0  0  0  0  0  0  0  0
  140.3760   78.8340  219.8050 C   0  0  0  0  0  0  0  0  0  0  0  0
  143.2550   76.5910  220.5530 H   0  0  0  0  0  0  0  0  0  0  0  0
  144.4360   77.5000  219.7970 H   0  0  0  0  0  0  0  0  0  0  0  0
  140.8129   75.4774  219.6793 H   0  0  0  0  0  0  0  0  0  0  0  0
  138.7021   75.5776  220.9387 H   0  0  0  0  0  0  0  0  0  0  0  0
  137.4207   76.9468  222.5263 H   0  0  0  0  0  0  0  0  0  0  0  0
  137.0628   78.6570  222.0621 H   0  0  0  0  0  0  0  0  0  0  0  0
  135.2144   77.6388  221.1353 H   0  0  0  0  0  0  0  0  0  0  0  0
  136.3439   77.4688  219.7579 H   0  0  0  0  0  0  0  0  0  0  0  0
  136.1756   75.2900  218.8660 H   0  0  0  0  0  0  0  0  0  0  0  0
  137.7037   75.1903  219.6732 H   0  0  0  0  0  0  0  0  0  0  0  0
  135.1941   73.3781  220.0572 H   0  0  0  0  0  0  0  0  0  0  0  0
  136.7960   72.7989  219.7529 H   0  0  0  0  0  0  0  0  0  0  0  0
  135.7859   73.1860  222.4014 H   0  0  0  0  0  0  0  0  0  0  0  0
  137.6819   69.7799  225.0782 H   0  0  0  0  0  0  0  0  0  0  0  0
  138.2516   69.3137  223.4226 H   0  0  0  0  0  0  0  0  0  0  0  0
  138.5785   67.5665  225.2104 H   0  0  0  0  0  0  0  0  0  0  0  0
  140.0611   68.0583  224.3046 H   0  0  0  0  0  0  0  0  0  0  0  0
  139.6516   66.8239  227.1903 H   0  0  0  0  0  0  0  0  0  0  0  0
  140.7614   67.4233  229.3312 H   0  0  0  0  0  0  0  0  0  0  0  0
  141.6884   69.7362  229.5779 H   0  0  0  0  0  0  0  0  0  0  0  0
  141.4998   71.3770  227.7452 H   0  0  0  0  0  0  0  0  0  0  0  0
  140.1417   72.0198  225.8397 H   0  0  0  0  0  0  0  0  0  0  0  0
  141.3690   71.1017  224.8719 H   0  0  0  0  0  0  0  0  0  0  0  0
  140.4456   71.6724  219.2087 H   0  0  0  0  0  0  0  0  0  0  0  0
  141.5174   72.8653  218.4875 H   0  0  0  0  0  0  0  0  0  0  0  0
  142.3392   70.6873  220.5485 H   0  0  0  0  0  0  0  0  0  0  0  0
  142.7461   70.6401  218.8284 H   0  0  0  0  0  0  0  0  0  0  0  0
  145.0510   70.6977  219.1515 H   0  0  0  0  0  0  0  0  0  0  0  0
  147.0661   72.0894  219.5465 H   0  0  0  0  0  0  0  0  0  0  0  0
  146.8566   74.3567  220.5422 H   0  0  0  0  0  0  0  0  0  0  0  0
  144.6284   75.2436  221.1526 H   0  0  0  0  0  0  0  0  0  0  0  0
  142.2290   74.2862  221.9464 H   0  0  0  0  0  0  0  0  0  0  0  0
  142.0355   74.9527  220.2998 H   0  0  0  0  0  0  0  0  0  0  0  0
  135.7226   75.3518  222.9221 H   0  0  0  0  0  0  0  0  0  0  0  0
  137.4103   75.5609  222.5199 H   0  0  0  0  0  0  0  0  0  0  0  0
  138.7134   79.8505  220.7576 H   0  0  0  0  0  0  0  0  0  0  0  0
  140.8538   79.7702  219.4806 H   0  0  0  0  0  0  0  0  0  0  0  0
  1  2  1  0
  2  3  2  0
  2  4  2  0
  2  5  1  0
  5  6  2  0
  6  7  1  0
  7  8  2  0
  8  9  1  0
  9 10  1  0
 10 11  1  0
 11 12  1  0
 12 13  1  0
 13 14  1  0
 14 15  1  0
 15 16  2  0
 16 17  1  0
 17 18  1  0
 18 19  1  0
 19 20  1  0
 20 21  1  0
 21 22  2  0
 22 23  1  0
 23 24  2  0
 24 25  1  0
 25 26  2  0
 26 27  1  0
 17 28  2  0
 28 29  1  0
 29 30  1  0
 30 31  1  0
 31 32  1  0
 32 33  1  0
 33 34  2  0
 34 35  1  0
 35 36  2  0
 36 37  1  0
 37 38  2  0
 38 39  1  0
 29 40  2  0
 14 41  1  0
  8 42  1  0
 42 43  2  0
 43  5  1  0
 41 11  1  0
 40 15  1  0
 27 18  1  0
 39 30  1  0
 26 21  1  0
 38 33  1  0
  1 44  1  0
  1 45  1  0
  6 46  1  0
  7 47  1  0
  9 48  1  0
  9 49  1  0
 10 50  1  0
 10 51  1  0
 12 52  1  0
 12 53  1  0
 13 54  1  0
 13 55  1  0
 14 56  1  1
 19 57  1  0
 19 58  1  0
 20 59  1  0
 20 60  1  0
 22 61  1  0
 23 62  1  0
 24 63  1  0
 25 64  1  0
 27 65  1  0
 27 66  1  0
 31 67  1  0
 31 68  1  0
 32 69  1  0
 32 70  1  0
 34 71  1  0
 35 72  1  0
 36 73  1  0
 37 74  1  0
 39 75  1  0
 39 76  1  0
 41 77  1  0
 41 78  1  0
 42 79  1  0
 43 80  1  0
M  END
>  <smiles>  (87) 
NS(=O)(=O)c1ccc(CCN2CCC(c3nc(N4CCc5ccccc5C4)nc(N4CCc5ccccc5C4)n3)C2)cc1

>  <score_type>  (87) 
oracle

>  <origin>  (87) 
autodockgpu

>  <m_score__min__energy>  (87) 
-10.83

>  <m_primary>  (87) 
energy

>  <rmsd>  (87) 
5.46167196033555

>  <m_score__min__rmsd>  (87) 
5.46167196033555

>  <meeko>  (87) 
{"free_energy": -8.93, "intermolecular_energy": -11.32, "internal_energy": -2.53, "cluster_size": 7, "cluster_id": 2, "rank_in_cluster": 7}

>  <energy>  (87) 
-9.74

>  <cluster_rmsd>  (87) 
0.04

>  <cluster>  (87) 
11

$$$$

     RDKit          3D

 80 86  0  0  1  0  0  0  0  0999 V2000
  143.2490   79.3490  222.8030 N   0  0  0  0  0  0  0  0  0  0  0  0
  141.9740   80.5360  222.8030 S   0  0  0  0  0  0  0  0  0  0  0  0
  142.1600   81.3840  224.0430 O   0  0  0  0  0  0  0  0  0  0  0  0
  142.0370   81.3680  221.5570 O   0  0  0  0  0  0  0  0  0  0  0  0
  140.4170   79.7640  222.8720 C   0  0  0  0  0  0  0  0  0  0  0  0
  139.3290   80.5380  223.2160 C   0  0  0  0  0  0  0  0  0  0  0  0
  138.0800   79.9650  223.2830 C   0  0  0  0  0  0  0  0  0  0  0  0
  137.8670   78.6230  223.0160 C   0  0  0  0  0  0  0  0  0  0  0  0
  136.4780   78.1290  223.1210 C   0  0  0  0  0  0  0  0  0  0  0  0
  135.7990   78.1100  221.7570 C   0  0  0  0  0  0  0  0  0  0  0  0
  136.0130   76.8420  221.1660 N   0  0  0  0  0  0  0  0  0  0  0  0
  136.9990   76.7860  220.1430 C   0  0  0  0  0  0  0  0  0  0  0  0
  136.8640   75.3170  219.7230 C   0  0  0  0  0  0  0  0  0  0  0  0
  136.6990   74.6660  221.0970 C   0  0  1  0  0  0  0  0  0  0  0  0
  138.0260   74.1040  221.4660 C   0  0  0  0  0  0  0  0  0  0  0  0
  138.1300   73.0950  222.3560 N   0  0  0  0  0  0  0  0  0  0  0  0
  139.3120   72.5490  222.7290 C   0  0  0  0  0  0  0  0  0  0  0  0
  139.3900   71.4790  223.6700 N   0  0  0  0  0  0  0  0  0  0  0  0
  138.4510   70.3930  223.5430 C   0  0  0  0  0  0  0  0  0  0  0  0
  139.0740   69.0750  223.9270 C   0  0  0  0  0  0  0  0  0  0  0  0
  139.7530   69.1790  225.2380 C   0  0  0  0  0  0  0  0  0  0  0  0
  139.7680   68.1140  226.1130 C   0  0  0  0  0  0  0  0  0  0  0  0
  140.3930   68.1930  227.3370 C   0  0  0  0  0  0  0  0  0  0  0  0
  141.0140   69.3980  227.6610 C   0  0  0  0  0  0  0  0  0  0  0  0
  141.0040   70.4700  226.7920 C   0  0  0  0  0  0  0  0  0  0  0  0
  140.3710   70.3640  225.5740 C   0  0  0  0  0  0  0  0  0  0  0  0
  140.3980   71.5540  224.6850 C   0  0  0  0  0  0  0  0  0  0  0  0
  140.4320   73.0750  222.1550 N   0  0  0  0  0  0  0  0  0  0  0  0
  140.3800   74.0800  221.2640 C   0  0  0  0  0  0  0  0  0  0  0  0
  141.5920   74.5750  220.7100 N   0  0  0  0  0  0  0  0  0  0  0  0
  141.8310   76.0090  220.8460 C   0  0  0  0  0  0  0  0  0  0  0  0
  141.6550   76.5550  219.4220 C   0  0  0  0  0  0  0  0  0  0  0  0
  142.6600   75.8330  218.5910 C   0  0  0  0  0  0  0  0  0  0  0  0
  143.1520   76.5450  217.4940 C   0  0  0  0  0  0  0  0  0  0  0  0
  144.0840   75.9380  216.6840 C   0  0  0  0  0  0  0  0  0  0  0  0
  144.5270   74.6460  216.9500 C   0  0  0  0  0  0  0  0  0  0  0  0
  144.0320   73.9580  218.0370 C   0  0  0  0  0  0  0  0  0  0  0  0
  143.0830   74.5510  218.8760 C   0  0  0  0  0  0  0  0  0  0  0  0
  142.5670   73.7780  220.0460 C   0  0  0  0  0  0  0  0  0  0  0  0
  139.1660   74.5700  220.9430 N   0  0  0  0  0  0  0  0  0  0  0  0
  136.2080   75.7330  222.0350 C   0  0  0  0  0  0  0  0  0  0  0  0
  138.9490   77.8480  222.6730 C   0  0  0  0  0  0  0  0  0  0  0  0
  140.2260   78.4160  222.6000 C   0  0  0  0  0  0  0  0  0  0  0  0
  144.0340   79.7650  222.2200 H   0  0  0  0  0  0  0  0  0  0  0  0
  142.9230   78.5180  222.2350 H   0  0  0  0  0  0  0  0  0  0  0  0
  139.4589   81.6080  223.4357 H   0  0  0  0  0  0  0  0  0  0  0  0
  137.2210   80.5946  223.5581 H   0  0  0  0  0  0  0  0  0  0  0  0
  136.4895   77.1083  223.5310 H   0  0  0  0  0  0  0  0  0  0  0  0
  135.9155   78.8045  223.7824 H   0  0  0  0  0  0  0  0  0  0  0  0
  134.7198   78.2858  221.8773 H   0  0  0  0  0  0  0  0  0  0  0  0
  136.2184   78.8998  221.1164 H   0  0  0  0  0  0  0  0  0  0  0  0
  136.7665   77.4706  219.3140 H   0  0  0  0  0  0  0  0  0  0  0  0
  138.0094   77.0872  220.4565 H   0  0  0  0  0  0  0  0  0  0  0  0
  135.9832   75.1536  219.0847 H   0  0  0  0  0  0  0  0  0  0  0  0
  137.6982   74.9272  219.1212 H   0  0  0  0  0  0  0  0  0  0  0  0
  135.9686   73.8440  221.1256 H   0  0  0  0  0  0  0  0  0  0  0  0
  137.5903   70.5862  224.2001 H   0  0  0  0  0  0  0  0  0  0  0  0
  138.1352   70.3316  222.4911 H   0  0  0  0  0  0  0  0  0  0  0  0
  138.2878   68.3081  223.9875 H   0  0  0  0  0  0  0  0  0  0  0  0
  139.8178   68.8001  223.1646 H   0  0  0  0  0  0  0  0  0  0  0  0
  139.2679   67.1773  225.8259 H   0  0  0  0  0  0  0  0  0  0  0  0
  140.4020   67.3398  228.0312 H   0  0  0  0  0  0  0  0  0  0  0  0
  141.5234   69.4967  228.6309 H   0  0  0  0  0  0  0  0  0  0  0  0
  141.5021   71.4098  227.0727 H   0  0  0  0  0  0  0  0  0  0  0  0
  140.2274   72.4559  225.2911 H   0  0  0  0  0  0  0  0  0  0  0  0
  141.3802   71.5914  224.1912 H   0  0  0  0  0  0  0  0  0  0  0  0
  141.1004   76.4633  221.5314 H   0  0  0  0  0  0  0  0  0  0  0  0
  142.8231   76.2337  221.2645 H   0  0  0  0  0  0  0  0  0  0  0  0
  140.6375   76.3533  219.0561 H   0  0  0  0  0  0  0  0  0  0  0  0
  141.8000   77.6447  219.3822 H   0  0  0  0  0  0  0  0  0  0  0  0
  142.8025   77.5664  217.2830 H   0  0  0  0  0  0  0  0  0  0  0  0
  144.4840   76.4810  215.8150 H   0  0  0  0  0  0  0  0  0  0  0  0
  145.2721   74.1738  216.2929 H   0  0  0  0  0  0  0  0  0  0  0  0
  144.3852   72.9373  218.2457 H   0  0  0  0  0  0  0  0  0  0  0  0
  142.1083   72.8401  219.6997 H   0  0  0  0  0  0  0  0  0  0  0  0
  143.3904   73.5336  220.7332 H   0  0  0  0  0  0  0  0  0  0  0  0
  135.2651   75.4352  222.5170 H   0  0  0  0  0  0  0  0  0  0  0  0
  136.9016   75.9417  222.8629 H   0  0  0  0  0  0  0  0  0  0  0  0
  138.8109   76.7786  222.4553 H   0  0  0  0  0  0  0  0  0  0  0  0
  141.0865   77.7885  222.3245 H   0  0  0  0  0  0  0  0  0  0  0  0
  1  2  1  0
  2  3  2  0
  2  4  2  0
  2  5  1  0
  5  6  2  0
  6  7  1  0
  7  8  2  0
  8  9  1  0
  9 10  1  0
 10 11  1  0
 11 12  1  0
 12 13  1  0
 13 14  1  0
 14 15  1  0
 15 16  2  0
 16 17  1  0
 17 18  1  0
 18 19  1  0
 19 20  1  0
 20 21  1  0
 21 22  2  0
 22 23  1  0
 23 24  2  0
 24 25  1  0
 25 26  2  0
 26 27  1  0
 17 28  2  0
 28 29  1  0
 29 30  1  0
 30 31  1  0
 31 32  1  0
 32 33  1  0
 33 34  2  0
 34 35  1  0
 35 36  2  0
 36 37  1  0
 37 38  2  0
 38 39  1  0
 29 40  2  0
 14 41  1  0
  8 42  1  0
 42 43  2  0
 43  5  1  0
 41 11  1  0
 40 15  1  0
 27 18  1  0
 39 30  1  0
 26 21  1  0
 38 33  1  0
  1 44  1  0
  1 45  1  0
  6 46  1  0
  7 47  1  0
  9 48  1  0
  9 49  1  0
 10 50  1  0
 10 51  1  0
 12 52  1  0
 12 53  1  0
 13 54  1  0
 13 55  1  0
 14 56  1  6
 19 57  1  0
 19 58  1  0
 20 59  1  0
 20 60  1  0
 22 61  1  0
 23 62  1  0
 24 63  1  0
 25 64  1  0
 27 65  1  0
 27 66  1  0
 31 67  1  0
 31 68  1  0
 32 69  1  0
 32 70  1  0
 34 71  1  0
 35 72  1  0
 36 73  1  0
 37 74  1  0
 39 75  1  0
 39 76  1  0
 41 77  1  0
 41 78  1  0
 42 79  1  0
 43 80  1  0
M  END
>  <smiles>  (88) 
NS(=O)(=O)c1ccc(CCN2CCC(c3nc(N4CCc5ccccc5C4)nc(N4CCc5ccccc5C4)n3)C2)cc1

>  <score_type>  (88) 
oracle

>  <origin>  (88) 
autodockgpu

>  <m_score__min__energy>  (88) 
-10.83

>  <m_primary>  (88) 
energy

>  <rmsd>  (88) 
4.5109086520478145

>  <m_score__min__rmsd>  (88) 
4.5109086520478145

>  <meeko>  (88) 
{"free_energy": -10.13, "intermolecular_energy": -12.52, "internal_energy": -2.34, "cluster_size": 7, "cluster_id": 2, "rank_in_cluster": 4}

>  <energy>  (88) 
-9.29

>  <cluster_rmsd>  (88) 
1.04

>  <cluster>  (88) 
11

$$$$

     RDKit          3D

 80 86  0  0  1  0  0  0  0  0999 V2000
  131.9460   71.5060  226.9640 N   0  0  0  0  0  0  0  0  0  0  0  0
  133.6830   71.5590  226.8320 S   0  0  0  0  0  0  0  0  0  0  0  0
  134.0610   73.0030  226.5820 O   0  0  0  0  0  0  0  0  0  0  0  0
  134.3170   71.0380  228.0870 O   0  0  0  0  0  0  0  0  0  0  0  0
  134.2280   70.5890  225.4950 C   0  0  0  0  0  0  0  0  0  0  0  0
  133.4600   69.5030  225.1330 C   0  0  0  0  0  0  0  0  0  0  0  0
  133.8570   68.7100  224.0810 C   0  0  0  0  0  0  0  0  0  0  0  0
  135.0130   68.9620  223.3610 C   0  0  0  0  0  0  0  0  0  0  0  0
  135.3280   68.0360  222.2520 C   0  0  0  0  0  0  0  0  0  0  0  0
  134.6200   68.4560  220.9700 C   0  0  0  0  0  0  0  0  0  0  0  0
  135.4060   69.4410  220.3240 N   0  0  0  0  0  0  0  0  0  0  0  0
  134.9910   70.7880  220.5020 C   0  0  0  0  0  0  0  0  0  0  0  0
  136.0110   71.5010  219.6060 C   0  0  0  0  0  0  0  0  0  0  0  0
  137.2700   70.7060  219.9580 C   0  0  1  0  0  0  0  0  0  0  0  0
  138.0350   71.5270  220.9340 C   0  0  0  0  0  0  0  0  0  0  0  0
  138.5410   70.9780  222.0580 N   0  0  0  0  0  0  0  0  0  0  0  0
  139.2420   71.6790  222.9800 C   0  0  0  0  0  0  0  0  0  0  0  0
  139.7680   71.0680  224.1580 N   0  0  0  0  0  0  0  0  0  0  0  0
  140.7390   71.8030  224.9300 C   0  0  0  0  0  0  0  0  0  0  0  0
  140.5870   71.5400  226.4060 C   0  0  0  0  0  0  0  0  0  0  0  0
  140.5290   70.0860  226.6750 C   0  0  0  0  0  0  0  0  0  0  0  0
  141.0800   69.5570  227.8220 C   0  0  0  0  0  0  0  0  0  0  0  0
  141.0370   68.2080  228.0900 C   0  0  0  0  0  0  0  0  0  0  0  0
  140.4100   67.3900  227.1500 C   0  0  0  0  0  0  0  0  0  0  0  0
  139.8550   67.9100  225.9990 C   0  0  0  0  0  0  0  0  0  0  0  0
  139.9130   69.2640  225.7570 C   0  0  0  0  0  0  0  0  0  0  0  0
  139.2960   69.7590  224.4990 C   0  0  0  0  0  0  0  0  0  0  0  0
  139.4230   73.0060  222.7250 N   0  0  0  0  0  0  0  0  0  0  0  0
  138.9390   73.6000  221.6200 C   0  0  0  0  0  0  0  0  0  0  0  0
  139.1690   74.9890  221.4260 N   0  0  0  0  0  0  0  0  0  0  0  0
  140.3620   75.3500  220.6640 C   0  0  0  0  0  0  0  0  0  0  0  0
  141.3090   75.9480  221.7130 C   0  0  0  0  0  0  0  0  0  0  0  0
  140.5740   77.1040  222.3020 C   0  0  0  0  0  0  0  0  0  0  0  0
  141.3750   78.1540  222.7560 C   0  0  0  0  0  0  0  0  0  0  0  0
  140.7610   79.2540  223.3100 C   0  0  0  0  0  0  0  0  0  0  0  0
  139.3750   79.3180  223.4170 C   0  0  0  0  0  0  0  0  0  0  0  0
  138.6000   78.2730  222.9640 C   0  0  0  0  0  0  0  0  0  0  0  0
  139.1980   77.1430  222.3970 C   0  0  0  0  0  0  0  0  0  0  0  0
  138.3280   76.0280  221.9160 C   0  0  0  0  0  0  0  0  0  0  0  0
  138.2520   72.8340  220.7490 N   0  0  0  0  0  0  0  0  0  0  0  0
  136.8160   69.3800  220.5010 C   0  0  0  0  0  0  0  0  0  0  0  0
  135.7800   70.0430  223.7190 C   0  0  0  0  0  0  0  0  0  0  0  0
  135.3900   70.8600  224.7870 C   0  0  0  0  0  0  0  0  0  0  0  0
  131.6160   70.8520  226.1930 H   0  0  0  0  0  0  0  0  0  0  0  0
  131.5670   72.4510  226.6760 H   0  0  0  0  0  0  0  0  0  0  0  0
  132.5352   69.2717  225.6819 H   0  0  0  0  0  0  0  0  0  0  0  0
  133.2351   67.8465  223.8023 H   0  0  0  0  0  0  0  0  0  0  0  0
  136.4144   68.0379  222.0798 H   0  0  0  0  0  0  0  0  0  0  0  0
  134.9826   67.0289  222.5285 H   0  0  0  0  0  0  0  0  0  0  0  0
  134.5009   67.5845  220.3094 H   0  0  0  0  0  0  0  0  0  0  0  0
  133.6252   68.8624  221.2049 H   0  0  0  0  0  0  0  0  0  0  0  0
  133.9599   70.9470  220.1535 H   0  0  0  0  0  0  0  0  0  0  0  0
  134.9708   71.1326  221.5464 H   0  0  0  0  0  0  0  0  0  0  0  0
  135.7540   71.4089  218.5404 H   0  0  0  0  0  0  0  0  0  0  0  0
  136.0882   72.5870  219.7629 H   0  0  0  0  0  0  0  0  0  0  0  0
  137.9321   70.5006  219.1040 H   0  0  0  0  0  0  0  0  0  0  0  0
  141.7486   71.5002  224.6154 H   0  0  0  0  0  0  0  0  0  0  0  0
  140.5783   72.8767  224.7531 H   0  0  0  0  0  0  0  0  0  0  0  0
  141.4461   71.9720  226.9401 H   0  0  0  0  0  0  0  0  0  0  0  0
  139.6506   72.0014  226.7529 H   0  0  0  0  0  0  0  0  0  0  0  0
  141.5670   70.2308  228.5423 H   0  0  0  0  0  0  0  0  0  0  0  0
  141.4787   67.7919  229.0075 H   0  0  0  0  0  0  0  0  0  0  0  0
  140.3569   66.3062  227.3305 H   0  0  0  0  0  0  0  0  0  0  0  0
  139.3659   67.2425  225.2743 H   0  0  0  0  0  0  0  0  0  0  0  0
  139.5459   69.0658  223.6823 H   0  0  0  0  0  0  0  0  0  0  0  0
  138.2077   69.8146  224.6489 H   0  0  0  0  0  0  0  0  0  0  0  0
  140.8097   74.4613  220.1951 H   0  0  0  0  0  0  0  0  0  0  0  0
  140.1436   76.0502  219.8442 H   0  0  0  0  0  0  0  0  0  0  0  0
  141.5411   75.2043  222.4895 H   0  0  0  0  0  0  0  0  0  0  0  0
  142.2665   76.2574  221.2685 H   0  0  0  0  0  0  0  0  0  0  0  0
  142.4707   78.1030  222.6728 H   0  0  0  0  0  0  0  0  0  0  0  0
  141.3732   80.0928  223.6726 H   0  0  0  0  0  0  0  0  0  0  0  0
  138.8982   80.2031  223.8634 H   0  0  0  0  0  0  0  0  0  0  0  0
  137.5046   78.3277  223.0487 H   0  0  0  0  0  0  0  0  0  0  0  0
  137.7138   75.6498  222.7465 H   0  0  0  0  0  0  0  0  0  0  0  0
  137.6591   76.3841  221.1186 H   0  0  0  0  0  0  0  0  0  0  0  0
  137.2524   68.5466  219.9310 H   0  0  0  0  0  0  0  0  0  0  0  0
  137.1198   69.2061  221.5438 H   0  0  0  0  0  0  0  0  0  0  0  0
  136.7035   70.2678  223.1652 H   0  0  0  0  0  0  0  0  0  0  0  0
  136.0102   71.7242  225.0672 H   0  0  0  0  0  0  0  0  0  0  0  0
  1  2  1  0
  2  3  2  0
  2  4  2  0
  2  5  1  0
  5  6  2  0
  6  7  1  0
  7  8  2  0
  8  9  1  0
  9 10  1  0
 10 11  1  0
 11 12  1  0
 12 13  1  0
 13 14  1  0
 14 15  1  0
 15 16  2  0
 16 17  1  0
 17 18  1  0
 18 19  1  0
 19 20  1  0
 20 21  1  0
 21 22  2  0
 22 23  1  0
 23 24  2  0
 24 25  1  0
 25 26  2  0
 26 27  1  0
 17 28  2  0
 28 29  1  0
 29 30  1  0
 30 31  1  0
 31 32  1  0
 32 33  1  0
 33 34  2  0
 34 35  1  0
 35 36  2  0
 36 37  1  0
 37 38  2  0
 38 39  1  0
 29 40  2  0
 14 41  1  0
  8 42  1  0
 42 43  2  0
 43  5  1  0
 41 11  1  0
 40 15  1  0
 27 18  1  0
 39 30  1  0
 26 21  1  0
 38 33  1  0
  1 44  1  0
  1 45  1  0
  6 46  1  0
  7 47  1  0
  9 48  1  0
  9 49  1  0
 10 50  1  0
 10 51  1  0
 12 52  1  0
 12 53  1  0
 13 54  1  0
 13 55  1  0
 14 56  1  6
 19 57  1  0
 19 58  1  0
 20 59  1  0
 20 60  1  0
 22 61  1  0
 23 62  1  0
 24 63  1  0
 25 64  1  0
 27 65  1  0
 27 66  1  0
 31 67  1  0
 31 68  1  0
 32 69  1  0
 32 70  1  0
 34 71  1  0
 35 72  1  0
 36 73  1  0
 37 74  1  0
 39 75  1  0
 39 76  1  0
 41 77  1  0
 41 78  1  0
 42 79  1  0
 43 80  1  0
M  END
>  <smiles>  (89) 
NS(=O)(=O)c1ccc(CCN2CCC(c3nc(N4CCc5ccccc5C4)nc(N4CCc5ccccc5C4)n3)C2)cc1

>  <score_type>  (89) 
oracle

>  <origin>  (89) 
autodockgpu

>  <m_score__min__energy>  (89) 
-10.83

>  <m_primary>  (89) 
energy

>  <rmsd>  (89) 
11.400244377356483

>  <m_score__min__rmsd>  (89) 
11.400244377356483

>  <meeko>  (89) 
{"free_energy": -9.1, "intermolecular_energy": -11.48, "internal_energy": -2.52, "cluster_size": 4, "cluster_id": 12, "rank_in_cluster": 4}

>  <energy>  (89) 
-9.21

>  <cluster_rmsd>  (89) 
1.12

>  <cluster>  (89) 
11

$$$$

     RDKit          3D

 80 86  0  0  1  0  0  0  0  0999 V2000
  143.1420   79.3900  222.7780 N   0  0  0  0  0  0  0  0  0  0  0  0
  141.8170   80.5190  222.8690 S   0  0  0  0  0  0  0  0  0  0  0  0
  141.9120   81.2000  224.2170 O   0  0  0  0  0  0  0  0  0  0  0  0
  141.9010   81.5110  221.7480 O   0  0  0  0  0  0  0  0  0  0  0  0
  140.2930   79.6880  222.7580 C   0  0  0  0  0  0  0  0  0  0  0  0
  139.1460   80.4120  223.0010 C   0  0  0  0  0  0  0  0  0  0  0  0
  137.9210   79.7920  222.9240 C   0  0  0  0  0  0  0  0  0  0  0  0
  137.7900   78.4490  222.6100 C   0  0  0  0  0  0  0  0  0  0  0  0
  136.4180   77.9010  222.5580 C   0  0  0  0  0  0  0  0  0  0  0  0
  135.9930   77.6260  221.1210 C   0  0  0  0  0  0  0  0  0  0  0  0
  136.1610   76.2450  220.8590 N   0  0  0  0  0  0  0  0  0  0  0  0
  137.0850   75.9110  219.8320 C   0  0  0  0  0  0  0  0  0  0  0  0
  136.9130   74.3870  219.8060 C   0  0  0  0  0  0  0  0  0  0  0  0
  136.8220   74.1070  221.3070 C   0  0  1  0  0  0  0  0  0  0  0  0
  138.1640   73.6250  221.7340 C   0  0  0  0  0  0  0  0  0  0  0  0
  138.2910   72.6840  222.6910 N   0  0  0  0  0  0  0  0  0  0  0  0
  139.4870   72.2130  223.1180 C   0  0  0  0  0  0  0  0  0  0  0  0
  139.5890   71.2120  224.1310 N   0  0  0  0  0  0  0  0  0  0  0  0
  138.7500   70.0450  224.0210 C   0  0  0  0  0  0  0  0  0  0  0  0
  139.4510   68.8100  224.5270 C   0  0  0  0  0  0  0  0  0  0  0  0
  140.0340   69.0500  225.8660 C   0  0  0  0  0  0  0  0  0  0  0  0
  140.0780   68.0460  226.8080 C   0  0  0  0  0  0  0  0  0  0  0  0
  140.6150   68.2500  228.0590 C   0  0  0  0  0  0  0  0  0  0  0  0
  141.1160   69.5210  228.3390 C   0  0  0  0  0  0  0  0  0  0  0  0
  141.0760   70.5330  227.4020 C   0  0  0  0  0  0  0  0  0  0  0  0
  140.5340   70.3000  226.1590 C   0  0  0  0  0  0  0  0  0  0  0  0
  140.5220   71.4330  225.1970 C   0  0  0  0  0  0  0  0  0  0  0  0
  140.5960   72.7440  222.5280 N   0  0  0  0  0  0  0  0  0  0  0  0
  140.5200   73.6840  221.5700 C   0  0  0  0  0  0  0  0  0  0  0  0
  141.7220   74.1900  221.0030 N   0  0  0  0  0  0  0  0  0  0  0  0
  141.7880   75.6350  220.8040 C   0  0  0  0  0  0  0  0  0  0  0  0
  141.7010   75.8080  219.2820 C   0  0  0  0  0  0  0  0  0  0  0  0
  142.8580   75.0490  218.7260 C   0  0  0  0  0  0  0  0  0  0  0  0
  143.3800   75.5440  217.5290 C   0  0  0  0  0  0  0  0  0  0  0  0
  144.4500   74.8920  216.9610 C   0  0  0  0  0  0  0  0  0  0  0  0
  145.0010   73.7660  217.5650 C   0  0  0  0  0  0  0  0  0  0  0  0
  144.4740   73.2910  218.7470 C   0  0  0  0  0  0  0  0  0  0  0  0
  143.3860   73.9340  219.3450 C   0  0  0  0  0  0  0  0  0  0  0  0
  142.8400   73.3930  220.6260 C   0  0  0  0  0  0  0  0  0  0  0  0
  139.2930   74.1010  221.1980 N   0  0  0  0  0  0  0  0  0  0  0  0
  136.3960   75.3870  221.9690 C   0  0  0  0  0  0  0  0  0  0  0  0
  138.9320   77.7240  222.3680 C   0  0  0  0  0  0  0  0  0  0  0  0
  140.1860   78.3400  222.4420 C   0  0  0  0  0  0  0  0  0  0  0  0
  143.3480   79.2660  221.7430 H   0  0  0  0  0  0  0  0  0  0  0  0
  142.7840   78.4410  223.0830 H   0  0  0  0  0  0  0  0  0  0  0  0
  139.2100   81.4803  223.2553 H   0  0  0  0  0  0  0  0  0  0  0  0
  137.0137   80.3828  223.1184 H   0  0  0  0  0  0  0  0  0  0  0  0
  136.3842   76.9614  223.1290 H   0  0  0  0  0  0  0  0  0  0  0  0
  135.7289   78.6408  222.9914 H   0  0  0  0  0  0  0  0  0  0  0  0
  134.9370   77.9033  220.9869 H   0  0  0  0  0  0  0  0  0  0  0  0
  136.6068   78.2186  220.4266 H   0  0  0  0  0  0  0  0  0  0  0  0
  136.8104   76.3695  218.8706 H   0  0  0  0  0  0  0  0  0  0  0  0
  138.1145   76.2587  220.0033 H   0  0  0  0  0  0  0  0  0  0  0  0
  135.9953   74.0883  219.2782 H   0  0  0  0  0  0  0  0  0  0  0  0
  137.7078   73.8390  219.2788 H   0  0  0  0  0  0  0  0  0  0  0  0
  136.0873   73.3360  221.5823 H   0  0  0  0  0  0  0  0  0  0  0  0
  137.8363   70.2048  224.6123 H   0  0  0  0  0  0  0  0  0  0  0  0
  138.5079   69.8933  222.9588 H   0  0  0  0  0  0  0  0  0  0  0  0
  138.7267   67.9846  224.5913 H   0  0  0  0  0  0  0  0  0  0  0  0
  140.2619   68.5532  223.8295 H   0  0  0  0  0  0  0  0  0  0  0  0
  139.6734   67.0552  226.5539 H   0  0  0  0  0  0  0  0  0  0  0  0
  140.6476   67.4439  228.8068 H   0  0  0  0  0  0  0  0  0  0  0  0
  141.5526   69.7211  229.3286 H   0  0  0  0  0  0  0  0  0  0  0  0
  141.4777   71.5268  227.6489 H   0  0  0  0  0  0  0  0  0  0  0  0
  140.2412   72.3522  225.7320 H   0  0  0  0  0  0  0  0  0  0  0  0
  141.5275   71.5234  224.7602 H   0  0  0  0  0  0  0  0  0  0  0  0
  140.9456   76.1367  221.3027 H   0  0  0  0  0  0  0  0  0  0  0  0
  142.7014   76.0780  221.2275 H   0  0  0  0  0  0  0  0  0  0  0  0
  140.7539   75.3971  218.9022 H   0  0  0  0  0  0  0  0  0  0  0  0
  141.7313   76.8682  218.9902 H   0  0  0  0  0  0  0  0  0  0  0  0
  142.9457   76.4346  217.0514 H   0  0  0  0  0  0  0  0  0  0  0  0
  144.8752   75.2654  216.0177 H   0  0  0  0  0  0  0  0  0  0  0  0
  145.8568   73.2551  217.0995 H   0  0  0  0  0  0  0  0  0  0  0  0
  144.9120   72.4010  219.2224 H   0  0  0  0  0  0  0  0  0  0  0  0
  142.5229   72.3492  220.4846 H   0  0  0  0  0  0  0  0  0  0  0  0
  143.6103   73.4223  221.4107 H   0  0  0  0  0  0  0  0  0  0  0  0
  135.4800   75.2427  222.5607 H   0  0  0  0  0  0  0  0  0  0  0  0
  137.1382   75.7816  222.6785 H   0  0  0  0  0  0  0  0  0  0  0  0
  138.8600   76.6559  222.1153 H   0  0  0  0  0  0  0  0  0  0  0  0
  141.0949   77.7515  222.2482 H   0  0  0  0  0  0  0  0  0  0  0  0
  1  2  1  0
  2  3  2  0
  2  4  2  0
  2  5  1  0
  5  6  2  0
  6  7  1  0
  7  8  2  0
  8  9  1  0
  9 10  1  0
 10 11  1  0
 11 12  1  0
 12 13  1  0
 13 14  1  0
 14 15  1  0
 15 16  2  0
 16 17  1  0
 17 18  1  0
 18 19  1  0
 19 20  1  0
 20 21  1  0
 21 22  2  0
 22 23  1  0
 23 24  2  0
 24 25  1  0
 25 26  2  0
 26 27  1  0
 17 28  2  0
 28 29  1  0
 29 30  1  0
 30 31  1  0
 31 32  1  0
 32 33  1  0
 33 34  2  0
 34 35  1  0
 35 36  2  0
 36 37  1  0
 37 38  2  0
 38 39  1  0
 29 40  2  0
 14 41  1  0
  8 42  1  0
 42 43  2  0
 43  5  1  0
 41 11  1  0
 40 15  1  0
 27 18  1  0
 39 30  1  0
 26 21  1  0
 38 33  1  0
  1 44  1  0
  1 45  1  0
  6 46  1  0
  7 47  1  0
  9 48  1  0
  9 49  1  0
 10 50  1  0
 10 51  1  0
 12 52  1  0
 12 53  1  0
 13 54  1  0
 13 55  1  0
 14 56  1  6
 19 57  1  0
 19 58  1  0
 20 59  1  0
 20 60  1  0
 22 61  1  0
 23 62  1  0
 24 63  1  0
 25 64  1  0
 27 65  1  0
 27 66  1  0
 31 67  1  0
 31 68  1  0
 32 69  1  0
 32 70  1  0
 34 71  1  0
 35 72  1  0
 36 73  1  0
 37 74  1  0
 39 75  1  0
 39 76  1  0
 41 77  1  0
 41 78  1  0
 42 79  1  0
 43 80  1  0
M  END
>  <smiles>  (90) 
NS(=O)(=O)c1ccc(CCN2CCC(c3nc(N4CCc5ccccc5C4)nc(N4CCc5ccccc5C4)n3)C2)cc1

>  <score_type>  (90) 
oracle

>  <origin>  (90) 
autodockgpu

>  <m_score__min__energy>  (90) 
-10.83

>  <m_primary>  (90) 
energy

>  <rmsd>  (90) 
4.613005562010359

>  <m_score__min__rmsd>  (90) 
4.613005562010359

>  <meeko>  (90) 
{"free_energy": -10.18, "intermolecular_energy": -12.57, "internal_energy": -2.18, "cluster_size": 7, "cluster_id": 2, "rank_in_cluster": 3}

>  <energy>  (90) 
-9.64

>  <cluster_rmsd>  (90) 
0.0

>  <cluster>  (90) 
12

$$$$

     RDKit          3D

 80 86  0  0  1  0  0  0  0  0999 V2000
  131.7600   71.8070  227.3110 N   0  0  0  0  0  0  0  0  0  0  0  0
  133.4320   72.1920  227.0080 S   0  0  0  0  0  0  0  0  0  0  0  0
  133.5410   73.7010  226.9920 O   0  0  0  0  0  0  0  0  0  0  0  0
  134.3050   71.5920  228.0700 O   0  0  0  0  0  0  0  0  0  0  0  0
  133.9360   71.5700  225.4630 C   0  0  0  0  0  0  0  0  0  0  0  0
  133.2090   71.9400  224.3520 C   0  0  0  0  0  0  0  0  0  0  0  0
  133.5740   71.4700  223.1120 C   0  0  0  0  0  0  0  0  0  0  0  0
  134.6570   70.6260  222.9310 C   0  0  0  0  0  0  0  0  0  0  0  0
  134.9470   70.1910  221.5490 C   0  0  0  0  0  0  0  0  0  0  0  0
  134.1550   71.0130  220.5390 C   0  0  0  0  0  0  0  0  0  0  0  0
  134.9360   72.1310  220.1580 N   0  0  0  0  0  0  0  0  0  0  0  0
  134.8900   73.2530  221.0290 C   0  0  0  0  0  0  0  0  0  0  0  0
  135.7650   74.2360  220.2420 C   0  0  0  0  0  0  0  0  0  0  0  0
  136.8650   73.2860  219.7660 C   0  0  1  0  0  0  0  0  0  0  0  0
  138.0250   73.4830  220.6770 C   0  0  0  0  0  0  0  0  0  0  0  0
  138.7000   74.6500  220.6990 N   0  0  0  0  0  0  0  0  0  0  0  0
  139.7630   74.8810  221.5060 C   0  0  0  0  0  0  0  0  0  0  0  0
  140.4540   76.1300  221.5100 N   0  0  0  0  0  0  0  0  0  0  0  0
  141.1710   76.5130  220.3190 C   0  0  0  0  0  0  0  0  0  0  0  0
  141.1140   78.0030  220.0940 C   0  0  0  0  0  0  0  0  0  0  0  0
  141.4900   78.7330  221.3260 C   0  0  0  0  0  0  0  0  0  0  0  0
  142.1820   79.9230  221.2590 C   0  0  0  0  0  0  0  0  0  0  0  0
  142.5410   80.6150  222.3930 C   0  0  0  0  0  0  0  0  0  0  0  0
  142.1770   80.0630  223.6200 C   0  0  0  0  0  0  0  0  0  0  0  0
  141.4850   78.8720  223.6970 C   0  0  0  0  0  0  0  0  0  0  0  0
  141.1380   78.2010  222.5470 C   0  0  0  0  0  0  0  0  0  0  0  0
  140.3930   76.9250  222.7000 C   0  0  0  0  0  0  0  0  0  0  0  0
  140.1410   73.8560  222.3220 N   0  0  0  0  0  0  0  0  0  0  0  0
  139.5000   72.6740  222.3360 C   0  0  0  0  0  0  0  0  0  0  0  0
  139.9550   71.6530  223.2140 N   0  0  0  0  0  0  0  0  0  0  0  0
  139.6220   70.2800  222.8420 C   0  0  0  0  0  0  0  0  0  0  0  0
  138.5600   69.8620  223.8680 C   0  0  0  0  0  0  0  0  0  0  0  0
  139.2140   70.0040  225.2010 C   0  0  0  0  0  0  0  0  0  0  0  0
  138.7590   69.1280  226.1880 C   0  0  0  0  0  0  0  0  0  0  0  0
  139.3200   69.2040  227.4410 C   0  0  0  0  0  0  0  0  0  0  0  0
  140.3170   70.1330  227.7200 C   0  0  0  0  0  0  0  0  0  0  0  0
  140.7550   70.9910  226.7350 C   0  0  0  0  0  0  0  0  0  0  0  0
  140.2010   70.9350  225.4520 C   0  0  0  0  0  0  0  0  0  0  0  0
  140.6990   71.8790  224.4070 C   0  0  0  0  0  0  0  0  0  0  0  0
  138.4510   72.5210  221.5030 N   0  0  0  0  0  0  0  0  0  0  0  0
  136.2920   71.8970  219.8010 C   0  0  0  0  0  0  0  0  0  0  0  0
  135.3840   70.2550  224.0370 C   0  0  0  0  0  0  0  0  0  0  0  0
  135.0260   70.7250  225.3060 C   0  0  0  0  0  0  0  0  0  0  0  0
  131.5910   72.0310  228.3360 H   0  0  0  0  0  0  0  0  0  0  0  0
  131.6520   70.7550  227.2590 H   0  0  0  0  0  0  0  0  0  0  0  0
  132.3412   72.6078  224.4565 H   0  0  0  0  0  0  0  0  0  0  0  0
  132.9856   71.7749  222.2340 H   0  0  0  0  0  0  0  0  0  0  0  0
  136.0217   70.3162  221.3507 H   0  0  0  0  0  0  0  0  0  0  0  0
  134.6561   69.1352  221.4460 H   0  0  0  0  0  0  0  0  0  0  0  0
  133.9308   70.3984  219.6547 H   0  0  0  0  0  0  0  0  0  0  0  0
  133.2084   71.3497  220.9868 H   0  0  0  0  0  0  0  0  0  0  0  0
  133.8644   73.6301  221.1554 H   0  0  0  0  0  0  0  0  0  0  0  0
  135.2251   73.0552  222.0579 H   0  0  0  0  0  0  0  0  0  0  0  0
  135.2191   74.6843  219.3988 H   0  0  0  0  0  0  0  0  0  0  0  0
  136.1185   75.1051  220.8161 H   0  0  0  0  0  0  0  0  0  0  0  0
  137.2131   73.4711  218.7391 H   0  0  0  0  0  0  0  0  0  0  0  0
  142.2226   76.2070  220.4211 H   0  0  0  0  0  0  0  0  0  0  0  0
  140.7000   76.0160  219.4581 H   0  0  0  0  0  0  0  0  0  0  0  0
  141.8111   78.2733  219.2871 H   0  0  0  0  0  0  0  0  0  0  0  0
  140.0857   78.2800  219.8186 H   0  0  0  0  0  0  0  0  0  0  0  0
  142.4543   80.3300  220.2740 H   0  0  0  0  0  0  0  0  0  0  0  0
  143.0926   81.5648  222.3336 H   0  0  0  0  0  0  0  0  0  0  0  0
  142.4475   80.5887  224.5476 H   0  0  0  0  0  0  0  0  0  0  0  0
  141.2104   78.4585  224.6786 H   0  0  0  0  0  0  0  0  0  0  0  0
  140.8303   76.3545  223.5327 H   0  0  0  0  0  0  0  0  0  0  0  0
  139.3380   77.1655  222.8981 H   0  0  0  0  0  0  0  0  0  0  0  0
  139.2156   70.2397  221.8206 H   0  0  0  0  0  0  0  0  0  0  0  0
  140.4991   69.6162  222.8476 H   0  0  0  0  0  0  0  0  0  0  0  0
  137.6803   70.5189  223.7997 H   0  0  0  0  0  0  0  0  0  0  0  0
  138.2077   68.8345  223.6943 H   0  0  0  0  0  0  0  0  0  0  0  0
  137.9698   68.3938  225.9684 H   0  0  0  0  0  0  0  0  0  0  0  0
  138.9762   68.5218  228.2325 H   0  0  0  0  0  0  0  0  0  0  0  0
  140.7559   70.1827  228.7274 H   0  0  0  0  0  0  0  0  0  0  0  0
  141.5444   71.7237  226.9588 H   0  0  0  0  0  0  0  0  0  0  0  0
  140.5569   72.9165  224.7439 H   0  0  0  0  0  0  0  0  0  0  0  0
  141.7709   71.7131  224.2241 H   0  0  0  0  0  0  0  0  0  0  0  0
  136.3656   71.4120  218.8164 H   0  0  0  0  0  0  0  0  0  0  0  0
  136.8175   71.2238  220.4943 H   0  0  0  0  0  0  0  0  0  0  0  0
  136.2502   69.5864  223.9245 H   0  0  0  0  0  0  0  0  0  0  0  0
  135.6130   70.4223  226.1857 H   0  0  0  0  0  0  0  0  0  0  0  0
  1  2  1  0
  2  3  2  0
  2  4  2  0
  2  5  1  0
  5  6  2  0
  6  7  1  0
  7  8  2  0
  8  9  1  0
  9 10  1  0
 10 11  1  0
 11 12  1  0
 12 13  1  0
 13 14  1  0
 14 15  1  0
 15 16  2  0
 16 17  1  0
 17 18  1  0
 18 19  1  0
 19 20  1  0
 20 21  1  0
 21 22  2  0
 22 23  1  0
 23 24  2  0
 24 25  1  0
 25 26  2  0
 26 27  1  0
 17 28  2  0
 28 29  1  0
 29 30  1  0
 30 31  1  0
 31 32  1  0
 32 33  1  0
 33 34  2  0
 34 35  1  0
 35 36  2  0
 36 37  1  0
 37 38  2  0
 38 39  1  0
 29 40  2  0
 14 41  1  0
  8 42  1  0
 42 43  2  0
 43  5  1  0
 41 11  1  0
 40 15  1  0
 27 18  1  0
 39 30  1  0
 26 21  1  0
 38 33  1  0
  1 44  1  0
  1 45  1  0
  6 46  1  0
  7 47  1  0
  9 48  1  0
  9 49  1  0
 10 50  1  0
 10 51  1  0
 12 52  1  0
 12 53  1  0
 13 54  1  0
 13 55  1  0
 14 56  1  6
 19 57  1  0
 19 58  1  0
 20 59  1  0
 20 60  1  0
 22 61  1  0
 23 62  1  0
 24 63  1  0
 25 64  1  0
 27 65  1  0
 27 66  1  0
 31 67  1  0
 31 68  1  0
 32 69  1  0
 32 70  1  0
 34 71  1  0
 35 72  1  0
 36 73  1  0
 37 74  1  0
 39 75  1  0
 39 76  1  0
 41 77  1  0
 41 78  1  0
 42 79  1  0
 43 80  1  0
M  END
>  <smiles>  (91) 
NS(=O)(=O)c1ccc(CCN2CCC(c3nc(N4CCc5ccccc5C4)nc(N4CCc5ccccc5C4)n3)C2)cc1

>  <score_type>  (91) 
oracle

>  <origin>  (91) 
autodockgpu

>  <m_score__min__energy>  (91) 
-10.83

>  <m_primary>  (91) 
energy

>  <rmsd>  (91) 
10.047386678384278

>  <m_score__min__rmsd>  (91) 
10.047386678384278

>  <meeko>  (91) 
{"free_energy": -9.64, "intermolecular_energy": -12.02, "internal_energy": -2.34, "cluster_size": 4, "cluster_id": 12, "rank_in_cluster": 1}

>  <energy>  (91) 
-9.6

>  <cluster_rmsd>  (91) 
0.37

>  <cluster>  (91) 
12

$$$$

     RDKit          3D

 80 86  0  0  1  0  0  0  0  0999 V2000
  143.2700   80.3770  217.8480 N   0  0  0  0  0  0  0  0  0  0  0  0
  142.0690   79.4730  218.7280 S   0  0  0  0  0  0  0  0  0  0  0  0
  142.1240   79.9500  220.1630 O   0  0  0  0  0  0  0  0  0  0  0  0
  140.7110   79.6910  218.1310 O   0  0  0  0  0  0  0  0  0  0  0  0
  142.4250   77.7710  218.6810 C   0  0  0  0  0  0  0  0  0  0  0  0
  142.7200   77.1420  219.8720 C   0  0  0  0  0  0  0  0  0  0  0  0
  143.0080   75.7970  219.8780 C   0  0  0  0  0  0  0  0  0  0  0  0
  143.0150   75.0370  218.7200 C   0  0  0  0  0  0  0  0  0  0  0  0
  143.3390   73.6020  218.8600 C   0  0  0  0  0  0  0  0  0  0  0  0
  143.1630   73.1390  220.3010 C   0  0  0  0  0  0  0  0  0  0  0  0
  141.8050   72.7890  220.4980 N   0  0  0  0  0  0  0  0  0  0  0  0
  141.4370   72.4290  221.8230 C   0  0  0  0  0  0  0  0  0  0  0  0
  139.9680   72.0520  221.5980 C   0  0  0  0  0  0  0  0  0  0  0  0
  139.5570   73.1630  220.6300 C   0  0  1  0  0  0  0  0  0  0  0  0
  138.8370   74.1860  221.4350 C   0  0  0  0  0  0  0  0  0  0  0  0
  139.3970   75.3840  221.6970 N   0  0  0  0  0  0  0  0  0  0  0  0
  138.7870   76.3490  222.4260 C   0  0  0  0  0  0  0  0  0  0  0  0
  139.4050   77.6100  222.6830 N   0  0  0  0  0  0  0  0  0  0  0  0
  138.5620   78.7770  222.7630 C   0  0  0  0  0  0  0  0  0  0  0  0
  139.0740   79.7610  223.7830 C   0  0  0  0  0  0  0  0  0  0  0  0
  140.5150   80.0300  223.5750 C   0  0  0  0  0  0  0  0  0  0  0  0
  141.0440   81.2790  223.8180 C   0  0  0  0  0  0  0  0  0  0  0  0
  142.3800   81.5480  223.6290 C   0  0  0  0  0  0  0  0  0  0  0  0
  143.1850   80.5020  223.1780 C   0  0  0  0  0  0  0  0  0  0  0  0
  142.6650   79.2480  222.9320 C   0  0  0  0  0  0  0  0  0  0  0  0
  141.3250   79.0070  223.1300 C   0  0  0  0  0  0  0  0  0  0  0  0
  140.8290   77.6350  222.8460 C   0  0  0  0  0  0  0  0  0  0  0  0
  137.5440   76.0550  222.9030 N   0  0  0  0  0  0  0  0  0  0  0  0
  136.9430   74.8760  222.6690 C   0  0  0  0  0  0  0  0  0  0  0  0
  135.6460   74.6440  223.2020 N   0  0  0  0  0  0  0  0  0  0  0  0
  134.7110   75.7640  223.1450 C   0  0  0  0  0  0  0  0  0  0  0  0
  134.5780   76.2160  224.6050 C   0  0  0  0  0  0  0  0  0  0  0  0
  134.0770   75.0250  225.3490 C   0  0  0  0  0  0  0  0  0  0  0  0
  133.2870   75.3040  226.4660 C   0  0  0  0  0  0  0  0  0  0  0  0
  132.7910   74.2510  227.1980 C   0  0  0  0  0  0  0  0  0  0  0  0
  133.0690   72.9370  226.8350 C   0  0  0  0  0  0  0  0  0  0  0  0
  133.8500   72.6780  225.7290 C   0  0  0  0  0  0  0  0  0  0  0  0
  134.3680   73.7310  224.9670 C   0  0  0  0  0  0  0  0  0  0  0  0
  135.2110   73.4150  223.7750 C   0  0  0  0  0  0  0  0  0  0  0  0
  137.6150   73.9670  221.9340 N   0  0  0  0  0  0  0  0  0  0  0  0
  140.8150   73.6720  219.9840 C   0  0  0  0  0  0  0  0  0  0  0  0
  142.7220   75.6610  217.5320 C   0  0  0  0  0  0  0  0  0  0  0  0
  142.4260   77.0290  217.5080 C   0  0  0  0  0  0  0  0  0  0  0  0
  142.9870   80.3190  216.8250 H   0  0  0  0  0  0  0  0  0  0  0  0
  144.1810   79.8390  217.8900 H   0  0  0  0  0  0  0  0  0  0  0  0
  142.7250   77.7127  220.8123 H   0  0  0  0  0  0  0  0  0  0  0  0
  143.2408   75.3081  220.8355 H   0  0  0  0  0  0  0  0  0  0  0  0
  142.6707   73.0176  218.2105 H   0  0  0  0  0  0  0  0  0  0  0  0
  144.3891   73.4505  218.5697 H   0  0  0  0  0  0  0  0  0  0  0  0
  143.8028   72.2645  220.4905 H   0  0  0  0  0  0  0  0  0  0  0  0
  143.4487   73.9447  220.9932 H   0  0  0  0  0  0  0  0  0  0  0  0
  142.0253   71.5762  222.1927 H   0  0  0  0  0  0  0  0  0  0  0  0
  141.6043   73.2104  222.5789 H   0  0  0  0  0  0  0  0  0  0  0  0
  139.8668   71.0555  221.1432 H   0  0  0  0  0  0  0  0  0  0  0  0
  139.3605   71.9846  222.5126 H   0  0  0  0  0  0  0  0  0  0  0  0
  138.8833   72.8378  219.8236 H   0  0  0  0  0  0  0  0  0  0  0  0
  138.5341   79.2657  221.7779 H   0  0  0  0  0  0  0  0  0  0  0  0
  137.5559   78.4549  223.0698 H   0  0  0  0  0  0  0  0  0  0  0  0
  138.5138   80.7029  223.6887 H   0  0  0  0  0  0  0  0  0  0  0  0
  138.9360   79.3330  224.7869 H   0  0  0  0  0  0  0  0  0  0  0  0
  140.3808   82.0819  224.1723 H   0  0  0  0  0  0  0  0  0  0  0  0
  142.7963   82.5471  223.8255 H   0  0  0  0  0  0  0  0  0  0  0  0
  144.2580   80.6808  223.0149 H   0  0  0  0  0  0  0  0  0  0  0  0
  143.3222   78.4403  222.5773 H   0  0  0  0  0  0  0  0  0  0  0  0
  141.3002   77.2697  221.9216 H   0  0  0  0  0  0  0  0  0  0  0  0
  141.0880   76.9926  223.7005 H   0  0  0  0  0  0  0  0  0  0  0  0
  135.1118   76.5757  222.5200 H   0  0  0  0  0  0  0  0  0  0  0  0
  133.7445   75.4846  222.7002 H   0  0  0  0  0  0  0  0  0  0  0  0
  135.5548   76.5323  224.9996 H   0  0  0  0  0  0  0  0  0  0  0  0
  133.8976   77.0745  224.7051 H   0  0  0  0  0  0  0  0  0  0  0  0
  133.0665   76.3425  226.7538 H   0  0  0  0  0  0  0  0  0  0  0  0
  132.1667   74.4500  228.0815 H   0  0  0  0  0  0  0  0  0  0  0  0
  132.6656   72.1048  227.4305 H   0  0  0  0  0  0  0  0  0  0  0  0
  134.0671   71.6380  225.4440 H   0  0  0  0  0  0  0  0  0  0  0  0
  136.0823   72.8179  224.0823 H   0  0  0  0  0  0  0  0  0  0  0  0
  134.6310   72.8366  223.0408 H   0  0  0  0  0  0  0  0  0  0  0  0
  140.7538   73.6054  218.8877 H   0  0  0  0  0  0  0  0  0  0  0  0
  141.0195   74.7315  220.1975 H   0  0  0  0  0  0  0  0  0  0  0  0
  142.7199   75.0835  216.5958 H   0  0  0  0  0  0  0  0  0  0  0  0
  142.1923   77.5199  216.5518 H   0  0  0  0  0  0  0  0  0  0  0  0
  1  2  1  0
  2  3  2  0
  2  4  2  0
  2  5  1  0
  5  6  2  0
  6  7  1  0
  7  8  2  0
  8  9  1  0
  9 10  1  0
 10 11  1  0
 11 12  1  0
 12 13  1  0
 13 14  1  0
 14 15  1  0
 15 16  2  0
 16 17  1  0
 17 18  1  0
 18 19  1  0
 19 20  1  0
 20 21  1  0
 21 22  2  0
 22 23  1  0
 23 24  2  0
 24 25  1  0
 25 26  2  0
 26 27  1  0
 17 28  2  0
 28 29  1  0
 29 30  1  0
 30 31  1  0
 31 32  1  0
 32 33  1  0
 33 34  2  0
 34 35  1  0
 35 36  2  0
 36 37  1  0
 37 38  2  0
 38 39  1  0
 29 40  2  0
 14 41  1  0
  8 42  1  0
 42 43  2  0
 43  5  1  0
 41 11  1  0
 40 15  1  0
 27 18  1  0
 39 30  1  0
 26 21  1  0
 38 33  1  0
  1 44  1  0
  1 45  1  0
  6 46  1  0
  7 47  1  0
  9 48  1  0
  9 49  1  0
 10 50  1  0
 10 51  1  0
 12 52  1  0
 12 53  1  0
 13 54  1  0
 13 55  1  0
 14 56  1  6
 19 57  1  0
 19 58  1  0
 20 59  1  0
 20 60  1  0
 22 61  1  0
 23 62  1  0
 24 63  1  0
 25 64  1  0
 27 65  1  0
 27 66  1  0
 31 67  1  0
 31 68  1  0
 32 69  1  0
 32 70  1  0
 34 71  1  0
 35 72  1  0
 36 73  1  0
 37 74  1  0
 39 75  1  0
 39 76  1  0
 41 77  1  0
 41 78  1  0
 42 79  1  0
 43 80  1  0
M  END
>  <smiles>  (92) 
NS(=O)(=O)c1ccc(CCN2CCC(c3nc(N4CCc5ccccc5C4)nc(N4CCc5ccccc5C4)n3)C2)cc1

>  <score_type>  (92) 
oracle

>  <origin>  (92) 
autodockgpu

>  <m_score__min__energy>  (92) 
-10.83

>  <m_primary>  (92) 
energy

>  <rmsd>  (92) 
6.629385584430424

>  <m_score__min__rmsd>  (92) 
6.629385584430424

>  <meeko>  (92) 
{"free_energy": -9.88, "intermolecular_energy": -12.27, "internal_energy": -2.5, "cluster_size": 2, "cluster_id": 8, "rank_in_cluster": 1}

>  <energy>  (92) 
-9.34

>  <cluster_rmsd>  (92) 
1.36

>  <cluster>  (92) 
12

$$$$

     RDKit          3D

 80 86  0  0  1  0  0  0  0  0999 V2000
  139.6790   71.9460  228.6900 N   0  0  0  0  0  0  0  0  0  0  0  0
  140.8030   71.2760  227.5400 S   0  0  0  0  0  0  0  0  0  0  0  0
  141.8340   72.3470  227.2570 O   0  0  0  0  0  0  0  0  0  0  0  0
  141.4390   70.0370  228.0940 O   0  0  0  0  0  0  0  0  0  0  0  0
  139.9920   70.8640  226.0570 C   0  0  0  0  0  0  0  0  0  0  0  0
  139.1090   69.8060  226.0790 C   0  0  0  0  0  0  0  0  0  0  0  0
  138.4470   69.4480  224.9270 C   0  0  0  0  0  0  0  0  0  0  0  0
  138.6360   70.1160  223.7280 C   0  0  0  0  0  0  0  0  0  0  0  0
  137.8650   69.6340  222.5620 C   0  0  0  0  0  0  0  0  0  0  0  0
  136.3860   69.9740  222.7050 C   0  0  0  0  0  0  0  0  0  0  0  0
  136.2200   71.3610  222.4760 N   0  0  0  0  0  0  0  0  0  0  0  0
  136.3920   72.2080  223.6050 C   0  0  0  0  0  0  0  0  0  0  0  0
  136.0530   73.5640  222.9740 C   0  0  0  0  0  0  0  0  0  0  0  0
  136.7580   73.4100  221.6260 C   0  0  1  0  0  0  0  0  0  0  0  0
  138.0470   74.1440  221.7310 C   0  0  0  0  0  0  0  0  0  0  0  0
  139.2140   73.5470  221.4140 N   0  0  0  0  0  0  0  0  0  0  0  0
  140.4160   74.1680  221.4950 C   0  0  0  0  0  0  0  0  0  0  0  0
  141.6340   73.5100  221.1480 N   0  0  0  0  0  0  0  0  0  0  0  0
  141.6430   72.0680  221.1200 C   0  0  0  0  0  0  0  0  0  0  0  0
  142.5420   71.5420  220.0300 C   0  0  0  0  0  0  0  0  0  0  0  0
  143.8740   72.1860  220.0940 C   0  0  0  0  0  0  0  0  0  0  0  0
  145.0150   71.4840  219.7700 C   0  0  0  0  0  0  0  0  0  0  0  0
  146.2610   72.0660  219.8240 C   0  0  0  0  0  0  0  0  0  0  0  0
  146.3270   73.4000  220.2220 C   0  0  0  0  0  0  0  0  0  0  0  0
  145.1900   74.1110  220.5480 C   0  0  0  0  0  0  0  0  0  0  0  0
  143.9560   73.5040  220.4860 C   0  0  0  0  0  0  0  0  0  0  0  0
  142.7730   74.3260  220.8500 C   0  0  0  0  0  0  0  0  0  0  0  0
  140.4030   75.4620  221.9250 N   0  0  0  0  0  0  0  0  0  0  0  0
  139.2660   76.1000  222.2530 C   0  0  0  0  0  0  0  0  0  0  0  0
  139.3350   77.4500  222.6950 N   0  0  0  0  0  0  0  0  0  0  0  0
  138.0780   78.1920  222.7140 C   0  0  0  0  0  0  0  0  0  0  0  0
  138.2140   79.1900  221.5560 C   0  0  0  0  0  0  0  0  0  0  0  0
  139.4230   80.0050  221.8710 C   0  0  0  0  0  0  0  0  0  0  0  0
  139.4030   81.3160  221.3900 C   0  0  0  0  0  0  0  0  0  0  0  0
  140.4860   82.1240  221.6460 C   0  0  0  0  0  0  0  0  0  0  0  0
  141.5770   81.6470  222.3660 C   0  0  0  0  0  0  0  0  0  0  0  0
  141.5800   80.3510  222.8340 C   0  0  0  0  0  0  0  0  0  0  0  0
  140.4920   79.5080  222.5880 C   0  0  0  0  0  0  0  0  0  0  0  0
  140.5270   78.1080  223.1100 C   0  0  0  0  0  0  0  0  0  0  0  0
  138.1100   75.4140  222.1460 N   0  0  0  0  0  0  0  0  0  0  0  0
  136.9150   71.9360  221.3760 C   0  0  0  0  0  0  0  0  0  0  0  0
  139.5150   71.1710  223.7030 C   0  0  0  0  0  0  0  0  0  0  0  0
  140.1960   71.5480  224.8660 C   0  0  0  0  0  0  0  0  0  0  0  0
  140.2120   72.7030  229.2120 H   0  0  0  0  0  0  0  0  0  0  0  0
  139.4910   71.2110  229.4290 H   0  0  0  0  0  0  0  0  0  0  0  0
  138.9344   69.2508  227.0124 H   0  0  0  0  0  0  0  0  0  0  0  0
  137.7438   68.6027  224.9591 H   0  0  0  0  0  0  0  0  0  0  0  0
  138.2567   70.1094  221.6506 H   0  0  0  0  0  0  0  0  0  0  0  0
  137.9684   68.5405  222.5019 H   0  0  0  0  0  0  0  0  0  0  0  0
  135.8012   69.4036  221.9683 H   0  0  0  0  0  0  0  0  0  0  0  0
  136.0353   69.7140  223.7147 H   0  0  0  0  0  0  0  0  0  0  0  0
  135.6971   71.9508  224.4180 H   0  0  0  0  0  0  0  0  0  0  0  0
  137.3828   72.1523  224.0796 H   0  0  0  0  0  0  0  0  0  0  0  0
  134.9679   73.6994  222.8546 H   0  0  0  0  0  0  0  0  0  0  0  0
  136.3624   74.4404  223.5624 H   0  0  0  0  0  0  0  0  0  0  0  0
  136.2043   73.8292  220.7730 H   0  0  0  0  0  0  0  0  0  0  0  0
  142.0013   71.6939  222.0904 H   0  0  0  0  0  0  0  0  0  0  0  0
  140.6187   71.7203  220.9202 H   0  0  0  0  0  0  0  0  0  0  0  0
  142.6601   70.4552  220.1524 H   0  0  0  0  0  0  0  0  0  0  0  0
  142.0859   71.7689  219.0551 H   0  0  0  0  0  0  0  0  0  0  0  0
  144.9276   70.4321  219.4605 H   0  0  0  0  0  0  0  0  0  0  0  0
  147.1682   71.5011  219.5635 H   0  0  0  0  0  0  0  0  0  0  0  0
  147.3067   73.8970  220.2775 H   0  0  0  0  0  0  0  0  0  0  0  0
  145.2698   75.1635  220.8576 H   0  0  0  0  0  0  0  0  0  0  0  0
  143.0185   74.9326  221.7342 H   0  0  0  0  0  0  0  0  0  0  0  0
  142.5219   74.9659  219.9913 H   0  0  0  0  0  0  0  0  0  0  0  0
  137.2243   77.5179  222.5502 H   0  0  0  0  0  0  0  0  0  0  0  0
  137.8952   78.6877  223.6788 H   0  0  0  0  0  0  0  0  0  0  0  0
  138.3475   78.6570  220.6030 H   0  0  0  0  0  0  0  0  0  0  0  0
  137.3161   79.8166  221.4502 H   0  0  0  0  0  0  0  0  0  0  0  0
  138.5413   81.6934  220.8198 H   0  0  0  0  0  0  0  0  0  0  0  0
  140.4898   83.1603  221.2770 H   0  0  0  0  0  0  0  0  0  0  0  0
  142.4370   82.3044  222.5615 H   0  0  0  0  0  0  0  0  0  0  0  0
  142.4432   79.9775  223.4044 H   0  0  0  0  0  0  0  0  0  0  0  0
  141.4037   77.5812  222.7052 H   0  0  0  0  0  0  0  0  0  0  0  0
  140.5965   78.1129  224.2078 H   0  0  0  0  0  0  0  0  0  0  0  0
  136.4565   71.6440  220.4197 H   0  0  0  0  0  0  0  0  0  0  0  0
  137.9640   71.6130  221.3031 H   0  0  0  0  0  0  0  0  0  0  0  0
  139.6843   71.7214  222.7658 H   0  0  0  0  0  0  0  0  0  0  0  0
  140.8990   72.3935  224.8364 H   0  0  0  0  0  0  0  0  0  0  0  0
  1  2  1  0
  2  3  2  0
  2  4  2  0
  2  5  1  0
  5  6  2  0
  6  7  1  0
  7  8  2  0
  8  9  1  0
  9 10  1  0
 10 11  1  0
 11 12  1  0
 12 13  1  0
 13 14  1  0
 14 15  1  0
 15 16  2  0
 16 17  1  0
 17 18  1  0
 18 19  1  0
 19 20  1  0
 20 21  1  0
 21 22  2  0
 22 23  1  0
 23 24  2  0
 24 25  1  0
 25 26  2  0
 26 27  1  0
 17 28  2  0
 28 29  1  0
 29 30  1  0
 30 31  1  0
 31 32  1  0
 32 33  1  0
 33 34  2  0
 34 35  1  0
 35 36  2  0
 36 37  1  0
 37 38  2  0
 38 39  1  0
 29 40  2  0
 14 41  1  0
  8 42  1  0
 42 43  2  0
 43  5  1  0
 41 11  1  0
 40 15  1  0
 27 18  1  0
 39 30  1  0
 26 21  1  0
 38 33  1  0
  1 44  1  0
  1 45  1  0
  6 46  1  0
  7 47  1  0
  9 48  1  0
  9 49  1  0
 10 50  1  0
 10 51  1  0
 12 52  1  0
 12 53  1  0
 13 54  1  0
 13 55  1  0
 14 56  1  6
 19 57  1  0
 19 58  1  0
 20 59  1  0
 20 60  1  0
 22 61  1  0
 23 62  1  0
 24 63  1  0
 25 64  1  0
 27 65  1  0
 27 66  1  0
 31 67  1  0
 31 68  1  0
 32 69  1  0
 32 70  1  0
 34 71  1  0
 35 72  1  0
 36 73  1  0
 37 74  1  0
 39 75  1  0
 39 76  1  0
 41 77  1  0
 41 78  1  0
 42 79  1  0
 43 80  1  0
M  END
>  <smiles>  (93) 
NS(=O)(=O)c1ccc(CCN2CCC(c3nc(N4CCc5ccccc5C4)nc(N4CCc5ccccc5C4)n3)C2)cc1

>  <score_type>  (93) 
oracle

>  <origin>  (93) 
autodockgpu

>  <m_score__min__energy>  (93) 
-10.83

>  <m_primary>  (93) 
energy

>  <rmsd>  (93) 
10.174026063072366

>  <m_score__min__rmsd>  (93) 
10.174026063072366

>  <meeko>  (93) 
{"free_energy": -10.06, "intermolecular_energy": -12.45, "internal_energy": -2.37, "cluster_size": 5, "cluster_id": 5, "rank_in_cluster": 2}

>  <energy>  (93) 
-9.1

>  <cluster_rmsd>  (93) 
1.55

>  <cluster>  (93) 
12

$$$$

     RDKit          3D

 80 86  0  0  1  0  0  0  0  0999 V2000
  146.6000   74.0500  220.8340 N   0  0  0  0  0  0  0  0  0  0  0  0
  145.3370   73.0760  220.1340 S   0  0  0  0  0  0  0  0  0  0  0  0
  146.0150   71.9890  219.3270 O   0  0  0  0  0  0  0  0  0  0  0  0
  144.4690   72.4970  221.2100 O   0  0  0  0  0  0  0  0  0  0  0  0
  144.3410   74.0310  219.0750 C   0  0  0  0  0  0  0  0  0  0  0  0
  143.5660   75.0210  219.6400 C   0  0  0  0  0  0  0  0  0  0  0  0
  142.7630   75.7980  218.8360 C   0  0  0  0  0  0  0  0  0  0  0  0
  142.7000   75.6230  217.4650 C   0  0  0  0  0  0  0  0  0  0  0  0
  141.7990   76.5230  216.7130 C   0  0  0  0  0  0  0  0  0  0  0  0
  140.8990   75.7330  215.7700 C   0  0  0  0  0  0  0  0  0  0  0  0
  139.8880   75.1030  216.5360 N   0  0  0  0  0  0  0  0  0  0  0  0
  140.2280   73.8470  217.1070 C   0  0  0  0  0  0  0  0  0  0  0  0
  138.8870   73.4780  217.7540 C   0  0  0  0  0  0  0  0  0  0  0  0
  138.4820   74.8420  218.3140 C   0  0  1  0  0  0  0  0  0  0  0  0
  138.8190   74.8270  219.7630 C   0  0  0  0  0  0  0  0  0  0  0  0
  138.7950   73.6780  220.4700 N   0  0  0  0  0  0  0  0  0  0  0  0
  139.0900   73.6080  221.7900 C   0  0  0  0  0  0  0  0  0  0  0  0
  139.0600   72.3760  222.5090 N   0  0  0  0  0  0  0  0  0  0  0  0
  137.9430   71.4900  222.2930 C   0  0  0  0  0  0  0  0  0  0  0  0
  138.3620   70.0430  222.3620 C   0  0  0  0  0  0  0  0  0  0  0  0
  139.1520   69.7850  223.5870 C   0  0  0  0  0  0  0  0  0  0  0  0
  139.0570   68.5800  224.2490 C   0  0  0  0  0  0  0  0  0  0  0  0
  139.7820   68.3220  225.3900 C   0  0  0  0  0  0  0  0  0  0  0  0
  140.6230   69.3320  225.8550 C   0  0  0  0  0  0  0  0  0  0  0  0
  140.7250   70.5420  225.1990 C   0  0  0  0  0  0  0  0  0  0  0  0
  139.9880   70.7730  224.0600 C   0  0  0  0  0  0  0  0  0  0  0  0
  140.1450   72.0970  223.4030 C   0  0  0  0  0  0  0  0  0  0  0  0
  139.4210   74.7810  222.4010 N   0  0  0  0  0  0  0  0  0  0  0  0
  139.4580   75.9520  221.7410 C   0  0  0  0  0  0  0  0  0  0  0  0
  139.8120   77.1330  222.4490 N   0  0  0  0  0  0  0  0  0  0  0  0
  138.7300   78.0760  222.7190 C   0  0  0  0  0  0  0  0  0  0  0  0
  139.0250   79.2610  221.7900 C   0  0  0  0  0  0  0  0  0  0  0  0
  140.3820   79.7430  222.1750 C   0  0  0  0  0  0  0  0  0  0  0  0
  140.6100   81.1080  221.9820 C   0  0  0  0  0  0  0  0  0  0  0  0
  141.8410   81.6200  222.3180 C   0  0  0  0  0  0  0  0  0  0  0  0
  142.8380   80.7990  222.8360 C   0  0  0  0  0  0  0  0  0  0  0  0
  142.5960   79.4550  223.0200 C   0  0  0  0  0  0  0  0  0  0  0  0
  141.3530   78.9080  222.6880 C   0  0  0  0  0  0  0  0  0  0  0  0
  141.1250   77.4470  222.9000 C   0  0  0  0  0  0  0  0  0  0  0  0
  139.1520   75.9390  220.4280 N   0  0  0  0  0  0  0  0  0  0  0  0
  139.2300   75.8810  217.5270 C   0  0  0  0  0  0  0  0  0  0  0  0
  143.4700   74.6360  216.8980 C   0  0  0  0  0  0  0  0  0  0  0  0
  144.2920   73.8370  217.7010 C   0  0  0  0  0  0  0  0  0  0  0  0
  146.1290   74.6510  221.5740 H   0  0  0  0  0  0  0  0  0  0  0  0
  146.9180   74.7480  220.1040 H   0  0  0  0  0  0  0  0  0  0  0  0
  143.5890   75.1892  220.7268 H   0  0  0  0  0  0  0  0  0  0  0  0
  142.1503   76.5852  219.2996 H   0  0  0  0  0  0  0  0  0  0  0  0
  141.1726   77.0812  217.4244 H   0  0  0  0  0  0  0  0  0  0  0  0
  142.4125   77.2131  216.1152 H   0  0  0  0  0  0  0  0  0  0  0  0
  140.4399   76.4138  215.0381 H   0  0  0  0  0  0  0  0  0  0  0  0
  141.4891   74.9774  215.2307 H   0  0  0  0  0  0  0  0  0  0  0  0
  140.5260   73.1170  216.3400 H   0  0  0  0  0  0  0  0  0  0  0  0
  141.0852   73.8677  217.7960 H   0  0  0  0  0  0  0  0  0  0  0  0
  138.1631   73.1093  217.0124 H   0  0  0  0  0  0  0  0  0  0  0  0
  138.9366   72.6673  218.4959 H   0  0  0  0  0  0  0  0  0  0  0  0
  137.4098   75.0704  218.2229 H   0  0  0  0  0  0  0  0  0  0  0  0
  137.1828   71.6789  223.0652 H   0  0  0  0  0  0  0  0  0  0  0  0
  137.5386   71.6840  221.2886 H   0  0  0  0  0  0  0  0  0  0  0  0
  137.4644   69.4072  222.3705 H   0  0  0  0  0  0  0  0  0  0  0  0
  138.9844   69.8128  221.4847 H   0  0  0  0  0  0  0  0  0  0  0  0
  138.3841   67.8041  223.8551 H   0  0  0  0  0  0  0  0  0  0  0  0
  139.7012   67.3581  225.9138 H   0  0  0  0  0  0  0  0  0  0  0  0
  141.2180   69.1609  226.7642 H   0  0  0  0  0  0  0  0  0  0  0  0
  141.3961   71.3225  225.5870 H   0  0  0  0  0  0  0  0  0  0  0  0
  140.1789   72.8776  224.1773 H   0  0  0  0  0  0  0  0  0  0  0  0
  141.0766   72.0818  222.8182 H   0  0  0  0  0  0  0  0  0  0  0  0
  137.7536   77.6280  222.4823 H   0  0  0  0  0  0  0  0  0  0  0  0
  138.6821   78.3714  223.7775 H   0  0  0  0  0  0  0  0  0  0  0  0
  139.0165   78.9365  220.7390 H   0  0  0  0  0  0  0  0  0  0  0  0
  138.2683   80.0534  221.8877 H   0  0  0  0  0  0  0  0  0  0  0  0
  139.8232   81.7576  221.5709 H   0  0  0  0  0  0  0  0  0  0  0  0
  142.0403   82.6924  222.1755 H   0  0  0  0  0  0  0  0  0  0  0  0
  143.8187   81.2226  223.0984 H   0  0  0  0  0  0  0  0  0  0  0  0
  143.3856   78.8086  223.4306 H   0  0  0  0  0  0  0  0  0  0  0  0
  141.8642   76.8676  222.3274 H   0  0  0  0  0  0  0  0  0  0  0  0
  141.2315   77.1960  223.9657 H   0  0  0  0  0  0  0  0  0  0  0  0
  138.5404   76.6059  217.0699 H   0  0  0  0  0  0  0  0  0  0  0  0
  139.9175   76.4833  218.1390 H   0  0  0  0  0  0  0  0  0  0  0  0
  143.4402   74.4735  215.8105 H   0  0  0  0  0  0  0  0  0  0  0  0
  144.9046   73.0484  217.2396 H   0  0  0  0  0  0  0  0  0  0  0  0
  1  2  1  0
  2  3  2  0
  2  4  2  0
  2  5  1  0
  5  6  2  0
  6  7  1  0
  7  8  2  0
  8  9  1  0
  9 10  1  0
 10 11  1  0
 11 12  1  0
 12 13  1  0
 13 14  1  0
 14 15  1  0
 15 16  2  0
 16 17  1  0
 17 18  1  0
 18 19  1  0
 19 20  1  0
 20 21  1  0
 21 22  2  0
 22 23  1  0
 23 24  2  0
 24 25  1  0
 25 26  2  0
 26 27  1  0
 17 28  2  0
 28 29  1  0
 29 30  1  0
 30 31  1  0
 31 32  1  0
 32 33  1  0
 33 34  2  0
 34 35  1  0
 35 36  2  0
 36 37  1  0
 37 38  2  0
 38 39  1  0
 29 40  2  0
 14 41  1  0
  8 42  1  0
 42 43  2  0
 43  5  1  0
 41 11  1  0
 40 15  1  0
 27 18  1  0
 39 30  1  0
 26 21  1  0
 38 33  1  0
  1 44  1  0
  1 45  1  0
  6 46  1  0
  7 47  1  0
  9 48  1  0
  9 49  1  0
 10 50  1  0
 10 51  1  0
 12 52  1  0
 12 53  1  0
 13 54  1  0
 13 55  1  0
 14 56  1  1
 19 57  1  0
 19 58  1  0
 20 59  1  0
 20 60  1  0
 22 61  1  0
 23 62  1  0
 24 63  1  0
 25 64  1  0
 27 65  1  0
 27 66  1  0
 31 67  1  0
 31 68  1  0
 32 69  1  0
 32 70  1  0
 34 71  1  0
 35 72  1  0
 36 73  1  0
 37 74  1  0
 39 75  1  0
 39 76  1  0
 41 77  1  0
 41 78  1  0
 42 79  1  0
 43 80  1  0
M  END
>  <smiles>  (94) 
NS(=O)(=O)c1ccc(CCN2CCC(c3nc(N4CCc5ccccc5C4)nc(N4CCc5ccccc5C4)n3)C2)cc1

>  <score_type>  (94) 
oracle

>  <origin>  (94) 
autodockgpu

>  <m_score__min__energy>  (94) 
-10.83

>  <m_primary>  (94) 
energy

>  <rmsd>  (94) 
6.774313782460781

>  <m_score__min__rmsd>  (94) 
6.774313782460781

>  <meeko>  (94) 
{"free_energy": -9.19, "intermolecular_energy": -11.58, "internal_energy": -2.34, "cluster_size": 4, "cluster_id": 9, "rank_in_cluster": 3}

>  <energy>  (94) 
-9.63

>  <cluster_rmsd>  (94) 
0.0

>  <cluster>  (94) 
13

$$$$

     RDKit          3D

 80 86  0  0  1  0  0  0  0  0999 V2000
  138.3460   74.2800  222.3250 N   0  0  0  0  0  0  0  0  0  0  0  0
  137.2710   73.8520  221.0230 S   0  0  0  0  0  0  0  0  0  0  0  0
  136.6130   72.5440  221.4070 O   0  0  0  0  0  0  0  0  0  0  0  0
  136.2540   74.9340  220.8100 O   0  0  0  0  0  0  0  0  0  0  0  0
  138.1570   73.6290  219.5430 C   0  0  0  0  0  0  0  0  0  0  0  0
  137.8190   72.5560  218.7460 C   0  0  0  0  0  0  0  0  0  0  0  0
  138.4960   72.3440  217.5680 C   0  0  0  0  0  0  0  0  0  0  0  0
  139.5190   73.1740  217.1430 C   0  0  0  0  0  0  0  0  0  0  0  0
  140.1680   72.8390  215.8580 C   0  0  0  0  0  0  0  0  0  0  0  0
  140.6060   71.3800  215.8300 C   0  0  0  0  0  0  0  0  0  0  0  0
  141.4340   71.1380  216.9540 N   0  0  0  0  0  0  0  0  0  0  0  0
  142.3240   72.1870  217.3130 C   0  0  0  0  0  0  0  0  0  0  0  0
  143.0690   71.5170  218.4740 C   0  0  0  0  0  0  0  0  0  0  0  0
  141.9000   70.8110  219.1640 C   0  0  1  0  0  0  0  0  0  0  0  0
  141.5140   71.6590  220.3240 C   0  0  0  0  0  0  0  0  0  0  0  0
  141.6490   73.0000  220.2800 N   0  0  0  0  0  0  0  0  0  0  0  0
  141.3160   73.8170  221.3070 C   0  0  0  0  0  0  0  0  0  0  0  0
  141.4660   75.2340  221.2280 N   0  0  0  0  0  0  0  0  0  0  0  0
  142.1860   75.7800  220.1040 C   0  0  0  0  0  0  0  0  0  0  0  0
  141.6070   77.1010  219.6640 C   0  0  0  0  0  0  0  0  0  0  0  0
  141.4460   78.0120  220.8200 C   0  0  0  0  0  0  0  0  0  0  0  0
  141.6310   79.3700  220.6800 C   0  0  0  0  0  0  0  0  0  0  0  0
  141.4870   80.2330  221.7420 C   0  0  0  0  0  0  0  0  0  0  0  0
  141.1440   79.6780  222.9750 C   0  0  0  0  0  0  0  0  0  0  0  0
  140.9570   78.3190  223.1240 C   0  0  0  0  0  0  0  0  0  0  0  0
  141.1070   77.4790  222.0450 C   0  0  0  0  0  0  0  0  0  0  0  0
  140.8910   76.0270  222.2740 C   0  0  0  0  0  0  0  0  0  0  0  0
  140.8250   73.2150  222.4280 N   0  0  0  0  0  0  0  0  0  0  0  0
  140.6730   71.8820  222.5210 C   0  0  0  0  0  0  0  0  0  0  0  0
  140.1550   71.3290  223.7240 N   0  0  0  0  0  0  0  0  0  0  0  0
  140.6370   71.9180  224.9700 C   0  0  0  0  0  0  0  0  0  0  0  0
  141.5480   70.8380  225.5680 C   0  0  0  0  0  0  0  0  0  0  0  0
  140.6820   69.6360  225.7410 C   0  0  0  0  0  0  0  0  0  0  0  0
  141.0330   68.7930  226.7980 C   0  0  0  0  0  0  0  0  0  0  0  0
  140.2750   67.6660  227.0160 C   0  0  0  0  0  0  0  0  0  0  0  0
  139.1840   67.3720  226.2030 C   0  0  0  0  0  0  0  0  0  0  0  0
  138.8510   68.2150  225.1650 C   0  0  0  0  0  0  0  0  0  0  0  0
  139.6050   69.3680  224.9210 C   0  0  0  0  0  0  0  0  0  0  0  0
  139.2170   70.2600  223.7880 C   0  0  0  0  0  0  0  0  0  0  0  0
  141.0260   71.1370  221.4550 N   0  0  0  0  0  0  0  0  0  0  0  0
  140.8130   70.6530  218.1380 C   0  0  0  0  0  0  0  0  0  0  0  0
  139.8590   74.2450  217.9350 C   0  0  0  0  0  0  0  0  0  0  0  0
  139.1790   74.4750  219.1370 C   0  0  0  0  0  0  0  0  0  0  0  0
  139.2390   74.6250  221.8640 H   0  0  0  0  0  0  0  0  0  0  0  0
  138.6400   73.3870  222.8130 H   0  0  0  0  0  0  0  0  0  0  0  0
  137.0122   71.8732  219.0508 H   0  0  0  0  0  0  0  0  0  0  0  0
  138.2147   71.4847  216.9415 H   0  0  0  0  0  0  0  0  0  0  0  0
  139.4558   73.0163  215.0386 H   0  0  0  0  0  0  0  0  0  0  0  0
  141.0584   73.4739  215.7398 H   0  0  0  0  0  0  0  0  0  0  0  0
  139.7223   70.7263  215.8724 H   0  0  0  0  0  0  0  0  0  0  0  0
  141.1586   71.1699  214.9024 H   0  0  0  0  0  0  0  0  0  0  0  0
  143.0032   72.4468  216.4876 H   0  0  0  0  0  0  0  0  0  0  0  0
  141.8385   73.1418  217.5631 H   0  0  0  0  0  0  0  0  0  0  0  0
  143.8246   70.8020  218.1164 H   0  0  0  0  0  0  0  0  0  0  0  0
  143.6414   72.2029  219.1158 H   0  0  0  0  0  0  0  0  0  0  0  0
  142.1368   69.8075  219.5474 H   0  0  0  0  0  0  0  0  0  0  0  0
  143.2373   75.9288  220.3914 H   0  0  0  0  0  0  0  0  0  0  0  0
  142.1049   75.0720  219.2660 H   0  0  0  0  0  0  0  0  0  0  0  0
  142.2822   77.5648  218.9299 H   0  0  0  0  0  0  0  0  0  0  0  0
  140.6193   76.9223  219.2139 H   0  0  0  0  0  0  0  0  0  0  0  0
  141.9009   79.7750  219.6935 H   0  0  0  0  0  0  0  0  0  0  0  0
  141.6363   81.3164  221.6236 H   0  0  0  0  0  0  0  0  0  0  0  0
  141.0200   80.3374  223.8466 H   0  0  0  0  0  0  0  0  0  0  0  0
  140.6875   77.9065  224.1075 H   0  0  0  0  0  0  0  0  0  0  0  0
  141.3538   75.7444  223.2310 H   0  0  0  0  0  0  0  0  0  0  0  0
  139.8071   75.8399  222.2897 H   0  0  0  0  0  0  0  0  0  0  0  0
  141.2029   72.8404  224.7724 H   0  0  0  0  0  0  0  0  0  0  0  0
  139.8177   72.2010  225.6473 H   0  0  0  0  0  0  0  0  0  0  0  0
  142.3810   70.6163  224.8846 H   0  0  0  0  0  0  0  0  0  0  0  0
  141.9922   71.1611  226.5210 H   0  0  0  0  0  0  0  0  0  0  0  0
  141.8950   69.0248  227.4408 H   0  0  0  0  0  0  0  0  0  0  0  0
  140.5342   66.9887  227.8431 H   0  0  0  0  0  0  0  0  0  0  0  0
  138.5876   66.4666  226.3891 H   0  0  0  0  0  0  0  0  0  0  0  0
  137.9878   67.9801  224.5249 H   0  0  0  0  0  0  0  0  0  0  0  0
  139.2329   69.6934  222.8453 H   0  0  0  0  0  0  0  0  0  0  0  0
  138.2016   70.6534  223.9438 H   0  0  0  0  0  0  0  0  0  0  0  0
  140.5192   69.5985  218.0294 H   0  0  0  0  0  0  0  0  0  0  0  0
  139.8857   71.1853  218.3963 H   0  0  0  0  0  0  0  0  0  0  0  0
  140.6673   74.9229  217.6235 H   0  0  0  0  0  0  0  0  0  0  0  0
  139.4575   75.3340  219.7651 H   0  0  0  0  0  0  0  0  0  0  0  0
  1  2  1  0
  2  3  2  0
  2  4  2  0
  2  5  1  0
  5  6  2  0
  6  7  1  0
  7  8  2  0
  8  9  1  0
  9 10  1  0
 10 11  1  0
 11 12  1  0
 12 13  1  0
 13 14  1  0
 14 15  1  0
 15 16  2  0
 16 17  1  0
 17 18  1  0
 18 19  1  0
 19 20  1  0
 20 21  1  0
 21 22  2  0
 22 23  1  0
 23 24  2  0
 24 25  1  0
 25 26  2  0
 26 27  1  0
 17 28  2  0
 28 29  1  0
 29 30  1  0
 30 31  1  0
 31 32  1  0
 32 33  1  0
 33 34  2  0
 34 35  1  0
 35 36  2  0
 36 37  1  0
 37 38  2  0
 38 39  1  0
 29 40  2  0
 14 41  1  0
  8 42  1  0
 42 43  2  0
 43  5  1  0
 41 11  1  0
 40 15  1  0
 27 18  1  0
 39 30  1  0
 26 21  1  0
 38 33  1  0
  1 44  1  0
  1 45  1  0
  6 46  1  0
  7 47  1  0
  9 48  1  0
  9 49  1  0
 10 50  1  0
 10 51  1  0
 12 52  1  0
 12 53  1  0
 13 54  1  0
 13 55  1  0
 14 56  1  1
 19 57  1  0
 19 58  1  0
 20 59  1  0
 20 60  1  0
 22 61  1  0
 23 62  1  0
 24 63  1  0
 25 64  1  0
 27 65  1  0
 27 66  1  0
 31 67  1  0
 31 68  1  0
 32 69  1  0
 32 70  1  0
 34 71  1  0
 35 72  1  0
 36 73  1  0
 37 74  1  0
 39 75  1  0
 39 76  1  0
 41 77  1  0
 41 78  1  0
 42 79  1  0
 43 80  1  0
M  END
>  <smiles>  (95) 
NS(=O)(=O)c1ccc(CCN2CCC(c3nc(N4CCc5ccccc5C4)nc(N4CCc5ccccc5C4)n3)C2)cc1

>  <score_type>  (95) 
oracle

>  <origin>  (95) 
autodockgpu

>  <m_score__min__energy>  (95) 
-10.83

>  <m_primary>  (95) 
energy

>  <rmsd>  (95) 
8.386734098467093

>  <m_score__min__rmsd>  (95) 
8.386734098467093

>  <meeko>  (95) 
{"free_energy": -7.08, "intermolecular_energy": -9.47, "internal_energy": -4.27, "cluster_size": 2, "cluster_id": 16, "rank_in_cluster": 2}

>  <energy>  (95) 
-9.04

>  <cluster_rmsd>  (95) 
0.0

>  <cluster>  (95) 
14

$$$$

     RDKit          3D

 80 86  0  0  1  0  0  0  0  0999 V2000
  131.9340   71.8840  227.3430 N   0  0  0  0  0  0  0  0  0  0  0  0
  133.6520   71.9640  227.0620 S   0  0  0  0  0  0  0  0  0  0  0  0
  133.9700   73.3960  226.6880 O   0  0  0  0  0  0  0  0  0  0  0  0
  134.4010   71.5410  228.2910 O   0  0  0  0  0  0  0  0  0  0  0  0
  134.1090   70.9190  225.7500 C   0  0  0  0  0  0  0  0  0  0  0  0
  133.1730   70.6680  224.7700 C   0  0  0  0  0  0  0  0  0  0  0  0
  133.4950   69.8460  223.7150 C   0  0  0  0  0  0  0  0  0  0  0  0
  134.7390   69.2500  223.5950 C   0  0  0  0  0  0  0  0  0  0  0  0
  134.9610   68.3890  222.4150 C   0  0  0  0  0  0  0  0  0  0  0  0
  134.1340   68.8640  221.2270 C   0  0  0  0  0  0  0  0  0  0  0  0
  134.8520   69.8850  220.5580 N   0  0  0  0  0  0  0  0  0  0  0  0
  134.5000   71.2210  220.8930 C   0  0  0  0  0  0  0  0  0  0  0  0
  135.4110   71.9860  219.9250 C   0  0  0  0  0  0  0  0  0  0  0  0
  136.6830   71.1460  220.0420 C   0  0  1  0  0  0  0  0  0  0  0  0
  137.5930   71.8740  220.9660 C   0  0  0  0  0  0  0  0  0  0  0  0
  138.1510   71.2520  222.0250 N   0  0  0  0  0  0  0  0  0  0  0  0
  138.9840   71.8680  222.8980 C   0  0  0  0  0  0  0  0  0  0  0  0
  139.5610   71.1810  224.0080 N   0  0  0  0  0  0  0  0  0  0  0  0
  140.6710   71.8000  224.6880 C   0  0  0  0  0  0  0  0  0  0  0  0
  140.6420   71.5180  226.1680 C   0  0  0  0  0  0  0  0  0  0  0  0
  140.4690   70.0690  226.4210 C   0  0  0  0  0  0  0  0  0  0  0  0
  141.0770   69.4620  227.4980 C   0  0  0  0  0  0  0  0  0  0  0  0
  140.9290   68.1170  227.7490 C   0  0  0  0  0  0  0  0  0  0  0  0
  140.1350   67.3860  226.8660 C   0  0  0  0  0  0  0  0  0  0  0  0
  139.5220   67.9850  225.7840 C   0  0  0  0  0  0  0  0  0  0  0  0
  139.6880   69.3320  225.5580 C   0  0  0  0  0  0  0  0  0  0  0  0
  139.0000   69.9150  224.3760 C   0  0  0  0  0  0  0  0  0  0  0  0
  139.2450   73.1850  222.6620 N   0  0  0  0  0  0  0  0  0  0  0  0
  138.7130   73.8490  221.6210 C   0  0  0  0  0  0  0  0  0  0  0  0
  139.0330   75.2230  221.4420 N   0  0  0  0  0  0  0  0  0  0  0  0
  140.2510   75.5130  220.6900 C   0  0  0  0  0  0  0  0  0  0  0  0
  141.2290   76.0380  221.7490 C   0  0  0  0  0  0  0  0  0  0  0  0
  140.5670   77.2330  222.3470 C   0  0  0  0  0  0  0  0  0  0  0  0
  141.4320   78.2250  222.8150 C   0  0  0  0  0  0  0  0  0  0  0  0
  140.8880   79.3560  223.3790 C   0  0  0  0  0  0  0  0  0  0  0  0
  139.5090   79.5090  223.4810 C   0  0  0  0  0  0  0  0  0  0  0  0
  138.6690   78.5200  223.0130 C   0  0  0  0  0  0  0  0  0  0  0  0
  139.1960   77.3600  222.4360 C   0  0  0  0  0  0  0  0  0  0  0  0
  138.2580   76.3090  221.9400 C   0  0  0  0  0  0  0  0  0  0  0  0
  137.8940   73.1660  220.7960 N   0  0  0  0  0  0  0  0  0  0  0  0
  136.2710   69.7880  220.5380 C   0  0  0  0  0  0  0  0  0  0  0  0
  135.6750   69.4980  224.5700 C   0  0  0  0  0  0  0  0  0  0  0  0
  135.3640   70.3330  225.6500 C   0  0  0  0  0  0  0  0  0  0  0  0
  131.7880   72.2020  228.3470 H   0  0  0  0  0  0  0  0  0  0  0  0
  131.6520   70.8640  227.3540 H   0  0  0  0  0  0  0  0  0  0  0  0
  132.1733   71.1228  224.8312 H   0  0  0  0  0  0  0  0  0  0  0  0
  132.7380   69.6556  222.9399 H   0  0  0  0  0  0  0  0  0  0  0  0
  136.0270   68.4171  222.1450 H   0  0  0  0  0  0  0  0  0  0  0  0
  134.6534   67.3635  222.6675 H   0  0  0  0  0  0  0  0  0  0  0  0
  133.9562   68.0240  220.5394 H   0  0  0  0  0  0  0  0  0  0  0  0
  133.1645   69.2509  221.5738 H   0  0  0  0  0  0  0  0  0  0  0  0
  133.4364   71.4239  220.6994 H   0  0  0  0  0  0  0  0  0  0  0  0
  134.6275   71.4820  221.9540 H   0  0  0  0  0  0  0  0  0  0  0  0
  135.0122   71.9831  218.8999 H   0  0  0  0  0  0  0  0  0  0  0  0
  135.5376   73.0546  220.1530 H   0  0  0  0  0  0  0  0  0  0  0  0
  137.2192   70.9989  219.0929 H   0  0  0  0  0  0  0  0  0  0  0  0
  141.6096   71.4090  224.2684 H   0  0  0  0  0  0  0  0  0  0  0  0
  140.5994   72.8881  224.5437 H   0  0  0  0  0  0  0  0  0  0  0  0
  141.5882   71.8528  226.6181 H   0  0  0  0  0  0  0  0  0  0  0  0
  139.7947   72.0589  226.6148 H   0  0  0  0  0  0  0  0  0  0  0  0
  141.6969   70.0682  228.1749 H   0  0  0  0  0  0  0  0  0  0  0  0
  141.4170   67.6382  228.6108 H   0  0  0  0  0  0  0  0  0  0  0  0
  139.9941   66.3083  227.0354 H   0  0  0  0  0  0  0  0  0  0  0  0
  138.9008   67.3854  225.1024 H   0  0  0  0  0  0  0  0  0  0  0  0
  139.0985   69.2213  223.5280 H   0  0  0  0  0  0  0  0  0  0  0  0
  137.9428   70.0709  224.6367 H   0  0  0  0  0  0  0  0  0  0  0  0
  140.6426   74.6016  220.2146 H   0  0  0  0  0  0  0  0  0  0  0  0
  140.0830   76.2339  219.8763 H   0  0  0  0  0  0  0  0  0  0  0  0
  141.4089   75.2730  222.5187 H   0  0  0  0  0  0  0  0  0  0  0  0
  142.2065   76.2897  221.3119 H   0  0  0  0  0  0  0  0  0  0  0  0
  142.5225   78.1048  222.7345 H   0  0  0  0  0  0  0  0  0  0  0  0
  141.5517   80.1491  223.7539 H   0  0  0  0  0  0  0  0  0  0  0  0
  139.0886   80.4186  223.9348 H   0  0  0  0  0  0  0  0  0  0  0  0
  137.5791   78.6443  223.0940 H   0  0  0  0  0  0  0  0  0  0  0  0
  137.6170   75.9625  222.7641 H   0  0  0  0  0  0  0  0  0  0  0  0
  137.6167   76.7157  221.1442 H   0  0  0  0  0  0  0  0  0  0  0  0
  136.6057   68.9959  219.8520 H   0  0  0  0  0  0  0  0  0  0  0  0
  136.7065   69.5269  221.5138 H   0  0  0  0  0  0  0  0  0  0  0  0
  136.6723   69.0388  224.5018 H   0  0  0  0  0  0  0  0  0  0  0  0
  136.1198   70.5264  226.4255 H   0  0  0  0  0  0  0  0  0  0  0  0
  1  2  1  0
  2  3  2  0
  2  4  2  0
  2  5  1  0
  5  6  2  0
  6  7  1  0
  7  8  2  0
  8  9  1  0
  9 10  1  0
 10 11  1  0
 11 12  1  0
 12 13  1  0
 13 14  1  0
 14 15  1  0
 15 16  2  0
 16 17  1  0
 17 18  1  0
 18 19  1  0
 19 20  1  0
 20 21  1  0
 21 22  2  0
 22 23  1  0
 23 24  2  0
 24 25  1  0
 25 26  2  0
 26 27  1  0
 17 28  2  0
 28 29  1  0
 29 30  1  0
 30 31  1  0
 31 32  1  0
 32 33  1  0
 33 34  2  0
 34 35  1  0
 35 36  2  0
 36 37  1  0
 37 38  2  0
 38 39  1  0
 29 40  2  0
 14 41  1  0
  8 42  1  0
 42 43  2  0
 43  5  1  0
 41 11  1  0
 40 15  1  0
 27 18  1  0
 39 30  1  0
 26 21  1  0
 38 33  1  0
  1 44  1  0
  1 45  1  0
  6 46  1  0
  7 47  1  0
  9 48  1  0
  9 49  1  0
 10 50  1  0
 10 51  1  0
 12 52  1  0
 12 53  1  0
 13 54  1  0
 13 55  1  0
 14 56  1  6
 19 57  1  0
 19 58  1  0
 20 59  1  0
 20 60  1  0
 22 61  1  0
 23 62  1  0
 24 63  1  0
 25 64  1  0
 27 65  1  0
 27 66  1  0
 31 67  1  0
 31 68  1  0
 32 69  1  0
 32 70  1  0
 34 71  1  0
 35 72  1  0
 36 73  1  0
 37 74  1  0
 39 75  1  0
 39 76  1  0
 41 77  1  0
 41 78  1  0
 42 79  1  0
 43 80  1  0
M  END
>  <smiles>  (96) 
NS(=O)(=O)c1ccc(CCN2CCC(c3nc(N4CCc5ccccc5C4)nc(N4CCc5ccccc5C4)n3)C2)cc1

>  <score_type>  (96) 
oracle

>  <origin>  (96) 
autodockgpu

>  <m_score__min__energy>  (96) 
-10.83

>  <m_primary>  (96) 
energy

>  <rmsd>  (96) 
11.271351606522982

>  <m_score__min__rmsd>  (96) 
11.271351606522982

>  <meeko>  (96) 
{"free_energy": -9.34, "intermolecular_energy": -11.73, "internal_energy": -2.52, "cluster_size": 4, "cluster_id": 12, "rank_in_cluster": 3}

>  <energy>  (96) 
-8.45

>  <cluster_rmsd>  (96) 
0.0

>  <cluster>  (96) 
15

$$$$

     RDKit          3D

 80 86  0  0  1  0  0  0  0  0999 V2000
  144.4500   72.1880  221.2480 N   0  0  0  0  0  0  0  0  0  0  0  0
  145.1980   73.3300  220.1650 S   0  0  0  0  0  0  0  0  0  0  0  0
  145.7030   74.4760  221.0150 O   0  0  0  0  0  0  0  0  0  0  0  0
  146.3160   72.6760  219.4100 O   0  0  0  0  0  0  0  0  0  0  0  0
  144.0400   73.9400  219.0190 C   0  0  0  0  0  0  0  0  0  0  0  0
  144.0620   73.4190  217.7430 C   0  0  0  0  0  0  0  0  0  0  0  0
  143.1630   73.8750  216.8070 C   0  0  0  0  0  0  0  0  0  0  0  0
  142.2240   74.8510  217.0970 C   0  0  0  0  0  0  0  0  0  0  0  0
  141.3140   75.2540  216.0040 C   0  0  0  0  0  0  0  0  0  0  0  0
  140.6300   74.0410  215.3860 C   0  0  0  0  0  0  0  0  0  0  0  0
  139.7250   73.5050  216.3340 N   0  0  0  0  0  0  0  0  0  0  0  0
  140.1720   72.3590  217.0470 C   0  0  0  0  0  0  0  0  0  0  0  0
  138.9160   72.0530  217.8720 C   0  0  0  0  0  0  0  0  0  0  0  0
  138.5060   73.4740  218.2640 C   0  0  1  0  0  0  0  0  0  0  0  0
  138.9800   73.6860  219.6580 C   0  0  0  0  0  0  0  0  0  0  0  0
  139.1480   74.9300  220.1520 N   0  0  0  0  0  0  0  0  0  0  0  0
  139.5790   75.1790  221.4120 C   0  0  0  0  0  0  0  0  0  0  0  0
  139.7440   76.5070  221.9080 N   0  0  0  0  0  0  0  0  0  0  0  0
  138.5990   77.3840  221.8970 C   0  0  0  0  0  0  0  0  0  0  0  0
  138.5990   78.3100  223.0860 C   0  0  0  0  0  0  0  0  0  0  0  0
  139.9120   78.9790  223.2280 C   0  0  0  0  0  0  0  0  0  0  0  0
  139.9990   80.2750  223.6890 C   0  0  0  0  0  0  0  0  0  0  0  0
  141.2100   80.9140  223.8270 C   0  0  0  0  0  0  0  0  0  0  0  0
  142.3540   80.1970  223.4800 C   0  0  0  0  0  0  0  0  0  0  0  0
  142.2770   78.8990  223.0170 C   0  0  0  0  0  0  0  0  0  0  0  0
  141.0530   78.2840  222.8890 C   0  0  0  0  0  0  0  0  0  0  0  0
  141.0400   76.8860  222.3850 C   0  0  0  0  0  0  0  0  0  0  0  0
  139.8470   74.0910  222.1890 N   0  0  0  0  0  0  0  0  0  0  0  0
  139.6950   72.8320  221.7420 C   0  0  0  0  0  0  0  0  0  0  0  0
  139.9960   71.7490  222.6120 N   0  0  0  0  0  0  0  0  0  0  0  0
  139.5530   70.4270  222.1810 C   0  0  0  0  0  0  0  0  0  0  0  0
  138.3980   70.0900  223.1330 C   0  0  0  0  0  0  0  0  0  0  0  0
  138.9840   70.1340  224.5040 C   0  0  0  0  0  0  0  0  0  0  0  0
  138.3890   69.2820  225.4370 C   0  0  0  0  0  0  0  0  0  0  0  0
  138.8810   69.2710  226.7210 C   0  0  0  0  0  0  0  0  0  0  0  0
  139.9470   70.0890  227.0830 C   0  0  0  0  0  0  0  0  0  0  0  0
  140.5220   70.9240  226.1500 C   0  0  0  0  0  0  0  0  0  0  0  0
  140.0410   70.9550  224.8370 C   0  0  0  0  0  0  0  0  0  0  0  0
  140.6880   71.8710  223.8510 C   0  0  0  0  0  0  0  0  0  0  0  0
  139.2620   72.6660  220.4760 N   0  0  0  0  0  0  0  0  0  0  0  0
  139.1300   74.4040  217.2610 C   0  0  0  0  0  0  0  0  0  0  0  0
  142.2000   75.3720  218.3680 C   0  0  0  0  0  0  0  0  0  0  0  0
  143.1080   74.9190  219.3320 C   0  0  0  0  0  0  0  0  0  0  0  0
  145.1760   71.9750  221.9930 H   0  0  0  0  0  0  0  0  0  0  0  0
  144.3390   71.2710  220.7300 H   0  0  0  0  0  0  0  0  0  0  0  0
  144.7942   72.6431  217.4748 H   0  0  0  0  0  0  0  0  0  0  0  0
  143.1908   73.4497  215.7929 H   0  0  0  0  0  0  0  0  0  0  0  0
  140.5475   75.9328  216.4062 H   0  0  0  0  0  0  0  0  0  0  0  0
  141.9048   75.7574  215.2246 H   0  0  0  0  0  0  0  0  0  0  0  0
  140.0832   74.3442  214.4810 H   0  0  0  0  0  0  0  0  0  0  0  0
  141.3798   73.2847  215.1107 H   0  0  0  0  0  0  0  0  0  0  0  0
  140.4276   71.5307  216.3698 H   0  0  0  0  0  0  0  0  0  0  0  0
  141.0888   72.5081  217.6363 H   0  0  0  0  0  0  0  0  0  0  0  0
  138.1419   71.5561  217.2688 H   0  0  0  0  0  0  0  0  0  0  0  0
  139.0713   71.3650  218.7162 H   0  0  0  0  0  0  0  0  0  0  0  0
  137.4212   73.6556  218.2491 H   0  0  0  0  0  0  0  0  0  0  0  0
  138.6185   77.9853  220.9761 H   0  0  0  0  0  0  0  0  0  0  0  0
  137.6907   76.7651  221.9425 H   0  0  0  0  0  0  0  0  0  0  0  0
  137.8180   79.0726  222.9498 H   0  0  0  0  0  0  0  0  0  0  0  0
  138.4024   77.7204  223.9936 H   0  0  0  0  0  0  0  0  0  0  0  0
  139.0765   80.8126  223.9535 H   0  0  0  0  0  0  0  0  0  0  0  0
  141.2727   81.9483  224.1961 H   0  0  0  0  0  0  0  0  0  0  0  0
  143.3394   80.6760  223.5773 H   0  0  0  0  0  0  0  0  0  0  0  0
  143.1954   78.3556  222.7500 H   0  0  0  0  0  0  0  0  0  0  0  0
  141.7631   76.7974  221.5608 H   0  0  0  0  0  0  0  0  0  0  0  0
  141.3076   76.2188  223.2176 H   0  0  0  0  0  0  0  0  0  0  0  0
  139.2044   70.4529  221.1380 H   0  0  0  0  0  0  0  0  0  0  0  0
  140.3596   69.6798  222.2150 H   0  0  0  0  0  0  0  0  0  0  0  0
  137.5913   70.8315  223.0360 H   0  0  0  0  0  0  0  0  0  0  0  0
  137.9588   69.1067  222.9089 H   0  0  0  0  0  0  0  0  0  0  0  0
  137.5466   68.6349  225.1514 H   0  0  0  0  0  0  0  0  0  0  0  0
  138.4263   68.6074  227.4713 H   0  0  0  0  0  0  0  0  0  0  0  0
  140.3305   70.0689  228.1138 H   0  0  0  0  0  0  0  0  0  0  0  0
  141.3641   71.5699  226.4394 H   0  0  0  0  0  0  0  0  0  0  0  0
  140.6276   72.9087  224.2110 H   0  0  0  0  0  0  0  0  0  0  0  0
  141.7477   71.6052  223.7229 H   0  0  0  0  0  0  0  0  0  0  0  0
  138.3690   75.0311  216.7736 H   0  0  0  0  0  0  0  0  0  0  0  0
  139.8454   75.1114  217.7057 H   0  0  0  0  0  0  0  0  0  0  0  0
  141.4649   76.1476  218.6288 H   0  0  0  0  0  0  0  0  0  0  0  0
  143.0825   75.3429  220.3467 H   0  0  0  0  0  0  0  0  0  0  0  0
  1  2  1  0
  2  3  2  0
  2  4  2  0
  2  5  1  0
  5  6  2  0
  6  7  1  0
  7  8  2  0
  8  9  1  0
  9 10  1  0
 10 11  1  0
 11 12  1  0
 12 13  1  0
 13 14  1  0
 14 15  1  0
 15 16  2  0
 16 17  1  0
 17 18  1  0
 18 19  1  0
 19 20  1  0
 20 21  1  0
 21 22  2  0
 22 23  1  0
 23 24  2  0
 24 25  1  0
 25 26  2  0
 26 27  1  0
 17 28  2  0
 28 29  1  0
 29 30  1  0
 30 31  1  0
 31 32  1  0
 32 33  1  0
 33 34  2  0
 34 35  1  0
 35 36  2  0
 36 37  1  0
 37 38  2  0
 38 39  1  0
 29 40  2  0
 14 41  1  0
  8 42  1  0
 42 43  2  0
 43  5  1  0
 41 11  1  0
 40 15  1  0
 27 18  1  0
 39 30  1  0
 26 21  1  0
 38 33  1  0
  1 44  1  0
  1 45  1  0
  6 46  1  0
  7 47  1  0
  9 48  1  0
  9 49  1  0
 10 50  1  0
 10 51  1  0
 12 52  1  0
 12 53  1  0
 13 54  1  0
 13 55  1  0
 14 56  1  1
 19 57  1  0
 19 58  1  0
 20 59  1  0
 20 60  1  0
 22 61  1  0
 23 62  1  0
 24 63  1  0
 25 64  1  0
 27 65  1  0
 27 66  1  0
 31 67  1  0
 31 68  1  0
 32 69  1  0
 32 70  1  0
 34 71  1  0
 35 72  1  0
 36 73  1  0
 37 74  1  0
 39 75  1  0
 39 76  1  0
 41 77  1  0
 41 78  1  0
 42 79  1  0
 43 80  1  0
M  END
>  <smiles>  (97) 
NS(=O)(=O)c1ccc(CCN2CCC(c3nc(N4CCc5ccccc5C4)nc(N4CCc5ccccc5C4)n3)C2)cc1

>  <score_type>  (97) 
oracle

>  <origin>  (97) 
autodockgpu

>  <m_score__min__energy>  (97) 
-10.83

>  <m_primary>  (97) 
energy

>  <rmsd>  (97) 
7.76702893341575

>  <m_score__min__rmsd>  (97) 
7.76702893341575

>  <meeko>  (97) 
{"free_energy": -9.84, "intermolecular_energy": -12.22, "internal_energy": -2.51, "cluster_size": 4, "cluster_id": 9, "rank_in_cluster": 1}

>  <energy>  (97) 
-8.14

>  <cluster_rmsd>  (97) 
0.0

>  <cluster>  (97) 
16

$$$$

     RDKit          3D

 80 86  0  0  1  0  0  0  0  0999 V2000
  142.9840   79.3510  222.6990 N   0  0  0  0  0  0  0  0  0  0  0  0
  141.5590   80.3520  222.6620 S   0  0  0  0  0  0  0  0  0  0  0  0
  141.6290   81.2630  223.8680 O   0  0  0  0  0  0  0  0  0  0  0  0
  141.5070   81.1370  221.3860 O   0  0  0  0  0  0  0  0  0  0  0  0
  140.1210   79.3780  222.7700 C   0  0  0  0  0  0  0  0  0  0  0  0
  138.9560   79.9940  223.1730 C   0  0  0  0  0  0  0  0  0  0  0  0
  137.7970   79.2580  223.2710 C   0  0  0  0  0  0  0  0  0  0  0  0
  137.7530   77.9060  222.9790 C   0  0  0  0  0  0  0  0  0  0  0  0
  136.4460   77.2290  223.1240 C   0  0  0  0  0  0  0  0  0  0  0  0
  135.6830   77.2260  221.8050 C   0  0  0  0  0  0  0  0  0  0  0  0
  135.9220   75.9930  221.1500 N   0  0  0  0  0  0  0  0  0  0  0  0
  136.9580   75.9920  220.1760 C   0  0  0  0  0  0  0  0  0  0  0  0
  136.8390   74.5520  219.6640 C   0  0  0  0  0  0  0  0  0  0  0  0
  136.6030   73.8210  220.9860 C   0  0  1  0  0  0  0  0  0  0  0  0
  137.9070   73.2290  221.3870 C   0  0  0  0  0  0  0  0  0  0  0  0
  138.0070   72.4360  222.4730 N   0  0  0  0  0  0  0  0  0  0  0  0
  139.1690   71.8740  222.8830 C   0  0  0  0  0  0  0  0  0  0  0  0
  139.2410   71.0350  224.0350 N   0  0  0  0  0  0  0  0  0  0  0  0
  138.2490   69.9990  224.1840 C   0  0  0  0  0  0  0  0  0  0  0  0
  138.8290   68.7660  224.8290 C   0  0  0  0  0  0  0  0  0  0  0  0
  139.5700   69.1200  226.0610 C   0  0  0  0  0  0  0  0  0  0  0  0
  139.5770   68.2740  227.1490 C   0  0  0  0  0  0  0  0  0  0  0  0
  140.2600   68.5860  228.3030 C   0  0  0  0  0  0  0  0  0  0  0  0
  140.9480   69.7970  228.3300 C   0  0  0  0  0  0  0  0  0  0  0  0
  140.9480   70.6510  227.2460 C   0  0  0  0  0  0  0  0  0  0  0  0
  140.2560   70.3140  226.1040 C   0  0  0  0  0  0  0  0  0  0  0  0
  140.2960   71.2770  224.9730 C   0  0  0  0  0  0  0  0  0  0  0  0
  140.2750   72.1510  222.1340 N   0  0  0  0  0  0  0  0  0  0  0  0
  140.2270   72.9370  221.0430 C   0  0  0  0  0  0  0  0  0  0  0  0
  141.4240   73.1790  220.3150 N   0  0  0  0  0  0  0  0  0  0  0  0
  141.6800   72.3020  219.1760 C   0  0  0  0  0  0  0  0  0  0  0  0
  142.8460   71.4190  219.6380 C   0  0  0  0  0  0  0  0  0  0  0  0
  143.9570   72.3600  219.9610 C   0  0  0  0  0  0  0  0  0  0  0  0
  145.2450   71.8540  219.7720 C   0  0  0  0  0  0  0  0  0  0  0  0
  146.3170   72.6700  220.0500 C   0  0  0  0  0  0  0  0  0  0  0  0
  146.1230   73.9700  220.5080 C   0  0  0  0  0  0  0  0  0  0  0  0
  144.8460   74.4540  220.6890 C   0  0  0  0  0  0  0  0  0  0  0  0
  143.7380   73.6450  220.4140 C   0  0  0  0  0  0  0  0  0  0  0  0
  142.3670   74.2010  220.6200 C   0  0  0  0  0  0  0  0  0  0  0  0
  139.0320   73.4580  220.6990 N   0  0  0  0  0  0  0  0  0  0  0  0
  136.0690   74.8340  221.9600 C   0  0  0  0  0  0  0  0  0  0  0  0
  138.9130   77.2890  222.5770 C   0  0  0  0  0  0  0  0  0  0  0  0
  140.1000   78.0220  222.4710 C   0  0  0  0  0  0  0  0  0  0  0  0
  143.3050   79.2640  221.6890 H   0  0  0  0  0  0  0  0  0  0  0  0
  142.6870   78.3670  222.9570 H   0  0  0  0  0  0  0  0  0  0  0  0
  138.9523   81.0671  223.4148 H   0  0  0  0  0  0  0  0  0  0  0  0
  136.8736   79.7620  223.5926 H   0  0  0  0  0  0  0  0  0  0  0  0
  136.6127   76.1903  223.4455 H   0  0  0  0  0  0  0  0  0  0  0  0
  135.8506   77.7732  223.8719 H   0  0  0  0  0  0  0  0  0  0  0  0
  134.6063   77.3405  221.9990 H   0  0  0  0  0  0  0  0  0  0  0  0
  136.0206   78.0603  221.1725 H   0  0  0  0  0  0  0  0  0  0  0  0
  136.7695   76.7259  219.3786 H   0  0  0  0  0  0  0  0  0  0  0  0
  137.9525   76.2682  220.5565 H   0  0  0  0  0  0  0  0  0  0  0  0
  135.9907   74.4325  218.9740 H   0  0  0  0  0  0  0  0  0  0  0  0
  137.7014   74.1933  219.0829 H   0  0  0  0  0  0  0  0  0  0  0  0
  135.8696   73.0031  220.9286 H   0  0  0  0  0  0  0  0  0  0  0  0
  137.4283   70.3777  224.8110 H   0  0  0  0  0  0  0  0  0  0  0  0
  137.8836   69.7251  223.1833 H   0  0  0  0  0  0  0  0  0  0  0  0
  138.0129   68.0741  225.0845 H   0  0  0  0  0  0  0  0  0  0  0  0
  139.5246   68.2905  224.1218 H   0  0  0  0  0  0  0  0  0  0  0  0
  139.0228   67.3254  227.0940 H   0  0  0  0  0  0  0  0  0  0  0  0
  140.2623   67.9068  229.1683 H   0  0  0  0  0  0  0  0  0  0  0  0
  141.5041   70.0790  229.2362 H   0  0  0  0  0  0  0  0  0  0  0  0
  141.5007   71.6009  227.2941 H   0  0  0  0  0  0  0  0  0  0  0  0
  140.1933   72.2978  225.3699 H   0  0  0  0  0  0  0  0  0  0  0  0
  141.2557   71.1527  224.4500 H   0  0  0  0  0  0  0  0  0  0  0  0
  140.7944   71.6910  218.9469 H   0  0  0  0  0  0  0  0  0  0  0  0
  141.9118   72.8604  218.2571 H   0  0  0  0  0  0  0  0  0  0  0  0
  142.5605   70.8412  220.5295 H   0  0  0  0  0  0  0  0  0  0  0  0
  143.1386   70.6932  218.8649 H   0  0  0  0  0  0  0  0  0  0  0  0
  145.3986   70.8269  219.4093 H   0  0  0  0  0  0  0  0  0  0  0  0
  147.3398   72.2906  219.9087 H   0  0  0  0  0  0  0  0  0  0  0  0
  146.9899   74.6113  220.7255 H   0  0  0  0  0  0  0  0  0  0  0  0
  144.6966   75.4817  221.0516 H   0  0  0  0  0  0  0  0  0  0  0  0
  142.2470   74.5187  221.6663 H   0  0  0  0  0  0  0  0  0  0  0  0
  142.2078   75.0728  219.9683 H   0  0  0  0  0  0  0  0  0  0  0  0
  135.1020   74.5144  222.3756 H   0  0  0  0  0  0  0  0  0  0  0  0
  136.7207   74.9889  222.8325 H   0  0  0  0  0  0  0  0  0  0  0  0
  138.9084   76.2153  222.3377 H   0  0  0  0  0  0  0  0  0  0  0  0
  141.0241   77.5202  222.1482 H   0  0  0  0  0  0  0  0  0  0  0  0
  1  2  1  0
  2  3  2  0
  2  4  2  0
  2  5  1  0
  5  6  2  0
  6  7  1  0
  7  8  2  0
  8  9  1  0
  9 10  1  0
 10 11  1  0
 11 12  1  0
 12 13  1  0
 13 14  1  0
 14 15  1  0
 15 16  2  0
 16 17  1  0
 17 18  1  0
 18 19  1  0
 19 20  1  0
 20 21  1  0
 21 22  2  0
 22 23  1  0
 23 24  2  0
 24 25  1  0
 25 26  2  0
 26 27  1  0
 17 28  2  0
 28 29  1  0
 29 30  1  0
 30 31  1  0
 31 32  1  0
 32 33  1  0
 33 34  2  0
 34 35  1  0
 35 36  2  0
 36 37  1  0
 37 38  2  0
 38 39  1  0
 29 40  2  0
 14 41  1  0
  8 42  1  0
 42 43  2  0
 43  5  1  0
 41 11  1  0
 40 15  1  0
 27 18  1  0
 39 30  1  0
 26 21  1  0
 38 33  1  0
  1 44  1  0
  1 45  1  0
  6 46  1  0
  7 47  1  0
  9 48  1  0
  9 49  1  0
 10 50  1  0
 10 51  1  0
 12 52  1  0
 12 53  1  0
 13 54  1  0
 13 55  1  0
 14 56  1  6
 19 57  1  0
 19 58  1  0
 20 59  1  0
 20 60  1  0
 22 61  1  0
 23 62  1  0
 24 63  1  0
 25 64  1  0
 27 65  1  0
 27 66  1  0
 31 67  1  0
 31 68  1  0
 32 69  1  0
 32 70  1  0
 34 71  1  0
 35 72  1  0
 36 73  1  0
 37 74  1  0
 39 75  1  0
 39 76  1  0
 41 77  1  0
 41 78  1  0
 42 79  1  0
 43 80  1  0
M  END
>  <smiles>  (98) 
NS(=O)(=O)c1ccc(CCN2CCC(c3nc(N4CCc5ccccc5C4)nc(N4CCc5ccccc5C4)n3)C2)cc1

>  <score_type>  (98) 
oracle

>  <origin>  (98) 
autodockgpu

>  <m_score__min__energy>  (98) 
-10.83

>  <m_primary>  (98) 
energy

>  <rmsd>  (98) 
4.862015931509055

>  <m_score__min__rmsd>  (98) 
4.862015931509055

>  <meeko>  (98) 
{"free_energy": -10.67, "intermolecular_energy": -13.06, "internal_energy": -1.92, "cluster_size": 7, "cluster_id": 2, "rank_in_cluster": 1}

>  <energy>  (98) 
-7.08

>  <cluster_rmsd>  (98) 
1.44

>  <cluster>  (98) 
16

$$$$

     RDKit          3D

 80 86  0  0  1  0  0  0  0  0999 V2000
  141.1130   68.0570  228.8970 N   0  0  0  0  0  0  0  0  0  0  0  0
  140.3550   69.4960  228.2730 S   0  0  0  0  0  0  0  0  0  0  0  0
  139.1360   69.7600  229.1310 O   0  0  0  0  0  0  0  0  0  0  0  0
  141.3130   70.6500  228.3150 O   0  0  0  0  0  0  0  0  0  0  0  0
  139.8490   69.2580  226.6260 C   0  0  0  0  0  0  0  0  0  0  0  0
  139.6220   67.9660  226.2020 C   0  0  0  0  0  0  0  0  0  0  0  0
  139.2220   67.7360  224.9060 C   0  0  0  0  0  0  0  0  0  0  0  0
  139.0350   68.7620  223.9960 C   0  0  0  0  0  0  0  0  0  0  0  0
  138.6020   68.3830  222.6350 C   0  0  0  0  0  0  0  0  0  0  0  0
  137.1880   68.8760  222.3530 C   0  0  0  0  0  0  0  0  0  0  0  0
  137.2670   70.0110  221.5100 N   0  0  0  0  0  0  0  0  0  0  0  0
  136.0350   70.6530  221.2090 C   0  0  0  0  0  0  0  0  0  0  0  0
  136.5290   71.7350  220.2400 C   0  0  0  0  0  0  0  0  0  0  0  0
  137.8180   72.1540  220.9500 C   0  0  1  0  0  0  0  0  0  0  0  0
  137.5120   73.4090  221.6870 C   0  0  0  0  0  0  0  0  0  0  0  0
  136.5180   73.4540  222.5980 N   0  0  0  0  0  0  0  0  0  0  0  0
  136.1960   74.5700  223.2950 C   0  0  0  0  0  0  0  0  0  0  0  0
  135.1410   74.5860  224.2560 N   0  0  0  0  0  0  0  0  0  0  0  0
  134.2550   73.4490  224.3110 C   0  0  0  0  0  0  0  0  0  0  0  0
  133.8120   73.1600  225.7230 C   0  0  0  0  0  0  0  0  0  0  0  0
  133.3120   74.3900  226.3760 C   0  0  0  0  0  0  0  0  0  0  0  0
  132.2700   74.3380  227.2780 C   0  0  0  0  0  0  0  0  0  0  0  0
  131.7910   75.4710  227.8950 C   0  0  0  0  0  0  0  0  0  0  0  0
  132.4010   76.6820  227.5720 C   0  0  0  0  0  0  0  0  0  0  0  0
  133.4440   76.7440  226.6710 C   0  0  0  0  0  0  0  0  0  0  0  0
  133.9040   75.5960  226.0680 C   0  0  0  0  0  0  0  0  0  0  0  0
  135.0300   75.7330  225.1080 C   0  0  0  0  0  0  0  0  0  0  0  0
  136.9350   75.6860  223.0320 N   0  0  0  0  0  0  0  0  0  0  0  0
  137.9350   75.6910  222.1320 C   0  0  0  0  0  0  0  0  0  0  0  0
  138.6600   76.8940  221.9130 N   0  0  0  0  0  0  0  0  0  0  0  0
  139.8690   76.7850  221.1020 C   0  0  0  0  0  0  0  0  0  0  0  0
  141.0130   76.9820  222.1060 C   0  0  0  0  0  0  0  0  0  0  0  0
  140.7870   78.3270  222.7090 C   0  0  0  0  0  0  0  0  0  0  0  0
  141.9400   79.0000  223.1190 C   0  0  0  0  0  0  0  0  0  0  0  0
  141.8050   80.2470  223.6840 C   0  0  0  0  0  0  0  0  0  0  0  0
  140.5490   80.8250  223.8440 C   0  0  0  0  0  0  0  0  0  0  0  0
  139.4210   80.1470  223.4340 C   0  0  0  0  0  0  0  0  0  0  0  0
  139.5300   78.8780  222.8570 C   0  0  0  0  0  0  0  0  0  0  0  0
  138.2880   78.1700  222.4230 C   0  0  0  0  0  0  0  0  0  0  0  0
  138.1950   74.5400  221.4800 N   0  0  0  0  0  0  0  0  0  0  0  0
  138.2240   71.0100  221.8370 C   0  0  0  0  0  0  0  0  0  0  0  0
  139.2610   70.0520  224.4150 C   0  0  0  0  0  0  0  0  0  0  0  0
  139.6680   70.3040  225.7300 C   0  0  0  0  0  0  0  0  0  0  0  0
  140.8150   67.2670  228.2510 H   0  0  0  0  0  0  0  0  0  0  0  0
  140.6510   67.8190  229.8200 H   0  0  0  0  0  0  0  0  0  0  0  0
  139.7599   67.1238  226.8960 H   0  0  0  0  0  0  0  0  0  0  0  0
  139.0445   66.7001  224.5815 H   0  0  0  0  0  0  0  0  0  0  0  0
  139.2907   68.8280  221.9017 H   0  0  0  0  0  0  0  0  0  0  0  0
  138.6118   67.2858  222.5577 H   0  0  0  0  0  0  0  0  0  0  0  0
  136.6112   68.0831  221.8544 H   0  0  0  0  0  0  0  0  0  0  0  0
  136.6866   69.1411  223.2955 H   0  0  0  0  0  0  0  0  0  0  0  0
  135.3240   69.9664  220.7263 H   0  0  0  0  0  0  0  0  0  0  0  0
  135.4832   71.0301  222.0827 H   0  0  0  0  0  0  0  0  0  0  0  0
  136.7283   71.3266  219.2383 H   0  0  0  0  0  0  0  0  0  0  0  0
  135.8158   72.5511  220.0520 H   0  0  0  0  0  0  0  0  0  0  0  0
  138.6621   72.3611  220.2758 H   0  0  0  0  0  0  0  0  0  0  0  0
  133.3684   73.6568  223.6939 H   0  0  0  0  0  0  0  0  0  0  0  0
  134.7983   72.5702  223.9336 H   0  0  0  0  0  0  0  0  0  0  0  0
  133.0081   72.4095  225.7028 H   0  0  0  0  0  0  0  0  0  0  0  0
  134.6730   72.7815  226.2935 H   0  0  0  0  0  0  0  0  0  0  0  0
  131.8101   73.3661  227.5102 H   0  0  0  0  0  0  0  0  0  0  0  0
  130.9601   75.4229  228.6142 H   0  0  0  0  0  0  0  0  0  0  0  0
  132.0431   77.6081  228.0456 H   0  0  0  0  0  0  0  0  0  0  0  0
  133.9085   77.7126  226.4344 H   0  0  0  0  0  0  0  0  0  0  0  0
  134.8620   76.6245  224.4859 H   0  0  0  0  0  0  0  0  0  0  0  0
  135.9629   75.8249  225.6836 H   0  0  0  0  0  0  0  0  0  0  0  0
  139.9326   75.7948  220.6271 H   0  0  0  0  0  0  0  0  0  0  0  0
  139.8953   77.5189  220.2830 H   0  0  0  0  0  0  0  0  0  0  0  0
  140.9820   76.2028  222.8818 H   0  0  0  0  0  0  0  0  0  0  0  0
  141.9979   76.9126  221.6211 H   0  0  0  0  0  0  0  0  0  0  0  0
  142.9329   78.5436  222.9931 H   0  0  0  0  0  0  0  0  0  0  0  0
  142.7007   80.7940  224.0134 H   0  0  0  0  0  0  0  0  0  0  0  0
  140.4565   81.8228  224.2976 H   0  0  0  0  0  0  0  0  0  0  0  0
  138.4298   80.6067  223.5614 H   0  0  0  0  0  0  0  0  0  0  0  0
  137.6110   78.0454  223.2810 H   0  0  0  0  0  0  0  0  0  0  0  0
  137.7688   78.7529  221.6480 H   0  0  0  0  0  0  0  0  0  0  0  0
  139.2453   70.6722  221.6073 H   0  0  0  0  0  0  0  0  0  0  0  0
  138.2394   71.2687  222.9061 H   0  0  0  0  0  0  0  0  0  0  0  0
  139.1215   70.8885  223.7144 H   0  0  0  0  0  0  0  0  0  0  0  0
  139.8461   71.3391  226.0569 H   0  0  0  0  0  0  0  0  0  0  0  0
  1  2  1  0
  2  3  2  0
  2  4  2  0
  2  5  1  0
  5  6  2  0
  6  7  1  0
  7  8  2  0
  8  9  1  0
  9 10  1  0
 10 11  1  0
 11 12  1  0
 12 13  1  0
 13 14  1  0
 14 15  1  0
 15 16  2  0
 16 17  1  0
 17 18  1  0
 18 19  1  0
 19 20  1  0
 20 21  1  0
 21 22  2  0
 22 23  1  0
 23 24  2  0
 24 25  1  0
 25 26  2  0
 26 27  1  0
 17 28  2  0
 28 29  1  0
 29 30  1  0
 30 31  1  0
 31 32  1  0
 32 33  1  0
 33 34  2  0
 34 35  1  0
 35 36  2  0
 36 37  1  0
 37 38  2  0
 38 39  1  0
 29 40  2  0
 14 41  1  0
  8 42  1  0
 42 43  2  0
 43  5  1  0
 41 11  1  0
 40 15  1  0
 27 18  1  0
 39 30  1  0
 26 21  1  0
 38 33  1  0
  1 44  1  0
  1 45  1  0
  6 46  1  0
  7 47  1  0
  9 48  1  0
  9 49  1  0
 10 50  1  0
 10 51  1  0
 12 52  1  0
 12 53  1  0
 13 54  1  0
 13 55  1  0
 14 56  1  6
 19 57  1  0
 19 58  1  0
 20 59  1  0
 20 60  1  0
 22 61  1  0
 23 62  1  0
 24 63  1  0
 25 64  1  0
 27 65  1  0
 27 66  1  0
 31 67  1  0
 31 68  1  0
 32 69  1  0
 32 70  1  0
 34 71  1  0
 35 72  1  0
 36 73  1  0
 37 74  1  0
 39 75  1  0
 39 76  1  0
 41 77  1  0
 41 78  1  0
 42 79  1  0
 43 80  1  0
M  END
>  <smiles>  (99) 
NS(=O)(=O)c1ccc(CCN2CCC(c3nc(N4CCc5ccccc5C4)nc(N4CCc5ccccc5C4)n3)C2)cc1

>  <score_type>  (99) 
oracle

>  <origin>  (99) 
autodockgpu

>  <m_score__min__energy>  (99) 
-10.83

>  <m_primary>  (99) 
energy

>  <rmsd>  (99) 
10.976707191178818

>  <m_score__min__rmsd>  (99) 
10.976707191178818

>  <meeko>  (99) 
{"free_energy": -10.17, "intermolecular_energy": -12.56, "internal_energy": -1.52, "cluster_size": 5, "cluster_id": 4, "rank_in_cluster": 4}

>  <energy>  (99) 
-7.04

>  <cluster_rmsd>  (99) 
0.0

>  <cluster>  (99) 
17

$$$$

     RDKit          3D

 80 86  0  0  1  0  0  0  0  0999 V2000
  143.3300   80.6890  217.8420 N   0  0  0  0  0  0  0  0  0  0  0  0
  142.0880   79.8060  218.6870 S   0  0  0  0  0  0  0  0  0  0  0  0
  142.1970   80.1810  220.1490 O   0  0  0  0  0  0  0  0  0  0  0  0
  140.7370   80.1490  218.1330 O   0  0  0  0  0  0  0  0  0  0  0  0
  142.3330   78.0910  218.5210 C   0  0  0  0  0  0  0  0  0  0  0  0
  142.5920   77.3650  219.6640 C   0  0  0  0  0  0  0  0  0  0  0  0
  142.7920   76.0070  219.5760 C   0  0  0  0  0  0  0  0  0  0  0  0
  142.7450   75.3290  218.3690 C   0  0  0  0  0  0  0  0  0  0  0  0
  142.9760   73.8700  218.4080 C   0  0  0  0  0  0  0  0  0  0  0  0
  143.0470   73.3650  219.8440 C   0  0  0  0  0  0  0  0  0  0  0  0
  141.7550   72.9330  220.2330 N   0  0  0  0  0  0  0  0  0  0  0  0
  141.5770   72.6590  221.6160 C   0  0  0  0  0  0  0  0  0  0  0  0
  140.1280   72.1550  221.6020 C   0  0  0  0  0  0  0  0  0  0  0  0
  139.5150   73.1470  220.6120 C   0  0  1  0  0  0  0  0  0  0  0  0
  138.8100   74.1770  221.4200 C   0  0  0  0  0  0  0  0  0  0  0  0
  139.3860   75.3680  221.6840 N   0  0  0  0  0  0  0  0  0  0  0  0
  138.7900   76.3390  222.4160 C   0  0  0  0  0  0  0  0  0  0  0  0
  139.4250   77.5910  222.6740 N   0  0  0  0  0  0  0  0  0  0  0  0
  138.5940   78.7640  222.7860 C   0  0  0  0  0  0  0  0  0  0  0  0
  139.1370   79.7320  223.8060 C   0  0  0  0  0  0  0  0  0  0  0  0
  140.5750   79.9910  223.5690 C   0  0  0  0  0  0  0  0  0  0  0  0
  141.1200   81.2330  223.8150 C   0  0  0  0  0  0  0  0  0  0  0  0
  142.4540   81.4920  223.5990 C   0  0  0  0  0  0  0  0  0  0  0  0
  143.2390   80.4450  223.1190 C   0  0  0  0  0  0  0  0  0  0  0  0
  142.7030   79.1990  222.8690 C   0  0  0  0  0  0  0  0  0  0  0  0
  141.3650   78.9670  223.0940 C   0  0  0  0  0  0  0  0  0  0  0  0
  140.8510   77.6030  222.8050 C   0  0  0  0  0  0  0  0  0  0  0  0
  137.5440   76.0600  222.8960 N   0  0  0  0  0  0  0  0  0  0  0  0
  136.9280   74.8890  222.6610 C   0  0  0  0  0  0  0  0  0  0  0  0
  135.6290   74.6730  223.1960 N   0  0  0  0  0  0  0  0  0  0  0  0
  134.7080   75.8050  223.1440 C   0  0  0  0  0  0  0  0  0  0  0  0
  134.5850   76.2560  224.6050 C   0  0  0  0  0  0  0  0  0  0  0  0
  134.0710   75.0690  225.3480 C   0  0  0  0  0  0  0  0  0  0  0  0
  133.2870   75.3560  226.4670 C   0  0  0  0  0  0  0  0  0  0  0  0
  132.7790   74.3080  227.1980 C   0  0  0  0  0  0  0  0  0  0  0  0
  133.0390   72.9910  226.8320 C   0  0  0  0  0  0  0  0  0  0  0  0
  133.8140   72.7250  225.7230 C   0  0  0  0  0  0  0  0  0  0  0  0
  134.3430   73.7720  224.9630 C   0  0  0  0  0  0  0  0  0  0  0  0
  135.1790   73.4480  223.7680 C   0  0  0  0  0  0  0  0  0  0  0  0
  137.5870   73.9730  221.9230 N   0  0  0  0  0  0  0  0  0  0  0  0
  140.6410   73.6920  219.7800 C   0  0  0  0  0  0  0  0  0  0  0  0
  142.4880   76.0500  217.2280 C   0  0  0  0  0  0  0  0  0  0  0  0
  142.2820   77.4330  217.3000 C   0  0  0  0  0  0  0  0  0  0  0  0
  143.0310   80.7090  216.8220 H   0  0  0  0  0  0  0  0  0  0  0  0
  144.2080   80.0960  217.8390 H   0  0  0  0  0  0  0  0  0  0  0  0
  142.6384   77.8688  220.6407 H   0  0  0  0  0  0  0  0  0  0  0  0
  142.9964   75.4397  220.4960 H   0  0  0  0  0  0  0  0  0  0  0  0
  142.1505   73.3614  217.8885 H   0  0  0  0  0  0  0  0  0  0  0  0
  143.9346   73.6543  217.9135 H   0  0  0  0  0  0  0  0  0  0  0  0
  143.7539   72.5246  219.9072 H   0  0  0  0  0  0  0  0  0  0  0  0
  143.3917   74.1698  220.5099 H   0  0  0  0  0  0  0  0  0  0  0  0
  142.2746   71.8868  221.9725 H   0  0  0  0  0  0  0  0  0  0  0  0
  141.7652   73.5112  222.2856 H   0  0  0  0  0  0  0  0  0  0  0  0
  140.0590   71.1191  221.2384 H   0  0  0  0  0  0  0  0  0  0  0  0
  139.6390   72.1191  222.5867 H   0  0  0  0  0  0  0  0  0  0  0  0
  138.7816   72.7055  219.9212 H   0  0  0  0  0  0  0  0  0  0  0  0
  138.5486   79.2644  221.8074 H   0  0  0  0  0  0  0  0  0  0  0  0
  137.5922   78.4468  223.1112 H   0  0  0  0  0  0  0  0  0  0  0  0
  138.5830   80.6797  223.7350 H   0  0  0  0  0  0  0  0  0  0  0  0
  139.0173   79.2937  224.8078 H   0  0  0  0  0  0  0  0  0  0  0  0
  140.4721   82.0373  224.1935 H   0  0  0  0  0  0  0  0  0  0  0  0
  142.8835   82.4851  223.7971 H   0  0  0  0  0  0  0  0  0  0  0  0
  144.3100   80.6163  222.9355 H   0  0  0  0  0  0  0  0  0  0  0  0
  143.3450   78.3903  222.4897 H   0  0  0  0  0  0  0  0  0  0  0  0
  141.2983   77.2451  221.8659 H   0  0  0  0  0  0  0  0  0  0  0  0
  141.1236   76.9485  223.6461 H   0  0  0  0  0  0  0  0  0  0  0  0
  135.1171   76.6127  222.5193 H   0  0  0  0  0  0  0  0  0  0  0  0
  133.7367   75.5386  222.7016 H   0  0  0  0  0  0  0  0  0  0  0  0
  135.5669   76.5593  224.9974 H   0  0  0  0  0  0  0  0  0  0  0  0
  133.9160   77.1229  224.7089 H   0  0  0  0  0  0  0  0  0  0  0  0
  133.0804   76.3967  226.7572 H   0  0  0  0  0  0  0  0  0  0  0  0
  132.1593   74.5134  228.0833 H   0  0  0  0  0  0  0  0  0  0  0  0
  132.6266   72.1627  227.4269 H   0  0  0  0  0  0  0  0  0  0  0  0
  134.0171   71.6830  225.4348 H   0  0  0  0  0  0  0  0  0  0  0  0
  136.0432   72.8389  224.0718 H   0  0  0  0  0  0  0  0  0  0  0  0
  134.5895   72.8791  223.0340 H   0  0  0  0  0  0  0  0  0  0  0  0
  140.4582   73.5282  218.7077 H   0  0  0  0  0  0  0  0  0  0  0  0
  140.7785   74.7782  219.8864 H   0  0  0  0  0  0  0  0  0  0  0  0
  142.4440   75.5391  216.2549 H   0  0  0  0  0  0  0  0  0  0  0  0
  142.0781   78.0027  216.3814 H   0  0  0  0  0  0  0  0  0  0  0  0
  1  2  1  0
  2  3  2  0
  2  4  2  0
  2  5  1  0
  5  6  2  0
  6  7  1  0
  7  8  2  0
  8  9  1  0
  9 10  1  0
 10 11  1  0
 11 12  1  0
 12 13  1  0
 13 14  1  0
 14 15  1  0
 15 16  2  0
 16 17  1  0
 17 18  1  0
 18 19  1  0
 19 20  1  0
 20 21  1  0
 21 22  2  0
 22 23  1  0
 23 24  2  0
 24 25  1  0
 25 26  2  0
 26 27  1  0
 17 28  2  0
 28 29  1  0
 29 30  1  0
 30 31  1  0
 31 32  1  0
 32 33  1  0
 33 34  2  0
 34 35  1  0
 35 36  2  0
 36 37  1  0
 37 38  2  0
 38 39  1  0
 29 40  2  0
 14 41  1  0
  8 42  1  0
 42 43  2  0
 43  5  1  0
 41 11  1  0
 40 15  1  0
 27 18  1  0
 39 30  1  0
 26 21  1  0
 38 33  1  0
  1 44  1  0
  1 45  1  0
  6 46  1  0
  7 47  1  0
  9 48  1  0
  9 49  1  0
 10 50  1  0
 10 51  1  0
 12 52  1  0
 12 53  1  0
 13 54  1  0
 13 55  1  0
 14 56  1  6
 19 57  1  0
 19 58  1  0
 20 59  1  0
 20 60  1  0
 22 61  1  0
 23 62  1  0
 24 63  1  0
 25 64  1  0
 27 65  1  0
 27 66  1  0
 31 67  1  0
 31 68  1  0
 32 69  1  0
 32 70  1  0
 34 71  1  0
 35 72  1  0
 36 73  1  0
 37 74  1  0
 39 75  1  0
 39 76  1  0
 41 77  1  0
 41 78  1  0
 42 79  1  0
 43 80  1  0
M  END
>  <smiles>  (100) 
NS(=O)(=O)c1ccc(CCN2CCC(c3nc(N4CCc5ccccc5C4)nc(N4CCc5ccccc5C4)n3)C2)cc1

>  <score_type>  (100) 
oracle

>  <origin>  (100) 
autodockgpu

>  <m_score__min__energy>  (100) 
-10.83

>  <m_primary>  (100) 
energy

>  <rmsd>  (100) 
6.49358530474034

>  <m_score__min__rmsd>  (100) 
6.49358530474034

>  <meeko>  (100) 
{"free_energy": -9.77, "intermolecular_energy": -12.15, "internal_energy": -2.65, "cluster_size": 2, "cluster_id": 8, "rank_in_cluster": 2}

>  <energy>  (100) 
-6.6

>  <cluster_rmsd>  (100) 
0.0

>  <cluster>  (100) 
18

$$$$
