
     RDKit          3D

 74 80  0  0  0  0  0  0  0  0999 V2000
  139.4910   69.3730  228.1520 C   0  0  0  0  0  0  0  0  0  0  0  0
  140.3010   70.4710  228.3630 C   0  0  0  0  0  0  0  0  0  0  0  0
  140.8260   71.1750  227.2940 C   0  0  0  0  0  0  0  0  0  0  0  0
  140.5230   70.7580  226.0170 C   0  0  0  0  0  0  0  0  0  0  0  0
  139.7140   69.6620  225.7690 C   0  0  0  0  0  0  0  0  0  0  0  0
  139.2100   68.9870  226.8570 C   0  0  0  0  0  0  0  0  0  0  0  0
  139.4040   69.2350  224.3740 C   0  0  0  0  0  0  0  0  0  0  0  0
  139.1800   70.4300  223.4950 C   0  0  0  0  0  0  0  0  0  0  0  0
  140.2110   71.4470  223.6920 N   0  0  0  0  0  0  0  0  0  0  0  0
  140.3900   72.4550  222.6920 C   0  0  0  0  0  0  0  0  0  0  0  0
  141.4540   72.4500  221.8690 N   0  0  0  0  0  0  0  0  0  0  0  0
  141.6520   73.3730  220.9250 C   0  0  0  0  0  0  0  0  0  0  0  0
  142.7950   73.3500  220.0550 N   0  0  0  0  0  0  0  0  0  0  0  0
  143.7180   74.4350  219.9540 C   0  0  0  0  0  0  0  0  0  0  0  0
  143.2790   75.4600  218.9250 C   0  0  0  0  0  0  0  0  0  0  0  0
  143.0710   76.7680  219.6240 C   0  0  0  0  0  0  0  0  0  0  0  0
  141.6310   77.1320  219.7990 C   0  0  0  0  0  0  0  0  0  0  0  0
  141.4700   77.7130  221.1240 N   0  0  0  0  0  0  0  0  0  0  0  0
  141.2110   77.0310  222.2620 C   0  0  0  0  0  0  0  0  0  0  0  0
  141.1340   77.9180  223.2760 N   0  0  0  0  0  0  0  0  0  0  0  0
  141.3470   79.1610  222.7610 C   0  0  0  0  0  0  0  0  0  0  0  0
  141.3700   80.3910  223.3850 C   0  0  0  0  0  0  0  0  0  0  0  0
  141.6180   81.5160  222.5890 C   0  0  0  0  0  0  0  0  0  0  0  0
  141.8250   81.3700  221.2480 C   0  0  0  0  0  0  0  0  0  0  0  0
  141.8010   80.1380  220.6320 C   0  0  0  0  0  0  0  0  0  0  0  0
  141.5600   79.0350  221.4010 C   0  0  0  0  0  0  0  0  0  0  0  0
  140.7100   74.3460  220.8260 N   0  0  0  0  0  0  0  0  0  0  0  0
  139.6300   74.4080  221.6150 C   0  0  0  0  0  0  0  0  0  0  0  0
  138.6480   75.4420  221.4950 N   0  0  0  0  0  0  0  0  0  0  0  0
  138.1240   75.7770  220.1860 C   0  0  0  0  0  0  0  0  0  0  0  0
  136.7530   76.4340  220.3840 C   0  0  0  0  0  0  0  0  0  0  0  0
  137.0520   77.6740  221.1850 C   0  0  0  0  0  0  0  0  0  0  0  0
  136.6080   78.8970  220.7630 C   0  0  0  0  0  0  0  0  0  0  0  0
  136.8940   80.0200  221.5140 C   0  0  0  0  0  0  0  0  0  0  0  0
  137.6350   79.8550  222.6840 C   0  0  0  0  0  0  0  0  0  0  0  0
  138.0750   78.5960  223.0880 C   0  0  0  0  0  0  0  0  0  0  0  0
  137.7870   77.4750  222.3370 C   0  0  0  0  0  0  0  0  0  0  0  0
  138.2270   76.1060  222.7140 C   0  0  0  0  0  0  0  0  0  0  0  0
  139.4880   73.4430  222.5500 N   0  0  0  0  0  0  0  0  0  0  0  0
  141.0630   71.4810  224.8570 C   0  0  0  0  0  0  0  0  0  0  0  0
  139.0757   68.8140  229.0035 H   0  0  0  0  0  0  0  0  0  0  0  0
  140.5310   70.7890  229.3906 H   0  0  0  0  0  0  0  0  0  0  0  0
  141.4720   72.0496  227.4606 H   0  0  0  0  0  0  0  0  0  0  0  0
  138.5634   68.1130  226.6895 H   0  0  0  0  0  0  0  0  0  0  0  0
  140.2469   68.6486  223.9794 H   0  0  0  0  0  0  0  0  0  0  0  0
  138.4887   68.6250  224.3843 H   0  0  0  0  0  0  0  0  0  0  0  0
  139.1943   70.1069  222.4436 H   0  0  0  0  0  0  0  0  0  0  0  0
  138.2077   70.8719  223.7584 H   0  0  0  0  0  0  0  0  0  0  0  0
  142.9360   72.5070  219.4910 H   0  0  0  0  0  0  0  0  0  0  0  0
  143.7964   74.9272  220.9346 H   0  0  0  0  0  0  0  0  0  0  0  0
  144.6886   74.0272  219.6351 H   0  0  0  0  0  0  0  0  0  0  0  0
  144.0560   75.5696  218.1541 H   0  0  0  0  0  0  0  0  0  0  0  0
  142.3457   75.1360  218.4413 H   0  0  0  0  0  0  0  0  0  0  0  0
  143.5379   76.7089  220.6182 H   0  0  0  0  0  0  0  0  0  0  0  0
  143.5257   77.5462  218.9934 H   0  0  0  0  0  0  0  0  0  0  0  0
  141.3354   77.8635  219.0325 H   0  0  0  0  0  0  0  0  0  0  0  0
  140.9965   76.2396  219.6942 H   0  0  0  0  0  0  0  0  0  0  0  0
  141.0848   75.9416  222.3468 H   0  0  0  0  0  0  0  0  0  0  0  0
  141.1998   80.4846  224.4677 H   0  0  0  0  0  0  0  0  0  0  0  0
  141.6460   82.5169  223.0444 H   0  0  0  0  0  0  0  0  0  0  0  0
  142.0173   82.2656  220.6389 H   0  0  0  0  0  0  0  0  0  0  0  0
  141.9714   80.0449  219.5493 H   0  0  0  0  0  0  0  0  0  0  0  0
  138.8044   76.4766  219.6784 H   0  0  0  0  0  0  0  0  0  0  0  0
  138.0308   74.8728  219.5665 H   0  0  0  0  0  0  0  0  0  0  0  0
  136.3012   76.6943  219.4154 H   0  0  0  0  0  0  0  0  0  0  0  0
  136.0351   75.7694  220.8870 H   0  0  0  0  0  0  0  0  0  0  0  0
  136.0277   78.9853  219.8327 H   0  0  0  0  0  0  0  0  0  0  0  0
  136.5476   81.0153  221.1988 H   0  0  0  0  0  0  0  0  0  0  0  0
  137.8764   80.7345  223.2990 H   0  0  0  0  0  0  0  0  0  0  0  0
  138.6580   78.4949  224.0153 H   0  0  0  0  0  0  0  0  0  0  0  0
  139.0665   76.1613  223.4227 H   0  0  0  0  0  0  0  0  0  0  0  0
  137.4099   75.5520  223.1992 H   0  0  0  0  0  0  0  0  0  0  0  0
  142.0310   71.0319  224.5901 H   0  0  0  0  0  0  0  0  0  0  0  0
  141.1516   72.5363  225.1543 H   0  0  0  0  0  0  0  0  0  0  0  0
  1  2  2  0
  2  3  1  0
  3  4  2  0
  4  5  1  0
  5  6  2  0
  5  7  1  0
  7  8  1  0
  8  9  1  0
  9 10  1  0
 10 11  2  0
 11 12  1  0
 12 13  1  0
 13 14  1  0
 14 15  1  0
 15 16  1  0
 16 17  1  0
 17 18  1  0
 18 19  1  0
 19 20  2  0
 20 21  1  0
 21 22  2  0
 22 23  1  0
 23 24  2  0
 24 25  1  0
 25 26  2  0
 12 27  2  0
 27 28  1  0
 28 29  1  0
 29 30  1  0
 30 31  1  0
 31 32  1  0
 32 33  2  0
 33 34  1  0
 34 35  2  0
 35 36  1  0
 36 37  2  0
 37 38  1  0
 28 39  2  0
  9 40  1  0
  6  1  1  0
 39 10  1  0
 40  4  1  0
 26 18  1  0
 38 29  1  0
 26 21  1  0
 37 32  1  0
  1 41  1  0
  2 42  1  0
  3 43  1  0
  6 44  1  0
  7 45  1  0
  7 46  1  0
  8 47  1  0
  8 48  1  0
 13 49  1  0
 14 50  1  0
 14 51  1  0
 15 52  1  0
 15 53  1  0
 16 54  1  0
 16 55  1  0
 17 56  1  0
 17 57  1  0
 19 58  1  0
 22 59  1  0
 23 60  1  0
 24 61  1  0
 25 62  1  0
 30 63  1  0
 30 64  1  0
 31 65  1  0
 31 66  1  0
 33 67  1  0
 34 68  1  0
 35 69  1  0
 36 70  1  0
 38 71  1  0
 38 72  1  0
 40 73  1  0
 40 74  1  0
M  END
