
     RDKit          3D

 70 76  0  0  1  0  0  0  0  0999 V2000
  140.1590   75.7590  219.3660 O   0  0  0  0  0  0  0  0  0  0  0  0
  139.9640   75.6900  220.6170 C   0  0  0  0  0  0  0  0  0  0  0  0
  140.2960   76.8880  221.3700 C   0  0  0  0  0  0  0  0  0  0  0  0
  139.4060   77.6730  222.0870 C   0  0  0  0  0  0  0  0  0  0  0  0
  140.0990   78.6830  222.6620 C   0  0  0  0  0  0  0  0  0  0  0  0
  139.7350   79.7440  223.4480 C   0  0  0  0  0  0  0  0  0  0  0  0
  138.4060   80.0710  223.8920 C   0  0  0  0  0  0  0  0  0  0  0  0
  138.0500   80.9460  224.8790 C   0  0  0  0  0  0  0  0  0  0  0  0
  136.6990   81.1950  225.1590 C   0  0  0  0  0  0  0  0  0  0  0  0
  135.6810   80.5880  224.4690 C   0  0  0  0  0  0  0  0  0  0  0  0
  136.0800   79.7000  223.4630 C   0  0  0  0  0  0  0  0  0  0  0  0
  137.3780   79.4830  223.2210 N   0  0  0  0  0  0  0  0  0  0  0  0
  140.7580   80.6040  223.8250 C   0  0  0  0  0  0  0  0  0  0  0  0
  142.0700   80.4230  223.4470 C   0  0  0  0  0  0  0  0  0  0  0  0
  142.4350   79.3540  222.6600 C   0  0  0  0  0  0  0  0  0  0  0  0
  141.4280   78.4920  222.2760 C   0  0  0  0  0  0  0  0  0  0  0  0
  141.5290   77.4030  221.4970 N   0  0  0  0  0  0  0  0  0  0  0  0
  139.4460   74.4890  221.2120 N   0  0  0  0  0  0  0  0  0  0  0  0
  140.1950   73.2550  221.1940 C   0  0  0  0  0  0  0  0  0  0  0  0
  139.3800   72.3010  222.0000 C   0  0  1  0  0  0  0  0  0  0  0  0
  139.0880   71.0190  221.2520 C   0  0  0  0  0  0  0  0  0  0  0  0
  139.2160   69.9940  222.3360 C   0  0  0  0  0  0  0  0  0  0  0  0
  139.9730   70.4910  223.4160 N   0  0  0  0  0  0  0  0  0  0  0  0
  139.5820   70.1920  224.7300 C   0  0  0  0  0  0  0  0  0  0  0  0
  140.6120   69.9980  225.7790 C   0  0  2  0  0  0  0  0  0  0  0  0
  140.1450   69.2870  227.0110 C   0  0  0  0  0  0  0  0  0  0  0  0
  139.5680   70.1690  228.0780 C   0  0  0  0  0  0  0  0  0  0  0  0
  140.2970   71.4450  228.3000 C   0  0  0  0  0  0  0  0  0  0  0  0
  141.0180   71.9800  227.2140 N   0  0  0  0  0  0  0  0  0  0  0  0
  141.4450   71.1520  226.1670 C   0  0  0  0  0  0  0  0  0  0  0  0
  140.1670   71.8880  223.1960 C   0  0  0  0  0  0  0  0  0  0  0  0
  138.1600   73.0490  222.3220 C   0  0  0  0  0  0  0  0  0  0  0  0
  137.0290   72.6130  223.0100 C   0  0  0  0  0  0  0  0  0  0  0  0
  135.9440   73.4290  223.2450 C   0  0  0  0  0  0  0  0  0  0  0  0
  135.9830   74.7240  222.7800 C   0  0  0  0  0  0  0  0  0  0  0  0
  137.1040   75.1350  222.1050 C   0  0  0  0  0  0  0  0  0  0  0  0
  138.1980   74.3400  221.8590 C   0  0  0  0  0  0  0  0  0  0  0  0
  138.3226   77.5038  222.1736 H   0  0  0  0  0  0  0  0  0  0  0  0
  138.8305   81.4598  225.4593 H   0  0  0  0  0  0  0  0  0  0  0  0
  136.4462   81.9033  225.9617 H   0  0  0  0  0  0  0  0  0  0  0  0
  134.6220   80.7856  224.6911 H   0  0  0  0  0  0  0  0  0  0  0  0
  135.3194   79.1757  222.8659 H   0  0  0  0  0  0  0  0  0  0  0  0
  140.5088   81.4705  224.4551 H   0  0  0  0  0  0  0  0  0  0  0  0
  142.8350   81.1409  223.7778 H   0  0  0  0  0  0  0  0  0  0  0  0
  143.4789   79.1946  222.3521 H   0  0  0  0  0  0  0  0  0  0  0  0
  142.3940   77.0030  221.0540 H   0  0  0  0  0  0  0  0  0  0  0  0
  140.3131   72.8887  220.1635 H   0  0  0  0  0  0  0  0  0  0  0  0
  141.2095   73.3798  221.6005 H   0  0  0  0  0  0  0  0  0  0  0  0
  138.0739   71.0264  220.8258 H   0  0  0  0  0  0  0  0  0  0  0  0
  139.7528   70.8437  220.3933 H   0  0  0  0  0  0  0  0  0  0  0  0
  138.2121   69.7233  222.6951 H   0  0  0  0  0  0  0  0  0  0  0  0
  139.7297   69.1124  221.9250 H   0  0  0  0  0  0  0  0  0  0  0  0
  138.9367   71.0171  225.0659 H   0  0  0  0  0  0  0  0  0  0  0  0
  139.1202   69.1978  224.6388 H   0  0  0  0  0  0  0  0  0  0  0  0
  141.2793   69.3362  225.2074 H   0  0  0  0  0  0  0  0  0  0  0  0
  139.3723   68.5628  226.7136 H   0  0  0  0  0  0  0  0  0  0  0  0
  141.0387   68.8205  227.4512 H   0  0  0  0  0  0  0  0  0  0  0  0
  138.5326   70.4119  227.7970 H   0  0  0  0  0  0  0  0  0  0  0  0
  139.6440   69.6037  229.0186 H   0  0  0  0  0  0  0  0  0  0  0  0
  139.5566   72.1983  228.6070 H   0  0  0  0  0  0  0  0  0  0  0  0
  141.0622   71.2032  229.0524 H   0  0  0  0  0  0  0  0  0  0  0  0
  140.7640   72.9380  226.9360 H   0  0  0  0  0  0  0  0  0  0  0  0
  141.5488   71.7881  225.2756 H   0  0  0  0  0  0  0  0  0  0  0  0
  142.3660   70.6923  226.5548 H   0  0  0  0  0  0  0  0  0  0  0  0
  139.8245   72.4517  224.0763 H   0  0  0  0  0  0  0  0  0  0  0  0
  141.2345   72.0949  223.0299 H   0  0  0  0  0  0  0  0  0  0  0  0
  137.0016   71.5773  223.3797 H   0  0  0  0  0  0  0  0  0  0  0  0
  135.0663   73.0540  223.7919 H   0  0  0  0  0  0  0  0  0  0  0  0
  135.1390   75.4098  222.9451 H   0  0  0  0  0  0  0  0  0  0  0  0
  137.1293   76.1708  221.7356 H   0  0  0  0  0  0  0  0  0  0  0  0
  1  2  2  0
  2  3  1  0
  3  4  2  0
  4  5  1  0
  5  6  2  0
  6  7  1  0
  7  8  2  0
  8  9  1  0
  9 10  2  0
 10 11  1  0
 11 12  2  0
  6 13  1  0
 13 14  2  0
 14 15  1  0
 15 16  2  0
 16 17  1  0
  2 18  1  0
 18 19  1  0
 20 19  1  6
 20 21  1  0
 21 22  1  0
 22 23  1  0
 23 24  1  0
 24 25  1  0
 25 26  1  0
 26 27  1  0
 27 28  1  0
 28 29  1  0
 29 30  1  0
 23 31  1  0
 20 32  1  0
 32 33  2  0
 33 34  1  0
 34 35  2  0
 35 36  1  0
 36 37  2  0
 17  3  1  0
 37 18  1  0
 16  5  1  0
 31 20  1  0
 37 32  1  0
 12  7  1  0
 30 25  1  0
  4 38  1  0
  8 39  1  0
  9 40  1  0
 10 41  1  0
 11 42  1  0
 13 43  1  0
 14 44  1  0
 15 45  1  0
 17 46  1  0
 19 47  1  0
 19 48  1  0
 21 49  1  0
 21 50  1  0
 22 51  1  0
 22 52  1  0
 24 53  1  0
 24 54  1  0
 25 55  1  6
 26 56  1  0
 26 57  1  0
 27 58  1  0
 27 59  1  0
 28 60  1  0
 28 61  1  0
 29 62  1  0
 30 63  1  0
 30 64  1  0
 31 65  1  0
 31 66  1  0
 33 67  1  0
 34 68  1  0
 35 69  1  0
 36 70  1  0
M  END
