@<TRIPOS>MOLECULE
*****
 63 66 0 0 0
SMALL
GASTEIGER

@<TRIPOS>ATOM
      1 C         139.0140   85.2820  220.8140 C.3     1  UNL1        0.0788
      2 O         138.5240   84.0340  221.2070 O.3     1  UNL1       -0.4951
      3 C         139.2820   82.9570  221.6240 C.ar    1  UNL1        0.1215
      4 C         140.6550   82.9860  221.3910 C.ar    1  UNL1       -0.0196
      5 C         141.4750   81.9350  221.7870 C.ar    1  UNL1       -0.0520
      6 C         140.9490   80.8080  222.4340 C.ar    1  UNL1       -0.0090
      7 C         141.8810   79.7640  222.8230 C.3     1  UNL1        0.0470
      8 C         143.3340   80.1650  222.8250 C.3     1  UNL1       -0.0424
      9 N         141.7530   78.5210  222.0790 N.am    1  UNL1       -0.3072
     10 C         141.5740   78.4890  220.6620 C.2     1  UNL1        0.2341
     11 O         141.5160   79.5600  219.9680 O.2     1  UNL1       -0.2738
     12 C         141.4590   77.1450  220.0380 C.3     1  UNL1        0.1047
     13 C         140.8900   77.2670  218.6140 C.3     1  UNL1        0.0018
     14 C         139.4980   77.7620  218.9480 C.3     1  UNL1        0.0731
     15 O         138.6040   77.5480  217.9080 O.3     1  UNL1       -0.3902
     16 C         139.1070   77.0290  220.2190 C.3     1  UNL1        0.0416
     17 N         140.3670   76.3910  220.6300 N.am    1  UNL1       -0.2861
     18 C         140.4910   75.2210  221.4660 C.2     1  UNL1        0.2334
     19 O         141.3900   75.1910  222.3440 O.2     1  UNL1       -0.2739
     20 C         139.5350   74.1000  221.2380 C.3     1  UNL1        0.0887
     21 N         139.6120   73.1700  222.3480 N.am    1  UNL1       -0.3015
     22 C         139.2630   71.8000  222.2470 C.2     1  UNL1        0.2628
     23 O         138.8540   71.3020  221.1470 O.2     1  UNL1       -0.2685
     24 C         139.3720   70.9310  223.4290 C.ar    1  UNL1        0.1260
     25 C         138.9050   69.6390  223.4470 C.ar    1  UNL1       -0.0306
     26 C         139.0140   68.8240  224.5680 C.ar    1  UNL1       -0.0503
     27 C         139.6180   69.3670  225.6760 C.ar    1  UNL1        0.0031
     28 C         139.7620   68.6160  226.8310 C.ar    1  UNL1       -0.0173
     29 C         140.3650   69.1270  227.9720 C.ar    1  UNL1        0.1241
     30 F         140.5150   68.4110  229.1080 F       1  UNL1       -0.2055
     31 C         140.8250   70.4340  227.9180 C.ar    1  UNL1       -0.0244
     32 C         140.7060   71.2210  226.7970 C.ar    1  UNL1       -0.0330
     33 C         140.0920   70.6670  225.6720 C.ar    1  UNL1        0.0720
     34 N         139.9500   71.3930  224.5500 N.ar    1  UNL1       -0.2421
     35 C         139.5780   80.7850  222.6630 C.ar    1  UNL1        0.0494
     36 CL        138.9040   79.3910  223.4630 Cl      1  UNL1       -0.0831
     37 C         138.7700   81.8490  222.2590 C.ar    1  UNL1       -0.0013
     38 H         139.2492   85.8811  221.7061 H       1  UNL1        0.0660
     39 H         139.9253   85.1455  220.2132 H       1  UNL1        0.0660
     40 H         138.2533   85.8020  220.2132 H       1  UNL1        0.0660
     41 H         141.0986   83.8559  220.8846 H       1  UNL1        0.0654
     42 H         142.5557   81.9889  221.5890 H       1  UNL1        0.0622
     43 H         141.5678   79.5901  223.8630 H       1  UNL1        0.0546
     44 H         143.6861   80.2622  223.8626 H       1  UNL1        0.0251
     45 H         143.9271   79.3970  222.3069 H       1  UNL1        0.0251
     46 H         143.4492   81.1285  222.3069 H       1  UNL1        0.0251
     47 H         141.7950   77.6040  222.6200 H       1  UNL1        0.1493
     48 H         142.4602   76.6993  220.1324 H       1  UNL1        0.0597
     49 H         141.4506   77.9941  218.0081 H       1  UNL1        0.0313
     50 H         140.9300   76.3476  218.0114 H       1  UNL1        0.0313
     51 H         139.4783   78.8515  219.0980 H       1  UNL1        0.0610
     52 H         138.2030   76.6510  217.9850 H       1  UNL1        0.2098
     53 H         138.7497   77.7309  220.9869 H       1  UNL1        0.0490
     54 H         138.2847   76.3132  220.0727 H       1  UNL1        0.0490
     55 H         138.5125   74.4987  221.1632 H       1  UNL1        0.0558
     56 H         139.7934   73.5802  220.3037 H       1  UNL1        0.0558
     57 H         139.9390   73.4900  223.3030 H       1  UNL1        0.1496
     58 H         138.4278   69.2350  222.5420 H       1  UNL1        0.0641
     59 H         138.6341   67.7917  224.5678 H       1  UNL1        0.0625
     60 H         139.3866   67.5821  226.8444 H       1  UNL1        0.0653
     61 H         141.3061   70.8597  228.8110 H       1  UNL1        0.0647
     62 H         141.0826   72.2545  226.7867 H       1  UNL1        0.0640
     63 H         137.6887   81.8001  222.4547 H       1  UNL1        0.0669
@<TRIPOS>BOND
     1     1     2    1
     2     2     3    1
     3     3     4   ar
     4     4     5   ar
     5     5     6   ar
     6     6     7    1
     7     7     8    1
     8     7     9    1
     9     9    10   am
    10    10    11    2
    11    10    12    1
    12    12    13    1
    13    13    14    1
    14    14    15    1
    15    14    16    1
    16    16    17    1
    17    17    18   am
    18    18    19    2
    19    18    20    1
    20    20    21    1
    21    21    22   am
    22    22    23    2
    23    22    24    1
    24    24    25   ar
    25    25    26   ar
    26    26    27   ar
    27    27    28   ar
    28    28    29   ar
    29    29    30    1
    30    29    31   ar
    31    31    32   ar
    32    32    33   ar
    33    33    34   ar
    34     6    35   ar
    35    35    36    1
    36    35    37   ar
    37    37     3   ar
    38    17    12    1
    39    34    24   ar
    40    33    27   ar
    41     1    38    1
    42     1    39    1
    43     1    40    1
    44     4    41    1
    45     5    42    1
    46     7    43    1
    47     8    44    1
    48     8    45    1
    49     8    46    1
    50     9    47    1
    51    12    48    1
    52    13    49    1
    53    13    50    1
    54    14    51    1
    55    15    52    1
    56    16    53    1
    57    16    54    1
    58    20    55    1
    59    20    56    1
    60    21    57    1
    61    25    58    1
    62    26    59    1
    63    28    60    1
    64    31    61    1
    65    32    62    1
    66    37    63    1
