@<TRIPOS>MOLECULE
*****
 59 62 0 0 0
SMALL
GASTEIGER

@<TRIPOS>ATOM
      1 C         143.0190   79.8510  222.8200 C.3     1  UNL1       -0.0425
      2 C         141.5270   79.7090  222.9680 C.3     1  UNL1        0.0456
      3 N         141.0990   78.5470  222.2330 N.am    1  UNL1       -0.3072
      4 C         141.1810   78.4580  220.8170 C.2     1  UNL1        0.2340
      5 O         141.6480   79.4350  220.1760 O.2     1  UNL1       -0.2738
      6 C         140.7470   77.2730  220.0410 C.3     1  UNL1        0.1023
      7 C         141.4790   77.1860  218.7070 C.3     1  UNL1       -0.0243
      8 C         142.7630   76.5240  219.0860 C.3     1  UNL1       -0.0350
      9 C         142.4790   75.6430  220.2810 C.3     1  UNL1        0.0156
     10 N         141.1290   76.0140  220.6510 N.am    1  UNL1       -0.2886
     11 C         140.2590   75.2540  221.5060 C.2     1  UNL1        0.2334
     12 O         139.7530   75.7530  222.5530 O.2     1  UNL1       -0.2739
     13 C         139.9370   73.8350  221.1580 C.3     1  UNL1        0.0886
     14 N         139.8750   73.0760  222.3920 N.am    1  UNL1       -0.3027
     15 C         140.1780   71.7050  222.4170 C.2     1  UNL1        0.2445
     16 O         140.5210   71.0610  221.3680 O.2     1  UNL1       -0.2702
     17 C         140.1220   70.9180  223.6500 C.ar    1  UNL1        0.0373
     18 C         139.5310   69.6650  223.6160 C.ar    1  UNL1       -0.0490
     19 C         139.4460   68.8640  224.7540 C.ar    1  UNL1       -0.0532
     20 C         139.9630   69.3300  225.9530 C.ar    1  UNL1       -0.0151
     21 C         139.8630   68.5090  227.0690 C.ar    1  UNL1       -0.0187
     22 C         140.3750   68.9620  228.2710 C.ar    1  UNL1        0.1240
     23 F         140.2620   68.1390  229.3410 F       1  UNL1       -0.2055
     24 C         140.9730   70.2090  228.3430 C.ar    1  UNL1       -0.0259
     25 C         141.0650   71.0200  227.2080 C.ar    1  UNL1       -0.0513
     26 C         140.5520   70.5720  225.9970 C.ar    1  UNL1       -0.0170
     27 C         140.6230   71.3510  224.8430 C.ar    1  UNL1       -0.0419
     28 C         140.8980   80.9620  222.4660 C.ar    1  UNL1       -0.0275
     29 C         139.5170   81.1670  222.5430 C.ar    1  UNL1       -0.0568
     30 C         138.9340   82.3290  222.0770 C.ar    1  UNL1       -0.0614
     31 C         139.6900   83.3300  221.5190 C.ar    1  UNL1       -0.0617
     32 C         141.0660   83.1490  221.4320 C.ar    1  UNL1       -0.0614
     33 C         141.6250   81.9890  221.9000 C.ar    1  UNL1       -0.0568
     34 H         143.4837   79.8952  223.8160 H       1  UNL1        0.0251
     35 H         143.4166   78.9866  222.2679 H       1  UNL1        0.0251
     36 H         143.2464   80.7748  222.2679 H       1  UNL1        0.0251
     37 H         141.2265   79.5663  224.0165 H       1  UNL1        0.0545
     38 H         140.7140   77.7470  222.7780 H       1  UNL1        0.1493
     39 H         139.6573   77.4048  219.9683 H       1  UNL1        0.0597
     40 H         140.9163   76.5776  217.9837 H       1  UNL1        0.0288
     41 H         141.6162   78.1614  218.2174 H       1  UNL1        0.0288
     42 H         143.1338   75.9146  218.2487 H       1  UNL1        0.0281
     43 H         143.5308   77.2735  219.3285 H       1  UNL1        0.0281
     44 H         142.5352   74.5787  220.0089 H       1  UNL1        0.0465
     45 H         143.2030   75.7772  221.0982 H       1  UNL1        0.0465
     46 H         138.9671   73.7879  220.6412 H       1  UNL1        0.0558
     47 H         140.7073   73.4199  220.4914 H       1  UNL1        0.0558
     48 H         139.5960   73.5960  223.2540 H       1  UNL1        0.1495
     49 H         139.1183   69.2928  222.6667 H       1  UNL1        0.0625
     50 H         138.9734   67.8721  224.7010 H       1  UNL1        0.0624
     51 H         139.3869   67.5199  226.9981 H       1  UNL1        0.0652
     52 H         141.3791   70.5644  229.3015 H       1  UNL1        0.0646
     53 H         141.5418   72.0091  227.2735 H       1  UNL1        0.0624
     54 H         141.0962   72.3426  224.8957 H       1  UNL1        0.0631
     55 H         138.8810   80.3856  222.9844 H       1  UNL1        0.0621
     56 H         137.8440   82.4548  222.1543 H       1  UNL1        0.0618
     57 H         139.2187   84.2528  221.1497 H       1  UNL1        0.0618
     58 H         141.7010   83.9314  220.9907 H       1  UNL1        0.0618
     59 H         142.7156   81.8696  221.8199 H       1  UNL1        0.0621
@<TRIPOS>BOND
     1     1     2    1
     2     2     3    1
     3     3     4   am
     4     4     5    2
     5     4     6    1
     6     6     7    1
     7     7     8    1
     8     8     9    1
     9     9    10    1
    10    10    11   am
    11    11    12    2
    12    11    13    1
    13    13    14    1
    14    14    15   am
    15    15    16    2
    16    15    17    1
    17    17    18   ar
    18    18    19   ar
    19    19    20   ar
    20    20    21   ar
    21    21    22   ar
    22    22    23    1
    23    22    24   ar
    24    24    25   ar
    25    25    26   ar
    26    26    27   ar
    27     2    28    1
    28    28    29   ar
    29    29    30   ar
    30    30    31   ar
    31    31    32   ar
    32    32    33   ar
    33    10     6    1
    34    27    17   ar
    35    33    28   ar
    36    26    20   ar
    37     1    34    1
    38     1    35    1
    39     1    36    1
    40     2    37    1
    41     3    38    1
    42     6    39    1
    43     7    40    1
    44     7    41    1
    45     8    42    1
    46     8    43    1
    47     9    44    1
    48     9    45    1
    49    13    46    1
    50    13    47    1
    51    14    48    1
    52    18    49    1
    53    19    50    1
    54    21    51    1
    55    24    52    1
    56    25    53    1
    57    27    54    1
    58    29    55    1
    59    30    56    1
    60    31    57    1
    61    32    58    1
    62    33    59    1
