
 65 70  0  0  0  0  0  0  0  0999 V2000
  141.6770   81.2630  223.3170 C   0  0  0  0  0  0  0  0  0  0  0  0
  142.5030   80.2710  222.8550 C   0  0  0  0  0  0  0  0  0  0  0  0
  142.0020   79.0220  222.5590 C   0  0  0  0  0  0  0  0  0  0  0  0
  140.6580   78.6970  222.7070 C   0  0  0  0  0  0  0  0  0  0  0  0
  140.1500   77.4000  222.3960 N   0  0  0  0  0  0  0  0  0  0  0  0
  141.0730   76.2930  222.1500 C   0  0  0  0  0  0  0  0  0  0  0  0
  140.3560   75.3560  221.1850 C   0  0  0  0  0  0  0  0  0  0  0  0
  139.1170   74.8920  221.7760 N   0  0  0  0  0  0  0  0  0  0  0  0
  138.7880   73.5180  221.7200 C   0  0  0  0  0  0  0  0  0  0  0  0
  138.1540   73.0350  220.6150 N   0  0  0  0  0  0  0  0  0  0  0  0
  137.8300   71.7280  220.5370 C   0  0  0  0  0  0  0  0  0  0  0  0
  137.1740   71.2230  219.3990 N   0  0  0  0  0  0  0  0  0  0  0  0
  136.2500   72.0260  218.6190 C   0  0  0  0  0  0  0  0  0  0  0  0
  136.7230   72.0160  217.1820 C   0  0  0  0  0  0  0  0  0  0  0  0
  137.8390   71.1910  217.0330 O   0  0  0  0  0  0  0  0  0  0  0  0
  137.5910   69.8960  217.4570 C   0  0  0  0  0  0  0  0  0  0  0  0
  137.3990   69.8600  218.9580 C   0  0  0  0  0  0  0  0  0  0  0  0
  138.1220   70.8810  221.5390 N   0  0  0  0  0  0  0  0  0  0  0  0
  138.7430   71.3510  222.6250 C   0  0  0  0  0  0  0  0  0  0  0  0
  139.0780   70.4890  223.7220 N   0  0  0  0  0  0  0  0  0  0  0  0
  138.2160   69.3680  224.1020 C   0  0  0  0  0  0  0  0  0  0  0  0
  139.1960   68.2670  224.5310 C   0  0  0  0  0  0  0  0  0  0  0  0
  139.7480   68.7920  225.8290 C   0  0  0  0  0  0  0  0  0  0  0  0
  139.6990   68.0610  226.9930 C   0  0  0  0  0  0  0  0  0  0  0  0
  140.2410   68.6440  228.1360 C   0  0  0  0  0  0  0  0  0  0  0  0
  140.8070   69.9140  228.1050 C   0  0  0  0  0  0  0  0  0  0  0  0
  140.8330   70.6090  226.9140 C   0  0  0  0  0  0  0  0  0  0  0  0
  140.3050   70.0560  225.7690 C   0  0  0  0  0  0  0  0  0  0  0  0
  140.3030   70.7540  224.4550 C   0  0  0  0  0  0  0  0  0  0  0  0
  139.0800   72.6710  222.7230 N   0  0  0  0  0  0  0  0  0  0  0  0
  138.2340   75.8360  222.4150 C   0  0  0  0  0  0  0  0  0  0  0  0
  138.7130   77.2440  222.3420 C   0  0  0  0  0  0  0  0  0  0  0  0
  139.8450   79.7180  223.1760 C   0  0  0  0  0  0  0  0  0  0  0  0
  140.3370   80.9780  223.4770 C   0  0  0  0  0  0  0  0  0  0  0  0
  142.0731   82.2614  223.5542 H   0  0  0  0  0  0  0  0  0  0  0  0
  143.5756   80.4741  222.7194 H   0  0  0  0  0  0  0  0  0  0  0  0
  142.6937   78.2502  222.1904 H   0  0  0  0  0  0  0  0  0  0  0  0
  142.0052   76.6652  221.7000 H   0  0  0  0  0  0  0  0  0  0  0  0
  141.3447   75.7793  223.0840 H   0  0  0  0  0  0  0  0  0  0  0  0
  140.1356   75.8936  220.2510 H   0  0  0  0  0  0  0  0  0  0  0  0
  141.0020   74.4912  220.9732 H   0  0  0  0  0  0  0  0  0  0  0  0
  135.2383   71.5988  218.6823 H   0  0  0  0  0  0  0  0  0  0  0  0
  136.2180   73.0558  219.0045 H   0  0  0  0  0  0  0  0  0  0  0  0
  135.9120   71.6452  216.5380 H   0  0  0  0  0  0  0  0  0  0  0  0
  137.0015   73.0409  216.8955 H   0  0  0  0  0  0  0  0  0  0  0  0
  136.6805   69.5220  216.9660 H   0  0  0  0  0  0  0  0  0  0  0  0
  138.4506   69.2629  217.1919 H   0  0  0  0  0  0  0  0  0  0  0  0
  136.5302   69.2346  219.2110 H   0  0  0  0  0  0  0  0  0  0  0  0
  138.2837   69.4327  219.4527 H   0  0  0  0  0  0  0  0  0  0  0  0
  137.5557   69.6489  224.9357 H   0  0  0  0  0  0  0  0  0  0  0  0
  137.5557   69.0480  223.2825 H   0  0  0  0  0  0  0  0  0  0  0  0
  138.6745   67.3102  224.6814 H   0  0  0  0  0  0  0  0  0  0  0  0
  139.9737   68.0624  223.7804 H   0  0  0  0  0  0  0  0  0  0  0  0
  139.2502   67.0571  227.0202 H   0  0  0  0  0  0  0  0  0  0  0  0
  140.2209   68.0874  229.0846 H   0  0  0  0  0  0  0  0  0  0  0  0
  141.2285   70.3585  229.0186 H   0  0  0  0  0  0  0  0  0  0  0  0
  141.2794   71.6137  226.8786 H   0  0  0  0  0  0  0  0  0  0  0  0
  140.3930   71.8372  224.6239 H   0  0  0  0  0  0  0  0  0  0  0  0
  141.1515   70.3824  223.8617 H   0  0  0  0  0  0  0  0  0  0  0  0
  137.2502   75.7776  221.9265 H   0  0  0  0  0  0  0  0  0  0  0  0
  138.1889   75.5654  223.4802 H   0  0  0  0  0  0  0  0  0  0  0  0
  138.3571   77.6778  221.3959 H   0  0  0  0  0  0  0  0  0  0  0  0
  138.3129   77.7534  223.2310 H   0  0  0  0  0  0  0  0  0  0  0  0
  138.7717   79.5207  223.3139 H   0  0  0  0  0  0  0  0  0  0  0  0
  139.6537   81.7568  223.8464 H   0  0  0  0  0  0  0  0  0  0  0  0
  1  2  2  0
  2  3  1  0
  3  4  2  0
  4  5  1  0
  5  6  1  0
  6  7  1  0
  7  8  1  0
  8  9  1  0
  9 10  2  0
 10 11  1  0
 11 12  1  0
 12 13  1  0
 13 14  1  0
 14 15  1  0
 15 16  1  0
 16 17  1  0
 11 18  2  0
 18 19  1  0
 19 20  1  0
 20 21  1  0
 21 22  1  0
 22 23  1  0
 23 24  2  0
 24 25  1  0
 25 26  2  0
 26 27  1  0
 27 28  2  0
 28 29  1  0
 19 30  2  0
  8 31  1  0
 31 32  1  0
  4 33  1  0
 33 34  2  0
 34  1  1  0
 32  5  1  0
 30  9  1  0
 17 12  1  0
 29 20  1  0
 28 23  1  0
  1 35  1  0
  2 36  1  0
  3 37  1  0
  6 38  1  0
  6 39  1  0
  7 40  1  0
  7 41  1  0
 13 42  1  0
 13 43  1  0
 14 44  1  0
 14 45  1  0
 16 46  1  0
 16 47  1  0
 17 48  1  0
 17 49  1  0
 21 50  1  0
 21 51  1  0
 22 52  1  0
 22 53  1  0
 24 54  1  0
 25 55  1  0
 26 56  1  0
 27 57  1  0
 29 58  1  0
 29 59  1  0
 31 60  1  0
 31 61  1  0
 32 62  1  0
 32 63  1  0
 33 64  1  0
 34 65  1  0
M  END
