
 65 69  0  0  1  0  0  0  0  0999 V2000
  138.8360   81.2250  223.7240 C   0  0  0  0  0  0  0  0  0  0  0  0
  137.6930   80.4710  223.4610 C   0  0  0  0  0  0  0  0  0  0  0  0
  137.7660   79.1440  223.0990 C   0  0  0  0  0  0  0  0  0  0  0  0
  139.0130   78.5330  222.9910 C   0  0  0  0  0  0  0  0  0  0  0  0
  140.1220   79.3050  223.2570 C   0  0  0  0  0  0  0  0  0  0  0  0
  140.0840   80.6220  223.6180 C   0  0  0  0  0  0  0  0  0  0  0  0
  141.4490   78.6070  223.1290 C   0  0  0  0  0  0  0  0  0  0  0  0
  141.4180   77.9170  221.7850 C   0  0  0  0  0  0  0  0  0  0  0  0
  140.2580   77.0010  221.5910 C   0  0  1  0  0  0  0  0  0  0  0  0
  140.8130   75.6070  221.4770 C   0  0  0  0  0  0  0  0  0  0  0  0
  140.1660   74.5620  222.0180 N   0  0  0  0  0  0  0  0  0  0  0  0
  140.6090   73.2840  221.9500 C   0  0  0  0  0  0  0  0  0  0  0  0
  139.8880   72.2010  222.5440 N   0  0  0  0  0  0  0  0  0  0  0  0
  139.0300   71.4310  221.7150 C   0  0  0  0  0  0  0  0  0  0  0  0
  137.6740   71.9720  221.4600 C   0  0  0  0  0  0  0  0  0  0  0  0
  137.5250   73.3040  221.0680 N   0  0  0  0  0  0  0  0  0  0  0  0
  137.4160   73.6330  219.6960 C   0  0  0  0  0  0  0  0  0  0  0  0
  138.0190   75.0400  219.5340 C   0  0  0  0  0  0  0  0  0  0  0  0
  137.4870   75.9360  220.4280 O   0  0  0  0  0  0  0  0  0  0  0  0
  136.4260   75.4190  221.1690 C   0  0  0  0  0  0  0  0  0  0  0  0
  136.9710   74.2460  221.9640 C   0  0  0  0  0  0  0  0  0  0  0  0
  141.8020   73.0960  221.2730 C   0  0  0  0  0  0  0  0  0  0  0  0
  142.5110   74.1340  220.6950 C   0  0  0  0  0  0  0  0  0  0  0  0
  143.7490   73.9220  220.0030 N   0  0  0  0  0  0  0  0  0  0  0  0
  143.7760   73.8740  218.5560 C   0  0  0  0  0  0  0  0  0  0  0  0
  144.8270   72.9150  218.0440 C   0  0  0  0  0  0  0  0  0  0  0  0
  146.0670   73.0270  218.7690 N   0  0  0  0  0  0  0  0  0  0  0  0
  145.9230   72.8830  220.1830 C   0  0  0  0  0  0  0  0  0  0  0  0
  144.9290   73.7790  220.8330 C   0  0  0  0  0  0  0  0  0  0  0  0
  141.9740   75.3680  220.8240 N   0  0  0  0  0  0  0  0  0  0  0  0
  139.1720   77.1080  222.6100 C   0  0  0  0  0  0  0  0  0  0  0  0
  138.7513   82.2833  224.0117 H   0  0  0  0  0  0  0  0  0  0  0  0
  136.7058   80.9490  223.5449 H   0  0  0  0  0  0  0  0  0  0  0  0
  136.8482   78.5722  222.8971 H   0  0  0  0  0  0  0  0  0  0  0  0
  141.0077   81.1850  223.8176 H   0  0  0  0  0  0  0  0  0  0  0  0
  142.2716   79.3363  223.1672 H   0  0  0  0  0  0  0  0  0  0  0  0
  141.6137   77.8928  223.9492 H   0  0  0  0  0  0  0  0  0  0  0  0
  141.3816   78.6891  221.0024 H   0  0  0  0  0  0  0  0  0  0  0  0
  142.3231   77.2942  221.7303 H   0  0  0  0  0  0  0  0  0  0  0  0
  139.7343   77.3009  220.6713 H   0  0  0  0  0  0  0  0  0  0  0  0
  140.0550   72.0560  223.5650 H   0  0  0  0  0  0  0  0  0  0  0  0
  139.5282   71.3129  220.7414 H   0  0  0  0  0  0  0  0  0  0  0  0
  138.8637   70.4952  222.2687 H   0  0  0  0  0  0  0  0  0  0  0  0
  137.2274   71.3539  220.6673 H   0  0  0  0  0  0  0  0  0  0  0  0
  137.1942   71.9400  222.4493 H   0  0  0  0  0  0  0  0  0  0  0  0
  137.9745   72.9078  219.0859 H   0  0  0  0  0  0  0  0  0  0  0  0
  136.3677   73.6091  219.3635 H   0  0  0  0  0  0  0  0  0  0  0  0
  139.1055   74.9809  219.6951 H   0  0  0  0  0  0  0  0  0  0  0  0
  137.7846   75.3942  218.5193 H   0  0  0  0  0  0  0  0  0  0  0  0
  136.0315   76.1869  221.8507 H   0  0  0  0  0  0  0  0  0  0  0  0
  135.6053   75.0996  220.5100 H   0  0  0  0  0  0  0  0  0  0  0  0
  137.7493   74.5990  222.6566 H   0  0  0  0  0  0  0  0  0  0  0  0
  136.1602   73.7786  222.5421 H   0  0  0  0  0  0  0  0  0  0  0  0
  142.2042   72.0755  221.1910 H   0  0  0  0  0  0  0  0  0  0  0  0
  142.7901   73.5487  218.1924 H   0  0  0  0  0  0  0  0  0  0  0  0
  144.0226   74.8800  218.1857 H   0  0  0  0  0  0  0  0  0  0  0  0
  144.4485   71.8873  218.1466 H   0  0  0  0  0  0  0  0  0  0  0  0
  145.0278   73.1652  216.9918 H   0  0  0  0  0  0  0  0  0  0  0  0
  146.7020   73.7690  218.4550 H   0  0  0  0  0  0  0  0  0  0  0  0
  145.6233   71.8444  220.3865 H   0  0  0  0  0  0  0  0  0  0  0  0
  146.8974   73.1628  220.6098 H   0  0  0  0  0  0  0  0  0  0  0  0
  144.6380   73.3516  221.8039 H   0  0  0  0  0  0  0  0  0  0  0  0
  145.3848   74.7701  220.9738 H   0  0  0  0  0  0  0  0  0  0  0  0
  138.2293   76.7310  222.1867 H   0  0  0  0  0  0  0  0  0  0  0  0
  139.4310   76.5106  223.4966 H   0  0  0  0  0  0  0  0  0  0  0  0
  1  2  2  0
  2  3  1  0
  3  4  2  0
  4  5  1  0
  5  6  2  0
  5  7  1  0
  7  8  1  0
  8  9  1  0
  9 10  1  0
 10 11  2  0
 11 12  1  0
 12 13  1  0
 13 14  1  0
 14 15  1  0
 15 16  1  0
 16 17  1  0
 17 18  1  0
 18 19  1  0
 19 20  1  0
 20 21  1  0
 12 22  2  0
 22 23  1  0
 23 24  1  0
 24 25  1  0
 25 26  1  0
 26 27  1  0
 27 28  1  0
 28 29  1  0
 23 30  2  0
  9 31  1  0
  6  1  1  0
 30 10  1  0
 31  4  1  0
 21 16  1  0
 29 24  1  0
  1 32  1  0
  2 33  1  0
  3 34  1  0
  6 35  1  0
  7 36  1  0
  7 37  1  0
  8 38  1  0
  8 39  1  0
  9 40  1  6
 13 41  1  0
 14 42  1  0
 14 43  1  0
 15 44  1  0
 15 45  1  0
 17 46  1  0
 17 47  1  0
 18 48  1  0
 18 49  1  0
 20 50  1  0
 20 51  1  0
 21 52  1  0
 21 53  1  0
 22 54  1  0
 25 55  1  0
 25 56  1  0
 26 57  1  0
 26 58  1  0
 27 59  1  0
 28 60  1  0
 28 61  1  0
 29 62  1  0
 29 63  1  0
 31 64  1  0
 31 65  1  0
M  END
