@<TRIPOS>MOLECULE
*****
 66 71 0 0 0
SMALL
GASTEIGER

@<TRIPOS>ATOM
      1 C         140.9830   80.9750  223.7780 C.ar    1  UNL1       -0.0615
      2 C         142.2420   80.5960  223.3150 C.ar    1  UNL1       -0.0614
      3 C         142.4190   79.4990  222.4990 C.ar    1  UNL1       -0.0568
      4 C         141.3270   78.7420  222.1210 C.ar    1  UNL1       -0.0269
      5 C         140.0760   79.1200  222.5830 C.ar    1  UNL1       -0.0412
      6 C         139.8940   80.2170  223.3980 C.ar    1  UNL1       -0.0582
      7 C         138.9350   78.2530  222.1360 C.3     1  UNL1       -0.0115
      8 C         139.3780   76.8350  222.5270 C.3     1  UNL1        0.0192
      9 N         140.6160   76.5010  221.8080 N.pl3   1  UNL1       -0.2948
     10 C         141.0000   75.1310  221.6710 C.ar    1  UNL1        0.2240
     11 N         140.2610   74.1700  222.2860 N.ar    1  UNL1       -0.1809
     12 C         140.6140   72.8660  222.1620 C.ar    1  UNL1        0.2213
     13 N         139.8710   71.8170  222.7920 N.pl3   1  UNL1       -0.3105
     14 C         140.4190   71.0690  223.8940 C.3     1  UNL1        0.0234
     15 C         139.4390   69.9730  224.2480 C.3     1  UNL1       -0.0328
     16 C         139.1840   69.9010  225.7410 C.3     1  UNL1       -0.0329
     17 C         140.5120   69.8100  226.4330 C.3     1  UNL1        0.0204
     18 C         140.4700   69.5220  227.9140 C.3     1  UNL1       -0.0221
     19 C         140.3880   68.0790  227.4660 C.3     1  UNL1       -0.0019
     20 N         141.0780   68.4850  226.2510 N.3     1  UNL1       -0.3104
     21 C         141.4220   70.9440  226.0940 C.3     1  UNL1       -0.0329
     22 C         140.6670   71.8710  225.1320 C.3     1  UNL1       -0.0328
     23 N         141.6960   72.6110  221.4200 N.ar    1  UNL1       -0.1809
     24 C         142.4550   73.5090  220.7970 C.ar    1  UNL1        0.2237
     25 N         143.5980   73.1430  220.0230 N.pl3   1  UNL1       -0.2971
     26 C         144.7670   72.6610  220.7160 C.3     1  UNL1        0.0274
     27 C         145.9400   72.4570  219.8200 C.3     1  UNL1        0.0118
     28 N         145.9780   73.2970  218.6750 N.3     1  UNL1       -0.3130
     29 C         144.8090   73.3660  217.8780 C.3     1  UNL1        0.0118
     30 C         143.5040   73.2830  218.5870 C.3     1  UNL1        0.0274
     31 N         142.0810   74.8150  220.9370 N.ar    1  UNL1       -0.1807
     32 C         141.4450   77.5480  221.2420 C.3     1  UNL1        0.0402
     33 H         140.8608   81.8538  224.4282 H       1  UNL1        0.0618
     34 H         143.1200   81.1896  223.6094 H       1  UNL1        0.0618
     35 H         143.4262   79.2274  222.1501 H       1  UNL1        0.0621
     36 H         138.8853   80.4869  223.7439 H       1  UNL1        0.0620
     37 H         138.0054   78.5303  222.6547 H       1  UNL1        0.0328
     38 H         138.7215   78.3511  221.0614 H       1  UNL1        0.0328
     39 H         139.5589   76.7917  223.6112 H       1  UNL1        0.0468
     40 H         138.5901   76.1148  222.2615 H       1  UNL1        0.0468
     41 H         138.9180   71.6230  222.4160 H       1  UNL1        0.1492
     42 H         141.3969   70.6940  223.5578 H       1  UNL1        0.0498
     43 H         138.4864   70.1684  223.7338 H       1  UNL1        0.0284
     44 H         139.8725   69.0133  223.9302 H       1  UNL1        0.0284
     45 H         138.6510   70.8042  226.0729 H       1  UNL1        0.0284
     46 H         138.5661   69.0234  225.9818 H       1  UNL1        0.0284
     47 H         141.3776   69.7921  228.4738 H       1  UNL1        0.0295
     48 H         139.7517   69.9872  228.6051 H       1  UNL1        0.0295
     49 H         140.9460   67.3705  228.0958 H       1  UNL1        0.0425
     50 H         139.4320   67.5357  227.4350 H       1  UNL1        0.0425
     51 H         140.8040   67.9690  225.4020 H       1  UNL1        0.1225
     52 H         141.6945   71.4927  227.0076 H       1  UNL1        0.0284
     53 H         142.3463   70.5723  225.6277 H       1  UNL1        0.0284
     54 H         139.7134   72.1896  225.5782 H       1  UNL1        0.0284
     55 H         141.2453   72.7807  224.9130 H       1  UNL1        0.0284
     56 H         145.0414   73.3935  221.4894 H       1  UNL1        0.0477
     57 H         144.5106   71.6815  221.1459 H       1  UNL1        0.0477
     58 H         146.8525   72.6393  220.4066 H       1  UNL1        0.0439
     59 H         145.8604   71.4272  219.4415 H       1  UNL1        0.0439
     60 H         146.5700   74.1320  218.7160 H       1  UNL1        0.1220
     61 H         144.8324   74.3231  217.3363 H       1  UNL1        0.0439
     62 H         144.8450   72.4714  217.2390 H       1  UNL1        0.0439
     63 H         142.9383   74.2010  218.3697 H       1  UNL1        0.0477
     64 H         143.0116   72.3703  218.2201 H       1  UNL1        0.0477
     65 H         142.4926   77.2152  221.2005 H       1  UNL1        0.0514
     66 H         141.1182   77.7881  220.2195 H       1  UNL1        0.0514
@<TRIPOS>BOND
     1     1     2   ar
     2     2     3   ar
     3     3     4   ar
     4     4     5   ar
     5     5     6   ar
     6     5     7    1
     7     7     8    1
     8     8     9    1
     9     9    10    1
    10    10    11   ar
    11    11    12   ar
    12    12    13    1
    13    13    14    1
    14    14    15    1
    15    15    16    1
    16    16    17    1
    17    17    18    1
    18    18    19    1
    19    19    20    1
    20    17    21    1
    21    21    22    1
    22    12    23   ar
    23    23    24   ar
    24    24    25    1
    25    25    26    1
    26    26    27    1
    27    27    28    1
    28    28    29    1
    29    29    30    1
    30    24    31   ar
    31     9    32    1
    32     6     1   ar
    33    31    10   ar
    34    32     4    1
    35    22    14    1
    36    30    25    1
    37    17    20    1
    38     1    33    1
    39     2    34    1
    40     3    35    1
    41     6    36    1
    42     7    37    1
    43     7    38    1
    44     8    39    1
    45     8    40    1
    46    13    41    1
    47    14    42    1
    48    15    43    1
    49    15    44    1
    50    16    45    1
    51    16    46    1
    52    18    47    1
    53    18    48    1
    54    19    49    1
    55    19    50    1
    56    20    51    1
    57    21    52    1
    58    21    53    1
    59    22    54    1
    60    22    55    1
    61    26    56    1
    62    26    57    1
    63    27    58    1
    64    27    59    1
    65    28    60    1
    66    29    61    1
    67    29    62    1
    68    30    63    1
    69    30    64    1
    70    32    65    1
    71    32    66    1
