
     RDKit          3D

 42 43  0  0  1  0  0  0  0  0999 V2000
  140.3190   74.9350  222.3030 O   0  0  0  0  0  0  0  0  0  0  0  0
  139.8550   74.0520  221.5380 C   0  0  0  0  0  0  0  0  0  0  0  0
  139.1320   74.3690  220.2800 C   0  0  0  0  0  0  0  0  0  0  0  0
  139.1860   73.2740  219.2770 C   0  0  0  0  0  0  0  0  0  0  0  0
  140.4410   73.5190  218.4030 C   0  0  0  0  0  0  0  0  0  0  0  0
  141.5810   73.4870  219.0210 O   0  0  0  0  0  0  0  0  0  0  0  0
  142.7060   73.4560  219.6280 C   0  0  0  0  0  0  0  0  0  0  0  0
  143.2420   72.2730  220.1570 C   0  0  0  0  0  0  0  0  0  0  0  0
  144.4510   72.2380  220.8090 C   0  0  0  0  0  0  0  0  0  0  0  0
  145.1390   73.4170  220.9380 C   0  0  0  0  0  0  0  0  0  0  0  0
  146.6720   73.3920  221.7630 Cl  0  0  0  0  0  0  0  0  0  0  0  0
  144.6830   74.6140  220.4500 C   0  0  0  0  0  0  0  0  0  0  0  0
  143.4750   74.6190  219.8030 C   0  0  0  0  0  0  0  0  0  0  0  0
  142.8430   76.1110  219.1610 Cl  0  0  0  0  0  0  0  0  0  0  0  0
  139.9960   72.6420  221.8350 N   0  0  0  0  0  0  0  0  0  0  0  0
  140.6560   72.3080  222.9830 N   0  0  0  0  0  0  0  0  0  0  0  0
  140.2230   71.4330  223.7830 C   0  0  0  0  0  0  0  0  0  0  0  0
  140.5330   71.2020  225.1640 C   0  0  0  0  0  0  0  0  0  0  0  0
  141.0310   72.0910  226.0700 C   0  0  0  0  0  0  0  0  0  0  0  0
  141.3110   71.7820  227.3940 C   0  0  0  0  0  0  0  0  0  0  0  0
  141.0870   70.5190  227.8610 C   0  0  0  0  0  0  0  0  0  0  0  0
  140.5830   69.5990  226.9650 C   0  0  0  0  0  0  0  0  0  0  0  0
  140.3340   68.2270  227.4490 C   0  0  0  0  0  0  0  0  0  0  0  0
  139.2430   67.6890  226.7970 F   0  0  0  0  0  0  0  0  0  0  0  0
  141.4430   67.4260  227.1770 F   0  0  0  0  0  0  0  0  0  0  0  0
  140.1660   68.1810  228.8230 F   0  0  0  0  0  0  0  0  0  0  0  0
  140.3070   69.9120  225.6550 C   0  0  0  0  0  0  0  0  0  0  0  0
  138.0778   74.5669  220.5240 H   0  0  0  0  0  0  0  0  0  0  0  0
  139.6263   75.2440  219.8328 H   0  0  0  0  0  0  0  0  0  0  0  0
  139.2635   72.3010  219.7843 H   0  0  0  0  0  0  0  0  0  0  0  0
  138.2753   73.2626  218.6602 H   0  0  0  0  0  0  0  0  0  0  0  0
  140.4613   72.7468  217.6198 H   0  0  0  0  0  0  0  0  0  0  0  0
  140.3400   74.5458  218.0215 H   0  0  0  0  0  0  0  0  0  0  0  0
  142.6733   71.3380  220.0458 H   0  0  0  0  0  0  0  0  0  0  0  0
  144.8528   71.2972  221.2133 H   0  0  0  0  0  0  0  0  0  0  0  0
  145.2664   75.5383  220.5734 H   0  0  0  0  0  0  0  0  0  0  0  0
  139.5770   71.9130  221.1820 H   0  0  0  0  0  0  0  0  0  0  0  0
  139.4900   70.7355  223.3516 H   0  0  0  0  0  0  0  0  0  0  0  0
  141.2233   73.1193  225.7298 H   0  0  0  0  0  0  0  0  0  0  0  0
  141.7131   72.5542  228.0663 H   0  0  0  0  0  0  0  0  0  0  0  0
  141.2990   70.2469  228.9055 H   0  0  0  0  0  0  0  0  0  0  0  0
  139.9036   69.1385  224.9849 H   0  0  0  0  0  0  0  0  0  0  0  0
  1  2  2  0
  2  3  1  0
  3  4  1  0
  4  5  1  0
  5  6  1  0
  6  7  1  0
  7  8  2  0
  8  9  1  0
  9 10  2  0
 10 11  1  0
 10 12  1  0
 12 13  2  0
 13 14  1  0
  2 15  1  0
 15 16  1  0
 16 17  2  0
 17 18  1  0
 18 19  2  0
 19 20  1  0
 20 21  2  0
 21 22  1  0
 22 23  1  0
 23 24  1  0
 23 25  1  0
 23 26  1  0
 22 27  2  0
 13  7  1  0
 27 18  1  0
  3 28  1  0
  3 29  1  0
  4 30  1  0
  4 31  1  0
  5 32  1  0
  5 33  1  0
  8 34  1  0
  9 35  1  0
 12 36  1  0
 15 37  1  0
 17 38  1  0
 19 39  1  0
 20 40  1  0
 21 41  1  0
 27 42  1  0
M  END
