
     RDKit          3D

 61 64  0  0  1  0  0  0  0  0999 V2000
  138.1140   69.3070  223.0270 C   0  0  0  0  0  0  0  0  0  0  0  0
  137.5930   68.9170  224.3980 C   0  0  2  0  0  0  0  0  0  0  0  0
  136.5460   69.7970  224.8170 N   0  0  0  0  0  0  0  0  0  0  0  0
  135.1640   69.3570  224.7440 C   0  0  0  0  0  0  0  0  0  0  0  0
  135.0100   68.1960  224.3020 O   0  0  0  0  0  0  0  0  0  0  0  0
  134.1540   70.2940  225.1810 C   0  0  1  0  0  0  0  0  0  0  0  0
  134.3240   70.7790  226.6360 C   0  0  0  0  0  0  0  0  0  0  0  0
  133.4320   71.9870  226.8630 C   0  0  0  0  0  0  0  0  0  0  0  0
  132.2420   72.0350  225.9290 C   0  0  0  0  0  0  0  0  0  0  0  0
  132.6200   72.0780  224.4670 C   0  0  0  0  0  0  0  0  0  0  0  0
  134.0010   71.5240  224.4440 N   0  0  0  0  0  0  0  0  0  0  0  0
  135.0030   72.2260  223.7530 C   0  0  0  0  0  0  0  0  0  0  0  0
  136.0980   71.7530  223.3600 O   0  0  0  0  0  0  0  0  0  0  0  0
  134.7750   73.6670  223.4440 C   0  0  0  0  0  0  0  0  0  0  0  0
  136.0450   74.3840  223.3510 N   0  0  0  0  0  0  0  0  0  0  0  0
  136.1000   75.7210  222.8470 C   0  0  0  0  0  0  0  0  0  0  0  0
  135.0520   76.3040  222.4740 O   0  0  0  0  0  0  0  0  0  0  0  0
  137.3950   76.3930  222.7750 C   0  0  0  0  0  0  0  0  0  0  0  0
  138.5080   75.6660  222.3730 C   0  0  0  0  0  0  0  0  0  0  0  0
  139.7510   76.2500  222.2860 C   0  0  0  0  0  0  0  0  0  0  0  0
  139.9010   77.5810  222.6020 C   0  0  0  0  0  0  0  0  0  0  0  0
  141.1540   78.1300  222.5040 C   0  0  0  0  0  0  0  0  0  0  0  0
  141.2980   79.4830  222.8270 C   0  0  0  0  0  0  0  0  0  0  0  0
  142.9000   80.1670  222.6970 Cl  0  0  0  0  0  0  0  0  0  0  0  0
  140.1970   80.2120  223.2260 C   0  0  0  0  0  0  0  0  0  0  0  0
  138.9370   79.6280  223.3160 C   0  0  0  0  0  0  0  0  0  0  0  0
  138.7820   78.2890  222.9990 C   0  0  0  0  0  0  0  0  0  0  0  0
  137.5570   77.6950  223.0800 N   0  0  0  0  0  0  0  0  0  0  0  0
  138.7450   69.0910  225.3530 C   0  0  0  0  0  0  0  0  0  0  0  0
  139.3390   70.3500  225.3950 C   0  0  0  0  0  0  0  0  0  0  0  0
  140.4010   70.5940  226.2430 C   0  0  0  0  0  0  0  0  0  0  0  0
  140.8490   69.5550  227.0410 C   0  0  0  0  0  0  0  0  0  0  0  0
  140.2550   68.2910  227.0020 C   0  0  0  0  0  0  0  0  0  0  0  0
  139.1920   68.0570  226.1490 C   0  0  0  0  0  0  0  0  0  0  0  0
  138.9899   69.9627  223.1405 H   0  0  0  0  0  0  0  0  0  0  0  0
  138.4031   68.4015  222.4734 H   0  0  0  0  0  0  0  0  0  0  0  0
  137.3266   69.8395  222.4734 H   0  0  0  0  0  0  0  0  0  0  0  0
  137.2017   67.8892  224.3736 H   0  0  0  0  0  0  0  0  0  0  0  0
  136.7950   70.7460  225.1690 H   0  0  0  0  0  0  0  0  0  0  0  0
  133.2787   69.6477  225.0197 H   0  0  0  0  0  0  0  0  0  0  0  0
  134.0376   69.9739  227.3287 H   0  0  0  0  0  0  0  0  0  0  0  0
  135.3739   71.0539  226.8154 H   0  0  0  0  0  0  0  0  0  0  0  0
  133.0624   71.9586  227.8986 H   0  0  0  0  0  0  0  0  0  0  0  0
  134.0389   72.8827  226.6646 H   0  0  0  0  0  0  0  0  0  0  0  0
  131.6275   71.1393  226.1028 H   0  0  0  0  0  0  0  0  0  0  0  0
  131.6980   72.9656  226.1483 H   0  0  0  0  0  0  0  0  0  0  0  0
  131.9382   71.4574  223.8670 H   0  0  0  0  0  0  0  0  0  0  0  0
  132.5592   73.0900  224.0403 H   0  0  0  0  0  0  0  0  0  0  0  0
  134.2424   73.7505  222.4852 H   0  0  0  0  0  0  0  0  0  0  0  0
  134.1772   74.1113  224.2534 H   0  0  0  0  0  0  0  0  0  0  0  0
  136.9560   73.9400  223.6520 H   0  0  0  0  0  0  0  0  0  0  0  0
  138.3936   74.6019  222.1190 H   0  0  0  0  0  0  0  0  0  0  0  0
  140.6198   75.6563  221.9657 H   0  0  0  0  0  0  0  0  0  0  0  0
  142.0159   77.5269  222.1824 H   0  0  0  0  0  0  0  0  0  0  0  0
  140.3173   81.2760  223.4780 H   0  0  0  0  0  0  0  0  0  0  0  0
  138.0708   80.2255  223.6365 H   0  0  0  0  0  0  0  0  0  0  0  0
  138.9597   71.1551  224.7485 H   0  0  0  0  0  0  0  0  0  0  0  0
  140.8772   71.5848  226.2834 H   0  0  0  0  0  0  0  0  0  0  0  0
  141.6942   69.7292  227.7231 H   0  0  0  0  0  0  0  0  0  0  0  0
  140.6318   67.4843  227.6479 H   0  0  0  0  0  0  0  0  0  0  0  0
  138.7132   67.0676  226.1062 H   0  0  0  0  0  0  0  0  0  0  0  0
  1  2  1  0
  2  3  1  0
  3  4  1  0
  4  5  2  0
  4  6  1  0
  6  7  1  0
  7  8  1  0
  8  9  1  0
  9 10  1  0
 10 11  1  0
 11 12  1  0
 12 13  2  0
 12 14  1  0
 14 15  1  0
 15 16  1  0
 16 17  2  0
 16 18  1  0
 18 19  2  0
 19 20  1  0
 20 21  2  0
 21 22  1  0
 22 23  2  0
 23 24  1  0
 23 25  1  0
 25 26  2  0
 26 27  1  0
 27 28  2  0
  2 29  1  0
 29 30  2  0
 30 31  1  0
 31 32  2  0
 32 33  1  0
 33 34  2  0
 11  6  1  0
 28 18  1  0
 34 29  1  0
 27 21  1  0
  1 35  1  0
  1 36  1  0
  1 37  1  0
  2 38  1  6
  3 39  1  0
  6 40  1  1
  7 41  1  0
  7 42  1  0
  8 43  1  0
  8 44  1  0
  9 45  1  0
  9 46  1  0
 10 47  1  0
 10 48  1  0
 14 49  1  0
 14 50  1  0
 15 51  1  0
 19 52  1  0
 20 53  1  0
 22 54  1  0
 25 55  1  0
 26 56  1  0
 30 57  1  0
 31 58  1  0
 32 59  1  0
 33 60  1  0
 34 61  1  0
M  END
