
 65 69  0  0  1  0  0  0  0  0999 V2000
  138.5820   70.7340  221.6540 O   0  0  0  0  0  0  0  0  0  0  0  0
  139.0570   71.3150  222.6590 C   0  0  0  0  0  0  0  0  0  0  0  0
  139.3440   72.7050  222.7070 N   0  0  0  0  0  0  0  0  0  0  0  0
  139.0690   73.5040  221.5120 C   0  0  0  0  0  0  0  0  0  0  0  0
  140.2230   74.2490  221.0500 C   0  0  0  0  0  0  0  0  0  0  0  0
  141.0910   74.5710  221.9550 O   0  0  0  0  0  0  0  0  0  0  0  0
  140.5380   74.6760  219.7520 N   0  0  0  0  0  0  0  0  0  0  0  0
  139.9050   73.9820  218.5820 C   0  0  0  0  0  0  0  0  0  0  0  0
  139.5200   75.1940  217.7640 C   0  0  0  0  0  0  0  0  0  0  0  0
  140.3440   76.3610  218.2570 C   0  0  0  0  0  0  0  0  0  0  0  0
  141.3700   75.6480  219.1610 C   0  0  1  0  0  0  0  0  0  0  0  0
  142.2020   76.5550  219.9190 C   0  0  0  0  0  0  0  0  0  0  0  0
  141.8250   77.0020  221.1960 N   0  0  0  0  0  0  0  0  0  0  0  0
  140.8600   78.0530  221.2370 C   0  0  2  0  0  0  0  0  0  0  0  0
  141.2750   79.1600  222.1270 C   0  0  0  0  0  0  0  0  0  0  0  0
  142.5790   79.3850  222.5150 C   0  0  0  0  0  0  0  0  0  0  0  0
  142.9470   80.4280  223.3490 C   0  0  0  0  0  0  0  0  0  0  0  0
  141.9920   81.2970  223.8280 C   0  0  0  0  0  0  0  0  0  0  0  0
  140.6740   81.1000  223.4580 C   0  0  0  0  0  0  0  0  0  0  0  0
  140.3280   80.0590  222.6300 C   0  0  0  0  0  0  0  0  0  0  0  0
  139.4910   77.5740  221.5690 C   0  0  0  0  0  0  0  0  0  0  0  0
  139.1950   76.8730  222.7210 C   0  0  0  0  0  0  0  0  0  0  0  0
  137.8770   76.4760  222.9250 C   0  0  0  0  0  0  0  0  0  0  0  0
  136.9010   76.7490  222.0520 N   0  0  0  0  0  0  0  0  0  0  0  0
  137.1790   77.4350  220.9190 C   0  0  0  0  0  0  0  0  0  0  0  0
  138.4710   77.8520  220.6690 C   0  0  0  0  0  0  0  0  0  0  0  0
  139.3400   70.5270  223.8700 C   0  0  0  0  0  0  0  0  0  0  0  0
  138.9880   69.1750  223.9190 C   0  0  0  0  0  0  0  0  0  0  0  0
  139.2460   68.4260  225.0410 C   0  0  0  0  0  0  0  0  0  0  0  0
  139.8550   69.0090  226.1290 C   0  0  0  0  0  0  0  0  0  0  0  0
  140.1030   68.2350  227.2440 C   0  0  0  0  0  0  0  0  0  0  0  0
  140.7150   68.8220  228.3340 C   0  0  0  0  0  0  0  0  0  0  0  0
  140.9410   68.0290  229.4090 F   0  0  0  0  0  0  0  0  0  0  0  0
  141.0690   70.1560  228.3020 C   0  0  0  0  0  0  0  0  0  0  0  0
  140.8180   70.9370  227.1730 C   0  0  0  0  0  0  0  0  0  0  0  0
  140.1990   70.3570  226.0630 C   0  0  0  0  0  0  0  0  0  0  0  0
  139.9280   71.0410  224.9510 N   0  0  0  0  0  0  0  0  0  0  0  0
  139.7380   73.1170  223.5820 H   0  0  0  0  0  0  0  0  0  0  0  0
  138.7423   72.8293  220.7070 H   0  0  0  0  0  0  0  0  0  0  0  0
  138.2907   74.2347  221.7772 H   0  0  0  0  0  0  0  0  0  0  0  0
  140.6193   73.3362  218.0504 H   0  0  0  0  0  0  0  0  0  0  0  0
  139.0798   73.2979  218.8291 H   0  0  0  0  0  0  0  0  0  0  0  0
  139.7298   75.0100  216.7000 H   0  0  0  0  0  0  0  0  0  0  0  0
  138.4463   75.4071  217.8725 H   0  0  0  0  0  0  0  0  0  0  0  0
  140.8367   76.8857  217.4252 H   0  0  0  0  0  0  0  0  0  0  0  0
  139.7596   77.1405  218.7677 H   0  0  0  0  0  0  0  0  0  0  0  0
  142.2335   75.1399  218.7070 H   0  0  0  0  0  0  0  0  0  0  0  0
  143.1752   76.0566  220.0393 H   0  0  0  0  0  0  0  0  0  0  0  0
  142.1527   77.4771  219.3213 H   0  0  0  0  0  0  0  0  0  0  0  0
  141.5230   76.2370  221.8260 H   0  0  0  0  0  0  0  0  0  0  0  0
  140.8132   78.4521  220.2130 H   0  0  0  0  0  0  0  0  0  0  0  0
  143.3618   78.7060  222.1458 H   0  0  0  0  0  0  0  0  0  0  0  0
  144.0023   80.5622  223.6288 H   0  0  0  0  0  0  0  0  0  0  0  0
  142.2714   82.1296  224.4904 H   0  0  0  0  0  0  0  0  0  0  0  0
  139.8956   81.7826  223.8297 H   0  0  0  0  0  0  0  0  0  0  0  0
  139.2714   79.9282  222.3535 H   0  0  0  0  0  0  0  0  0  0  0  0
  139.9781   76.6353  223.4560 H   0  0  0  0  0  0  0  0  0  0  0  0
  137.6283   75.9165  223.8388 H   0  0  0  0  0  0  0  0  0  0  0  0
  136.3779   77.6596  220.1995 H   0  0  0  0  0  0  0  0  0  0  0  0
  138.6946   78.4100  219.7478 H   0  0  0  0  0  0  0  0  0  0  0  0
  138.5001   68.7069  223.0513 H   0  0  0  0  0  0  0  0  0  0  0  0
  138.9665   67.3625  225.0700 H   0  0  0  0  0  0  0  0  0  0  0  0
  139.8191   67.1725  227.2643 H   0  0  0  0  0  0  0  0  0  0  0  0
  141.5555   70.6094  229.1782 H   0  0  0  0  0  0  0  0  0  0  0  0
  141.1047   71.9989  227.1573 H   0  0  0  0  0  0  0  0  0  0  0  0
  1  2  2  0
  2  3  1  0
  3  4  1  0
  4  5  1  0
  5  6  2  0
  5  7  1  0
  7  8  1  0
  8  9  1  0
  9 10  1  0
 10 11  1  0
 11 12  1  0
 12 13  1  0
 13 14  1  0
 14 15  1  0
 15 16  2  0
 16 17  1  0
 17 18  2  0
 18 19  1  0
 19 20  2  0
 14 21  1  0
 21 22  2  0
 22 23  1  0
 23 24  2  0
 24 25  1  0
 25 26  2  0
  2 27  1  0
 27 28  2  0
 28 29  1  0
 29 30  2  0
 30 31  1  0
 31 32  2  0
 32 33  1  0
 32 34  1  0
 34 35  2  0
 35 36  1  0
 36 37  2  0
 11  7  1  0
 20 15  1  0
 26 21  1  0
 37 27  1  0
 36 30  1  0
  3 38  1  0
  4 39  1  0
  4 40  1  0
  8 41  1  0
  8 42  1  0
  9 43  1  0
  9 44  1  0
 10 45  1  0
 10 46  1  0
 11 47  1  6
 12 48  1  0
 12 49  1  0
 13 50  1  0
 14 51  1  6
 16 52  1  0
 17 53  1  0
 18 54  1  0
 19 55  1  0
 20 56  1  0
 22 57  1  0
 23 58  1  0
 25 59  1  0
 26 60  1  0
 28 61  1  0
 29 62  1  0
 31 63  1  0
 34 64  1  0
 35 65  1  0
M  END
