
 63 67  0  0  0  0  0  0  0  0999 V2000
  140.3860   71.2130  221.2750 O   0  0  0  0  0  0  0  0  0  0  0  0
  140.0930   71.8450  222.3240 C   0  0  0  0  0  0  0  0  0  0  0  0
  139.8030   73.2440  222.3310 N   0  0  0  0  0  0  0  0  0  0  0  0
  139.8560   73.9390  221.0770 C   0  0  0  0  0  0  0  0  0  0  0  0
  140.7020   75.1320  221.1770 C   0  0  0  0  0  0  0  0  0  0  0  0
  140.9910   75.5840  222.3150 O   0  0  0  0  0  0  0  0  0  0  0  0
  141.1950   75.7770  220.0180 N   0  0  0  0  0  0  0  0  0  0  0  0
  140.6930   75.6060  218.6770 C   0  0  0  0  0  0  0  0  0  0  0  0
  141.5790   76.3720  217.7470 C   0  0  0  0  0  0  0  0  0  0  0  0
  142.8110   76.6510  218.5800 C   0  0  0  0  0  0  0  0  0  0  0  0
  142.3110   76.7380  219.9680 C   0  0  1  0  0  0  0  0  0  0  0  0
  141.7920   78.0510  220.4130 C   0  0  0  0  0  0  0  0  0  0  0  0
  141.4830   78.1010  221.8080 N   0  0  0  0  0  0  0  0  0  0  0  0
  140.5750   78.9340  222.4650 C   0  0  0  0  0  0  0  0  0  0  0  0
  140.8790   80.0670  223.1830 C   0  0  0  0  0  0  0  0  0  0  0  0
  139.9430   80.8500  223.8210 C   0  0  0  0  0  0  0  0  0  0  0  0
  138.6050   80.5200  223.7680 C   0  0  0  0  0  0  0  0  0  0  0  0
  137.6230   81.3530  224.4470 C   0  0  0  0  0  0  0  0  0  0  0  0
  137.3450   81.0980  225.7870 C   0  0  0  0  0  0  0  0  0  0  0  0
  136.4110   81.8680  226.4870 C   0  0  0  0  0  0  0  0  0  0  0  0
  135.7570   82.9000  225.8240 C   0  0  0  0  0  0  0  0  0  0  0  0
  136.0330   83.1580  224.4800 C   0  0  0  0  0  0  0  0  0  0  0  0
  136.9600   82.3940  223.7840 C   0  0  0  0  0  0  0  0  0  0  0  0
  138.2630   79.3910  223.0560 C   0  0  0  0  0  0  0  0  0  0  0  0
  139.2070   78.6140  222.4220 C   0  0  0  0  0  0  0  0  0  0  0  0
  140.0400   71.1370  223.5970 C   0  0  0  0  0  0  0  0  0  0  0  0
  139.5150   69.8540  223.6810 C   0  0  0  0  0  0  0  0  0  0  0  0
  139.4580   69.1690  224.8870 C   0  0  0  0  0  0  0  0  0  0  0  0
  139.9230   69.7420  226.0530 C   0  0  0  0  0  0  0  0  0  0  0  0
  139.8900   69.1050  227.2770 C   0  0  0  0  0  0  0  0  0  0  0  0
  140.3880   69.7840  228.3830 C   0  0  0  0  0  0  0  0  0  0  0  0
  140.9070   71.0660  228.2700 C   0  0  0  0  0  0  0  0  0  0  0  0
  140.9440   71.7160  227.0350 C   0  0  0  0  0  0  0  0  0  0  0  0
  140.4420   71.0250  225.9370 C   0  0  0  0  0  0  0  0  0  0  0  0
  140.4850   71.6680  224.7500 N   0  0  0  0  0  0  0  0  0  0  0  0
  139.5620   73.7330  223.2370 H   0  0  0  0  0  0  0  0  0  0  0  0
  140.2691   73.2675  220.3099 H   0  0  0  0  0  0  0  0  0  0  0  0
  138.8372   74.2517  220.8045 H   0  0  0  0  0  0  0  0  0  0  0  0
  140.7039   74.5394  218.4082 H   0  0  0  0  0  0  0  0  0  0  0  0
  139.6589   75.9747  218.6077 H   0  0  0  0  0  0  0  0  0  0  0  0
  141.8316   75.7711  216.8609 H   0  0  0  0  0  0  0  0  0  0  0  0
  141.1060   77.2877  217.3627 H   0  0  0  0  0  0  0  0  0  0  0  0
  143.5403   75.8335  218.4805 H   0  0  0  0  0  0  0  0  0  0  0  0
  143.3284   77.5691  218.2648 H   0  0  0  0  0  0  0  0  0  0  0  0
  143.1623   76.5434  220.6369 H   0  0  0  0  0  0  0  0  0  0  0  0
  142.5519   78.8166  220.1974 H   0  0  0  0  0  0  0  0  0  0  0  0
  140.8532   78.2285  219.8679 H   0  0  0  0  0  0  0  0  0  0  0  0
  142.0210   77.4110  222.4180 H   0  0  0  0  0  0  0  0  0  0  0  0
  141.9353   80.3662  223.2519 H   0  0  0  0  0  0  0  0  0  0  0  0
  140.2643   81.7437  224.3760 H   0  0  0  0  0  0  0  0  0  0  0  0
  137.8677   80.2789  226.3027 H   0  0  0  0  0  0  0  0  0  0  0  0
  136.1971   81.6603  227.5458 H   0  0  0  0  0  0  0  0  0  0  0  0
  135.0196   83.5154  226.3601 H   0  0  0  0  0  0  0  0  0  0  0  0
  135.5092   83.9773  223.9658 H   0  0  0  0  0  0  0  0  0  0  0  0
  137.1713   82.6034  222.7250 H   0  0  0  0  0  0  0  0  0  0  0  0
  137.2037   79.1014  222.9920 H   0  0  0  0  0  0  0  0  0  0  0  0
  138.8823   77.7208  221.8682 H   0  0  0  0  0  0  0  0  0  0  0  0
  139.1351   69.3688  222.7698 H   0  0  0  0  0  0  0  0  0  0  0  0
  139.0356   68.1537  224.9136 H   0  0  0  0  0  0  0  0  0  0  0  0
  139.4811   68.0885  227.3745 H   0  0  0  0  0  0  0  0  0  0  0  0
  140.3703   69.2950  229.3682 H   0  0  0  0  0  0  0  0  0  0  0  0
  141.2939   71.5763  229.1644 H   0  0  0  0  0  0  0  0  0  0  0  0
  141.3530   72.7322  226.9344 H   0  0  0  0  0  0  0  0  0  0  0  0
  1  2  2  0
  2  3  1  0
  3  4  1  0
  4  5  1  0
  5  6  2  0
  5  7  1  0
  7  8  1  0
  8  9  1  0
  9 10  1  0
 10 11  1  0
 11 12  1  0
 12 13  1  0
 13 14  1  0
 14 15  2  0
 15 16  1  0
 16 17  2  0
 17 18  1  0
 18 19  2  0
 19 20  1  0
 20 21  2  0
 21 22  1  0
 22 23  2  0
 17 24  1  0
 24 25  2  0
  2 26  1  0
 26 27  2  0
 27 28  1  0
 28 29  2  0
 29 30  1  0
 30 31  2  0
 31 32  1  0
 32 33  2  0
 33 34  1  0
 34 35  2  0
 11  7  1  0
 25 14  1  0
 35 26  1  0
 23 18  1  0
 34 29  1  0
  3 36  1  0
  4 37  1  0
  4 38  1  0
  8 39  1  0
  8 40  1  0
  9 41  1  0
  9 42  1  0
 10 43  1  0
 10 44  1  0
 11 45  1  1
 12 46  1  0
 12 47  1  0
 13 48  1  0
 15 49  1  0
 16 50  1  0
 19 51  1  0
 20 52  1  0
 21 53  1  0
 22 54  1  0
 23 55  1  0
 24 56  1  0
 25 57  1  0
 27 58  1  0
 28 59  1  0
 30 60  1  0
 31 61  1  0
 32 62  1  0
 33 63  1  0
M  END
