@<TRIPOS>MOLECULE
*****
 70 76 0 0 0
SMALL
GASTEIGER

@<TRIPOS>ATOM
      1 O         140.1590   75.7590  219.3660 O.2     1  UNL1       -0.2680
      2 C         139.9640   75.6900  220.6170 C.2     1  UNL1        0.2672
      3 C         140.2960   76.8880  221.3700 C.ar    1  UNL1        0.1033
      4 C         139.4060   77.6730  222.0870 C.ar    1  UNL1       -0.0235
      5 C         140.0990   78.6830  222.6620 C.ar    1  UNL1        0.0096
      6 C         139.7350   79.7440  223.4480 C.ar    1  UNL1        0.0095
      7 C         138.4060   80.0710  223.8920 C.ar    1  UNL1        0.0716
      8 C         138.0500   80.9460  224.8790 C.ar    1  UNL1       -0.0357
      9 C         136.6990   81.1950  225.1590 C.ar    1  UNL1       -0.0583
     10 C         135.6810   80.5880  224.4690 C.ar    1  UNL1       -0.0436
     11 C         136.0800   79.7000  223.4630 C.ar    1  UNL1        0.0283
     12 N         137.3780   79.4830  223.2210 N.ar    1  UNL1       -0.2550
     13 C         140.7580   80.6040  223.8250 C.ar    1  UNL1       -0.0519
     14 C         142.0700   80.4230  223.4470 C.ar    1  UNL1       -0.0592
     15 C         142.4350   79.3540  222.6600 C.ar    1  UNL1       -0.0377
     16 C         141.4280   78.4920  222.2760 C.ar    1  UNL1        0.0476
     17 N         141.5290   77.4030  221.4970 N.ar    1  UNL1       -0.3505
     18 N         139.4460   74.4890  221.2120 N.am    1  UNL1       -0.2651
     19 C         140.1950   73.2550  221.1940 C.3     1  UNL1        0.0310
     20 C         139.3800   72.3010  222.0000 C.3     1  UNL1        0.0275
     21 C         139.0880   71.0190  221.2520 C.3     1  UNL1       -0.0278
     22 C         139.2160   69.9940  222.3360 C.3     1  UNL1       -0.0002
     23 N         139.9730   70.4910  223.4160 N.3     1  UNL1       -0.3011
     24 C         139.5820   70.1920  224.7300 C.3     1  UNL1        0.0029
     25 C         140.6120   69.9980  225.7790 C.3     1  UNL1       -0.0157
     26 C         140.1450   69.2870  227.0110 C.3     1  UNL1       -0.0467
     27 C         139.5680   70.1690  228.0780 C.3     1  UNL1       -0.0401
     28 C         140.2970   71.4450  228.3000 C.3     1  UNL1       -0.0041
     29 N         141.0180   71.9800  227.2140 N.3     1  UNL1       -0.3157
     30 C         141.4450   71.1520  226.1670 C.3     1  UNL1       -0.0001
     31 C         140.1670   71.8880  223.1960 C.3     1  UNL1        0.0101
     32 C         138.1600   73.0490  222.3220 C.ar    1  UNL1       -0.0170
     33 C         137.0290   72.6130  223.0100 C.ar    1  UNL1       -0.0562
     34 C         135.9440   73.4290  223.2450 C.ar    1  UNL1       -0.0614
     35 C         135.9830   74.7240  222.7800 C.ar    1  UNL1       -0.0600
     36 C         137.1040   75.1350  222.1050 C.ar    1  UNL1       -0.0400
     37 C         138.1980   74.3400  221.8590 C.ar    1  UNL1        0.0404
     38 H         138.3226   77.5038  222.1736 H       1  UNL1        0.0646
     39 H         138.8305   81.4598  225.4593 H       1  UNL1        0.0639
     40 H         136.4462   81.9033  225.9617 H       1  UNL1        0.0619
     41 H         134.6220   80.7856  224.6911 H       1  UNL1        0.0633
     42 H         135.3194   79.1757  222.8659 H       1  UNL1        0.0830
     43 H         140.5088   81.4705  224.4551 H       1  UNL1        0.0624
     44 H         142.8350   81.1409  223.7778 H       1  UNL1        0.0618
     45 H         143.4789   79.1946  222.3521 H       1  UNL1        0.0638
     46 H         142.3940   77.0030  221.0540 H       1  UNL1        0.1660
     47 H         140.3131   72.8887  220.1635 H       1  UNL1        0.0478
     48 H         141.2095   73.3798  221.6005 H       1  UNL1        0.0478
     49 H         138.0739   71.0264  220.8258 H       1  UNL1        0.0287
     50 H         139.7528   70.8437  220.3933 H       1  UNL1        0.0287
     51 H         138.2121   69.7233  222.6951 H       1  UNL1        0.0427
     52 H         139.7297   69.1124  221.9250 H       1  UNL1        0.0427
     53 H         138.9367   71.0171  225.0659 H       1  UNL1        0.0430
     54 H         139.1202   69.1978  224.6388 H       1  UNL1        0.0430
     55 H         141.2793   69.3362  225.2074 H       1  UNL1        0.0325
     56 H         139.3723   68.5628  226.7136 H       1  UNL1        0.0269
     57 H         141.0387   68.8205  227.4512 H       1  UNL1        0.0269
     58 H         138.5326   70.4119  227.7970 H       1  UNL1        0.0278
     59 H         139.6440   69.6037  229.0186 H       1  UNL1        0.0278
     60 H         139.5566   72.1983  228.6070 H       1  UNL1        0.0424
     61 H         141.0622   71.2032  229.0524 H       1  UNL1        0.0424
     62 H         140.7640   72.9380  226.9360 H       1  UNL1        0.1219
     63 H         141.5488   71.7881  225.2756 H       1  UNL1        0.0427
     64 H         142.3660   70.6923  226.5548 H       1  UNL1        0.0427
     65 H         139.8245   72.4517  224.0763 H       1  UNL1        0.0436
     66 H         141.2345   72.0949  223.0299 H       1  UNL1        0.0436
     67 H         137.0016   71.5773  223.3797 H       1  UNL1        0.0621
     68 H         135.0663   73.0540  223.7919 H       1  UNL1        0.0618
     69 H         135.1390   75.4098  222.9451 H       1  UNL1        0.0618
     70 H         137.1293   76.1708  221.7356 H       1  UNL1        0.0636
@<TRIPOS>BOND
     1     1     2    2
     2     2     3    1
     3     3     4   ar
     4     4     5   ar
     5     5     6   ar
     6     6     7    1
     7     7     8   ar
     8     8     9   ar
     9     9    10   ar
    10    10    11   ar
    11    11    12   ar
    12     6    13   ar
    13    13    14   ar
    14    14    15   ar
    15    15    16   ar
    16    16    17   ar
    17     2    18   am
    18    18    19    1
    19    20    19    1
    20    20    21    1
    21    21    22    1
    22    22    23    1
    23    23    24    1
    24    24    25    1
    25    25    26    1
    26    26    27    1
    27    27    28    1
    28    28    29    1
    29    29    30    1
    30    23    31    1
    31    20    32    1
    32    32    33   ar
    33    33    34   ar
    34    34    35   ar
    35    35    36   ar
    36    36    37   ar
    37    17     3   ar
    38    37    18    1
    39    16     5   ar
    40    31    20    1
    41    37    32   ar
    42    12     7   ar
    43    30    25    1
    44     4    38    1
    45     8    39    1
    46     9    40    1
    47    10    41    1
    48    11    42    1
    49    13    43    1
    50    14    44    1
    51    15    45    1
    52    17    46    1
    53    19    47    1
    54    19    48    1
    55    21    49    1
    56    21    50    1
    57    22    51    1
    58    22    52    1
    59    24    53    1
    60    24    54    1
    61    25    55    1
    62    26    56    1
    63    26    57    1
    64    27    58    1
    65    27    59    1
    66    28    60    1
    67    28    61    1
    68    29    62    1
    69    30    63    1
    70    30    64    1
    71    31    65    1
    72    31    66    1
    73    33    67    1
    74    34    68    1
    75    35    69    1
    76    36    70    1
