
     RDKit          3D

 70 75  0  0  1  0  0  0  0  0999 V2000
  132.7890   74.9060  227.2230 C   0  0  0  0  0  0  0  0  0  0  0  0
  133.4890   76.0290  226.8610 C   0  0  0  0  0  0  0  0  0  0  0  0
  134.3110   75.9800  225.7440 C   0  0  0  0  0  0  0  0  0  0  0  0
  134.4500   74.8300  224.9800 C   0  0  0  0  0  0  0  0  0  0  0  0
  133.7480   73.7130  225.3480 C   0  0  0  0  0  0  0  0  0  0  0  0
  132.9200   73.7450  226.4640 C   0  0  0  0  0  0  0  0  0  0  0  0
  133.8240   72.4210  224.5930 C   0  0  0  0  0  0  0  0  0  0  0  0
  135.1940   72.3900  223.9360 C   0  0  0  0  0  0  0  0  0  0  0  0
  135.2610   73.6050  223.0270 C   0  0  2  0  0  0  0  0  0  0  0  0
  136.2220   73.4640  221.9870 N   0  0  0  0  0  0  0  0  0  0  0  0
  137.6230   73.3370  222.1850 C   0  0  0  0  0  0  0  0  0  0  0  0
  138.5040   74.2740  221.7390 N   0  0  0  0  0  0  0  0  0  0  0  0
  139.8230   74.1410  221.9320 C   0  0  0  0  0  0  0  0  0  0  0  0
  140.8050   75.0650  221.5150 N   0  0  0  0  0  0  0  0  0  0  0  0
  140.8370   76.3430  222.2350 C   0  0  0  0  0  0  0  0  0  0  0  0
  141.1110   77.4850  221.2960 C   0  0  0  0  0  0  0  0  0  0  0  0
  141.1990   78.7590  222.0860 C   0  0  1  0  0  0  0  0  0  0  0  0
  141.7630   78.5400  223.4920 C   0  0  0  0  0  0  0  0  0  0  0  0
  142.2340   79.9540  223.8460 C   0  0  0  0  0  0  0  0  0  0  0  0
  142.2150   80.7330  222.5520 C   0  0  0  0  0  0  0  0  0  0  0  0
  142.1980   79.6830  221.5510 N   0  0  0  0  0  0  0  0  0  0  0  0
  140.2570   73.0430  222.5830 N   0  0  0  0  0  0  0  0  0  0  0  0
  139.4330   72.0900  223.0430 C   0  0  0  0  0  0  0  0  0  0  0  0
  140.0020   70.9790  223.7200 N   0  0  0  0  0  0  0  0  0  0  0  0
  139.5790   69.6300  223.4340 C   0  0  0  0  0  0  0  0  0  0  0  0
  139.2490   68.8000  224.6230 C   0  0  0  0  0  0  0  0  0  0  0  0
  139.7860   69.3250  225.8970 C   0  0  0  0  0  0  0  0  0  0  0  0
  139.4130   68.6650  227.0540 C   0  0  0  0  0  0  0  0  0  0  0  0
  139.8700   69.0930  228.2810 C   0  0  0  0  0  0  0  0  0  0  0  0
  140.7110   70.1990  228.3350 C   0  0  0  0  0  0  0  0  0  0  0  0
  141.0770   70.8490  227.1760 C   0  0  0  0  0  0  0  0  0  0  0  0
  140.6140   70.4110  225.9480 C   0  0  0  0  0  0  0  0  0  0  0  0
  141.0390   71.1490  224.7320 C   0  0  0  0  0  0  0  0  0  0  0  0
  138.1280   72.2510  222.8370 N   0  0  0  0  0  0  0  0  0  0  0  0
  135.3590   74.8920  223.8040 C   0  0  0  0  0  0  0  0  0  0  0  0
  132.1306   74.9221  228.1041 H   0  0  0  0  0  0  0  0  0  0  0  0
  133.3999   76.9551  227.4478 H   0  0  0  0  0  0  0  0  0  0  0  0
  134.8705   76.8819  225.4549 H   0  0  0  0  0  0  0  0  0  0  0  0
  132.3611   72.8423  226.7516 H   0  0  0  0  0  0  0  0  0  0  0  0
  133.7126   71.5705  225.2816 H   0  0  0  0  0  0  0  0  0  0  0  0
  133.0206   72.3474  223.8453 H   0  0  0  0  0  0  0  0  0  0  0  0
  135.9836   72.4424  224.7000 H   0  0  0  0  0  0  0  0  0  0  0  0
  135.3436   71.4592  223.3693 H   0  0  0  0  0  0  0  0  0  0  0  0
  134.2990   73.6668  222.4972 H   0  0  0  0  0  0  0  0  0  0  0  0
  135.8660   73.4540  220.9930 H   0  0  0  0  0  0  0  0  0  0  0  0
  141.4920   74.8950  220.7420 H   0  0  0  0  0  0  0  0  0  0  0  0
  139.8649   76.5047  222.7238 H   0  0  0  0  0  0  0  0  0  0  0  0
  141.6430   76.3035  222.9825 H   0  0  0  0  0  0  0  0  0  0  0  0
  142.0617   77.3105  220.7710 H   0  0  0  0  0  0  0  0  0  0  0  0
  140.2990   77.5615  220.5579 H   0  0  0  0  0  0  0  0  0  0  0  0
  140.1650   79.1334  222.0583 H   0  0  0  0  0  0  0  0  0  0  0  0
  140.9870   78.1875  224.1874 H   0  0  0  0  0  0  0  0  0  0  0  0
  142.5504   77.7740  223.5488 H   0  0  0  0  0  0  0  0  0  0  0  0
  141.5529   80.4120  224.5783 H   0  0  0  0  0  0  0  0  0  0  0  0
  143.2373   79.9444  224.2968 H   0  0  0  0  0  0  0  0  0  0  0  0
  141.3165   81.3637  222.4813 H   0  0  0  0  0  0  0  0  0  0  0  0
  143.0631   81.4254  222.4456 H   0  0  0  0  0  0  0  0  0  0  0  0
  143.1330   79.1850  221.6490 H   0  0  0  0  0  0  0  0  0  0  0  0
  138.6833   69.6828  222.7977 H   0  0  0  0  0  0  0  0  0  0  0  0
  140.4364   69.1394  222.9501 H   0  0  0  0  0  0  0  0  0  0  0  0
  138.1540   68.7403  224.7088 H   0  0  0  0  0  0  0  0  0  0  0  0
  139.7183   67.8181  224.4630 H   0  0  0  0  0  0  0  0  0  0  0  0
  138.7465   67.7920  226.9938 H   0  0  0  0  0  0  0  0  0  0  0  0
  139.5748   68.5690  229.2020 H   0  0  0  0  0  0  0  0  0  0  0  0
  141.0854   70.5563  229.3057 H   0  0  0  0  0  0  0  0  0  0  0  0
  141.7427   71.7232  227.2278 H   0  0  0  0  0  0  0  0  0  0  0  0
  141.1613   72.2168  224.9663 H   0  0  0  0  0  0  0  0  0  0  0  0
  142.0007   70.7614  224.3646 H   0  0  0  0  0  0  0  0  0  0  0  0
  136.3941   75.0353  224.1475 H   0  0  0  0  0  0  0  0  0  0  0  0
  135.0677   75.7338  223.1586 H   0  0  0  0  0  0  0  0  0  0  0  0
  1  2  2  0
  2  3  1  0
  3  4  2  0
  4  5  1  0
  5  6  2  0
  5  7  1  0
  7  8  1  0
  8  9  1  0
  9 10  1  0
 10 11  1  0
 11 12  2  0
 12 13  1  0
 13 14  1  0
 14 15  1  0
 15 16  1  0
 16 17  1  0
 17 18  1  0
 18 19  1  0
 19 20  1  0
 20 21  1  0
 13 22  2  0
 22 23  1  0
 23 24  1  0
 24 25  1  0
 25 26  1  0
 26 27  1  0
 27 28  2  0
 28 29  1  0
 29 30  2  0
 30 31  1  0
 31 32  2  0
 32 33  1  0
 23 34  2  0
  9 35  1  0
  6  1  1  0
 34 11  1  0
 35  4  1  0
 21 17  1  0
 33 24  1  0
 32 27  1  0
  1 36  1  0
  2 37  1  0
  3 38  1  0
  6 39  1  0
  7 40  1  0
  7 41  1  0
  8 42  1  0
  8 43  1  0
  9 44  1  6
 10 45  1  0
 14 46  1  0
 15 47  1  0
 15 48  1  0
 16 49  1  0
 16 50  1  0
 17 51  1  1
 18 52  1  0
 18 53  1  0
 19 54  1  0
 19 55  1  0
 20 56  1  0
 20 57  1  0
 21 58  1  0
 25 59  1  0
 25 60  1  0
 26 61  1  0
 26 62  1  0
 28 63  1  0
 29 64  1  0
 30 65  1  0
 31 66  1  0
 33 67  1  0
 33 68  1  0
 35 69  1  0
 35 70  1  0
M  END
