@<TRIPOS>MOLECULE
*****
 61 64 0 0 0
SMALL
GASTEIGER

@<TRIPOS>ATOM
      1 C         141.7800   78.9160  224.1530 C.3     1  UNL1       -0.0425
      2 C         141.9440   79.1370  222.6590 C.3     1  UNL1        0.0456
      3 N         141.3440   78.0520  221.8990 N.am    1  UNL1       -0.3072
      4 C         141.4780   77.9280  220.4890 C.2     1  UNL1        0.2340
      5 O         142.1330   78.7560  219.7980 O.2     1  UNL1       -0.2738
      6 C         140.8050   76.7620  219.8520 C.3     1  UNL1        0.1022
      7 C         141.8370   76.1090  218.9630 C.3     1  UNL1       -0.0257
      8 C         142.9420   75.6100  219.8720 C.3     1  UNL1       -0.0495
      9 C         142.3440   74.5140  220.7270 C.3     1  UNL1       -0.0371
     10 C         141.2090   75.0260  221.5760 C.3     1  UNL1        0.0155
     11 N         140.2730   75.8370  220.8330 N.am    1  UNL1       -0.2886
     12 C         138.8690   75.7000  221.0830 C.2     1  UNL1        0.2334
     13 O         138.2250   76.7010  221.4180 O.2     1  UNL1       -0.2739
     14 C         138.2980   74.3360  220.9160 C.3     1  UNL1        0.0887
     15 N         138.6170   73.4330  221.9800 N.am    1  UNL1       -0.3015
     16 C         138.8330   72.0450  221.7730 C.2     1  UNL1        0.2628
     17 O         138.7460   71.5650  220.6200 O.2     1  UNL1       -0.2685
     18 C         139.1580   71.2010  222.9420 C.ar    1  UNL1        0.1260
     19 C         138.8530   69.8560  222.9290 C.ar    1  UNL1       -0.0306
     20 C         139.1380   69.0310  224.0040 C.ar    1  UNL1       -0.0504
     21 C         139.7500   69.5880  225.1220 C.ar    1  UNL1        0.0018
     22 C         140.0690   68.8420  226.2330 C.ar    1  UNL1       -0.0342
     23 C         140.6770   69.3980  227.3410 C.ar    1  UNL1        0.0417
     24 CL        141.0630   68.4160  228.7270 Cl      1  UNL1       -0.0835
     25 C         140.9580   70.7480  227.3000 C.ar    1  UNL1       -0.0413
     26 C         140.6550   71.5420  226.1990 C.ar    1  UNL1       -0.0343
     27 C         140.0470   70.9500  225.1080 C.ar    1  UNL1        0.0719
     28 N         139.7440   71.7150  224.0250 N.ar    1  UNL1       -0.2421
     29 C         141.2350   80.4000  222.3250 C.ar    1  UNL1       -0.0275
     30 C         139.9060   80.5970  222.6590 C.ar    1  UNL1       -0.0568
     31 C         139.2620   81.7900  222.3330 C.ar    1  UNL1       -0.0614
     32 C         139.9480   82.7880  221.6720 C.ar    1  UNL1       -0.0617
     33 C         141.2730   82.6150  221.3280 C.ar    1  UNL1       -0.0614
     34 C         141.8880   81.4180  221.6650 C.ar    1  UNL1       -0.0568
     35 H         142.3482   79.6817  224.7015 H       1  UNL1        0.0251
     36 H         140.7153   78.9884  224.4197 H       1  UNL1        0.0251
     37 H         142.1578   77.9179  224.4197 H       1  UNL1        0.0251
     38 H         143.0135   79.1819  222.4058 H       1  UNL1        0.0545
     39 H         140.8030   77.3530  222.4520 H       1  UNL1        0.1493
     40 H         139.9330   77.0885  219.2663 H       1  UNL1        0.0597
     41 H         141.3876   75.2675  218.4154 H       1  UNL1        0.0288
     42 H         142.2268   76.8209  218.2205 H       1  UNL1        0.0288
     43 H         143.7740   75.2114  219.2729 H       1  UNL1        0.0266
     44 H         143.3381   76.4250  220.4956 H       1  UNL1        0.0266
     45 H         141.9665   73.7159  220.0708 H       1  UNL1        0.0280
     46 H         143.1295   74.1348  221.3972 H       1  UNL1        0.0280
     47 H         140.6698   74.1649  221.9976 H       1  UNL1        0.0465
     48 H         141.6447   75.6607  222.3617 H       1  UNL1        0.0465
     49 H         137.2033   74.4251  220.8555 H       1  UNL1        0.0558
     50 H         138.7422   73.9167  220.0012 H       1  UNL1        0.0558
     51 H         138.6990   73.8000  222.9670 H       1  UNL1        0.1496
     52 H         138.3695   69.4264  222.0392 H       1  UNL1        0.0641
     53 H         138.8864   67.9606  223.9745 H       1  UNL1        0.0625
     54 H         139.8320   67.7678  226.2388 H       1  UNL1        0.0639
     55 H         141.4403   71.2145  228.1717 H       1  UNL1        0.0633
     56 H         140.8936   72.6158  226.1966 H       1  UNL1        0.0639
     57 H         139.3532   79.8055  223.1862 H       1  UNL1        0.0621
     58 H         138.2057   81.9356  222.6032 H       1  UNL1        0.0618
     59 H         139.4354   83.7275  221.4176 H       1  UNL1        0.0618
     60 H         141.8271   83.4054  220.8005 H       1  UNL1        0.0618
     61 H         142.9443   81.2752  221.3931 H       1  UNL1        0.0621
@<TRIPOS>BOND
     1     1     2    1
     2     2     3    1
     3     3     4   am
     4     4     5    2
     5     4     6    1
     6     6     7    1
     7     7     8    1
     8     8     9    1
     9     9    10    1
    10    10    11    1
    11    11    12   am
    12    12    13    2
    13    12    14    1
    14    14    15    1
    15    15    16   am
    16    16    17    2
    17    16    18    1
    18    18    19   ar
    19    19    20   ar
    20    20    21   ar
    21    21    22   ar
    22    22    23   ar
    23    23    24    1
    24    23    25   ar
    25    25    26   ar
    26    26    27   ar
    27    27    28   ar
    28     2    29    1
    29    29    30   ar
    30    30    31   ar
    31    31    32   ar
    32    32    33   ar
    33    33    34   ar
    34    11     6    1
    35    28    18   ar
    36    34    29   ar
    37    27    21   ar
    38     1    35    1
    39     1    36    1
    40     1    37    1
    41     2    38    1
    42     3    39    1
    43     6    40    1
    44     7    41    1
    45     7    42    1
    46     8    43    1
    47     8    44    1
    48     9    45    1
    49     9    46    1
    50    10    47    1
    51    10    48    1
    52    14    49    1
    53    14    50    1
    54    15    51    1
    55    19    52    1
    56    20    53    1
    57    22    54    1
    58    25    55    1
    59    26    56    1
    60    30    57    1
    61    31    58    1
    62    32    59    1
    63    33    60    1
    64    34    61    1
