
     RDKit          3D

 74 79  0  0  0  0  0  0  0  0999 V2000
  148.1960   74.4900  217.4730 N   0  0  0  0  0  0  0  0  0  0  0  0
  148.0150   74.1280  215.7950 S   0  0  0  0  0  0  0  0  0  0  0  0
  148.6140   72.8010  215.4790 O   0  0  0  0  0  0  0  0  0  0  0  0
  148.7090   75.2170  215.0390 O   0  0  0  0  0  0  0  0  0  0  0  0
  146.2650   74.0930  215.3890 C   0  0  0  0  0  0  0  0  0  0  0  0
  145.6340   72.8910  216.0330 C   0  0  0  0  0  0  0  0  0  0  0  0
  144.4850   73.2510  216.9470 C   0  0  1  0  0  0  0  0  0  0  0  0
  144.5770   72.6600  218.3130 C   0  0  0  0  0  0  0  0  0  0  0  0
  144.7620   73.6870  219.4040 C   0  0  0  0  0  0  0  0  0  0  0  0
  143.7860   74.8110  219.3740 C   0  0  2  0  0  0  0  0  0  0  0  0
  142.6610   74.6690  220.3480 C   0  0  0  0  0  0  0  0  0  0  0  0
  142.2260   73.4590  220.7730 N   0  0  0  0  0  0  0  0  0  0  0  0
  141.1980   73.4240  221.6550 C   0  0  0  0  0  0  0  0  0  0  0  0
  140.7680   72.1360  222.0840 N   0  0  0  0  0  0  0  0  0  0  0  0
  140.4400   71.1440  221.0910 C   0  0  0  0  0  0  0  0  0  0  0  0
  139.0350   70.6570  221.3730 C   0  0  0  0  0  0  0  0  0  0  0  0
  139.0210   70.1350  222.7620 C   0  0  0  0  0  0  0  0  0  0  0  0
  138.2070   69.0440  223.0420 C   0  0  0  0  0  0  0  0  0  0  0  0
  138.2010   68.5620  224.3450 C   0  0  0  0  0  0  0  0  0  0  0  0
  138.9640   69.1270  225.3430 C   0  0  0  0  0  0  0  0  0  0  0  0
  139.7500   70.2050  225.0070 C   0  0  0  0  0  0  0  0  0  0  0  0
  139.7990   70.7280  223.7310 C   0  0  0  0  0  0  0  0  0  0  0  0
  140.6810   71.8890  223.4890 C   0  0  0  0  0  0  0  0  0  0  0  0
  140.6230   74.5610  222.0950 N   0  0  0  0  0  0  0  0  0  0  0  0
  141.0490   75.7670  221.6780 C   0  0  0  0  0  0  0  0  0  0  0  0
  140.4680   76.9850  222.1200 N   0  0  0  0  0  0  0  0  0  0  0  0
  139.1370   77.3540  221.6870 C   0  0  0  0  0  0  0  0  0  0  0  0
  138.5740   78.2740  222.7630 C   0  0  0  0  0  0  0  0  0  0  0  0
  139.4400   79.4930  222.7570 C   0  0  0  0  0  0  0  0  0  0  0  0
  138.9140   80.7700  222.6350 C   0  0  0  0  0  0  0  0  0  0  0  0
  139.8310   81.8070  222.6440 C   0  0  0  0  0  0  0  0  0  0  0  0
  141.1800   81.6130  222.7640 C   0  0  0  0  0  0  0  0  0  0  0  0
  141.7020   80.3190  222.8870 C   0  0  0  0  0  0  0  0  0  0  0  0
  140.8020   79.2660  222.8800 C   0  0  0  0  0  0  0  0  0  0  0  0
  141.2230   77.8450  223.0040 C   0  0  0  0  0  0  0  0  0  0  0  0
  142.0730   75.7700  220.8010 N   0  0  0  0  0  0  0  0  0  0  0  0
  143.1020   74.9270  218.0060 C   0  0  0  0  0  0  0  0  0  0  0  0
  144.2330   74.7250  217.0010 C   0  0  0  0  0  0  0  0  0  0  0  0
  147.2280   74.5180  217.8840 H   0  0  0  0  0  0  0  0  0  0  0  0
  148.5120   75.5020  217.5040 H   0  0  0  0  0  0  0  0  0  0  0  0
  145.7818   75.0075  215.7634 H   0  0  0  0  0  0  0  0  0  0  0  0
  146.1392   74.0372  214.2977 H   0  0  0  0  0  0  0  0  0  0  0  0
  145.2585   72.2251  215.2420 H   0  0  0  0  0  0  0  0  0  0  0  0
  146.4045   72.4017  216.6469 H   0  0  0  0  0  0  0  0  0  0  0  0
  143.6073   72.7800  216.4802 H   0  0  0  0  0  0  0  0  0  0  0  0
  145.4330   71.9696  218.3364 H   0  0  0  0  0  0  0  0  0  0  0  0
  143.6226   72.1494  218.5088 H   0  0  0  0  0  0  0  0  0  0  0  0
  145.7733   74.1091  219.3090 H   0  0  0  0  0  0  0  0  0  0  0  0
  144.5997   73.1606  220.3562 H   0  0  0  0  0  0  0  0  0  0  0  0
  144.4012   75.6881  219.6234 H   0  0  0  0  0  0  0  0  0  0  0  0
  140.4874   71.5896  220.0864 H   0  0  0  0  0  0  0  0  0  0  0  0
  141.1531   70.3074  221.1322 H   0  0  0  0  0  0  0  0  0  0  0  0
  138.3215   71.4885  221.2759 H   0  0  0  0  0  0  0  0  0  0  0  0
  138.7432   69.8730  220.6587 H   0  0  0  0  0  0  0  0  0  0  0  0
  137.5894   68.5786  222.2598 H   0  0  0  0  0  0  0  0  0  0  0  0
  137.5644   67.6986  224.5883 H   0  0  0  0  0  0  0  0  0  0  0  0
  138.9456   68.7315  226.3693 H   0  0  0  0  0  0  0  0  0  0  0  0
  140.3666   70.6705  225.7900 H   0  0  0  0  0  0  0  0  0  0  0  0
  140.2671   72.7752  223.9922 H   0  0  0  0  0  0  0  0  0  0  0  0
  141.6843   71.6768  223.8870 H   0  0  0  0  0  0  0  0  0  0  0  0
  139.1831   77.8805  220.7223 H   0  0  0  0  0  0  0  0  0  0  0  0
  138.5021   76.4663  221.5493 H   0  0  0  0  0  0  0  0  0  0  0  0
  137.5333   78.5433  222.5295 H   0  0  0  0  0  0  0  0  0  0  0  0
  138.5712   77.7865  223.7490 H   0  0  0  0  0  0  0  0  0  0  0  0
  137.8330   80.9484  222.5369 H   0  0  0  0  0  0  0  0  0  0  0  0
  139.4568   82.8371  222.5501 H   0  0  0  0  0  0  0  0  0  0  0  0
  141.8588   82.4785  222.7639 H   0  0  0  0  0  0  0  0  0  0  0  0
  142.7838   80.1458  222.9852 H   0  0  0  0  0  0  0  0  0  0  0  0
  142.2908   77.7662  222.7520 H   0  0  0  0  0  0  0  0  0  0  0  0
  141.0375   77.5212  224.0388 H   0  0  0  0  0  0  0  0  0  0  0  0
  142.6434   75.9192  217.8824 H   0  0  0  0  0  0  0  0  0  0  0  0
  142.2905   74.1955  217.8783 H   0  0  0  0  0  0  0  0  0  0  0  0
  145.1379   75.2546  217.3337 H   0  0  0  0  0  0  0  0  0  0  0  0
  143.9652   75.1225  216.0109 H   0  0  0  0  0  0  0  0  0  0  0  0
  1  2  1  0
  2  3  2  0
  2  4  2  0
  2  5  1  0
  5  6  1  0
  6  7  1  0
  7  8  1  0
  8  9  1  0
  9 10  1  0
 10 11  1  0
 11 12  2  0
 12 13  1  0
 13 14  1  0
 14 15  1  0
 15 16  1  0
 16 17  1  0
 17 18  2  0
 18 19  1  0
 19 20  2  0
 20 21  1  0
 21 22  2  0
 22 23  1  0
 13 24  2  0
 24 25  1  0
 25 26  1  0
 26 27  1  0
 27 28  1  0
 28 29  1  0
 29 30  2  0
 30 31  1  0
 31 32  2  0
 32 33  1  0
 33 34  2  0
 34 35  1  0
 25 36  2  0
 10 37  1  0
 37 38  1  0
 38  7  1  0
 36 11  1  0
 23 14  1  0
 35 26  1  0
 22 17  1  0
 34 29  1  0
  1 39  1  0
  1 40  1  0
  5 41  1  0
  5 42  1  0
  6 43  1  0
  6 44  1  0
  7 45  1  6
  8 46  1  0
  8 47  1  0
  9 48  1  0
  9 49  1  0
 10 50  1  1
 15 51  1  0
 15 52  1  0
 16 53  1  0
 16 54  1  0
 18 55  1  0
 19 56  1  0
 20 57  1  0
 21 58  1  0
 23 59  1  0
 23 60  1  0
 27 61  1  0
 27 62  1  0
 28 63  1  0
 28 64  1  0
 30 65  1  0
 31 66  1  0
 32 67  1  0
 33 68  1  0
 35 69  1  0
 35 70  1  0
 37 71  1  0
 37 72  1  0
 38 73  1  0
 38 74  1  0
M  END
>  <smiles>  (1) 
NS(=O)(=O)CC[C@H]1CC[C@H](c2nc(N3CCc4ccccc4C3)nc(N3CCc4ccccc4C3)n2)CC1

>  <score_type>  (1) 
oracle

>  <origin>  (1) 
autodockgpu

>  <m_score__min__energy>  (1) 
-10.08

>  <m_primary>  (1) 
energy

>  <rmsd>  (1) 
9.666288430324881

>  <m_score__min__rmsd>  (1) 
9.666288430324881

>  <meeko>  (1) 
{"free_energy": -8.74, "intermolecular_energy": -10.82, "internal_energy": -1.46, "cluster_size": 3, "cluster_id": 7, "rank_in_cluster": 2}

>  <energy>  (1) 
-10.08

>  <cluster_rmsd>  (1) 
0.0

>  <cluster>  (1) 
1

$$$$

     RDKit          3D

 74 79  0  0  0  0  0  0  0  0999 V2000
  146.9760   69.6660  217.2890 N   0  0  0  0  0  0  0  0  0  0  0  0
  146.0410   68.2440  216.9990 S   0  0  0  0  0  0  0  0  0  0  0  0
  146.2970   67.2260  218.0550 O   0  0  0  0  0  0  0  0  0  0  0  0
  146.4440   67.7280  215.6540 O   0  0  0  0  0  0  0  0  0  0  0  0
  144.2970   68.6770  217.0130 C   0  0  0  0  0  0  0  0  0  0  0  0
  143.6000   67.8740  218.0750 C   0  0  0  0  0  0  0  0  0  0  0  0
  142.6920   68.7140  218.9450 C   0  0  1  0  0  0  0  0  0  0  0  0
  143.4000   69.7410  219.7610 C   0  0  0  0  0  0  0  0  0  0  0  0
  143.0670   71.1600  219.3680 C   0  0  0  0  0  0  0  0  0  0  0  0
  141.6090   71.4570  219.2850 C   0  0  2  0  0  0  0  0  0  0  0  0
  141.0590   72.1580  220.4850 C   0  0  0  0  0  0  0  0  0  0  0  0
  140.7150   73.4670  220.4590 N   0  0  0  0  0  0  0  0  0  0  0  0
  140.2270   74.0210  221.5950 C   0  0  0  0  0  0  0  0  0  0  0  0
  139.8730   75.4000  221.5320 N   0  0  0  0  0  0  0  0  0  0  0  0
  140.8080   76.3340  220.9590 C   0  0  0  0  0  0  0  0  0  0  0  0
  141.0510   77.4250  221.9800 C   0  0  0  0  0  0  0  0  0  0  0  0
  139.7340   78.0260  222.3050 C   0  0  0  0  0  0  0  0  0  0  0  0
  139.6860   79.3870  222.5800 C   0  0  0  0  0  0  0  0  0  0  0  0
  138.4490   79.9410  222.8830 C   0  0  0  0  0  0  0  0  0  0  0  0
  137.2950   79.1890  222.9170 C   0  0  0  0  0  0  0  0  0  0  0  0
  137.4030   77.8470  222.6370 C   0  0  0  0  0  0  0  0  0  0  0  0
  138.6040   77.2400  222.3290 C   0  0  0  0  0  0  0  0  0  0  0  0
  138.5970   75.7900  222.0450 C   0  0  0  0  0  0  0  0  0  0  0  0
  140.0890   73.2910  222.7190 N   0  0  0  0  0  0  0  0  0  0  0  0
  140.4280   71.9890  222.7530 C   0  0  0  0  0  0  0  0  0  0  0  0
  140.2960   71.1890  223.9190 N   0  0  0  0  0  0  0  0  0  0  0  0
  139.3130   70.1270  223.9650 C   0  0  0  0  0  0  0  0  0  0  0  0
  139.8280   69.1070  224.9730 C   0  0  0  0  0  0  0  0  0  0  0  0
  139.8450   69.8070  226.2940 C   0  0  0  0  0  0  0  0  0  0  0  0
  139.2170   69.2840  227.4130 C   0  0  0  0  0  0  0  0  0  0  0  0
  139.3120   70.0370  228.5700 C   0  0  0  0  0  0  0  0  0  0  0  0
  139.9790   71.2310  228.6350 C   0  0  0  0  0  0  0  0  0  0  0  0
  140.6110   71.7520  227.4990 C   0  0  0  0  0  0  0  0  0  0  0  0
  140.5270   71.0140  226.3290 C   0  0  0  0  0  0  0  0  0  0  0  0
  141.1540   71.4520  225.0530 C   0  0  0  0  0  0  0  0  0  0  0  0
  140.9100   71.4660  221.6080 N   0  0  0  0  0  0  0  0  0  0  0  0
  140.7790   70.1730  219.1720 C   0  0  0  0  0  0  0  0  0  0  0  0
  141.5520   69.3090  218.1800 C   0  0  0  0  0  0  0  0  0  0  0  0
  147.7970   69.6280  216.6320 H   0  0  0  0  0  0  0  0  0  0  0  0
  147.4110   69.5200  218.2450 H   0  0  0  0  0  0  0  0  0  0  0  0
  144.1854   69.7497  217.2295 H   0  0  0  0  0  0  0  0  0  0  0  0
  143.8526   68.4578  216.0309 H   0  0  0  0  0  0  0  0  0  0  0  0
  142.9963   67.0948  217.5867 H   0  0  0  0  0  0  0  0  0  0  0  0
  144.3751   67.4427  218.7255 H   0  0  0  0  0  0  0  0  0  0  0  0
  142.2710   68.0007  219.6689 H   0  0  0  0  0  0  0  0  0  0  0  0
  144.4835   69.5926  219.6429 H   0  0  0  0  0  0  0  0  0  0  0  0
  143.0707   69.6089  220.8022 H   0  0  0  0  0  0  0  0  0  0  0  0
  143.5134   71.3563  218.3820 H   0  0  0  0  0  0  0  0  0  0  0  0
  143.4710   71.8054  220.1619 H   0  0  0  0  0  0  0  0  0  0  0  0
  141.5309   72.1001  218.3960 H   0  0  0  0  0  0  0  0  0  0  0  0
  141.7532   75.8223  220.7250 H   0  0  0  0  0  0  0  0  0  0  0  0
  140.4063   76.7597  220.0277 H   0  0  0  0  0  0  0  0  0  0  0  0
  141.5040   76.9979  222.8868 H   0  0  0  0  0  0  0  0  0  0  0  0
  141.7385   78.1855  221.5813 H   0  0  0  0  0  0  0  0  0  0  0  0
  140.5962   80.0044  222.5585 H   0  0  0  0  0  0  0  0  0  0  0  0
  138.3885   81.0170  223.1034 H   0  0  0  0  0  0  0  0  0  0  0  0
  136.3237   79.6450  223.1591 H   0  0  0  0  0  0  0  0  0  0  0  0
  136.4925   77.2302  222.6594 H   0  0  0  0  0  0  0  0  0  0  0  0
  138.3892   75.2356  222.9720 H   0  0  0  0  0  0  0  0  0  0  0  0
  137.8180   75.5652  221.3016 H   0  0  0  0  0  0  0  0  0  0  0  0
  138.3394   70.5236  224.2888 H   0  0  0  0  0  0  0  0  0  0  0  0
  139.1716   69.6715  222.9738 H   0  0  0  0  0  0  0  0  0  0  0  0
  139.1584   68.2351  225.0109 H   0  0  0  0  0  0  0  0  0  0  0  0
  140.8275   68.7384  224.6990 H   0  0  0  0  0  0  0  0  0  0  0  0
  138.6752   68.3272  227.3833 H   0  0  0  0  0  0  0  0  0  0  0  0
  138.8280   69.6578  229.4821 H   0  0  0  0  0  0  0  0  0  0  0  0
  140.0187   71.7842  229.5849 H   0  0  0  0  0  0  0  0  0  0  0  0
  141.1525   72.7089  227.5340 H   0  0  0  0  0  0  0  0  0  0  0  0
  141.3538   72.5324  225.1061 H   0  0  0  0  0  0  0  0  0  0  0  0
  142.0870   70.8855  224.9165 H   0  0  0  0  0  0  0  0  0  0  0  0
  139.7702   70.3935  218.7929 H   0  0  0  0  0  0  0  0  0  0  0  0
  140.6410   69.6755  220.1433 H   0  0  0  0  0  0  0  0  0  0  0  0
  141.9296   69.9253  217.3508 H   0  0  0  0  0  0  0  0  0  0  0  0
  140.9112   68.5286  217.7436 H   0  0  0  0  0  0  0  0  0  0  0  0
  1  2  1  0
  2  3  2  0
  2  4  2  0
  2  5  1  0
  5  6  1  0
  6  7  1  0
  7  8  1  0
  8  9  1  0
  9 10  1  0
 10 11  1  0
 11 12  2  0
 12 13  1  0
 13 14  1  0
 14 15  1  0
 15 16  1  0
 16 17  1  0
 17 18  2  0
 18 19  1  0
 19 20  2  0
 20 21  1  0
 21 22  2  0
 22 23  1  0
 13 24  2  0
 24 25  1  0
 25 26  1  0
 26 27  1  0
 27 28  1  0
 28 29  1  0
 29 30  2  0
 30 31  1  0
 31 32  2  0
 32 33  1  0
 33 34  2  0
 34 35  1  0
 25 36  2  0
 10 37  1  0
 37 38  1  0
 38  7  1  0
 36 11  1  0
 23 14  1  0
 35 26  1  0
 22 17  1  0
 34 29  1  0
  1 39  1  0
  1 40  1  0
  5 41  1  0
  5 42  1  0
  6 43  1  0
  6 44  1  0
  7 45  1  1
  8 46  1  0
  8 47  1  0
  9 48  1  0
  9 49  1  0
 10 50  1  6
 15 51  1  0
 15 52  1  0
 16 53  1  0
 16 54  1  0
 18 55  1  0
 19 56  1  0
 20 57  1  0
 21 58  1  0
 23 59  1  0
 23 60  1  0
 27 61  1  0
 27 62  1  0
 28 63  1  0
 28 64  1  0
 30 65  1  0
 31 66  1  0
 32 67  1  0
 33 68  1  0
 35 69  1  0
 35 70  1  0
 37 71  1  0
 37 72  1  0
 38 73  1  0
 38 74  1  0
M  END
>  <smiles>  (2) 
NS(=O)(=O)CC[C@H]1CC[C@H](c2nc(N3CCc4ccccc4C3)nc(N3CCc4ccccc4C3)n2)CC1

>  <score_type>  (2) 
oracle

>  <origin>  (2) 
autodockgpu

>  <m_score__min__energy>  (2) 
-10.08

>  <m_primary>  (2) 
energy

>  <rmsd>  (2) 
5.308452899184943

>  <m_score__min__rmsd>  (2) 
5.308452899184943

>  <meeko>  (2) 
{"free_energy": -8.68, "intermolecular_energy": -10.77, "internal_energy": -1.42, "cluster_size": 4, "cluster_id": 6, "rank_in_cluster": 3}

>  <energy>  (2) 
-9.49

>  <cluster_rmsd>  (2) 
1.77

>  <cluster>  (2) 
1

$$$$

     RDKit          3D

 74 79  0  0  0  0  0  0  0  0999 V2000
  146.6190   73.4300  219.1850 N   0  0  0  0  0  0  0  0  0  0  0  0
  145.7330   73.5350  220.6640 S   0  0  0  0  0  0  0  0  0  0  0  0
  145.1460   74.8950  220.8260 O   0  0  0  0  0  0  0  0  0  0  0  0
  146.6990   73.2390  221.7680 O   0  0  0  0  0  0  0  0  0  0  0  0
  144.4080   72.3230  220.6410 C   0  0  0  0  0  0  0  0  0  0  0  0
  143.2500   72.8750  219.8580 C   0  0  0  0  0  0  0  0  0  0  0  0
  142.1690   73.4570  220.7410 C   0  0  1  0  0  0  0  0  0  0  0  0
  141.4740   74.6420  220.1620 C   0  0  0  0  0  0  0  0  0  0  0  0
  140.0180   74.3950  219.8490 C   0  0  0  0  0  0  0  0  0  0  0  0
  139.2290   73.8080  220.9690 C   0  0  2  0  0  0  0  0  0  0  0  0
  138.4120   74.8040  221.7260 C   0  0  0  0  0  0  0  0  0  0  0  0
  137.2970   74.4500  222.4080 N   0  0  0  0  0  0  0  0  0  0  0  0
  136.6160   75.4200  223.0650 C   0  0  0  0  0  0  0  0  0  0  0  0
  135.4490   75.0130  223.7740 N   0  0  0  0  0  0  0  0  0  0  0  0
  134.3840   75.9640  223.9670 C   0  0  0  0  0  0  0  0  0  0  0  0
  134.1000   76.0400  225.4520 C   0  0  0  0  0  0  0  0  0  0  0  0
  133.7620   74.6680  225.9060 C   0  0  0  0  0  0  0  0  0  0  0  0
  132.8160   74.5270  226.9130 C   0  0  0  0  0  0  0  0  0  0  0  0
  132.5060   73.2400  227.3320 C   0  0  0  0  0  0  0  0  0  0  0  0
  133.1020   72.1250  226.7860 C   0  0  0  0  0  0  0  0  0  0  0  0
  134.0320   72.3250  225.7920 C   0  0  0  0  0  0  0  0  0  0  0  0
  134.3810   73.5800  225.3340 C   0  0  0  0  0  0  0  0  0  0  0  0
  135.3940   73.6710  224.2620 C   0  0  0  0  0  0  0  0  0  0  0  0
  137.0350   76.7010  223.0390 N   0  0  0  0  0  0  0  0  0  0  0  0
  138.1420   77.0610  222.3650 C   0  0  0  0  0  0  0  0  0  0  0  0
  138.6130   78.4000  222.3160 N   0  0  0  0  0  0  0  0  0  0  0  0
  138.4440   79.1860  221.1130 C   0  0  0  0  0  0  0  0  0  0  0  0
  138.4270   80.6450  221.5510 C   0  0  0  0  0  0  0  0  0  0  0  0
  139.7810   80.9200  222.1220 C   0  0  0  0  0  0  0  0  0  0  0  0
  140.5630   81.9780  221.6860 C   0  0  0  0  0  0  0  0  0  0  0  0
  141.7950   82.1150  222.3010 C   0  0  0  0  0  0  0  0  0  0  0  0
  142.2410   81.2720  223.2830 C   0  0  0  0  0  0  0  0  0  0  0  0
  141.4430   80.2050  223.7160 C   0  0  0  0  0  0  0  0  0  0  0  0
  140.2060   80.0490  223.1130 C   0  0  0  0  0  0  0  0  0  0  0  0
  139.2620   78.9600  223.4810 C   0  0  0  0  0  0  0  0  0  0  0  0
  138.7980   76.0750  221.7220 N   0  0  0  0  0  0  0  0  0  0  0  0
  140.1410   73.1720  222.0260 C   0  0  0  0  0  0  0  0  0  0  0  0
  141.1950   72.4240  221.2130 C   0  0  0  0  0  0  0  0  0  0  0  0
  147.3830   74.1510  219.2380 H   0  0  0  0  0  0  0  0  0  0  0  0
  145.9640   73.8120  218.4440 H   0  0  0  0  0  0  0  0  0  0  0  0
  144.7646   71.3964  220.1674 H   0  0  0  0  0  0  0  0  0  0  0  0
  144.0884   72.1039  221.6705 H   0  0  0  0  0  0  0  0  0  0  0  0
  143.6224   73.6662  219.1907 H   0  0  0  0  0  0  0  0  0  0  0  0
  142.8043   72.0419  219.2947 H   0  0  0  0  0  0  0  0  0  0  0  0
  142.7090   73.8333  221.6224 H   0  0  0  0  0  0  0  0  0  0  0  0
  141.9867   74.9254  219.2310 H   0  0  0  0  0  0  0  0  0  0  0  0
  141.5106   75.4393  220.9189 H   0  0  0  0  0  0  0  0  0  0  0  0
  139.9640   73.7051  218.9939 H   0  0  0  0  0  0  0  0  0  0  0  0
  139.5746   75.3798  219.6406 H   0  0  0  0  0  0  0  0  0  0  0  0
  138.5769   73.0781  220.4670 H   0  0  0  0  0  0  0  0  0  0  0  0
  134.6912   76.9518  223.5930 H   0  0  0  0  0  0  0  0  0  0  0  0
  133.4837   75.6517  223.4175 H   0  0  0  0  0  0  0  0  0  0  0  0
  134.9887   76.4057  225.9872 H   0  0  0  0  0  0  0  0  0  0  0  0
  133.2708   76.7336  225.6555 H   0  0  0  0  0  0  0  0  0  0  0  0
  132.3291   75.4047  227.3631 H   0  0  0  0  0  0  0  0  0  0  0  0
  131.7584   73.1064  228.1277 H   0  0  0  0  0  0  0  0  0  0  0  0
  132.8443   71.1130  227.1315 H   0  0  0  0  0  0  0  0  0  0  0  0
  134.5187   71.4469  225.3426 H   0  0  0  0  0  0  0  0  0  0  0  0
  136.3781   73.3852  224.6617 H   0  0  0  0  0  0  0  0  0  0  0  0
  135.1218   72.9920  223.4405 H   0  0  0  0  0  0  0  0  0  0  0  0
  139.2798   79.0064  220.4207 H   0  0  0  0  0  0  0  0  0  0  0  0
  137.5157   78.9166  220.5879 H   0  0  0  0  0  0  0  0  0  0  0  0
  138.2355   81.3006  220.6887 H   0  0  0  0  0  0  0  0  0  0  0  0
  137.6329   80.8350  222.2881 H   0  0  0  0  0  0  0  0  0  0  0  0
  140.2246   82.6674  220.8984 H   0  0  0  0  0  0  0  0  0  0  0  0
  142.4481   82.9419  221.9853 H   0  0  0  0  0  0  0  0  0  0  0  0
  143.2310   81.4332  223.7345 H   0  0  0  0  0  0  0  0  0  0  0  0
  141.7855   79.5181  224.5040 H   0  0  0  0  0  0  0  0  0  0  0  0
  139.8193   78.1638  223.9962 H   0  0  0  0  0  0  0  0  0  0  0  0
  138.4864   79.3843  224.1356 H   0  0  0  0  0  0  0  0  0  0  0  0
  139.5741   72.4768  222.6626 H   0  0  0  0  0  0  0  0  0  0  0  0
  140.5832   73.9174  222.7034 H   0  0  0  0  0  0  0  0  0  0  0  0
  140.7274   71.9202  220.3542 H   0  0  0  0  0  0  0  0  0  0  0  0
  141.6923   71.6505  221.8167 H   0  0  0  0  0  0  0  0  0  0  0  0
  1  2  1  0
  2  3  2  0
  2  4  2  0
  2  5  1  0
  5  6  1  0
  6  7  1  0
  7  8  1  0
  8  9  1  0
  9 10  1  0
 10 11  1  0
 11 12  2  0
 12 13  1  0
 13 14  1  0
 14 15  1  0
 15 16  1  0
 16 17  1  0
 17 18  2  0
 18 19  1  0
 19 20  2  0
 20 21  1  0
 21 22  2  0
 22 23  1  0
 13 24  2  0
 24 25  1  0
 25 26  1  0
 26 27  1  0
 27 28  1  0
 28 29  1  0
 29 30  2  0
 30 31  1  0
 31 32  2  0
 32 33  1  0
 33 34  2  0
 34 35  1  0
 25 36  2  0
 10 37  1  0
 37 38  1  0
 38  7  1  0
 36 11  1  0
 23 14  1  0
 35 26  1  0
 22 17  1  0
 34 29  1  0
  1 39  1  0
  1 40  1  0
  5 41  1  0
  5 42  1  0
  6 43  1  0
  6 44  1  0
  7 45  1  1
  8 46  1  0
  8 47  1  0
  9 48  1  0
  9 49  1  0
 10 50  1  6
 15 51  1  0
 15 52  1  0
 16 53  1  0
 16 54  1  0
 18 55  1  0
 19 56  1  0
 20 57  1  0
 21 58  1  0
 23 59  1  0
 23 60  1  0
 27 61  1  0
 27 62  1  0
 28 63  1  0
 28 64  1  0
 30 65  1  0
 31 66  1  0
 32 67  1  0
 33 68  1  0
 35 69  1  0
 35 70  1  0
 37 71  1  0
 37 72  1  0
 38 73  1  0
 38 74  1  0
M  END
>  <smiles>  (3) 
NS(=O)(=O)CC[C@H]1CC[C@H](c2nc(N3CCc4ccccc4C3)nc(N3CCc4ccccc4C3)n2)CC1

>  <score_type>  (3) 
oracle

>  <origin>  (3) 
autodockgpu

>  <m_score__min__energy>  (3) 
-10.08

>  <m_primary>  (3) 
energy

>  <rmsd>  (3) 
11.095408000507646

>  <m_score__min__rmsd>  (3) 
11.095408000507646

>  <meeko>  (3) 
{"free_energy": -9.7, "intermolecular_energy": -11.79, "internal_energy": -1.4, "cluster_size": 24, "cluster_id": 2, "rank_in_cluster": 1}

>  <energy>  (3) 
-9.14

>  <cluster_rmsd>  (3) 
1.31

>  <cluster>  (3) 
1

$$$$

     RDKit          3D

 74 79  0  0  0  0  0  0  0  0999 V2000
  134.0230   67.2410  224.1260 N   0  0  0  0  0  0  0  0  0  0  0  0
  133.8220   68.3860  225.4030 S   0  0  0  0  0  0  0  0  0  0  0  0
  133.8290   67.7000  226.7250 O   0  0  0  0  0  0  0  0  0  0  0  0
  132.5130   69.0710  225.1670 O   0  0  0  0  0  0  0  0  0  0  0  0
  135.1740   69.5680  225.3490 C   0  0  0  0  0  0  0  0  0  0  0  0
  135.7130   69.6350  223.9480 C   0  0  0  0  0  0  0  0  0  0  0  0
  136.5970   70.8390  223.7170 C   0  0  1  0  0  0  0  0  0  0  0  0
  137.9480   70.5150  223.1740 C   0  0  0  0  0  0  0  0  0  0  0  0
  138.1770   71.0350  221.7750 C   0  0  0  0  0  0  0  0  0  0  0  0
  137.8590   72.4780  221.5860 C   0  0  2  0  0  0  0  0  0  0  0  0
  139.0540   73.3760  221.6110 C   0  0  0  0  0  0  0  0  0  0  0  0
  138.9680   74.6790  221.9680 N   0  0  0  0  0  0  0  0  0  0  0  0
  140.1030   75.4190  221.9590 C   0  0  0  0  0  0  0  0  0  0  0  0
  139.9780   76.7850  222.3430 N   0  0  0  0  0  0  0  0  0  0  0  0
  138.7370   77.4700  222.0840 C   0  0  0  0  0  0  0  0  0  0  0  0
  139.0580   78.7150  221.2840 C   0  0  0  0  0  0  0  0  0  0  0  0
  140.0230   79.5130  222.0800 C   0  0  0  0  0  0  0  0  0  0  0  0
  139.9410   80.8980  222.0100 C   0  0  0  0  0  0  0  0  0  0  0  0
  140.8480   81.6370  222.7580 C   0  0  0  0  0  0  0  0  0  0  0  0
  141.8060   81.0420  223.5490 C   0  0  0  0  0  0  0  0  0  0  0  0
  141.8410   79.6680  223.5790 C   0  0  0  0  0  0  0  0  0  0  0  0
  140.9660   78.8800  222.8590 C   0  0  0  0  0  0  0  0  0  0  0  0
  141.0980   77.4120  222.9700 C   0  0  0  0  0  0  0  0  0  0  0  0
  141.2830   74.8740  221.6040 N   0  0  0  0  0  0  0  0  0  0  0  0
  141.3780   73.5800  221.2480 C   0  0  0  0  0  0  0  0  0  0  0  0
  142.6040   72.9720  220.8680 N   0  0  0  0  0  0  0  0  0  0  0  0
  143.6200   73.7490  220.1900 C   0  0  0  0  0  0  0  0  0  0  0  0
  144.9520   73.0780  220.4990 C   0  0  0  0  0  0  0  0  0  0  0  0
  144.8840   71.7210  219.8750 C   0  0  0  0  0  0  0  0  0  0  0  0
  145.8590   71.2610  219.0040 C   0  0  0  0  0  0  0  0  0  0  0  0
  145.6700   69.9860  218.5000 C   0  0  0  0  0  0  0  0  0  0  0  0
  144.5940   69.2040  218.8230 C   0  0  0  0  0  0  0  0  0  0  0  0
  143.6130   69.6780  219.7040 C   0  0  0  0  0  0  0  0  0  0  0  0
  143.7830   70.9520  220.2200 C   0  0  0  0  0  0  0  0  0  0  0  0
  142.8180   71.5740  221.1660 C   0  0  0  0  0  0  0  0  0  0  0  0
  140.2320   72.8690  221.2670 N   0  0  0  0  0  0  0  0  0  0  0  0
  136.9550   73.0060  222.7080 C   0  0  0  0  0  0  0  0  0  0  0  0
  135.9200   71.9020  222.9100 C   0  0  0  0  0  0  0  0  0  0  0  0
  133.0660   67.0580  223.7290 H   0  0  0  0  0  0  0  0  0  0  0  0
  134.2740   66.3310  224.6080 H   0  0  0  0  0  0  0  0  0  0  0  0
  134.8078   70.5604  225.6506 H   0  0  0  0  0  0  0  0  0  0  0  0
  135.9709   69.2511  226.0378 H   0  0  0  0  0  0  0  0  0  0  0  0
  136.3003   68.7254  223.7536 H   0  0  0  0  0  0  0  0  0  0  0  0
  134.8537   69.7197  223.2665 H   0  0  0  0  0  0  0  0  0  0  0  0
  136.7735   71.2461  224.7236 H   0  0  0  0  0  0  0  0  0  0  0  0
  138.0651   69.4213  223.1621 H   0  0  0  0  0  0  0  0  0  0  0  0
  138.6846   71.0071  223.8260 H   0  0  0  0  0  0  0  0  0  0  0  0
  137.5477   70.4526  221.0860 H   0  0  0  0  0  0  0  0  0  0  0  0
  139.2534   70.9261  221.5760 H   0  0  0  0  0  0  0  0  0  0  0  0
  137.3796   72.5051  220.5963 H   0  0  0  0  0  0  0  0  0  0  0  0
  138.0622   76.8187  221.5092 H   0  0  0  0  0  0  0  0  0  0  0  0
  138.2388   77.7358  223.0280 H   0  0  0  0  0  0  0  0  0  0  0  0
  139.5053   78.4372  220.3182 H   0  0  0  0  0  0  0  0  0  0  0  0
  138.1453   79.2949  221.0823 H   0  0  0  0  0  0  0  0  0  0  0  0
  139.1837   81.3922  221.3837 H   0  0  0  0  0  0  0  0  0  0  0  0
  140.7998   82.7352  222.7175 H   0  0  0  0  0  0  0  0  0  0  0  0
  142.5165   81.6438  224.1348 H   0  0  0  0  0  0  0  0  0  0  0  0
  142.5998   79.1749  224.2044 H   0  0  0  0  0  0  0  0  0  0  0  0
  142.0248   77.0885  222.4736 H   0  0  0  0  0  0  0  0  0  0  0  0
  141.1319   77.1259  224.0316 H   0  0  0  0  0  0  0  0  0  0  0  0
  143.4372   73.7503  219.1053 H   0  0  0  0  0  0  0  0  0  0  0  0
  143.6130   74.7959  220.5277 H   0  0  0  0  0  0  0  0  0  0  0  0
  145.7811   73.6568  220.0659 H   0  0  0  0  0  0  0  0  0  0  0  0
  145.1297   73.0148  221.5827 H   0  0  0  0  0  0  0  0  0  0  0  0
  146.7310   71.8728  218.7297 H   0  0  0  0  0  0  0  0  0  0  0  0
  146.4212   69.5812  217.8059 H   0  0  0  0  0  0  0  0  0  0  0  0
  144.4989   68.1979  218.3885 H   0  0  0  0  0  0  0  0  0  0  0  0
  142.7424   69.0627  219.9751 H   0  0  0  0  0  0  0  0  0  0  0  0
  141.8571   71.0432  221.0956 H   0  0  0  0  0  0  0  0  0  0  0  0
  143.2357   71.4994  222.1809 H   0  0  0  0  0  0  0  0  0  0  0  0
  136.4687   73.9456  222.4069 H   0  0  0  0  0  0  0  0  0  0  0  0
  137.5147   73.2306  223.6279 H   0  0  0  0  0  0  0  0  0  0  0  0
  135.5992   71.4974  221.9387 H   0  0  0  0  0  0  0  0  0  0  0  0
  135.0223   72.2820  223.4196 H   0  0  0  0  0  0  0  0  0  0  0  0
  1  2  1  0
  2  3  2  0
  2  4  2  0
  2  5  1  0
  5  6  1  0
  6  7  1  0
  7  8  1  0
  8  9  1  0
  9 10  1  0
 10 11  1  0
 11 12  2  0
 12 13  1  0
 13 14  1  0
 14 15  1  0
 15 16  1  0
 16 17  1  0
 17 18  2  0
 18 19  1  0
 19 20  2  0
 20 21  1  0
 21 22  2  0
 22 23  1  0
 13 24  2  0
 24 25  1  0
 25 26  1  0
 26 27  1  0
 27 28  1  0
 28 29  1  0
 29 30  2  0
 30 31  1  0
 31 32  2  0
 32 33  1  0
 33 34  2  0
 34 35  1  0
 25 36  2  0
 10 37  1  0
 37 38  1  0
 38  7  1  0
 36 11  1  0
 23 14  1  0
 35 26  1  0
 22 17  1  0
 34 29  1  0
  1 39  1  0
  1 40  1  0
  5 41  1  0
  5 42  1  0
  6 43  1  0
  6 44  1  0
  7 45  1  1
  8 46  1  0
  8 47  1  0
  9 48  1  0
  9 49  1  0
 10 50  1  6
 15 51  1  0
 15 52  1  0
 16 53  1  0
 16 54  1  0
 18 55  1  0
 19 56  1  0
 20 57  1  0
 21 58  1  0
 23 59  1  0
 23 60  1  0
 27 61  1  0
 27 62  1  0
 28 63  1  0
 28 64  1  0
 30 65  1  0
 31 66  1  0
 32 67  1  0
 33 68  1  0
 35 69  1  0
 35 70  1  0
 37 71  1  0
 37 72  1  0
 38 73  1  0
 38 74  1  0
M  END
>  <smiles>  (4) 
NS(=O)(=O)CC[C@H]1CC[C@H](c2nc(N3CCc4ccccc4C3)nc(N3CCc4ccccc4C3)n2)CC1

>  <score_type>  (4) 
oracle

>  <origin>  (4) 
autodockgpu

>  <m_score__min__energy>  (4) 
-10.08

>  <m_primary>  (4) 
energy

>  <rmsd>  (4) 
5.019649065934053

>  <m_score__min__rmsd>  (4) 
5.019649065934053

>  <meeko>  (4) 
{"free_energy": -8.51, "intermolecular_energy": -10.59, "internal_energy": -1.31, "cluster_size": 1, "cluster_id": 9, "rank_in_cluster": 1}

>  <energy>  (4) 
-9.13

>  <cluster_rmsd>  (4) 
1.78

>  <cluster>  (4) 
1

$$$$

     RDKit          3D

 74 79  0  0  0  0  0  0  0  0999 V2000
  143.1200   79.3900  222.9370 N   0  0  0  0  0  0  0  0  0  0  0  0
  142.1150   80.7890  223.0550 S   0  0  0  0  0  0  0  0  0  0  0  0
  142.2160   81.6100  221.8160 O   0  0  0  0  0  0  0  0  0  0  0  0
  142.5880   81.5620  224.2450 O   0  0  0  0  0  0  0  0  0  0  0  0
  140.4090   80.2680  223.2750 C   0  0  0  0  0  0  0  0  0  0  0  0
  139.9510   79.5470  222.0390 C   0  0  0  0  0  0  0  0  0  0  0  0
  139.6790   78.0800  222.2820 C   0  0  1  0  0  0  0  0  0  0  0  0
  138.5230   77.5340  221.5160 C   0  0  0  0  0  0  0  0  0  0  0  0
  138.9140   76.5050  220.4830 C   0  0  0  0  0  0  0  0  0  0  0  0
  139.7810   75.4060  220.9950 C   0  0  2  0  0  0  0  0  0  0  0  0
  139.0470   74.1390  221.2960 C   0  0  0  0  0  0  0  0  0  0  0  0
  137.9640   73.7490  220.5840 N   0  0  0  0  0  0  0  0  0  0  0  0
  137.3590   72.5860  220.9280 C   0  0  0  0  0  0  0  0  0  0  0  0
  136.2240   72.2040  220.1570 N   0  0  0  0  0  0  0  0  0  0  0  0
  134.9720   71.9640  220.8310 C   0  0  0  0  0  0  0  0  0  0  0  0
  134.5060   70.5750  220.4520 C   0  0  0  0  0  0  0  0  0  0  0  0
  134.4020   70.5340  218.9720 C   0  0  0  0  0  0  0  0  0  0  0  0
  133.3910   69.7650  218.4090 C   0  0  0  0  0  0  0  0  0  0  0  0
  133.3010   69.7330  217.0230 C   0  0  0  0  0  0  0  0  0  0  0  0
  134.1710   70.4290  216.2130 C   0  0  0  0  0  0  0  0  0  0  0  0
  135.1520   71.1720  216.8260 C   0  0  0  0  0  0  0  0  0  0  0  0
  135.2910   71.2440  218.1980 C   0  0  0  0  0  0  0  0  0  0  0  0
  136.3840   72.0770  218.7430 C   0  0  0  0  0  0  0  0  0  0  0  0
  137.8220   71.8400  221.9500 N   0  0  0  0  0  0  0  0  0  0  0  0
  138.8980   72.2200  222.6630 C   0  0  0  0  0  0  0  0  0  0  0  0
  139.4140   71.4600  223.7460 N   0  0  0  0  0  0  0  0  0  0  0  0
  138.7210   70.2700  224.1930 C   0  0  0  0  0  0  0  0  0  0  0  0
  139.7720   69.3790  224.8440 C   0  0  0  0  0  0  0  0  0  0  0  0
  140.2640   70.1300  226.0390 C   0  0  0  0  0  0  0  0  0  0  0  0
  140.2780   69.5690  227.3070 C   0  0  0  0  0  0  0  0  0  0  0  0
  140.7600   70.3770  228.3220 C   0  0  0  0  0  0  0  0  0  0  0  0
  141.2010   71.6560  228.1170 C   0  0  0  0  0  0  0  0  0  0  0  0
  141.1830   72.2150  226.8320 C   0  0  0  0  0  0  0  0  0  0  0  0
  140.7050   71.4230  225.8010 C   0  0  0  0  0  0  0  0  0  0  0  0
  140.6330   71.8930  224.3920 C   0  0  0  0  0  0  0  0  0  0  0  0
  139.4780   73.3810  222.2970 N   0  0  0  0  0  0  0  0  0  0  0  0
  140.4510   75.7900  222.3210 C   0  0  0  0  0  0  0  0  0  0  0  0
  140.9010   77.2330  222.1120 C   0  0  0  0  0  0  0  0  0  0  0  0
  143.9360   79.6540  222.3280 H   0  0  0  0  0  0  0  0  0  0  0  0
  142.5720   78.7050  222.3410 H   0  0  0  0  0  0  0  0  0  0  0  0
  140.3386   79.5942  224.1417 H   0  0  0  0  0  0  0  0  0  0  0  0
  139.7723   81.1483  223.4474 H   0  0  0  0  0  0  0  0  0  0  0  0
  139.0260   80.0207  221.6785 H   0  0  0  0  0  0  0  0  0  0  0  0
  140.7607   79.6148  221.2975 H   0  0  0  0  0  0  0  0  0  0  0  0
  139.3826   78.0288  223.3401 H   0  0  0  0  0  0  0  0  0  0  0  0
  138.0206   78.3676  221.0035 H   0  0  0  0  0  0  0  0  0  0  0  0
  137.8654   77.0304  222.2399 H   0  0  0  0  0  0  0  0  0  0  0  0
  139.4544   77.0193  219.6747 H   0  0  0  0  0  0  0  0  0  0  0  0
  137.9795   76.0321  220.1467 H   0  0  0  0  0  0  0  0  0  0  0  0
  140.5006   75.2476  220.1782 H   0  0  0  0  0  0  0  0  0  0  0  0
  135.1142   72.0276  221.9199 H   0  0  0  0  0  0  0  0  0  0  0  0
  134.2248   72.7155  220.5362 H   0  0  0  0  0  0  0  0  0  0  0  0
  135.2329   69.8260  220.7994 H   0  0  0  0  0  0  0  0  0  0  0  0
  133.5353   70.3489  220.9175 H   0  0  0  0  0  0  0  0  0  0  0  0
  132.6867   69.2014  219.0385 H   0  0  0  0  0  0  0  0  0  0  0  0
  132.5074   69.1310  216.5562 H   0  0  0  0  0  0  0  0  0  0  0  0
  134.0842   70.3917  215.1171 H   0  0  0  0  0  0  0  0  0  0  0  0
  135.8572   71.7338  216.1958 H   0  0  0  0  0  0  0  0  0  0  0  0
  137.3516   71.6017  218.5244 H   0  0  0  0  0  0  0  0  0  0  0  0
  136.3529   73.0737  218.2787 H   0  0  0  0  0  0  0  0  0  0  0  0
  137.9419   70.5350  224.9229 H   0  0  0  0  0  0  0  0  0  0  0  0
  138.2275   69.7571  223.3543 H   0  0  0  0  0  0  0  0  0  0  0  0
  139.3250   68.4220  225.1511 H   0  0  0  0  0  0  0  0  0  0  0  0
  140.5915   69.1470  224.1478 H   0  0  0  0  0  0  0  0  0  0  0  0
  139.9271   68.5435  227.4949 H   0  0  0  0  0  0  0  0  0  0  0  0
  140.7900   69.9710  229.3439 H   0  0  0  0  0  0  0  0  0  0  0  0
  141.5719   72.2490  228.9660 H   0  0  0  0  0  0  0  0  0  0  0  0
  141.5343   73.2413  226.6495 H   0  0  0  0  0  0  0  0  0  0  0  0
  140.6717   72.9923  224.3804 H   0  0  0  0  0  0  0  0  0  0  0  0
  141.4837   71.4631  223.8429 H   0  0  0  0  0  0  0  0  0  0  0  0
  141.3135   75.1385  222.5248 H   0  0  0  0  0  0  0  0  0  0  0  0
  139.7738   75.6813  223.1810 H   0  0  0  0  0  0  0  0  0  0  0  0
  141.3158   77.3605  221.1012 H   0  0  0  0  0  0  0  0  0  0  0  0
  141.6873   77.5154  222.8276 H   0  0  0  0  0  0  0  0  0  0  0  0
  1  2  1  0
  2  3  2  0
  2  4  2  0
  2  5  1  0
  5  6  1  0
  6  7  1  0
  7  8  1  0
  8  9  1  0
  9 10  1  0
 10 11  1  0
 11 12  2  0
 12 13  1  0
 13 14  1  0
 14 15  1  0
 15 16  1  0
 16 17  1  0
 17 18  2  0
 18 19  1  0
 19 20  2  0
 20 21  1  0
 21 22  2  0
 22 23  1  0
 13 24  2  0
 24 25  1  0
 25 26  1  0
 26 27  1  0
 27 28  1  0
 28 29  1  0
 29 30  2  0
 30 31  1  0
 31 32  2  0
 32 33  1  0
 33 34  2  0
 34 35  1  0
 25 36  2  0
 10 37  1  0
 37 38  1  0
 38  7  1  0
 36 11  1  0
 23 14  1  0
 35 26  1  0
 22 17  1  0
 34 29  1  0
  1 39  1  0
  1 40  1  0
  5 41  1  0
  5 42  1  0
  6 43  1  0
  6 44  1  0
  7 45  1  1
  8 46  1  0
  8 47  1  0
  9 48  1  0
  9 49  1  0
 10 50  1  6
 15 51  1  0
 15 52  1  0
 16 53  1  0
 16 54  1  0
 18 55  1  0
 19 56  1  0
 20 57  1  0
 21 58  1  0
 23 59  1  0
 23 60  1  0
 27 61  1  0
 27 62  1  0
 28 63  1  0
 28 64  1  0
 30 65  1  0
 31 66  1  0
 32 67  1  0
 33 68  1  0
 35 69  1  0
 35 70  1  0
 37 71  1  0
 37 72  1  0
 38 73  1  0
 38 74  1  0
M  END
>  <smiles>  (5) 
NS(=O)(=O)CC[C@H]1CC[C@H](c2nc(N3CCc4ccccc4C3)nc(N3CCc4ccccc4C3)n2)CC1

>  <score_type>  (5) 
oracle

>  <origin>  (5) 
autodockgpu

>  <m_score__min__energy>  (5) 
-10.08

>  <m_primary>  (5) 
energy

>  <rmsd>  (5) 
10.27409376749752

>  <m_score__min__rmsd>  (5) 
10.27409376749752

>  <meeko>  (5) 
{"free_energy": -8.2, "intermolecular_energy": -10.29, "internal_energy": -1.35, "cluster_size": 1, "cluster_id": 12, "rank_in_cluster": 1}

>  <energy>  (5) 
-8.21

>  <cluster_rmsd>  (5) 
1.69

>  <cluster>  (5) 
1

$$$$

     RDKit          3D

 74 79  0  0  0  0  0  0  0  0999 V2000
  146.3090   73.4120  219.1930 N   0  0  0  0  0  0  0  0  0  0  0  0
  144.9030   73.5040  220.1900 S   0  0  0  0  0  0  0  0  0  0  0  0
  144.5520   74.9250  220.4680 O   0  0  0  0  0  0  0  0  0  0  0  0
  145.2240   72.7790  221.4590 O   0  0  0  0  0  0  0  0  0  0  0  0
  143.5300   72.7160  219.3410 C   0  0  0  0  0  0  0  0  0  0  0  0
  142.7870   71.8420  220.3110 C   0  0  0  0  0  0  0  0  0  0  0  0
  141.7750   72.6070  221.1330 C   0  0  1  0  0  0  0  0  0  0  0  0
  141.1670   73.7730  220.4310 C   0  0  0  0  0  0  0  0  0  0  0  0
  139.6900   73.6140  220.1620 C   0  0  0  0  0  0  0  0  0  0  0  0
  138.8780   73.2250  221.3500 C   0  0  2  0  0  0  0  0  0  0  0  0
  138.1590   74.3630  221.9980 C   0  0  0  0  0  0  0  0  0  0  0  0
  137.0060   74.1890  222.6850 N   0  0  0  0  0  0  0  0  0  0  0  0
  136.4210   75.2790  223.2380 C   0  0  0  0  0  0  0  0  0  0  0  0
  135.2110   75.0590  223.9550 N   0  0  0  0  0  0  0  0  0  0  0  0
  134.2380   76.1200  224.0230 C   0  0  0  0  0  0  0  0  0  0  0  0
  133.9400   76.3770  225.4850 C   0  0  0  0  0  0  0  0  0  0  0  0
  133.4670   75.0980  226.0700 C   0  0  0  0  0  0  0  0  0  0  0  0
  132.4960   75.1530  227.0620 C   0  0  0  0  0  0  0  0  0  0  0  0
  132.0580   73.9520  227.6040 C   0  0  0  0  0  0  0  0  0  0  0  0
  132.5540   72.7350  227.1900 C   0  0  0  0  0  0  0  0  0  0  0  0
  133.5140   72.7420  226.2050 C   0  0  0  0  0  0  0  0  0  0  0  0
  133.9870   73.9030  225.6290 C   0  0  0  0  0  0  0  0  0  0  0  0
  135.0200   73.7860  224.5780 C   0  0  0  0  0  0  0  0  0  0  0  0
  136.9710   76.5020  223.1070 N   0  0  0  0  0  0  0  0  0  0  0  0
  138.1170   76.6850  222.4260 C   0  0  0  0  0  0  0  0  0  0  0  0
  138.7250   77.9580  222.2680 N   0  0  0  0  0  0  0  0  0  0  0  0
  138.8350   78.5520  220.9520 C   0  0  0  0  0  0  0  0  0  0  0  0
  138.8960   80.0600  221.1650 C   0  0  0  0  0  0  0  0  0  0  0  0
  140.1610   80.3180  221.9190 C   0  0  0  0  0  0  0  0  0  0  0  0
  141.1070   81.2300  221.4800 C   0  0  0  0  0  0  0  0  0  0  0  0
  142.2310   81.3690  222.2760 C   0  0  0  0  0  0  0  0  0  0  0  0
  142.4230   80.6620  223.4320 C   0  0  0  0  0  0  0  0  0  0  0  0
  141.4600   79.7430  223.8680 C   0  0  0  0  0  0  0  0  0  0  0  0
  140.3280   79.5870  223.0850 C   0  0  0  0  0  0  0  0  0  0  0  0
  139.2300   78.6470  223.4350 C   0  0  0  0  0  0  0  0  0  0  0  0
  138.6750   75.5820  221.8880 N   0  0  0  0  0  0  0  0  0  0  0  0
  139.7560   72.6370  222.4620 C   0  0  0  0  0  0  0  0  0  0  0  0
  140.7290   71.7170  221.7290 C   0  0  0  0  0  0  0  0  0  0  0  0
  146.9870   74.1300  219.5570 H   0  0  0  0  0  0  0  0  0  0  0  0
  146.0080   73.8030  218.2540 H   0  0  0  0  0  0  0  0  0  0  0  0
  142.8515   73.4859  218.9449 H   0  0  0  0  0  0  0  0  0  0  0  0
  143.9108   72.1052  218.5092 H   0  0  0  0  0  0  0  0  0  0  0  0
  142.2607   71.0585  219.7461 H   0  0  0  0  0  0  0  0  0  0  0  0
  143.5256   71.4174  221.0068 H   0  0  0  0  0  0  0  0  0  0  0  0
  142.3612   73.0340  221.9601 H   0  0  0  0  0  0  0  0  0  0  0  0
  141.6831   73.9074  219.4689 H   0  0  0  0  0  0  0  0  0  0  0  0
  141.2822   74.6439  221.0931 H   0  0  0  0  0  0  0  0  0  0  0  0
  139.5636   72.8386  219.3920 H   0  0  0  0  0  0  0  0  0  0  0  0
  139.3240   74.6020  219.8460 H   0  0  0  0  0  0  0  0  0  0  0  0
  138.1581   72.5011  220.9405 H   0  0  0  0  0  0  0  0  0  0  0  0
  134.6432   77.0305  223.5574 H   0  0  0  0  0  0  0  0  0  0  0  0
  133.3205   75.8368  223.4864 H   0  0  0  0  0  0  0  0  0  0  0  0
  134.8512   76.7131  226.0015 H   0  0  0  0  0  0  0  0  0  0  0  0
  133.1768   77.1615  225.5950 H   0  0  0  0  0  0  0  0  0  0  0  0
  132.0882   76.1149  227.4062 H   0  0  0  0  0  0  0  0  0  0  0  0
  131.2891   73.9728  228.3904 H   0  0  0  0  0  0  0  0  0  0  0  0
  132.1956   71.7930  227.6308 H   0  0  0  0  0  0  0  0  0  0  0  0
  133.9224   71.7801  225.8616 H   0  0  0  0  0  0  0  0  0  0  0  0
  135.9662   73.4527  225.0291 H   0  0  0  0  0  0  0  0  0  0  0  0
  134.6956   73.0534  223.8243 H   0  0  0  0  0  0  0  0  0  0  0  0
  139.7494   78.2011  220.4513 H   0  0  0  0  0  0  0  0  0  0  0  0
  137.9822   78.2730  220.3157 H   0  0  0  0  0  0  0  0  0  0  0  0
  138.9144   80.5824  220.1971 H   0  0  0  0  0  0  0  0  0  0  0  0
  138.0166   80.4254  221.7157 H   0  0  0  0  0  0  0  0  0  0  0  0
  140.9730   81.8090  220.5544 H   0  0  0  0  0  0  0  0  0  0  0  0
  143.0078   82.0826  221.9641 H   0  0  0  0  0  0  0  0  0  0  0  0
  143.3385   80.8163  224.0219 H   0  0  0  0  0  0  0  0  0  0  0  0
  141.5973   79.1679  224.7956 H   0  0  0  0  0  0  0  0  0  0  0  0
  139.6112   77.9039  224.1509 H   0  0  0  0  0  0  0  0  0  0  0  0
  138.4061   79.2292  223.8734 H   0  0  0  0  0  0  0  0  0  0  0  0
  139.1467   72.0675  223.1792 H   0  0  0  0  0  0  0  0  0  0  0  0
  140.2715   73.4143  223.0452 H   0  0  0  0  0  0  0  0  0  0  0  0
  140.2054   71.1606  220.9376 H   0  0  0  0  0  0  0  0  0  0  0  0
  141.1729   70.9770  222.4112 H   0  0  0  0  0  0  0  0  0  0  0  0
  1  2  1  0
  2  3  2  0
  2  4  2  0
  2  5  1  0
  5  6  1  0
  6  7  1  0
  7  8  1  0
  8  9  1  0
  9 10  1  0
 10 11  1  0
 11 12  2  0
 12 13  1  0
 13 14  1  0
 14 15  1  0
 15 16  1  0
 16 17  1  0
 17 18  2  0
 18 19  1  0
 19 20  2  0
 20 21  1  0
 21 22  2  0
 22 23  1  0
 13 24  2  0
 24 25  1  0
 25 26  1  0
 26 27  1  0
 27 28  1  0
 28 29  1  0
 29 30  2  0
 30 31  1  0
 31 32  2  0
 32 33  1  0
 33 34  2  0
 34 35  1  0
 25 36  2  0
 10 37  1  0
 37 38  1  0
 38  7  1  0
 36 11  1  0
 23 14  1  0
 35 26  1  0
 22 17  1  0
 34 29  1  0
  1 39  1  0
  1 40  1  0
  5 41  1  0
  5 42  1  0
  6 43  1  0
  6 44  1  0
  7 45  1  1
  8 46  1  0
  8 47  1  0
  9 48  1  0
  9 49  1  0
 10 50  1  6
 15 51  1  0
 15 52  1  0
 16 53  1  0
 16 54  1  0
 18 55  1  0
 19 56  1  0
 20 57  1  0
 21 58  1  0
 23 59  1  0
 23 60  1  0
 27 61  1  0
 27 62  1  0
 28 63  1  0
 28 64  1  0
 30 65  1  0
 31 66  1  0
 32 67  1  0
 33 68  1  0
 35 69  1  0
 35 70  1  0
 37 71  1  0
 37 72  1  0
 38 73  1  0
 38 74  1  0
M  END
>  <smiles>  (6) 
NS(=O)(=O)CC[C@H]1CC[C@H](c2nc(N3CCc4ccccc4C3)nc(N3CCc4ccccc4C3)n2)CC1

>  <score_type>  (6) 
oracle

>  <origin>  (6) 
autodockgpu

>  <m_score__min__energy>  (6) 
-10.08

>  <m_primary>  (6) 
energy

>  <rmsd>  (6) 
11.30695800242553

>  <m_score__min__rmsd>  (6) 
11.30695800242553

>  <meeko>  (6) 
{"free_energy": -9.33, "intermolecular_energy": -11.42, "internal_energy": -1.47, "cluster_size": 24, "cluster_id": 2, "rank_in_cluster": 9}

>  <energy>  (6) 
-9.7

>  <cluster_rmsd>  (6) 
0.0

>  <cluster>  (6) 
2

$$$$

     RDKit          3D

 74 79  0  0  0  0  0  0  0  0999 V2000
  144.4660   66.9700  217.3880 N   0  0  0  0  0  0  0  0  0  0  0  0
  146.0520   67.2050  218.0270 S   0  0  0  0  0  0  0  0  0  0  0  0
  147.0770   67.0230  216.9610 O   0  0  0  0  0  0  0  0  0  0  0  0
  146.2340   66.1950  219.1160 O   0  0  0  0  0  0  0  0  0  0  0  0
  146.1790   68.8720  218.6830 C   0  0  0  0  0  0  0  0  0  0  0  0
  145.6460   69.8430  217.6680 C   0  0  0  0  0  0  0  0  0  0  0  0
  144.5350   70.7110  218.2120 C   0  0  1  0  0  0  0  0  0  0  0  0
  144.4810   70.7800  219.7000 C   0  0  0  0  0  0  0  0  0  0  0  0
  144.7850   72.1510  220.2530 C   0  0  0  0  0  0  0  0  0  0  0  0
  144.0010   73.2590  219.6400 C   0  0  2  0  0  0  0  0  0  0  0  0
  142.8310   73.7040  220.4570 C   0  0  0  0  0  0  0  0  0  0  0  0
  142.5040   75.0110  220.5930 N   0  0  0  0  0  0  0  0  0  0  0  0
  141.4280   75.3230  221.3550 C   0  0  0  0  0  0  0  0  0  0  0  0
  141.1100   76.7070  221.4750 N   0  0  0  0  0  0  0  0  0  0  0  0
  140.8310   77.4640  220.2810 C   0  0  0  0  0  0  0  0  0  0  0  0
  141.7620   78.6570  220.2650 C   0  0  0  0  0  0  0  0  0  0  0  0
  141.5270   79.4160  221.5180 C   0  0  0  0  0  0  0  0  0  0  0  0
  141.6360   80.8000  221.4740 C   0  0  0  0  0  0  0  0  0  0  0  0
  141.4140   81.5020  222.6510 C   0  0  0  0  0  0  0  0  0  0  0  0
  141.0970   80.8730  223.8350 C   0  0  0  0  0  0  0  0  0  0  0  0
  141.0040   79.5010  223.8190 C   0  0  0  0  0  0  0  0  0  0  0  0
  141.2120   78.7490  222.6800 C   0  0  0  0  0  0  0  0  0  0  0  0
  141.0850   77.2800  222.7840 C   0  0  0  0  0  0  0  0  0  0  0  0
  140.7050   74.3620  221.9620 N   0  0  0  0  0  0  0  0  0  0  0  0
  141.0230   73.0610  221.8320 C   0  0  0  0  0  0  0  0  0  0  0  0
  140.2850   72.0210  222.4570 N   0  0  0  0  0  0  0  0  0  0  0  0
  140.4640   71.7490  223.8680 C   0  0  0  0  0  0  0  0  0  0  0  0
  139.1680   71.1090  224.3500 C   0  0  0  0  0  0  0  0  0  0  0  0
  139.0540   69.8100  223.6180 C   0  0  0  0  0  0  0  0  0  0  0  0
  138.8610   68.6070  224.2790 C   0  0  0  0  0  0  0  0  0  0  0  0
  138.7730   67.4820  223.4770 C   0  0  0  0  0  0  0  0  0  0  0  0
  138.8680   67.5250  222.1130 C   0  0  0  0  0  0  0  0  0  0  0  0
  139.0630   68.7460  221.4540 C   0  0  0  0  0  0  0  0  0  0  0  0
  139.1540   69.8850  222.2370 C   0  0  0  0  0  0  0  0  0  0  0  0
  139.3590   71.2420  221.6650 C   0  0  0  0  0  0  0  0  0  0  0  0
  142.0980   72.7810  221.0680 N   0  0  0  0  0  0  0  0  0  0  0  0
  143.3950   72.8410  218.2930 C   0  0  0  0  0  0  0  0  0  0  0  0
  144.5170   72.0750  217.5970 C   0  0  0  0  0  0  0  0  0  0  0  0
  144.4240   65.9800  217.0350 H   0  0  0  0  0  0  0  0  0  0  0  0
  144.4350   67.5540  216.5030 H   0  0  0  0  0  0  0  0  0  0  0  0
  145.5914   68.9487  219.6098 H   0  0  0  0  0  0  0  0  0  0  0  0
  147.2318   69.1048  218.9006 H   0  0  0  0  0  0  0  0  0  0  0  0
  146.4696   70.4930  217.3377 H   0  0  0  0  0  0  0  0  0  0  0  0
  145.2293   69.2559  216.8363 H   0  0  0  0  0  0  0  0  0  0  0  0
  143.6123   70.1959  217.9067 H   0  0  0  0  0  0  0  0  0  0  0  0
  145.2154   70.0699  220.1079 H   0  0  0  0  0  0  0  0  0  0  0  0
  143.4509   70.5336  219.9970 H   0  0  0  0  0  0  0  0  0  0  0  0
  145.8533   72.3567  220.0901 H   0  0  0  0  0  0  0  0  0  0  0  0
  144.5056   72.1251  221.3166 H   0  0  0  0  0  0  0  0  0  0  0  0
  144.7371   74.0713  219.5488 H   0  0  0  0  0  0  0  0  0  0  0  0
  141.0062   76.8400  219.3922 H   0  0  0  0  0  0  0  0  0  0  0  0
  139.7817   77.7938  220.2701 H   0  0  0  0  0  0  0  0  0  0  0  0
  142.8076   78.3181  220.2205 H   0  0  0  0  0  0  0  0  0  0  0  0
  141.5709   79.2887  219.3850 H   0  0  0  0  0  0  0  0  0  0  0  0
  141.8894   81.3216  220.5393 H   0  0  0  0  0  0  0  0  0  0  0  0
  141.4940   82.5990  222.6377 H   0  0  0  0  0  0  0  0  0  0  0  0
  140.9249   81.4463  224.7579 H   0  0  0  0  0  0  0  0  0  0  0  0
  140.7529   78.9799  224.7546 H   0  0  0  0  0  0  0  0  0  0  0  0
  141.9219   76.8803  223.3755 H   0  0  0  0  0  0  0  0  0  0  0  0
  140.1347   77.0276  223.2772 H   0  0  0  0  0  0  0  0  0  0  0  0
  141.3078   71.0596  224.0186 H   0  0  0  0  0  0  0  0  0  0  0  0
  140.6861   72.6701  224.4268 H   0  0  0  0  0  0  0  0  0  0  0  0
  139.2084   70.9341  225.4353 H   0  0  0  0  0  0  0  0  0  0  0  0
  138.3013   71.7583  224.1569 H   0  0  0  0  0  0  0  0  0  0  0  0
  138.7825   68.5497  225.3747 H   0  0  0  0  0  0  0  0  0  0  0  0
  138.6192   66.5058  223.9602 H   0  0  0  0  0  0  0  0  0  0  0  0
  138.7908   66.5954  221.5301 H   0  0  0  0  0  0  0  0  0  0  0  0
  139.1408   68.7980  220.3580 H   0  0  0  0  0  0  0  0  0  0  0  0
  139.7582   71.1425  220.6448 H   0  0  0  0  0  0  0  0  0  0  0  0
  138.3898   71.7623  221.6595 H   0  0  0  0  0  0  0  0  0  0  0  0
  143.1035   73.7243  217.7058 H   0  0  0  0  0  0  0  0  0  0  0  0
  142.4836   72.2366  218.4113 H   0  0  0  0  0  0  0  0  0  0  0  0
  145.4810   72.5793  217.7595 H   0  0  0  0  0  0  0  0  0  0  0  0
  144.3528   72.0228  216.5106 H   0  0  0  0  0  0  0  0  0  0  0  0
  1  2  1  0
  2  3  2  0
  2  4  2  0
  2  5  1  0
  5  6  1  0
  6  7  1  0
  7  8  1  0
  8  9  1  0
  9 10  1  0
 10 11  1  0
 11 12  2  0
 12 13  1  0
 13 14  1  0
 14 15  1  0
 15 16  1  0
 16 17  1  0
 17 18  2  0
 18 19  1  0
 19 20  2  0
 20 21  1  0
 21 22  2  0
 22 23  1  0
 13 24  2  0
 24 25  1  0
 25 26  1  0
 26 27  1  0
 27 28  1  0
 28 29  1  0
 29 30  2  0
 30 31  1  0
 31 32  2  0
 32 33  1  0
 33 34  2  0
 34 35  1  0
 25 36  2  0
 10 37  1  0
 37 38  1  0
 38  7  1  0
 36 11  1  0
 23 14  1  0
 35 26  1  0
 22 17  1  0
 34 29  1  0
  1 39  1  0
  1 40  1  0
  5 41  1  0
  5 42  1  0
  6 43  1  0
  6 44  1  0
  7 45  1  6
  8 46  1  0
  8 47  1  0
  9 48  1  0
  9 49  1  0
 10 50  1  6
 15 51  1  0
 15 52  1  0
 16 53  1  0
 16 54  1  0
 18 55  1  0
 19 56  1  0
 20 57  1  0
 21 58  1  0
 23 59  1  0
 23 60  1  0
 27 61  1  0
 27 62  1  0
 28 63  1  0
 28 64  1  0
 30 65  1  0
 31 66  1  0
 32 67  1  0
 33 68  1  0
 35 69  1  0
 35 70  1  0
 37 71  1  0
 37 72  1  0
 38 73  1  0
 38 74  1  0
M  END
>  <smiles>  (7) 
NS(=O)(=O)CC[C@H]1CC[C@H](c2nc(N3CCc4ccccc4C3)nc(N3CCc4ccccc4C3)n2)CC1

>  <score_type>  (7) 
oracle

>  <origin>  (7) 
autodockgpu

>  <m_score__min__energy>  (7) 
-10.08

>  <m_primary>  (7) 
energy

>  <rmsd>  (7) 
4.917740944140144

>  <m_score__min__rmsd>  (7) 
4.917740944140144

>  <meeko>  (7) 
{"free_energy": -9.13, "intermolecular_energy": -11.22, "internal_energy": -1.39, "cluster_size": 5, "cluster_id": 1, "rank_in_cluster": 4}

>  <energy>  (7) 
-9.5

>  <cluster_rmsd>  (7) 
0.72

>  <cluster>  (7) 
2

$$$$

     RDKit          3D

 74 79  0  0  0  0  0  0  0  0999 V2000
  143.2220   79.8090  222.4610 N   0  0  0  0  0  0  0  0  0  0  0  0
  141.7370   79.9870  223.3220 S   0  0  0  0  0  0  0  0  0  0  0  0
  141.5350   81.4060  223.7290 O   0  0  0  0  0  0  0  0  0  0  0  0
  141.8240   79.0980  224.5230 O   0  0  0  0  0  0  0  0  0  0  0  0
  140.3790   79.4840  222.2600 C   0  0  0  0  0  0  0  0  0  0  0  0
  140.9280   79.0540  220.9290 C   0  0  0  0  0  0  0  0  0  0  0  0
  141.0360   77.5520  220.7960 C   0  0  1  0  0  0  0  0  0  0  0  0
  141.1110   76.8230  222.0950 C   0  0  0  0  0  0  0  0  0  0  0  0
  139.9120   75.9450  222.3630 C   0  0  0  0  0  0  0  0  0  0  0  0
  139.5560   75.0190  221.2520 C   0  0  2  0  0  0  0  0  0  0  0  0
  140.0370   73.6180  221.4470 C   0  0  0  0  0  0  0  0  0  0  0  0
  140.5500   72.8850  220.4310 N   0  0  0  0  0  0  0  0  0  0  0  0
  140.9600   71.6220  220.6980 C   0  0  0  0  0  0  0  0  0  0  0  0
  141.4970   70.8800  219.6070 N   0  0  0  0  0  0  0  0  0  0  0  0
  140.6350   70.5420  218.5030 C   0  0  0  0  0  0  0  0  0  0  0  0
  140.6980   69.0410  218.3140 C   0  0  0  0  0  0  0  0  0  0  0  0
  142.1210   68.6850  218.0890 C   0  0  0  0  0  0  0  0  0  0  0  0
  142.4030   67.6370  217.2210 C   0  0  0  0  0  0  0  0  0  0  0  0
  143.7370   67.3110  217.0160 C   0  0  0  0  0  0  0  0  0  0  0  0
  144.7640   67.9860  217.6390 C   0  0  0  0  0  0  0  0  0  0  0  0
  144.4250   69.0140  218.4880 C   0  0  0  0  0  0  0  0  0  0  0  0
  143.1180   69.3840  218.7310 C   0  0  0  0  0  0  0  0  0  0  0  0
  142.8750   70.5050  219.6630 C   0  0  0  0  0  0  0  0  0  0  0  0
  140.8580   71.1080  221.9400 N   0  0  0  0  0  0  0  0  0  0  0  0
  140.3500   71.8290  222.9560 C   0  0  0  0  0  0  0  0  0  0  0  0
  140.2270   71.3210  224.2760 N   0  0  0  0  0  0  0  0  0  0  0  0
  141.0590   71.8480  225.3380 C   0  0  0  0  0  0  0  0  0  0  0  0
  140.2950   71.6200  226.6360 C   0  0  0  0  0  0  0  0  0  0  0  0
  140.1880   70.1370  226.7960 C   0  0  0  0  0  0  0  0  0  0  0  0
  140.5930   69.4900  227.9530 C   0  0  0  0  0  0  0  0  0  0  0  0
  140.4380   68.1150  227.9650 C   0  0  0  0  0  0  0  0  0  0  0  0
  139.9190   67.4100  226.9130 C   0  0  0  0  0  0  0  0  0  0  0  0
  139.5120   68.0730  225.7480 C   0  0  0  0  0  0  0  0  0  0  0  0
  139.6590   69.4500  225.7140 C   0  0  0  0  0  0  0  0  0  0  0  0
  139.2650   70.2740  224.5400 C   0  0  0  0  0  0  0  0  0  0  0  0
  139.9510   73.0830  222.6590 N   0  0  0  0  0  0  0  0  0  0  0  0
  140.1850   75.4640  219.9260 C   0  0  0  0  0  0  0  0  0  0  0  0
  139.9840   76.9770  219.9010 C   0  0  0  0  0  0  0  0  0  0  0  0
  143.0290   80.0840  221.4630 H   0  0  0  0  0  0  0  0  0  0  0  0
  143.3860   78.7630  222.4060 H   0  0  0  0  0  0  0  0  0  0  0  0
  139.8397   78.6452  222.7242 H   0  0  0  0  0  0  0  0  0  0  0  0
  139.6865   80.3271  222.1200 H   0  0  0  0  0  0  0  0  0  0  0  0
  140.2635   79.4298  220.1370 H   0  0  0  0  0  0  0  0  0  0  0  0
  141.9435   79.4676  220.8410 H   0  0  0  0  0  0  0  0  0  0  0  0
  142.0099   77.3901  220.3110 H   0  0  0  0  0  0  0  0  0  0  0  0
  141.1890   77.5627  222.9054 H   0  0  0  0  0  0  0  0  0  0  0  0
  141.9902   76.1638  222.0458 H   0  0  0  0  0  0  0  0  0  0  0  0
  139.0470   76.5965  222.5562 H   0  0  0  0  0  0  0  0  0  0  0  0
  140.1778   75.3111  223.2218 H   0  0  0  0  0  0  0  0  0  0  0  0
  138.4565   75.0483  221.2386 H   0  0  0  0  0  0  0  0  0  0  0  0
  139.6024   70.8487  218.7261 H   0  0  0  0  0  0  0  0  0  0  0  0
  140.9588   71.0599  217.5882 H   0  0  0  0  0  0  0  0  0  0  0  0
  140.3200   68.5320  219.2129 H   0  0  0  0  0  0  0  0  0  0  0  0
  140.0784   68.7292  217.4603 H   0  0  0  0  0  0  0  0  0  0  0  0
  141.5977   67.0851  216.7141 H   0  0  0  0  0  0  0  0  0  0  0  0
  143.9825   66.4850  216.3323 H   0  0  0  0  0  0  0  0  0  0  0  0
  145.8152   67.7132  217.4641 H   0  0  0  0  0  0  0  0  0  0  0  0
  145.2308   69.5649  218.9952 H   0  0  0  0  0  0  0  0  0  0  0  0
  143.1288   70.1925  220.6867 H   0  0  0  0  0  0  0  0  0  0  0  0
  143.5008   71.3630  219.3761 H   0  0  0  0  0  0  0  0  0  0  0  0
  142.0223   71.3177  225.3654 H   0  0  0  0  0  0  0  0  0  0  0  0
  141.2737   72.9158  225.1839 H   0  0  0  0  0  0  0  0  0  0  0  0
  140.8427   72.0574  227.4838 H   0  0  0  0  0  0  0  0  0  0  0  0
  139.3032   72.0950  226.6086 H   0  0  0  0  0  0  0  0  0  0  0  0
  141.0125   70.0368  228.8103 H   0  0  0  0  0  0  0  0  0  0  0  0
  140.7470   67.5615  228.8640 H   0  0  0  0  0  0  0  0  0  0  0  0
  139.8209   66.3166  226.9826 H   0  0  0  0  0  0  0  0  0  0  0  0
  139.0921   67.5218  224.8937 H   0  0  0  0  0  0  0  0  0  0  0  0
  139.1937   69.6238  223.6556 H   0  0  0  0  0  0  0  0  0  0  0  0
  138.2961   70.7455  224.7609 H   0  0  0  0  0  0  0  0  0  0  0  0
  139.6755   74.9893  219.0745 H   0  0  0  0  0  0  0  0  0  0  0  0
  141.2448   75.1799  219.8478 H   0  0  0  0  0  0  0  0  0  0  0  0
  138.9822   77.2349  220.2751 H   0  0  0  0  0  0  0  0  0  0  0  0
  140.0652   77.3756  218.8790 H   0  0  0  0  0  0  0  0  0  0  0  0
  1  2  1  0
  2  3  2  0
  2  4  2  0
  2  5  1  0
  5  6  1  0
  6  7  1  0
  7  8  1  0
  8  9  1  0
  9 10  1  0
 10 11  1  0
 11 12  2  0
 12 13  1  0
 13 14  1  0
 14 15  1  0
 15 16  1  0
 16 17  1  0
 17 18  2  0
 18 19  1  0
 19 20  2  0
 20 21  1  0
 21 22  2  0
 22 23  1  0
 13 24  2  0
 24 25  1  0
 25 26  1  0
 26 27  1  0
 27 28  1  0
 28 29  1  0
 29 30  2  0
 30 31  1  0
 31 32  2  0
 32 33  1  0
 33 34  2  0
 34 35  1  0
 25 36  2  0
 10 37  1  0
 37 38  1  0
 38  7  1  0
 36 11  1  0
 23 14  1  0
 35 26  1  0
 22 17  1  0
 34 29  1  0
  1 39  1  0
  1 40  1  0
  5 41  1  0
  5 42  1  0
  6 43  1  0
  6 44  1  0
  7 45  1  6
  8 46  1  0
  8 47  1  0
  9 48  1  0
  9 49  1  0
 10 50  1  6
 15 51  1  0
 15 52  1  0
 16 53  1  0
 16 54  1  0
 18 55  1  0
 19 56  1  0
 20 57  1  0
 21 58  1  0
 23 59  1  0
 23 60  1  0
 27 61  1  0
 27 62  1  0
 28 63  1  0
 28 64  1  0
 30 65  1  0
 31 66  1  0
 32 67  1  0
 33 68  1  0
 35 69  1  0
 35 70  1  0
 37 71  1  0
 37 72  1  0
 38 73  1  0
 38 74  1  0
M  END
>  <smiles>  (8) 
NS(=O)(=O)CC[C@H]1CC[C@H](c2nc(N3CCc4ccccc4C3)nc(N3CCc4ccccc4C3)n2)CC1

>  <score_type>  (8) 
oracle

>  <origin>  (8) 
autodockgpu

>  <m_score__min__energy>  (8) 
-10.08

>  <m_primary>  (8) 
energy

>  <rmsd>  (8) 
10.431422492191004

>  <m_score__min__rmsd>  (8) 
10.431422492191004

>  <meeko>  (8) 
{"free_energy": -9.31, "intermolecular_energy": -11.4, "internal_energy": -1.42, "cluster_size": 3, "cluster_id": 4, "rank_in_cluster": 2}

>  <energy>  (8) 
-9.47

>  <cluster_rmsd>  (8) 
1.14

>  <cluster>  (8) 
2

$$$$

     RDKit          3D

 74 79  0  0  0  0  0  0  0  0999 V2000
  146.2510   73.4090  218.2360 N   0  0  0  0  0  0  0  0  0  0  0  0
  145.4690   72.7550  219.6290 S   0  0  0  0  0  0  0  0  0  0  0  0
  145.9660   73.4190  220.8670 O   0  0  0  0  0  0  0  0  0  0  0  0
  145.7770   71.2910  219.6510 O   0  0  0  0  0  0  0  0  0  0  0  0
  143.6990   73.0270  219.4890 C   0  0  0  0  0  0  0  0  0  0  0  0
  142.9790   72.0480  220.3720 C   0  0  0  0  0  0  0  0  0  0  0  0
  141.8970   72.6950  221.2060 C   0  0  1  0  0  0  0  0  0  0  0  0
  141.4870   74.0500  220.7380 C   0  0  0  0  0  0  0  0  0  0  0  0
  140.0660   74.1090  220.2300 C   0  0  0  0  0  0  0  0  0  0  0  0
  139.0490   73.5340  221.1550 C   0  0  2  0  0  0  0  0  0  0  0  0
  138.3080   74.5540  221.9570 C   0  0  0  0  0  0  0  0  0  0  0  0
  137.1410   74.2700  222.5820 N   0  0  0  0  0  0  0  0  0  0  0  0
  136.5360   75.2570  223.2850 C   0  0  0  0  0  0  0  0  0  0  0  0
  135.3110   74.9230  223.9310 N   0  0  0  0  0  0  0  0  0  0  0  0
  134.2600   75.9070  223.9830 C   0  0  0  0  0  0  0  0  0  0  0  0
  133.8710   76.0880  225.4350 C   0  0  0  0  0  0  0  0  0  0  0  0
  133.4670   74.7570  225.9520 C   0  0  0  0  0  0  0  0  0  0  0  0
  132.4470   74.7050  226.8940 C   0  0  0  0  0  0  0  0  0  0  0  0
  132.0740   73.4550  227.3720 C   0  0  0  0  0  0  0  0  0  0  0  0
  132.6790   72.2930  226.9450 C   0  0  0  0  0  0  0  0  0  0  0  0
  133.6840   72.4070  226.0120 C   0  0  0  0  0  0  0  0  0  0  0  0
  134.0970   73.6200  225.5000 C   0  0  0  0  0  0  0  0  0  0  0  0
  135.1860   73.6180  224.5010 C   0  0  0  0  0  0  0  0  0  0  0  0
  137.0800   76.4880  223.3610 N   0  0  0  0  0  0  0  0  0  0  0  0
  138.2400   76.7790  222.7440 C   0  0  0  0  0  0  0  0  0  0  0  0
  138.8420   78.0640  222.8020 N   0  0  0  0  0  0  0  0  0  0  0  0
  138.0170   79.2500  222.8900 C   0  0  0  0  0  0  0  0  0  0  0  0
  138.8690   80.3180  223.5650 C   0  0  0  0  0  0  0  0  0  0  0  0
  140.0060   80.5880  222.6330 C   0  0  0  0  0  0  0  0  0  0  0  0
  140.3160   81.8680  222.2010 C   0  0  0  0  0  0  0  0  0  0  0  0
  141.3940   81.9720  221.3390 C   0  0  0  0  0  0  0  0  0  0  0  0
  142.1270   80.8950  220.9200 C   0  0  0  0  0  0  0  0  0  0  0  0
  141.8050   79.6050  221.3620 C   0  0  0  0  0  0  0  0  0  0  0  0
  140.7290   79.4770  222.2260 C   0  0  0  0  0  0  0  0  0  0  0  0
  140.2840   78.1670  222.7700 C   0  0  0  0  0  0  0  0  0  0  0  0
  138.8180   75.7770  222.0520 N   0  0  0  0  0  0  0  0  0  0  0  0
  139.6950   72.6150  222.2000 C   0  0  0  0  0  0  0  0  0  0  0  0
  140.7140   71.8010  221.4070 C   0  0  0  0  0  0  0  0  0  0  0  0
  147.0450   74.0050  218.5850 H   0  0  0  0  0  0  0  0  0  0  0  0
  145.5650   74.1130  217.8380 H   0  0  0  0  0  0  0  0  0  0  0  0
  143.4581   74.0531  219.8039 H   0  0  0  0  0  0  0  0  0  0  0  0
  143.3841   72.8848  218.4447 H   0  0  0  0  0  0  0  0  0  0  0  0
  142.5191   71.2756  219.7380 H   0  0  0  0  0  0  0  0  0  0  0  0
  143.7193   71.6210  221.0646 H   0  0  0  0  0  0  0  0  0  0  0  0
  142.3668   72.8517  222.1882 H   0  0  0  0  0  0  0  0  0  0  0  0
  142.1605   74.3554  219.9237 H   0  0  0  0  0  0  0  0  0  0  0  0
  141.5480   74.7235  221.6056 H   0  0  0  0  0  0  0  0  0  0  0  0
  140.0182   73.5547  219.2811 H   0  0  0  0  0  0  0  0  0  0  0  0
  139.8192   75.1754  220.1215 H   0  0  0  0  0  0  0  0  0  0  0  0
  138.3619   73.0031  220.4798 H   0  0  0  0  0  0  0  0  0  0  0  0
  134.6190   76.8610  223.5695 H   0  0  0  0  0  0  0  0  0  0  0  0
  133.3940   75.5777  223.3901 H   0  0  0  0  0  0  0  0  0  0  0  0
  134.7274   76.4710  226.0094 H   0  0  0  0  0  0  0  0  0  0  0  0
  133.0466   76.8099  225.5306 H   0  0  0  0  0  0  0  0  0  0  0  0
  131.9523   75.6212  227.2488 H   0  0  0  0  0  0  0  0  0  0  0  0
  131.2676   73.3907  228.1173 H   0  0  0  0  0  0  0  0  0  0  0  0
  132.3704   71.3118  227.3350 H   0  0  0  0  0  0  0  0  0  0  0  0
  134.1800   71.4909  225.6588 H   0  0  0  0  0  0  0  0  0  0  0  0
  136.1313   73.3389  224.9894 H   0  0  0  0  0  0  0  0  0  0  0  0
  134.9552   72.8916  223.7079 H   0  0  0  0  0  0  0  0  0  0  0  0
  137.7183   79.5811  221.8844 H   0  0  0  0  0  0  0  0  0  0  0  0
  137.0972   79.0543  223.4606 H   0  0  0  0  0  0  0  0  0  0  0  0
  138.2796   81.2330  223.7240 H   0  0  0  0  0  0  0  0  0  0  0  0
  139.2264   79.9849  224.5506 H   0  0  0  0  0  0  0  0  0  0  0  0
  139.7402   82.7479  222.5237 H   0  0  0  0  0  0  0  0  0  0  0  0
  141.6756   82.9702  220.9725 H   0  0  0  0  0  0  0  0  0  0  0  0
  142.9731   81.0428  220.2328 H   0  0  0  0  0  0  0  0  0  0  0  0
  142.3836   78.7281  221.0360 H   0  0  0  0  0  0  0  0  0  0  0  0
  140.6850   77.3627  222.1357 H   0  0  0  0  0  0  0  0  0  0  0  0
  140.6574   78.0788  223.8009 H   0  0  0  0  0  0  0  0  0  0  0  0
  138.9424   71.9568  222.6587 H   0  0  0  0  0  0  0  0  0  0  0  0
  140.1563   73.1763  223.0259 H   0  0  0  0  0  0  0  0  0  0  0  0
  140.2917   71.5033  220.4359 H   0  0  0  0  0  0  0  0  0  0  0  0
  140.9934   70.8801  221.9398 H   0  0  0  0  0  0  0  0  0  0  0  0
  1  2  1  0
  2  3  2  0
  2  4  2  0
  2  5  1  0
  5  6  1  0
  6  7  1  0
  7  8  1  0
  8  9  1  0
  9 10  1  0
 10 11  1  0
 11 12  2  0
 12 13  1  0
 13 14  1  0
 14 15  1  0
 15 16  1  0
 16 17  1  0
 17 18  2  0
 18 19  1  0
 19 20  2  0
 20 21  1  0
 21 22  2  0
 22 23  1  0
 13 24  2  0
 24 25  1  0
 25 26  1  0
 26 27  1  0
 27 28  1  0
 28 29  1  0
 29 30  2  0
 30 31  1  0
 31 32  2  0
 32 33  1  0
 33 34  2  0
 34 35  1  0
 25 36  2  0
 10 37  1  0
 37 38  1  0
 38  7  1  0
 36 11  1  0
 23 14  1  0
 35 26  1  0
 22 17  1  0
 34 29  1  0
  1 39  1  0
  1 40  1  0
  5 41  1  0
  5 42  1  0
  6 43  1  0
  6 44  1  0
  7 45  1  1
  8 46  1  0
  8 47  1  0
  9 48  1  0
  9 49  1  0
 10 50  1  6
 15 51  1  0
 15 52  1  0
 16 53  1  0
 16 54  1  0
 18 55  1  0
 19 56  1  0
 20 57  1  0
 21 58  1  0
 23 59  1  0
 23 60  1  0
 27 61  1  0
 27 62  1  0
 28 63  1  0
 28 64  1  0
 30 65  1  0
 31 66  1  0
 32 67  1  0
 33 68  1  0
 35 69  1  0
 35 70  1  0
 37 71  1  0
 37 72  1  0
 38 73  1  0
 38 74  1  0
M  END
>  <smiles>  (9) 
NS(=O)(=O)CC[C@H]1CC[C@H](c2nc(N3CCc4ccccc4C3)nc(N3CCc4ccccc4C3)n2)CC1

>  <score_type>  (9) 
oracle

>  <origin>  (9) 
autodockgpu

>  <m_score__min__energy>  (9) 
-10.08

>  <m_primary>  (9) 
energy

>  <rmsd>  (9) 
11.302338619842965

>  <m_score__min__rmsd>  (9) 
11.302338619842965

>  <meeko>  (9) 
{"free_energy": -9.47, "intermolecular_energy": -11.56, "internal_energy": -1.41, "cluster_size": 24, "cluster_id": 2, "rank_in_cluster": 4}

>  <energy>  (9) 
-9.47

>  <cluster_rmsd>  (9) 
1.0

>  <cluster>  (9) 
2

$$$$

     RDKit          3D

 74 79  0  0  0  0  0  0  0  0999 V2000
  145.9860   72.9370  221.2060 N   0  0  0  0  0  0  0  0  0  0  0  0
  145.5750   72.4570  219.5990 S   0  0  0  0  0  0  0  0  0  0  0  0
  145.9520   71.0350  219.3650 O   0  0  0  0  0  0  0  0  0  0  0  0
  146.3220   73.3640  218.6720 O   0  0  0  0  0  0  0  0  0  0  0  0
  143.8020   72.6390  219.3680 C   0  0  0  0  0  0  0  0  0  0  0  0
  143.0850   71.7870  220.3770 C   0  0  0  0  0  0  0  0  0  0  0  0
  142.0550   72.5580  221.1700 C   0  0  1  0  0  0  0  0  0  0  0  0
  141.7650   73.9210  220.6410 C   0  0  0  0  0  0  0  0  0  0  0  0
  140.3580   74.0770  220.1160 C   0  0  0  0  0  0  0  0  0  0  0  0
  139.2890   73.6310  221.0530 C   0  0  2  0  0  0  0  0  0  0  0  0
  138.6310   74.7430  221.8030 C   0  0  0  0  0  0  0  0  0  0  0  0
  137.4350   74.5870  222.4180 N   0  0  0  0  0  0  0  0  0  0  0  0
  136.9110   75.6510  223.0740 C   0  0  0  0  0  0  0  0  0  0  0  0
  135.6530   75.4520  223.7120 N   0  0  0  0  0  0  0  0  0  0  0  0
  134.6520   76.4840  223.6170 C   0  0  0  0  0  0  0  0  0  0  0  0
  134.2330   76.8490  225.0250 C   0  0  0  0  0  0  0  0  0  0  0  0
  133.7470   75.6070  225.6760 C   0  0  0  0  0  0  0  0  0  0  0  0
  132.7000   75.7110  226.5820 C   0  0  0  0  0  0  0  0  0  0  0  0
  132.2510   74.5430  227.1860 C   0  0  0  0  0  0  0  0  0  0  0  0
  132.8070   73.3130  226.9140 C   0  0  0  0  0  0  0  0  0  0  0  0
  133.8420   73.2710  226.0080 C   0  0  0  0  0  0  0  0  0  0  0  0
  134.3300   74.3970  225.3760 C   0  0  0  0  0  0  0  0  0  0  0  0
  135.4460   74.2280  224.4210 C   0  0  0  0  0  0  0  0  0  0  0  0
  137.5610   76.8310  223.1110 N   0  0  0  0  0  0  0  0  0  0  0  0
  138.7500   76.9950  222.5030 C   0  0  0  0  0  0  0  0  0  0  0  0
  139.4630   78.2230  222.5210 N   0  0  0  0  0  0  0  0  0  0  0  0
  138.9510   79.3490  223.2730 C   0  0  0  0  0  0  0  0  0  0  0  0
  140.1550   80.2110  223.6300 C   0  0  0  0  0  0  0  0  0  0  0  0
  140.7060   80.7070  222.3320 C   0  0  0  0  0  0  0  0  0  0  0  0
  140.9250   82.0540  222.0910 C   0  0  0  0  0  0  0  0  0  0  0  0
  141.4390   82.3710  220.8460 C   0  0  0  0  0  0  0  0  0  0  0  0
  141.7230   81.4340  219.8900 C   0  0  0  0  0  0  0  0  0  0  0  0
  141.4980   80.0740  220.1430 C   0  0  0  0  0  0  0  0  0  0  0  0
  140.9830   79.7340  221.3830 C   0  0  0  0  0  0  0  0  0  0  0  0
  140.7000   78.3290  221.7800 C   0  0  0  0  0  0  0  0  0  0  0  0
  139.2450   75.9190  221.8590 N   0  0  0  0  0  0  0  0  0  0  0  0
  139.8470   72.7060  222.1420 C   0  0  0  0  0  0  0  0  0  0  0  0
  140.8000   71.7760  221.3960 C   0  0  0  0  0  0  0  0  0  0  0  0
  147.0110   73.1740  221.1980 H   0  0  0  0  0  0  0  0  0  0  0  0
  145.9380   72.0470  221.7800 H   0  0  0  0  0  0  0  0  0  0  0  0
  143.5185   73.6926  219.5076 H   0  0  0  0  0  0  0  0  0  0  0  0
  143.5260   72.3214  218.3516 H   0  0  0  0  0  0  0  0  0  0  0  0
  142.5786   70.9666  219.8475 H   0  0  0  0  0  0  0  0  0  0  0  0
  143.8367   71.4124  221.0873 H   0  0  0  0  0  0  0  0  0  0  0  0
  142.5285   72.7174  222.1500 H   0  0  0  0  0  0  0  0  0  0  0  0
  142.4677   74.1332  219.8218 H   0  0  0  0  0  0  0  0  0  0  0  0
  141.8770   74.6239  221.4797 H   0  0  0  0  0  0  0  0  0  0  0  0
  140.2704   73.4877  219.1913 H   0  0  0  0  0  0  0  0  0  0  0  0
  140.2033   75.1548  219.9598 H   0  0  0  0  0  0  0  0  0  0  0  0
  138.5638   73.1323  220.3932 H   0  0  0  0  0  0  0  0  0  0  0  0
  135.0701   77.3661  223.1099 H   0  0  0  0  0  0  0  0  0  0  0  0
  133.7870   76.1298  223.0370 H   0  0  0  0  0  0  0  0  0  0  0  0
  135.0918   77.2540  225.5804 H   0  0  0  0  0  0  0  0  0  0  0  0
  133.4444   77.6157  225.0106 H   0  0  0  0  0  0  0  0  0  0  0  0
  132.2420   76.6840  226.8135 H   0  0  0  0  0  0  0  0  0  0  0  0
  131.4223   74.6030  227.9068 H   0  0  0  0  0  0  0  0  0  0  0  0
  132.4380   72.3990  227.4022 H   0  0  0  0  0  0  0  0  0  0  0  0
  134.3003   72.2980  225.7774 H   0  0  0  0  0  0  0  0  0  0  0  0
  136.3616   73.9622  224.9697 H   0  0  0  0  0  0  0  0  0  0  0  0
  135.2016   73.4269  223.7079 H   0  0  0  0  0  0  0  0  0  0  0  0
  138.2399   79.9234  222.6611 H   0  0  0  0  0  0  0  0  0  0  0  0
  138.4172   79.0162  224.1754 H   0  0  0  0  0  0  0  0  0  0  0  0
  139.8458   81.0565  224.2620 H   0  0  0  0  0  0  0  0  0  0  0  0
  140.9064   79.6395  224.1946 H   0  0  0  0  0  0  0  0  0  0  0  0
  140.7036   82.8247  222.8440 H   0  0  0  0  0  0  0  0  0  0  0  0
  141.6288   83.4292  220.6131 H   0  0  0  0  0  0  0  0  0  0  0  0
  142.1300   81.7498  218.9181 H   0  0  0  0  0  0  0  0  0  0  0  0
  141.7215   79.3070  219.3868 H   0  0  0  0  0  0  0  0  0  0  0  0
  140.6271   77.7100  220.8737 H   0  0  0  0  0  0  0  0  0  0  0  0
  141.5192   77.9834  222.4277 H   0  0  0  0  0  0  0  0  0  0  0  0
  139.0379   72.1335  222.6190 H   0  0  0  0  0  0  0  0  0  0  0  0
  140.3478   73.2614  222.9487 H   0  0  0  0  0  0  0  0  0  0  0  0
  140.3614   71.4725  220.4340 H   0  0  0  0  0  0  0  0  0  0  0  0
  140.9972   70.8592  221.9709 H   0  0  0  0  0  0  0  0  0  0  0  0
  1  2  1  0
  2  3  2  0
  2  4  2  0
  2  5  1  0
  5  6  1  0
  6  7  1  0
  7  8  1  0
  8  9  1  0
  9 10  1  0
 10 11  1  0
 11 12  2  0
 12 13  1  0
 13 14  1  0
 14 15  1  0
 15 16  1  0
 16 17  1  0
 17 18  2  0
 18 19  1  0
 19 20  2  0
 20 21  1  0
 21 22  2  0
 22 23  1  0
 13 24  2  0
 24 25  1  0
 25 26  1  0
 26 27  1  0
 27 28  1  0
 28 29  1  0
 29 30  2  0
 30 31  1  0
 31 32  2  0
 32 33  1  0
 33 34  2  0
 34 35  1  0
 25 36  2  0
 10 37  1  0
 37 38  1  0
 38  7  1  0
 36 11  1  0
 23 14  1  0
 35 26  1  0
 22 17  1  0
 34 29  1  0
  1 39  1  0
  1 40  1  0
  5 41  1  0
  5 42  1  0
  6 43  1  0
  6 44  1  0
  7 45  1  1
  8 46  1  0
  8 47  1  0
  9 48  1  0
  9 49  1  0
 10 50  1  6
 15 51  1  0
 15 52  1  0
 16 53  1  0
 16 54  1  0
 18 55  1  0
 19 56  1  0
 20 57  1  0
 21 58  1  0
 23 59  1  0
 23 60  1  0
 27 61  1  0
 27 62  1  0
 28 63  1  0
 28 64  1  0
 30 65  1  0
 31 66  1  0
 32 67  1  0
 33 68  1  0
 35 69  1  0
 35 70  1  0
 37 71  1  0
 37 72  1  0
 38 73  1  0
 38 74  1  0
M  END
>  <smiles>  (10) 
NS(=O)(=O)CC[C@H]1CC[C@H](c2nc(N3CCc4ccccc4C3)nc(N3CCc4ccccc4C3)n2)CC1

>  <score_type>  (10) 
oracle

>  <origin>  (10) 
autodockgpu

>  <m_score__min__energy>  (10) 
-10.08

>  <m_primary>  (10) 
energy

>  <rmsd>  (10) 
10.749480985161279

>  <m_score__min__rmsd>  (10) 
10.749480985161279

>  <meeko>  (10) 
{"free_energy": -9.17, "intermolecular_energy": -11.26, "internal_energy": -1.4, "cluster_size": 24, "cluster_id": 2, "rank_in_cluster": 15}

>  <energy>  (10) 
-9.45

>  <cluster_rmsd>  (10) 
0.76

>  <cluster>  (10) 
2

$$$$

     RDKit          3D

 74 79  0  0  0  0  0  0  0  0999 V2000
  146.6710   73.4040  218.8700 N   0  0  0  0  0  0  0  0  0  0  0  0
  145.4070   72.7650  219.8570 S   0  0  0  0  0  0  0  0  0  0  0  0
  145.6780   73.0410  221.2960 O   0  0  0  0  0  0  0  0  0  0  0  0
  145.3600   71.2920  219.5990 O   0  0  0  0  0  0  0  0  0  0  0  0
  143.8540   73.5390  219.3950 C   0  0  0  0  0  0  0  0  0  0  0  0
  142.7190   72.6270  219.7680 C   0  0  0  0  0  0  0  0  0  0  0  0
  141.7500   73.2620  220.7390 C   0  0  1  0  0  0  0  0  0  0  0  0
  140.9890   74.4160  220.1810 C   0  0  0  0  0  0  0  0  0  0  0  0
  139.5060   74.1580  220.0570 C   0  0  0  0  0  0  0  0  0  0  0  0
  138.8580   73.6400  221.2950 C   0  0  2  0  0  0  0  0  0  0  0  0
  138.1350   74.6800  222.0870 C   0  0  0  0  0  0  0  0  0  0  0  0
  136.9610   74.4230  222.7110 N   0  0  0  0  0  0  0  0  0  0  0  0
  136.3730   75.4270  223.4050 C   0  0  0  0  0  0  0  0  0  0  0  0
  135.1410   75.1220  224.0510 N   0  0  0  0  0  0  0  0  0  0  0  0
  134.1010   76.1190  224.0750 C   0  0  0  0  0  0  0  0  0  0  0  0
  133.7070   76.3350  225.5210 C   0  0  0  0  0  0  0  0  0  0  0  0
  133.2840   75.0210  226.0640 C   0  0  0  0  0  0  0  0  0  0  0  0
  132.2570   75.0000  227.0000 C   0  0  0  0  0  0  0  0  0  0  0  0
  131.8670   73.7660  227.5030 C   0  0  0  0  0  0  0  0  0  0  0  0
  132.4610   72.5880  227.1040 C   0  0  0  0  0  0  0  0  0  0  0  0
  133.4720   72.6700  226.1750 C   0  0  0  0  0  0  0  0  0  0  0  0
  133.9020   73.8670  225.6390 C   0  0  0  0  0  0  0  0  0  0  0  0
  134.9970   73.8310  224.6470 C   0  0  0  0  0  0  0  0  0  0  0  0
  136.9400   76.6480  223.4720 N   0  0  0  0  0  0  0  0  0  0  0  0
  138.1070   76.9120  222.8550 C   0  0  0  0  0  0  0  0  0  0  0  0
  138.7330   78.1860  222.9040 N   0  0  0  0  0  0  0  0  0  0  0  0
  137.9310   79.3910  222.9010 C   0  0  0  0  0  0  0  0  0  0  0  0
  138.7640   80.4650  223.5880 C   0  0  0  0  0  0  0  0  0  0  0  0
  139.9600   80.6780  222.7160 C   0  0  0  0  0  0  0  0  0  0  0  0
  140.3240   81.9350  222.2590 C   0  0  0  0  0  0  0  0  0  0  0  0
  141.4530   81.9860  221.4600 C   0  0  0  0  0  0  0  0  0  0  0  0
  142.1850   80.8800  221.1250 C   0  0  0  0  0  0  0  0  0  0  0  0
  141.8100   79.6140  221.5920 C   0  0  0  0  0  0  0  0  0  0  0  0
  140.6820   79.5390  222.3930 C   0  0  0  0  0  0  0  0  0  0  0  0
  140.1760   78.2580  222.9550 C   0  0  0  0  0  0  0  0  0  0  0  0
  138.6670   75.8930  222.1730 N   0  0  0  0  0  0  0  0  0  0  0  0
  139.8910   73.0600  222.2700 C   0  0  0  0  0  0  0  0  0  0  0  0
  140.8420   72.2620  221.3810 C   0  0  0  0  0  0  0  0  0  0  0  0
  147.1470   74.1540  219.4340 H   0  0  0  0  0  0  0  0  0  0  0  0
  146.1760   73.9430  218.1020 H   0  0  0  0  0  0  0  0  0  0  0  0
  143.7472   74.4961  219.9265 H   0  0  0  0  0  0  0  0  0  0  0  0
  143.8402   73.7229  218.3106 H   0  0  0  0  0  0  0  0  0  0  0  0
  142.1719   72.3550  218.8533 H   0  0  0  0  0  0  0  0  0  0  0  0
  143.1524   71.7453  220.2627 H   0  0  0  0  0  0  0  0  0  0  0  0
  142.3899   73.6844  221.5277 H   0  0  0  0  0  0  0  0  0  0  0  0
  141.3871   74.6447  219.1814 H   0  0  0  0  0  0  0  0  0  0  0  0
  141.1135   75.2543  220.8822 H   0  0  0  0  0  0  0  0  0  0  0  0
  139.3525   73.4203  219.2556 H   0  0  0  0  0  0  0  0  0  0  0  0
  139.0382   75.1308  219.8454 H   0  0  0  0  0  0  0  0  0  0  0  0
  138.1518   72.8866  220.9160 H   0  0  0  0  0  0  0  0  0  0  0  0
  134.4732   77.0597  223.6431 H   0  0  0  0  0  0  0  0  0  0  0  0
  133.2345   75.7876  223.4839 H   0  0  0  0  0  0  0  0  0  0  0  0
  134.5653   76.7194  226.0916 H   0  0  0  0  0  0  0  0  0  0  0  0
  132.8909   77.0687  225.5968 H   0  0  0  0  0  0  0  0  0  0  0  0
  131.7698   75.9290  227.3310 H   0  0  0  0  0  0  0  0  0  0  0  0
  131.0562   73.7272  228.2454 H   0  0  0  0  0  0  0  0  0  0  0  0
  132.1388   71.6190  227.5130 H   0  0  0  0  0  0  0  0  0  0  0  0
  133.9593   71.7408  225.8447 H   0  0  0  0  0  0  0  0  0  0  0  0
  135.9359   73.5509  225.1470 H   0  0  0  0  0  0  0  0  0  0  0  0
  134.7623   73.0910  223.8677 H   0  0  0  0  0  0  0  0  0  0  0  0
  137.7001   79.6915  221.8683 H   0  0  0  0  0  0  0  0  0  0  0  0
  136.9749   79.2345  223.4220 H   0  0  0  0  0  0  0  0  0  0  0  0
  138.1865   81.3967  223.6793 H   0  0  0  0  0  0  0  0  0  0  0  0
  139.0548   80.1612  224.6044 H   0  0  0  0  0  0  0  0  0  0  0  0
  139.7501   82.8376  222.5159 H   0  0  0  0  0  0  0  0  0  0  0  0
  141.7777   82.9641  221.0754 H   0  0  0  0  0  0  0  0  0  0  0  0
  143.0734   80.9856  220.4850 H   0  0  0  0  0  0  0  0  0  0  0  0
  142.3882   78.7147  221.3331 H   0  0  0  0  0  0  0  0  0  0  0  0
  140.5955   77.4233  222.3743 H   0  0  0  0  0  0  0  0  0  0  0  0
  140.4857   78.1992  224.0089 H   0  0  0  0  0  0  0  0  0  0  0  0
  139.4053   72.4047  223.0080 H   0  0  0  0  0  0  0  0  0  0  0  0
  140.4096   73.8403  222.8463 H   0  0  0  0  0  0  0  0  0  0  0  0
  140.2764   71.7127  220.6139 H   0  0  0  0  0  0  0  0  0  0  0  0
  141.4092   71.5213  221.9638 H   0  0  0  0  0  0  0  0  0  0  0  0
  1  2  1  0
  2  3  2  0
  2  4  2  0
  2  5  1  0
  5  6  1  0
  6  7  1  0
  7  8  1  0
  8  9  1  0
  9 10  1  0
 10 11  1  0
 11 12  2  0
 12 13  1  0
 13 14  1  0
 14 15  1  0
 15 16  1  0
 16 17  1  0
 17 18  2  0
 18 19  1  0
 19 20  2  0
 20 21  1  0
 21 22  2  0
 22 23  1  0
 13 24  2  0
 24 25  1  0
 25 26  1  0
 26 27  1  0
 27 28  1  0
 28 29  1  0
 29 30  2  0
 30 31  1  0
 31 32  2  0
 32 33  1  0
 33 34  2  0
 34 35  1  0
 25 36  2  0
 10 37  1  0
 37 38  1  0
 38  7  1  0
 36 11  1  0
 23 14  1  0
 35 26  1  0
 22 17  1  0
 34 29  1  0
  1 39  1  0
  1 40  1  0
  5 41  1  0
  5 42  1  0
  6 43  1  0
  6 44  1  0
  7 45  1  1
  8 46  1  0
  8 47  1  0
  9 48  1  0
  9 49  1  0
 10 50  1  6
 15 51  1  0
 15 52  1  0
 16 53  1  0
 16 54  1  0
 18 55  1  0
 19 56  1  0
 20 57  1  0
 21 58  1  0
 23 59  1  0
 23 60  1  0
 27 61  1  0
 27 62  1  0
 28 63  1  0
 28 64  1  0
 30 65  1  0
 31 66  1  0
 32 67  1  0
 33 68  1  0
 35 69  1  0
 35 70  1  0
 37 71  1  0
 37 72  1  0
 38 73  1  0
 38 74  1  0
M  END
>  <smiles>  (11) 
NS(=O)(=O)CC[C@H]1CC[C@H](c2nc(N3CCc4ccccc4C3)nc(N3CCc4ccccc4C3)n2)CC1

>  <score_type>  (11) 
oracle

>  <origin>  (11) 
autodockgpu

>  <m_score__min__energy>  (11) 
-10.08

>  <m_primary>  (11) 
energy

>  <rmsd>  (11) 
11.395575791366511

>  <m_score__min__rmsd>  (11) 
11.395575791366511

>  <meeko>  (11) 
{"free_energy": -9.13, "intermolecular_energy": -11.22, "internal_energy": -1.42, "cluster_size": 24, "cluster_id": 2, "rank_in_cluster": 17}

>  <energy>  (11) 
-9.45

>  <cluster_rmsd>  (11) 
0.95

>  <cluster>  (11) 
2

$$$$

     RDKit          3D

 74 79  0  0  0  0  0  0  0  0999 V2000
  145.9600   72.6290  221.0120 N   0  0  0  0  0  0  0  0  0  0  0  0
  145.4720   72.2530  219.4000 S   0  0  0  0  0  0  0  0  0  0  0  0
  145.9930   70.9170  218.9950 O   0  0  0  0  0  0  0  0  0  0  0  0
  146.0260   73.3280  218.5180 O   0  0  0  0  0  0  0  0  0  0  0  0
  143.6780   72.2320  219.3200 C   0  0  0  0  0  0  0  0  0  0  0  0
  143.1420   71.4780  220.5040 C   0  0  0  0  0  0  0  0  0  0  0  0
  142.0200   72.2090  221.2070 C   0  0  1  0  0  0  0  0  0  0  0  0
  141.7500   73.5760  220.6750 C   0  0  0  0  0  0  0  0  0  0  0  0
  140.3970   73.7110  220.0180 C   0  0  0  0  0  0  0  0  0  0  0  0
  139.2540   73.2210  220.8370 C   0  0  2  0  0  0  0  0  0  0  0  0
  138.4980   74.3030  221.5390 C   0  0  0  0  0  0  0  0  0  0  0  0
  137.3710   74.0520  222.2460 N   0  0  0  0  0  0  0  0  0  0  0  0
  136.7500   75.0950  222.8480 C   0  0  0  0  0  0  0  0  0  0  0  0
  135.5680   74.7950  223.5850 N   0  0  0  0  0  0  0  0  0  0  0  0
  134.5610   75.8150  223.7330 C   0  0  0  0  0  0  0  0  0  0  0  0
  134.2950   75.9880  225.2130 C   0  0  0  0  0  0  0  0  0  0  0  0
  133.8840   74.6640  225.7440 C   0  0  0  0  0  0  0  0  0  0  0  0
  132.9400   74.6340  226.7630 C   0  0  0  0  0  0  0  0  0  0  0  0
  132.5610   73.3910  227.2530 C   0  0  0  0  0  0  0  0  0  0  0  0
  133.0870   72.2150  226.7640 C   0  0  0  0  0  0  0  0  0  0  0  0
  134.0180   72.3070  225.7560 C   0  0  0  0  0  0  0  0  0  0  0  0
  134.4340   73.5130  225.2280 C   0  0  0  0  0  0  0  0  0  0  0  0
  135.4400   73.4870  224.1460 C   0  0  0  0  0  0  0  0  0  0  0  0
  137.2380   76.3470  222.7450 N   0  0  0  0  0  0  0  0  0  0  0  0
  138.3580   76.6050  222.0450 C   0  0  0  0  0  0  0  0  0  0  0  0
  138.9020   77.9110  221.9160 N   0  0  0  0  0  0  0  0  0  0  0  0
  139.1780   78.4560  220.6040 C   0  0  0  0  0  0  0  0  0  0  0  0
  139.1100   79.9720  220.7440 C   0  0  0  0  0  0  0  0  0  0  0  0
  140.2230   80.3490  221.6680 C   0  0  0  0  0  0  0  0  0  0  0  0
  141.1680   81.3060  221.3320 C   0  0  0  0  0  0  0  0  0  0  0  0
  142.1430   81.5560  222.2810 C   0  0  0  0  0  0  0  0  0  0  0  0
  142.1970   80.9130  223.4880 C   0  0  0  0  0  0  0  0  0  0  0  0
  141.2380   79.9470  223.8200 C   0  0  0  0  0  0  0  0  0  0  0  0
  140.2520   79.6800  222.8830 C   0  0  0  0  0  0  0  0  0  0  0  0
  139.1750   78.6800  223.1090 C   0  0  0  0  0  0  0  0  0  0  0  0
  138.9540   75.5480  221.4580 N   0  0  0  0  0  0  0  0  0  0  0  0
  139.7250   72.2880  221.9600 C   0  0  0  0  0  0  0  0  0  0  0  0
  140.7690   71.3950  221.2940 C   0  0  0  0  0  0  0  0  0  0  0  0
  146.6880   71.9190  221.2820 H   0  0  0  0  0  0  0  0  0  0  0  0
  145.1270   72.3790  221.6190 H   0  0  0  0  0  0  0  0  0  0  0  0
  143.2964   73.2636  219.3367 H   0  0  0  0  0  0  0  0  0  0  0  0
  143.3541   71.7411  218.3904 H   0  0  0  0  0  0  0  0  0  0  0  0
  142.7646   70.5042  220.1587 H   0  0  0  0  0  0  0  0  0  0  0  0
  143.9655   71.3651  221.2245 H   0  0  0  0  0  0  0  0  0  0  0  0
  142.3905   72.3584  222.2319 H   0  0  0  0  0  0  0  0  0  0  0  0
  142.5236   73.8193  219.9318 H   0  0  0  0  0  0  0  0  0  0  0  0
  141.7632   74.2650  221.5324 H   0  0  0  0  0  0  0  0  0  0  0  0
  140.4144   73.1398  219.0781 H   0  0  0  0  0  0  0  0  0  0  0  0
  140.2315   74.7881  219.8680 H   0  0  0  0  0  0  0  0  0  0  0  0
  138.6105   72.7181  220.1001 H   0  0  0  0  0  0  0  0  0  0  0  0
  134.9209   76.7618  223.3039 H   0  0  0  0  0  0  0  0  0  0  0  0
  133.6392   75.5254  223.2072 H   0  0  0  0  0  0  0  0  0  0  0  0
  135.2077   76.3312  225.7221 H   0  0  0  0  0  0  0  0  0  0  0  0
  133.5081   76.7377  225.3828 H   0  0  0  0  0  0  0  0  0  0  0  0
  132.5083   75.5615  227.1672 H   0  0  0  0  0  0  0  0  0  0  0  0
  131.8148   73.3436  228.0598 H   0  0  0  0  0  0  0  0  0  0  0  0
  132.7741   71.2396  227.1647 H   0  0  0  0  0  0  0  0  0  0  0  0
  134.4501   71.3793  225.3528 H   0  0  0  0  0  0  0  0  0  0  0  0
  136.4098   73.1663  224.5543 H   0  0  0  0  0  0  0  0  0  0  0  0
  135.1207   72.7818  223.3645 H   0  0  0  0  0  0  0  0  0  0  0  0
  140.1796   78.1497  220.2679 H   0  0  0  0  0  0  0  0  0  0  0  0
  138.4536   78.0916  219.8607 H   0  0  0  0  0  0  0  0  0  0  0  0
  139.2466   80.4531  219.7643 H   0  0  0  0  0  0  0  0  0  0  0  0
  138.1342   80.2980  221.1333 H   0  0  0  0  0  0  0  0  0  0  0  0
  141.1440   81.8352  220.3680 H   0  0  0  0  0  0  0  0  0  0  0  0
  142.9127   82.3085  222.0544 H   0  0  0  0  0  0  0  0  0  0  0  0
  142.9980   81.1561  224.2016 H   0  0  0  0  0  0  0  0  0  0  0  0
  141.2664   79.4213  224.7859 H   0  0  0  0  0  0  0  0  0  0  0  0
  139.4869   77.9951  223.9113 H   0  0  0  0  0  0  0  0  0  0  0  0
  138.2578   79.2200  223.3868 H   0  0  0  0  0  0  0  0  0  0  0  0
  138.8875   71.6880  222.3454 H   0  0  0  0  0  0  0  0  0  0  0  0
  140.1303   72.8383  222.8219 H   0  0  0  0  0  0  0  0  0  0  0  0
  140.4341   71.1018  220.2881 H   0  0  0  0  0  0  0  0  0  0  0  0
  140.9312   70.4710  221.8684 H   0  0  0  0  0  0  0  0  0  0  0  0
  1  2  1  0
  2  3  2  0
  2  4  2  0
  2  5  1  0
  5  6  1  0
  6  7  1  0
  7  8  1  0
  8  9  1  0
  9 10  1  0
 10 11  1  0
 11 12  2  0
 12 13  1  0
 13 14  1  0
 14 15  1  0
 15 16  1  0
 16 17  1  0
 17 18  2  0
 18 19  1  0
 19 20  2  0
 20 21  1  0
 21 22  2  0
 22 23  1  0
 13 24  2  0
 24 25  1  0
 25 26  1  0
 26 27  1  0
 27 28  1  0
 28 29  1  0
 29 30  2  0
 30 31  1  0
 31 32  2  0
 32 33  1  0
 33 34  2  0
 34 35  1  0
 25 36  2  0
 10 37  1  0
 37 38  1  0
 38  7  1  0
 36 11  1  0
 23 14  1  0
 35 26  1  0
 22 17  1  0
 34 29  1  0
  1 39  1  0
  1 40  1  0
  5 41  1  0
  5 42  1  0
  6 43  1  0
  6 44  1  0
  7 45  1  1
  8 46  1  0
  8 47  1  0
  9 48  1  0
  9 49  1  0
 10 50  1  6
 15 51  1  0
 15 52  1  0
 16 53  1  0
 16 54  1  0
 18 55  1  0
 19 56  1  0
 20 57  1  0
 21 58  1  0
 23 59  1  0
 23 60  1  0
 27 61  1  0
 27 62  1  0
 28 63  1  0
 28 64  1  0
 30 65  1  0
 31 66  1  0
 32 67  1  0
 33 68  1  0
 35 69  1  0
 35 70  1  0
 37 71  1  0
 37 72  1  0
 38 73  1  0
 38 74  1  0
M  END
>  <smiles>  (12) 
NS(=O)(=O)CC[C@H]1CC[C@H](c2nc(N3CCc4ccccc4C3)nc(N3CCc4ccccc4C3)n2)CC1

>  <score_type>  (12) 
oracle

>  <origin>  (12) 
autodockgpu

>  <m_score__min__energy>  (12) 
-10.08

>  <m_primary>  (12) 
energy

>  <rmsd>  (12) 
10.99936014405643

>  <m_score__min__rmsd>  (12) 
10.99936014405643

>  <meeko>  (12) 
{"free_energy": -9.21, "intermolecular_energy": -11.29, "internal_energy": -1.36, "cluster_size": 24, "cluster_id": 2, "rank_in_cluster": 13}

>  <energy>  (12) 
-9.41

>  <cluster_rmsd>  (12) 
1.47

>  <cluster>  (12) 
2

$$$$

     RDKit          3D

 74 79  0  0  0  0  0  0  0  0999 V2000
  146.2260   73.4030  218.6500 N   0  0  0  0  0  0  0  0  0  0  0  0
  145.4380   72.4600  219.8630 S   0  0  0  0  0  0  0  0  0  0  0  0
  145.8220   72.9320  221.2230 O   0  0  0  0  0  0  0  0  0  0  0  0
  145.8660   71.0410  219.6530 O   0  0  0  0  0  0  0  0  0  0  0  0
  143.6600   72.6190  219.6670 C   0  0  0  0  0  0  0  0  0  0  0  0
  142.9730   71.7370  220.6710 C   0  0  0  0  0  0  0  0  0  0  0  0
  141.7890   72.4070  221.3290 C   0  0  1  0  0  0  0  0  0  0  0  0
  141.7030   73.8770  221.0910 C   0  0  0  0  0  0  0  0  0  0  0  0
  140.5050   74.2860  220.2690 C   0  0  0  0  0  0  0  0  0  0  0  0
  139.2030   73.7480  220.7530 C   0  0  2  0  0  0  0  0  0  0  0  0
  138.3990   74.7220  221.5520 C   0  0  0  0  0  0  0  0  0  0  0  0
  137.2940   74.3500  222.2400 N   0  0  0  0  0  0  0  0  0  0  0  0
  136.6250   75.3020  222.9350 C   0  0  0  0  0  0  0  0  0  0  0  0
  135.4680   74.8760  223.6490 N   0  0  0  0  0  0  0  0  0  0  0  0
  134.4000   75.8170  223.8720 C   0  0  0  0  0  0  0  0  0  0  0  0
  134.1330   75.8640  225.3610 C   0  0  0  0  0  0  0  0  0  0  0  0
  133.8070   74.4830  225.7940 C   0  0  0  0  0  0  0  0  0  0  0  0
  132.8730   74.3190  226.8090 C   0  0  0  0  0  0  0  0  0  0  0  0
  132.5740   73.0230  227.2080 C   0  0  0  0  0  0  0  0  0  0  0  0
  133.1690   71.9210  226.6340 C   0  0  0  0  0  0  0  0  0  0  0  0
  134.0870   72.1440  225.6340 C   0  0  0  0  0  0  0  0  0  0  0  0
  134.4250   73.4080  225.1950 C   0  0  0  0  0  0  0  0  0  0  0  0
  135.4250   73.5240  224.1130 C   0  0  0  0  0  0  0  0  0  0  0  0
  137.0450   76.5820  222.9410 N   0  0  0  0  0  0  0  0  0  0  0  0
  138.1430   76.9600  222.2600 C   0  0  0  0  0  0  0  0  0  0  0  0
  138.6160   78.2990  222.2430 N   0  0  0  0  0  0  0  0  0  0  0  0
  138.5220   79.0880  221.0330 C   0  0  0  0  0  0  0  0  0  0  0  0
  138.4770   80.5460  221.4720 C   0  0  0  0  0  0  0  0  0  0  0  0
  139.7930   80.8200  222.1260 C   0  0  0  0  0  0  0  0  0  0  0  0
  140.6000   81.8790  221.7430 C   0  0  0  0  0  0  0  0  0  0  0  0
  141.7910   82.0150  222.4330 C   0  0  0  0  0  0  0  0  0  0  0  0
  142.1760   81.1690  223.4390 C   0  0  0  0  0  0  0  0  0  0  0  0
  141.3530   80.1020  223.8200 C   0  0  0  0  0  0  0  0  0  0  0  0
  140.1550   79.9470  223.1410 C   0  0  0  0  0  0  0  0  0  0  0  0
  139.1910   78.8570  223.4470 C   0  0  0  0  0  0  0  0  0  0  0  0
  138.7880   75.9920  221.5780 N   0  0  0  0  0  0  0  0  0  0  0  0
  139.4030   72.5510  221.6910 C   0  0  0  0  0  0  0  0  0  0  0  0
  140.4950   71.7230  221.0180 C   0  0  0  0  0  0  0  0  0  0  0  0
  146.8470   74.0870  219.1530 H   0  0  0  0  0  0  0  0  0  0  0  0
  145.4630   74.0120  218.2360 H   0  0  0  0  0  0  0  0  0  0  0  0
  143.3635   73.6653  219.8322 H   0  0  0  0  0  0  0  0  0  0  0  0
  143.3712   72.3166  218.6496 H   0  0  0  0  0  0  0  0  0  0  0  0
  142.6225   70.8288  220.1588 H   0  0  0  0  0  0  0  0  0  0  0  0
  143.7025   71.5054  221.4610 H   0  0  0  0  0  0  0  0  0  0  0  0
  141.9756   72.2928  222.4070 H   0  0  0  0  0  0  0  0  0  0  0  0
  142.6131   74.1978  220.5631 H   0  0  0  0  0  0  0  0  0  0  0  0
  141.5991   74.3580  222.0748 H   0  0  0  0  0  0  0  0  0  0  0  0
  140.6598   73.9325  219.2389 H   0  0  0  0  0  0  0  0  0  0  0  0
  140.4357   75.3811  220.3458 H   0  0  0  0  0  0  0  0  0  0  0  0
  138.6755   73.4851  219.8243 H   0  0  0  0  0  0  0  0  0  0  0  0
  134.6972   76.8133  223.5128 H   0  0  0  0  0  0  0  0  0  0  0  0
  133.4951   75.5096  223.3274 H   0  0  0  0  0  0  0  0  0  0  0  0
  135.0261   76.2243  225.8925 H   0  0  0  0  0  0  0  0  0  0  0  0
  133.3027   76.5493  225.5865 H   0  0  0  0  0  0  0  0  0  0  0  0
  132.3870   75.1859  227.2805 H   0  0  0  0  0  0  0  0  0  0  0  0
  131.8367   72.8710  228.0100 H   0  0  0  0  0  0  0  0  0  0  0  0
  132.9195   70.9014  226.9629 H   0  0  0  0  0  0  0  0  0  0  0  0
  134.5731   71.2766  225.1635 H   0  0  0  0  0  0  0  0  0  0  0  0
  136.4151   73.2357  224.4959 H   0  0  0  0  0  0  0  0  0  0  0  0
  135.1463   72.8591  223.2822 H   0  0  0  0  0  0  0  0  0  0  0  0
  139.3994   78.9101  220.3939 H   0  0  0  0  0  0  0  0  0  0  0  0
  137.6284   78.8194  220.4505 H   0  0  0  0  0  0  0  0  0  0  0  0
  138.3388   81.2034  220.6009 H   0  0  0  0  0  0  0  0  0  0  0  0
  137.6387   80.7344  222.1588 H   0  0  0  0  0  0  0  0  0  0  0  0
  140.3107   82.5706  220.9380 H   0  0  0  0  0  0  0  0  0  0  0  0
  142.4618   82.8431  222.1605 H   0  0  0  0  0  0  0  0  0  0  0  0
  143.1368   81.3286  223.9503 H   0  0  0  0  0  0  0  0  0  0  0  0
  141.6460   79.4139  224.6266 H   0  0  0  0  0  0  0  0  0  0  0  0
  139.7157   78.0600  223.9942 H   0  0  0  0  0  0  0  0  0  0  0  0
  138.3759   79.2796  224.0528 H   0  0  0  0  0  0  0  0  0  0  0  0
  138.4741   71.9691  221.7838 H   0  0  0  0  0  0  0  0  0  0  0  0
  139.6766   72.8576  222.7113 H   0  0  0  0  0  0  0  0  0  0  0  0
  140.3329   71.6900  219.9305 H   0  0  0  0  0  0  0  0  0  0  0  0
  140.4927   70.6850  221.3820 H   0  0  0  0  0  0  0  0  0  0  0  0
  1  2  1  0
  2  3  2  0
  2  4  2  0
  2  5  1  0
  5  6  1  0
  6  7  1  0
  7  8  1  0
  8  9  1  0
  9 10  1  0
 10 11  1  0
 11 12  2  0
 12 13  1  0
 13 14  1  0
 14 15  1  0
 15 16  1  0
 16 17  1  0
 17 18  2  0
 18 19  1  0
 19 20  2  0
 20 21  1  0
 21 22  2  0
 22 23  1  0
 13 24  2  0
 24 25  1  0
 25 26  1  0
 26 27  1  0
 27 28  1  0
 28 29  1  0
 29 30  2  0
 30 31  1  0
 31 32  2  0
 32 33  1  0
 33 34  2  0
 34 35  1  0
 25 36  2  0
 10 37  1  0
 37 38  1  0
 38  7  1  0
 36 11  1  0
 23 14  1  0
 35 26  1  0
 22 17  1  0
 34 29  1  0
  1 39  1  0
  1 40  1  0
  5 41  1  0
  5 42  1  0
  6 43  1  0
  6 44  1  0
  7 45  1  1
  8 46  1  0
  8 47  1  0
  9 48  1  0
  9 49  1  0
 10 50  1  6
 15 51  1  0
 15 52  1  0
 16 53  1  0
 16 54  1  0
 18 55  1  0
 19 56  1  0
 20 57  1  0
 21 58  1  0
 23 59  1  0
 23 60  1  0
 27 61  1  0
 27 62  1  0
 28 63  1  0
 28 64  1  0
 30 65  1  0
 31 66  1  0
 32 67  1  0
 33 68  1  0
 35 69  1  0
 35 70  1  0
 37 71  1  0
 37 72  1  0
 38 73  1  0
 38 74  1  0
M  END
>  <smiles>  (13) 
NS(=O)(=O)CC[C@H]1CC[C@H](c2nc(N3CCc4ccccc4C3)nc(N3CCc4ccccc4C3)n2)CC1

>  <score_type>  (13) 
oracle

>  <origin>  (13) 
autodockgpu

>  <m_score__min__energy>  (13) 
-10.08

>  <m_primary>  (13) 
energy

>  <rmsd>  (13) 
11.073654410864943

>  <m_score__min__rmsd>  (13) 
11.073654410864943

>  <meeko>  (13) 
{"free_energy": -9.31, "intermolecular_energy": -11.4, "internal_energy": -1.35, "cluster_size": 24, "cluster_id": 2, "rank_in_cluster": 10}

>  <energy>  (13) 
-9.37

>  <cluster_rmsd>  (13) 
1.17

>  <cluster>  (13) 
2

$$$$

     RDKit          3D

 74 79  0  0  0  0  0  0  0  0999 V2000
  133.4430   75.9500  226.0020 N   0  0  0  0  0  0  0  0  0  0  0  0
  132.9860   74.3530  226.4720 S   0  0  0  0  0  0  0  0  0  0  0  0
  132.3650   74.3640  227.8260 O   0  0  0  0  0  0  0  0  0  0  0  0
  134.2330   73.5260  226.4660 O   0  0  0  0  0  0  0  0  0  0  0  0
  131.7970   73.7110  225.2880 C   0  0  0  0  0  0  0  0  0  0  0  0
  132.2410   74.0730  223.8990 C   0  0  0  0  0  0  0  0  0  0  0  0
  133.7450   74.1370  223.7620 C   0  0  1  0  0  0  0  0  0  0  0  0
  134.4210   72.8070  223.7750 C   0  0  0  0  0  0  0  0  0  0  0  0
  135.0830   72.4540  222.4650 C   0  0  0  0  0  0  0  0  0  0  0  0
  135.9860   73.5050  221.9190 C   0  0  2  0  0  0  0  0  0  0  0  0
  137.4370   73.2590  222.1790 C   0  0  0  0  0  0  0  0  0  0  0  0
  138.4060   74.0450  221.6540 N   0  0  0  0  0  0  0  0  0  0  0  0
  139.6960   73.7460  221.9410 C   0  0  0  0  0  0  0  0  0  0  0  0
  140.6890   74.5950  221.3740 N   0  0  0  0  0  0  0  0  0  0  0  0
  140.9260   75.8860  221.9690 C   0  0  0  0  0  0  0  0  0  0  0  0
  140.7760   76.9280  220.8810 C   0  0  0  0  0  0  0  0  0  0  0  0
  141.7400   76.5830  219.8070 C   0  0  0  0  0  0  0  0  0  0  0  0
  142.3410   77.6240  219.1090 C   0  0  0  0  0  0  0  0  0  0  0  0
  143.2420   77.2920  218.1060 C   0  0  0  0  0  0  0  0  0  0  0  0
  143.5460   75.9860  217.7920 C   0  0  0  0  0  0  0  0  0  0  0  0
  142.9210   74.9980  218.5160 C   0  0  0  0  0  0  0  0  0  0  0  0
  142.0170   75.2650  219.5250 C   0  0  0  0  0  0  0  0  0  0  0  0
  141.4080   74.1200  220.2340 C   0  0  0  0  0  0  0  0  0  0  0  0
  140.0060   72.6960  222.7260 N   0  0  0  0  0  0  0  0  0  0  0  0
  139.0500   71.9100  223.2530 C   0  0  0  0  0  0  0  0  0  0  0  0
  139.3390   70.7960  224.0840 N   0  0  0  0  0  0  0  0  0  0  0  0
  138.3900   69.7090  224.2000 C   0  0  0  0  0  0  0  0  0  0  0  0
  139.1950   68.4710  224.5730 C   0  0  0  0  0  0  0  0  0  0  0  0
  139.7770   68.7500  225.9220 C   0  0  0  0  0  0  0  0  0  0  0  0
  139.6110   67.8830  226.9900 C   0  0  0  0  0  0  0  0  0  0  0  0
  140.2030   68.2660  228.1810 C   0  0  0  0  0  0  0  0  0  0  0  0
  140.9150   69.4260  228.3250 C   0  0  0  0  0  0  0  0  0  0  0  0
  141.0770   70.2970  227.2400 C   0  0  0  0  0  0  0  0  0  0  0  0
  140.4920   69.9330  226.0380 C   0  0  0  0  0  0  0  0  0  0  0  0
  140.5900   70.7650  224.8090 C   0  0  0  0  0  0  0  0  0  0  0  0
  137.7760   72.2320  222.9490 N   0  0  0  0  0  0  0  0  0  0  0  0
  135.7050   74.8730  222.5530 C   0  0  0  0  0  0  0  0  0  0  0  0
  134.1820   74.9640  222.5940 C   0  0  0  0  0  0  0  0  0  0  0  0
  134.0480   76.3310  226.7740 H   0  0  0  0  0  0  0  0  0  0  0  0
  132.5540   76.5230  226.0720 H   0  0  0  0  0  0  0  0  0  0  0  0
  131.7377   72.6166  225.3822 H   0  0  0  0  0  0  0  0  0  0  0  0
  130.8061   74.1460  225.4852 H   0  0  0  0  0  0  0  0  0  0  0  0
  131.8563   73.3167  223.1989 H   0  0  0  0  0  0  0  0  0  0  0  0
  131.8455   75.0749  223.6758 H   0  0  0  0  0  0  0  0  0  0  0  0
  134.0803   74.6485  224.6763 H   0  0  0  0  0  0  0  0  0  0  0  0
  133.6696   72.0369  224.0038 H   0  0  0  0  0  0  0  0  0  0  0  0
  135.2145   72.8553  224.5353 H   0  0  0  0  0  0  0  0  0  0  0  0
  134.2936   72.2619  221.7234 H   0  0  0  0  0  0  0  0  0  0  0  0
  135.7145   71.5755  222.6637 H   0  0  0  0  0  0  0  0  0  0  0  0
  135.7806   73.4805  220.8386 H   0  0  0  0  0  0  0  0  0  0  0  0
  140.1931   76.0705  222.7682 H   0  0  0  0  0  0  0  0  0  0  0  0
  141.9337   75.9291  222.4079 H   0  0  0  0  0  0  0  0  0  0  0  0
  139.7498   76.9143  220.4850 H   0  0  0  0  0  0  0  0  0  0  0  0
  140.9748   77.9355  221.2752 H   0  0  0  0  0  0  0  0  0  0  0  0
  142.1109   78.6739  219.3430 H   0  0  0  0  0  0  0  0  0  0  0  0
  143.7302   78.1007  217.5423 H   0  0  0  0  0  0  0  0  0  0  0  0
  144.2614   75.7425  216.9927 H   0  0  0  0  0  0  0  0  0  0  0  0
  143.1514   73.9484  218.2809 H   0  0  0  0  0  0  0  0  0  0  0  0
  140.7177   73.5947  219.5576 H   0  0  0  0  0  0  0  0  0  0  0  0
  142.1982   73.4278  220.5604 H   0  0  0  0  0  0  0  0  0  0  0  0
  137.6506   69.9319  224.9833 H   0  0  0  0  0  0  0  0  0  0  0  0
  137.8407   69.5580  223.2590 H   0  0  0  0  0  0  0  0  0  0  0  0
  138.5409   67.5876  224.6140 H   0  0  0  0  0  0  0  0  0  0  0  0
  139.9794   68.2613  223.8309 H   0  0  0  0  0  0  0  0  0  0  0  0
  139.0424   66.9459  226.8969 H   0  0  0  0  0  0  0  0  0  0  0  0
  140.0961   67.6059  229.0544 H   0  0  0  0  0  0  0  0  0  0  0  0
  141.3625   69.6757  229.2983 H   0  0  0  0  0  0  0  0  0  0  0  0
  141.6462   71.2331  227.3384 H   0  0  0  0  0  0  0  0  0  0  0  0
  140.8625   71.7918  225.0942 H   0  0  0  0  0  0  0  0  0  0  0  0
  141.3552   70.3220  224.1546 H   0  0  0  0  0  0  0  0  0  0  0  0
  136.1273   75.6815  221.9382 H   0  0  0  0  0  0  0  0  0  0  0  0
  136.1591   74.9756  223.5496 H   0  0  0  0  0  0  0  0  0  0  0  0
  133.7512   74.5667  221.6631 H   0  0  0  0  0  0  0  0  0  0  0  0
  133.8455   76.0066  222.6931 H   0  0  0  0  0  0  0  0  0  0  0  0
  1  2  1  0
  2  3  2  0
  2  4  2  0
  2  5  1  0
  5  6  1  0
  6  7  1  0
  7  8  1  0
  8  9  1  0
  9 10  1  0
 10 11  1  0
 11 12  2  0
 12 13  1  0
 13 14  1  0
 14 15  1  0
 15 16  1  0
 16 17  1  0
 17 18  2  0
 18 19  1  0
 19 20  2  0
 20 21  1  0
 21 22  2  0
 22 23  1  0
 13 24  2  0
 24 25  1  0
 25 26  1  0
 26 27  1  0
 27 28  1  0
 28 29  1  0
 29 30  2  0
 30 31  1  0
 31 32  2  0
 32 33  1  0
 33 34  2  0
 34 35  1  0
 25 36  2  0
 10 37  1  0
 37 38  1  0
 38  7  1  0
 36 11  1  0
 23 14  1  0
 35 26  1  0
 22 17  1  0
 34 29  1  0
  1 39  1  0
  1 40  1  0
  5 41  1  0
  5 42  1  0
  6 43  1  0
  6 44  1  0
  7 45  1  1
  8 46  1  0
  8 47  1  0
  9 48  1  0
  9 49  1  0
 10 50  1  6
 15 51  1  0
 15 52  1  0
 16 53  1  0
 16 54  1  0
 18 55  1  0
 19 56  1  0
 20 57  1  0
 21 58  1  0
 23 59  1  0
 23 60  1  0
 27 61  1  0
 27 62  1  0
 28 63  1  0
 28 64  1  0
 30 65  1  0
 31 66  1  0
 32 67  1  0
 33 68  1  0
 35 69  1  0
 35 70  1  0
 37 71  1  0
 37 72  1  0
 38 73  1  0
 38 74  1  0
M  END
>  <smiles>  (14) 
NS(=O)(=O)CC[C@H]1CC[C@H](c2nc(N3CCc4ccccc4C3)nc(N3CCc4ccccc4C3)n2)CC1

>  <score_type>  (14) 
oracle

>  <origin>  (14) 
autodockgpu

>  <m_score__min__energy>  (14) 
-10.08

>  <m_primary>  (14) 
energy

>  <rmsd>  (14) 
5.2919364371491335

>  <m_score__min__rmsd>  (14) 
5.2919364371491335

>  <meeko>  (14) 
{"free_energy": -8.51, "intermolecular_energy": -10.6, "internal_energy": -1.34, "cluster_size": 3, "cluster_id": 5, "rank_in_cluster": 2}

>  <energy>  (14) 
-9.33

>  <cluster_rmsd>  (14) 
0.7

>  <cluster>  (14) 
2

$$$$

     RDKit          3D

 74 79  0  0  0  0  0  0  0  0999 V2000
  146.1690   73.3990  218.4230 N   0  0  0  0  0  0  0  0  0  0  0  0
  145.4360   72.5430  219.7300 S   0  0  0  0  0  0  0  0  0  0  0  0
  145.7230   73.2220  221.0250 O   0  0  0  0  0  0  0  0  0  0  0  0
  146.0090   71.1600  219.7180 O   0  0  0  0  0  0  0  0  0  0  0  0
  143.6590   72.4930  219.4760 C   0  0  0  0  0  0  0  0  0  0  0  0
  143.0320   71.6410  220.5430 C   0  0  0  0  0  0  0  0  0  0  0  0
  141.8940   72.3360  221.2550 C   0  0  1  0  0  0  0  0  0  0  0  0
  141.7210   73.7700  220.8860 C   0  0  0  0  0  0  0  0  0  0  0  0
  140.4280   74.0560  220.1610 C   0  0  0  0  0  0  0  0  0  0  0  0
  139.2070   73.5270  220.8310 C   0  0  2  0  0  0  0  0  0  0  0  0
  138.4480   74.5500  221.6130 C   0  0  0  0  0  0  0  0  0  0  0  0
  137.3230   74.2420  222.2990 N   0  0  0  0  0  0  0  0  0  0  0  0
  136.6980   75.2340  222.9780 C   0  0  0  0  0  0  0  0  0  0  0  0
  135.5180   74.8750  223.6910 N   0  0  0  0  0  0  0  0  0  0  0  0
  134.4810   75.8610  223.8650 C   0  0  0  0  0  0  0  0  0  0  0  0
  134.1970   75.9720  225.3480 C   0  0  0  0  0  0  0  0  0  0  0  0
  133.8180   74.6200  225.8260 C   0  0  0  0  0  0  0  0  0  0  0  0
  132.8650   74.5260  226.8330 C   0  0  0  0  0  0  0  0  0  0  0  0
  132.5160   73.2560  227.2740 C   0  0  0  0  0  0  0  0  0  0  0  0
  133.0790   72.1140  226.7490 C   0  0  0  0  0  0  0  0  0  0  0  0
  134.0170   72.2680  225.7550 C   0  0  0  0  0  0  0  0  0  0  0  0
  134.4040   73.5030  225.2750 C   0  0  0  0  0  0  0  0  0  0  0  0
  135.4210   73.5450  224.2040 C   0  0  0  0  0  0  0  0  0  0  0  0
  137.1820   76.4920  222.9700 N   0  0  0  0  0  0  0  0  0  0  0  0
  138.3000   76.8070  222.2910 C   0  0  0  0  0  0  0  0  0  0  0  0
  138.8390   78.1200  222.2600 N   0  0  0  0  0  0  0  0  0  0  0  0
  138.8030   78.8910  221.0350 C   0  0  0  0  0  0  0  0  0  0  0  0
  138.8230   80.3570  221.4490 C   0  0  0  0  0  0  0  0  0  0  0  0
  140.1400   80.5780  222.1210 C   0  0  0  0  0  0  0  0  0  0  0  0
  141.0050   81.5890  221.7320 C   0  0  0  0  0  0  0  0  0  0  0  0
  142.1910   81.6780  222.4410 C   0  0  0  0  0  0  0  0  0  0  0  0
  142.5170   80.8330  223.4660 C   0  0  0  0  0  0  0  0  0  0  0  0
  141.6370   79.8130  223.8510 C   0  0  0  0  0  0  0  0  0  0  0  0
  140.4430   79.7060  223.1550 C   0  0  0  0  0  0  0  0  0  0  0  0
  139.4210   78.6700  223.4630 C   0  0  0  0  0  0  0  0  0  0  0  0
  138.8990   75.7990  221.6250 N   0  0  0  0  0  0  0  0  0  0  0  0
  139.5540   72.4370  221.8540 C   0  0  0  0  0  0  0  0  0  0  0  0
  140.6060   71.5820  221.1520 C   0  0  0  0  0  0  0  0  0  0  0  0
  146.9370   73.9870  218.8380 H   0  0  0  0  0  0  0  0  0  0  0  0
  145.4440   74.1100  218.1170 H   0  0  0  0  0  0  0  0  0  0  0  0
  143.2504   73.5128  219.5319 H   0  0  0  0  0  0  0  0  0  0  0  0
  143.4387   72.0674  218.4859 H   0  0  0  0  0  0  0  0  0  0  0  0
  142.6462   70.7222  220.0773 H   0  0  0  0  0  0  0  0  0  0  0  0
  143.8079   71.4245  221.2920 H   0  0  0  0  0  0  0  0  0  0  0  0
  142.1952   72.3385  222.3130 H   0  0  0  0  0  0  0  0  0  0  0  0
  142.5572   74.0649  220.2350 H   0  0  0  0  0  0  0  0  0  0  0  0
  141.6984   74.3439  221.8241 H   0  0  0  0  0  0  0  0  0  0  0  0
  140.4906   73.6066  219.1590 H   0  0  0  0  0  0  0  0  0  0  0  0
  140.3202   75.1505  220.1392 H   0  0  0  0  0  0  0  0  0  0  0  0
  138.5985   73.1546  219.9937 H   0  0  0  0  0  0  0  0  0  0  0  0
  134.8180   76.8324  223.4742 H   0  0  0  0  0  0  0  0  0  0  0  0
  133.5726   75.5658  223.3194 H   0  0  0  0  0  0  0  0  0  0  0  0
  135.0953   76.3208  225.8784 H   0  0  0  0  0  0  0  0  0  0  0  0
  133.3883   76.6932  225.5371 H   0  0  0  0  0  0  0  0  0  0  0  0
  132.4033   75.4258  227.2656 H   0  0  0  0  0  0  0  0  0  0  0  0
  131.7636   73.1589  228.0705 H   0  0  0  0  0  0  0  0  0  0  0  0
  132.7894   71.1164  227.1110 H   0  0  0  0  0  0  0  0  0  0  0  0
  134.4790   71.3677  225.3237 H   0  0  0  0  0  0  0  0  0  0  0  0
  136.3953   73.2372  224.6113 H   0  0  0  0  0  0  0  0  0  0  0  0
  135.1291   72.8601  223.3942 H   0  0  0  0  0  0  0  0  0  0  0  0
  139.6805   78.6591  220.4136 H   0  0  0  0  0  0  0  0  0  0  0  0
  137.9067   78.6562  220.4421 H   0  0  0  0  0  0  0  0  0  0  0  0
  138.7316   81.0050  220.5649 H   0  0  0  0  0  0  0  0  0  0  0  0
  137.9840   80.5979  222.1183 H   0  0  0  0  0  0  0  0  0  0  0  0
  140.7638   82.2788  220.9098 H   0  0  0  0  0  0  0  0  0  0  0  0
  142.9063   82.4672  222.1664 H   0  0  0  0  0  0  0  0  0  0  0  0
  143.4758   80.9550  223.9912 H   0  0  0  0  0  0  0  0  0  0  0  0
  141.8837   79.1246  224.6727 H   0  0  0  0  0  0  0  0  0  0  0  0
  139.8967   77.8580  224.0325 H   0  0  0  0  0  0  0  0  0  0  0  0
  138.6181   79.1430  224.0475 H   0  0  0  0  0  0  0  0  0  0  0  0
  138.6656   71.8371  222.1007 H   0  0  0  0  0  0  0  0  0  0  0  0
  139.9173   72.8535  222.8051 H   0  0  0  0  0  0  0  0  0  0  0  0
  140.3344   71.4338  220.0964 H   0  0  0  0  0  0  0  0  0  0  0  0
  140.6864   70.5867  221.6135 H   0  0  0  0  0  0  0  0  0  0  0  0
  1  2  1  0
  2  3  2  0
  2  4  2  0
  2  5  1  0
  5  6  1  0
  6  7  1  0
  7  8  1  0
  8  9  1  0
  9 10  1  0
 10 11  1  0
 11 12  2  0
 12 13  1  0
 13 14  1  0
 14 15  1  0
 15 16  1  0
 16 17  1  0
 17 18  2  0
 18 19  1  0
 19 20  2  0
 20 21  1  0
 21 22  2  0
 22 23  1  0
 13 24  2  0
 24 25  1  0
 25 26  1  0
 26 27  1  0
 27 28  1  0
 28 29  1  0
 29 30  2  0
 30 31  1  0
 31 32  2  0
 32 33  1  0
 33 34  2  0
 34 35  1  0
 25 36  2  0
 10 37  1  0
 37 38  1  0
 38  7  1  0
 36 11  1  0
 23 14  1  0
 35 26  1  0
 22 17  1  0
 34 29  1  0
  1 39  1  0
  1 40  1  0
  5 41  1  0
  5 42  1  0
  6 43  1  0
  6 44  1  0
  7 45  1  1
  8 46  1  0
  8 47  1  0
  9 48  1  0
  9 49  1  0
 10 50  1  6
 15 51  1  0
 15 52  1  0
 16 53  1  0
 16 54  1  0
 18 55  1  0
 19 56  1  0
 20 57  1  0
 21 58  1  0
 23 59  1  0
 23 60  1  0
 27 61  1  0
 27 62  1  0
 28 63  1  0
 28 64  1  0
 30 65  1  0
 31 66  1  0
 32 67  1  0
 33 68  1  0
 35 69  1  0
 35 70  1  0
 37 71  1  0
 37 72  1  0
 38 73  1  0
 38 74  1  0
M  END
>  <smiles>  (15) 
NS(=O)(=O)CC[C@H]1CC[C@H](c2nc(N3CCc4ccccc4C3)nc(N3CCc4ccccc4C3)n2)CC1

>  <score_type>  (15) 
oracle

>  <origin>  (15) 
autodockgpu

>  <m_score__min__energy>  (15) 
-10.08

>  <m_primary>  (15) 
energy

>  <rmsd>  (15) 
11.065835659830247

>  <m_score__min__rmsd>  (15) 
11.065835659830247

>  <meeko>  (15) 
{"free_energy": -9.45, "intermolecular_energy": -11.54, "internal_energy": -1.37, "cluster_size": 24, "cluster_id": 2, "rank_in_cluster": 5}

>  <energy>  (15) 
-9.31

>  <cluster_rmsd>  (15) 
0.72

>  <cluster>  (15) 
2

$$$$

     RDKit          3D

 74 79  0  0  0  0  0  0  0  0999 V2000
  144.6630   66.9450  216.1190 N   0  0  0  0  0  0  0  0  0  0  0  0
  145.9690   67.8120  216.8430 S   0  0  0  0  0  0  0  0  0  0  0  0
  147.1470   67.8380  215.9320 O   0  0  0  0  0  0  0  0  0  0  0  0
  146.3010   67.1060  218.1200 O   0  0  0  0  0  0  0  0  0  0  0  0
  145.4430   69.4980  217.1710 C   0  0  0  0  0  0  0  0  0  0  0  0
  145.9350   69.9110  218.5290 C   0  0  0  0  0  0  0  0  0  0  0  0
  144.8170   70.3300  219.4560 C   0  0  1  0  0  0  0  0  0  0  0  0
  144.6700   71.8050  219.6160 C   0  0  0  0  0  0  0  0  0  0  0  0
  143.3770   72.3470  219.0550 C   0  0  0  0  0  0  0  0  0  0  0  0
  142.1510   71.6360  219.5150 C   0  0  2  0  0  0  0  0  0  0  0  0
  141.4190   72.3320  220.6170 C   0  0  0  0  0  0  0  0  0  0  0  0
  141.0090   73.6180  220.5080 N   0  0  0  0  0  0  0  0  0  0  0  0
  140.3540   74.1700  221.5580 C   0  0  0  0  0  0  0  0  0  0  0  0
  139.9350   75.5230  221.4100 N   0  0  0  0  0  0  0  0  0  0  0  0
  140.6990   76.4000  220.5590 C   0  0  0  0  0  0  0  0  0  0  0  0
  141.0890   77.6110  221.3800 C   0  0  0  0  0  0  0  0  0  0  0  0
  139.8350   78.2200  221.8890 C   0  0  0  0  0  0  0  0  0  0  0  0
  139.7830   79.6030  222.0110 C   0  0  0  0  0  0  0  0  0  0  0  0
  138.6060   80.1640  222.4880 C   0  0  0  0  0  0  0  0  0  0  0  0
  137.5140   79.4000  222.8360 C   0  0  0  0  0  0  0  0  0  0  0  0
  137.6240   78.0360  222.6950 C   0  0  0  0  0  0  0  0  0  0  0  0
  138.7670   77.4210  222.2260 C   0  0  0  0  0  0  0  0  0  0  0  0
  138.7680   75.9460  222.1180 C   0  0  0  0  0  0  0  0  0  0  0  0
  140.1180   73.4600  222.6790 N   0  0  0  0  0  0  0  0  0  0  0  0
  140.5210   72.1810  222.7950 C   0  0  0  0  0  0  0  0  0  0  0  0
  140.2910   71.4030  223.9600 N   0  0  0  0  0  0  0  0  0  0  0  0
  141.0720   71.6360  225.1570 C   0  0  0  0  0  0  0  0  0  0  0  0
  140.2150   71.1720  226.3280 C   0  0  0  0  0  0  0  0  0  0  0  0
  140.0350   69.6990  226.1470 C   0  0  0  0  0  0  0  0  0  0  0  0
  140.3350   68.7920  227.1510 C   0  0  0  0  0  0  0  0  0  0  0  0
  140.1200   67.4580  226.8480 C   0  0  0  0  0  0  0  0  0  0  0  0
  139.6420   67.0320  225.6390 C   0  0  0  0  0  0  0  0  0  0  0  0
  139.3410   67.9570  224.6300 C   0  0  0  0  0  0  0  0  0  0  0  0
  139.5490   69.2970  224.9120 C   0  0  0  0  0  0  0  0  0  0  0  0
  139.2690   70.3800  223.9320 C   0  0  0  0  0  0  0  0  0  0  0  0
  141.1700   71.6600  221.7350 N   0  0  0  0  0  0  0  0  0  0  0  0
  142.4850   70.2520  220.0860 C   0  0  0  0  0  0  0  0  0  0  0  0
  143.5130   69.6810  219.1140 C   0  0  0  0  0  0  0  0  0  0  0  0
  143.8120   67.1270  216.7110 H   0  0  0  0  0  0  0  0  0  0  0  0
  144.8780   65.9220  216.2970 H   0  0  0  0  0  0  0  0  0  0  0  0
  145.8621   70.1698  216.4074 H   0  0  0  0  0  0  0  0  0  0  0  0
  144.3449   69.5561  217.1412 H   0  0  0  0  0  0  0  0  0  0  0  0
  146.4679   69.0623  218.9826 H   0  0  0  0  0  0  0  0  0  0  0  0
  146.5940   70.7810  218.3914 H   0  0  0  0  0  0  0  0  0  0  0  0
  145.1267   69.9560  220.4430 H   0  0  0  0  0  0  0  0  0  0  0  0
  145.5070   72.2963  219.0982 H   0  0  0  0  0  0  0  0  0  0  0  0
  144.6663   72.0140  220.6960 H   0  0  0  0  0  0  0  0  0  0  0  0
  143.4230   72.2757  217.9583 H   0  0  0  0  0  0  0  0  0  0  0  0
  143.2905   73.3815  219.4188 H   0  0  0  0  0  0  0  0  0  0  0  0
  141.5281   71.5902  218.6095 H   0  0  0  0  0  0  0  0  0  0  0  0
  141.6017   75.8829  220.2016 H   0  0  0  0  0  0  0  0  0  0  0  0
  140.1052   76.7022  219.6838 H   0  0  0  0  0  0  0  0  0  0  0  0
  141.7280   77.3056  222.2216 H   0  0  0  0  0  0  0  0  0  0  0  0
  141.6523   78.3315  220.7688 H   0  0  0  0  0  0  0  0  0  0  0  0
  140.6440   80.2313  221.7392 H   0  0  0  0  0  0  0  0  0  0  0  0
  138.5433   81.2573  222.5917 H   0  0  0  0  0  0  0  0  0  0  0  0
  136.5896   79.8627  223.2121 H   0  0  0  0  0  0  0  0  0  0  0  0
  136.7632   77.4080  222.9681 H   0  0  0  0  0  0  0  0  0  0  0  0
  138.7696   75.5042  223.1254 H   0  0  0  0  0  0  0  0  0  0  0  0
  137.8695   75.6166  221.5756 H   0  0  0  0  0  0  0  0  0  0  0  0
  142.0079   71.0593  225.1187 H   0  0  0  0  0  0  0  0  0  0  0  0
  141.3413   72.6979  225.2565 H   0  0  0  0  0  0  0  0  0  0  0  0
  140.7237   71.3809  227.2807 H   0  0  0  0  0  0  0  0  0  0  0  0
  139.2484   71.6965  226.3533 H   0  0  0  0  0  0  0  0  0  0  0  0
  140.7208   69.1126  228.1300 H   0  0  0  0  0  0  0  0  0  0  0  0
  140.3445   66.7041  227.6169 H   0  0  0  0  0  0  0  0  0  0  0  0
  139.4930   65.9573  225.4578 H   0  0  0  0  0  0  0  0  0  0  0  0
  138.9548   67.6316  223.6528 H   0  0  0  0  0  0  0  0  0  0  0  0
  139.2271   69.9453  222.9224 H   0  0  0  0  0  0  0  0  0  0  0  0
  138.3094   70.8460  224.2002 H   0  0  0  0  0  0  0  0  0  0  0  0
  141.5870   69.6177  220.1205 H   0  0  0  0  0  0  0  0  0  0  0  0
  142.8648   70.3033  221.1171 H   0  0  0  0  0  0  0  0  0  0  0  0
  143.2299   69.9170  218.0776 H   0  0  0  0  0  0  0  0  0  0  0  0
  143.5768   68.5859  219.1959 H   0  0  0  0  0  0  0  0  0  0  0  0
  1  2  1  0
  2  3  2  0
  2  4  2  0
  2  5  1  0
  5  6  1  0
  6  7  1  0
  7  8  1  0
  8  9  1  0
  9 10  1  0
 10 11  1  0
 11 12  2  0
 12 13  1  0
 13 14  1  0
 14 15  1  0
 15 16  1  0
 16 17  1  0
 17 18  2  0
 18 19  1  0
 19 20  2  0
 20 21  1  0
 21 22  2  0
 22 23  1  0
 13 24  2  0
 24 25  1  0
 25 26  1  0
 26 27  1  0
 27 28  1  0
 28 29  1  0
 29 30  2  0
 30 31  1  0
 31 32  2  0
 32 33  1  0
 33 34  2  0
 34 35  1  0
 25 36  2  0
 10 37  1  0
 37 38  1  0
 38  7  1  0
 36 11  1  0
 23 14  1  0
 35 26  1  0
 22 17  1  0
 34 29  1  0
  1 39  1  0
  1 40  1  0
  5 41  1  0
  5 42  1  0
  6 43  1  0
  6 44  1  0
  7 45  1  1
  8 46  1  0
  8 47  1  0
  9 48  1  0
  9 49  1  0
 10 50  1  6
 15 51  1  0
 15 52  1  0
 16 53  1  0
 16 54  1  0
 18 55  1  0
 19 56  1  0
 20 57  1  0
 21 58  1  0
 23 59  1  0
 23 60  1  0
 27 61  1  0
 27 62  1  0
 28 63  1  0
 28 64  1  0
 30 65  1  0
 31 66  1  0
 32 67  1  0
 33 68  1  0
 35 69  1  0
 35 70  1  0
 37 71  1  0
 37 72  1  0
 38 73  1  0
 38 74  1  0
M  END
>  <smiles>  (16) 
NS(=O)(=O)CC[C@H]1CC[C@H](c2nc(N3CCc4ccccc4C3)nc(N3CCc4ccccc4C3)n2)CC1

>  <score_type>  (16) 
oracle

>  <origin>  (16) 
autodockgpu

>  <m_score__min__energy>  (16) 
-10.08

>  <m_primary>  (16) 
energy

>  <rmsd>  (16) 
5.065822675721078

>  <m_score__min__rmsd>  (16) 
5.065822675721078

>  <meeko>  (16) 
{"free_energy": -8.46, "intermolecular_energy": -10.55, "internal_energy": -1.42, "cluster_size": 4, "cluster_id": 6, "rank_in_cluster": 4}

>  <energy>  (16) 
-9.29

>  <cluster_rmsd>  (16) 
0.89

>  <cluster>  (16) 
2

$$$$

     RDKit          3D

 74 79  0  0  0  0  0  0  0  0999 V2000
  148.2650   74.5150  217.3670 N   0  0  0  0  0  0  0  0  0  0  0  0
  147.9120   74.1570  215.7160 S   0  0  0  0  0  0  0  0  0  0  0  0
  148.5980   72.9020  215.2960 O   0  0  0  0  0  0  0  0  0  0  0  0
  148.3940   75.3210  214.9080 O   0  0  0  0  0  0  0  0  0  0  0  0
  146.1380   73.9470  215.5270 C   0  0  0  0  0  0  0  0  0  0  0  0
  145.6720   72.8490  216.4410 C   0  0  0  0  0  0  0  0  0  0  0  0
  144.8480   73.3620  217.6000 C   0  0  1  0  0  0  0  0  0  0  0  0
  143.4200   72.9360  217.5740 C   0  0  0  0  0  0  0  0  0  0  0  0
  143.0430   72.0140  218.7090 C   0  0  0  0  0  0  0  0  0  0  0  0
  143.4300   72.5010  220.0630 C   0  0  2  0  0  0  0  0  0  0  0  0
  142.3120   73.1320  220.8280 C   0  0  0  0  0  0  0  0  0  0  0  0
  141.4070   72.3970  221.5170 N   0  0  0  0  0  0  0  0  0  0  0  0
  140.4240   73.0540  222.1800 C   0  0  0  0  0  0  0  0  0  0  0  0
  139.4910   72.2510  222.8960 N   0  0  0  0  0  0  0  0  0  0  0  0
  139.9610   71.4550  224.0020 C   0  0  0  0  0  0  0  0  0  0  0  0
  139.5460   70.0210  223.7440 C   0  0  0  0  0  0  0  0  0  0  0  0
  138.0710   70.0110  223.5890 C   0  0  0  0  0  0  0  0  0  0  0  0
  137.3720   68.9050  224.0570 C   0  0  0  0  0  0  0  0  0  0  0  0
  135.9910   68.9040  223.9070 C   0  0  0  0  0  0  0  0  0  0  0  0
  135.3140   69.9490  223.3180 C   0  0  0  0  0  0  0  0  0  0  0  0
  136.0580   71.0170  222.8730 C   0  0  0  0  0  0  0  0  0  0  0  0
  137.4320   71.0750  222.9940 C   0  0  0  0  0  0  0  0  0  0  0  0
  138.1240   72.2750  222.4790 C   0  0  0  0  0  0  0  0  0  0  0  0
  140.3490   74.3990  222.1530 N   0  0  0  0  0  0  0  0  0  0  0  0
  141.2440   75.1370  221.4720 C   0  0  0  0  0  0  0  0  0  0  0  0
  141.1950   76.5550  221.4210 N   0  0  0  0  0  0  0  0  0  0  0  0
  141.6950   77.2590  220.2600 C   0  0  0  0  0  0  0  0  0  0  0  0
  140.9520   78.5870  220.2080 C   0  0  0  0  0  0  0  0  0  0  0  0
  141.3590   79.3340  221.4380 C   0  0  0  0  0  0  0  0  0  0  0  0
  141.8650   80.6230  221.3830 C   0  0  0  0  0  0  0  0  0  0  0  0
  142.2010   81.1950  222.5980 C   0  0  0  0  0  0  0  0  0  0  0  0
  142.0540   80.5510  223.7960 C   0  0  0  0  0  0  0  0  0  0  0  0
  141.5410   79.2480  223.8410 C   0  0  0  0  0  0  0  0  0  0  0  0
  141.1990   78.6560  222.6360 C   0  0  0  0  0  0  0  0  0  0  0  0
  140.6430   77.2800  222.5440 C   0  0  0  0  0  0  0  0  0  0  0  0
  142.2100   74.4560  220.8220 N   0  0  0  0  0  0  0  0  0  0  0  0
  144.5070   73.5900  219.9820 C   0  0  0  0  0  0  0  0  0  0  0  0
  145.4830   73.0790  218.9250 C   0  0  0  0  0  0  0  0  0  0  0  0
  147.3490   74.4920  217.8850 H   0  0  0  0  0  0  0  0  0  0  0  0
  148.5330   75.5410  217.3760 H   0  0  0  0  0  0  0  0  0  0  0  0
  145.6263   74.8852  215.7877 H   0  0  0  0  0  0  0  0  0  0  0  0
  145.9052   73.6847  214.4844 H   0  0  0  0  0  0  0  0  0  0  0  0
  145.0600   72.1437  215.8596 H   0  0  0  0  0  0  0  0  0  0  0  0
  146.5664   72.3643  216.8593 H   0  0  0  0  0  0  0  0  0  0  0  0
  144.8329   74.4535  217.4641 H   0  0  0  0  0  0  0  0  0  0  0  0
  143.2301   72.4142  216.6245 H   0  0  0  0  0  0  0  0  0  0  0  0
  142.8103   73.8453  217.6812 H   0  0  0  0  0  0  0  0  0  0  0  0
  143.5346   71.0445  218.5404 H   0  0  0  0  0  0  0  0  0  0  0  0
  141.9449   71.9496  218.7047 H   0  0  0  0  0  0  0  0  0  0  0  0
  143.7760   71.5893  220.5720 H   0  0  0  0  0  0  0  0  0  0  0  0
  141.0567   71.5213  224.0728 H   0  0  0  0  0  0  0  0  0  0  0  0
  139.5319   71.8169  224.9480 H   0  0  0  0  0  0  0  0  0  0  0  0
  140.0238   69.6501  222.8252 H   0  0  0  0  0  0  0  0  0  0  0  0
  139.8552   69.3701  224.5751 H   0  0  0  0  0  0  0  0  0  0  0  0
  137.8939   68.0599  224.5297 H   0  0  0  0  0  0  0  0  0  0  0  0
  135.4181   68.0385  224.2713 H   0  0  0  0  0  0  0  0  0  0  0  0
  134.2197   69.9302  223.2076 H   0  0  0  0  0  0  0  0  0  0  0  0
  135.5354   71.8616  222.4002 H   0  0  0  0  0  0  0  0  0  0  0  0
  138.0757   72.2831  221.3801 H   0  0  0  0  0  0  0  0  0  0  0  0
  137.6355   73.1782  222.8735 H   0  0  0  0  0  0  0  0  0  0  0  0
  142.7769   77.4322  220.3571 H   0  0  0  0  0  0  0  0  0  0  0  0
  141.5340   76.6763  219.3410 H   0  0  0  0  0  0  0  0  0  0  0  0
  141.2372   79.1497  219.3069 H   0  0  0  0  0  0  0  0  0  0  0  0
  139.8628   78.4386  220.1680 H   0  0  0  0  0  0  0  0  0  0  0  0
  141.9920   81.1594  220.4311 H   0  0  0  0  0  0  0  0  0  0  0  0
  142.6061   82.2177  222.6003 H   0  0  0  0  0  0  0  0  0  0  0  0
  142.3401   81.0589  224.7289 H   0  0  0  0  0  0  0  0  0  0  0  0
  141.4147   78.7160  224.7955 H   0  0  0  0  0  0  0  0  0  0  0  0
  140.8802   76.7368  223.4706 H   0  0  0  0  0  0  0  0  0  0  0  0
  139.5551   77.3581  222.4010 H   0  0  0  0  0  0  0  0  0  0  0  0
  145.0117   73.7116  220.9518 H   0  0  0  0  0  0  0  0  0  0  0  0
  144.0895   74.5752  219.7267 H   0  0  0  0  0  0  0  0  0  0  0  0
  145.6457   71.9980  219.0469 H   0  0  0  0  0  0  0  0  0  0  0  0
  146.4632   73.5703  219.0132 H   0  0  0  0  0  0  0  0  0  0  0  0
  1  2  1  0
  2  3  2  0
  2  4  2  0
  2  5  1  0
  5  6  1  0
  6  7  1  0
  7  8  1  0
  8  9  1  0
  9 10  1  0
 10 11  1  0
 11 12  2  0
 12 13  1  0
 13 14  1  0
 14 15  1  0
 15 16  1  0
 16 17  1  0
 17 18  2  0
 18 19  1  0
 19 20  2  0
 20 21  1  0
 21 22  2  0
 22 23  1  0
 13 24  2  0
 24 25  1  0
 25 26  1  0
 26 27  1  0
 27 28  1  0
 28 29  1  0
 29 30  2  0
 30 31  1  0
 31 32  2  0
 32 33  1  0
 33 34  2  0
 34 35  1  0
 25 36  2  0
 10 37  1  0
 37 38  1  0
 38  7  1  0
 36 11  1  0
 23 14  1  0
 35 26  1  0
 22 17  1  0
 34 29  1  0
  1 39  1  0
  1 40  1  0
  5 41  1  0
  5 42  1  0
  6 43  1  0
  6 44  1  0
  7 45  1  6
  8 46  1  0
  8 47  1  0
  9 48  1  0
  9 49  1  0
 10 50  1  1
 15 51  1  0
 15 52  1  0
 16 53  1  0
 16 54  1  0
 18 55  1  0
 19 56  1  0
 20 57  1  0
 21 58  1  0
 23 59  1  0
 23 60  1  0
 27 61  1  0
 27 62  1  0
 28 63  1  0
 28 64  1  0
 30 65  1  0
 31 66  1  0
 32 67  1  0
 33 68  1  0
 35 69  1  0
 35 70  1  0
 37 71  1  0
 37 72  1  0
 38 73  1  0
 38 74  1  0
M  END
>  <smiles>  (17) 
NS(=O)(=O)CC[C@H]1CC[C@H](c2nc(N3CCc4ccccc4C3)nc(N3CCc4ccccc4C3)n2)CC1

>  <score_type>  (17) 
oracle

>  <origin>  (17) 
autodockgpu

>  <m_score__min__energy>  (17) 
-10.08

>  <m_primary>  (17) 
energy

>  <rmsd>  (17) 
9.885114486023648

>  <m_score__min__rmsd>  (17) 
9.885114486023648

>  <meeko>  (17) 
{"free_energy": -9.11, "intermolecular_energy": -11.2, "internal_energy": -1.38, "cluster_size": 3, "cluster_id": 7, "rank_in_cluster": 1}

>  <energy>  (17) 
-9.28

>  <cluster_rmsd>  (17) 
0.79

>  <cluster>  (17) 
2

$$$$

     RDKit          3D

 74 79  0  0  0  0  0  0  0  0999 V2000
  144.4290   67.5460  217.9900 N   0  0  0  0  0  0  0  0  0  0  0  0
  145.6050   68.0310  219.1570 S   0  0  0  0  0  0  0  0  0  0  0  0
  146.7190   67.0440  219.2170 O   0  0  0  0  0  0  0  0  0  0  0  0
  144.8990   68.1150  220.4740 O   0  0  0  0  0  0  0  0  0  0  0  0
  146.2670   69.6350  218.6910 C   0  0  0  0  0  0  0  0  0  0  0  0
  145.4150   70.2210  217.6020 C   0  0  0  0  0  0  0  0  0  0  0  0
  144.3710   71.1810  218.1250 C   0  0  1  0  0  0  0  0  0  0  0  0
  143.9510   70.9250  219.5330 C   0  0  0  0  0  0  0  0  0  0  0  0
  144.3390   72.0270  220.4890 C   0  0  0  0  0  0  0  0  0  0  0  0
  143.9440   73.3960  220.0560 C   0  0  2  0  0  0  0  0  0  0  0  0
  142.7010   73.9080  220.7090 C   0  0  0  0  0  0  0  0  0  0  0  0
  142.4490   75.2320  220.8370 N   0  0  0  0  0  0  0  0  0  0  0  0
  141.2970   75.6060  221.4460 C   0  0  0  0  0  0  0  0  0  0  0  0
  141.0620   77.0060  221.5620 N   0  0  0  0  0  0  0  0  0  0  0  0
  140.7110   77.7550  220.3810 C   0  0  0  0  0  0  0  0  0  0  0  0
  141.6950   78.8970  220.2520 C   0  0  0  0  0  0  0  0  0  0  0  0
  141.6170   79.6900  221.5030 C   0  0  0  0  0  0  0  0  0  0  0  0
  141.7900   81.0660  221.4170 C   0  0  0  0  0  0  0  0  0  0  0  0
  141.7150   81.8000  222.5940 C   0  0  0  0  0  0  0  0  0  0  0  0
  141.4790   81.2100  223.8160 C   0  0  0  0  0  0  0  0  0  0  0  0
  141.3160   79.8450  223.8400 C   0  0  0  0  0  0  0  0  0  0  0  0
  141.3790   79.0620  222.7050 C   0  0  0  0  0  0  0  0  0  0  0  0
  141.1880   77.6040  222.8540 C   0  0  0  0  0  0  0  0  0  0  0  0
  140.4290   74.6880  221.9110 N   0  0  0  0  0  0  0  0  0  0  0  0
  140.6710   73.3700  221.7870 C   0  0  0  0  0  0  0  0  0  0  0  0
  139.7790   72.3730  222.2650 N   0  0  0  0  0  0  0  0  0  0  0  0
  138.3550   72.6280  222.2980 C   0  0  0  0  0  0  0  0  0  0  0  0
  137.6720   71.2690  222.2150 C   0  0  0  0  0  0  0  0  0  0  0  0
  138.0610   70.5370  223.4590 C   0  0  0  0  0  0  0  0  0  0  0  0
  137.1200   69.9720  224.3060 C   0  0  0  0  0  0  0  0  0  0  0  0
  137.6200   69.3240  225.4220 C   0  0  0  0  0  0  0  0  0  0  0  0
  138.9570   69.2300  225.6990 C   0  0  0  0  0  0  0  0  0  0  0  0
  139.9010   69.8040  224.8360 C   0  0  0  0  0  0  0  0  0  0  0  0
  139.4220   70.4580  223.7130 C   0  0  0  0  0  0  0  0  0  0  0  0
  140.3150   71.1080  222.7170 C   0  0  0  0  0  0  0  0  0  0  0  0
  141.8240   73.0280  221.1780 N   0  0  0  0  0  0  0  0  0  0  0  0
  143.6400   73.4450  218.5530 C   0  0  0  0  0  0  0  0  0  0  0  0
  144.7500   72.6130  217.9160 C   0  0  0  0  0  0  0  0  0  0  0  0
  144.5910   66.5240  217.8030 H   0  0  0  0  0  0  0  0  0  0  0  0
  144.7250   68.0170  217.0870 H   0  0  0  0  0  0  0  0  0  0  0  0
  146.2603   70.3040  219.5641 H   0  0  0  0  0  0  0  0  0  0  0  0
  147.3000   69.5191  218.3313 H   0  0  0  0  0  0  0  0  0  0  0  0
  146.0664   70.7599  216.8982 H   0  0  0  0  0  0  0  0  0  0  0  0
  144.8847   69.3899  217.1141 H   0  0  0  0  0  0  0  0  0  0  0  0
  143.4819   70.9790  217.5097 H   0  0  0  0  0  0  0  0  0  0  0  0
  144.4206   69.9896  219.8714 H   0  0  0  0  0  0  0  0  0  0  0  0
  142.8526   70.8666  219.5365 H   0  0  0  0  0  0  0  0  0  0  0  0
  145.4324   72.0077  220.6081 H   0  0  0  0  0  0  0  0  0  0  0  0
  143.7973   71.8297  221.4258 H   0  0  0  0  0  0  0  0  0  0  0  0
  144.8092   74.0125  220.3411 H   0  0  0  0  0  0  0  0  0  0  0  0
  140.7710   77.1066  219.4944 H   0  0  0  0  0  0  0  0  0  0  0  0
  139.6831   78.1388  220.4592 H   0  0  0  0  0  0  0  0  0  0  0  0
  142.7134   78.5031  220.1189 H   0  0  0  0  0  0  0  0  0  0  0  0
  141.4542   79.5218  219.3793 H   0  0  0  0  0  0  0  0  0  0  0  0
  141.9796   81.5568  220.4510 H   0  0  0  0  0  0  0  0  0  0  0  0
  141.8488   82.8909  222.5485 H   0  0  0  0  0  0  0  0  0  0  0  0
  141.4231   81.8080  224.7375 H   0  0  0  0  0  0  0  0  0  0  0  0
  141.1270   79.3552  224.8066 H   0  0  0  0  0  0  0  0  0  0  0  0
  142.0550   77.1719  223.3752 H   0  0  0  0  0  0  0  0  0  0  0  0
  140.2760   77.4112  223.4380 H   0  0  0  0  0  0  0  0  0  0  0  0
  138.0810   73.1347  223.2351 H   0  0  0  0  0  0  0  0  0  0  0  0
  138.0475   73.2799  221.4671 H   0  0  0  0  0  0  0  0  0  0  0  0
  136.5799   71.3920  222.1694 H   0  0  0  0  0  0  0  0  0  0  0  0
  137.9757   70.7194  221.3119 H   0  0  0  0  0  0  0  0  0  0  0  0
  136.0407   70.0350  224.1032 H   0  0  0  0  0  0  0  0  0  0  0  0
  136.9075   68.8616  226.1210 H   0  0  0  0  0  0  0  0  0  0  0  0
  139.2926   68.7014  226.6034 H   0  0  0  0  0  0  0  0  0  0  0  0
  140.9794   69.7376  225.0426 H   0  0  0  0  0  0  0  0  0  0  0  0
  141.2980   71.2818  223.1791 H   0  0  0  0  0  0  0  0  0  0  0  0
  140.4017   70.4410  221.8466 H   0  0  0  0  0  0  0  0  0  0  0  0
  143.6683   74.4806  218.1833 H   0  0  0  0  0  0  0  0  0  0  0  0
  142.6373   73.0607  218.3144 H   0  0  0  0  0  0  0  0  0  0  0  0
  145.7135   72.8272  218.4016 H   0  0  0  0  0  0  0  0  0  0  0  0
  144.8620   72.8459  216.8468 H   0  0  0  0  0  0  0  0  0  0  0  0
  1  2  1  0
  2  3  2  0
  2  4  2  0
  2  5  1  0
  5  6  1  0
  6  7  1  0
  7  8  1  0
  8  9  1  0
  9 10  1  0
 10 11  1  0
 11 12  2  0
 12 13  1  0
 13 14  1  0
 14 15  1  0
 15 16  1  0
 16 17  1  0
 17 18  2  0
 18 19  1  0
 19 20  2  0
 20 21  1  0
 21 22  2  0
 22 23  1  0
 13 24  2  0
 24 25  1  0
 25 26  1  0
 26 27  1  0
 27 28  1  0
 28 29  1  0
 29 30  2  0
 30 31  1  0
 31 32  2  0
 32 33  1  0
 33 34  2  0
 34 35  1  0
 25 36  2  0
 10 37  1  0
 37 38  1  0
 38  7  1  0
 36 11  1  0
 23 14  1  0
 35 26  1  0
 22 17  1  0
 34 29  1  0
  1 39  1  0
  1 40  1  0
  5 41  1  0
  5 42  1  0
  6 43  1  0
  6 44  1  0
  7 45  1  6
  8 46  1  0
  8 47  1  0
  9 48  1  0
  9 49  1  0
 10 50  1  6
 15 51  1  0
 15 52  1  0
 16 53  1  0
 16 54  1  0
 18 55  1  0
 19 56  1  0
 20 57  1  0
 21 58  1  0
 23 59  1  0
 23 60  1  0
 27 61  1  0
 27 62  1  0
 28 63  1  0
 28 64  1  0
 30 65  1  0
 31 66  1  0
 32 67  1  0
 33 68  1  0
 35 69  1  0
 35 70  1  0
 37 71  1  0
 37 72  1  0
 38 73  1  0
 38 74  1  0
M  END
>  <smiles>  (18) 
NS(=O)(=O)CC[C@H]1CC[C@H](c2nc(N3CCc4ccccc4C3)nc(N3CCc4ccccc4C3)n2)CC1

>  <score_type>  (18) 
oracle

>  <origin>  (18) 
autodockgpu

>  <m_score__min__energy>  (18) 
-10.08

>  <m_primary>  (18) 
energy

>  <rmsd>  (18) 
4.993778807420018

>  <m_score__min__rmsd>  (18) 
4.993778807420018

>  <meeko>  (18) 
{"free_energy": -9.14, "intermolecular_energy": -11.23, "internal_energy": -1.48, "cluster_size": 5, "cluster_id": 1, "rank_in_cluster": 3}

>  <energy>  (18) 
-9.21

>  <cluster_rmsd>  (18) 
1.3

>  <cluster>  (18) 
2

$$$$

     RDKit          3D

 74 79  0  0  0  0  0  0  0  0999 V2000
  141.3740   67.7490  229.1680 N   0  0  0  0  0  0  0  0  0  0  0  0
  140.5220   68.7240  228.0260 S   0  0  0  0  0  0  0  0  0  0  0  0
  141.3920   69.8250  227.5260 O   0  0  0  0  0  0  0  0  0  0  0  0
  139.3250   69.2750  228.7360 O   0  0  0  0  0  0  0  0  0  0  0  0
  140.0180   67.6990  226.6400 C   0  0  0  0  0  0  0  0  0  0  0  0
  139.1350   68.5030  225.7280 C   0  0  0  0  0  0  0  0  0  0  0  0
  139.9020   69.5260  224.9210 C   0  0  1  0  0  0  0  0  0  0  0  0
  139.6100   69.4990  223.4590 C   0  0  0  0  0  0  0  0  0  0  0  0
  138.9220   70.7460  222.9580 C   0  0  0  0  0  0  0  0  0  0  0  0
  139.5860   72.0230  223.3460 C   0  0  2  0  0  0  0  0  0  0  0  0
  140.4320   72.6230  222.2700 C   0  0  0  0  0  0  0  0  0  0  0  0
  141.1240   71.8620  221.3890 N   0  0  0  0  0  0  0  0  0  0  0  0
  141.8670   72.4910  220.4480 C   0  0  0  0  0  0  0  0  0  0  0  0
  142.5800   71.6600  219.5370 N   0  0  0  0  0  0  0  0  0  0  0  0
  142.3250   70.2420  219.5400 C   0  0  0  0  0  0  0  0  0  0  0  0
  143.6510   69.5370  219.7360 C   0  0  0  0  0  0  0  0  0  0  0  0
  144.5490   69.9770  218.6400 C   0  0  0  0  0  0  0  0  0  0  0  0
  145.4580   69.0580  218.1310 C   0  0  0  0  0  0  0  0  0  0  0  0
  146.2950   69.4780  217.1050 C   0  0  0  0  0  0  0  0  0  0  0  0
  146.2460   70.7550  216.5920 C   0  0  0  0  0  0  0  0  0  0  0  0
  145.3260   71.6220  217.1350 C   0  0  0  0  0  0  0  0  0  0  0  0
  144.4680   71.2630  218.1550 C   0  0  0  0  0  0  0  0  0  0  0  0
  143.5210   72.2800  218.6580 C   0  0  0  0  0  0  0  0  0  0  0  0
  141.9170   73.8360  220.3890 N   0  0  0  0  0  0  0  0  0  0  0  0
  141.2320   74.6010  221.2590 C   0  0  0  0  0  0  0  0  0  0  0  0
  141.2610   76.0200  221.2270 N   0  0  0  0  0  0  0  0  0  0  0  0
  141.8880   76.7100  220.1190 C   0  0  0  0  0  0  0  0  0  0  0  0
  141.2210   78.0770  220.0300 C   0  0  0  0  0  0  0  0  0  0  0  0
  141.5670   78.7870  221.3000 C   0  0  0  0  0  0  0  0  0  0  0  0
  142.1420   80.0470  221.3050 C   0  0  0  0  0  0  0  0  0  0  0  0
  142.4100   80.5870  222.5510 C   0  0  0  0  0  0  0  0  0  0  0  0
  142.1350   79.9370  223.7240 C   0  0  0  0  0  0  0  0  0  0  0  0
  141.5530   78.6630  223.7090 C   0  0  0  0  0  0  0  0  0  0  0  0
  141.2770   78.1040  222.4710 C   0  0  0  0  0  0  0  0  0  0  0  0
  140.6590   76.7600  222.3140 C   0  0  0  0  0  0  0  0  0  0  0  0
  140.5020   73.9460  222.1840 N   0  0  0  0  0  0  0  0  0  0  0  0
  140.5450   71.8220  224.5250 C   0  0  0  0  0  0  0  0  0  0  0  0
  139.7820   70.9080  225.4810 C   0  0  0  0  0  0  0  0  0  0  0  0
  142.3810   68.0540  229.1360 H   0  0  0  0  0  0  0  0  0  0  0  0
  141.3920   66.7780  228.7430 H   0  0  0  0  0  0  0  0  0  0  0  0
  140.9081   67.3625  226.0881 H   0  0  0  0  0  0  0  0  0  0  0  0
  139.4672   66.8215  227.0096 H   0  0  0  0  0  0  0  0  0  0  0  0
  138.6284   67.8161  225.0341 H   0  0  0  0  0  0  0  0  0  0  0  0
  138.4178   69.0490  226.3585 H   0  0  0  0  0  0  0  0  0  0  0  0
  140.9536   69.2184  225.0182 H   0  0  0  0  0  0  0  0  0  0  0  0
  138.9613   68.6357  223.2496 H   0  0  0  0  0  0  0  0  0  0  0  0
  140.5763   69.4316  222.9378 H   0  0  0  0  0  0  0  0  0  0  0  0
  137.8978   70.7568  223.3591 H   0  0  0  0  0  0  0  0  0  0  0  0
  138.9564   70.6995  221.8595 H   0  0  0  0  0  0  0  0  0  0  0  0
  138.7417   72.6864  223.5849 H   0  0  0  0  0  0  0  0  0  0  0  0
  141.6395   69.9862  220.3614 H   0  0  0  0  0  0  0  0  0  0  0  0
  141.8597   69.9319  218.5927 H   0  0  0  0  0  0  0  0  0  0  0  0
  144.0830   69.8109  220.7098 H   0  0  0  0  0  0  0  0  0  0  0  0
  143.5188   68.4451  219.7174 H   0  0  0  0  0  0  0  0  0  0  0  0
  145.5130   68.0331  218.5268 H   0  0  0  0  0  0  0  0  0  0  0  0
  147.0222   68.7658  216.6879 H   0  0  0  0  0  0  0  0  0  0  0  0
  146.9168   71.0699  215.7791 H   0  0  0  0  0  0  0  0  0  0  0  0
  145.2718   72.6467  216.7387 H   0  0  0  0  0  0  0  0  0  0  0  0
  144.0744   73.0587  219.2033 H   0  0  0  0  0  0  0  0  0  0  0  0
  142.9871   72.7353  217.8108 H   0  0  0  0  0  0  0  0  0  0  0  0
  142.9664   76.8243  220.3033 H   0  0  0  0  0  0  0  0  0  0  0  0
  141.7704   76.1473  219.1812 H   0  0  0  0  0  0  0  0  0  0  0  0
  141.6057   78.6345  219.1633 H   0  0  0  0  0  0  0  0  0  0  0  0
  140.1322   77.9869  219.9021 H   0  0  0  0  0  0  0  0  0  0  0  0
  142.3720   80.5864  220.3743 H   0  0  0  0  0  0  0  0  0  0  0  0
  142.8660   81.5868  222.6011 H   0  0  0  0  0  0  0  0  0  0  0  0
  142.3725   80.4182  224.6842 H   0  0  0  0  0  0  0  0  0  0  0  0
  141.3241   78.1276  224.6423 H   0  0  0  0  0  0  0  0  0  0  0  0
  140.7929   76.1944  223.2479 H   0  0  0  0  0  0  0  0  0  0  0  0
  139.5915   76.8970  222.0868 H   0  0  0  0  0  0  0  0  0  0  0  0
  140.7769   72.7833  225.0068 H   0  0  0  0  0  0  0  0  0  0  0  0
  141.5092   71.3935  224.2139 H   0  0  0  0  0  0  0  0  0  0  0  0
  138.7250   71.2079  225.5333 H   0  0  0  0  0  0  0  0  0  0  0  0
  140.1899   70.9643  226.5010 H   0  0  0  0  0  0  0  0  0  0  0  0
  1  2  1  0
  2  3  2  0
  2  4  2  0
  2  5  1  0
  5  6  1  0
  6  7  1  0
  7  8  1  0
  8  9  1  0
  9 10  1  0
 10 11  1  0
 11 12  2  0
 12 13  1  0
 13 14  1  0
 14 15  1  0
 15 16  1  0
 16 17  1  0
 17 18  2  0
 18 19  1  0
 19 20  2  0
 20 21  1  0
 21 22  2  0
 22 23  1  0
 13 24  2  0
 24 25  1  0
 25 26  1  0
 26 27  1  0
 27 28  1  0
 28 29  1  0
 29 30  2  0
 30 31  1  0
 31 32  2  0
 32 33  1  0
 33 34  2  0
 34 35  1  0
 25 36  2  0
 10 37  1  0
 37 38  1  0
 38  7  1  0
 36 11  1  0
 23 14  1  0
 35 26  1  0
 22 17  1  0
 34 29  1  0
  1 39  1  0
  1 40  1  0
  5 41  1  0
  5 42  1  0
  6 43  1  0
  6 44  1  0
  7 45  1  6
  8 46  1  0
  8 47  1  0
  9 48  1  0
  9 49  1  0
 10 50  1  1
 15 51  1  0
 15 52  1  0
 16 53  1  0
 16 54  1  0
 18 55  1  0
 19 56  1  0
 20 57  1  0
 21 58  1  0
 23 59  1  0
 23 60  1  0
 27 61  1  0
 27 62  1  0
 28 63  1  0
 28 64  1  0
 30 65  1  0
 31 66  1  0
 32 67  1  0
 33 68  1  0
 35 69  1  0
 35 70  1  0
 37 71  1  0
 37 72  1  0
 38 73  1  0
 38 74  1  0
M  END
>  <smiles>  (19) 
NS(=O)(=O)CC[C@H]1CC[C@H](c2nc(N3CCc4ccccc4C3)nc(N3CCc4ccccc4C3)n2)CC1

>  <score_type>  (19) 
oracle

>  <origin>  (19) 
autodockgpu

>  <m_score__min__energy>  (19) 
-10.08

>  <m_primary>  (19) 
energy

>  <rmsd>  (19) 
9.526913081419679

>  <m_score__min__rmsd>  (19) 
9.526913081419679

>  <meeko>  (19) 
{"free_energy": -9.67, "intermolecular_energy": -11.76, "internal_energy": -1.42, "cluster_size": 2, "cluster_id": 3, "rank_in_cluster": 1}

>  <energy>  (19) 
-9.18

>  <cluster_rmsd>  (19) 
1.11

>  <cluster>  (19) 
2

$$$$

     RDKit          3D

 74 79  0  0  0  0  0  0  0  0999 V2000
  146.3120   73.2000  218.4740 N   0  0  0  0  0  0  0  0  0  0  0  0
  145.3630   72.5210  219.7460 S   0  0  0  0  0  0  0  0  0  0  0  0
  145.8450   73.0020  221.0710 O   0  0  0  0  0  0  0  0  0  0  0  0
  145.4980   71.0340  219.6400 O   0  0  0  0  0  0  0  0  0  0  0  0
  143.6500   73.0170  219.5290 C   0  0  0  0  0  0  0  0  0  0  0  0
  142.7660   72.0900  220.3130 C   0  0  0  0  0  0  0  0  0  0  0  0
  141.7330   72.8220  221.1400 C   0  0  1  0  0  0  0  0  0  0  0  0
  141.1930   74.0540  220.4970 C   0  0  0  0  0  0  0  0  0  0  0  0
  139.7280   73.9590  220.1460 C   0  0  0  0  0  0  0  0  0  0  0  0
  138.8470   73.5080  221.2600 C   0  0  2  0  0  0  0  0  0  0  0  0
  138.1260   74.6180  221.9550 C   0  0  0  0  0  0  0  0  0  0  0  0
  136.9850   74.4080  222.6520 N   0  0  0  0  0  0  0  0  0  0  0  0
  136.3970   75.4730  223.2490 C   0  0  0  0  0  0  0  0  0  0  0  0
  135.1990   75.2170  223.9770 N   0  0  0  0  0  0  0  0  0  0  0  0
  134.2190   76.2670  224.0980 C   0  0  0  0  0  0  0  0  0  0  0  0
  133.9420   76.4690  225.5720 C   0  0  0  0  0  0  0  0  0  0  0  0
  133.4880   75.1650  226.1170 C   0  0  0  0  0  0  0  0  0  0  0  0
  132.5320   75.1760  227.1250 C   0  0  0  0  0  0  0  0  0  0  0  0
  132.1130   73.9520  227.6300 C   0  0  0  0  0  0  0  0  0  0  0  0
  132.6110   72.7550  227.1650 C   0  0  0  0  0  0  0  0  0  0  0  0
  133.5560   72.8060  226.1660 C   0  0  0  0  0  0  0  0  0  0  0  0
  134.0110   73.9910  225.6250 C   0  0  0  0  0  0  0  0  0  0  0  0
  135.0290   73.9220  224.5550 C   0  0  0  0  0  0  0  0  0  0  0  0
  136.9320   76.7060  223.1500 N   0  0  0  0  0  0  0  0  0  0  0  0
  138.0660   76.9230  222.4600 C   0  0  0  0  0  0  0  0  0  0  0  0
  138.6580   78.2080  222.3340 N   0  0  0  0  0  0  0  0  0  0  0  0
  138.6360   78.8970  221.0610 C   0  0  0  0  0  0  0  0  0  0  0  0
  138.7230   80.3850  221.3760 C   0  0  0  0  0  0  0  0  0  0  0  0
  140.0580   80.5930  222.0150 C   0  0  0  0  0  0  0  0  0  0  0  0
  140.9580   81.5390  221.5500 C   0  0  0  0  0  0  0  0  0  0  0  0
  142.1570   81.6250  222.2360 C   0  0  0  0  0  0  0  0  0  0  0  0
  142.4640   80.8360  223.3110 C   0  0  0  0  0  0  0  0  0  0  0  0
  141.5480   79.8830  223.7750 C   0  0  0  0  0  0  0  0  0  0  0  0
  140.3410   79.7800  223.1020 C   0  0  0  0  0  0  0  0  0  0  0  0
  139.2810   78.8110  223.4910 C   0  0  0  0  0  0  0  0  0  0  0  0
  138.6280   75.8450  221.8770 N   0  0  0  0  0  0  0  0  0  0  0  0
  139.6510   72.8150  222.3670 C   0  0  0  0  0  0  0  0  0  0  0  0
  140.6360   71.9230  221.6160 C   0  0  0  0  0  0  0  0  0  0  0  0
  145.9950   74.1970  218.3580 H   0  0  0  0  0  0  0  0  0  0  0  0
  145.9710   72.7240  217.5900 H   0  0  0  0  0  0  0  0  0  0  0  0
  143.5163   74.0471  219.8909 H   0  0  0  0  0  0  0  0  0  0  0  0
  143.3831   72.9697  218.4629 H   0  0  0  0  0  0  0  0  0  0  0  0
  142.2449   71.4236  219.6099 H   0  0  0  0  0  0  0  0  0  0  0  0
  143.4087   71.5296  221.0079 H   0  0  0  0  0  0  0  0  0  0  0  0
  142.2861   73.1689  222.0253 H   0  0  0  0  0  0  0  0  0  0  0  0
  141.7605   74.2419  219.5736 H   0  0  0  0  0  0  0  0  0  0  0  0
  141.2981   74.8712  221.2257 H   0  0  0  0  0  0  0  0  0  0  0  0
  139.6207   73.2465  219.3148 H   0  0  0  0  0  0  0  0  0  0  0  0
  139.4044   74.9782  219.8882 H   0  0  0  0  0  0  0  0  0  0  0  0
  138.1308   72.8369  220.7633 H   0  0  0  0  0  0  0  0  0  0  0  0
  134.6099   77.1969  223.6592 H   0  0  0  0  0  0  0  0  0  0  0  0
  133.2954   75.9957  223.5657 H   0  0  0  0  0  0  0  0  0  0  0  0
  134.8584   76.7938  226.0865 H   0  0  0  0  0  0  0  0  0  0  0  0
  133.1749   77.2429  225.7223 H   0  0  0  0  0  0  0  0  0  0  0  0
  132.1213   76.1212  227.5097 H   0  0  0  0  0  0  0  0  0  0  0  0
  131.3572   73.9380  228.4291 H   0  0  0  0  0  0  0  0  0  0  0  0
  132.2664   71.7948  227.5765 H   0  0  0  0  0  0  0  0  0  0  0  0
  133.9667   71.8606  225.7819 H   0  0  0  0  0  0  0  0  0  0  0  0
  135.9849   73.5813  224.9794 H   0  0  0  0  0  0  0  0  0  0  0  0
  134.6997   73.2143  223.7799 H   0  0  0  0  0  0  0  0  0  0  0  0
  139.4939   78.5875  220.4460 H   0  0  0  0  0  0  0  0  0  0  0  0
  137.7221   78.6617  220.4958 H   0  0  0  0  0  0  0  0  0  0  0  0
  138.6452   80.9766  220.4519 H   0  0  0  0  0  0  0  0  0  0  0  0
  137.9050   80.7054  222.0380 H   0  0  0  0  0  0  0  0  0  0  0  0
  140.7327   82.1830  220.6872 H   0  0  0  0  0  0  0  0  0  0  0  0
  142.8996   82.3639  221.9005 H   0  0  0  0  0  0  0  0  0  0  0  0
  143.4356   80.9507  223.8138 H   0  0  0  0  0  0  0  0  0  0  0  0
  141.7777   79.2421  224.6390 H   0  0  0  0  0  0  0  0  0  0  0  0
  139.7309   78.0187  224.1073 H   0  0  0  0  0  0  0  0  0  0  0  0
  138.5076   79.3555  224.0526 H   0  0  0  0  0  0  0  0  0  0  0  0
  138.9913   72.2128  223.0089 H   0  0  0  0  0  0  0  0  0  0  0  0
  140.1556   73.5319  223.0314 H   0  0  0  0  0  0  0  0  0  0  0  0
  140.1391   71.4417  220.7607 H   0  0  0  0  0  0  0  0  0  0  0  0
  141.0254   71.1225  222.2622 H   0  0  0  0  0  0  0  0  0  0  0  0
  1  2  1  0
  2  3  2  0
  2  4  2  0
  2  5  1  0
  5  6  1  0
  6  7  1  0
  7  8  1  0
  8  9  1  0
  9 10  1  0
 10 11  1  0
 11 12  2  0
 12 13  1  0
 13 14  1  0
 14 15  1  0
 15 16  1  0
 16 17  1  0
 17 18  2  0
 18 19  1  0
 19 20  2  0
 20 21  1  0
 21 22  2  0
 22 23  1  0
 13 24  2  0
 24 25  1  0
 25 26  1  0
 26 27  1  0
 27 28  1  0
 28 29  1  0
 29 30  2  0
 30 31  1  0
 31 32  2  0
 32 33  1  0
 33 34  2  0
 34 35  1  0
 25 36  2  0
 10 37  1  0
 37 38  1  0
 38  7  1  0
 36 11  1  0
 23 14  1  0
 35 26  1  0
 22 17  1  0
 34 29  1  0
  1 39  1  0
  1 40  1  0
  5 41  1  0
  5 42  1  0
  6 43  1  0
  6 44  1  0
  7 45  1  1
  8 46  1  0
  8 47  1  0
  9 48  1  0
  9 49  1  0
 10 50  1  6
 15 51  1  0
 15 52  1  0
 16 53  1  0
 16 54  1  0
 18 55  1  0
 19 56  1  0
 20 57  1  0
 21 58  1  0
 23 59  1  0
 23 60  1  0
 27 61  1  0
 27 62  1  0
 28 63  1  0
 28 64  1  0
 30 65  1  0
 31 66  1  0
 32 67  1  0
 33 68  1  0
 35 69  1  0
 35 70  1  0
 37 71  1  0
 37 72  1  0
 38 73  1  0
 38 74  1  0
M  END
>  <smiles>  (20) 
NS(=O)(=O)CC[C@H]1CC[C@H](c2nc(N3CCc4ccccc4C3)nc(N3CCc4ccccc4C3)n2)CC1

>  <score_type>  (20) 
oracle

>  <origin>  (20) 
autodockgpu

>  <m_score__min__energy>  (20) 
-10.08

>  <m_primary>  (20) 
energy

>  <rmsd>  (20) 
11.27732342167754

>  <m_score__min__rmsd>  (20) 
11.27732342167754

>  <meeko>  (20) 
{"free_energy": -8.99, "intermolecular_energy": -11.07, "internal_energy": -1.34, "cluster_size": 24, "cluster_id": 2, "rank_in_cluster": 19}

>  <energy>  (20) 
-9.17

>  <cluster_rmsd>  (20) 
1.45

>  <cluster>  (20) 
2

$$$$

     RDKit          3D

 74 79  0  0  0  0  0  0  0  0999 V2000
  142.2330   77.8690  220.7860 N   0  0  0  0  0  0  0  0  0  0  0  0
  142.5680   77.1880  219.2350 S   0  0  0  0  0  0  0  0  0  0  0  0
  143.8680   76.4590  219.2550 O   0  0  0  0  0  0  0  0  0  0  0  0
  142.6120   78.3250  218.2630 O   0  0  0  0  0  0  0  0  0  0  0  0
  141.2570   76.0380  218.8050 C   0  0  0  0  0  0  0  0  0  0  0  0
  141.7470   74.6330  219.0140 C   0  0  0  0  0  0  0  0  0  0  0  0
  140.8660   73.8370  219.9490 C   0  0  1  0  0  0  0  0  0  0  0  0
  140.3440   74.6120  221.1110 C   0  0  0  0  0  0  0  0  0  0  0  0
  138.8460   74.7980  221.0900 C   0  0  0  0  0  0  0  0  0  0  0  0
  138.0650   73.5450  220.8910 C   0  0  2  0  0  0  0  0  0  0  0  0
  137.5040   72.9690  222.1510 C   0  0  0  0  0  0  0  0  0  0  0  0
  136.3450   73.4150  222.6920 N   0  0  0  0  0  0  0  0  0  0  0  0
  135.9130   72.8360  223.8380 C   0  0  0  0  0  0  0  0  0  0  0  0
  134.6890   73.3260  224.3790 N   0  0  0  0  0  0  0  0  0  0  0  0
  134.1120   74.5240  223.8230 C   0  0  0  0  0  0  0  0  0  0  0  0
  133.9000   75.5020  224.9600 C   0  0  0  0  0  0  0  0  0  0  0  0
  133.0330   74.8330  225.9600 C   0  0  0  0  0  0  0  0  0  0  0  0
  132.1230   75.6130  226.6620 C   0  0  0  0  0  0  0  0  0  0  0  0
  131.3150   74.9790  227.5970 C   0  0  0  0  0  0  0  0  0  0  0  0
  131.3930   73.6250  227.8390 C   0  0  0  0  0  0  0  0  0  0  0  0
  132.3130   72.9030  227.1140 C   0  0  0  0  0  0  0  0  0  0  0  0
  133.1420   73.4770  226.1720 C   0  0  0  0  0  0  0  0  0  0  0  0
  134.0910   72.6000  225.4550 C   0  0  0  0  0  0  0  0  0  0  0  0
  136.6150   71.8470  224.4240 N   0  0  0  0  0  0  0  0  0  0  0  0
  137.7670   71.3970  223.8930 C   0  0  0  0  0  0  0  0  0  0  0  0
  138.5340   70.3580  224.4820 N   0  0  0  0  0  0  0  0  0  0  0  0
  137.9990   69.0150  224.5610 C   0  0  0  0  0  0  0  0  0  0  0  0
  139.1980   68.0760  224.6080 C   0  0  0  0  0  0  0  0  0  0  0  0
  139.9140   68.3860  225.8830 C   0  0  0  0  0  0  0  0  0  0  0  0
  140.2260   67.4050  226.8100 C   0  0  0  0  0  0  0  0  0  0  0  0
  140.8900   67.8330  227.9470 C   0  0  0  0  0  0  0  0  0  0  0  0
  141.2310   69.1400  228.1680 C   0  0  0  0  0  0  0  0  0  0  0  0
  140.9110   70.1250  227.2250 C   0  0  0  0  0  0  0  0  0  0  0  0
  140.2460   69.7180  226.0800 C   0  0  0  0  0  0  0  0  0  0  0  0
  139.8500   70.6610  225.0000 C   0  0  0  0  0  0  0  0  0  0  0  0
  138.1720   71.9920  222.7530 N   0  0  0  0  0  0  0  0  0  0  0  0
  138.9370   72.4250  220.3080 C   0  0  0  0  0  0  0  0  0  0  0  0
  139.7680   73.1170  219.2310 C   0  0  0  0  0  0  0  0  0  0  0  0
  143.1360   78.2800  221.1380 H   0  0  0  0  0  0  0  0  0  0  0  0
  142.0690   77.0380  221.4230 H   0  0  0  0  0  0  0  0  0  0  0  0
  140.3814   76.2217  219.4449 H   0  0  0  0  0  0  0  0  0  0  0  0
  140.9719   76.1781  217.7519 H   0  0  0  0  0  0  0  0  0  0  0  0
  141.7766   74.1228  218.0399 H   0  0  0  0  0  0  0  0  0  0  0  0
  142.7446   74.6957  219.4731 H   0  0  0  0  0  0  0  0  0  0  0  0
  141.5379   73.0786  220.3772 H   0  0  0  0  0  0  0  0  0  0  0  0
  140.8177   75.6048  221.1078 H   0  0  0  0  0  0  0  0  0  0  0  0
  140.5847   74.0363  222.0169 H   0  0  0  0  0  0  0  0  0  0  0  0
  138.5982   75.4897  220.2713 H   0  0  0  0  0  0  0  0  0  0  0  0
  138.5672   75.1832  222.0819 H   0  0  0  0  0  0  0  0  0  0  0  0
  137.2537   73.8552  220.2161 H   0  0  0  0  0  0  0  0  0  0  0  0
  134.7948   74.9579  223.0777 H   0  0  0  0  0  0  0  0  0  0  0  0
  133.1573   74.2976  223.3258 H   0  0  0  0  0  0  0  0  0  0  0  0
  134.8661   75.7654  225.4153 H   0  0  0  0  0  0  0  0  0  0  0  0
  133.4316   76.4281  224.5954 H   0  0  0  0  0  0  0  0  0  0  0  0
  132.0449   76.6956  226.4836 H   0  0  0  0  0  0  0  0  0  0  0  0
  130.5877   75.5787  228.1639 H   0  0  0  0  0  0  0  0  0  0  0  0
  130.7446   73.1397  228.5833 H   0  0  0  0  0  0  0  0  0  0  0  0
  132.3911   71.8205  227.2932 H   0  0  0  0  0  0  0  0  0  0  0  0
  134.8742   72.2617  226.1493 H   0  0  0  0  0  0  0  0  0  0  0  0
  133.5541   71.7271  225.0553 H   0  0  0  0  0  0  0  0  0  0  0  0
  137.3906   68.9008  225.4703 H   0  0  0  0  0  0  0  0  0  0  0  0
  137.3518   68.7924  223.6998 H   0  0  0  0  0  0  0  0  0  0  0  0
  138.8634   67.0281  224.6026 H   0  0  0  0  0  0  0  0  0  0  0  0
  139.8523   68.2138  223.7346 H   0  0  0  0  0  0  0  0  0  0  0  0
  139.9619   66.3489  226.6521 H   0  0  0  0  0  0  0  0  0  0  0  0
  141.1564   67.0865  228.7097 H   0  0  0  0  0  0  0  0  0  0  0  0
  141.7595   69.4185  229.0916 H   0  0  0  0  0  0  0  0  0  0  0  0
  141.1772   71.1799  227.3872 H   0  0  0  0  0  0  0  0  0  0  0  0
  139.8475   71.6844  225.4033 H   0  0  0  0  0  0  0  0  0  0  0  0
  140.5735   70.5637  224.1771 H   0  0  0  0  0  0  0  0  0  0  0  0
  138.3123   71.6329  219.8694 H   0  0  0  0  0  0  0  0  0  0  0  0
  139.5606   71.9369  221.0715 H   0  0  0  0  0  0  0  0  0  0  0  0
  139.1469   73.8309  218.6701 H   0  0  0  0  0  0  0  0  0  0  0  0
  140.1700   72.3924  218.5076 H   0  0  0  0  0  0  0  0  0  0  0  0
  1  2  1  0
  2  3  2  0
  2  4  2  0
  2  5  1  0
  5  6  1  0
  6  7  1  0
  7  8  1  0
  8  9  1  0
  9 10  1  0
 10 11  1  0
 11 12  2  0
 12 13  1  0
 13 14  1  0
 14 15  1  0
 15 16  1  0
 16 17  1  0
 17 18  2  0
 18 19  1  0
 19 20  2  0
 20 21  1  0
 21 22  2  0
 22 23  1  0
 13 24  2  0
 24 25  1  0
 25 26  1  0
 26 27  1  0
 27 28  1  0
 28 29  1  0
 29 30  2  0
 30 31  1  0
 31 32  2  0
 32 33  1  0
 33 34  2  0
 34 35  1  0
 25 36  2  0
 10 37  1  0
 37 38  1  0
 38  7  1  0
 36 11  1  0
 23 14  1  0
 35 26  1  0
 22 17  1  0
 34 29  1  0
  1 39  1  0
  1 40  1  0
  5 41  1  0
  5 42  1  0
  6 43  1  0
  6 44  1  0
  7 45  1  1
  8 46  1  0
  8 47  1  0
  9 48  1  0
  9 49  1  0
 10 50  1  6
 15 51  1  0
 15 52  1  0
 16 53  1  0
 16 54  1  0
 18 55  1  0
 19 56  1  0
 20 57  1  0
 21 58  1  0
 23 59  1  0
 23 60  1  0
 27 61  1  0
 27 62  1  0
 28 63  1  0
 28 64  1  0
 30 65  1  0
 31 66  1  0
 32 67  1  0
 33 68  1  0
 35 69  1  0
 35 70  1  0
 37 71  1  0
 37 72  1  0
 38 73  1  0
 38 74  1  0
M  END
>  <smiles>  (21) 
NS(=O)(=O)CC[C@H]1CC[C@H](c2nc(N3CCc4ccccc4C3)nc(N3CCc4ccccc4C3)n2)CC1

>  <score_type>  (21) 
oracle

>  <origin>  (21) 
autodockgpu

>  <m_score__min__energy>  (21) 
-10.08

>  <m_primary>  (21) 
energy

>  <rmsd>  (21) 
11.880185058025205

>  <m_score__min__rmsd>  (21) 
11.880185058025205

>  <meeko>  (21) 
{"free_energy": -8.22, "intermolecular_energy": -10.31, "internal_energy": -1.42, "cluster_size": 2, "cluster_id": 11, "rank_in_cluster": 1}

>  <energy>  (21) 
-9.16

>  <cluster_rmsd>  (21) 
1.29

>  <cluster>  (21) 
2

$$$$

     RDKit          3D

 74 79  0  0  0  0  0  0  0  0999 V2000
  146.5570   66.6140  219.3250 N   0  0  0  0  0  0  0  0  0  0  0  0
  145.7310   68.1300  219.3030 S   0  0  0  0  0  0  0  0  0  0  0  0
  146.6990   69.2540  219.4360 O   0  0  0  0  0  0  0  0  0  0  0  0
  144.7720   68.1160  220.4520 O   0  0  0  0  0  0  0  0  0  0  0  0
  144.8500   68.2960  217.7460 C   0  0  0  0  0  0  0  0  0  0  0  0
  144.7300   69.7530  217.4020 C   0  0  0  0  0  0  0  0  0  0  0  0
  143.6650   70.4610  218.2080 C   0  0  1  0  0  0  0  0  0  0  0  0
  144.1810   71.1890  219.4030 C   0  0  0  0  0  0  0  0  0  0  0  0
  144.0240   72.6880  219.3100 C   0  0  0  0  0  0  0  0  0  0  0  0
  142.6540   73.1510  218.9540 C   0  0  2  0  0  0  0  0  0  0  0  0
  141.8420   73.6100  220.1210 C   0  0  0  0  0  0  0  0  0  0  0  0
  141.6000   74.9210  220.3590 N   0  0  0  0  0  0  0  0  0  0  0  0
  140.8550   75.2460  221.4430 C   0  0  0  0  0  0  0  0  0  0  0  0
  140.6170   76.6330  221.6630 N   0  0  0  0  0  0  0  0  0  0  0  0
  139.9210   77.3890  220.6530 C   0  0  0  0  0  0  0  0  0  0  0  0
  140.7910   78.5720  220.2830 C   0  0  0  0  0  0  0  0  0  0  0  0
  141.0460   79.3370  221.5280 C   0  0  0  0  0  0  0  0  0  0  0  0
  141.1430   80.7200  221.4370 C   0  0  0  0  0  0  0  0  0  0  0  0
  141.3820   81.4280  222.6070 C   0  0  0  0  0  0  0  0  0  0  0  0
  141.5220   80.8060  223.8290 C   0  0  0  0  0  0  0  0  0  0  0  0
  141.4170   79.4350  223.8580 C   0  0  0  0  0  0  0  0  0  0  0  0
  141.1800   78.6770  222.7290 C   0  0  0  0  0  0  0  0  0  0  0  0
  141.0860   77.2100  222.8830 C   0  0  0  0  0  0  0  0  0  0  0  0
  140.3700   74.2920  222.2620 N   0  0  0  0  0  0  0  0  0  0  0  0
  140.6050   72.9870  222.0330 C   0  0  0  0  0  0  0  0  0  0  0  0
  140.1100   71.9550  222.8740 N   0  0  0  0  0  0  0  0  0  0  0  0
  138.6850   71.7210  222.9770 C   0  0  0  0  0  0  0  0  0  0  0  0
  138.5160   70.2590  223.3710 C   0  0  0  0  0  0  0  0  0  0  0  0
  139.1270   70.1270  224.7300 C   0  0  0  0  0  0  0  0  0  0  0  0
  138.4340   69.5790  225.7980 C   0  0  0  0  0  0  0  0  0  0  0  0
  139.1200   69.5180  226.9980 C   0  0  0  0  0  0  0  0  0  0  0  0
  140.4050   69.9640  227.1510 C   0  0  0  0  0  0  0  0  0  0  0  0
  141.0970   70.5160  226.0650 C   0  0  0  0  0  0  0  0  0  0  0  0
  140.4290   70.5870  224.8540 C   0  0  0  0  0  0  0  0  0  0  0  0
  141.0480   71.1490  223.6240 C   0  0  0  0  0  0  0  0  0  0  0  0
  141.3490   72.6950  220.9470 N   0  0  0  0  0  0  0  0  0  0  0  0
  141.8250   72.0240  218.3240 C   0  0  0  0  0  0  0  0  0  0  0  0
  142.7930   71.3360  217.3650 C   0  0  0  0  0  0  0  0  0  0  0  0
  146.0260   65.9880  219.9830 H   0  0  0  0  0  0  0  0  0  0  0  0
  147.4670   66.8020  219.8360 H   0  0  0  0  0  0  0  0  0  0  0  0
  145.4043   67.7745  216.9518 H   0  0  0  0  0  0  0  0  0  0  0  0
  143.8473   67.8534  217.8386 H   0  0  0  0  0  0  0  0  0  0  0  0
  145.6975   70.2400  217.5940 H   0  0  0  0  0  0  0  0  0  0  0  0
  144.4417   69.8198  216.3425 H   0  0  0  0  0  0  0  0  0  0  0  0
  143.0376   69.6492  218.6047 H   0  0  0  0  0  0  0  0  0  0  0  0
  145.2503   70.9574  219.5168 H   0  0  0  0  0  0  0  0  0  0  0  0
  143.5873   70.8547  220.2665 H   0  0  0  0  0  0  0  0  0  0  0  0
  144.7205   73.0582  218.5433 H   0  0  0  0  0  0  0  0  0  0  0  0
  144.2339   73.0845  220.3143 H   0  0  0  0  0  0  0  0  0  0  0  0
  142.8397   73.9870  218.2636 H   0  0  0  0  0  0  0  0  0  0  0  0
  139.7472   76.7601  219.7674 H   0  0  0  0  0  0  0  0  0  0  0  0
  138.9460   77.7307  221.0307 H   0  0  0  0  0  0  0  0  0  0  0  0
  141.7417   78.2212  219.8551 H   0  0  0  0  0  0  0  0  0  0  0  0
  140.2923   79.2032  219.5327 H   0  0  0  0  0  0  0  0  0  0  0  0
  141.0342   81.2359  220.4716 H   0  0  0  0  0  0  0  0  0  0  0  0
  141.4625   82.5239  222.5570 H   0  0  0  0  0  0  0  0  0  0  0  0
  141.7105   81.3839  224.7458 H   0  0  0  0  0  0  0  0  0  0  0  0
  141.5268   78.9197  224.8236 H   0  0  0  0  0  0  0  0  0  0  0  0
  142.0788   76.8021  223.1239 H   0  0  0  0  0  0  0  0  0  0  0  0
  140.3846   76.9704  223.6958 H   0  0  0  0  0  0  0  0  0  0  0  0
  138.2467   72.3750  223.7452 H   0  0  0  0  0  0  0  0  0  0  0  0
  138.1756   71.9392  222.0268 H   0  0  0  0  0  0  0  0  0  0  0  0
  137.4493   69.9924  223.4036 H   0  0  0  0  0  0  0  0  0  0  0  0
  138.9971   69.5870  222.6451 H   0  0  0  0  0  0  0  0  0  0  0  0
  137.4010   69.2146  225.6976 H   0  0  0  0  0  0  0  0  0  0  0  0
  138.6075   69.0900  227.8721 H   0  0  0  0  0  0  0  0  0  0  0  0
  140.8970   69.8886  228.1319 H   0  0  0  0  0  0  0  0  0  0  0  0
  142.1302   70.8787  226.1701 H   0  0  0  0  0  0  0  0  0  0  0  0
  141.9062   71.7746  223.9106 H   0  0  0  0  0  0  0  0  0  0  0  0
  141.3667   70.3110  222.9866 H   0  0  0  0  0  0  0  0  0  0  0  0
  140.9613   72.4331  217.7793 H   0  0  0  0  0  0  0  0  0  0  0  0
  141.4148   71.3331  219.0752 H   0  0  0  0  0  0  0  0  0  0  0  0
  143.4015   72.0841  216.8357 H   0  0  0  0  0  0  0  0  0  0  0  0
  142.2553   70.7516  216.6038 H   0  0  0  0  0  0  0  0  0  0  0  0
  1  2  1  0
  2  3  2  0
  2  4  2  0
  2  5  1  0
  5  6  1  0
  6  7  1  0
  7  8  1  0
  8  9  1  0
  9 10  1  0
 10 11  1  0
 11 12  2  0
 12 13  1  0
 13 14  1  0
 14 15  1  0
 15 16  1  0
 16 17  1  0
 17 18  2  0
 18 19  1  0
 19 20  2  0
 20 21  1  0
 21 22  2  0
 22 23  1  0
 13 24  2  0
 24 25  1  0
 25 26  1  0
 26 27  1  0
 27 28  1  0
 28 29  1  0
 29 30  2  0
 30 31  1  0
 31 32  2  0
 32 33  1  0
 33 34  2  0
 34 35  1  0
 25 36  2  0
 10 37  1  0
 37 38  1  0
 38  7  1  0
 36 11  1  0
 23 14  1  0
 35 26  1  0
 22 17  1  0
 34 29  1  0
  1 39  1  0
  1 40  1  0
  5 41  1  0
  5 42  1  0
  6 43  1  0
  6 44  1  0
  7 45  1  1
  8 46  1  0
  8 47  1  0
  9 48  1  0
  9 49  1  0
 10 50  1  6
 15 51  1  0
 15 52  1  0
 16 53  1  0
 16 54  1  0
 18 55  1  0
 19 56  1  0
 20 57  1  0
 21 58  1  0
 23 59  1  0
 23 60  1  0
 27 61  1  0
 27 62  1  0
 28 63  1  0
 28 64  1  0
 30 65  1  0
 31 66  1  0
 32 67  1  0
 33 68  1  0
 35 69  1  0
 35 70  1  0
 37 71  1  0
 37 72  1  0
 38 73  1  0
 38 74  1  0
M  END
>  <smiles>  (22) 
NS(=O)(=O)CC[C@H]1CC[C@H](c2nc(N3CCc4ccccc4C3)nc(N3CCc4ccccc4C3)n2)CC1

>  <score_type>  (22) 
oracle

>  <origin>  (22) 
autodockgpu

>  <m_score__min__energy>  (22) 
-10.08

>  <m_primary>  (22) 
energy

>  <rmsd>  (22) 
4.863693512415008

>  <m_score__min__rmsd>  (22) 
4.863693512415008

>  <meeko>  (22) 
{"free_energy": -10.08, "intermolecular_energy": -12.17, "internal_energy": -1.48, "cluster_size": 5, "cluster_id": 1, "rank_in_cluster": 1}

>  <energy>  (22) 
-9.13

>  <cluster_rmsd>  (22) 
0.99

>  <cluster>  (22) 
2

$$$$

     RDKit          3D

 74 79  0  0  0  0  0  0  0  0999 V2000
  146.3420   73.4000  218.6740 N   0  0  0  0  0  0  0  0  0  0  0  0
  145.4490   72.5090  219.8530 S   0  0  0  0  0  0  0  0  0  0  0  0
  145.7950   72.9680  221.2270 O   0  0  0  0  0  0  0  0  0  0  0  0
  145.8090   71.0680  219.6690 O   0  0  0  0  0  0  0  0  0  0  0  0
  143.6930   72.7620  219.5740 C   0  0  0  0  0  0  0  0  0  0  0  0
  142.9140   71.8340  220.4620 C   0  0  0  0  0  0  0  0  0  0  0  0
  141.8080   72.5340  221.2180 C   0  0  1  0  0  0  0  0  0  0  0  0
  141.5460   73.9310  220.7690 C   0  0  0  0  0  0  0  0  0  0  0  0
  140.1880   74.1170  220.1350 C   0  0  0  0  0  0  0  0  0  0  0  0
  139.0480   73.5920  220.9370 C   0  0  2  0  0  0  0  0  0  0  0  0
  138.3110   74.6390  221.7080 C   0  0  0  0  0  0  0  0  0  0  0  0
  137.1880   74.3580  222.4110 N   0  0  0  0  0  0  0  0  0  0  0  0
  136.5840   75.3700  223.0790 C   0  0  0  0  0  0  0  0  0  0  0  0
  135.4060   75.0390  223.8100 N   0  0  0  0  0  0  0  0  0  0  0  0
  134.3630   76.0260  223.9340 C   0  0  0  0  0  0  0  0  0  0  0  0
  134.0780   76.2090  225.4100 C   0  0  0  0  0  0  0  0  0  0  0  0
  133.7080   74.8800  225.9550 C   0  0  0  0  0  0  0  0  0  0  0  0
  132.7560   74.8300  226.9660 C   0  0  0  0  0  0  0  0  0  0  0  0
  132.4150   73.5820  227.4700 C   0  0  0  0  0  0  0  0  0  0  0  0
  132.9860   72.4180  227.0030 C   0  0  0  0  0  0  0  0  0  0  0  0
  133.9230   72.5290  226.0020 C   0  0  0  0  0  0  0  0  0  0  0  0
  134.3010   73.7410  225.4610 C   0  0  0  0  0  0  0  0  0  0  0  0
  135.3180   73.7350  224.3880 C   0  0  0  0  0  0  0  0  0  0  0  0
  137.0840   76.6200  223.0440 N   0  0  0  0  0  0  0  0  0  0  0  0
  138.2000   76.9080  222.3490 C   0  0  0  0  0  0  0  0  0  0  0  0
  138.7560   78.2130  222.2900 N   0  0  0  0  0  0  0  0  0  0  0  0
  138.7130   78.9660  221.0550 C   0  0  0  0  0  0  0  0  0  0  0  0
  138.7590   80.4380  221.4450 C   0  0  0  0  0  0  0  0  0  0  0  0
  140.0890   80.6500  222.0950 C   0  0  0  0  0  0  0  0  0  0  0  0
  140.9610   81.6430  221.6790 C   0  0  0  0  0  0  0  0  0  0  0  0
  142.1580   81.7270  222.3690 C   0  0  0  0  0  0  0  0  0  0  0  0
  142.4880   80.8930  223.4030 C   0  0  0  0  0  0  0  0  0  0  0  0
  141.5990   79.8920  223.8160 C   0  0  0  0  0  0  0  0  0  0  0  0
  140.3950   79.7900  223.1380 C   0  0  0  0  0  0  0  0  0  0  0  0
  139.3630   78.7740  223.4770 C   0  0  0  0  0  0  0  0  0  0  0  0
  138.7790   75.8810  221.6950 N   0  0  0  0  0  0  0  0  0  0  0  0
  139.5210   72.5900  221.9980 C   0  0  0  0  0  0  0  0  0  0  0  0
  140.5490   71.7270  221.2710 C   0  0  0  0  0  0  0  0  0  0  0  0
  146.9590   74.0680  219.2030 H   0  0  0  0  0  0  0  0  0  0  0  0
  145.6290   74.0310  218.2080 H   0  0  0  0  0  0  0  0  0  0  0  0
  143.4293   73.8038  219.8088 H   0  0  0  0  0  0  0  0  0  0  0  0
  143.4522   72.5552  218.5208 H   0  0  0  0  0  0  0  0  0  0  0  0
  142.4683   71.0442  219.8395 H   0  0  0  0  0  0  0  0  0  0  0  0
  143.6134   71.4235  221.2052 H   0  0  0  0  0  0  0  0  0  0  0  0
  142.1909   72.6214  222.2455 H   0  0  0  0  0  0  0  0  0  0  0  0
  142.3146   74.2098  220.0331 H   0  0  0  0  0  0  0  0  0  0  0  0
  141.5741   74.5687  221.6649 H   0  0  0  0  0  0  0  0  0  0  0  0
  140.1899   73.6005  219.1638 H   0  0  0  0  0  0  0  0  0  0  0  0
  140.0323   75.2025  220.0484 H   0  0  0  0  0  0  0  0  0  0  0  0
  138.3909   73.1394  220.1798 H   0  0  0  0  0  0  0  0  0  0  0  0
  134.6942   76.9787  223.4951 H   0  0  0  0  0  0  0  0  0  0  0  0
  133.4567   75.6986  223.4035 H   0  0  0  0  0  0  0  0  0  0  0  0
  134.9739   76.5899  225.9221 H   0  0  0  0  0  0  0  0  0  0  0  0
  133.2644   76.9333  225.5630 H   0  0  0  0  0  0  0  0  0  0  0  0
  132.2888   75.7473  227.3536 H   0  0  0  0  0  0  0  0  0  0  0  0
  131.6627   73.5202  228.2701 H   0  0  0  0  0  0  0  0  0  0  0  0
  132.7034   71.4379  227.4148 H   0  0  0  0  0  0  0  0  0  0  0  0
  134.3914   71.6117  225.6159 H   0  0  0  0  0  0  0  0  0  0  0  0
  136.2944   73.4537  224.8094 H   0  0  0  0  0  0  0  0  0  0  0  0
  135.0307   73.0085  223.6136 H   0  0  0  0  0  0  0  0  0  0  0  0
  139.5782   78.7125  220.4248 H   0  0  0  0  0  0  0  0  0  0  0  0
  137.8047   78.7349  220.4792 H   0  0  0  0  0  0  0  0  0  0  0  0
  138.6643   81.0733  220.5520 H   0  0  0  0  0  0  0  0  0  0  0  0
  137.9329   80.7019  222.1217 H   0  0  0  0  0  0  0  0  0  0  0  0
  140.7168   82.3237  220.8502 H   0  0  0  0  0  0  0  0  0  0  0  0
  142.8796   82.5022  222.0717 H   0  0  0  0  0  0  0  0  0  0  0  0
  143.4561   81.0093  223.9123 H   0  0  0  0  0  0  0  0  0  0  0  0
  141.8471   79.2138  224.6458 H   0  0  0  0  0  0  0  0  0  0  0  0
  139.8351   77.9644  224.0529 H   0  0  0  0  0  0  0  0  0  0  0  0
  138.5752   79.2676  224.0650 H   0  0  0  0  0  0  0  0  0  0  0  0
  138.6811   71.9767  222.3564 H   0  0  0  0  0  0  0  0  0  0  0  0
  139.9410   73.0853  222.8858 H   0  0  0  0  0  0  0  0  0  0  0  0
  140.2013   71.4954  220.2534 H   0  0  0  0  0  0  0  0  0  0  0  0
  140.7076   70.7698  221.7894 H   0  0  0  0  0  0  0  0  0  0  0  0
  1  2  1  0
  2  3  2  0
  2  4  2  0
  2  5  1  0
  5  6  1  0
  6  7  1  0
  7  8  1  0
  8  9  1  0
  9 10  1  0
 10 11  1  0
 11 12  2  0
 12 13  1  0
 13 14  1  0
 14 15  1  0
 15 16  1  0
 16 17  1  0
 17 18  2  0
 18 19  1  0
 19 20  2  0
 20 21  1  0
 21 22  2  0
 22 23  1  0
 13 24  2  0
 24 25  1  0
 25 26  1  0
 26 27  1  0
 27 28  1  0
 28 29  1  0
 29 30  2  0
 30 31  1  0
 31 32  2  0
 32 33  1  0
 33 34  2  0
 34 35  1  0
 25 36  2  0
 10 37  1  0
 37 38  1  0
 38  7  1  0
 36 11  1  0
 23 14  1  0
 35 26  1  0
 22 17  1  0
 34 29  1  0
  1 39  1  0
  1 40  1  0
  5 41  1  0
  5 42  1  0
  6 43  1  0
  6 44  1  0
  7 45  1  1
  8 46  1  0
  8 47  1  0
  9 48  1  0
  9 49  1  0
 10 50  1  6
 15 51  1  0
 15 52  1  0
 16 53  1  0
 16 54  1  0
 18 55  1  0
 19 56  1  0
 20 57  1  0
 21 58  1  0
 23 59  1  0
 23 60  1  0
 27 61  1  0
 27 62  1  0
 28 63  1  0
 28 64  1  0
 30 65  1  0
 31 66  1  0
 32 67  1  0
 33 68  1  0
 35 69  1  0
 35 70  1  0
 37 71  1  0
 37 72  1  0
 38 73  1  0
 38 74  1  0
M  END
>  <smiles>  (23) 
NS(=O)(=O)CC[C@H]1CC[C@H](c2nc(N3CCc4ccccc4C3)nc(N3CCc4ccccc4C3)n2)CC1

>  <score_type>  (23) 
oracle

>  <origin>  (23) 
autodockgpu

>  <m_score__min__energy>  (23) 
-10.08

>  <m_primary>  (23) 
energy

>  <rmsd>  (23) 
11.119441614930992

>  <m_score__min__rmsd>  (23) 
11.119441614930992

>  <meeko>  (23) 
{"free_energy": -9.5, "intermolecular_energy": -11.59, "internal_energy": -1.35, "cluster_size": 24, "cluster_id": 2, "rank_in_cluster": 2}

>  <energy>  (23) 
-9.03

>  <cluster_rmsd>  (23) 
0.8

>  <cluster>  (23) 
2

$$$$

     RDKit          3D

 74 79  0  0  0  0  0  0  0  0999 V2000
  145.0740   72.4990  221.1340 N   0  0  0  0  0  0  0  0  0  0  0  0
  145.4800   72.4000  219.4590 S   0  0  0  0  0  0  0  0  0  0  0  0
  145.9640   71.0320  219.1190 O   0  0  0  0  0  0  0  0  0  0  0  0
  146.5490   73.4180  219.2120 O   0  0  0  0  0  0  0  0  0  0  0  0
  144.0200   72.7650  218.4780 C   0  0  0  0  0  0  0  0  0  0  0  0
  142.8560   71.9840  219.0190 C   0  0  0  0  0  0  0  0  0  0  0  0
  141.9980   72.7900  219.9680 C   0  0  1  0  0  0  0  0  0  0  0  0
  140.9320   73.5920  219.3020 C   0  0  0  0  0  0  0  0  0  0  0  0
  139.5330   73.1350  219.6400 C   0  0  0  0  0  0  0  0  0  0  0  0
  139.2600   72.9910  221.0970 C   0  0  2  0  0  0  0  0  0  0  0  0
  138.5230   74.1450  221.6980 C   0  0  0  0  0  0  0  0  0  0  0  0
  137.3510   73.9860  222.3560 N   0  0  0  0  0  0  0  0  0  0  0  0
  136.7510   75.0890  222.8660 C   0  0  0  0  0  0  0  0  0  0  0  0
  135.5210   74.8860  223.5540 N   0  0  0  0  0  0  0  0  0  0  0  0
  134.5580   75.9580  223.5910 C   0  0  0  0  0  0  0  0  0  0  0  0
  134.2260   76.2270  225.0440 C   0  0  0  0  0  0  0  0  0  0  0  0
  133.7250   74.9570  225.6230 C   0  0  0  0  0  0  0  0  0  0  0  0
  132.7300   75.0280  226.5900 C   0  0  0  0  0  0  0  0  0  0  0  0
  132.2650   73.8340  227.1270 C   0  0  0  0  0  0  0  0  0  0  0  0
  132.7580   72.6090  226.7330 C   0  0  0  0  0  0  0  0  0  0  0  0
  133.7420   72.6000  225.7720 C   0  0  0  0  0  0  0  0  0  0  0  0
  134.2430   73.7530  225.2020 C   0  0  0  0  0  0  0  0  0  0  0  0
  135.3010   73.6200  224.1780 C   0  0  0  0  0  0  0  0  0  0  0  0
  137.3050   76.3090  222.7220 N   0  0  0  0  0  0  0  0  0  0  0  0
  138.4710   76.4750  222.0700 C   0  0  0  0  0  0  0  0  0  0  0  0
  139.0830   77.7450  221.8980 N   0  0  0  0  0  0  0  0  0  0  0  0
  139.4600   78.1980  220.5760 C   0  0  0  0  0  0  0  0  0  0  0  0
  139.4580   79.7210  220.6260 C   0  0  0  0  0  0  0  0  0  0  0  0
  140.5340   80.1020  221.5920 C   0  0  0  0  0  0  0  0  0  0  0  0
  141.5410   80.9940  221.2580 C   0  0  0  0  0  0  0  0  0  0  0  0
  142.4710   81.2560  222.2490 C   0  0  0  0  0  0  0  0  0  0  0  0
  142.4250   80.6850  223.4920 C   0  0  0  0  0  0  0  0  0  0  0  0
  141.4020   79.7850  223.8200 C   0  0  0  0  0  0  0  0  0  0  0  0
  140.4610   79.5070  222.8420 C   0  0  0  0  0  0  0  0  0  0  0  0
  139.3250   78.5720  223.0600 C   0  0  0  0  0  0  0  0  0  0  0  0
  139.0430   75.3600  221.5740 N   0  0  0  0  0  0  0  0  0  0  0  0
  140.5590   72.8980  221.9070 C   0  0  0  0  0  0  0  0  0  0  0  0
  141.4480   71.9650  221.0880 C   0  0  0  0  0  0  0  0  0  0  0  0
  145.9550   72.2970  221.6720 H   0  0  0  0  0  0  0  0  0  0  0  0
  144.4650   71.6520  221.3210 H   0  0  0  0  0  0  0  0  0  0  0  0
  143.7989   73.8411  218.5330 H   0  0  0  0  0  0  0  0  0  0  0  0
  144.1987   72.4850  217.4294 H   0  0  0  0  0  0  0  0  0  0  0  0
  142.2319   71.6542  218.1754 H   0  0  0  0  0  0  0  0  0  0  0  0
  143.2632   71.1324  219.5838 H   0  0  0  0  0  0  0  0  0  0  0  0
  142.6902   73.5245  220.4054 H   0  0  0  0  0  0  0  0  0  0  0  0
  141.0691   73.5169  218.2132 H   0  0  0  0  0  0  0  0  0  0  0  0
  141.0308   74.6256  219.6652 H   0  0  0  0  0  0  0  0  0  0  0  0
  139.3669   72.1582  219.1621 H   0  0  0  0  0  0  0  0  0  0  0  0
  138.8533   73.9179  219.2726 H   0  0  0  0  0  0  0  0  0  0  0  0
  138.6514   72.0763  221.1516 H   0  0  0  0  0  0  0  0  0  0  0  0
  134.9847   76.8613  223.1305 H   0  0  0  0  0  0  0  0  0  0  0  0
  133.6513   75.6816  223.0329 H   0  0  0  0  0  0  0  0  0  0  0  0
  135.1274   76.5563  225.5816 H   0  0  0  0  0  0  0  0  0  0  0  0
  133.4691   77.0204  225.1306 H   0  0  0  0  0  0  0  0  0  0  0  0
  132.3244   75.9961  226.9191 H   0  0  0  0  0  0  0  0  0  0  0  0
  131.4762   73.8677  227.8930 H   0  0  0  0  0  0  0  0  0  0  0  0
  132.3789   71.6737  227.1705 H   0  0  0  0  0  0  0  0  0  0  0  0
  134.1474   71.6317  225.4434 H   0  0  0  0  0  0  0  0  0  0  0  0
  136.2320   73.2793  224.6547 H   0  0  0  0  0  0  0  0  0  0  0  0
  134.9878   72.8869  223.4200 H   0  0  0  0  0  0  0  0  0  0  0  0
  140.4631   77.8272  220.3185 H   0  0  0  0  0  0  0  0  0  0  0  0
  138.7627   77.8233  219.8122 H   0  0  0  0  0  0  0  0  0  0  0  0
  139.6731   80.1366  219.6305 H   0  0  0  0  0  0  0  0  0  0  0  0
  138.4787   80.1130  220.9378 H   0  0  0  0  0  0  0  0  0  0  0  0
  141.5976   81.4651  220.2656 H   0  0  0  0  0  0  0  0  0  0  0  0
  143.2879   81.9582  222.0265 H   0  0  0  0  0  0  0  0  0  0  0  0
  143.1948   80.9337  224.2373 H   0  0  0  0  0  0  0  0  0  0  0  0
  141.3483   79.3179  224.8145 H   0  0  0  0  0  0  0  0  0  0  0  0
  139.5567   77.9231  223.9175 H   0  0  0  0  0  0  0  0  0  0  0  0
  138.4209   79.1689  223.2507 H   0  0  0  0  0  0  0  0  0  0  0  0
  140.3668   72.4768  222.9048 H   0  0  0  0  0  0  0  0  0  0  0  0
  141.0223   73.8818  222.0729 H   0  0  0  0  0  0  0  0  0  0  0  0
  140.8569   71.1271  220.6899 H   0  0  0  0  0  0  0  0  0  0  0  0
  142.2529   71.5359  221.7028 H   0  0  0  0  0  0  0  0  0  0  0  0
  1  2  1  0
  2  3  2  0
  2  4  2  0
  2  5  1  0
  5  6  1  0
  6  7  1  0
  7  8  1  0
  8  9  1  0
  9 10  1  0
 10 11  1  0
 11 12  2  0
 12 13  1  0
 13 14  1  0
 14 15  1  0
 15 16  1  0
 16 17  1  0
 17 18  2  0
 18 19  1  0
 19 20  2  0
 20 21  1  0
 21 22  2  0
 22 23  1  0
 13 24  2  0
 24 25  1  0
 25 26  1  0
 26 27  1  0
 27 28  1  0
 28 29  1  0
 29 30  2  0
 30 31  1  0
 31 32  2  0
 32 33  1  0
 33 34  2  0
 34 35  1  0
 25 36  2  0
 10 37  1  0
 37 38  1  0
 38  7  1  0
 36 11  1  0
 23 14  1  0
 35 26  1  0
 22 17  1  0
 34 29  1  0
  1 39  1  0
  1 40  1  0
  5 41  1  0
  5 42  1  0
  6 43  1  0
  6 44  1  0
  7 45  1  1
  8 46  1  0
  8 47  1  0
  9 48  1  0
  9 49  1  0
 10 50  1  6
 15 51  1  0
 15 52  1  0
 16 53  1  0
 16 54  1  0
 18 55  1  0
 19 56  1  0
 20 57  1  0
 21 58  1  0
 23 59  1  0
 23 60  1  0
 27 61  1  0
 27 62  1  0
 28 63  1  0
 28 64  1  0
 30 65  1  0
 31 66  1  0
 32 67  1  0
 33 68  1  0
 35 69  1  0
 35 70  1  0
 37 71  1  0
 37 72  1  0
 38 73  1  0
 38 74  1  0
M  END
>  <smiles>  (24) 
NS(=O)(=O)CC[C@H]1CC[C@H](c2nc(N3CCc4ccccc4C3)nc(N3CCc4ccccc4C3)n2)CC1

>  <score_type>  (24) 
oracle

>  <origin>  (24) 
autodockgpu

>  <m_score__min__energy>  (24) 
-10.08

>  <m_primary>  (24) 
energy

>  <rmsd>  (24) 
10.963893467134055

>  <m_score__min__rmsd>  (24) 
10.963893467134055

>  <meeko>  (24) 
{"free_energy": -8.71, "intermolecular_energy": -10.8, "internal_energy": -1.4, "cluster_size": 24, "cluster_id": 2, "rank_in_cluster": 22}

>  <energy>  (24) 
-8.99

>  <cluster_rmsd>  (24) 
0.82

>  <cluster>  (24) 
2

$$$$

     RDKit          3D

 74 79  0  0  0  0  0  0  0  0999 V2000
  146.1940   74.0820  220.2080 N   0  0  0  0  0  0  0  0  0  0  0  0
  145.5810   72.8940  219.1140 S   0  0  0  0  0  0  0  0  0  0  0  0
  146.0110   71.5300  219.5300 O   0  0  0  0  0  0  0  0  0  0  0  0
  146.1230   73.2320  217.7610 O   0  0  0  0  0  0  0  0  0  0  0  0
  143.7860   72.9690  219.1140 C   0  0  0  0  0  0  0  0  0  0  0  0
  143.2590   72.1450  220.2550 C   0  0  0  0  0  0  0  0  0  0  0  0
  142.2160   72.8740  221.0710 C   0  0  1  0  0  0  0  0  0  0  0  0
  141.7810   74.1770  220.4920 C   0  0  0  0  0  0  0  0  0  0  0  0
  140.3380   74.1890  220.0480 C   0  0  0  0  0  0  0  0  0  0  0  0
  139.3670   73.7100  221.0720 C   0  0  2  0  0  0  0  0  0  0  0  0
  138.6620   74.8060  221.8040 C   0  0  0  0  0  0  0  0  0  0  0  0
  137.4650   74.6140  222.4080 N   0  0  0  0  0  0  0  0  0  0  0  0
  136.8980   75.6650  223.0480 C   0  0  0  0  0  0  0  0  0  0  0  0
  135.6410   75.4280  223.6750 N   0  0  0  0  0  0  0  0  0  0  0  0
  134.6250   76.4480  223.6100 C   0  0  0  0  0  0  0  0  0  0  0  0
  134.1970   76.7610  225.0280 C   0  0  0  0  0  0  0  0  0  0  0  0
  133.7270   75.4920  225.6360 C   0  0  0  0  0  0  0  0  0  0  0  0
  132.6750   75.5520  226.5420 C   0  0  0  0  0  0  0  0  0  0  0  0
  132.2410   74.3590  227.1050 C   0  0  0  0  0  0  0  0  0  0  0  0
  132.8150   73.1460  226.7950 C   0  0  0  0  0  0  0  0  0  0  0  0
  133.8530   73.1480  225.8920 C   0  0  0  0  0  0  0  0  0  0  0  0
  134.3280   74.3000  225.2990 C   0  0  0  0  0  0  0  0  0  0  0  0
  135.4480   74.1790  224.3430 C   0  0  0  0  0  0  0  0  0  0  0  0
  137.5040   76.8670  223.0800 N   0  0  0  0  0  0  0  0  0  0  0  0
  138.6940   77.0670  222.4820 C   0  0  0  0  0  0  0  0  0  0  0  0
  139.3620   78.3200  222.4960 N   0  0  0  0  0  0  0  0  0  0  0  0
  138.7320   79.4740  223.1010 C   0  0  0  0  0  0  0  0  0  0  0  0
  139.8590   80.4030  223.5330 C   0  0  0  0  0  0  0  0  0  0  0  0
  140.5450   80.8310  222.2760 C   0  0  0  0  0  0  0  0  0  0  0  0
  140.7510   82.1660  221.9660 C   0  0  0  0  0  0  0  0  0  0  0  0
  141.3990   82.4180  220.7700 C   0  0  0  0  0  0  0  0  0  0  0  0
  141.8220   81.4300  219.9220 C   0  0  0  0  0  0  0  0  0  0  0  0
  141.6090   80.0830  220.2440 C   0  0  0  0  0  0  0  0  0  0  0  0
  140.9610   79.8080  221.4370 C   0  0  0  0  0  0  0  0  0  0  0  0
  140.6750   78.4230  221.8970 C   0  0  0  0  0  0  0  0  0  0  0  0
  139.2340   76.0030  221.8550 N   0  0  0  0  0  0  0  0  0  0  0  0
  140.0630   72.8960  222.1700 C   0  0  0  0  0  0  0  0  0  0  0  0
  141.0460   72.0060  221.4140 C   0  0  0  0  0  0  0  0  0  0  0  0
  145.5340   74.9000  220.1680 H   0  0  0  0  0  0  0  0  0  0  0  0
  147.0780   74.4480  219.7500 H   0  0  0  0  0  0  0  0  0  0  0  0
  143.4610   74.0132  219.2329 H   0  0  0  0  0  0  0  0  0  0  0  0
  143.3988   72.5750  218.1628 H   0  0  0  0  0  0  0  0  0  0  0  0
  142.8087   71.2278  219.8476 H   0  0  0  0  0  0  0  0  0  0  0  0
  144.1053   71.9226  220.9216 H   0  0  0  0  0  0  0  0  0  0  0  0
  142.7310   73.1266  222.0096 H   0  0  0  0  0  0  0  0  0  0  0  0
  142.4148   74.3995  219.6209 H   0  0  0  0  0  0  0  0  0  0  0  0
  141.8808   74.9322  221.2855 H   0  0  0  0  0  0  0  0  0  0  0  0
  140.2470   73.5441  219.1615 H   0  0  0  0  0  0  0  0  0  0  0  0
  140.0838   75.2401  219.8468 H   0  0  0  0  0  0  0  0  0  0  0  0
  138.6499   73.1170  220.4853 H   0  0  0  0  0  0  0  0  0  0  0  0
  135.0314   77.3520  223.1330 H   0  0  0  0  0  0  0  0  0  0  0  0
  133.7669   76.1003  223.0160 H   0  0  0  0  0  0  0  0  0  0  0  0
  135.0484   77.1596  225.5991 H   0  0  0  0  0  0  0  0  0  0  0  0
  133.3978   77.5168  225.0362 H   0  0  0  0  0  0  0  0  0  0  0  0
  132.2028   76.5104  226.8039 H   0  0  0  0  0  0  0  0  0  0  0  0
  131.4091   74.3837  227.8242 H   0  0  0  0  0  0  0  0  0  0  0  0
  132.4573   72.2115  227.2519 H   0  0  0  0  0  0  0  0  0  0  0  0
  134.3250   72.1892  225.6313 H   0  0  0  0  0  0  0  0  0  0  0  0
  136.3656   73.9077  224.8856 H   0  0  0  0  0  0  0  0  0  0  0  0
  135.2158   73.3992  223.6028 H   0  0  0  0  0  0  0  0  0  0  0  0
  138.0818   79.9786  222.3712 H   0  0  0  0  0  0  0  0  0  0  0  0
  138.1053   79.1829  223.9569 H   0  0  0  0  0  0  0  0  0  0  0  0
  139.4520   81.2769  224.0629 H   0  0  0  0  0  0  0  0  0  0  0  0
  140.5548   79.8997  224.2204 H   0  0  0  0  0  0  0  0  0  0  0  0
  140.4191   82.9768  222.6312 H   0  0  0  0  0  0  0  0  0  0  0  0
  141.5836   83.4646  220.4862 H   0  0  0  0  0  0  0  0  0  0  0  0
  142.3314   81.6947  218.9837 H   0  0  0  0  0  0  0  0  0  0  0  0
  141.9432   79.2757  219.5757 H   0  0  0  0  0  0  0  0  0  0  0  0
  140.7280   77.7425  221.0344 H   0  0  0  0  0  0  0  0  0  0  0  0
  141.4219   78.1526  222.6579 H   0  0  0  0  0  0  0  0  0  0  0  0
  139.3340   72.2875  222.7253 H   0  0  0  0  0  0  0  0  0  0  0  0
  140.5611   73.5344  222.9146 H   0  0  0  0  0  0  0  0  0  0  0  0
  140.5796   71.6151  220.4977 H   0  0  0  0  0  0  0  0  0  0  0  0
  141.3525   71.1413  222.0209 H   0  0  0  0  0  0  0  0  0  0  0  0
  1  2  1  0
  2  3  2  0
  2  4  2  0
  2  5  1  0
  5  6  1  0
  6  7  1  0
  7  8  1  0
  8  9  1  0
  9 10  1  0
 10 11  1  0
 11 12  2  0
 12 13  1  0
 13 14  1  0
 14 15  1  0
 15 16  1  0
 16 17  1  0
 17 18  2  0
 18 19  1  0
 19 20  2  0
 20 21  1  0
 21 22  2  0
 22 23  1  0
 13 24  2  0
 24 25  1  0
 25 26  1  0
 26 27  1  0
 27 28  1  0
 28 29  1  0
 29 30  2  0
 30 31  1  0
 31 32  2  0
 32 33  1  0
 33 34  2  0
 34 35  1  0
 25 36  2  0
 10 37  1  0
 37 38  1  0
 38  7  1  0
 36 11  1  0
 23 14  1  0
 35 26  1  0
 22 17  1  0
 34 29  1  0
  1 39  1  0
  1 40  1  0
  5 41  1  0
  5 42  1  0
  6 43  1  0
  6 44  1  0
  7 45  1  1
  8 46  1  0
  8 47  1  0
  9 48  1  0
  9 49  1  0
 10 50  1  6
 15 51  1  0
 15 52  1  0
 16 53  1  0
 16 54  1  0
 18 55  1  0
 19 56  1  0
 20 57  1  0
 21 58  1  0
 23 59  1  0
 23 60  1  0
 27 61  1  0
 27 62  1  0
 28 63  1  0
 28 64  1  0
 30 65  1  0
 31 66  1  0
 32 67  1  0
 33 68  1  0
 35 69  1  0
 35 70  1  0
 37 71  1  0
 37 72  1  0
 38 73  1  0
 38 74  1  0
M  END
>  <smiles>  (25) 
NS(=O)(=O)CC[C@H]1CC[C@H](c2nc(N3CCc4ccccc4C3)nc(N3CCc4ccccc4C3)n2)CC1

>  <score_type>  (25) 
oracle

>  <origin>  (25) 
autodockgpu

>  <m_score__min__energy>  (25) 
-10.08

>  <m_primary>  (25) 
energy

>  <rmsd>  (25) 
10.757564206857365

>  <m_score__min__rmsd>  (25) 
10.757564206857365

>  <meeko>  (25) 
{"free_energy": -9.16, "intermolecular_energy": -11.24, "internal_energy": -1.4, "cluster_size": 24, "cluster_id": 2, "rank_in_cluster": 16}

>  <energy>  (25) 
-8.91

>  <cluster_rmsd>  (25) 
1.11

>  <cluster>  (25) 
2

$$$$

     RDKit          3D

 74 79  0  0  0  0  0  0  0  0999 V2000
  146.3250   67.1950  219.5690 N   0  0  0  0  0  0  0  0  0  0  0  0
  145.9690   67.8470  218.0100 S   0  0  0  0  0  0  0  0  0  0  0  0
  146.7310   67.1240  216.9540 O   0  0  0  0  0  0  0  0  0  0  0  0
  146.3550   69.2930  218.0480 O   0  0  0  0  0  0  0  0  0  0  0  0
  144.2100   67.6710  217.6890 C   0  0  0  0  0  0  0  0  0  0  0  0
  143.5500   67.0530  218.8900 C   0  0  0  0  0  0  0  0  0  0  0  0
  142.7480   68.0490  219.6960 C   0  0  1  0  0  0  0  0  0  0  0  0
  143.5040   69.2710  220.0930 C   0  0  0  0  0  0  0  0  0  0  0  0
  142.9890   70.5350  219.4480 C   0  0  0  0  0  0  0  0  0  0  0  0
  141.5210   70.7500  219.5820 C   0  0  2  0  0  0  0  0  0  0  0  0
  141.1410   71.7060  220.6660 C   0  0  0  0  0  0  0  0  0  0  0  0
  141.0460   73.0390  220.4500 N   0  0  0  0  0  0  0  0  0  0  0  0
  140.6970   73.8320  221.4920 C   0  0  0  0  0  0  0  0  0  0  0  0
  140.6050   75.2290  221.2290 N   0  0  0  0  0  0  0  0  0  0  0  0
  140.7200   75.6910  219.8690 C   0  0  0  0  0  0  0  0  0  0  0  0
  141.8250   76.7250  219.8260 C   0  0  0  0  0  0  0  0  0  0  0  0
  141.4640   77.7940  220.7900 C   0  0  0  0  0  0  0  0  0  0  0  0
  141.8170   79.1010  220.4770 C   0  0  0  0  0  0  0  0  0  0  0  0
  141.4750   80.0960  221.3840 C   0  0  0  0  0  0  0  0  0  0  0  0
  140.8110   79.8240  222.5600 C   0  0  0  0  0  0  0  0  0  0  0  0
  140.4880   78.5110  222.8160 C   0  0  0  0  0  0  0  0  0  0  0  0
  140.8000   77.4800  221.9540 C   0  0  0  0  0  0  0  0  0  0  0  0
  140.4020   76.1090  222.3360 C   0  0  0  0  0  0  0  0  0  0  0  0
  140.4510   73.3090  222.7090 N   0  0  0  0  0  0  0  0  0  0  0  0
  140.5420   71.9850  222.9330 C   0  0  0  0  0  0  0  0  0  0  0  0
  140.2910   71.3990  224.2020 N   0  0  0  0  0  0  0  0  0  0  0  0
  141.0830   71.7840  225.3500 C   0  0  0  0  0  0  0  0  0  0  0  0
  140.2160   71.5290  226.5770 C   0  0  0  0  0  0  0  0  0  0  0  0
  139.9890   70.0520  226.6200 C   0  0  0  0  0  0  0  0  0  0  0  0
  140.2640   69.2980  227.7490 C   0  0  0  0  0  0  0  0  0  0  0  0
  140.0060   67.9410  227.6500 C   0  0  0  0  0  0  0  0  0  0  0  0
  139.5110   67.3530  226.5180 C   0  0  0  0  0  0  0  0  0  0  0  0
  139.2350   68.1240  225.3810 C   0  0  0  0  0  0  0  0  0  0  0  0
  139.4870   69.4850  225.4590 C   0  0  0  0  0  0  0  0  0  0  0  0
  139.2380   70.4160  224.3260 C   0  0  0  0  0  0  0  0  0  0  0  0
  140.8910   71.2230  221.8770 N   0  0  0  0  0  0  0  0  0  0  0  0
  140.7930   69.4490  219.9400 C   0  0  0  0  0  0  0  0  0  0  0  0
  141.4440   68.3940  219.0490 C   0  0  0  0  0  0  0  0  0  0  0  0
  147.0340   67.8360  220.0110 H   0  0  0  0  0  0  0  0  0  0  0  0
  146.8730   66.3080  219.3780 H   0  0  0  0  0  0  0  0  0  0  0  0
  143.7701   68.6605  217.4954 H   0  0  0  0  0  0  0  0  0  0  0  0
  144.0564   67.0279  216.8099 H   0  0  0  0  0  0  0  0  0  0  0  0
  142.8759   66.2538  218.5481 H   0  0  0  0  0  0  0  0  0  0  0  0
  144.3464   66.6646  219.5419 H   0  0  0  0  0  0  0  0  0  0  0  0
  142.5249   67.5230  220.6360 H   0  0  0  0  0  0  0  0  0  0  0  0
  144.5572   69.1375  219.8050 H   0  0  0  0  0  0  0  0  0  0  0  0
  143.3798   69.3890  221.1796 H   0  0  0  0  0  0  0  0  0  0  0  0
  143.2330   70.4964  218.3761 H   0  0  0  0  0  0  0  0  0  0  0  0
  143.4741   71.3710  219.9730 H   0  0  0  0  0  0  0  0  0  0  0  0
  141.2310   71.1495  218.5990 H   0  0  0  0  0  0  0  0  0  0  0  0
  140.9692   74.8486  219.2070 H   0  0  0  0  0  0  0  0  0  0  0  0
  139.7697   76.1284  219.5290 H   0  0  0  0  0  0  0  0  0  0  0  0
  142.7822   76.2657  220.1137 H   0  0  0  0  0  0  0  0  0  0  0  0
  141.9361   77.1355  218.8115 H   0  0  0  0  0  0  0  0  0  0  0  0
  142.3485   79.3393  219.5439 H   0  0  0  0  0  0  0  0  0  0  0  0
  141.7438   81.1378  221.1552 H   0  0  0  0  0  0  0  0  0  0  0  0
  140.5492   80.6251  223.2669 H   0  0  0  0  0  0  0  0  0  0  0  0
  139.9573   78.2729  223.7496 H   0  0  0  0  0  0  0  0  0  0  0  0
  141.0121   75.7738  223.1877 H   0  0  0  0  0  0  0  0  0  0  0  0
  139.3396   76.1013  222.6209 H   0  0  0  0  0  0  0  0  0  0  0  0
  141.9999   71.1784  225.3998 H   0  0  0  0  0  0  0  0  0  0  0  0
  141.3863   72.8396  225.2889 H   0  0  0  0  0  0  0  0  0  0  0  0
  140.7347   71.8629  227.4878 H   0  0  0  0  0  0  0  0  0  0  0  0
  139.2665   72.0816  226.5219 H   0  0  0  0  0  0  0  0  0  0  0  0
  140.6633   69.7500  228.6689 H   0  0  0  0  0  0  0  0  0  0  0  0
  140.2089   67.3048  228.5241 H   0  0  0  0  0  0  0  0  0  0  0  0
  139.3286   66.2684  226.5004 H   0  0  0  0  0  0  0  0  0  0  0  0
  138.8346   67.6678  224.4636 H   0  0  0  0  0  0  0  0  0  0  0  0
  139.1802   69.8355  223.3934 H   0  0  0  0  0  0  0  0  0  0  0  0
  138.2938   70.9465  224.5185 H   0  0  0  0  0  0  0  0  0  0  0  0
  139.7177   69.5320  219.7235 H   0  0  0  0  0  0  0  0  0  0  0  0
  140.8734   69.2033  221.0092 H   0  0  0  0  0  0  0  0  0  0  0  0
  141.6139   68.7988  218.0404 H   0  0  0  0  0  0  0  0  0  0  0  0
  140.8020   67.5071  218.9428 H   0  0  0  0  0  0  0  0  0  0  0  0
  1  2  1  0
  2  3  2  0
  2  4  2  0
  2  5  1  0
  5  6  1  0
  6  7  1  0
  7  8  1  0
  8  9  1  0
  9 10  1  0
 10 11  1  0
 11 12  2  0
 12 13  1  0
 13 14  1  0
 14 15  1  0
 15 16  1  0
 16 17  1  0
 17 18  2  0
 18 19  1  0
 19 20  2  0
 20 21  1  0
 21 22  2  0
 22 23  1  0
 13 24  2  0
 24 25  1  0
 25 26  1  0
 26 27  1  0
 27 28  1  0
 28 29  1  0
 29 30  2  0
 30 31  1  0
 31 32  2  0
 32 33  1  0
 33 34  2  0
 34 35  1  0
 25 36  2  0
 10 37  1  0
 37 38  1  0
 38  7  1  0
 36 11  1  0
 23 14  1  0
 35 26  1  0
 22 17  1  0
 34 29  1  0
  1 39  1  0
  1 40  1  0
  5 41  1  0
  5 42  1  0
  6 43  1  0
  6 44  1  0
  7 45  1  1
  8 46  1  0
  8 47  1  0
  9 48  1  0
  9 49  1  0
 10 50  1  6
 15 51  1  0
 15 52  1  0
 16 53  1  0
 16 54  1  0
 18 55  1  0
 19 56  1  0
 20 57  1  0
 21 58  1  0
 23 59  1  0
 23 60  1  0
 27 61  1  0
 27 62  1  0
 28 63  1  0
 28 64  1  0
 30 65  1  0
 31 66  1  0
 32 67  1  0
 33 68  1  0
 35 69  1  0
 35 70  1  0
 37 71  1  0
 37 72  1  0
 38 73  1  0
 38 74  1  0
M  END
>  <smiles>  (26) 
NS(=O)(=O)CC[C@H]1CC[C@H](c2nc(N3CCc4ccccc4C3)nc(N3CCc4ccccc4C3)n2)CC1

>  <score_type>  (26) 
oracle

>  <origin>  (26) 
autodockgpu

>  <m_score__min__energy>  (26) 
-10.08

>  <m_primary>  (26) 
energy

>  <rmsd>  (26) 
4.163952054762531

>  <m_score__min__rmsd>  (26) 
4.163952054762531

>  <meeko>  (26) 
{"free_energy": -9.49, "intermolecular_energy": -11.58, "internal_energy": -1.55, "cluster_size": 5, "cluster_id": 1, "rank_in_cluster": 2}

>  <energy>  (26) 
-8.79

>  <cluster_rmsd>  (26) 
1.07

>  <cluster>  (26) 
2

$$$$

     RDKit          3D

 74 79  0  0  0  0  0  0  0  0999 V2000
  145.5510   72.7200  221.6660 N   0  0  0  0  0  0  0  0  0  0  0  0
  145.1760   73.3980  220.1230 S   0  0  0  0  0  0  0  0  0  0  0  0
  146.3750   73.3780  219.2390 O   0  0  0  0  0  0  0  0  0  0  0  0
  144.7210   74.8030  220.3680 O   0  0  0  0  0  0  0  0  0  0  0  0
  143.8680   72.4320  219.3600 C   0  0  0  0  0  0  0  0  0  0  0  0
  143.1670   71.6300  220.4190 C   0  0  0  0  0  0  0  0  0  0  0  0
  142.1570   72.4420  221.1980 C   0  0  1  0  0  0  0  0  0  0  0  0
  141.8360   73.7670  220.5940 C   0  0  0  0  0  0  0  0  0  0  0  0
  140.4110   73.8810  220.1080 C   0  0  0  0  0  0  0  0  0  0  0  0
  139.3790   73.4860  221.1070 C   0  0  2  0  0  0  0  0  0  0  0  0
  138.7360   74.6390  221.8080 C   0  0  0  0  0  0  0  0  0  0  0  0
  137.5110   74.5420  222.3780 N   0  0  0  0  0  0  0  0  0  0  0  0
  137.0040   75.6390  222.9900 C   0  0  0  0  0  0  0  0  0  0  0  0
  135.7150   75.5020  223.5810 N   0  0  0  0  0  0  0  0  0  0  0  0
  134.7280   76.5260  223.3460 C   0  0  0  0  0  0  0  0  0  0  0  0
  134.2450   77.0150  224.6950 C   0  0  0  0  0  0  0  0  0  0  0  0
  133.7170   75.8370  225.4270 C   0  0  0  0  0  0  0  0  0  0  0  0
  132.6270   76.0250  226.2680 C   0  0  0  0  0  0  0  0  0  0  0  0
  132.1390   74.9180  226.9490 C   0  0  0  0  0  0  0  0  0  0  0  0
  132.6980   73.6660  226.8130 C   0  0  0  0  0  0  0  0  0  0  0  0
  133.7750   73.5400  225.9670 C   0  0  0  0  0  0  0  0  0  0  0  0
  134.3030   74.6030  225.2640 C   0  0  0  0  0  0  0  0  0  0  0  0
  135.4630   74.3470  224.3830 C   0  0  0  0  0  0  0  0  0  0  0  0
  137.6980   76.7940  223.0310 N   0  0  0  0  0  0  0  0  0  0  0  0
  138.9160   76.8980  222.4690 C   0  0  0  0  0  0  0  0  0  0  0  0
  139.6750   78.0980  222.4920 N   0  0  0  0  0  0  0  0  0  0  0  0
  139.3900   79.1200  223.4760 C   0  0  0  0  0  0  0  0  0  0  0  0
  140.6830   79.9010  223.6740 C   0  0  0  0  0  0  0  0  0  0  0  0
  140.9700   80.5590  222.3630 C   0  0  0  0  0  0  0  0  0  0  0  0
  141.1990   81.9220  222.2580 C   0  0  0  0  0  0  0  0  0  0  0  0
  141.4520   82.3980  220.9830 C   0  0  0  0  0  0  0  0  0  0  0  0
  141.4800   81.5960  219.8750 C   0  0  0  0  0  0  0  0  0  0  0  0
  141.2480   80.2190  219.9910 C   0  0  0  0  0  0  0  0  0  0  0  0
  140.9920   79.7210  221.2580 C   0  0  0  0  0  0  0  0  0  0  0  0
  140.7310   78.2810  221.5200 C   0  0  0  0  0  0  0  0  0  0  0  0
  139.3930   75.7900  221.8670 N   0  0  0  0  0  0  0  0  0  0  0  0
  139.9810   72.6350  222.2330 C   0  0  0  0  0  0  0  0  0  0  0  0
  140.9170   71.6670  221.5140 C   0  0  0  0  0  0  0  0  0  0  0  0
  146.4920   72.2580  221.5740 H   0  0  0  0  0  0  0  0  0  0  0  0
  144.8810   71.9060  221.7800 H   0  0  0  0  0  0  0  0  0  0  0  0
  143.1487   73.1064  218.8723 H   0  0  0  0  0  0  0  0  0  0  0  0
  144.2983   71.7553  218.6071 H   0  0  0  0  0  0  0  0  0  0  0  0
  142.6455   70.7904  219.9362 H   0  0  0  0  0  0  0  0  0  0  0  0
  143.9307   71.2820  221.1301 H   0  0  0  0  0  0  0  0  0  0  0  0
  142.6618   72.6654  222.1495 H   0  0  0  0  0  0  0  0  0  0  0  0
  142.5090   73.9318  219.7396 H   0  0  0  0  0  0  0  0  0  0  0  0
  141.9688   74.5217  221.3832 H   0  0  0  0  0  0  0  0  0  0  0  0
  140.2976   73.2353  219.2247 H   0  0  0  0  0  0  0  0  0  0  0  0
  140.2412   74.9458  219.8905 H   0  0  0  0  0  0  0  0  0  0  0  0
  138.6377   72.9405  220.5046 H   0  0  0  0  0  0  0  0  0  0  0  0
  135.1774   77.3582  222.7843 H   0  0  0  0  0  0  0  0  0  0  0  0
  133.8893   76.1261  222.7573 H   0  0  0  0  0  0  0  0  0  0  0  0
  135.0797   77.4628  225.2542 H   0  0  0  0  0  0  0  0  0  0  0  0
  133.4651   77.7815  224.5755 H   0  0  0  0  0  0  0  0  0  0  0  0
  132.1667   77.0166  226.3900 H   0  0  0  0  0  0  0  0  0  0  0  0
  131.2767   75.0447  227.6201 H   0  0  0  0  0  0  0  0  0  0  0  0
  132.2979   72.7998  227.3605 H   0  0  0  0  0  0  0  0  0  0  0  0
  134.2354   72.5484  225.8456 H   0  0  0  0  0  0  0  0  0  0  0  0
  136.3485   74.1266  224.9972 H   0  0  0  0  0  0  0  0  0  0  0  0
  135.2463   73.4878  223.7312 H   0  0  0  0  0  0  0  0  0  0  0  0
  138.5948   79.7872  223.1119 H   0  0  0  0  0  0  0  0  0  0  0  0
  139.0437   78.6770  224.4214 H   0  0  0  0  0  0  0  0  0  0  0  0
  140.5558   80.6578  224.4621 H   0  0  0  0  0  0  0  0  0  0  0  0
  141.5082   79.2432  223.9845 H   0  0  0  0  0  0  0  0  0  0  0  0
  141.1808   82.5856  223.1351 H   0  0  0  0  0  0  0  0  0  0  0  0
  141.6398   83.4742  220.8544 H   0  0  0  0  0  0  0  0  0  0  0  0
  141.6858   82.0346  218.8875 H   0  0  0  0  0  0  0  0  0  0  0  0
  141.2684   79.5596  219.1108 H   0  0  0  0  0  0  0  0  0  0  0  0
  140.4371   77.7946  220.5782 H   0  0  0  0  0  0  0  0  0  0  0  0
  141.6510   77.8331  221.9239 H   0  0  0  0  0  0  0  0  0  0  0  0
  139.1934   72.0879  222.7718 H   0  0  0  0  0  0  0  0  0  0  0  0
  140.5029   73.2430  222.9866 H   0  0  0  0  0  0  0  0  0  0  0  0
  140.4494   71.3016  220.5878 H   0  0  0  0  0  0  0  0  0  0  0  0
  141.1413   70.7889  222.1375 H   0  0  0  0  0  0  0  0  0  0  0  0
  1  2  1  0
  2  3  2  0
  2  4  2  0
  2  5  1  0
  5  6  1  0
  6  7  1  0
  7  8  1  0
  8  9  1  0
  9 10  1  0
 10 11  1  0
 11 12  2  0
 12 13  1  0
 13 14  1  0
 14 15  1  0
 15 16  1  0
 16 17  1  0
 17 18  2  0
 18 19  1  0
 19 20  2  0
 20 21  1  0
 21 22  2  0
 22 23  1  0
 13 24  2  0
 24 25  1  0
 25 26  1  0
 26 27  1  0
 27 28  1  0
 28 29  1  0
 29 30  2  0
 30 31  1  0
 31 32  2  0
 32 33  1  0
 33 34  2  0
 34 35  1  0
 25 36  2  0
 10 37  1  0
 37 38  1  0
 38  7  1  0
 36 11  1  0
 23 14  1  0
 35 26  1  0
 22 17  1  0
 34 29  1  0
  1 39  1  0
  1 40  1  0
  5 41  1  0
  5 42  1  0
  6 43  1  0
  6 44  1  0
  7 45  1  1
  8 46  1  0
  8 47  1  0
  9 48  1  0
  9 49  1  0
 10 50  1  6
 15 51  1  0
 15 52  1  0
 16 53  1  0
 16 54  1  0
 18 55  1  0
 19 56  1  0
 20 57  1  0
 21 58  1  0
 23 59  1  0
 23 60  1  0
 27 61  1  0
 27 62  1  0
 28 63  1  0
 28 64  1  0
 30 65  1  0
 31 66  1  0
 32 67  1  0
 33 68  1  0
 35 69  1  0
 35 70  1  0
 37 71  1  0
 37 72  1  0
 38 73  1  0
 38 74  1  0
M  END
>  <smiles>  (27) 
NS(=O)(=O)CC[C@H]1CC[C@H](c2nc(N3CCc4ccccc4C3)nc(N3CCc4ccccc4C3)n2)CC1

>  <score_type>  (27) 
oracle

>  <origin>  (27) 
autodockgpu

>  <m_score__min__energy>  (27) 
-10.08

>  <m_primary>  (27) 
energy

>  <rmsd>  (27) 
10.589915829186412

>  <m_score__min__rmsd>  (27) 
10.589915829186412

>  <meeko>  (27) 
{"free_energy": -9.41, "intermolecular_energy": -11.5, "internal_energy": -1.46, "cluster_size": 24, "cluster_id": 2, "rank_in_cluster": 7}

>  <energy>  (27) 
-8.71

>  <cluster_rmsd>  (27) 
1.42

>  <cluster>  (27) 
2

$$$$

     RDKit          3D

 74 79  0  0  0  0  0  0  0  0999 V2000
  143.4190   80.1730  222.7670 N   0  0  0  0  0  0  0  0  0  0  0  0
  141.9240   81.0250  222.9010 S   0  0  0  0  0  0  0  0  0  0  0  0
  141.8570   82.1250  221.8980 O   0  0  0  0  0  0  0  0  0  0  0  0
  141.8600   81.5710  224.2930 O   0  0  0  0  0  0  0  0  0  0  0  0
  140.5690   79.8820  222.6070 C   0  0  0  0  0  0  0  0  0  0  0  0
  140.6240   79.4110  221.1820 C   0  0  0  0  0  0  0  0  0  0  0  0
  140.9140   77.9320  221.0630 C   0  0  1  0  0  0  0  0  0  0  0  0
  140.8850   77.1930  222.3580 C   0  0  0  0  0  0  0  0  0  0  0  0
  139.7650   76.1860  222.4540 C   0  0  0  0  0  0  0  0  0  0  0  0
  139.6720   75.2460  221.3020 C   0  0  2  0  0  0  0  0  0  0  0  0
  140.2720   73.9020  221.5610 C   0  0  0  0  0  0  0  0  0  0  0  0
  140.0050   73.1990  222.6870 N   0  0  0  0  0  0  0  0  0  0  0  0
  140.5960   71.9890  222.8390 C   0  0  0  0  0  0  0  0  0  0  0  0
  140.2920   71.2760  224.0340 N   0  0  0  0  0  0  0  0  0  0  0  0
  140.5830   71.8900  225.3060 C   0  0  0  0  0  0  0  0  0  0  0  0
  141.4560   70.9320  226.0880 C   0  0  0  0  0  0  0  0  0  0  0  0
  140.7130   69.6520  226.2020 C   0  0  0  0  0  0  0  0  0  0  0  0
  140.8630   68.9100  227.3670 C   0  0  0  0  0  0  0  0  0  0  0  0
  140.1640   67.7140  227.4650 C   0  0  0  0  0  0  0  0  0  0  0  0
  139.3450   67.2560  226.4570 C   0  0  0  0  0  0  0  0  0  0  0  0
  139.2350   68.0320  225.3260 C   0  0  0  0  0  0  0  0  0  0  0  0
  139.9040   69.2300  225.1720 C   0  0  0  0  0  0  0  0  0  0  0  0
  139.7080   69.9780  223.9120 C   0  0  0  0  0  0  0  0  0  0  0  0
  141.4260   71.4990  221.8980 N   0  0  0  0  0  0  0  0  0  0  0  0
  141.6960   72.1900  220.7750 C   0  0  0  0  0  0  0  0  0  0  0  0
  142.5660   71.7060  219.7620 N   0  0  0  0  0  0  0  0  0  0  0  0
  143.5830   70.7270  220.0840 C   0  0  0  0  0  0  0  0  0  0  0  0
  143.8700   69.9660  218.7970 C   0  0  0  0  0  0  0  0  0  0  0  0
  144.4460   70.9660  217.8460 C   0  0  0  0  0  0  0  0  0  0  0  0
  145.6540   70.7580  217.2000 C   0  0  0  0  0  0  0  0  0  0  0  0
  146.0680   71.7670  216.3480 C   0  0  0  0  0  0  0  0  0  0  0  0
  145.3490   72.9130  216.1380 C   0  0  0  0  0  0  0  0  0  0  0  0
  144.1290   73.1140  216.7960 C   0  0  0  0  0  0  0  0  0  0  0  0
  143.6960   72.1170  217.6540 C   0  0  0  0  0  0  0  0  0  0  0  0
  142.4200   72.2040  218.4130 C   0  0  0  0  0  0  0  0  0  0  0  0
  141.0940   73.3900  220.6520 N   0  0  0  0  0  0  0  0  0  0  0  0
  140.4290   75.7780  220.0780 C   0  0  0  0  0  0  0  0  0  0  0  0
  140.0680   77.2610  220.0280 C   0  0  0  0  0  0  0  0  0  0  0  0
  143.6910   80.1950  221.7510 H   0  0  0  0  0  0  0  0  0  0  0  0
  143.1740   79.1560  222.9410 H   0  0  0  0  0  0  0  0  0  0  0  0
  140.6610   79.0197  223.2838 H   0  0  0  0  0  0  0  0  0  0  0  0
  139.6102   80.3880  222.7934 H   0  0  0  0  0  0  0  0  0  0  0  0
  139.6542   79.6181  220.7060 H   0  0  0  0  0  0  0  0  0  0  0  0
  141.4456   79.9498  220.6873 H   0  0  0  0  0  0  0  0  0  0  0  0
  141.9582   77.8861  220.7201 H   0  0  0  0  0  0  0  0  0  0  0  0
  140.7671   77.9230  223.1724 H   0  0  0  0  0  0  0  0  0  0  0  0
  141.8291   76.6334  222.4313 H   0  0  0  0  0  0  0  0  0  0  0  0
  138.8150   76.7360  222.5249 H   0  0  0  0  0  0  0  0  0  0  0  0
  139.9762   75.5704  223.3408 H   0  0  0  0  0  0  0  0  0  0  0  0
  138.5886   75.1573  221.1335 H   0  0  0  0  0  0  0  0  0  0  0  0
  141.1147   72.8404  225.1508 H   0  0  0  0  0  0  0  0  0  0  0  0
  139.6532   72.1009  225.8547 H   0  0  0  0  0  0  0  0  0  0  0  0
  142.4061   70.7700  225.5579 H   0  0  0  0  0  0  0  0  0  0  0  0
  141.6866   71.3389  227.0836 H   0  0  0  0  0  0  0  0  0  0  0  0
  141.5129   69.2578  228.1835 H   0  0  0  0  0  0  0  0  0  0  0  0
  140.2681   67.1116  228.3795 H   0  0  0  0  0  0  0  0  0  0  0  0
  138.7993   66.3057  226.5524 H   0  0  0  0  0  0  0  0  0  0  0  0
  138.5861   67.6829  224.5093 H   0  0  0  0  0  0  0  0  0  0  0  0
  140.1891   69.4356  223.0848 H   0  0  0  0  0  0  0  0  0  0  0  0
  138.6317   70.0775  223.7078 H   0  0  0  0  0  0  0  0  0  0  0  0
  144.4946   71.2287  220.4407 H   0  0  0  0  0  0  0  0  0  0  0  0
  143.2453   70.0487  220.8814 H   0  0  0  0  0  0  0  0  0  0  0  0
  144.5915   69.1570  218.9842 H   0  0  0  0  0  0  0  0  0  0  0  0
  142.9585   69.5029  218.3912 H   0  0  0  0  0  0  0  0  0  0  0  0
  146.2484   69.8455  217.3551 H   0  0  0  0  0  0  0  0  0  0  0  0
  147.0212   71.6421  215.8135 H   0  0  0  0  0  0  0  0  0  0  0  0
  145.7316   73.6801  215.4487 H   0  0  0  0  0  0  0  0  0  0  0  0
  143.5379   74.0281  216.6374 H   0  0  0  0  0  0  0  0  0  0  0  0
  142.1004   73.2557  218.4538 H   0  0  0  0  0  0  0  0  0  0  0  0
  141.6713   71.5845  217.8977 H   0  0  0  0  0  0  0  0  0  0  0  0
  140.0991   75.2653  219.1624 H   0  0  0  0  0  0  0  0  0  0  0  0
  141.5140   75.6112  220.1490 H   0  0  0  0  0  0  0  0  0  0  0  0
  139.0015   77.4017  220.2576 H   0  0  0  0  0  0  0  0  0  0  0  0
  140.2474   77.6836  219.0284 H   0  0  0  0  0  0  0  0  0  0  0  0
  1  2  1  0
  2  3  2  0
  2  4  2  0
  2  5  1  0
  5  6  1  0
  6  7  1  0
  7  8  1  0
  8  9  1  0
  9 10  1  0
 10 11  1  0
 11 12  2  0
 12 13  1  0
 13 14  1  0
 14 15  1  0
 15 16  1  0
 16 17  1  0
 17 18  2  0
 18 19  1  0
 19 20  2  0
 20 21  1  0
 21 22  2  0
 22 23  1  0
 13 24  2  0
 24 25  1  0
 25 26  1  0
 26 27  1  0
 27 28  1  0
 28 29  1  0
 29 30  2  0
 30 31  1  0
 31 32  2  0
 32 33  1  0
 33 34  2  0
 34 35  1  0
 25 36  2  0
 10 37  1  0
 37 38  1  0
 38  7  1  0
 36 11  1  0
 23 14  1  0
 35 26  1  0
 22 17  1  0
 34 29  1  0
  1 39  1  0
  1 40  1  0
  5 41  1  0
  5 42  1  0
  6 43  1  0
  6 44  1  0
  7 45  1  6
  8 46  1  0
  8 47  1  0
  9 48  1  0
  9 49  1  0
 10 50  1  6
 15 51  1  0
 15 52  1  0
 16 53  1  0
 16 54  1  0
 18 55  1  0
 19 56  1  0
 20 57  1  0
 21 58  1  0
 23 59  1  0
 23 60  1  0
 27 61  1  0
 27 62  1  0
 28 63  1  0
 28 64  1  0
 30 65  1  0
 31 66  1  0
 32 67  1  0
 33 68  1  0
 35 69  1  0
 35 70  1  0
 37 71  1  0
 37 72  1  0
 38 73  1  0
 38 74  1  0
M  END
>  <smiles>  (28) 
NS(=O)(=O)CC[C@H]1CC[C@H](c2nc(N3CCc4ccccc4C3)nc(N3CCc4ccccc4C3)n2)CC1

>  <score_type>  (28) 
oracle

>  <origin>  (28) 
autodockgpu

>  <m_score__min__energy>  (28) 
-10.08

>  <m_primary>  (28) 
energy

>  <rmsd>  (28) 
11.966497535113511

>  <m_score__min__rmsd>  (28) 
11.966497535113511

>  <meeko>  (28) 
{"free_energy": -8.95, "intermolecular_energy": -11.03, "internal_energy": -1.41, "cluster_size": 3, "cluster_id": 4, "rank_in_cluster": 3}

>  <energy>  (28) 
-8.67

>  <cluster_rmsd>  (28) 
1.18

>  <cluster>  (28) 
2

$$$$

     RDKit          3D

 74 79  0  0  0  0  0  0  0  0999 V2000
  146.2240   73.3920  218.2040 N   0  0  0  0  0  0  0  0  0  0  0  0
  145.5740   72.2590  219.3330 S   0  0  0  0  0  0  0  0  0  0  0  0
  146.6690   71.5710  220.0720 O   0  0  0  0  0  0  0  0  0  0  0  0
  144.7670   71.2760  218.5430 O   0  0  0  0  0  0  0  0  0  0  0  0
  144.5330   73.1330  220.5070 C   0  0  0  0  0  0  0  0  0  0  0  0
  143.3830   73.7620  219.7730 C   0  0  0  0  0  0  0  0  0  0  0  0
  142.2730   74.2120  220.6950 C   0  0  1  0  0  0  0  0  0  0  0  0
  141.4700   75.3570  220.1780 C   0  0  0  0  0  0  0  0  0  0  0  0
  140.0350   75.0010  219.8740 C   0  0  0  0  0  0  0  0  0  0  0  0
  139.3180   74.3030  220.9780 C   0  0  2  0  0  0  0  0  0  0  0  0
  138.4330   75.1930  221.7900 C   0  0  0  0  0  0  0  0  0  0  0  0
  137.3390   74.7250  222.4350 N   0  0  0  0  0  0  0  0  0  0  0  0
  136.5920   75.6040  223.1460 C   0  0  0  0  0  0  0  0  0  0  0  0
  135.4500   75.0780  223.8140 N   0  0  0  0  0  0  0  0  0  0  0  0
  134.3200   75.9410  224.0490 C   0  0  0  0  0  0  0  0  0  0  0  0
  134.0180   75.9090  225.5320 C   0  0  0  0  0  0  0  0  0  0  0  0
  133.7710   74.4930  225.9000 C   0  0  0  0  0  0  0  0  0  0  0  0
  132.8260   74.2290  226.8840 C   0  0  0  0  0  0  0  0  0  0  0  0
  132.6010   72.9010  227.2220 C   0  0  0  0  0  0  0  0  0  0  0  0
  133.2760   71.8630  226.6190 C   0  0  0  0  0  0  0  0  0  0  0  0
  134.2000   72.1840  225.6520 C   0  0  0  0  0  0  0  0  0  0  0  0
  134.4670   73.4850  225.2730 C   0  0  0  0  0  0  0  0  0  0  0  0
  135.4810   73.7080  224.2210 C   0  0  0  0  0  0  0  0  0  0  0  0
  136.9280   76.9070  223.2080 N   0  0  0  0  0  0  0  0  0  0  0  0
  138.0150   77.3810  222.5710 C   0  0  0  0  0  0  0  0  0  0  0  0
  138.3990   78.7470  222.6140 N   0  0  0  0  0  0  0  0  0  0  0  0
  137.4860   79.7740  222.1590 C   0  0  0  0  0  0  0  0  0  0  0  0
  137.8700   81.0500  222.8970 C   0  0  0  0  0  0  0  0  0  0  0  0
  139.2510   81.3920  222.4360 C   0  0  0  0  0  0  0  0  0  0  0  0
  139.5680   82.6410  221.9250 C   0  0  0  0  0  0  0  0  0  0  0  0
  140.8850   82.8200  221.5360 C   0  0  0  0  0  0  0  0  0  0  0  0
  141.8360   81.8420  221.6360 C   0  0  0  0  0  0  0  0  0  0  0  0
  141.5050   80.5820  222.1540 C   0  0  0  0  0  0  0  0  0  0  0  0
  140.1930   80.3810  222.5490 C   0  0  0  0  0  0  0  0  0  0  0  0
  139.7110   79.0930  223.1160 C   0  0  0  0  0  0  0  0  0  0  0  0
  138.7370   76.4830  221.8720 N   0  0  0  0  0  0  0  0  0  0  0  0
  140.2990   73.7020  221.9940 C   0  0  0  0  0  0  0  0  0  0  0  0
  141.3980   73.0810  221.1350 C   0  0  0  0  0  0  0  0  0  0  0  0
  146.9970   73.9050  218.7010 H   0  0  0  0  0  0  0  0  0  0  0  0
  145.4700   74.1280  218.0850 H   0  0  0  0  0  0  0  0  0  0  0  0
  144.1486   72.4252  221.2562 H   0  0  0  0  0  0  0  0  0  0  0  0
  145.1204   73.9134  221.0129 H   0  0  0  0  0  0  0  0  0  0  0  0
  143.7559   74.6364  219.2195 H   0  0  0  0  0  0  0  0  0  0  0  0
  142.9644   72.9997  219.0995 H   0  0  0  0  0  0  0  0  0  0  0  0
  142.7950   74.5954  221.5841 H   0  0  0  0  0  0  0  0  0  0  0  0
  141.9409   75.7225  219.2535 H   0  0  0  0  0  0  0  0  0  0  0  0
  141.4519   76.1212  220.9690 H   0  0  0  0  0  0  0  0  0  0  0  0
  140.0246   74.3455  218.9907 H   0  0  0  0  0  0  0  0  0  0  0  0
  139.5067   75.9525  219.7140 H   0  0  0  0  0  0  0  0  0  0  0  0
  138.7206   73.5429  220.4532 H   0  0  0  0  0  0  0  0  0  0  0  0
  134.5617   76.9680  223.7378 H   0  0  0  0  0  0  0  0  0  0  0  0
  133.4483   75.6010  223.4706 H   0  0  0  0  0  0  0  0  0  0  0  0
  134.8746   76.3018  226.0994 H   0  0  0  0  0  0  0  0  0  0  0  0
  133.1413   76.5312  225.7651 H   0  0  0  0  0  0  0  0  0  0  0  0
  132.2755   75.0433  227.3778 H   0  0  0  0  0  0  0  0  0  0  0  0
  131.8573   72.6700  227.9989 H   0  0  0  0  0  0  0  0  0  0  0  0
  133.0835   70.8171  226.9000 H   0  0  0  0  0  0  0  0  0  0  0  0
  134.7503   71.3690  225.1590 H   0  0  0  0  0  0  0  0  0  0  0  0
  136.4786   73.4649  224.6155 H   0  0  0  0  0  0  0  0  0  0  0  0
  135.2620   73.0632  223.3572 H   0  0  0  0  0  0  0  0  0  0  0  0
  137.5862   79.9180  221.0731 H   0  0  0  0  0  0  0  0  0  0  0  0
  136.4411   79.4960  222.3611 H   0  0  0  0  0  0  0  0  0  0  0  0
  137.1712   81.8617  222.6464 H   0  0  0  0  0  0  0  0  0  0  0  0
  137.8314   80.9122  223.9877 H   0  0  0  0  0  0  0  0  0  0  0  0
  138.8189   83.4414  221.8340 H   0  0  0  0  0  0  0  0  0  0  0  0
  141.1809   83.7970  221.1263 H   0  0  0  0  0  0  0  0  0  0  0  0
  142.8662   82.0452  221.3082 H   0  0  0  0  0  0  0  0  0  0  0  0
  142.2576   79.7847  222.2432 H   0  0  0  0  0  0  0  0  0  0  0  0
  140.4188   78.2962  222.8437 H   0  0  0  0  0  0  0  0  0  0  0  0
  139.6432   79.2024  224.2084 H   0  0  0  0  0  0  0  0  0  0  0  0
  139.8036   72.9350  222.6074 H   0  0  0  0  0  0  0  0  0  0  0  0
  140.6887   74.4530  222.6970 H   0  0  0  0  0  0  0  0  0  0  0  0
  140.9597   72.5759  220.2616 H   0  0  0  0  0  0  0  0  0  0  0  0
  141.9691   72.3278  221.6976 H   0  0  0  0  0  0  0  0  0  0  0  0
  1  2  1  0
  2  3  2  0
  2  4  2  0
  2  5  1  0
  5  6  1  0
  6  7  1  0
  7  8  1  0
  8  9  1  0
  9 10  1  0
 10 11  1  0
 11 12  2  0
 12 13  1  0
 13 14  1  0
 14 15  1  0
 15 16  1  0
 16 17  1  0
 17 18  2  0
 18 19  1  0
 19 20  2  0
 20 21  1  0
 21 22  2  0
 22 23  1  0
 13 24  2  0
 24 25  1  0
 25 26  1  0
 26 27  1  0
 27 28  1  0
 28 29  1  0
 29 30  2  0
 30 31  1  0
 31 32  2  0
 32 33  1  0
 33 34  2  0
 34 35  1  0
 25 36  2  0
 10 37  1  0
 37 38  1  0
 38  7  1  0
 36 11  1  0
 23 14  1  0
 35 26  1  0
 22 17  1  0
 34 29  1  0
  1 39  1  0
  1 40  1  0
  5 41  1  0
  5 42  1  0
  6 43  1  0
  6 44  1  0
  7 45  1  1
  8 46  1  0
  8 47  1  0
  9 48  1  0
  9 49  1  0
 10 50  1  6
 15 51  1  0
 15 52  1  0
 16 53  1  0
 16 54  1  0
 18 55  1  0
 19 56  1  0
 20 57  1  0
 21 58  1  0
 23 59  1  0
 23 60  1  0
 27 61  1  0
 27 62  1  0
 28 63  1  0
 28 64  1  0
 30 65  1  0
 31 66  1  0
 32 67  1  0
 33 68  1  0
 35 69  1  0
 35 70  1  0
 37 71  1  0
 37 72  1  0
 38 73  1  0
 38 74  1  0
M  END
>  <smiles>  (29) 
NS(=O)(=O)CC[C@H]1CC[C@H](c2nc(N3CCc4ccccc4C3)nc(N3CCc4ccccc4C3)n2)CC1

>  <score_type>  (29) 
oracle

>  <origin>  (29) 
autodockgpu

>  <m_score__min__energy>  (29) 
-10.08

>  <m_primary>  (29) 
energy

>  <rmsd>  (29) 
11.0829517307398

>  <m_score__min__rmsd>  (29) 
11.0829517307398

>  <meeko>  (29) 
{"free_energy": -8.79, "intermolecular_energy": -10.88, "internal_energy": -1.36, "cluster_size": 24, "cluster_id": 2, "rank_in_cluster": 21}

>  <energy>  (29) 
-8.46

>  <cluster_rmsd>  (29) 
1.19

>  <cluster>  (29) 
2

$$$$

     RDKit          3D

 74 79  0  0  0  0  0  0  0  0999 V2000
  147.8880   74.8940  214.2910 N   0  0  0  0  0  0  0  0  0  0  0  0
  147.7070   73.8370  215.6440 S   0  0  0  0  0  0  0  0  0  0  0  0
  148.1260   74.5200  216.9000 O   0  0  0  0  0  0  0  0  0  0  0  0
  148.5680   72.6420  215.3780 O   0  0  0  0  0  0  0  0  0  0  0  0
  145.9820   73.3560  215.7860 C   0  0  0  0  0  0  0  0  0  0  0  0
  145.1820   74.5300  216.2730 C   0  0  0  0  0  0  0  0  0  0  0  0
  144.3540   74.2100  217.4970 C   0  0  1  0  0  0  0  0  0  0  0  0
  143.6570   75.3860  218.0920 C   0  0  0  0  0  0  0  0  0  0  0  0
  142.1520   75.3080  217.9960 C   0  0  0  0  0  0  0  0  0  0  0  0
  141.5610   74.0320  218.4880 C   0  0  2  0  0  0  0  0  0  0  0  0
  140.9990   74.1130  219.8700 C   0  0  0  0  0  0  0  0  0  0  0  0
  140.6760   73.0070  220.5820 N   0  0  0  0  0  0  0  0  0  0  0  0
  140.1700   73.1750  221.8270 C   0  0  0  0  0  0  0  0  0  0  0  0
  139.8430   71.9910  222.5490 N   0  0  0  0  0  0  0  0  0  0  0  0
  138.6440   71.2710  222.2010 C   0  0  0  0  0  0  0  0  0  0  0  0
  137.8160   71.1230  223.4590 C   0  0  0  0  0  0  0  0  0  0  0  0
  138.6580   70.4260  224.4620 C   0  0  0  0  0  0  0  0  0  0  0  0
  138.0360   69.5500  225.3430 C   0  0  0  0  0  0  0  0  0  0  0  0
  138.8320   68.9010  226.2770 C   0  0  0  0  0  0  0  0  0  0  0  0
  140.1930   69.1010  226.3500 C   0  0  0  0  0  0  0  0  0  0  0  0
  140.7540   69.9800  225.4530 C   0  0  0  0  0  0  0  0  0  0  0  0
  140.0150   70.6530  224.5020 C   0  0  0  0  0  0  0  0  0  0  0  0
  140.7280   71.5730  223.5900 C   0  0  0  0  0  0  0  0  0  0  0  0
  139.9920   74.4070  222.3440 N   0  0  0  0  0  0  0  0  0  0  0  0
  140.3110   75.5110  221.6440 C   0  0  0  0  0  0  0  0  0  0  0  0
  140.1360   76.8240  222.1550 N   0  0  0  0  0  0  0  0  0  0  0  0
  138.9900   77.6130  221.7580 C   0  0  0  0  0  0  0  0  0  0  0  0
  138.7370   78.6050  222.8870 C   0  0  0  0  0  0  0  0  0  0  0  0
  139.9400   79.4910  222.9330 C   0  0  0  0  0  0  0  0  0  0  0  0
  139.8400   80.8720  222.8830 C   0  0  0  0  0  0  0  0  0  0  0  0
  141.0340   81.5690  222.9350 C   0  0  0  0  0  0  0  0  0  0  0  0
  142.2560   80.9590  223.0280 C   0  0  0  0  0  0  0  0  0  0  0  0
  142.3470   79.5610  223.0780 C   0  0  0  0  0  0  0  0  0  0  0  0
  141.1630   78.8440  223.0270 C   0  0  0  0  0  0  0  0  0  0  0  0
  141.1190   77.3580  223.0730 C   0  0  0  0  0  0  0  0  0  0  0  0
  140.8120   75.3130  220.4080 N   0  0  0  0  0  0  0  0  0  0  0  0
  142.6120   72.9170  218.5620 C   0  0  0  0  0  0  0  0  0  0  0  0
  143.4140   73.0690  217.2710 C   0  0  0  0  0  0  0  0  0  0  0  0
  148.0030   75.8650  214.6780 H   0  0  0  0  0  0  0  0  0  0  0  0
  146.9330   74.9180  213.8300 H   0  0  0  0  0  0  0  0  0  0  0  0
  145.6065   73.0372  214.8025 H   0  0  0  0  0  0  0  0  0  0  0  0
  145.8874   72.5227  216.4978 H   0  0  0  0  0  0  0  0  0  0  0  0
  145.8744   75.3478  216.5215 H   0  0  0  0  0  0  0  0  0  0  0  0
  144.4869   74.8126  215.4686 H   0  0  0  0  0  0  0  0  0  0  0  0
  145.0896   73.8915  218.2502 H   0  0  0  0  0  0  0  0  0  0  0  0
  143.9927   76.2920  217.5662 H   0  0  0  0  0  0  0  0  0  0  0  0
  143.9118   75.4051  219.1619 H   0  0  0  0  0  0  0  0  0  0  0  0
  141.8694   75.4316  216.9401 H   0  0  0  0  0  0  0  0  0  0  0  0
  141.7581   76.1032  218.6460 H   0  0  0  0  0  0  0  0  0  0  0  0
  140.7626   73.8240  217.7605 H   0  0  0  0  0  0  0  0  0  0  0  0
  138.0771   71.8312  221.4429 H   0  0  0  0  0  0  0  0  0  0  0  0
  138.8939   70.2837  221.7854 H   0  0  0  0  0  0  0  0  0  0  0  0
  137.5240   72.1142  223.8362 H   0  0  0  0  0  0  0  0  0  0  0  0
  136.8983   70.5514  223.2562 H   0  0  0  0  0  0  0  0  0  0  0  0
  136.9505   69.3767  225.3019 H   0  0  0  0  0  0  0  0  0  0  0  0
  138.3595   68.2027  226.9834 H   0  0  0  0  0  0  0  0  0  0  0  0
  140.8077   68.5777  227.0972 H   0  0  0  0  0  0  0  0  0  0  0  0
  141.8393   70.1540  225.4958 H   0  0  0  0  0  0  0  0  0  0  0  0
  141.0737   72.4526  224.1528 H   0  0  0  0  0  0  0  0  0  0  0  0
  141.5937   71.0561  223.1503 H   0  0  0  0  0  0  0  0  0  0  0  0
  139.2035   78.1491  220.8215 H   0  0  0  0  0  0  0  0  0  0  0  0
  138.1101   76.9768  221.5822 H   0  0  0  0  0  0  0  0  0  0  0  0
  137.8335   79.1974  222.6802 H   0  0  0  0  0  0  0  0  0  0  0  0
  138.5773   78.0917  223.8467 H   0  0  0  0  0  0  0  0  0  0  0  0
  138.8693   81.3837  222.8065 H   0  0  0  0  0  0  0  0  0  0  0  0
  140.9997   82.6679  222.8999 H   0  0  0  0  0  0  0  0  0  0  0  0
  143.1709   81.5687  223.0637 H   0  0  0  0  0  0  0  0  0  0  0  0
  143.3200   79.0536  223.1547 H   0  0  0  0  0  0  0  0  0  0  0  0
  142.1099   76.9633  222.8038 H   0  0  0  0  0  0  0  0  0  0  0  0
  140.8378   77.0542  224.0921 H   0  0  0  0  0  0  0  0  0  0  0  0
  142.1299   71.9293  218.6074 H   0  0  0  0  0  0  0  0  0  0  0  0
  143.2426   72.9924  219.4602 H   0  0  0  0  0  0  0  0  0  0  0  0
  142.7423   73.2893  216.4282 H   0  0  0  0  0  0  0  0  0  0  0  0
  143.9569   72.1446  217.0246 H   0  0  0  0  0  0  0  0  0  0  0  0
  1  2  1  0
  2  3  2  0
  2  4  2  0
  2  5  1  0
  5  6  1  0
  6  7  1  0
  7  8  1  0
  8  9  1  0
  9 10  1  0
 10 11  1  0
 11 12  2  0
 12 13  1  0
 13 14  1  0
 14 15  1  0
 15 16  1  0
 16 17  1  0
 17 18  2  0
 18 19  1  0
 19 20  2  0
 20 21  1  0
 21 22  2  0
 22 23  1  0
 13 24  2  0
 24 25  1  0
 25 26  1  0
 26 27  1  0
 27 28  1  0
 28 29  1  0
 29 30  2  0
 30 31  1  0
 31 32  2  0
 32 33  1  0
 33 34  2  0
 34 35  1  0
 25 36  2  0
 10 37  1  0
 37 38  1  0
 38  7  1  0
 36 11  1  0
 23 14  1  0
 35 26  1  0
 22 17  1  0
 34 29  1  0
  1 39  1  0
  1 40  1  0
  5 41  1  0
  5 42  1  0
  6 43  1  0
  6 44  1  0
  7 45  1  1
  8 46  1  0
  8 47  1  0
  9 48  1  0
  9 49  1  0
 10 50  1  6
 15 51  1  0
 15 52  1  0
 16 53  1  0
 16 54  1  0
 18 55  1  0
 19 56  1  0
 20 57  1  0
 21 58  1  0
 23 59  1  0
 23 60  1  0
 27 61  1  0
 27 62  1  0
 28 63  1  0
 28 64  1  0
 30 65  1  0
 31 66  1  0
 32 67  1  0
 33 68  1  0
 35 69  1  0
 35 70  1  0
 37 71  1  0
 37 72  1  0
 38 73  1  0
 38 74  1  0
M  END
>  <smiles>  (30) 
NS(=O)(=O)CC[C@H]1CC[C@H](c2nc(N3CCc4ccccc4C3)nc(N3CCc4ccccc4C3)n2)CC1

>  <score_type>  (30) 
oracle

>  <origin>  (30) 
autodockgpu

>  <m_score__min__energy>  (30) 
-10.08

>  <m_primary>  (30) 
energy

>  <rmsd>  (30) 
10.310551113971428

>  <m_score__min__rmsd>  (30) 
10.310551113971428

>  <meeko>  (30) 
{"free_energy": -8.44, "intermolecular_energy": -10.52, "internal_energy": -1.31, "cluster_size": 3, "cluster_id": 7, "rank_in_cluster": 3}

>  <energy>  (30) 
-9.67

>  <cluster_rmsd>  (30) 
0.0

>  <cluster>  (30) 
3

$$$$

     RDKit          3D

 74 79  0  0  0  0  0  0  0  0999 V2000
  146.3140   73.4250  218.2510 N   0  0  0  0  0  0  0  0  0  0  0  0
  144.9460   72.3760  218.3570 S   0  0  0  0  0  0  0  0  0  0  0  0
  145.3020   71.1260  219.0850 O   0  0  0  0  0  0  0  0  0  0  0  0
  144.5240   72.0720  216.9540 O   0  0  0  0  0  0  0  0  0  0  0  0
  143.6300   73.2170  219.2450 C   0  0  0  0  0  0  0  0  0  0  0  0
  143.3200   72.4550  220.5020 C   0  0  0  0  0  0  0  0  0  0  0  0
  142.1200   73.0040  221.2400 C   0  0  1  0  0  0  0  0  0  0  0  0
  141.8290   74.4390  220.9590 C   0  0  0  0  0  0  0  0  0  0  0  0
  140.5230   74.6600  220.2340 C   0  0  0  0  0  0  0  0  0  0  0  0
  139.3450   73.9880  220.8520 C   0  0  2  0  0  0  0  0  0  0  0  0
  138.4950   74.8910  221.6850 C   0  0  0  0  0  0  0  0  0  0  0  0
  137.3880   74.4480  222.3270 N   0  0  0  0  0  0  0  0  0  0  0  0
  136.6750   75.3380  223.0580 C   0  0  0  0  0  0  0  0  0  0  0  0
  135.5180   74.8380  223.7220 N   0  0  0  0  0  0  0  0  0  0  0  0
  134.3910   75.7140  223.9150 C   0  0  0  0  0  0  0  0  0  0  0  0
  134.0650   75.7260  225.3930 C   0  0  0  0  0  0  0  0  0  0  0  0
  133.8030   74.3220  225.7970 C   0  0  0  0  0  0  0  0  0  0  0  0
  132.8410   74.0920  226.7730 C   0  0  0  0  0  0  0  0  0  0  0  0
  132.6020   72.7750  227.1440 C   0  0  0  0  0  0  0  0  0  0  0  0
  133.2800   71.7170  226.5810 C   0  0  0  0  0  0  0  0  0  0  0  0
  134.2210   72.0050  225.6200 C   0  0  0  0  0  0  0  0  0  0  0  0
  134.5020   73.2920  225.2100 C   0  0  0  0  0  0  0  0  0  0  0  0
  135.5340   73.4800  224.1680 C   0  0  0  0  0  0  0  0  0  0  0  0
  137.0550   76.6280  223.1430 N   0  0  0  0  0  0  0  0  0  0  0  0
  138.1530   77.0770  222.5090 C   0  0  0  0  0  0  0  0  0  0  0  0
  138.5830   78.4290  222.5760 N   0  0  0  0  0  0  0  0  0  0  0  0
  137.8790   79.4530  221.8340 C   0  0  0  0  0  0  0  0  0  0  0  0
  138.1200   80.7630  222.5740 C   0  0  0  0  0  0  0  0  0  0  0  0
  139.5900   81.0230  222.4820 C   0  0  0  0  0  0  0  0  0  0  0  0
  140.0970   82.2220  222.0060 C   0  0  0  0  0  0  0  0  0  0  0  0
  141.4770   82.3270  221.9750 C   0  0  0  0  0  0  0  0  0  0  0  0
  142.3140   81.3250  222.3830 C   0  0  0  0  0  0  0  0  0  0  0  0
  141.7920   80.1170  222.8630 C   0  0  0  0  0  0  0  0  0  0  0  0
  140.4130   79.9900  222.9020 C   0  0  0  0  0  0  0  0  0  0  0  0
  139.7310   78.7620  223.3910 C   0  0  0  0  0  0  0  0  0  0  0  0
  138.8420   76.1690  221.7890 N   0  0  0  0  0  0  0  0  0  0  0  0
  139.7750   72.8690  221.8090 C   0  0  0  0  0  0  0  0  0  0  0  0
  140.9020   72.1520  221.0700 C   0  0  0  0  0  0  0  0  0  0  0  0
  146.3630   73.9520  219.1600 H   0  0  0  0  0  0  0  0  0  0  0  0
  146.0390   74.1660  217.5440 H   0  0  0  0  0  0  0  0  0  0  0  0
  143.9525   74.2367  219.5025 H   0  0  0  0  0  0  0  0  0  0  0  0
  142.7314   73.2701  218.6127 H   0  0  0  0  0  0  0  0  0  0  0  0
  143.1198   71.4064  220.2368 H   0  0  0  0  0  0  0  0  0  0  0  0
  144.1898   72.5488  221.1688 H   0  0  0  0  0  0  0  0  0  0  0  0
  142.4094   72.9639  222.3005 H   0  0  0  0  0  0  0  0  0  0  0  0
  142.6432   74.8443  220.3403 H   0  0  0  0  0  0  0  0  0  0  0  0
  141.7488   74.9483  221.9307 H   0  0  0  0  0  0  0  0  0  0  0  0
  140.6332   74.2818  219.2070 H   0  0  0  0  0  0  0  0  0  0  0  0
  140.3224   75.7406  220.2786 H   0  0  0  0  0  0  0  0  0  0  0  0
  138.7775   73.6195  219.9847 H   0  0  0  0  0  0  0  0  0  0  0  0
  134.6447   76.7303  223.5791 H   0  0  0  0  0  0  0  0  0  0  0  0
  133.5263   75.3631  223.3327 H   0  0  0  0  0  0  0  0  0  0  0  0
  134.9148   76.1297  225.9630 H   0  0  0  0  0  0  0  0  0  0  0  0
  133.1887   76.3598  225.5941 H   0  0  0  0  0  0  0  0  0  0  0  0
  132.2885   74.9233  227.2353 H   0  0  0  0  0  0  0  0  0  0  0  0
  131.8444   72.5700  227.9147 H   0  0  0  0  0  0  0  0  0  0  0  0
  133.0767   70.6805  226.8882 H   0  0  0  0  0  0  0  0  0  0  0  0
  134.7734   71.1732  225.1584 H   0  0  0  0  0  0  0  0  0  0  0  0
  136.5238   73.2425  224.5850 H   0  0  0  0  0  0  0  0  0  0  0  0
  135.3243   72.8125  223.3192 H   0  0  0  0  0  0  0  0  0  0  0  0
  138.2717   79.5176  220.8085 H   0  0  0  0  0  0  0  0  0  0  0  0
  136.8048   79.2268  221.7632 H   0  0  0  0  0  0  0  0  0  0  0  0
  137.5568   81.5797  222.0989 H   0  0  0  0  0  0  0  0  0  0  0  0
  137.7859   80.7025  223.6203 H   0  0  0  0  0  0  0  0  0  0  0  0
  139.4423   83.0408  221.6729 H   0  0  0  0  0  0  0  0  0  0  0  0
  141.9223   83.2620  221.6041 H   0  0  0  0  0  0  0  0  0  0  0  0
  143.4035   81.4687  222.3339 H   0  0  0  0  0  0  0  0  0  0  0  0
  142.4509   79.3015  223.1958 H   0  0  0  0  0  0  0  0  0  0  0  0
  140.4428   77.9238  223.3642 H   0  0  0  0  0  0  0  0  0  0  0  0
  139.3815   78.9485  224.4172 H   0  0  0  0  0  0  0  0  0  0  0  0
  138.9389   72.1817  222.0054 H   0  0  0  0  0  0  0  0  0  0  0  0
  140.0936   73.2539  222.7890 H   0  0  0  0  0  0  0  0  0  0  0  0
  140.6540   72.0496  220.0032 H   0  0  0  0  0  0  0  0  0  0  0  0
  141.0621   71.1392  221.4683 H   0  0  0  0  0  0  0  0  0  0  0  0
  1  2  1  0
  2  3  2  0
  2  4  2  0
  2  5  1  0
  5  6  1  0
  6  7  1  0
  7  8  1  0
  8  9  1  0
  9 10  1  0
 10 11  1  0
 11 12  2  0
 12 13  1  0
 13 14  1  0
 14 15  1  0
 15 16  1  0
 16 17  1  0
 17 18  2  0
 18 19  1  0
 19 20  2  0
 20 21  1  0
 21 22  2  0
 22 23  1  0
 13 24  2  0
 24 25  1  0
 25 26  1  0
 26 27  1  0
 27 28  1  0
 28 29  1  0
 29 30  2  0
 30 31  1  0
 31 32  2  0
 32 33  1  0
 33 34  2  0
 34 35  1  0
 25 36  2  0
 10 37  1  0
 37 38  1  0
 38  7  1  0
 36 11  1  0
 23 14  1  0
 35 26  1  0
 22 17  1  0
 34 29  1  0
  1 39  1  0
  1 40  1  0
  5 41  1  0
  5 42  1  0
  6 43  1  0
  6 44  1  0
  7 45  1  1
  8 46  1  0
  8 47  1  0
  9 48  1  0
  9 49  1  0
 10 50  1  6
 15 51  1  0
 15 52  1  0
 16 53  1  0
 16 54  1  0
 18 55  1  0
 19 56  1  0
 20 57  1  0
 21 58  1  0
 23 59  1  0
 23 60  1  0
 27 61  1  0
 27 62  1  0
 28 63  1  0
 28 64  1  0
 30 65  1  0
 31 66  1  0
 32 67  1  0
 33 68  1  0
 35 69  1  0
 35 70  1  0
 37 71  1  0
 37 72  1  0
 38 73  1  0
 38 74  1  0
M  END
>  <smiles>  (31) 
NS(=O)(=O)CC[C@H]1CC[C@H](c2nc(N3CCc4ccccc4C3)nc(N3CCc4ccccc4C3)n2)CC1

>  <score_type>  (31) 
oracle

>  <origin>  (31) 
autodockgpu

>  <m_score__min__energy>  (31) 
-10.08

>  <m_primary>  (31) 
energy

>  <rmsd>  (31) 
11.097839460155743

>  <m_score__min__rmsd>  (31) 
11.097839460155743

>  <meeko>  (31) 
{"free_energy": -8.46, "intermolecular_energy": -10.55, "internal_energy": -1.37, "cluster_size": 24, "cluster_id": 2, "rank_in_cluster": 24}

>  <energy>  (31) 
-8.32

>  <cluster_rmsd>  (31) 
1.97

>  <cluster>  (31) 
3

$$$$

     RDKit          3D

 74 79  0  0  0  0  0  0  0  0999 V2000
  145.9560   73.4090  218.5020 N   0  0  0  0  0  0  0  0  0  0  0  0
  145.7780   72.4670  219.9380 S   0  0  0  0  0  0  0  0  0  0  0  0
  146.3290   73.1970  221.1140 O   0  0  0  0  0  0  0  0  0  0  0  0
  146.5210   71.1880  219.7110 O   0  0  0  0  0  0  0  0  0  0  0  0
  144.0330   72.1440  220.2140 C   0  0  0  0  0  0  0  0  0  0  0  0
  143.2260   73.2690  219.6320 C   0  0  0  0  0  0  0  0  0  0  0  0
  142.1780   73.7950  220.5870 C   0  0  1  0  0  0  0  0  0  0  0  0
  141.3890   74.9460  220.0610 C   0  0  0  0  0  0  0  0  0  0  0  0
  139.9300   74.6290  219.8420 C   0  0  0  0  0  0  0  0  0  0  0  0
  139.2460   74.0020  221.0080 C   0  0  2  0  0  0  0  0  0  0  0  0
  138.4320   74.9550  221.8220 C   0  0  0  0  0  0  0  0  0  0  0  0
  137.3080   74.5700  222.4710 N   0  0  0  0  0  0  0  0  0  0  0  0
  136.6310   75.5020  223.1840 C   0  0  0  0  0  0  0  0  0  0  0  0
  135.4540   75.0620  223.8560 N   0  0  0  0  0  0  0  0  0  0  0  0
  134.3660   75.9900  224.0350 C   0  0  0  0  0  0  0  0  0  0  0  0
  134.0420   76.0370  225.5130 C   0  0  0  0  0  0  0  0  0  0  0  0
  133.7190   74.6520  225.9370 C   0  0  0  0  0  0  0  0  0  0  0  0
  132.7490   74.4780  226.9170 C   0  0  0  0  0  0  0  0  0  0  0  0
  132.4530   73.1790  227.3080 C   0  0  0  0  0  0  0  0  0  0  0  0
  133.0850   72.0840  226.7610 C   0  0  0  0  0  0  0  0  0  0  0  0
  134.0370   72.3170  225.7960 C   0  0  0  0  0  0  0  0  0  0  0  0
  134.3730   73.5850  225.3660 C   0  0  0  0  0  0  0  0  0  0  0  0
  135.4120   73.7120  224.3220 C   0  0  0  0  0  0  0  0  0  0  0  0
  137.0640   76.7770  223.2460 N   0  0  0  0  0  0  0  0  0  0  0  0
  138.1810   77.1680  222.6050 C   0  0  0  0  0  0  0  0  0  0  0  0
  138.6660   78.5020  222.6480 N   0  0  0  0  0  0  0  0  0  0  0  0
  137.7380   79.6130  222.6790 C   0  0  0  0  0  0  0  0  0  0  0  0
  138.4700   80.7670  223.3520 C   0  0  0  0  0  0  0  0  0  0  0  0
  139.6100   81.1140  222.4480 C   0  0  0  0  0  0  0  0  0  0  0  0
  139.8210   82.4060  221.9930 C   0  0  0  0  0  0  0  0  0  0  0  0
  140.9130   82.5850  221.1620 C   0  0  0  0  0  0  0  0  0  0  0  0
  141.7510   81.5670  220.7950 C   0  0  0  0  0  0  0  0  0  0  0  0
  141.5290   80.2640  221.2610 C   0  0  0  0  0  0  0  0  0  0  0  0
  140.4410   80.0620  222.0930 C   0  0  0  0  0  0  0  0  0  0  0  0
  140.0940   78.7310  222.6580 C   0  0  0  0  0  0  0  0  0  0  0  0
  138.8320   76.2190  221.9040 N   0  0  0  0  0  0  0  0  0  0  0  0
  140.2550   73.4090  221.9990 C   0  0  0  0  0  0  0  0  0  0  0  0
  141.2880   72.7150  221.1160 C   0  0  0  0  0  0  0  0  0  0  0  0
  146.8630   73.9350  218.5950 H   0  0  0  0  0  0  0  0  0  0  0  0
  145.2180   74.1670  218.5760 H   0  0  0  0  0  0  0  0  0  0  0  0
  143.7520   71.1987  219.7267 H   0  0  0  0  0  0  0  0  0  0  0  0
  143.8369   72.0677  221.2937 H   0  0  0  0  0  0  0  0  0  0  0  0
  143.9077   74.0918  219.3707 H   0  0  0  0  0  0  0  0  0  0  0  0
  142.7012   72.8769  218.7483 H   0  0  0  0  0  0  0  0  0  0  0  0
  142.7562   74.1947  221.4331 H   0  0  0  0  0  0  0  0  0  0  0  0
  141.8254   75.2565  219.1002 H   0  0  0  0  0  0  0  0  0  0  0  0
  141.4358   75.7421  220.8187 H   0  0  0  0  0  0  0  0  0  0  0  0
  139.8538   73.9390  218.9887 H   0  0  0  0  0  0  0  0  0  0  0  0
  139.4263   75.5912  219.6676 H   0  0  0  0  0  0  0  0  0  0  0  0
  138.5986   73.2421  220.5460 H   0  0  0  0  0  0  0  0  0  0  0  0
  134.6639   76.9892  223.6845 H   0  0  0  0  0  0  0  0  0  0  0  0
  133.4865   75.6699  223.4570 H   0  0  0  0  0  0  0  0  0  0  0  0
  134.9092   76.4110  226.0770 H   0  0  0  0  0  0  0  0  0  0  0  0
  133.1944   76.7113  225.7052 H   0  0  0  0  0  0  0  0  0  0  0  0
  132.2337   75.3393  227.3672 H   0  0  0  0  0  0  0  0  0  0  0  0
  131.6873   73.0187  228.0813 H   0  0  0  0  0  0  0  0  0  0  0  0
  132.8377   71.0619  227.0838 H   0  0  0  0  0  0  0  0  0  0  0  0
  134.5531   71.4554  225.3474 H   0  0  0  0  0  0  0  0  0  0  0  0
  136.3907   73.4385  224.7431 H   0  0  0  0  0  0  0  0  0  0  0  0
  135.1742   73.0410  223.4834 H   0  0  0  0  0  0  0  0  0  0  0  0
  137.4456   79.8929  221.6562 H   0  0  0  0  0  0  0  0  0  0  0  0
  136.8202   79.3505  223.2255 H   0  0  0  0  0  0  0  0  0  0  0  0
  137.7980   81.6300  223.4685 H   0  0  0  0  0  0  0  0  0  0  0  0
  138.8219   80.4902  224.3568 H   0  0  0  0  0  0  0  0  0  0  0  0
  139.1603   83.2389  222.2754 H   0  0  0  0  0  0  0  0  0  0  0  0
  141.1176   83.5951  220.7775 H   0  0  0  0  0  0  0  0  0  0  0  0
  142.6033   81.7726  220.1307 H   0  0  0  0  0  0  0  0  0  0  0  0
  142.1931   79.4344  220.9769 H   0  0  0  0  0  0  0  0  0  0  0  0
  140.5846   77.9502  222.0583 H   0  0  0  0  0  0  0  0  0  0  0  0
  140.4390   78.7009  223.7021 H   0  0  0  0  0  0  0  0  0  0  0  0
  139.7653   72.6858  222.6678 H   0  0  0  0  0  0  0  0  0  0  0  0
  140.7043   74.1739  222.6494 H   0  0  0  0  0  0  0  0  0  0  0  0
  140.7903   72.1908  220.2868 H   0  0  0  0  0  0  0  0  0  0  0  0
  141.8603   71.9654  221.6821 H   0  0  0  0  0  0  0  0  0  0  0  0
  1  2  1  0
  2  3  2  0
  2  4  2  0
  2  5  1  0
  5  6  1  0
  6  7  1  0
  7  8  1  0
  8  9  1  0
  9 10  1  0
 10 11  1  0
 11 12  2  0
 12 13  1  0
 13 14  1  0
 14 15  1  0
 15 16  1  0
 16 17  1  0
 17 18  2  0
 18 19  1  0
 19 20  2  0
 20 21  1  0
 21 22  2  0
 22 23  1  0
 13 24  2  0
 24 25  1  0
 25 26  1  0
 26 27  1  0
 27 28  1  0
 28 29  1  0
 29 30  2  0
 30 31  1  0
 31 32  2  0
 32 33  1  0
 33 34  2  0
 34 35  1  0
 25 36  2  0
 10 37  1  0
 37 38  1  0
 38  7  1  0
 36 11  1  0
 23 14  1  0
 35 26  1  0
 22 17  1  0
 34 29  1  0
  1 39  1  0
  1 40  1  0
  5 41  1  0
  5 42  1  0
  6 43  1  0
  6 44  1  0
  7 45  1  1
  8 46  1  0
  8 47  1  0
  9 48  1  0
  9 49  1  0
 10 50  1  6
 15 51  1  0
 15 52  1  0
 16 53  1  0
 16 54  1  0
 18 55  1  0
 19 56  1  0
 20 57  1  0
 21 58  1  0
 23 59  1  0
 23 60  1  0
 27 61  1  0
 27 62  1  0
 28 63  1  0
 28 64  1  0
 30 65  1  0
 31 66  1  0
 32 67  1  0
 33 68  1  0
 35 69  1  0
 35 70  1  0
 37 71  1  0
 37 72  1  0
 38 73  1  0
 38 74  1  0
M  END
>  <smiles>  (32) 
NS(=O)(=O)CC[C@H]1CC[C@H](c2nc(N3CCc4ccccc4C3)nc(N3CCc4ccccc4C3)n2)CC1

>  <score_type>  (32) 
oracle

>  <origin>  (32) 
autodockgpu

>  <m_score__min__energy>  (32) 
-10.08

>  <m_primary>  (32) 
energy

>  <rmsd>  (32) 
11.12129515120002

>  <m_score__min__rmsd>  (32) 
11.12129515120002

>  <meeko>  (32) 
{"free_energy": -9.29, "intermolecular_energy": -11.38, "internal_energy": -1.38, "cluster_size": 24, "cluster_id": 2, "rank_in_cluster": 11}

>  <energy>  (32) 
-9.66

>  <cluster_rmsd>  (32) 
0.0

>  <cluster>  (32) 
4

$$$$

     RDKit          3D

 74 79  0  0  0  0  0  0  0  0999 V2000
  145.9800   73.0160  221.5270 N   0  0  0  0  0  0  0  0  0  0  0  0
  145.6650   72.6580  219.8680 S   0  0  0  0  0  0  0  0  0  0  0  0
  145.7690   71.1920  219.6210 O   0  0  0  0  0  0  0  0  0  0  0  0
  146.6820   73.4050  219.0640 O   0  0  0  0  0  0  0  0  0  0  0  0
  144.0050   73.2050  219.4550 C   0  0  0  0  0  0  0  0  0  0  0  0
  143.0080   72.2680  220.0770 C   0  0  0  0  0  0  0  0  0  0  0  0
  141.9860   72.9810  220.9320 C   0  0  1  0  0  0  0  0  0  0  0  0
  141.5050   74.2740  220.3660 C   0  0  0  0  0  0  0  0  0  0  0  0
  140.0460   74.2590  219.9810 C   0  0  0  0  0  0  0  0  0  0  0  0
  139.1250   73.7680  221.0440 C   0  0  2  0  0  0  0  0  0  0  0  0
  138.4310   74.8540  221.8000 C   0  0  0  0  0  0  0  0  0  0  0  0
  138.8930   76.1260  221.8200 N   0  0  0  0  0  0  0  0  0  0  0  0
  138.2000   77.0460  222.5340 C   0  0  0  0  0  0  0  0  0  0  0  0
  138.7130   78.3750  222.5310 N   0  0  0  0  0  0  0  0  0  0  0  0
  138.0740   79.3670  221.7030 C   0  0  0  0  0  0  0  0  0  0  0  0
  139.1360   79.9740  220.8110 C   0  0  0  0  0  0  0  0  0  0  0  0
  140.1910   80.5270  221.6960 C   0  0  0  0  0  0  0  0  0  0  0  0
  140.8410   81.6870  221.2920 C   0  0  0  0  0  0  0  0  0  0  0  0
  141.8260   82.1980  222.1260 C   0  0  0  0  0  0  0  0  0  0  0  0
  142.1680   81.5950  223.3170 C   0  0  0  0  0  0  0  0  0  0  0  0
  141.4920   80.4490  223.6650 C   0  0  0  0  0  0  0  0  0  0  0  0
  140.5030   79.8950  222.8780 C   0  0  0  0  0  0  0  0  0  0  0  0
  139.8450   78.6600  223.3560 C   0  0  0  0  0  0  0  0  0  0  0  0
  137.0840   76.7050  223.2070 N   0  0  0  0  0  0  0  0  0  0  0  0
  136.6170   75.4430  223.1920 C   0  0  0  0  0  0  0  0  0  0  0  0
  135.4440   75.0470  223.8890 N   0  0  0  0  0  0  0  0  0  0  0  0
  134.7020   76.0130  224.6690 C   0  0  0  0  0  0  0  0  0  0  0  0
  133.2650   75.5080  224.7270 C   0  0  0  0  0  0  0  0  0  0  0  0
  133.3140   74.2150  225.4760 C   0  0  0  0  0  0  0  0  0  0  0  0
  132.5100   73.9730  226.5790 C   0  0  0  0  0  0  0  0  0  0  0  0
  132.6590   72.7330  227.1770 C   0  0  0  0  0  0  0  0  0  0  0  0
  133.5380   71.7850  226.7290 C   0  0  0  0  0  0  0  0  0  0  0  0
  134.3450   72.0390  225.6130 C   0  0  0  0  0  0  0  0  0  0  0  0
  134.2130   73.2740  224.9990 C   0  0  0  0  0  0  0  0  0  0  0  0
  135.0090   73.6700  223.8070 C   0  0  0  0  0  0  0  0  0  0  0  0
  137.3270   74.5500  222.4730 N   0  0  0  0  0  0  0  0  0  0  0  0
  139.8790   72.9710  222.1160 C   0  0  0  0  0  0  0  0  0  0  0  0
  140.8460   72.0950  221.3240 C   0  0  0  0  0  0  0  0  0  0  0  0
  147.0000   73.2650  221.5960 H   0  0  0  0  0  0  0  0  0  0  0  0
  145.9140   72.0840  222.0280 H   0  0  0  0  0  0  0  0  0  0  0  0
  143.8456   74.2222  219.8423 H   0  0  0  0  0  0  0  0  0  0  0  0
  143.8777   73.2087  218.3624 H   0  0  0  0  0  0  0  0  0  0  0  0
  142.4813   71.7320  219.2737 H   0  0  0  0  0  0  0  0  0  0  0  0
  143.5642   71.5804  220.7311 H   0  0  0  0  0  0  0  0  0  0  0  0
  142.5337   73.2451  221.8487 H   0  0  0  0  0  0  0  0  0  0  0  0
  142.0991   74.5035  219.4691 H   0  0  0  0  0  0  0  0  0  0  0  0
  141.6236   75.0344  221.1520 H   0  0  0  0  0  0  0  0  0  0  0  0
  139.9308   73.6089  219.1012 H   0  0  0  0  0  0  0  0  0  0  0  0
  139.7659   75.3049  219.7871 H   0  0  0  0  0  0  0  0  0  0  0  0
  138.3952   73.1609  220.4884 H   0  0  0  0  0  0  0  0  0  0  0  0
  137.2930   78.8956  221.0884 H   0  0  0  0  0  0  0  0  0  0  0  0
  137.6029   80.1427  222.3245 H   0  0  0  0  0  0  0  0  0  0  0  0
  139.5623   79.2017  220.1539 H   0  0  0  0  0  0  0  0  0  0  0  0
  138.7071   80.7629  220.1756 H   0  0  0  0  0  0  0  0  0  0  0  0
  140.5839   82.1829  220.3444 H   0  0  0  0  0  0  0  0  0  0  0  0
  142.3519   83.1163  221.8257 H   0  0  0  0  0  0  0  0  0  0  0  0
  142.9519   82.0144  223.9648 H   0  0  0  0  0  0  0  0  0  0  0  0
  141.7509   79.9524  224.6118 H   0  0  0  0  0  0  0  0  0  0  0  0
  140.5561   77.8222  223.3055 H   0  0  0  0  0  0  0  0  0  0  0  0
  139.5157   78.7983  224.3964 H   0  0  0  0  0  0  0  0  0  0  0  0
  135.1210   76.0851  225.6835 H   0  0  0  0  0  0  0  0  0  0  0  0
  134.7544   77.0146  224.2173 H   0  0  0  0  0  0  0  0  0  0  0  0
  132.6263   76.2317  225.2546 H   0  0  0  0  0  0  0  0  0  0  0  0
  132.8431   75.3752  223.7199 H   0  0  0  0  0  0  0  0  0  0  0  0
  131.7969   74.7207  226.9563 H   0  0  0  0  0  0  0  0  0  0  0  0
  132.0401   72.4985  228.0556 H   0  0  0  0  0  0  0  0  0  0  0  0
  133.6112   70.8180  227.2483 H   0  0  0  0  0  0  0  0  0  0  0  0
  135.0557   71.2875  225.2386 H   0  0  0  0  0  0  0  0  0  0  0  0
  135.8937   73.0200  223.7368 H   0  0  0  0  0  0  0  0  0  0  0  0
  134.3710   73.5638  222.9172 H   0  0  0  0  0  0  0  0  0  0  0  0
  139.1839   72.3523  222.7026 H   0  0  0  0  0  0  0  0  0  0  0  0
  140.3955   73.6211  222.8375 H   0  0  0  0  0  0  0  0  0  0  0  0
  140.3500   71.6929  220.4283 H   0  0  0  0  0  0  0  0  0  0  0  0
  141.1912   71.2379  221.9208 H   0  0  0  0  0  0  0  0  0  0  0  0
  1  2  1  0
  2  3  2  0
  2  4  2  0
  2  5  1  0
  5  6  1  0
  6  7  1  0
  7  8  1  0
  8  9  1  0
  9 10  1  0
 10 11  1  0
 11 12  2  0
 12 13  1  0
 13 14  1  0
 14 15  1  0
 15 16  1  0
 16 17  1  0
 17 18  2  0
 18 19  1  0
 19 20  2  0
 20 21  1  0
 21 22  2  0
 22 23  1  0
 13 24  2  0
 24 25  1  0
 25 26  1  0
 26 27  1  0
 27 28  1  0
 28 29  1  0
 29 30  2  0
 30 31  1  0
 31 32  2  0
 32 33  1  0
 33 34  2  0
 34 35  1  0
 25 36  2  0
 10 37  1  0
 37 38  1  0
 38  7  1  0
 36 11  1  0
 23 14  1  0
 35 26  1  0
 22 17  1  0
 34 29  1  0
  1 39  1  0
  1 40  1  0
  5 41  1  0
  5 42  1  0
  6 43  1  0
  6 44  1  0
  7 45  1  1
  8 46  1  0
  8 47  1  0
  9 48  1  0
  9 49  1  0
 10 50  1  6
 15 51  1  0
 15 52  1  0
 16 53  1  0
 16 54  1  0
 18 55  1  0
 19 56  1  0
 20 57  1  0
 21 58  1  0
 23 59  1  0
 23 60  1  0
 27 61  1  0
 27 62  1  0
 28 63  1  0
 28 64  1  0
 30 65  1  0
 31 66  1  0
 32 67  1  0
 33 68  1  0
 35 69  1  0
 35 70  1  0
 37 71  1  0
 37 72  1  0
 38 73  1  0
 38 74  1  0
M  END
>  <smiles>  (33) 
NS(=O)(=O)CC[C@H]1CC[C@H](c2nc(N3CCc4ccccc4C3)nc(N3CCc4ccccc4C3)n2)CC1

>  <score_type>  (33) 
oracle

>  <origin>  (33) 
autodockgpu

>  <m_score__min__energy>  (33) 
-10.08

>  <m_primary>  (33) 
energy

>  <rmsd>  (33) 
5.1744878207176805

>  <m_score__min__rmsd>  (33) 
5.1744878207176805

>  <meeko>  (33) 
{"free_energy": -8.67, "intermolecular_energy": -10.76, "internal_energy": -1.35, "cluster_size": 24, "cluster_id": 2, "rank_in_cluster": 23}

>  <energy>  (33) 
-9.31

>  <cluster_rmsd>  (33) 
0.94

>  <cluster>  (33) 
4

$$$$

     RDKit          3D

 74 79  0  0  0  0  0  0  0  0999 V2000
  146.3610   73.3910  218.2710 N   0  0  0  0  0  0  0  0  0  0  0  0
  145.5700   72.5110  219.5280 S   0  0  0  0  0  0  0  0  0  0  0  0
  146.0080   73.0000  220.8650 O   0  0  0  0  0  0  0  0  0  0  0  0
  145.9360   71.0710  219.3430 O   0  0  0  0  0  0  0  0  0  0  0  0
  143.7940   72.7370  219.3730 C   0  0  0  0  0  0  0  0  0  0  0  0
  143.0980   71.8640  220.3790 C   0  0  0  0  0  0  0  0  0  0  0  0
  142.0480   72.6070  221.1730 C   0  0  1  0  0  0  0  0  0  0  0  0
  141.7840   73.9950  220.6960 C   0  0  0  0  0  0  0  0  0  0  0  0
  140.3960   74.1860  220.1330 C   0  0  0  0  0  0  0  0  0  0  0  0
  139.2940   73.7060  221.0140 C   0  0  2  0  0  0  0  0  0  0  0  0
  138.6190   74.7880  221.7920 C   0  0  0  0  0  0  0  0  0  0  0  0
  137.4270   74.5980  222.4050 N   0  0  0  0  0  0  0  0  0  0  0  0
  136.8870   75.6370  223.0870 C   0  0  0  0  0  0  0  0  0  0  0  0
  135.6330   75.4010  223.7220 N   0  0  0  0  0  0  0  0  0  0  0  0
  134.6240   76.4280  223.6750 C   0  0  0  0  0  0  0  0  0  0  0  0
  134.2090   76.7300  225.1000 C   0  0  0  0  0  0  0  0  0  0  0  0
  133.7360   75.4580  225.6990 C   0  0  0  0  0  0  0  0  0  0  0  0
  132.6920   75.5160  226.6140 C   0  0  0  0  0  0  0  0  0  0  0  0
  132.2550   74.3210  227.1700 C   0  0  0  0  0  0  0  0  0  0  0  0
  132.8200   73.1070  226.8440 C   0  0  0  0  0  0  0  0  0  0  0  0
  133.8500   73.1120  225.9330 C   0  0  0  0  0  0  0  0  0  0  0  0
  134.3270   74.2670  225.3460 C   0  0  0  0  0  0  0  0  0  0  0  0
  135.4390   74.1470  224.3800 C   0  0  0  0  0  0  0  0  0  0  0  0
  137.5160   76.8260  223.1520 N   0  0  0  0  0  0  0  0  0  0  0  0
  138.7010   77.0240  222.5460 C   0  0  0  0  0  0  0  0  0  0  0  0
  139.3930   78.2630  222.5930 N   0  0  0  0  0  0  0  0  0  0  0  0
  138.8040   79.4000  223.2670 C   0  0  0  0  0  0  0  0  0  0  0  0
  139.9610   80.2900  223.7040 C   0  0  0  0  0  0  0  0  0  0  0  0
  140.6160   80.7610  222.4450 C   0  0  0  0  0  0  0  0  0  0  0  0
  140.8370   82.1050  222.1880 C   0  0  0  0  0  0  0  0  0  0  0  0
  141.4520   82.3990  220.9840 C   0  0  0  0  0  0  0  0  0  0  0  0
  141.8290   81.4420  220.0810 C   0  0  0  0  0  0  0  0  0  0  0  0
  141.6010   80.0860  220.3500 C   0  0  0  0  0  0  0  0  0  0  0  0
  140.9860   79.7690  221.5500 C   0  0  0  0  0  0  0  0  0  0  0  0
  140.6880   78.3700  221.9580 C   0  0  0  0  0  0  0  0  0  0  0  0
  139.2140   75.9730  221.8760 N   0  0  0  0  0  0  0  0  0  0  0  0
  139.8100   72.7290  222.0780 C   0  0  0  0  0  0  0  0  0  0  0  0
  140.7810   71.8250  221.3220 C   0  0  0  0  0  0  0  0  0  0  0  0
  147.0690   74.0150  218.7370 H   0  0  0  0  0  0  0  0  0  0  0  0
  145.6310   74.0680  217.9060 H   0  0  0  0  0  0  0  0  0  0  0  0
  143.5389   73.7905  219.5603 H   0  0  0  0  0  0  0  0  0  0  0  0
  143.4724   72.4617  218.3577 H   0  0  0  0  0  0  0  0  0  0  0  0
  142.6130   71.0325  219.8467 H   0  0  0  0  0  0  0  0  0  0  0  0
  143.8582   71.5062  221.0890 H   0  0  0  0  0  0  0  0  0  0  0  0
  142.4900   72.7189  222.1741 H   0  0  0  0  0  0  0  0  0  0  0  0
  142.5146   74.2378  219.9103 H   0  0  0  0  0  0  0  0  0  0  0  0
  141.8727   74.6588  221.5687 H   0  0  0  0  0  0  0  0  0  0  0  0
  140.3349   73.6401  219.1800 H   0  0  0  0  0  0  0  0  0  0  0  0
  140.2533   75.2709  220.0209 H   0  0  0  0  0  0  0  0  0  0  0  0
  138.5881   73.2428  220.3089 H   0  0  0  0  0  0  0  0  0  0  0  0
  135.0329   77.3339  223.2037 H   0  0  0  0  0  0  0  0  0  0  0  0
  133.7590   76.0921  223.0844 H   0  0  0  0  0  0  0  0  0  0  0  0
  135.0674   77.1177  225.6682 H   0  0  0  0  0  0  0  0  0  0  0  0
  133.4147   77.4907  225.1221 H   0  0  0  0  0  0  0  0  0  0  0  0
  132.2280   76.4749  226.8883 H   0  0  0  0  0  0  0  0  0  0  0  0
  131.4290   74.3441  227.8960 H   0  0  0  0  0  0  0  0  0  0  0  0
  132.4609   72.1702  227.2951 H   0  0  0  0  0  0  0  0  0  0  0  0
  134.3146   72.1531  225.6598 H   0  0  0  0  0  0  0  0  0  0  0  0
  136.3593   73.8658  224.9128 H   0  0  0  0  0  0  0  0  0  0  0  0
  135.1972   73.3745  223.6352 H   0  0  0  0  0  0  0  0  0  0  0  0
  138.1415   79.9475  222.5805 H   0  0  0  0  0  0  0  0  0  0  0  0
  138.1987   79.0822  224.1288 H   0  0  0  0  0  0  0  0  0  0  0  0
  139.5866   81.1466  224.2838 H   0  0  0  0  0  0  0  0  0  0  0  0
  140.6681   79.7454  224.3470 H   0  0  0  0  0  0  0  0  0  0  0  0
  140.5412   82.8908  222.8987 H   0  0  0  0  0  0  0  0  0  0  0  0
  141.6476   83.4537  220.7405 H   0  0  0  0  0  0  0  0  0  0  0  0
  142.3135   81.7390  219.1392 H   0  0  0  0  0  0  0  0  0  0  0  0
  141.8987   79.3038  219.6362 H   0  0  0  0  0  0  0  0  0  0  0  0
  140.7016   77.7276  221.0652 H   0  0  0  0  0  0  0  0  0  0  0  0
  141.4527   78.0535  222.6826 H   0  0  0  0  0  0  0  0  0  0  0  0
  138.9819   72.1425  222.5026 H   0  0  0  0  0  0  0  0  0  0  0  0
  140.2879   73.2439  222.9245 H   0  0  0  0  0  0  0  0  0  0  0  0
  140.3725   71.5686  220.3334 H   0  0  0  0  0  0  0  0  0  0  0  0
  140.9529   70.8814  221.8606 H   0  0  0  0  0  0  0  0  0  0  0  0
  1  2  1  0
  2  3  2  0
  2  4  2  0
  2  5  1  0
  5  6  1  0
  6  7  1  0
  7  8  1  0
  8  9  1  0
  9 10  1  0
 10 11  1  0
 11 12  2  0
 12 13  1  0
 13 14  1  0
 14 15  1  0
 15 16  1  0
 16 17  1  0
 17 18  2  0
 18 19  1  0
 19 20  2  0
 20 21  1  0
 21 22  2  0
 22 23  1  0
 13 24  2  0
 24 25  1  0
 25 26  1  0
 26 27  1  0
 27 28  1  0
 28 29  1  0
 29 30  2  0
 30 31  1  0
 31 32  2  0
 32 33  1  0
 33 34  2  0
 34 35  1  0
 25 36  2  0
 10 37  1  0
 37 38  1  0
 38  7  1  0
 36 11  1  0
 23 14  1  0
 35 26  1  0
 22 17  1  0
 34 29  1  0
  1 39  1  0
  1 40  1  0
  5 41  1  0
  5 42  1  0
  6 43  1  0
  6 44  1  0
  7 45  1  1
  8 46  1  0
  8 47  1  0
  9 48  1  0
  9 49  1  0
 10 50  1  6
 15 51  1  0
 15 52  1  0
 16 53  1  0
 16 54  1  0
 18 55  1  0
 19 56  1  0
 20 57  1  0
 21 58  1  0
 23 59  1  0
 23 60  1  0
 27 61  1  0
 27 62  1  0
 28 63  1  0
 28 64  1  0
 30 65  1  0
 31 66  1  0
 32 67  1  0
 33 68  1  0
 35 69  1  0
 35 70  1  0
 37 71  1  0
 37 72  1  0
 38 73  1  0
 38 74  1  0
M  END
>  <smiles>  (34) 
NS(=O)(=O)CC[C@H]1CC[C@H](c2nc(N3CCc4ccccc4C3)nc(N3CCc4ccccc4C3)n2)CC1

>  <score_type>  (34) 
oracle

>  <origin>  (34) 
autodockgpu

>  <m_score__min__energy>  (34) 
-10.08

>  <m_primary>  (34) 
energy

>  <rmsd>  (34) 
10.798288586485375

>  <m_score__min__rmsd>  (34) 
10.798288586485375

>  <meeko>  (34) 
{"free_energy": -9.47, "intermolecular_energy": -11.56, "internal_energy": -1.4, "cluster_size": 24, "cluster_id": 2, "rank_in_cluster": 3}

>  <energy>  (34) 
-8.95

>  <cluster_rmsd>  (34) 
1.56

>  <cluster>  (34) 
4

$$$$

     RDKit          3D

 74 79  0  0  0  0  0  0  0  0999 V2000
  146.3290   66.6560  216.2390 N   0  0  0  0  0  0  0  0  0  0  0  0
  145.8960   67.9340  217.3160 S   0  0  0  0  0  0  0  0  0  0  0  0
  146.7800   69.1140  217.1080 O   0  0  0  0  0  0  0  0  0  0  0  0
  146.0450   67.3970  218.7050 O   0  0  0  0  0  0  0  0  0  0  0  0
  144.1940   68.4140  217.0030 C   0  0  0  0  0  0  0  0  0  0  0  0
  143.2860   67.6260  217.9040 C   0  0  0  0  0  0  0  0  0  0  0  0
  142.6910   68.4610  219.0150 C   0  0  1  0  0  0  0  0  0  0  0  0
  143.0160   69.9140  218.9330 C   0  0  0  0  0  0  0  0  0  0  0  0
  141.8130   70.7880  218.6700 C   0  0  0  0  0  0  0  0  0  0  0  0
  140.6590   70.5500  219.5810 C   0  0  2  0  0  0  0  0  0  0  0  0
  140.5460   71.5400  220.6950 C   0  0  0  0  0  0  0  0  0  0  0  0
  140.5350   72.8750  220.4730 N   0  0  0  0  0  0  0  0  0  0  0  0
  140.4320   73.6990  221.5430 C   0  0  0  0  0  0  0  0  0  0  0  0
  140.4200   75.0980  221.2730 N   0  0  0  0  0  0  0  0  0  0  0  0
  140.5680   75.5470  219.9120 C   0  0  0  0  0  0  0  0  0  0  0  0
  141.7310   76.5160  219.8720 C   0  0  0  0  0  0  0  0  0  0  0  0
  141.4250   77.6090  220.8280 C   0  0  0  0  0  0  0  0  0  0  0  0
  141.8530   78.8930  220.5120 C   0  0  0  0  0  0  0  0  0  0  0  0
  141.5630   79.9090  221.4130 C   0  0  0  0  0  0  0  0  0  0  0  0
  140.8770   79.6800  222.5860 C   0  0  0  0  0  0  0  0  0  0  0  0
  140.4800   78.3890  222.8460 C   0  0  0  0  0  0  0  0  0  0  0  0
  140.7380   77.3380  221.9900 C   0  0  0  0  0  0  0  0  0  0  0  0
  140.2610   75.9940  222.3760 C   0  0  0  0  0  0  0  0  0  0  0  0
  140.3450   73.2050  222.7930 N   0  0  0  0  0  0  0  0  0  0  0  0
  140.3550   71.8790  223.0230 C   0  0  0  0  0  0  0  0  0  0  0  0
  140.2660   71.3220  224.3260 N   0  0  0  0  0  0  0  0  0  0  0  0
  141.0910   71.8400  225.3970 C   0  0  0  0  0  0  0  0  0  0  0  0
  140.3510   71.5420  226.6950 C   0  0  0  0  0  0  0  0  0  0  0  0
  140.2970   70.0520  226.8040 C   0  0  0  0  0  0  0  0  0  0  0  0
  140.7380   69.3800  227.9330 C   0  0  0  0  0  0  0  0  0  0  0  0
  140.6290   68.0000  227.8990 C   0  0  0  0  0  0  0  0  0  0  0  0
  140.1220   67.3140  226.8290 C   0  0  0  0  0  0  0  0  0  0  0  0
  139.6790   68.0020  225.6920 C   0  0  0  0  0  0  0  0  0  0  0  0
  139.7790   69.3840  225.7050 C   0  0  0  0  0  0  0  0  0  0  0  0
  139.3430   70.2340  224.5650 C   0  0  0  0  0  0  0  0  0  0  0  0
  140.4580   71.0840  221.9390 N   0  0  0  0  0  0  0  0  0  0  0  0
  140.7650   69.1890  220.2810 C   0  0  0  0  0  0  0  0  0  0  0  0
  141.2220   68.2340  219.1810 C   0  0  0  0  0  0  0  0  0  0  0  0
  146.2870   67.0530  215.2650 H   0  0  0  0  0  0  0  0  0  0  0  0
  145.5120   65.9800  216.2710 H   0  0  0  0  0  0  0  0  0  0  0  0
  144.0714   69.4883  217.2052 H   0  0  0  0  0  0  0  0  0  0  0  0
  143.9396   68.2112  215.9522 H   0  0  0  0  0  0  0  0  0  0  0  0
  142.4662   67.2103  217.2997 H   0  0  0  0  0  0  0  0  0  0  0  0
  143.8905   66.8354  218.3725 H   0  0  0  0  0  0  0  0  0  0  0  0
  143.1886   68.0981  219.9264 H   0  0  0  0  0  0  0  0  0  0  0  0
  143.7393   70.0632  218.1178 H   0  0  0  0  0  0  0  0  0  0  0  0
  143.4222   70.2097  219.9116 H   0  0  0  0  0  0  0  0  0  0  0  0
  141.4776   70.6076  217.6380 H   0  0  0  0  0  0  0  0  0  0  0  0
  142.1380   71.8242  218.8449 H   0  0  0  0  0  0  0  0  0  0  0  0
  139.7885   70.6236  218.9125 H   0  0  0  0  0  0  0  0  0  0  0  0
  140.7720   74.6892  219.2544 H   0  0  0  0  0  0  0  0  0  0  0  0
  139.6460   76.0364  219.5648 H   0  0  0  0  0  0  0  0  0  0  0  0
  142.6583   76.0042  220.1690 H   0  0  0  0  0  0  0  0  0  0  0  0
  141.8727   76.9140  218.8564 H   0  0  0  0  0  0  0  0  0  0  0  0
  142.4021   79.0972  219.5810 H   0  0  0  0  0  0  0  0  0  0  0  0
  141.8925   80.9328  221.1823 H   0  0  0  0  0  0  0  0  0  0  0  0
  140.6555   80.4980  223.2873 H   0  0  0  0  0  0  0  0  0  0  0  0
  139.9323   78.1853  223.7780 H   0  0  0  0  0  0  0  0  0  0  0  0
  140.8466   75.6289  223.2326 H   0  0  0  0  0  0  0  0  0  0  0  0
  139.1984   76.0477  222.6552 H   0  0  0  0  0  0  0  0  0  0  0  0
  142.0720   71.3424  225.3959 H   0  0  0  0  0  0  0  0  0  0  0  0
  141.2667   72.9193  225.2777 H   0  0  0  0  0  0  0  0  0  0  0  0
  140.8938   71.9687  227.5513 H   0  0  0  0  0  0  0  0  0  0  0  0
  139.3435   71.9834  226.6956 H   0  0  0  0  0  0  0  0  0  0  0  0
  141.1499   69.9110  228.8038 H   0  0  0  0  0  0  0  0  0  0  0  0
  140.9666   67.4270  228.7752 H   0  0  0  0  0  0  0  0  0  0  0  0
  140.0620   66.2161  226.8619 H   0  0  0  0  0  0  0  0  0  0  0  0
  139.2681   67.4665  224.8234 H   0  0  0  0  0  0  0  0  0  0  0  0
  139.2823   69.6124  223.6595 H   0  0  0  0  0  0  0  0  0  0  0  0
  138.3618   70.6647  224.8136 H   0  0  0  0  0  0  0  0  0  0  0  0
  139.7889   68.8809  220.6839 H   0  0  0  0  0  0  0  0  0  0  0  0
  141.4576   69.2085  221.1353 H   0  0  0  0  0  0  0  0  0  0  0  0
  140.6937   68.4537  218.2415 H   0  0  0  0  0  0  0  0  0  0  0  0
  141.0052   67.1879  219.4428 H   0  0  0  0  0  0  0  0  0  0  0  0
  1  2  1  0
  2  3  2  0
  2  4  2  0
  2  5  1  0
  5  6  1  0
  6  7  1  0
  7  8  1  0
  8  9  1  0
  9 10  1  0
 10 11  1  0
 11 12  2  0
 12 13  1  0
 13 14  1  0
 14 15  1  0
 15 16  1  0
 16 17  1  0
 17 18  2  0
 18 19  1  0
 19 20  2  0
 20 21  1  0
 21 22  2  0
 22 23  1  0
 13 24  2  0
 24 25  1  0
 25 26  1  0
 26 27  1  0
 27 28  1  0
 28 29  1  0
 29 30  2  0
 30 31  1  0
 31 32  2  0
 32 33  1  0
 33 34  2  0
 34 35  1  0
 25 36  2  0
 10 37  1  0
 37 38  1  0
 38  7  1  0
 36 11  1  0
 23 14  1  0
 35 26  1  0
 22 17  1  0
 34 29  1  0
  1 39  1  0
  1 40  1  0
  5 41  1  0
  5 42  1  0
  6 43  1  0
  6 44  1  0
  7 45  1  1
  8 46  1  0
  8 47  1  0
  9 48  1  0
  9 49  1  0
 10 50  1  6
 15 51  1  0
 15 52  1  0
 16 53  1  0
 16 54  1  0
 18 55  1  0
 19 56  1  0
 20 57  1  0
 21 58  1  0
 23 59  1  0
 23 60  1  0
 27 61  1  0
 27 62  1  0
 28 63  1  0
 28 64  1  0
 30 65  1  0
 31 66  1  0
 32 67  1  0
 33 68  1  0
 35 69  1  0
 35 70  1  0
 37 71  1  0
 37 72  1  0
 38 73  1  0
 38 74  1  0
M  END
>  <smiles>  (35) 
NS(=O)(=O)CC[C@H]1CC[C@H](c2nc(N3CCc4ccccc4C3)nc(N3CCc4ccccc4C3)n2)CC1

>  <score_type>  (35) 
oracle

>  <origin>  (35) 
autodockgpu

>  <m_score__min__energy>  (35) 
-10.08

>  <m_primary>  (35) 
energy

>  <rmsd>  (35) 
4.175889501646033

>  <m_score__min__rmsd>  (35) 
4.175889501646033

>  <meeko>  (35) 
{"free_energy": -9.13, "intermolecular_energy": -11.22, "internal_energy": -1.45, "cluster_size": 4, "cluster_id": 6, "rank_in_cluster": 1}

>  <energy>  (35) 
-9.35

>  <cluster_rmsd>  (35) 
0.0

>  <cluster>  (35) 
5

$$$$

     RDKit          3D

 74 79  0  0  0  0  0  0  0  0999 V2000
  145.3290   71.5150  220.0890 N   0  0  0  0  0  0  0  0  0  0  0  0
  145.5230   73.1900  219.7180 S   0  0  0  0  0  0  0  0  0  0  0  0
  146.0790   73.3600  218.3460 O   0  0  0  0  0  0  0  0  0  0  0  0
  146.4550   73.7560  220.7430 O   0  0  0  0  0  0  0  0  0  0  0  0
  143.9210   73.9990  219.8050 C   0  0  0  0  0  0  0  0  0  0  0  0
  142.8780   72.9860  220.1830 C   0  0  0  0  0  0  0  0  0  0  0  0
  141.7860   73.5650  221.0530 C   0  0  1  0  0  0  0  0  0  0  0  0
  141.2080   74.8420  220.5450 C   0  0  0  0  0  0  0  0  0  0  0  0
  139.7610   74.7270  220.1290 C   0  0  0  0  0  0  0  0  0  0  0  0
  138.8670   74.1050  221.1460 C   0  0  2  0  0  0  0  0  0  0  0  0
  138.0720   75.0880  221.9420 C   0  0  0  0  0  0  0  0  0  0  0  0
  136.9540   74.7310  222.6180 N   0  0  0  0  0  0  0  0  0  0  0  0
  136.2950   75.6890  223.3120 C   0  0  0  0  0  0  0  0  0  0  0  0
  135.1250   75.2780  224.0140 N   0  0  0  0  0  0  0  0  0  0  0  0
  134.0300   76.2060  224.1480 C   0  0  0  0  0  0  0  0  0  0  0  0
  133.7130   76.3320  225.6230 C   0  0  0  0  0  0  0  0  0  0  0  0
  133.4030   74.9700  226.1240 C   0  0  0  0  0  0  0  0  0  0  0  0
  132.4400   74.8430  227.1170 C   0  0  0  0  0  0  0  0  0  0  0  0
  132.1550   73.5650  227.5800 C   0  0  0  0  0  0  0  0  0  0  0  0
  132.7920   72.4460  227.0900 C   0  0  0  0  0  0  0  0  0  0  0  0
  133.7370   72.6330  226.1080 C   0  0  0  0  0  0  0  0  0  0  0  0
  134.0620   73.8780  225.6080 C   0  0  0  0  0  0  0  0  0  0  0  0
  135.0940   73.9550  224.5530 C   0  0  0  0  0  0  0  0  0  0  0  0
  136.7370   76.9610  223.3300 N   0  0  0  0  0  0  0  0  0  0  0  0
  137.8470   77.3260  222.6620 C   0  0  0  0  0  0  0  0  0  0  0  0
  138.3420   78.6560  222.6570 N   0  0  0  0  0  0  0  0  0  0  0  0
  137.7040   79.6660  221.8390 C   0  0  0  0  0  0  0  0  0  0  0  0
  137.9950   81.0060  222.5050 C   0  0  0  0  0  0  0  0  0  0  0  0
  139.4770   81.1890  222.4310 C   0  0  0  0  0  0  0  0  0  0  0  0
  140.0520   82.3300  221.8950 C   0  0  0  0  0  0  0  0  0  0  0  0
  141.4360   82.3670  221.8890 C   0  0  0  0  0  0  0  0  0  0  0  0
  142.2140   81.3520  222.3760 C   0  0  0  0  0  0  0  0  0  0  0  0
  141.6240   80.2020  222.9160 C   0  0  0  0  0  0  0  0  0  0  0  0
  140.2400   80.1450  222.9310 C   0  0  0  0  0  0  0  0  0  0  0  0
  139.4880   78.9830  223.4770 C   0  0  0  0  0  0  0  0  0  0  0  0
  138.4810   76.3510  221.9800 N   0  0  0  0  0  0  0  0  0  0  0  0
  139.6680   73.3170  222.1900 C   0  0  0  0  0  0  0  0  0  0  0  0
  140.7180   72.5680  221.3750 C   0  0  0  0  0  0  0  0  0  0  0  0
  144.8110   71.4650  221.0030 H   0  0  0  0  0  0  0  0  0  0  0  0
  146.3030   71.1720  220.3330 H   0  0  0  0  0  0  0  0  0  0  0  0
  143.9517   74.7962  220.5624 H   0  0  0  0  0  0  0  0  0  0  0  0
  143.6740   74.4376  218.8269 H   0  0  0  0  0  0  0  0  0  0  0  0
  142.4220   72.5913  219.2631 H   0  0  0  0  0  0  0  0  0  0  0  0
  143.3786   72.1962  220.7623 H   0  0  0  0  0  0  0  0  0  0  0  0
  142.2945   73.8238  221.9934 H   0  0  0  0  0  0  0  0  0  0  0  0
  141.7955   75.1675  219.6739 H   0  0  0  0  0  0  0  0  0  0  0  0
  141.2495   75.5664  221.3717 H   0  0  0  0  0  0  0  0  0  0  0  0
  139.7151   74.1177  219.2143 H   0  0  0  0  0  0  0  0  0  0  0  0
  139.3974   75.7550  219.9838 H   0  0  0  0  0  0  0  0  0  0  0  0
  138.1995   73.4697  220.5453 H   0  0  0  0  0  0  0  0  0  0  0  0
  134.3178   77.1867  223.7413 H   0  0  0  0  0  0  0  0  0  0  0  0
  133.1503   75.8473  223.5936 H   0  0  0  0  0  0  0  0  0  0  0  0
  134.5800   76.7430  226.1609 H   0  0  0  0  0  0  0  0  0  0  0  0
  132.8613   77.0096  225.7825 H   0  0  0  0  0  0  0  0  0  0  0  0
  131.9211   75.7241  227.5226 H   0  0  0  0  0  0  0  0  0  0  0  0
  131.3944   73.4420  228.3651 H   0  0  0  0  0  0  0  0  0  0  0  0
  132.5540   71.4413  227.4695 H   0  0  0  0  0  0  0  0  0  0  0  0
  134.2565   71.7518  225.7034 H   0  0  0  0  0  0  0  0  0  0  0  0
  136.0767   73.7108  224.9826 H   0  0  0  0  0  0  0  0  0  0  0  0
  134.8556   73.2383  223.7533 H   0  0  0  0  0  0  0  0  0  0  0  0
  138.1195   79.6491  220.8206 H   0  0  0  0  0  0  0  0  0  0  0  0
  136.6216   79.4879  221.7574 H   0  0  0  0  0  0  0  0  0  0  0  0
  137.4822   81.8185  221.9694 H   0  0  0  0  0  0  0  0  0  0  0  0
  137.6378   81.0252  223.5452 H   0  0  0  0  0  0  0  0  0  0  0  0
  139.4451   83.1571  221.4979 H   0  0  0  0  0  0  0  0  0  0  0  0
  141.9342   83.2550  221.4728 H   0  0  0  0  0  0  0  0  0  0  0  0
  143.3100   81.4398  222.3432 H   0  0  0  0  0  0  0  0  0  0  0  0
  142.2350   79.3775  223.3121 H   0  0  0  0  0  0  0  0  0  0  0  0
  140.1581   78.1116  223.5174 H   0  0  0  0  0  0  0  0  0  0  0  0
  139.1270   79.2487  224.4815 H   0  0  0  0  0  0  0  0  0  0  0  0
  139.0178   72.6122  222.7290 H   0  0  0  0  0  0  0  0  0  0  0  0
  140.1163   73.9686  222.9545 H   0  0  0  0  0  0  0  0  0  0  0  0
  140.2727   72.1740  220.4496 H   0  0  0  0  0  0  0  0  0  0  0  0
  141.1241   71.7123  221.9343 H   0  0  0  0  0  0  0  0  0  0  0  0
  1  2  1  0
  2  3  2  0
  2  4  2  0
  2  5  1  0
  5  6  1  0
  6  7  1  0
  7  8  1  0
  8  9  1  0
  9 10  1  0
 10 11  1  0
 11 12  2  0
 12 13  1  0
 13 14  1  0
 14 15  1  0
 15 16  1  0
 16 17  1  0
 17 18  2  0
 18 19  1  0
 19 20  2  0
 20 21  1  0
 21 22  2  0
 22 23  1  0
 13 24  2  0
 24 25  1  0
 25 26  1  0
 26 27  1  0
 27 28  1  0
 28 29  1  0
 29 30  2  0
 30 31  1  0
 31 32  2  0
 32 33  1  0
 33 34  2  0
 34 35  1  0
 25 36  2  0
 10 37  1  0
 37 38  1  0
 38  7  1  0
 36 11  1  0
 23 14  1  0
 35 26  1  0
 22 17  1  0
 34 29  1  0
  1 39  1  0
  1 40  1  0
  5 41  1  0
  5 42  1  0
  6 43  1  0
  6 44  1  0
  7 45  1  1
  8 46  1  0
  8 47  1  0
  9 48  1  0
  9 49  1  0
 10 50  1  6
 15 51  1  0
 15 52  1  0
 16 53  1  0
 16 54  1  0
 18 55  1  0
 19 56  1  0
 20 57  1  0
 21 58  1  0
 23 59  1  0
 23 60  1  0
 27 61  1  0
 27 62  1  0
 28 63  1  0
 28 64  1  0
 30 65  1  0
 31 66  1  0
 32 67  1  0
 33 68  1  0
 35 69  1  0
 35 70  1  0
 37 71  1  0
 37 72  1  0
 38 73  1  0
 38 74  1  0
M  END
>  <smiles>  (36) 
NS(=O)(=O)CC[C@H]1CC[C@H](c2nc(N3CCc4ccccc4C3)nc(N3CCc4ccccc4C3)n2)CC1

>  <score_type>  (36) 
oracle

>  <origin>  (36) 
autodockgpu

>  <m_score__min__energy>  (36) 
-10.08

>  <m_primary>  (36) 
energy

>  <rmsd>  (36) 
11.317997005726234

>  <m_score__min__rmsd>  (36) 
11.317997005726234

>  <meeko>  (36) 
{"free_energy": -9.37, "intermolecular_energy": -11.46, "internal_energy": -1.35, "cluster_size": 24, "cluster_id": 2, "rank_in_cluster": 8}

>  <energy>  (36) 
-8.51

>  <cluster_rmsd>  (36) 
1.26

>  <cluster>  (36) 
5

$$$$

     RDKit          3D

 74 79  0  0  0  0  0  0  0  0999 V2000
  143.0300   79.3220  222.8950 N   0  0  0  0  0  0  0  0  0  0  0  0
  141.7260   80.4220  223.1580 S   0  0  0  0  0  0  0  0  0  0  0  0
  141.3920   81.1470  221.9000 O   0  0  0  0  0  0  0  0  0  0  0  0
  142.1730   81.3780  224.2190 O   0  0  0  0  0  0  0  0  0  0  0  0
  140.2840   79.5010  223.7050 C   0  0  0  0  0  0  0  0  0  0  0  0
  139.7240   78.7290  222.5440 C   0  0  0  0  0  0  0  0  0  0  0  0
  140.2790   77.3270  222.4490 C   0  0  1  0  0  0  0  0  0  0  0  0
  139.2790   76.2500  222.7010 C   0  0  0  0  0  0  0  0  0  0  0  0
  138.9920   75.3960  221.4890 C   0  0  0  0  0  0  0  0  0  0  0  0
  140.2010   74.8520  220.8100 C   0  0  2  0  0  0  0  0  0  0  0  0
  140.5070   73.4310  221.1550 C   0  0  0  0  0  0  0  0  0  0  0  0
  140.1860   72.8970  222.3580 N   0  0  0  0  0  0  0  0  0  0  0  0
  140.5050   71.6000  222.5850 C   0  0  0  0  0  0  0  0  0  0  0  0
  140.1510   71.0700  223.8590 N   0  0  0  0  0  0  0  0  0  0  0  0
  140.3420   71.8860  225.0320 C   0  0  0  0  0  0  0  0  0  0  0  0
  141.1960   71.1000  226.0040 C   0  0  0  0  0  0  0  0  0  0  0  0
  140.4900   69.8230  226.2770 C   0  0  0  0  0  0  0  0  0  0  0  0
  140.5920   69.2800  227.5510 C   0  0  0  0  0  0  0  0  0  0  0  0
  139.9290   68.0850  227.7980 C   0  0  0  0  0  0  0  0  0  0  0  0
  139.1890   67.4410  226.8310 C   0  0  0  0  0  0  0  0  0  0  0  0
  139.1240   68.0250  225.5870 C   0  0  0  0  0  0  0  0  0  0  0  0
  139.7610   69.2110  225.2830 C   0  0  0  0  0  0  0  0  0  0  0  0
  139.6190   69.7440  223.9110 C   0  0  0  0  0  0  0  0  0  0  0  0
  141.1240   70.8620  221.6430 N   0  0  0  0  0  0  0  0  0  0  0  0
  141.4460   71.3840  220.4450 C   0  0  0  0  0  0  0  0  0  0  0  0
  142.0980   70.6370  219.4290 N   0  0  0  0  0  0  0  0  0  0  0  0
  141.3220   69.8580  218.4880 C   0  0  0  0  0  0  0  0  0  0  0  0
  142.1690   69.7370  217.2270 C   0  0  0  0  0  0  0  0  0  0  0  0
  143.3810   68.9550  217.6190 C   0  0  0  0  0  0  0  0  0  0  0  0
  143.7780   67.8190  216.9320 C   0  0  0  0  0  0  0  0  0  0  0  0
  144.9190   67.1920  217.4030 C   0  0  0  0  0  0  0  0  0  0  0  0
  145.6320   67.6440  218.4800 C   0  0  0  0  0  0  0  0  0  0  0  0
  145.2230   68.7940  219.1680 C   0  0  0  0  0  0  0  0  0  0  0  0
  144.0830   69.4360  218.7140 C   0  0  0  0  0  0  0  0  0  0  0  0
  143.5420   70.6660  219.3520 C   0  0  0  0  0  0  0  0  0  0  0  0
  141.1160   72.6760  220.2480 N   0  0  0  0  0  0  0  0  0  0  0  0
  141.4640   75.6280  221.2030 C   0  0  0  0  0  0  0  0  0  0  0  0
  141.0320   77.0910  221.1770 C   0  0  0  0  0  0  0  0  0  0  0  0
  143.4600   79.5770  221.9700 H   0  0  0  0  0  0  0  0  0  0  0  0
  142.5690   78.3860  222.7100 H   0  0  0  0  0  0  0  0  0  0  0  0
  140.5738   78.8041  224.5052 H   0  0  0  0  0  0  0  0  0  0  0  0
  139.5234   80.1970  224.0886 H   0  0  0  0  0  0  0  0  0  0  0  0
  138.6316   78.6673  222.6575 H   0  0  0  0  0  0  0  0  0  0  0  0
  140.0102   79.2608  221.6246 H   0  0  0  0  0  0  0  0  0  0  0  0
  140.9978   77.2625  223.2792 H   0  0  0  0  0  0  0  0  0  0  0  0
  138.3385   76.7181  223.0272 H   0  0  0  0  0  0  0  0  0  0  0  0
  139.7049   75.5875  223.4689 H   0  0  0  0  0  0  0  0  0  0  0  0
  138.4372   76.0078  220.7624 H   0  0  0  0  0  0  0  0  0  0  0  0
  138.4210   74.5276  221.8492 H   0  0  0  0  0  0  0  0  0  0  0  0
  139.9555   74.9426  219.7416 H   0  0  0  0  0  0  0  0  0  0  0  0
  140.8505   72.8223  224.7585 H   0  0  0  0  0  0  0  0  0  0  0  0
  139.3733   72.1396  225.4874 H   0  0  0  0  0  0  0  0  0  0  0  0
  142.1822   70.8979  225.5607 H   0  0  0  0  0  0  0  0  0  0  0  0
  141.3506   71.6668  226.9340 H   0  0  0  0  0  0  0  0  0  0  0  0
  141.1776   69.7790  228.3372 H   0  0  0  0  0  0  0  0  0  0  0  0
  139.9971   67.6373  228.8005 H   0  0  0  0  0  0  0  0  0  0  0  0
  138.6696   66.4954  227.0453 H   0  0  0  0  0  0  0  0  0  0  0  0
  138.5391   67.5251  224.8008 H   0  0  0  0  0  0  0  0  0  0  0  0
  140.1687   69.1003  223.2085 H   0  0  0  0  0  0  0  0  0  0  0  0
  138.5549   69.7640  223.6330 H   0  0  0  0  0  0  0  0  0  0  0  0
  141.1117   68.8608  218.9020 H   0  0  0  0  0  0  0  0  0  0  0  0
  140.3557   70.3382  218.2744 H   0  0  0  0  0  0  0  0  0  0  0  0
  141.6106   69.2081  216.4406 H   0  0  0  0  0  0  0  0  0  0  0  0
  142.4390   70.7252  216.8263 H   0  0  0  0  0  0  0  0  0  0  0  0
  143.2198   67.4380  216.0641 H   0  0  0  0  0  0  0  0  0  0  0  0
  145.2695   66.2864  216.8863 H   0  0  0  0  0  0  0  0  0  0  0  0
  146.5312   67.1015  218.8074 H   0  0  0  0  0  0  0  0  0  0  0  0
  145.7853   69.1720  220.0346 H   0  0  0  0  0  0  0  0  0  0  0  0
  143.9518   70.7498  220.3694 H   0  0  0  0  0  0  0  0  0  0  0  0
  143.8357   71.5293  218.7368 H   0  0  0  0  0  0  0  0  0  0  0  0
  142.2728   75.4478  220.4796 H   0  0  0  0  0  0  0  0  0  0  0  0
  141.8557   75.3232  222.1847 H   0  0  0  0  0  0  0  0  0  0  0  0
  140.3836   77.2817  220.3091 H   0  0  0  0  0  0  0  0  0  0  0  0
  141.8986   77.7633  221.0937 H   0  0  0  0  0  0  0  0  0  0  0  0
  1  2  1  0
  2  3  2  0
  2  4  2  0
  2  5  1  0
  5  6  1  0
  6  7  1  0
  7  8  1  0
  8  9  1  0
  9 10  1  0
 10 11  1  0
 11 12  2  0
 12 13  1  0
 13 14  1  0
 14 15  1  0
 15 16  1  0
 16 17  1  0
 17 18  2  0
 18 19  1  0
 19 20  2  0
 20 21  1  0
 21 22  2  0
 22 23  1  0
 13 24  2  0
 24 25  1  0
 25 26  1  0
 26 27  1  0
 27 28  1  0
 28 29  1  0
 29 30  2  0
 30 31  1  0
 31 32  2  0
 32 33  1  0
 33 34  2  0
 34 35  1  0
 25 36  2  0
 10 37  1  0
 37 38  1  0
 38  7  1  0
 36 11  1  0
 23 14  1  0
 35 26  1  0
 22 17  1  0
 34 29  1  0
  1 39  1  0
  1 40  1  0
  5 41  1  0
  5 42  1  0
  6 43  1  0
  6 44  1  0
  7 45  1  1
  8 46  1  0
  8 47  1  0
  9 48  1  0
  9 49  1  0
 10 50  1  6
 15 51  1  0
 15 52  1  0
 16 53  1  0
 16 54  1  0
 18 55  1  0
 19 56  1  0
 20 57  1  0
 21 58  1  0
 23 59  1  0
 23 60  1  0
 27 61  1  0
 27 62  1  0
 28 63  1  0
 28 64  1  0
 30 65  1  0
 31 66  1  0
 32 67  1  0
 33 68  1  0
 35 69  1  0
 35 70  1  0
 37 71  1  0
 37 72  1  0
 38 73  1  0
 38 74  1  0
M  END
>  <smiles>  (37) 
NS(=O)(=O)CC[C@H]1CC[C@H](c2nc(N3CCc4ccccc4C3)nc(N3CCc4ccccc4C3)n2)CC1

>  <score_type>  (37) 
oracle

>  <origin>  (37) 
autodockgpu

>  <m_score__min__energy>  (37) 
-10.08

>  <m_primary>  (37) 
energy

>  <rmsd>  (37) 
12.004251308291344

>  <m_score__min__rmsd>  (37) 
12.004251308291344

>  <meeko>  (37) 
{"free_energy": -9.66, "intermolecular_energy": -11.75, "internal_energy": -1.39, "cluster_size": 3, "cluster_id": 4, "rank_in_cluster": 1}

>  <energy>  (37) 
-7.86

>  <cluster_rmsd>  (37) 
1.64

>  <cluster>  (37) 
5

$$$$

     RDKit          3D

 74 79  0  0  0  0  0  0  0  0999 V2000
  131.5490   72.7180  227.9760 N   0  0  0  0  0  0  0  0  0  0  0  0
  131.9970   73.7560  226.6710 S   0  0  0  0  0  0  0  0  0  0  0  0
  133.4010   74.2250  226.8360 O   0  0  0  0  0  0  0  0  0  0  0  0
  131.0460   74.9110  226.6910 O   0  0  0  0  0  0  0  0  0  0  0  0
  131.8590   72.8490  225.1270 C   0  0  0  0  0  0  0  0  0  0  0  0
  132.2850   73.7400  223.9940 C   0  0  0  0  0  0  0  0  0  0  0  0
  133.7870   73.8520  223.8690 C   0  0  1  0  0  0  0  0  0  0  0  0
  134.4960   72.5440  223.7710 C   0  0  0  0  0  0  0  0  0  0  0  0
  135.1690   72.3200  222.4390 C   0  0  0  0  0  0  0  0  0  0  0  0
  136.0470   73.4360  221.9870 C   0  0  2  0  0  0  0  0  0  0  0  0
  137.5030   73.2060  222.2320 C   0  0  0  0  0  0  0  0  0  0  0  0
  138.4580   73.9980  221.6900 N   0  0  0  0  0  0  0  0  0  0  0  0
  139.7540   73.7130  221.9640 C   0  0  0  0  0  0  0  0  0  0  0  0
  140.7330   74.5680  221.3800 N   0  0  0  0  0  0  0  0  0  0  0  0
  140.8730   75.9110  221.8820 C   0  0  0  0  0  0  0  0  0  0  0  0
  140.7300   76.8570  220.7090 C   0  0  0  0  0  0  0  0  0  0  0  0
  141.7640   76.4830  219.7130 C   0  0  0  0  0  0  0  0  0  0  0  0
  142.3480   77.4980  218.9650 C   0  0  0  0  0  0  0  0  0  0  0  0
  143.3160   77.1390  218.0360 C   0  0  0  0  0  0  0  0  0  0  0  0
  143.7010   75.8300  217.8420 C   0  0  0  0  0  0  0  0  0  0  0  0
  143.0880   74.8680  218.6100 C   0  0  0  0  0  0  0  0  0  0  0  0
  142.1210   75.1640  219.5500 C   0  0  0  0  0  0  0  0  0  0  0  0
  141.5330   74.0460  220.3170 C   0  0  0  0  0  0  0  0  0  0  0  0
  140.0840   72.6700  222.7510 N   0  0  0  0  0  0  0  0  0  0  0  0
  139.1410   71.8780  223.2940 C   0  0  0  0  0  0  0  0  0  0  0  0
  139.4510   70.7710  224.1280 N   0  0  0  0  0  0  0  0  0  0  0  0
  138.5290   69.6610  224.2350 C   0  0  0  0  0  0  0  0  0  0  0  0
  139.3620   68.4440  224.6160 C   0  0  0  0  0  0  0  0  0  0  0  0
  139.9240   68.7380  225.9700 C   0  0  0  0  0  0  0  0  0  0  0  0
  139.7690   67.8660  227.0370 C   0  0  0  0  0  0  0  0  0  0  0  0
  140.3400   68.2640  228.2330 C   0  0  0  0  0  0  0  0  0  0  0  0
  141.0200   69.4420  228.3840 C   0  0  0  0  0  0  0  0  0  0  0  0
  141.1710   70.3170  227.3000 C   0  0  0  0  0  0  0  0  0  0  0  0
  140.6070   69.9380  226.0930 C   0  0  0  0  0  0  0  0  0  0  0  0
  140.6950   70.7730  224.8650 C   0  0  0  0  0  0  0  0  0  0  0  0
  137.8610   72.1860  223.0040 N   0  0  0  0  0  0  0  0  0  0  0  0
  135.7300   74.7380  222.7350 C   0  0  0  0  0  0  0  0  0  0  0  0
  134.2050   74.7870  222.7780 C   0  0  0  0  0  0  0  0  0  0  0  0
  131.3960   73.3340  228.8150 H   0  0  0  0  0  0  0  0  0  0  0  0
  132.4310   72.1800  228.2160 H   0  0  0  0  0  0  0  0  0  0  0  0
  132.5079   71.9615  225.1618 H   0  0  0  0  0  0  0  0  0  0  0  0
  130.8171   72.5300  224.9762 H   0  0  0  0  0  0  0  0  0  0  0  0
  131.8839   73.3306  223.0551 H   0  0  0  0  0  0  0  0  0  0  0  0
  131.8941   74.7473  224.2002 H   0  0  0  0  0  0  0  0  0  0  0  0
  134.1079   74.2905  224.8254 H   0  0  0  0  0  0  0  0  0  0  0  0
  133.7638   71.7387  223.9305 H   0  0  0  0  0  0  0  0  0  0  0  0
  135.2869   72.5477  224.5355 H   0  0  0  0  0  0  0  0  0  0  0  0
  134.3861   72.1719  221.6806 H   0  0  0  0  0  0  0  0  0  0  0  0
  135.8221   71.4439  222.5654 H   0  0  0  0  0  0  0  0  0  0  0  0
  135.8450   73.4975  220.9075 H   0  0  0  0  0  0  0  0  0  0  0  0
  140.0899   76.1163  222.6267 H   0  0  0  0  0  0  0  0  0  0  0  0
  141.8522   76.0418  222.3658 H   0  0  0  0  0  0  0  0  0  0  0  0
  139.7278   76.7591  220.2663 H   0  0  0  0  0  0  0  0  0  0  0  0
  140.8592   77.9006  221.0319 H   0  0  0  0  0  0  0  0  0  0  0  0
  142.0540   78.5489  219.1038 H   0  0  0  0  0  0  0  0  0  0  0  0
  143.7920   77.9270  217.4340 H   0  0  0  0  0  0  0  0  0  0  0  0
  144.4695   75.5648  217.1010 H   0  0  0  0  0  0  0  0  0  0  0  0
  143.3808   73.8170  218.4693 H   0  0  0  0  0  0  0  0  0  0  0  0
  140.9056   73.4346  219.6518 H   0  0  0  0  0  0  0  0  0  0  0  0
  142.3381   73.4237  220.7348 H   0  0  0  0  0  0  0  0  0  0  0  0
  137.7767   69.8650  225.0112 H   0  0  0  0  0  0  0  0  0  0  0  0
  137.9924   69.4962  223.2890 H   0  0  0  0  0  0  0  0  0  0  0  0
  138.7304   67.5441  224.6513 H   0  0  0  0  0  0  0  0  0  0  0  0
  140.1584   68.2543  223.8813 H   0  0  0  0  0  0  0  0  0  0  0  0
  139.2249   66.9151  226.9386 H   0  0  0  0  0  0  0  0  0  0  0  0
  140.2425   67.6009  229.1053 H   0  0  0  0  0  0  0  0  0  0  0  0
  141.4505   69.7035  229.3619 H   0  0  0  0  0  0  0  0  0  0  0  0
  141.7158   71.2670  227.4035 H   0  0  0  0  0  0  0  0  0  0  0  0
  140.9373   71.8066  225.1531 H   0  0  0  0  0  0  0  0  0  0  0  0
  141.4781   70.3509  224.2181 H   0  0  0  0  0  0  0  0  0  0  0  0
  136.1326   75.6065  222.1932 H   0  0  0  0  0  0  0  0  0  0  0  0
  136.1797   74.7662  223.7385 H   0  0  0  0  0  0  0  0  0  0  0  0
  133.7858   74.4605  221.8148 H   0  0  0  0  0  0  0  0  0  0  0  0
  133.8422   75.8085  222.9651 H   0  0  0  0  0  0  0  0  0  0  0  0
  1  2  1  0
  2  3  2  0
  2  4  2  0
  2  5  1  0
  5  6  1  0
  6  7  1  0
  7  8  1  0
  8  9  1  0
  9 10  1  0
 10 11  1  0
 11 12  2  0
 12 13  1  0
 13 14  1  0
 14 15  1  0
 15 16  1  0
 16 17  1  0
 17 18  2  0
 18 19  1  0
 19 20  2  0
 20 21  1  0
 21 22  2  0
 22 23  1  0
 13 24  2  0
 24 25  1  0
 25 26  1  0
 26 27  1  0
 27 28  1  0
 28 29  1  0
 29 30  2  0
 30 31  1  0
 31 32  2  0
 32 33  1  0
 33 34  2  0
 34 35  1  0
 25 36  2  0
 10 37  1  0
 37 38  1  0
 38  7  1  0
 36 11  1  0
 23 14  1  0
 35 26  1  0
 22 17  1  0
 34 29  1  0
  1 39  1  0
  1 40  1  0
  5 41  1  0
  5 42  1  0
  6 43  1  0
  6 44  1  0
  7 45  1  1
  8 46  1  0
  8 47  1  0
  9 48  1  0
  9 49  1  0
 10 50  1  6
 15 51  1  0
 15 52  1  0
 16 53  1  0
 16 54  1  0
 18 55  1  0
 19 56  1  0
 20 57  1  0
 21 58  1  0
 23 59  1  0
 23 60  1  0
 27 61  1  0
 27 62  1  0
 28 63  1  0
 28 64  1  0
 30 65  1  0
 31 66  1  0
 32 67  1  0
 33 68  1  0
 35 69  1  0
 35 70  1  0
 37 71  1  0
 37 72  1  0
 38 73  1  0
 38 74  1  0
M  END
>  <smiles>  (38) 
NS(=O)(=O)CC[C@H]1CC[C@H](c2nc(N3CCc4ccccc4C3)nc(N3CCc4ccccc4C3)n2)CC1

>  <score_type>  (38) 
oracle

>  <origin>  (38) 
autodockgpu

>  <m_score__min__energy>  (38) 
-10.08

>  <m_primary>  (38) 
energy

>  <rmsd>  (38) 
5.343982702826505

>  <m_score__min__rmsd>  (38) 
5.343982702826505

>  <meeko>  (38) 
{"free_energy": -9.35, "intermolecular_energy": -11.44, "internal_energy": -1.43, "cluster_size": 3, "cluster_id": 5, "rank_in_cluster": 1}

>  <energy>  (38) 
-9.13

>  <cluster_rmsd>  (38) 
0.0

>  <cluster>  (38) 
6

$$$$

     RDKit          3D

 74 79  0  0  0  0  0  0  0  0999 V2000
  133.5730   77.8630  228.1650 N   0  0  0  0  0  0  0  0  0  0  0  0
  133.0140   77.2610  226.6460 S   0  0  0  0  0  0  0  0  0  0  0  0
  134.0800   77.3820  225.6120 O   0  0  0  0  0  0  0  0  0  0  0  0
  131.8170   78.0770  226.2720 O   0  0  0  0  0  0  0  0  0  0  0  0
  132.5690   75.5310  226.8280 C   0  0  0  0  0  0  0  0  0  0  0  0
  132.5490   74.8820  225.4730 C   0  0  0  0  0  0  0  0  0  0  0  0
  133.9320   74.6990  224.8900 C   0  0  1  0  0  0  0  0  0  0  0  0
  134.5380   73.3620  225.1550 C   0  0  0  0  0  0  0  0  0  0  0  0
  134.7370   72.5320  223.9090 C   0  0  0  0  0  0  0  0  0  0  0  0
  135.4470   73.2300  222.8010 C   0  0  2  0  0  0  0  0  0  0  0  0
  136.8980   72.8870  222.6940 C   0  0  0  0  0  0  0  0  0  0  0  0
  137.7300   73.5330  221.8440 N   0  0  0  0  0  0  0  0  0  0  0  0
  139.0300   73.1530  221.8110 C   0  0  0  0  0  0  0  0  0  0  0  0
  139.8780   73.8550  220.9070 N   0  0  0  0  0  0  0  0  0  0  0  0
  140.7210   73.1010  220.0140 C   0  0  0  0  0  0  0  0  0  0  0  0
  142.1450   73.5730  220.2190 C   0  0  0  0  0  0  0  0  0  0  0  0
  142.1650   75.0350  219.9640 C   0  0  0  0  0  0  0  0  0  0  0  0
  143.3010   75.5800  219.3780 C   0  0  0  0  0  0  0  0  0  0  0  0
  143.3110   76.9490  219.1420 C   0  0  0  0  0  0  0  0  0  0  0  0
  142.2470   77.7600  219.4690 C   0  0  0  0  0  0  0  0  0  0  0  0
  141.1500   77.1650  220.0480 C   0  0  0  0  0  0  0  0  0  0  0  0
  141.0810   75.8100  220.3060 C   0  0  0  0  0  0  0  0  0  0  0  0
  139.8490   75.2840  220.9310 C   0  0  0  0  0  0  0  0  0  0  0  0
  139.4830   72.1600  222.6020 N   0  0  0  0  0  0  0  0  0  0  0  0
  138.6630   71.5130  223.4510 C   0  0  0  0  0  0  0  0  0  0  0  0
  139.1040   70.4630  224.2980 N   0  0  0  0  0  0  0  0  0  0  0  0
  138.2670   69.3020  224.5140 C   0  0  0  0  0  0  0  0  0  0  0  0
  139.2040   68.1560  224.8750 C   0  0  0  0  0  0  0  0  0  0  0  0
  139.8410   68.5400  226.1720 C   0  0  0  0  0  0  0  0  0  0  0  0
  139.8220   67.7040  227.2780 C   0  0  0  0  0  0  0  0  0  0  0  0
  140.4510   68.1860  228.4130 C   0  0  0  0  0  0  0  0  0  0  0  0
  141.0620   69.4090  228.4700 C   0  0  0  0  0  0  0  0  0  0  0  0
  141.0760   70.2470  227.3470 C   0  0  0  0  0  0  0  0  0  0  0  0
  140.4520   69.7840  226.2000 C   0  0  0  0  0  0  0  0  0  0  0  0
  140.3960   70.5720  224.9400 C   0  0  0  0  0  0  0  0  0  0  0  0
  137.3750   71.9130  223.4610 N   0  0  0  0  0  0  0  0  0  0  0  0
  135.4230   74.7530  222.9880 C   0  0  0  0  0  0  0  0  0  0  0  0
  133.9960   75.0540  223.4380 C   0  0  0  0  0  0  0  0  0  0  0  0
  133.9540   78.8270  227.9880 H   0  0  0  0  0  0  0  0  0  0  0  0
  134.4360   77.2890  228.3880 H   0  0  0  0  0  0  0  0  0  0  0  0
  133.3082   75.0260  227.4672 H   0  0  0  0  0  0  0  0  0  0  0  0
  131.5744   75.4515  227.2911 H   0  0  0  0  0  0  0  0  0  0  0  0
  132.0723   73.8948  225.5633 H   0  0  0  0  0  0  0  0  0  0  0  0
  131.9898   75.5452  224.7966 H   0  0  0  0  0  0  0  0  0  0  0  0
  134.5568   75.4208  225.4364 H   0  0  0  0  0  0  0  0  0  0  0  0
  133.8769   72.8097  225.8391 H   0  0  0  0  0  0  0  0  0  0  0  0
  135.5336   73.5386  225.5880 H   0  0  0  0  0  0  0  0  0  0  0  0
  133.7471   72.2242  223.5410 H   0  0  0  0  0  0  0  0  0  0  0  0
  135.3744   71.6840  224.2000 H   0  0  0  0  0  0  0  0  0  0  0  0
  134.9060   72.8971  221.9030 H   0  0  0  0  0  0  0  0  0  0  0  0
  140.6451   72.0279  220.2435 H   0  0  0  0  0  0  0  0  0  0  0  0
  140.4106   73.2533  218.9698 H   0  0  0  0  0  0  0  0  0  0  0  0
  142.4655   73.3662  221.2507 H   0  0  0  0  0  0  0  0  0  0  0  0
  142.8315   73.0489  219.5378 H   0  0  0  0  0  0  0  0  0  0  0  0
  144.1619   74.9497  219.1105 H   0  0  0  0  0  0  0  0  0  0  0  0
  144.1999   77.4010  218.6777 H   0  0  0  0  0  0  0  0  0  0  0  0
  142.2733   78.8424  219.2746 H   0  0  0  0  0  0  0  0  0  0  0  0
  140.2902   77.7961  220.3172 H   0  0  0  0  0  0  0  0  0  0  0  0
  139.7881   75.6325  221.9726 H   0  0  0  0  0  0  0  0  0  0  0  0
  138.9715   75.6434  220.3735 H   0  0  0  0  0  0  0  0  0  0  0  0
  137.5613   69.4897  225.3367 H   0  0  0  0  0  0  0  0  0  0  0  0
  137.6751   69.0653  223.6176 H   0  0  0  0  0  0  0  0  0  0  0  0
  138.6374   67.2201  224.9894 H   0  0  0  0  0  0  0  0  0  0  0  0
  139.9561   67.9870  224.0903 H   0  0  0  0  0  0  0  0  0  0  0  0
  139.3364   66.7173  227.2549 H   0  0  0  0  0  0  0  0  0  0  0  0
  140.4601   67.5546  229.3137 H   0  0  0  0  0  0  0  0  0  0  0  0
  141.5449   69.7362  229.4026 H   0  0  0  0  0  0  0  0  0  0  0  0
  141.5629   71.2330  227.3750 H   0  0  0  0  0  0  0  0  0  0  0  0
  140.5908   71.6295  225.1719 H   0  0  0  0  0  0  0  0  0  0  0  0
  141.1558   70.1730  224.2518 H   0  0  0  0  0  0  0  0  0  0  0  0
  135.6497   75.2656  222.0415 H   0  0  0  0  0  0  0  0  0  0  0  0
  136.1746   75.0999  223.7124 H   0  0  0  0  0  0  0  0  0  0  0  0
  133.2796   74.4469  222.8652 H   0  0  0  0  0  0  0  0  0  0  0  0
  133.7380   76.1104  223.2721 H   0  0  0  0  0  0  0  0  0  0  0  0
  1  2  1  0
  2  3  2  0
  2  4  2  0
  2  5  1  0
  5  6  1  0
  6  7  1  0
  7  8  1  0
  8  9  1  0
  9 10  1  0
 10 11  1  0
 11 12  2  0
 12 13  1  0
 13 14  1  0
 14 15  1  0
 15 16  1  0
 16 17  1  0
 17 18  2  0
 18 19  1  0
 19 20  2  0
 20 21  1  0
 21 22  2  0
 22 23  1  0
 13 24  2  0
 24 25  1  0
 25 26  1  0
 26 27  1  0
 27 28  1  0
 28 29  1  0
 29 30  2  0
 30 31  1  0
 31 32  2  0
 32 33  1  0
 33 34  2  0
 34 35  1  0
 25 36  2  0
 10 37  1  0
 37 38  1  0
 38  7  1  0
 36 11  1  0
 23 14  1  0
 35 26  1  0
 22 17  1  0
 34 29  1  0
  1 39  1  0
  1 40  1  0
  5 41  1  0
  5 42  1  0
  6 43  1  0
  6 44  1  0
  7 45  1  1
  8 46  1  0
  8 47  1  0
  9 48  1  0
  9 49  1  0
 10 50  1  6
 15 51  1  0
 15 52  1  0
 16 53  1  0
 16 54  1  0
 18 55  1  0
 19 56  1  0
 20 57  1  0
 21 58  1  0
 23 59  1  0
 23 60  1  0
 27 61  1  0
 27 62  1  0
 28 63  1  0
 28 64  1  0
 30 65  1  0
 31 66  1  0
 32 67  1  0
 33 68  1  0
 35 69  1  0
 35 70  1  0
 37 71  1  0
 37 72  1  0
 38 73  1  0
 38 74  1  0
M  END
>  <smiles>  (39) 
NS(=O)(=O)CC[C@H]1CC[C@H](c2nc(N3CCc4ccccc4C3)nc(N3CCc4ccccc4C3)n2)CC1

>  <score_type>  (39) 
oracle

>  <origin>  (39) 
autodockgpu

>  <m_score__min__energy>  (39) 
-10.08

>  <m_primary>  (39) 
energy

>  <rmsd>  (39) 
4.309655605289354

>  <m_score__min__rmsd>  (39) 
4.309655605289354

>  <meeko>  (39) 
{"free_energy": -8.59, "intermolecular_energy": -10.68, "internal_energy": -1.36, "cluster_size": 1, "cluster_id": 8, "rank_in_cluster": 1}

>  <energy>  (39) 
-9.01

>  <cluster_rmsd>  (39) 
1.12

>  <cluster>  (39) 
6

$$$$

     RDKit          3D

 74 79  0  0  0  0  0  0  0  0999 V2000
  146.2930   73.4010  218.3680 N   0  0  0  0  0  0  0  0  0  0  0  0
  145.4340   72.7220  219.7030 S   0  0  0  0  0  0  0  0  0  0  0  0
  145.8530   73.3690  220.9780 O   0  0  0  0  0  0  0  0  0  0  0  0
  145.7500   71.2590  219.7210 O   0  0  0  0  0  0  0  0  0  0  0  0
  143.6730   72.9850  219.4620 C   0  0  0  0  0  0  0  0  0  0  0  0
  142.9100   72.0680  220.3750 C   0  0  0  0  0  0  0  0  0  0  0  0
  141.8540   72.7900  221.1820 C   0  0  1  0  0  0  0  0  0  0  0  0
  141.5500   74.1690  220.7040 C   0  0  0  0  0  0  0  0  0  0  0  0
  140.1490   74.3240  220.1620 C   0  0  0  0  0  0  0  0  0  0  0  0
  139.0730   73.8220  221.0620 C   0  0  2  0  0  0  0  0  0  0  0  0
  138.3840   74.8930  221.8460 C   0  0  0  0  0  0  0  0  0  0  0  0
  138.8420   76.1660  221.8820 N   0  0  0  0  0  0  0  0  0  0  0  0
  138.1550   77.0710  222.6210 C   0  0  0  0  0  0  0  0  0  0  0  0
  138.6630   78.4010  222.6350 N   0  0  0  0  0  0  0  0  0  0  0  0
  137.9700   79.4200  221.8880 C   0  0  0  0  0  0  0  0  0  0  0  0
  138.9700   80.0650  220.9520 C   0  0  0  0  0  0  0  0  0  0  0  0
  140.0780   80.5900  221.7870 C   0  0  0  0  0  0  0  0  0  0  0  0
  140.6970   81.7680  221.3860 C   0  0  0  0  0  0  0  0  0  0  0  0
  141.7340   82.2530  222.1730 C   0  0  0  0  0  0  0  0  0  0  0  0
  142.1530   81.6080  223.3160 C   0  0  0  0  0  0  0  0  0  0  0  0
  141.5040   80.4460  223.6640 C   0  0  0  0  0  0  0  0  0  0  0  0
  140.4680   79.9160  222.9220 C   0  0  0  0  0  0  0  0  0  0  0  0
  139.8450   78.6620  223.3950 C   0  0  0  0  0  0  0  0  0  0  0  0
  137.0490   76.7130  223.3010 N   0  0  0  0  0  0  0  0  0  0  0  0
  136.5860   75.4500  223.2710 C   0  0  0  0  0  0  0  0  0  0  0  0
  135.4240   75.0370  223.9750 N   0  0  0  0  0  0  0  0  0  0  0  0
  134.7090   75.9780  224.8110 C   0  0  0  0  0  0  0  0  0  0  0  0
  133.2680   75.4860  224.8780 C   0  0  0  0  0  0  0  0  0  0  0  0
  133.3180   74.1620  225.5720 C   0  0  0  0  0  0  0  0  0  0  0  0
  132.5350   73.8830  226.6810 C   0  0  0  0  0  0  0  0  0  0  0  0
  132.6820   72.6180  227.2230 C   0  0  0  0  0  0  0  0  0  0  0  0
  133.5410   71.6800  226.7180 C   0  0  0  0  0  0  0  0  0  0  0  0
  134.3280   71.9720  225.5960 C   0  0  0  0  0  0  0  0  0  0  0  0
  134.1970   73.2330  225.0370 C   0  0  0  0  0  0  0  0  0  0  0  0
  134.9720   73.6700  223.8450 C   0  0  0  0  0  0  0  0  0  0  0  0
  137.2900   74.5730  222.5270 N   0  0  0  0  0  0  0  0  0  0  0  0
  139.6280   72.8630  222.1220 C   0  0  0  0  0  0  0  0  0  0  0  0
  140.6080   71.9790  221.3540 C   0  0  0  0  0  0  0  0  0  0  0  0
  147.0540   74.0050  218.7730 H   0  0  0  0  0  0  0  0  0  0  0  0
  145.6220   74.0990  217.9350 H   0  0  0  0  0  0  0  0  0  0  0  0
  143.4213   74.0301  219.6952 H   0  0  0  0  0  0  0  0  0  0  0  0
  143.4062   72.7730  218.4161 H   0  0  0  0  0  0  0  0  0  0  0  0
  142.4192   71.2944  219.7661 H   0  0  0  0  0  0  0  0  0  0  0  0
  143.6294   71.6333  221.0846 H   0  0  0  0  0  0  0  0  0  0  0  0
  142.3087   72.9167  222.1756 H   0  0  0  0  0  0  0  0  0  0  0  0
  142.2623   74.4257  219.9061 H   0  0  0  0  0  0  0  0  0  0  0  0
  141.6367   74.8387  221.5723 H   0  0  0  0  0  0  0  0  0  0  0  0
  140.0862   73.7723  219.2124 H   0  0  0  0  0  0  0  0  0  0  0  0
  139.9785   75.4047  220.0475 H   0  0  0  0  0  0  0  0  0  0  0  0
  138.3677   73.3382  220.3703 H   0  0  0  0  0  0  0  0  0  0  0  0
  137.1516   78.9682  221.3083 H   0  0  0  0  0  0  0  0  0  0  0  0
  137.5392   80.1700  222.5676 H   0  0  0  0  0  0  0  0  0  0  0  0
  139.3550   79.3198  220.2404 H   0  0  0  0  0  0  0  0  0  0  0  0
  138.4988   80.8744  220.3752 H   0  0  0  0  0  0  0  0  0  0  0  0
  140.3769   82.2980  220.4768 H   0  0  0  0  0  0  0  0  0  0  0  0
  142.2377   83.1838  221.8733 H   0  0  0  0  0  0  0  0  0  0  0  0
  142.9757   82.0072  223.9274 H   0  0  0  0  0  0  0  0  0  0  0  0
  141.8247   79.9163  224.5732 H   0  0  0  0  0  0  0  0  0  0  0  0
  140.5535   77.8301  223.2684 H   0  0  0  0  0  0  0  0  0  0  0  0
  139.5825   78.7614  224.4586 H   0  0  0  0  0  0  0  0  0  0  0  0
  135.1497   76.0029  225.8186 H   0  0  0  0  0  0  0  0  0  0  0  0
  134.7636   76.9972  224.4008 H   0  0  0  0  0  0  0  0  0  0  0  0
  132.6483   76.1936  225.4483 H   0  0  0  0  0  0  0  0  0  0  0  0
  132.8240   75.3996  223.8753 H   0  0  0  0  0  0  0  0  0  0  0  0
  131.8390   74.6220  227.1047 H   0  0  0  0  0  0  0  0  0  0  0  0
  132.0783   72.3534  228.1036 H   0  0  0  0  0  0  0  0  0  0  0  0
  133.6140   70.6917  227.1953 H   0  0  0  0  0  0  0  0  0  0  0  0
  135.0223   71.2295  225.1757 H   0  0  0  0  0  0  0  0  0  0  0  0
  135.8475   73.0143  223.7285 H   0  0  0  0  0  0  0  0  0  0  0  0
  134.3142   73.6077  222.9656 H   0  0  0  0  0  0  0  0  0  0  0  0
  138.8208   72.2591  222.5621 H   0  0  0  0  0  0  0  0  0  0  0  0
  140.1065   73.3927  222.9590 H   0  0  0  0  0  0  0  0  0  0  0  0
  140.1901   71.7091  220.3729 H   0  0  0  0  0  0  0  0  0  0  0  0
  140.8105   71.0419  221.8933 H   0  0  0  0  0  0  0  0  0  0  0  0
  1  2  1  0
  2  3  2  0
  2  4  2  0
  2  5  1  0
  5  6  1  0
  6  7  1  0
  7  8  1  0
  8  9  1  0
  9 10  1  0
 10 11  1  0
 11 12  2  0
 12 13  1  0
 13 14  1  0
 14 15  1  0
 15 16  1  0
 16 17  1  0
 17 18  2  0
 18 19  1  0
 19 20  2  0
 20 21  1  0
 21 22  2  0
 22 23  1  0
 13 24  2  0
 24 25  1  0
 25 26  1  0
 26 27  1  0
 27 28  1  0
 28 29  1  0
 29 30  2  0
 30 31  1  0
 31 32  2  0
 32 33  1  0
 33 34  2  0
 34 35  1  0
 25 36  2  0
 10 37  1  0
 37 38  1  0
 38  7  1  0
 36 11  1  0
 23 14  1  0
 35 26  1  0
 22 17  1  0
 34 29  1  0
  1 39  1  0
  1 40  1  0
  5 41  1  0
  5 42  1  0
  6 43  1  0
  6 44  1  0
  7 45  1  1
  8 46  1  0
  8 47  1  0
  9 48  1  0
  9 49  1  0
 10 50  1  6
 15 51  1  0
 15 52  1  0
 16 53  1  0
 16 54  1  0
 18 55  1  0
 19 56  1  0
 20 57  1  0
 21 58  1  0
 23 59  1  0
 23 60  1  0
 27 61  1  0
 27 62  1  0
 28 63  1  0
 28 64  1  0
 30 65  1  0
 31 66  1  0
 32 67  1  0
 33 68  1  0
 35 69  1  0
 35 70  1  0
 37 71  1  0
 37 72  1  0
 38 73  1  0
 38 74  1  0
M  END
>  <smiles>  (40) 
NS(=O)(=O)CC[C@H]1CC[C@H](c2nc(N3CCc4ccccc4C3)nc(N3CCc4ccccc4C3)n2)CC1

>  <score_type>  (40) 
oracle

>  <origin>  (40) 
autodockgpu

>  <m_score__min__energy>  (40) 
-10.08

>  <m_primary>  (40) 
energy

>  <rmsd>  (40) 
5.23893455636175

>  <m_score__min__rmsd>  (40) 
5.23893455636175

>  <meeko>  (40) 
{"free_energy": -9.03, "intermolecular_energy": -11.12, "internal_energy": -1.37, "cluster_size": 24, "cluster_id": 2, "rank_in_cluster": 18}

>  <energy>  (40) 
-8.68

>  <cluster_rmsd>  (40) 
1.66

>  <cluster>  (40) 
6

$$$$

     RDKit          3D

 74 79  0  0  0  0  0  0  0  0999 V2000
  144.9310   67.0240  218.0500 N   0  0  0  0  0  0  0  0  0  0  0  0
  145.5420   67.8630  216.6710 S   0  0  0  0  0  0  0  0  0  0  0  0
  144.6350   67.6810  215.5030 O   0  0  0  0  0  0  0  0  0  0  0  0
  146.8970   67.2940  216.3840 O   0  0  0  0  0  0  0  0  0  0  0  0
  145.6600   69.6140  217.0540 C   0  0  0  0  0  0  0  0  0  0  0  0
  145.8380   69.7820  218.5360 C   0  0  0  0  0  0  0  0  0  0  0  0
  144.6040   70.3310  219.2170 C   0  0  1  0  0  0  0  0  0  0  0  0
  144.8610   71.4990  220.1070 C   0  0  0  0  0  0  0  0  0  0  0  0
  144.2270   72.7800  219.6190 C   0  0  0  0  0  0  0  0  0  0  0  0
  142.7780   72.6710  219.2860 C   0  0  2  0  0  0  0  0  0  0  0  0
  141.8660   73.1780  220.3560 C   0  0  0  0  0  0  0  0  0  0  0  0
  141.4810   74.4750  220.4180 N   0  0  0  0  0  0  0  0  0  0  0  0
  140.6530   74.8470  221.4250 C   0  0  0  0  0  0  0  0  0  0  0  0
  140.2660   76.2170  221.4590 N   0  0  0  0  0  0  0  0  0  0  0  0
  141.0580   77.1840  220.7420 C   0  0  0  0  0  0  0  0  0  0  0  0
  141.4660   78.2620  221.7240 C   0  0  0  0  0  0  0  0  0  0  0  0
  140.2200   78.8250  222.3020 C   0  0  0  0  0  0  0  0  0  0  0  0
  140.1970   80.1790  222.6100 C   0  0  0  0  0  0  0  0  0  0  0  0
  139.0270   80.6980  223.1500 C   0  0  0  0  0  0  0  0  0  0  0  0
  137.9150   79.9180  223.3820 C   0  0  0  0  0  0  0  0  0  0  0  0
  137.9960   78.5840  223.0580 C   0  0  0  0  0  0  0  0  0  0  0  0
  139.1310   78.0120  222.5180 C   0  0  0  0  0  0  0  0  0  0  0  0
  139.1000   76.5670  222.2090 C   0  0  0  0  0  0  0  0  0  0  0  0
  140.2270   73.9530  222.3380 N   0  0  0  0  0  0  0  0  0  0  0  0
  140.6050   72.6620  222.2840 C   0  0  0  0  0  0  0  0  0  0  0  0
  140.1760   71.6930  223.2280 N   0  0  0  0  0  0  0  0  0  0  0  0
  138.7900   71.2780  223.2650 C   0  0  0  0  0  0  0  0  0  0  0  0
  138.7770   69.8720  223.8540 C   0  0  0  0  0  0  0  0  0  0  0  0
  139.2780   70.0080  225.2560 C   0  0  0  0  0  0  0  0  0  0  0  0
  138.5710   69.5170  226.3420 C   0  0  0  0  0  0  0  0  0  0  0  0
  139.1520   69.7120  227.5830 C   0  0  0  0  0  0  0  0  0  0  0  0
  140.3510   70.3500  227.7570 C   0  0  0  0  0  0  0  0  0  0  0  0
  141.0580   70.8440  226.6530 C   0  0  0  0  0  0  0  0  0  0  0  0
  140.4940   70.6590  225.4010 C   0  0  0  0  0  0  0  0  0  0  0  0
  141.1410   71.1330  224.1490 C   0  0  0  0  0  0  0  0  0  0  0  0
  141.4280   72.3220  221.2710 N   0  0  0  0  0  0  0  0  0  0  0  0
  142.3570   71.2110  219.0780 C   0  0  0  0  0  0  0  0  0  0  0  0
  143.4910   70.6050  218.2550 C   0  0  0  0  0  0  0  0  0  0  0  0
  145.7130   66.9840  218.7520 H   0  0  0  0  0  0  0  0  0  0  0  0
  144.8240   66.0170  217.7350 H   0  0  0  0  0  0  0  0  0  0  0  0
  146.5225   70.0489  216.5278 H   0  0  0  0  0  0  0  0  0  0  0  0
  144.7422   70.1268  216.7305 H   0  0  0  0  0  0  0  0  0  0  0  0
  146.0745   68.8014  218.9748 H   0  0  0  0  0  0  0  0  0  0  0  0
  146.6514   70.5060  218.6915 H   0  0  0  0  0  0  0  0  0  0  0  0
  144.2756   69.5199  219.8835 H   0  0  0  0  0  0  0  0  0  0  0  0
  145.9481   71.6525  220.1747 H   0  0  0  0  0  0  0  0  0  0  0  0
  144.4105   71.2668  221.0833 H   0  0  0  0  0  0  0  0  0  0  0  0
  144.7628   73.1046  218.7148 H   0  0  0  0  0  0  0  0  0  0  0  0
  144.3018   73.4989  220.4482 H   0  0  0  0  0  0  0  0  0  0  0  0
  142.6792   73.2817  218.3764 H   0  0  0  0  0  0  0  0  0  0  0  0
  141.9528   76.6997  220.3238 H   0  0  0  0  0  0  0  0  0  0  0  0
  140.4802   77.6168  219.9121 H   0  0  0  0  0  0  0  0  0  0  0  0
  142.0890   77.8295  222.5208 H   0  0  0  0  0  0  0  0  0  0  0  0
  142.0518   79.0458  221.2216 H   0  0  0  0  0  0  0  0  0  0  0  0
  141.0745   80.8181  222.4326 H   0  0  0  0  0  0  0  0  0  0  0  0
  138.9869   81.7682  223.4010 H   0  0  0  0  0  0  0  0  0  0  0  0
  136.9968   80.3464  223.8104 H   0  0  0  0  0  0  0  0  0  0  0  0
  137.1187   77.9449  223.2367 H   0  0  0  0  0  0  0  0  0  0  0  0
  139.0800   75.9916  223.1463 H   0  0  0  0  0  0  0  0  0  0  0  0
  138.2006   76.3364  221.6192 H   0  0  0  0  0  0  0  0  0  0  0  0
  138.2051   71.9612  223.8984 H   0  0  0  0  0  0  0  0  0  0  0  0
  138.3422   71.2935  222.2604 H   0  0  0  0  0  0  0  0  0  0  0  0
  137.7547   69.4658  223.8511 H   0  0  0  0  0  0  0  0  0  0  0  0
  139.4031   69.1836  223.2674 H   0  0  0  0  0  0  0  0  0  0  0  0
  137.6056   69.0029  226.2247 H   0  0  0  0  0  0  0  0  0  0  0  0
  138.6251   69.3363  228.4725 H   0  0  0  0  0  0  0  0  0  0  0  0
  140.7616   70.4754  228.7698 H   0  0  0  0  0  0  0  0  0  0  0  0
  142.0226   71.3584  226.7753 H   0  0  0  0  0  0  0  0  0  0  0  0
  141.8830   71.9049  224.4011 H   0  0  0  0  0  0  0  0  0  0  0  0
  141.6199   70.2706  223.6622 H   0  0  0  0  0  0  0  0  0  0  0  0
  141.4047   71.1543  218.5304 H   0  0  0  0  0  0  0  0  0  0  0  0
  142.1972   70.6803  220.0281 H   0  0  0  0  0  0  0  0  0  0  0  0
  143.8215   71.3135  217.4812 H   0  0  0  0  0  0  0  0  0  0  0  0
  143.1684   69.6866  217.7428 H   0  0  0  0  0  0  0  0  0  0  0  0
  1  2  1  0
  2  3  2  0
  2  4  2  0
  2  5  1  0
  5  6  1  0
  6  7  1  0
  7  8  1  0
  8  9  1  0
  9 10  1  0
 10 11  1  0
 11 12  2  0
 12 13  1  0
 13 14  1  0
 14 15  1  0
 15 16  1  0
 16 17  1  0
 17 18  2  0
 18 19  1  0
 19 20  2  0
 20 21  1  0
 21 22  2  0
 22 23  1  0
 13 24  2  0
 24 25  1  0
 25 26  1  0
 26 27  1  0
 27 28  1  0
 28 29  1  0
 29 30  2  0
 30 31  1  0
 31 32  2  0
 32 33  1  0
 33 34  2  0
 34 35  1  0
 25 36  2  0
 10 37  1  0
 37 38  1  0
 38  7  1  0
 36 11  1  0
 23 14  1  0
 35 26  1  0
 22 17  1  0
 34 29  1  0
  1 39  1  0
  1 40  1  0
  5 41  1  0
  5 42  1  0
  6 43  1  0
  6 44  1  0
  7 45  1  1
  8 46  1  0
  8 47  1  0
  9 48  1  0
  9 49  1  0
 10 50  1  6
 15 51  1  0
 15 52  1  0
 16 53  1  0
 16 54  1  0
 18 55  1  0
 19 56  1  0
 20 57  1  0
 21 58  1  0
 23 59  1  0
 23 60  1  0
 27 61  1  0
 27 62  1  0
 28 63  1  0
 28 64  1  0
 30 65  1  0
 31 66  1  0
 32 67  1  0
 33 68  1  0
 35 69  1  0
 35 70  1  0
 37 71  1  0
 37 72  1  0
 38 73  1  0
 38 74  1  0
M  END
>  <smiles>  (41) 
NS(=O)(=O)CC[C@H]1CC[C@H](c2nc(N3CCc4ccccc4C3)nc(N3CCc4ccccc4C3)n2)CC1

>  <score_type>  (41) 
oracle

>  <origin>  (41) 
autodockgpu

>  <m_score__min__energy>  (41) 
-10.08

>  <m_primary>  (41) 
energy

>  <rmsd>  (41) 
5.2460651456830165

>  <m_score__min__rmsd>  (41) 
5.2460651456830165

>  <meeko>  (41) 
{"free_energy": -8.21, "intermolecular_energy": -10.3, "internal_energy": -1.41, "cluster_size": 5, "cluster_id": 1, "rank_in_cluster": 5}

>  <energy>  (41) 
-8.46

>  <cluster_rmsd>  (41) 
1.48

>  <cluster>  (41) 
6

$$$$

     RDKit          3D

 74 79  0  0  0  0  0  0  0  0999 V2000
  139.7770   67.0190  226.0440 N   0  0  0  0  0  0  0  0  0  0  0  0
  140.5350   68.4340  226.6800 S   0  0  0  0  0  0  0  0  0  0  0  0
  141.6870   68.8380  225.8260 O   0  0  0  0  0  0  0  0  0  0  0  0
  140.9940   68.0930  228.0640 O   0  0  0  0  0  0  0  0  0  0  0  0
  139.3380   69.7720  226.7220 C   0  0  0  0  0  0  0  0  0  0  0  0
  138.5980   69.8110  225.4150 C   0  0  0  0  0  0  0  0  0  0  0  0
  138.9440   71.0240  224.5810 C   0  0  1  0  0  0  0  0  0  0  0  0
  140.3960   71.1670  224.2760 C   0  0  0  0  0  0  0  0  0  0  0  0
  140.7220   71.0160  222.8090 C   0  0  0  0  0  0  0  0  0  0  0  0
  139.9010   71.8600  221.8980 C   0  0  2  0  0  0  0  0  0  0  0  0
  140.5840   73.1080  221.4390 C   0  0  0  0  0  0  0  0  0  0  0  0
  141.6130   73.0830  220.5600 N   0  0  0  0  0  0  0  0  0  0  0  0
  142.1740   74.2630  220.2020 C   0  0  0  0  0  0  0  0  0  0  0  0
  143.2530   74.2020  219.2740 N   0  0  0  0  0  0  0  0  0  0  0  0
  143.6760   75.4120  218.6150 C   0  0  0  0  0  0  0  0  0  0  0  0
  143.6320   75.1620  217.1220 C   0  0  0  0  0  0  0  0  0  0  0  0
  144.5070   73.9960  216.8450 C   0  0  0  0  0  0  0  0  0  0  0  0
  145.2170   73.9830  215.6510 C   0  0  0  0  0  0  0  0  0  0  0  0
  146.0340   72.8880  215.3990 C   0  0  0  0  0  0  0  0  0  0  0  0
  146.1540   71.8400  216.2850 C   0  0  0  0  0  0  0  0  0  0  0  0
  145.4260   71.9080  217.4500 C   0  0  0  0  0  0  0  0  0  0  0  0
  144.5990   72.9690  217.7560 C   0  0  0  0  0  0  0  0  0  0  0  0
  143.8660   72.9320  219.0400 C   0  0  0  0  0  0  0  0  0  0  0  0
  141.7230   75.4280  220.7070 N   0  0  0  0  0  0  0  0  0  0  0  0
  140.7000   75.4610  221.5810 C   0  0  0  0  0  0  0  0  0  0  0  0
  140.1980   76.6690  222.1340 N   0  0  0  0  0  0  0  0  0  0  0  0
  138.8310   77.0720  221.8810 C   0  0  0  0  0  0  0  0  0  0  0  0
  138.4200   77.9580  223.0500 C   0  0  0  0  0  0  0  0  0  0  0  0
  139.3000   79.1650  222.9810 C   0  0  0  0  0  0  0  0  0  0  0  0
  138.7850   80.4520  222.9700 C   0  0  0  0  0  0  0  0  0  0  0  0
  139.7140   81.4760  222.9030 C   0  0  0  0  0  0  0  0  0  0  0  0
  141.0650   81.2610  222.8490 C   0  0  0  0  0  0  0  0  0  0  0  0
  141.5750   79.9560  222.8610 C   0  0  0  0  0  0  0  0  0  0  0  0
  140.6630   78.9160  222.9270 C   0  0  0  0  0  0  0  0  0  0  0  0
  141.0710   77.4860  222.9480 C   0  0  0  0  0  0  0  0  0  0  0  0
  140.1620   74.2720  221.9180 N   0  0  0  0  0  0  0  0  0  0  0  0
  138.6200   72.3500  222.5860 C   0  0  0  0  0  0  0  0  0  0  0  0
  138.1080   71.1280  223.3440 C   0  0  0  0  0  0  0  0  0  0  0  0
  139.6780   66.3420  226.8440 H   0  0  0  0  0  0  0  0  0  0  0  0
  140.5090   66.5690  225.4230 H   0  0  0  0  0  0  0  0  0  0  0  0
  138.6261   69.6036  227.5435 H   0  0  0  0  0  0  0  0  0  0  0  0
  139.8569   70.7285  226.8827 H   0  0  0  0  0  0  0  0  0  0  0  0
  138.8500   68.9068  224.8415 H   0  0  0  0  0  0  0  0  0  0  0  0
  137.5235   69.8628  225.6445 H   0  0  0  0  0  0  0  0  0  0  0  0
  138.6931   71.8795  225.2254 H   0  0  0  0  0  0  0  0  0  0  0  0
  140.9467   70.3968  224.8360 H   0  0  0  0  0  0  0  0  0  0  0  0
  140.6890   72.1860  224.5690 H   0  0  0  0  0  0  0  0  0  0  0  0
  140.5688   69.9628  222.5309 H   0  0  0  0  0  0  0  0  0  0  0  0
  141.7630   71.3496  222.6867 H   0  0  0  0  0  0  0  0  0  0  0  0
  139.7044   71.1946  221.0444 H   0  0  0  0  0  0  0  0  0  0  0  0
  142.9982   76.2379  218.8768 H   0  0  0  0  0  0  0  0  0  0  0  0
  144.6934   75.6871  218.9300 H   0  0  0  0  0  0  0  0  0  0  0  0
  142.6011   74.9425  216.8071 H   0  0  0  0  0  0  0  0  0  0  0  0
  143.9759   76.0479  216.5680 H   0  0  0  0  0  0  0  0  0  0  0  0
  145.1352   74.8103  214.9307 H   0  0  0  0  0  0  0  0  0  0  0  0
  146.6049   72.8567  214.4593 H   0  0  0  0  0  0  0  0  0  0  0  0
  146.8071   70.9816  216.0690 H   0  0  0  0  0  0  0  0  0  0  0  0
  145.5067   71.0798  218.1695 H   0  0  0  0  0  0  0  0  0  0  0  0
  143.0909   72.1527  218.9977 H   0  0  0  0  0  0  0  0  0  0  0  0
  144.5673   72.7066  219.8569 H   0  0  0  0  0  0  0  0  0  0  0  0
  138.7686   77.6340  220.9375 H   0  0  0  0  0  0  0  0  0  0  0  0
  138.1683   76.1987  221.7904 H   0  0  0  0  0  0  0  0  0  0  0  0
  137.3635   78.2493  222.9559 H   0  0  0  0  0  0  0  0  0  0  0  0
  138.5292   77.4339  224.0109 H   0  0  0  0  0  0  0  0  0  0  0  0
  137.7034   80.6477  223.0120 H   0  0  0  0  0  0  0  0  0  0  0  0
  139.3488   82.5135  222.8926 H   0  0  0  0  0  0  0  0  0  0  0  0
  141.7536   82.1171  222.7959 H   0  0  0  0  0  0  0  0  0  0  0  0
  142.6575   79.7651  222.8196 H   0  0  0  0  0  0  0  0  0  0  0  0
  142.0983   77.4026  222.5636 H   0  0  0  0  0  0  0  0  0  0  0  0
  141.0083   77.1265  223.9857 H   0  0  0  0  0  0  0  0  0  0  0  0
  137.8818   72.6847  221.8423 H   0  0  0  0  0  0  0  0  0  0  0  0
  138.8009   73.2098  223.2479 H   0  0  0  0  0  0  0  0  0  0  0  0
  138.2218   70.2228  222.7295 H   0  0  0  0  0  0  0  0  0  0  0  0
  137.0401   71.2264  223.5888 H   0  0  0  0  0  0  0  0  0  0  0  0
  1  2  1  0
  2  3  2  0
  2  4  2  0
  2  5  1  0
  5  6  1  0
  6  7  1  0
  7  8  1  0
  8  9  1  0
  9 10  1  0
 10 11  1  0
 11 12  2  0
 12 13  1  0
 13 14  1  0
 14 15  1  0
 15 16  1  0
 16 17  1  0
 17 18  2  0
 18 19  1  0
 19 20  2  0
 20 21  1  0
 21 22  2  0
 22 23  1  0
 13 24  2  0
 24 25  1  0
 25 26  1  0
 26 27  1  0
 27 28  1  0
 28 29  1  0
 29 30  2  0
 30 31  1  0
 31 32  2  0
 32 33  1  0
 33 34  2  0
 34 35  1  0
 25 36  2  0
 10 37  1  0
 37 38  1  0
 38  7  1  0
 36 11  1  0
 23 14  1  0
 35 26  1  0
 22 17  1  0
 34 29  1  0
  1 39  1  0
  1 40  1  0
  5 41  1  0
  5 42  1  0
  6 43  1  0
  6 44  1  0
  7 45  1  1
  8 46  1  0
  8 47  1  0
  9 48  1  0
  9 49  1  0
 10 50  1  6
 15 51  1  0
 15 52  1  0
 16 53  1  0
 16 54  1  0
 18 55  1  0
 19 56  1  0
 20 57  1  0
 21 58  1  0
 23 59  1  0
 23 60  1  0
 27 61  1  0
 27 62  1  0
 28 63  1  0
 28 64  1  0
 30 65  1  0
 31 66  1  0
 32 67  1  0
 33 68  1  0
 35 69  1  0
 35 70  1  0
 37 71  1  0
 37 72  1  0
 38 73  1  0
 38 74  1  0
M  END
>  <smiles>  (42) 
NS(=O)(=O)CC[C@H]1CC[C@H](c2nc(N3CCc4ccccc4C3)nc(N3CCc4ccccc4C3)n2)CC1

>  <score_type>  (42) 
oracle

>  <origin>  (42) 
autodockgpu

>  <m_score__min__energy>  (42) 
-10.08

>  <m_primary>  (42) 
energy

>  <rmsd>  (42) 
8.26134694553015

>  <m_score__min__rmsd>  (42) 
8.26134694553015

>  <meeko>  (42) 
{"free_energy": -8.32, "intermolecular_energy": -10.41, "internal_energy": -1.45, "cluster_size": 2, "cluster_id": 3, "rank_in_cluster": 2}

>  <energy>  (42) 
-9.11

>  <cluster_rmsd>  (42) 
0.0

>  <cluster>  (42) 
7

$$$$

     RDKit          3D

 74 79  0  0  0  0  0  0  0  0999 V2000
  132.5550   76.9290  225.9490 N   0  0  0  0  0  0  0  0  0  0  0  0
  131.8510   75.4810  226.5720 S   0  0  0  0  0  0  0  0  0  0  0  0
  130.5450   75.7750  227.2260 O   0  0  0  0  0  0  0  0  0  0  0  0
  132.8240   74.9170  227.5590 O   0  0  0  0  0  0  0  0  0  0  0  0
  131.5820   74.3300  225.2190 C   0  0  0  0  0  0  0  0  0  0  0  0
  132.3410   73.0630  225.4930 C   0  0  0  0  0  0  0  0  0  0  0  0
  133.8010   73.1590  225.1120 C   0  0  1  0  0  0  0  0  0  0  0  0
  134.3780   71.8980  224.5650 C   0  0  0  0  0  0  0  0  0  0  0  0
  134.7830   71.9990  223.1140 C   0  0  0  0  0  0  0  0  0  0  0  0
  135.6480   73.1670  222.7870 C   0  0  2  0  0  0  0  0  0  0  0  0
  137.1030   72.8390  222.6830 C   0  0  0  0  0  0  0  0  0  0  0  0
  137.9230   73.4740  221.8140 N   0  0  0  0  0  0  0  0  0  0  0  0
  139.2280   73.1100  221.7860 C   0  0  0  0  0  0  0  0  0  0  0  0
  140.0640   73.8000  220.8610 N   0  0  0  0  0  0  0  0  0  0  0  0
  141.0130   73.0460  220.0820 C   0  0  0  0  0  0  0  0  0  0  0  0
  142.3810   73.6550  220.3090 C   0  0  0  0  0  0  0  0  0  0  0  0
  142.2960   75.0850  219.9210 C   0  0  0  0  0  0  0  0  0  0  0  0
  143.4130   75.6720  219.3410 C   0  0  0  0  0  0  0  0  0  0  0  0
  143.3240   77.0110  218.9810 C   0  0  0  0  0  0  0  0  0  0  0  0
  142.1810   77.7530  219.1820 C   0  0  0  0  0  0  0  0  0  0  0  0
  141.1070   77.1190  219.7610 C   0  0  0  0  0  0  0  0  0  0  0  0
  141.1350   75.7920  220.1390 C   0  0  0  0  0  0  0  0  0  0  0  0
  139.9180   75.2180  220.7520 C   0  0  0  0  0  0  0  0  0  0  0  0
  139.6960   72.1430  222.5980 N   0  0  0  0  0  0  0  0  0  0  0  0
  138.8880   71.5070  223.4660 C   0  0  0  0  0  0  0  0  0  0  0  0
  139.3450   70.4830  224.3370 N   0  0  0  0  0  0  0  0  0  0  0  0
  138.5670   69.2750  224.5120 C   0  0  0  0  0  0  0  0  0  0  0  0
  139.5480   68.1850  224.9230 C   0  0  0  0  0  0  0  0  0  0  0  0
  140.0960   68.6040  226.2500 C   0  0  0  0  0  0  0  0  0  0  0  0
  140.0680   67.7680  227.3550 C   0  0  0  0  0  0  0  0  0  0  0  0
  140.6090   68.2840  228.5200 C   0  0  0  0  0  0  0  0  0  0  0  0
  141.1440   69.5410  228.6060 C   0  0  0  0  0  0  0  0  0  0  0  0
  141.1670   70.3790  227.4830 C   0  0  0  0  0  0  0  0  0  0  0  0
  140.6310   69.8820  226.3060 C   0  0  0  0  0  0  0  0  0  0  0  0
  140.5940   70.6670  225.0440 C   0  0  0  0  0  0  0  0  0  0  0  0
  137.5950   71.8910  223.4710 N   0  0  0  0  0  0  0  0  0  0  0  0
  135.5720   74.2450  223.8760 C   0  0  0  0  0  0  0  0  0  0  0  0
  134.0870   74.3270  224.2220 C   0  0  0  0  0  0  0  0  0  0  0  0
  131.7780   77.4750  225.4960 H   0  0  0  0  0  0  0  0  0  0  0  0
  133.1520   76.6160  225.1300 H   0  0  0  0  0  0  0  0  0  0  0  0
  130.5085   74.1053  225.1345 H   0  0  0  0  0  0  0  0  0  0  0  0
  131.9339   74.7764  224.2773 H   0  0  0  0  0  0  0  0  0  0  0  0
  132.2725   72.8380  226.5676 H   0  0  0  0  0  0  0  0  0  0  0  0
  131.8908   72.2687  224.8795 H   0  0  0  0  0  0  0  0  0  0  0  0
  134.3214   73.3318  226.0656 H   0  0  0  0  0  0  0  0  0  0  0  0
  133.6263   71.1008  224.6617 H   0  0  0  0  0  0  0  0  0  0  0  0
  135.2905   71.6841  225.1408 H   0  0  0  0  0  0  0  0  0  0  0  0
  133.8681   72.0702  222.5075 H   0  0  0  0  0  0  0  0  0  0  0  0
  135.3795   71.1010  222.8956 H   0  0  0  0  0  0  0  0  0  0  0  0
  135.2603   73.5069  221.8153 H   0  0  0  0  0  0  0  0  0  0  0  0
  141.0124   71.9947  220.4056 H   0  0  0  0  0  0  0  0  0  0  0  0
  140.7485   73.0789  219.0148 H   0  0  0  0  0  0  0  0  0  0  0  0
  142.6606   73.5684  221.3693 H   0  0  0  0  0  0  0  0  0  0  0  0
  143.1439   73.1337  219.7121 H   0  0  0  0  0  0  0  0  0  0  0  0
  144.3356   75.0972  219.1726 H   0  0  0  0  0  0  0  0  0  0  0  0
  144.1969   77.4956  218.5193 H   0  0  0  0  0  0  0  0  0  0  0  0
  142.1294   78.8124  218.8904 H   0  0  0  0  0  0  0  0  0  0  0  0
  140.1851   77.6947  219.9303 H   0  0  0  0  0  0  0  0  0  0  0  0
  139.7728   75.6499  221.7532 H   0  0  0  0  0  0  0  0  0  0  0  0
  139.0458   75.4500  220.1232 H   0  0  0  0  0  0  0  0  0  0  0  0
  137.8101   69.4207  225.2968 H   0  0  0  0  0  0  0  0  0  0  0  0
  138.0373   69.0053  223.5864 H   0  0  0  0  0  0  0  0  0  0  0  0
  139.0306   67.2183  225.0109 H   0  0  0  0  0  0  0  0  0  0  0  0
  140.3474   68.0600  224.1778 H   0  0  0  0  0  0  0  0  0  0  0  0
  139.6414   66.7551  227.3090 H   0  0  0  0  0  0  0  0  0  0  0  0
  140.6090   67.6529  229.4209 H   0  0  0  0  0  0  0  0  0  0  0  0
  141.5580   69.8952  229.5616 H   0  0  0  0  0  0  0  0  0  0  0  0
  141.5938   71.3915  227.5340 H   0  0  0  0  0  0  0  0  0  0  0  0
  140.7143   71.7338  225.2838 H   0  0  0  0  0  0  0  0  0  0  0  0
  141.4103   70.3147  224.3964 H   0  0  0  0  0  0  0  0  0  0  0  0
  135.9373   75.2101  223.4952 H   0  0  0  0  0  0  0  0  0  0  0  0
  136.1948   74.0042  224.7502 H   0  0  0  0  0  0  0  0  0  0  0  0
  133.4785   74.2677  223.3075 H   0  0  0  0  0  0  0  0  0  0  0  0
  133.8427   75.2781  224.7177 H   0  0  0  0  0  0  0  0  0  0  0  0
  1  2  1  0
  2  3  2  0
  2  4  2  0
  2  5  1  0
  5  6  1  0
  6  7  1  0
  7  8  1  0
  8  9  1  0
  9 10  1  0
 10 11  1  0
 11 12  2  0
 12 13  1  0
 13 14  1  0
 14 15  1  0
 15 16  1  0
 16 17  1  0
 17 18  2  0
 18 19  1  0
 19 20  2  0
 20 21  1  0
 21 22  2  0
 22 23  1  0
 13 24  2  0
 24 25  1  0
 25 26  1  0
 26 27  1  0
 27 28  1  0
 28 29  1  0
 29 30  2  0
 30 31  1  0
 31 32  2  0
 32 33  1  0
 33 34  2  0
 34 35  1  0
 25 36  2  0
 10 37  1  0
 37 38  1  0
 38  7  1  0
 36 11  1  0
 23 14  1  0
 35 26  1  0
 22 17  1  0
 34 29  1  0
  1 39  1  0
  1 40  1  0
  5 41  1  0
  5 42  1  0
  6 43  1  0
  6 44  1  0
  7 45  1  1
  8 46  1  0
  8 47  1  0
  9 48  1  0
  9 49  1  0
 10 50  1  6
 15 51  1  0
 15 52  1  0
 16 53  1  0
 16 54  1  0
 18 55  1  0
 19 56  1  0
 20 57  1  0
 21 58  1  0
 23 59  1  0
 23 60  1  0
 27 61  1  0
 27 62  1  0
 28 63  1  0
 28 64  1  0
 30 65  1  0
 31 66  1  0
 32 67  1  0
 33 68  1  0
 35 69  1  0
 35 70  1  0
 37 71  1  0
 37 72  1  0
 38 73  1  0
 38 74  1  0
M  END
>  <smiles>  (43) 
NS(=O)(=O)CC[C@H]1CC[C@H](c2nc(N3CCc4ccccc4C3)nc(N3CCc4ccccc4C3)n2)CC1

>  <score_type>  (43) 
oracle

>  <origin>  (43) 
autodockgpu

>  <m_score__min__energy>  (43) 
-10.08

>  <m_primary>  (43) 
energy

>  <rmsd>  (43) 
4.360776976212087

>  <m_score__min__rmsd>  (43) 
4.360776976212087

>  <meeko>  (43) 
{"free_energy": -7.86, "intermolecular_energy": -9.95, "internal_energy": -1.48, "cluster_size": 3, "cluster_id": 5, "rank_in_cluster": 3}

>  <energy>  (43) 
-8.74

>  <cluster_rmsd>  (43) 
1.45

>  <cluster>  (43) 
7

$$$$

     RDKit          3D

 74 79  0  0  0  0  0  0  0  0999 V2000
  139.9980   68.0520  228.1140 N   0  0  0  0  0  0  0  0  0  0  0  0
  140.2450   68.2000  226.4110 S   0  0  0  0  0  0  0  0  0  0  0  0
  139.1670   67.4940  225.6640 O   0  0  0  0  0  0  0  0  0  0  0  0
  141.5810   67.5950  226.1130 O   0  0  0  0  0  0  0  0  0  0  0  0
  140.2250   69.9400  225.9650 C   0  0  0  0  0  0  0  0  0  0  0  0
  138.9650   70.2380  225.2030 C   0  0  0  0  0  0  0  0  0  0  0  0
  139.1330   71.3650  224.2100 C   0  0  1  0  0  0  0  0  0  0  0  0
  140.5440   71.8020  224.0070 C   0  0  0  0  0  0  0  0  0  0  0  0
  141.0680   71.5230  222.6190 C   0  0  0  0  0  0  0  0  0  0  0  0
  140.1960   72.0100  221.5140 C   0  0  2  0  0  0  0  0  0  0  0  0
  140.6370   73.3050  220.9120 C   0  0  0  0  0  0  0  0  0  0  0  0
  141.3270   73.3590  219.7480 N   0  0  0  0  0  0  0  0  0  0  0  0
  141.6890   74.5770  219.2780 C   0  0  0  0  0  0  0  0  0  0  0  0
  142.4110   74.5990  218.0490 N   0  0  0  0  0  0  0  0  0  0  0  0
  143.0850   73.4010  217.6160 C   0  0  0  0  0  0  0  0  0  0  0  0
  144.5370   73.7540  217.3740 C   0  0  0  0  0  0  0  0  0  0  0  0
  144.5630   74.8470  216.3710 C   0  0  0  0  0  0  0  0  0  0  0  0
  145.6120   74.8740  215.4610 C   0  0  0  0  0  0  0  0  0  0  0  0
  145.6290   75.9000  214.5250 C   0  0  0  0  0  0  0  0  0  0  0  0
  144.6510   76.8700  214.4800 C   0  0  0  0  0  0  0  0  0  0  0  0
  143.6380   76.7930  215.4060 C   0  0  0  0  0  0  0  0  0  0  0  0
  143.5670   75.7970  216.3590 C   0  0  0  0  0  0  0  0  0  0  0  0
  142.4300   75.8170  217.3020 C   0  0  0  0  0  0  0  0  0  0  0  0
  141.3740   75.7020  219.9490 N   0  0  0  0  0  0  0  0  0  0  0  0
  140.6880   75.6570  221.1060 C   0  0  0  0  0  0  0  0  0  0  0  0
  140.3390   76.8210  221.8410 N   0  0  0  0  0  0  0  0  0  0  0  0
  139.1830   77.6030  221.4560 C   0  0  0  0  0  0  0  0  0  0  0  0
  138.7100   78.3200  222.7150 C   0  0  0  0  0  0  0  0  0  0  0  0
  139.8160   79.2480  223.1010 C   0  0  0  0  0  0  0  0  0  0  0  0
  139.6020   80.6010  223.3140 C   0  0  0  0  0  0  0  0  0  0  0  0
  140.7150   81.3440  223.6660 C   0  0  0  0  0  0  0  0  0  0  0  0
  141.9650   80.8030  223.8010 C   0  0  0  0  0  0  0  0  0  0  0  0
  142.1720   79.4340  223.5830 C   0  0  0  0  0  0  0  0  0  0  0  0
  141.0710   78.6720  223.2300 C   0  0  0  0  0  0  0  0  0  0  0  0
  141.1520   77.2100  222.9710 C   0  0  0  0  0  0  0  0  0  0  0  0
  140.3420   74.4320  221.5490 N   0  0  0  0  0  0  0  0  0  0  0  0
  138.7660   72.2770  222.0020 C   0  0  0  0  0  0  0  0  0  0  0  0
  138.4490   71.0910  222.9080 C   0  0  0  0  0  0  0  0  0  0  0  0
  140.6910   68.6930  228.5780 H   0  0  0  0  0  0  0  0  0  0  0  0
  140.3490   67.0820  228.3600 H   0  0  0  0  0  0  0  0  0  0  0  0
  140.2580   70.5543  226.8769 H   0  0  0  0  0  0  0  0  0  0  0  0
  141.0998   70.1723  225.3398 H   0  0  0  0  0  0  0  0  0  0  0  0
  138.6613   69.3320  224.6581 H   0  0  0  0  0  0  0  0  0  0  0  0
  138.2032   70.5504  225.9324 H   0  0  0  0  0  0  0  0  0  0  0  0
  138.6247   72.2199  224.6799 H   0  0  0  0  0  0  0  0  0  0  0  0
  141.1799   71.2728  224.7319 H   0  0  0  0  0  0  0  0  0  0  0  0
  140.5680   72.8926  224.1483 H   0  0  0  0  0  0  0  0  0  0  0  0
  141.1843   70.4347  222.5092 H   0  0  0  0  0  0  0  0  0  0  0  0
  142.0174   72.0714  222.5297 H   0  0  0  0  0  0  0  0  0  0  0  0
  140.2543   71.2020  220.7699 H   0  0  0  0  0  0  0  0  0  0  0  0
  143.0119   72.6274  218.3946 H   0  0  0  0  0  0  0  0  0  0  0  0
  142.6245   73.0097  216.6969 H   0  0  0  0  0  0  0  0  0  0  0  0
  145.0038   74.0916  218.3111 H   0  0  0  0  0  0  0  0  0  0  0  0
  145.0958   72.8787  217.0113 H   0  0  0  0  0  0  0  0  0  0  0  0
  146.4022   74.1090  215.4809 H   0  0  0  0  0  0  0  0  0  0  0  0
  146.4508   75.9397  213.7949 H   0  0  0  0  0  0  0  0  0  0  0  0
  144.6799   77.6754  213.7313 H   0  0  0  0  0  0  0  0  0  0  0  0
  142.8489   77.5591  215.3867 H   0  0  0  0  0  0  0  0  0  0  0  0
  142.5392   76.6680  217.9904 H   0  0  0  0  0  0  0  0  0  0  0  0
  141.4893   75.9185  216.7410 H   0  0  0  0  0  0  0  0  0  0  0  0
  139.4591   78.3347  220.6824 H   0  0  0  0  0  0  0  0  0  0  0  0
  138.3903   76.9644  221.0391 H   0  0  0  0  0  0  0  0  0  0  0  0
  137.7899   78.8867  222.5092 H   0  0  0  0  0  0  0  0  0  0  0  0
  138.4812   77.6083  223.5220 H   0  0  0  0  0  0  0  0  0  0  0  0
  138.6064   81.0569  223.2094 H   0  0  0  0  0  0  0  0  0  0  0  0
  140.5891   82.4218  223.8461 H   0  0  0  0  0  0  0  0  0  0  0  0
  142.8119   81.4462  224.0822 H   0  0  0  0  0  0  0  0  0  0  0  0
  143.1697   78.9827  223.6882 H   0  0  0  0  0  0  0  0  0  0  0  0
  142.1989   76.9418  222.7660 H   0  0  0  0  0  0  0  0  0  0  0  0
  140.7768   76.6830  223.8607 H   0  0  0  0  0  0  0  0  0  0  0  0
  138.0662   72.3177  221.1543 H   0  0  0  0  0  0  0  0  0  0  0  0
  138.6732   73.2409  222.5237 H   0  0  0  0  0  0  0  0  0  0  0  0
  138.8317   70.1598  222.4649 H   0  0  0  0  0  0  0  0  0  0  0  0
  137.3642   70.9690  223.0433 H   0  0  0  0  0  0  0  0  0  0  0  0
  1  2  1  0
  2  3  2  0
  2  4  2  0
  2  5  1  0
  5  6  1  0
  6  7  1  0
  7  8  1  0
  8  9  1  0
  9 10  1  0
 10 11  1  0
 11 12  2  0
 12 13  1  0
 13 14  1  0
 14 15  1  0
 15 16  1  0
 16 17  1  0
 17 18  2  0
 18 19  1  0
 19 20  2  0
 20 21  1  0
 21 22  2  0
 22 23  1  0
 13 24  2  0
 24 25  1  0
 25 26  1  0
 26 27  1  0
 27 28  1  0
 28 29  1  0
 29 30  2  0
 30 31  1  0
 31 32  2  0
 32 33  1  0
 33 34  2  0
 34 35  1  0
 25 36  2  0
 10 37  1  0
 37 38  1  0
 38  7  1  0
 36 11  1  0
 23 14  1  0
 35 26  1  0
 22 17  1  0
 34 29  1  0
  1 39  1  0
  1 40  1  0
  5 41  1  0
  5 42  1  0
  6 43  1  0
  6 44  1  0
  7 45  1  1
  8 46  1  0
  8 47  1  0
  9 48  1  0
  9 49  1  0
 10 50  1  6
 15 51  1  0
 15 52  1  0
 16 53  1  0
 16 54  1  0
 18 55  1  0
 19 56  1  0
 20 57  1  0
 21 58  1  0
 23 59  1  0
 23 60  1  0
 27 61  1  0
 27 62  1  0
 28 63  1  0
 28 64  1  0
 30 65  1  0
 31 66  1  0
 32 67  1  0
 33 68  1  0
 35 69  1  0
 35 70  1  0
 37 71  1  0
 37 72  1  0
 38 73  1  0
 38 74  1  0
M  END
>  <smiles>  (44) 
NS(=O)(=O)CC[C@H]1CC[C@H](c2nc(N3CCc4ccccc4C3)nc(N3CCc4ccccc4C3)n2)CC1

>  <score_type>  (44) 
oracle

>  <origin>  (44) 
autodockgpu

>  <m_score__min__energy>  (44) 
-10.08

>  <m_primary>  (44) 
energy

>  <rmsd>  (44) 
6.712731067668665

>  <m_score__min__rmsd>  (44) 
6.712731067668665

>  <meeko>  (44) 
{"free_energy": -8.43, "intermolecular_energy": -10.52, "internal_energy": -1.38, "cluster_size": 1, "cluster_id": 10, "rank_in_cluster": 1}

>  <energy>  (44) 
-8.44

>  <cluster_rmsd>  (44) 
1.85

>  <cluster>  (44) 
7

$$$$

     RDKit          3D

 74 79  0  0  0  0  0  0  0  0999 V2000
  145.9110   71.3100  219.8120 N   0  0  0  0  0  0  0  0  0  0  0  0
  145.6740   72.9990  219.5490 S   0  0  0  0  0  0  0  0  0  0  0  0
  146.2700   73.4140  218.2470 O   0  0  0  0  0  0  0  0  0  0  0  0
  146.3360   73.7120  220.6860 O   0  0  0  0  0  0  0  0  0  0  0  0
  143.9120   73.3470  219.5240 C   0  0  0  0  0  0  0  0  0  0  0  0
  143.1970   72.3270  220.3630 C   0  0  0  0  0  0  0  0  0  0  0  0
  142.0390   72.9120  221.1390 C   0  0  1  0  0  0  0  0  0  0  0  0
  141.7380   74.3360  220.8150 C   0  0  0  0  0  0  0  0  0  0  0  0
  140.3960   74.5330  220.1510 C   0  0  0  0  0  0  0  0  0  0  0  0
  139.2510   73.8940  220.8570 C   0  0  2  0  0  0  0  0  0  0  0  0
  138.4480   74.8350  221.6950 C   0  0  0  0  0  0  0  0  0  0  0  0
  137.3300   74.4420  222.3500 N   0  0  0  0  0  0  0  0  0  0  0  0
  136.6640   75.3640  223.0850 C   0  0  0  0  0  0  0  0  0  0  0  0
  135.4930   74.9160  223.7620 N   0  0  0  0  0  0  0  0  0  0  0  0
  134.4100   75.8430  223.9710 C   0  0  0  0  0  0  0  0  0  0  0  0
  134.1040   75.8660  225.4530 C   0  0  0  0  0  0  0  0  0  0  0  0
  133.7820   74.4750  225.8570 C   0  0  0  0  0  0  0  0  0  0  0  0
  132.8230   74.2870  226.8450 C   0  0  0  0  0  0  0  0  0  0  0  0
  132.5280   72.9820  227.2170 C   0  0  0  0  0  0  0  0  0  0  0  0
  133.1490   71.8950  226.6430 C   0  0  0  0  0  0  0  0  0  0  0  0
  134.0910   72.1420  225.6710 C   0  0  0  0  0  0  0  0  0  0  0  0
  134.4260   73.4160  225.2600 C   0  0  0  0  0  0  0  0  0  0  0  0
  135.4520   73.5580  224.2060 C   0  0  0  0  0  0  0  0  0  0  0  0
  137.0990   76.6370  223.1610 N   0  0  0  0  0  0  0  0  0  0  0  0
  138.2090   77.0370  222.5140 C   0  0  0  0  0  0  0  0  0  0  0  0
  138.6970   78.3690  222.5720 N   0  0  0  0  0  0  0  0  0  0  0  0
  138.0850   79.4030  221.7650 C   0  0  0  0  0  0  0  0  0  0  0  0
  138.3440   80.7210  222.4840 C   0  0  0  0  0  0  0  0  0  0  0  0
  139.8270   80.9120  222.4710 C   0  0  0  0  0  0  0  0  0  0  0  0
  140.4160   82.0720  221.9940 C   0  0  0  0  0  0  0  0  0  0  0  0
  141.7990   82.1140  222.0410 C   0  0  0  0  0  0  0  0  0  0  0  0
  142.5640   81.0870  222.5220 C   0  0  0  0  0  0  0  0  0  0  0  0
  141.9600   79.9180  223.0020 C   0  0  0  0  0  0  0  0  0  0  0  0
  140.5760   79.8540  222.9640 C   0  0  0  0  0  0  0  0  0  0  0  0
  139.8110   78.6730  223.4430 C   0  0  0  0  0  0  0  0  0  0  0  0
  138.8510   76.0970  221.7910 N   0  0  0  0  0  0  0  0  0  0  0  0
  139.7270   72.8130  221.8360 C   0  0  0  0  0  0  0  0  0  0  0  0
  140.8110   72.0600  221.0700 C   0  0  0  0  0  0  0  0  0  0  0  0
  145.0950   70.9750  220.3860 H   0  0  0  0  0  0  0  0  0  0  0  0
  146.7310   71.2470  220.4810 H   0  0  0  0  0  0  0  0  0  0  0  0
  143.7294   74.3523  219.9314 H   0  0  0  0  0  0  0  0  0  0  0  0
  143.5403   73.3020  218.4897 H   0  0  0  0  0  0  0  0  0  0  0  0
  142.8130   71.5358  219.7024 H   0  0  0  0  0  0  0  0  0  0  0  0
  143.9198   71.9347  221.0936 H   0  0  0  0  0  0  0  0  0  0  0  0
  142.3841   72.9139  222.1835 H   0  0  0  0  0  0  0  0  0  0  0  0
  142.5196   74.7116  220.1382 H   0  0  0  0  0  0  0  0  0  0  0  0
  141.7110   74.8854  221.7676 H   0  0  0  0  0  0  0  0  0  0  0  0
  140.4509   74.1116  219.1364 H   0  0  0  0  0  0  0  0  0  0  0  0
  140.2011   75.6156  220.1609 H   0  0  0  0  0  0  0  0  0  0  0  0
  138.6379   73.4930  220.0365 H   0  0  0  0  0  0  0  0  0  0  0  0
  134.7061   76.8473  223.6339 H   0  0  0  0  0  0  0  0  0  0  0  0
  133.5226   75.5343  223.3990 H   0  0  0  0  0  0  0  0  0  0  0  0
  134.9790   76.2279  226.0128 H   0  0  0  0  0  0  0  0  0  0  0  0
  133.2610   76.5395  225.6669 H   0  0  0  0  0  0  0  0  0  0  0  0
  132.3154   75.1418  227.3158 H   0  0  0  0  0  0  0  0  0  0  0  0
  131.7719   72.8105  227.9974 H   0  0  0  0  0  0  0  0  0  0  0  0
  132.9013   70.8682  226.9500 H   0  0  0  0  0  0  0  0  0  0  0  0
  134.5991   71.2869  225.2012 H   0  0  0  0  0  0  0  0  0  0  0  0
  136.4349   73.2744  224.6103 H   0  0  0  0  0  0  0  0  0  0  0  0
  135.2013   72.9024  223.3591 H   0  0  0  0  0  0  0  0  0  0  0  0
  138.5380   79.4212  220.7628 H   0  0  0  0  0  0  0  0  0  0  0  0
  137.0072   79.2236  221.6380 H   0  0  0  0  0  0  0  0  0  0  0  0
  137.8472   81.5485  221.9563 H   0  0  0  0  0  0  0  0  0  0  0  0
  137.9484   80.7051  223.5103 H   0  0  0  0  0  0  0  0  0  0  0  0
  139.8204   82.9094  221.6015 H   0  0  0  0  0  0  0  0  0  0  0  0
  142.3076   83.0175  221.6736 H   0  0  0  0  0  0  0  0  0  0  0  0
  143.6600   81.1798  222.5319 H   0  0  0  0  0  0  0  0  0  0  0  0
  142.5604   79.0836  223.3937 H   0  0  0  0  0  0  0  0  0  0  0  0
  140.4834   77.8032  223.4789 H   0  0  0  0  0  0  0  0  0  0  0  0
  139.4126   78.9042  224.4419 H   0  0  0  0  0  0  0  0  0  0  0  0
  138.9001   72.1390  222.1042 H   0  0  0  0  0  0  0  0  0  0  0  0
  140.0979   73.2364  222.7811 H   0  0  0  0  0  0  0  0  0  0  0  0
  140.5066   71.9138  220.0231 H   0  0  0  0  0  0  0  0  0  0  0  0
  140.9891   71.0643  221.5022 H   0  0  0  0  0  0  0  0  0  0  0  0
  1  2  1  0
  2  3  2  0
  2  4  2  0
  2  5  1  0
  5  6  1  0
  6  7  1  0
  7  8  1  0
  8  9  1  0
  9 10  1  0
 10 11  1  0
 11 12  2  0
 12 13  1  0
 13 14  1  0
 14 15  1  0
 15 16  1  0
 16 17  1  0
 17 18  2  0
 18 19  1  0
 19 20  2  0
 20 21  1  0
 21 22  2  0
 22 23  1  0
 13 24  2  0
 24 25  1  0
 25 26  1  0
 26 27  1  0
 27 28  1  0
 28 29  1  0
 29 30  2  0
 30 31  1  0
 31 32  2  0
 32 33  1  0
 33 34  2  0
 34 35  1  0
 25 36  2  0
 10 37  1  0
 37 38  1  0
 38  7  1  0
 36 11  1  0
 23 14  1  0
 35 26  1  0
 22 17  1  0
 34 29  1  0
  1 39  1  0
  1 40  1  0
  5 41  1  0
  5 42  1  0
  6 43  1  0
  6 44  1  0
  7 45  1  1
  8 46  1  0
  8 47  1  0
  9 48  1  0
  9 49  1  0
 10 50  1  6
 15 51  1  0
 15 52  1  0
 16 53  1  0
 16 54  1  0
 18 55  1  0
 19 56  1  0
 20 57  1  0
 21 58  1  0
 23 59  1  0
 23 60  1  0
 27 61  1  0
 27 62  1  0
 28 63  1  0
 28 64  1  0
 30 65  1  0
 31 66  1  0
 32 67  1  0
 33 68  1  0
 35 69  1  0
 35 70  1  0
 37 71  1  0
 37 72  1  0
 38 73  1  0
 38 74  1  0
M  END
>  <smiles>  (45) 
NS(=O)(=O)CC[C@H]1CC[C@H](c2nc(N3CCc4ccccc4C3)nc(N3CCc4ccccc4C3)n2)CC1

>  <score_type>  (45) 
oracle

>  <origin>  (45) 
autodockgpu

>  <m_score__min__energy>  (45) 
-10.08

>  <m_primary>  (45) 
energy

>  <rmsd>  (45) 
11.107500698983575

>  <m_score__min__rmsd>  (45) 
11.107500698983575

>  <meeko>  (45) 
{"free_energy": -9.18, "intermolecular_energy": -11.27, "internal_energy": -1.35, "cluster_size": 24, "cluster_id": 2, "rank_in_cluster": 14}

>  <energy>  (45) 
-8.59

>  <cluster_rmsd>  (45) 
0.0

>  <cluster>  (45) 
8

$$$$

     RDKit          3D

 74 79  0  0  0  0  0  0  0  0999 V2000
  146.4070   73.8430  220.6320 N   0  0  0  0  0  0  0  0  0  0  0  0
  145.5360   72.9450  219.4430 S   0  0  0  0  0  0  0  0  0  0  0  0
  145.6280   71.4840  219.7200 O   0  0  0  0  0  0  0  0  0  0  0  0
  146.1490   73.2730  218.1180 O   0  0  0  0  0  0  0  0  0  0  0  0
  143.8100   73.4410  219.4810 C   0  0  0  0  0  0  0  0  0  0  0  0
  143.0130   72.3950  220.2080 C   0  0  0  0  0  0  0  0  0  0  0  0
  141.9280   72.9840  221.0800 C   0  0  1  0  0  0  0  0  0  0  0  0
  141.4430   74.3230  220.6380 C   0  0  0  0  0  0  0  0  0  0  0  0
  140.0060   74.3210  220.1740 C   0  0  0  0  0  0  0  0  0  0  0  0
  139.0450   73.6920  221.1230 C   0  0  2  0  0  0  0  0  0  0  0  0
  138.2830   74.6700  221.9580 C   0  0  0  0  0  0  0  0  0  0  0  0
  137.1300   74.3370  222.5840 N   0  0  0  0  0  0  0  0  0  0  0  0
  136.5040   75.2890  223.3190 C   0  0  0  0  0  0  0  0  0  0  0  0
  135.2950   74.9030  223.9660 N   0  0  0  0  0  0  0  0  0  0  0  0
  134.2010   75.8400  224.0140 C   0  0  0  0  0  0  0  0  0  0  0  0
  133.8050   76.0100  225.4660 C   0  0  0  0  0  0  0  0  0  0  0  0
  133.4600   74.6650  225.9880 C   0  0  0  0  0  0  0  0  0  0  0  0
  132.4430   74.5710  226.9300 C   0  0  0  0  0  0  0  0  0  0  0  0
  132.1260   73.3080  227.4140 C   0  0  0  0  0  0  0  0  0  0  0  0
  132.7820   72.1720  226.9910 C   0  0  0  0  0  0  0  0  0  0  0  0
  133.7800   72.3260  226.0580 C   0  0  0  0  0  0  0  0  0  0  0  0
  134.1390   73.5550  225.5400 C   0  0  0  0  0  0  0  0  0  0  0  0
  135.2280   73.5970  224.5410 C   0  0  0  0  0  0  0  0  0  0  0  0
  137.0140   76.5320  223.4210 N   0  0  0  0  0  0  0  0  0  0  0  0
  138.1590   76.8720  222.8020 C   0  0  0  0  0  0  0  0  0  0  0  0
  138.7250   78.1710  222.8880 N   0  0  0  0  0  0  0  0  0  0  0  0
  137.8770   79.3410  222.8040 C   0  0  0  0  0  0  0  0  0  0  0  0
  138.6040   80.4550  223.5460 C   0  0  0  0  0  0  0  0  0  0  0  0
  139.8590   80.7120  222.7730 C   0  0  0  0  0  0  0  0  0  0  0  0
  140.2060   81.9790  222.3340 C   0  0  0  0  0  0  0  0  0  0  0  0
  141.3950   82.0720  221.6300 C   0  0  0  0  0  0  0  0  0  0  0  0
  142.1980   80.9950  221.3690 C   0  0  0  0  0  0  0  0  0  0  0  0
  141.8380   79.7180  221.8180 C   0  0  0  0  0  0  0  0  0  0  0  0
  140.6520   79.6020  222.5240 C   0  0  0  0  0  0  0  0  0  0  0  0
  140.1550   78.3050  223.0570 C   0  0  0  0  0  0  0  0  0  0  0  0
  138.7580   75.9040  222.0800 N   0  0  0  0  0  0  0  0  0  0  0  0
  139.7630   72.7940  222.1380 C   0  0  0  0  0  0  0  0  0  0  0  0
  140.7940   72.0350  221.3070 C   0  0  0  0  0  0  0  0  0  0  0  0
  147.0310   74.5100  220.1110 H   0  0  0  0  0  0  0  0  0  0  0  0
  147.0840   73.1480  221.0620 H   0  0  0  0  0  0  0  0  0  0  0  0
  143.7152   74.4048  220.0027 H   0  0  0  0  0  0  0  0  0  0  0  0
  143.4323   73.5464  218.4533 H   0  0  0  0  0  0  0  0  0  0  0  0
  142.5454   71.7311  219.4659 H   0  0  0  0  0  0  0  0  0  0  0  0
  143.7058   71.8495  220.8656 H   0  0  0  0  0  0  0  0  0  0  0  0
  142.4190   73.1534  222.0496 H   0  0  0  0  0  0  0  0  0  0  0  0
  142.0767   74.6657  219.8067 H   0  0  0  0  0  0  0  0  0  0  0  0
  141.5002   74.9914  221.5098 H   0  0  0  0  0  0  0  0  0  0  0  0
  139.9545   73.7734  219.2214 H   0  0  0  0  0  0  0  0  0  0  0  0
  139.7076   75.3759  220.0842 H   0  0  0  0  0  0  0  0  0  0  0  0
  138.3624   73.1366  220.4630 H   0  0  0  0  0  0  0  0  0  0  0  0
  134.5172   76.8071  223.5960 H   0  0  0  0  0  0  0  0  0  0  0  0
  133.3502   75.4701  223.4230 H   0  0  0  0  0  0  0  0  0  0  0  0
  134.6441   76.4324  226.0383 H   0  0  0  0  0  0  0  0  0  0  0  0
  132.9500   76.6957  225.5594 H   0  0  0  0  0  0  0  0  0  0  0  0
  131.9074   75.4656  227.2804 H   0  0  0  0  0  0  0  0  0  0  0  0
  131.3239   73.2112  228.1605 H   0  0  0  0  0  0  0  0  0  0  0  0
  132.5171   71.1797  227.3850 H   0  0  0  0  0  0  0  0  0  0  0  0
  134.3161   71.4312  225.7088 H   0  0  0  0  0  0  0  0  0  0  0  0
  136.1845   73.3623  225.0309 H   0  0  0  0  0  0  0  0  0  0  0  0
  135.0302   72.8576  223.7509 H   0  0  0  0  0  0  0  0  0  0  0  0
  137.7216   79.6232  221.7522 H   0  0  0  0  0  0  0  0  0  0  0  0
  136.8878   79.1484  223.2450 H   0  0  0  0  0  0  0  0  0  0  0  0
  137.9824   81.3619  223.5788 H   0  0  0  0  0  0  0  0  0  0  0  0
  138.8215   80.1720  224.5865 H   0  0  0  0  0  0  0  0  0  0  0  0
  139.5754   82.8581  222.5325 H   0  0  0  0  0  0  0  0  0  0  0  0
  141.7094   83.0600  221.2626 H   0  0  0  0  0  0  0  0  0  0  0  0
  143.1313   81.1330  220.8035 H   0  0  0  0  0  0  0  0  0  0  0  0
  142.4722   78.8418  221.6178 H   0  0  0  0  0  0  0  0  0  0  0  0
  140.6558   77.4843  222.5225 H   0  0  0  0  0  0  0  0  0  0  0  0
  140.3784   78.2679  224.1334 H   0  0  0  0  0  0  0  0  0  0  0  0
  139.0552   72.0977  222.6115 H   0  0  0  0  0  0  0  0  0  0  0  0
  140.2228   73.3682  222.9558 H   0  0  0  0  0  0  0  0  0  0  0  0
  140.3567   71.7266  220.3459 H   0  0  0  0  0  0  0  0  0  0  0  0
  141.1313   71.1235  221.8221 H   0  0  0  0  0  0  0  0  0  0  0  0
  1  2  1  0
  2  3  2  0
  2  4  2  0
  2  5  1  0
  5  6  1  0
  6  7  1  0
  7  8  1  0
  8  9  1  0
  9 10  1  0
 10 11  1  0
 11 12  2  0
 12 13  1  0
 13 14  1  0
 14 15  1  0
 15 16  1  0
 16 17  1  0
 17 18  2  0
 18 19  1  0
 19 20  2  0
 20 21  1  0
 21 22  2  0
 22 23  1  0
 13 24  2  0
 24 25  1  0
 25 26  1  0
 26 27  1  0
 27 28  1  0
 28 29  1  0
 29 30  2  0
 30 31  1  0
 31 32  2  0
 32 33  1  0
 33 34  2  0
 34 35  1  0
 25 36  2  0
 10 37  1  0
 37 38  1  0
 38  7  1  0
 36 11  1  0
 23 14  1  0
 35 26  1  0
 22 17  1  0
 34 29  1  0
  1 39  1  0
  1 40  1  0
  5 41  1  0
  5 42  1  0
  6 43  1  0
  6 44  1  0
  7 45  1  1
  8 46  1  0
  8 47  1  0
  9 48  1  0
  9 49  1  0
 10 50  1  6
 15 51  1  0
 15 52  1  0
 16 53  1  0
 16 54  1  0
 18 55  1  0
 19 56  1  0
 20 57  1  0
 21 58  1  0
 23 59  1  0
 23 60  1  0
 27 61  1  0
 27 62  1  0
 28 63  1  0
 28 64  1  0
 30 65  1  0
 31 66  1  0
 32 67  1  0
 33 68  1  0
 35 69  1  0
 35 70  1  0
 37 71  1  0
 37 72  1  0
 38 73  1  0
 38 74  1  0
M  END
>  <smiles>  (46) 
NS(=O)(=O)CC[C@H]1CC[C@H](c2nc(N3CCc4ccccc4C3)nc(N3CCc4ccccc4C3)n2)CC1

>  <score_type>  (46) 
oracle

>  <origin>  (46) 
autodockgpu

>  <m_score__min__energy>  (46) 
-10.08

>  <m_primary>  (46) 
energy

>  <rmsd>  (46) 
11.335567211491496

>  <m_score__min__rmsd>  (46) 
11.335567211491496

>  <meeko>  (46) 
{"free_energy": -8.91, "intermolecular_energy": -11.0, "internal_energy": -1.39, "cluster_size": 24, "cluster_id": 2, "rank_in_cluster": 20}

>  <energy>  (46) 
-8.51

>  <cluster_rmsd>  (46) 
0.0

>  <cluster>  (46) 
9

$$$$

     RDKit          3D

 74 79  0  0  0  0  0  0  0  0999 V2000
  144.5950   66.8690  215.5720 N   0  0  0  0  0  0  0  0  0  0  0  0
  145.8990   67.8120  216.1970 S   0  0  0  0  0  0  0  0  0  0  0  0
  145.9750   69.1260  215.4990 O   0  0  0  0  0  0  0  0  0  0  0  0
  147.1500   67.0210  215.9770 O   0  0  0  0  0  0  0  0  0  0  0  0
  145.6300   68.0950  217.9510 C   0  0  0  0  0  0  0  0  0  0  0  0
  144.3680   67.3980  218.3740 C   0  0  0  0  0  0  0  0  0  0  0  0
  143.4210   68.3050  219.1260 C   0  0  1  0  0  0  0  0  0  0  0  0
  144.0940   69.3140  219.9930 C   0  0  0  0  0  0  0  0  0  0  0  0
  143.8800   70.7390  219.5390 C   0  0  0  0  0  0  0  0  0  0  0  0
  142.4570   71.1090  219.2960 C   0  0  2  0  0  0  0  0  0  0  0  0
  141.8230   71.8670  220.4170 C   0  0  0  0  0  0  0  0  0  0  0  0
  141.4210   71.2600  221.5590 N   0  0  0  0  0  0  0  0  0  0  0  0
  140.8540   72.0260  222.5220 C   0  0  0  0  0  0  0  0  0  0  0  0
  140.4450   71.3560  223.7110 N   0  0  0  0  0  0  0  0  0  0  0  0
  140.6680   71.9960  224.9830 C   0  0  0  0  0  0  0  0  0  0  0  0
  141.4530   71.0330  225.8490 C   0  0  0  0  0  0  0  0  0  0  0  0
  140.6620   69.7810  225.9440 C   0  0  0  0  0  0  0  0  0  0  0  0
  140.7070   69.0680  227.1360 C   0  0  0  0  0  0  0  0  0  0  0  0
  139.9640   67.8980  227.2160 C   0  0  0  0  0  0  0  0  0  0  0  0
  139.2010   67.4380  226.1650 C   0  0  0  0  0  0  0  0  0  0  0  0
  139.1950   68.1850  225.0100 C   0  0  0  0  0  0  0  0  0  0  0  0
  139.9120   69.3560  224.8710 C   0  0  0  0  0  0  0  0  0  0  0  0
  139.8280   70.0740  223.5820 C   0  0  0  0  0  0  0  0  0  0  0  0
  140.6920   73.3520  222.3490 N   0  0  0  0  0  0  0  0  0  0  0  0
  141.0900   73.9630  221.2170 C   0  0  0  0  0  0  0  0  0  0  0  0
  140.9360   75.3580  221.0000 N   0  0  0  0  0  0  0  0  0  0  0  0
  141.2120   75.9250  219.6970 C   0  0  0  0  0  0  0  0  0  0  0  0
  140.3780   77.1960  219.5950 C   0  0  0  0  0  0  0  0  0  0  0  0
  140.9060   78.1200  220.6460 C   0  0  0  0  0  0  0  0  0  0  0  0
  141.3080   79.4130  220.3550 C   0  0  0  0  0  0  0  0  0  0  0  0
  141.7760   80.1580  221.4240 C   0  0  0  0  0  0  0  0  0  0  0  0
  141.8500   79.6720  222.7010 C   0  0  0  0  0  0  0  0  0  0  0  0
  141.4410   78.3630  222.9860 C   0  0  0  0  0  0  0  0  0  0  0  0
  140.9690   77.6000  221.9300 C   0  0  0  0  0  0  0  0  0  0  0  0
  140.5030   76.1970  222.0950 C   0  0  0  0  0  0  0  0  0  0  0  0
  141.6510   73.1760  220.2780 N   0  0  0  0  0  0  0  0  0  0  0  0
  141.5750   69.8660  219.1210 C   0  0  0  0  0  0  0  0  0  0  0  0
  142.4010   68.9390  218.2330 C   0  0  0  0  0  0  0  0  0  0  0  0
  144.0200   66.5610  216.3980 H   0  0  0  0  0  0  0  0  0  0  0  0
  145.0430   65.9710  215.2290 H   0  0  0  0  0  0  0  0  0  0  0  0
  146.4806   67.6960  218.5231 H   0  0  0  0  0  0  0  0  0  0  0  0
  145.5390   69.1744  218.1424 H   0  0  0  0  0  0  0  0  0  0  0  0
  143.8560   67.0226  217.4757 H   0  0  0  0  0  0  0  0  0  0  0  0
  144.6529   66.5809  219.0531 H   0  0  0  0  0  0  0  0  0  0  0  0
  142.8885   67.6327  219.8148 H   0  0  0  0  0  0  0  0  0  0  0  0
  145.1744   69.1074  219.9931 H   0  0  0  0  0  0  0  0  0  0  0  0
  143.6514   69.2246  220.9960 H   0  0  0  0  0  0  0  0  0  0  0  0
  144.4372   70.8873  218.6022 H   0  0  0  0  0  0  0  0  0  0  0  0
  144.2321   71.3821  220.3590 H   0  0  0  0  0  0  0  0  0  0  0  0
  142.5071   71.7330  218.3915 H   0  0  0  0  0  0  0  0  0  0  0  0
  141.2405   72.9244  224.8405 H   0  0  0  0  0  0  0  0  0  0  0  0
  139.7103   72.2516  225.4599 H   0  0  0  0  0  0  0  0  0  0  0  0
  142.4315   70.8264  225.3909 H   0  0  0  0  0  0  0  0  0  0  0  0
  141.6278   71.4603  226.8474 H   0  0  0  0  0  0  0  0  0  0  0  0
  141.3103   69.4184  227.9864 H   0  0  0  0  0  0  0  0  0  0  0  0
  139.9852   67.3183  228.1506 H   0  0  0  0  0  0  0  0  0  0  0  0
  138.6186   66.5084  226.2465 H   0  0  0  0  0  0  0  0  0  0  0  0
  138.5922   67.8335  224.1597 H   0  0  0  0  0  0  0  0  0  0  0  0
  140.3466   69.4939  222.8045 H   0  0  0  0  0  0  0  0  0  0  0  0
  138.7722   70.2014  223.3009 H   0  0  0  0  0  0  0  0  0  0  0  0
  142.2818   76.1637  219.6049 H   0  0  0  0  0  0  0  0  0  0  0  0
  140.9604   75.2176  218.8931 H   0  0  0  0  0  0  0  0  0  0  0  0
  140.4893   77.6474  218.5981 H   0  0  0  0  0  0  0  0  0  0  0  0
  139.3076   76.9888  219.7411 H   0  0  0  0  0  0  0  0  0  0  0  0
  141.2584   79.8234  219.3356 H   0  0  0  0  0  0  0  0  0  0  0  0
  142.1044   81.1912  221.2377 H   0  0  0  0  0  0  0  0  0  0  0  0
  142.2330   80.3131  223.5086 H   0  0  0  0  0  0  0  0  0  0  0  0
  141.4924   77.9570  224.0070 H   0  0  0  0  0  0  0  0  0  0  0  0
  140.9091   75.7946  223.0348 H   0  0  0  0  0  0  0  0  0  0  0  0
  139.4031   76.2003  222.1106 H   0  0  0  0  0  0  0  0  0  0  0  0
  140.6246   70.1282  218.6331 H   0  0  0  0  0  0  0  0  0  0  0  0
  141.3092   69.4008  220.0817 H   0  0  0  0  0  0  0  0  0  0  0  0
  142.8961   69.5147  217.4371 H   0  0  0  0  0  0  0  0  0  0  0  0
  141.7687   68.1820  217.7460 H   0  0  0  0  0  0  0  0  0  0  0  0
  1  2  1  0
  2  3  2  0
  2  4  2  0
  2  5  1  0
  5  6  1  0
  6  7  1  0
  7  8  1  0
  8  9  1  0
  9 10  1  0
 10 11  1  0
 11 12  2  0
 12 13  1  0
 13 14  1  0
 14 15  1  0
 15 16  1  0
 16 17  1  0
 17 18  2  0
 18 19  1  0
 19 20  2  0
 20 21  1  0
 21 22  2  0
 22 23  1  0
 13 24  2  0
 24 25  1  0
 25 26  1  0
 26 27  1  0
 27 28  1  0
 28 29  1  0
 29 30  2  0
 30 31  1  0
 31 32  2  0
 32 33  1  0
 33 34  2  0
 34 35  1  0
 25 36  2  0
 10 37  1  0
 37 38  1  0
 38  7  1  0
 36 11  1  0
 23 14  1  0
 35 26  1  0
 22 17  1  0
 34 29  1  0
  1 39  1  0
  1 40  1  0
  5 41  1  0
  5 42  1  0
  6 43  1  0
  6 44  1  0
  7 45  1  1
  8 46  1  0
  8 47  1  0
  9 48  1  0
  9 49  1  0
 10 50  1  6
 15 51  1  0
 15 52  1  0
 16 53  1  0
 16 54  1  0
 18 55  1  0
 19 56  1  0
 20 57  1  0
 21 58  1  0
 23 59  1  0
 23 60  1  0
 27 61  1  0
 27 62  1  0
 28 63  1  0
 28 64  1  0
 30 65  1  0
 31 66  1  0
 32 67  1  0
 33 68  1  0
 35 69  1  0
 35 70  1  0
 37 71  1  0
 37 72  1  0
 38 73  1  0
 38 74  1  0
M  END
>  <smiles>  (47) 
NS(=O)(=O)CC[C@H]1CC[C@H](c2nc(N3CCc4ccccc4C3)nc(N3CCc4ccccc4C3)n2)CC1

>  <score_type>  (47) 
oracle

>  <origin>  (47) 
autodockgpu

>  <m_score__min__energy>  (47) 
-10.08

>  <m_primary>  (47) 
energy

>  <rmsd>  (47) 
11.728329919673707

>  <m_score__min__rmsd>  (47) 
11.728329919673707

>  <meeko>  (47) 
{"free_energy": -9.01, "intermolecular_energy": -11.1, "internal_energy": -1.41, "cluster_size": 4, "cluster_id": 6, "rank_in_cluster": 2}

>  <energy>  (47) 
-8.43

>  <cluster_rmsd>  (47) 
0.0

>  <cluster>  (47) 
10

$$$$

     RDKit          3D

 74 79  0  0  0  0  0  0  0  0999 V2000
  142.9970   79.0610  217.8740 N   0  0  0  0  0  0  0  0  0  0  0  0
  142.5340   77.4480  217.4690 S   0  0  0  0  0  0  0  0  0  0  0  0
  143.7220   76.6540  217.0450 O   0  0  0  0  0  0  0  0  0  0  0  0
  141.5390   77.5500  216.3570 O   0  0  0  0  0  0  0  0  0  0  0  0
  141.7940   76.6710  218.9100 C   0  0  0  0  0  0  0  0  0  0  0  0
  140.6590   75.7930  218.4670 C   0  0  0  0  0  0  0  0  0  0  0  0
  140.1330   74.9100  219.5760 C   0  0  1  0  0  0  0  0  0  0  0  0
  139.0680   75.5380  220.4090 C   0  0  0  0  0  0  0  0  0  0  0  0
  137.7220   74.8660  220.2760 C   0  0  0  0  0  0  0  0  0  0  0  0
  137.7410   73.3880  220.4610 C   0  0  2  0  0  0  0  0  0  0  0  0
  137.3070   72.9370  221.8180 C   0  0  0  0  0  0  0  0  0  0  0  0
  136.2550   73.4970  222.4600 N   0  0  0  0  0  0  0  0  0  0  0  0
  135.9330   73.0260  223.6890 C   0  0  0  0  0  0  0  0  0  0  0  0
  134.8200   73.6360  224.3350 N   0  0  0  0  0  0  0  0  0  0  0  0
  134.4380   74.9720  223.9530 C   0  0  0  0  0  0  0  0  0  0  0  0
  134.4150   75.8200  225.2070 C   0  0  0  0  0  0  0  0  0  0  0  0
  133.4690   75.1790  226.1540 C   0  0  0  0  0  0  0  0  0  0  0  0
  132.7160   76.0020  226.9820 C   0  0  0  0  0  0  0  0  0  0  0  0
  131.8340   75.3940  227.8650 C   0  0  0  0  0  0  0  0  0  0  0  0
  131.6910   74.0260  227.9380 C   0  0  0  0  0  0  0  0  0  0  0  0
  132.4630   73.2620  227.0940 C   0  0  0  0  0  0  0  0  0  0  0  0
  133.3560   73.8080  226.1950 C   0  0  0  0  0  0  0  0  0  0  0  0
  134.1320   72.8870  225.3380 C   0  0  0  0  0  0  0  0  0  0  0  0
  136.6400   72.0300  224.2570 N   0  0  0  0  0  0  0  0  0  0  0  0
  137.6870   71.4670  223.6260 C   0  0  0  0  0  0  0  0  0  0  0  0
  138.4550   70.4160  224.1930 N   0  0  0  0  0  0  0  0  0  0  0  0
  137.9390   69.0640  224.2070 C   0  0  0  0  0  0  0  0  0  0  0  0
  139.1500   68.1400  224.2470 C   0  0  0  0  0  0  0  0  0  0  0  0
  139.8300   68.4110  225.5510 C   0  0  0  0  0  0  0  0  0  0  0  0
  140.1340   67.3990  226.4470 C   0  0  0  0  0  0  0  0  0  0  0  0
  140.7640   67.7920  227.6150 C   0  0  0  0  0  0  0  0  0  0  0  0
  141.0790   69.0940  227.8960 C   0  0  0  0  0  0  0  0  0  0  0  0
  140.7680   70.1100  226.9830 C   0  0  0  0  0  0  0  0  0  0  0  0
  140.1370   69.7390  225.8070 C   0  0  0  0  0  0  0  0  0  0  0  0
  139.7530   70.7180  224.7550 C   0  0  0  0  0  0  0  0  0  0  0  0
  137.9830   71.9560  222.4050 N   0  0  0  0  0  0  0  0  0  0  0  0
  139.1570   72.8200  220.2980 C   0  0  0  0  0  0  0  0  0  0  0  0
  139.7230   73.5560  219.0870 C   0  0  0  0  0  0  0  0  0  0  0  0
  143.6300   79.3970  217.1040 H   0  0  0  0  0  0  0  0  0  0  0  0
  143.6460   78.9610  218.7070 H   0  0  0  0  0  0  0  0  0  0  0  0
  142.5493   76.0626  219.4290 H   0  0  0  0  0  0  0  0  0  0  0  0
  141.4180   77.4445  219.5958 H   0  0  0  0  0  0  0  0  0  0  0  0
  139.8391   76.4328  218.1085 H   0  0  0  0  0  0  0  0  0  0  0  0
  141.0405   75.1346  217.6726 H   0  0  0  0  0  0  0  0  0  0  0  0
  140.9926   74.7749  220.2490 H   0  0  0  0  0  0  0  0  0  0  0  0
  138.9632   76.5898  220.1046 H   0  0  0  0  0  0  0  0  0  0  0  0
  139.3775   75.4356  221.4596 H   0  0  0  0  0  0  0  0  0  0  0  0
  137.3304   75.0801  219.2706 H   0  0  0  0  0  0  0  0  0  0  0  0
  137.0925   75.2710  221.0821 H   0  0  0  0  0  0  0  0  0  0  0  0
  137.0401   73.0258  219.6945 H   0  0  0  0  0  0  0  0  0  0  0  0
  135.1673   75.3803  223.2379 H   0  0  0  0  0  0  0  0  0  0  0  0
  133.4485   74.9675  223.4726 H   0  0  0  0  0  0  0  0  0  0  0  0
  135.4206   75.8637  225.6507 H   0  0  0  0  0  0  0  0  0  0  0  0
  134.0997   76.8484  224.9768 H   0  0  0  0  0  0  0  0  0  0  0  0
  132.8151   77.0967  226.9395 H   0  0  0  0  0  0  0  0  0  0  0  0
  131.2280   76.0271  228.5298 H   0  0  0  0  0  0  0  0  0  0  0  0
  130.9865   73.5623  228.6441 H   0  0  0  0  0  0  0  0  0  0  0  0
  132.3641   72.1673  227.1377 H   0  0  0  0  0  0  0  0  0  0  0  0
  134.8622   72.3411  225.9534 H   0  0  0  0  0  0  0  0  0  0  0  0
  133.4495   72.1708  224.8572 H   0  0  0  0  0  0  0  0  0  0  0  0
  137.3108   68.9061  225.0960 H   0  0  0  0  0  0  0  0  0  0  0  0
  137.3164   68.8663  223.3220 H   0  0  0  0  0  0  0  0  0  0  0  0
  138.8309   67.0887  224.1932 H   0  0  0  0  0  0  0  0  0  0  0  0
  139.8231   68.3196  223.3957 H   0  0  0  0  0  0  0  0  0  0  0  0
  139.8893   66.3463  226.2424 H   0  0  0  0  0  0  0  0  0  0  0  0
  141.0244   67.0199  228.3539 H   0  0  0  0  0  0  0  0  0  0  0  0
  141.5788   69.3439  228.8435 H   0  0  0  0  0  0  0  0  0  0  0  0
  141.0152   71.1613  227.1918 H   0  0  0  0  0  0  0  0  0  0  0  0
  139.7246   71.7246  225.1977 H   0  0  0  0  0  0  0  0  0  0  0  0
  140.4979   70.6641  223.9474 H   0  0  0  0  0  0  0  0  0  0  0  0
  139.1230   71.7360  220.1140 H   0  0  0  0  0  0  0  0  0  0  0  0
  139.7717   72.9602  221.1994 H   0  0  0  0  0  0  0  0  0  0  0  0
  138.9556   73.6493  218.3044 H   0  0  0  0  0  0  0  0  0  0  0  0
  140.5737   73.0131  218.6493 H   0  0  0  0  0  0  0  0  0  0  0  0
  1  2  1  0
  2  3  2  0
  2  4  2  0
  2  5  1  0
  5  6  1  0
  6  7  1  0
  7  8  1  0
  8  9  1  0
  9 10  1  0
 10 11  1  0
 11 12  2  0
 12 13  1  0
 13 14  1  0
 14 15  1  0
 15 16  1  0
 16 17  1  0
 17 18  2  0
 18 19  1  0
 19 20  2  0
 20 21  1  0
 21 22  2  0
 22 23  1  0
 13 24  2  0
 24 25  1  0
 25 26  1  0
 26 27  1  0
 27 28  1  0
 28 29  1  0
 29 30  2  0
 30 31  1  0
 31 32  2  0
 32 33  1  0
 33 34  2  0
 34 35  1  0
 25 36  2  0
 10 37  1  0
 37 38  1  0
 38  7  1  0
 36 11  1  0
 23 14  1  0
 35 26  1  0
 22 17  1  0
 34 29  1  0
  1 39  1  0
  1 40  1  0
  5 41  1  0
  5 42  1  0
  6 43  1  0
  6 44  1  0
  7 45  1  1
  8 46  1  0
  8 47  1  0
  9 48  1  0
  9 49  1  0
 10 50  1  6
 15 51  1  0
 15 52  1  0
 16 53  1  0
 16 54  1  0
 18 55  1  0
 19 56  1  0
 20 57  1  0
 21 58  1  0
 23 59  1  0
 23 60  1  0
 27 61  1  0
 27 62  1  0
 28 63  1  0
 28 64  1  0
 30 65  1  0
 31 66  1  0
 32 67  1  0
 33 68  1  0
 35 69  1  0
 35 70  1  0
 37 71  1  0
 37 72  1  0
 38 73  1  0
 38 74  1  0
M  END
>  <smiles>  (48) 
NS(=O)(=O)CC[C@H]1CC[C@H](c2nc(N3CCc4ccccc4C3)nc(N3CCc4ccccc4C3)n2)CC1

>  <score_type>  (48) 
oracle

>  <origin>  (48) 
autodockgpu

>  <m_score__min__energy>  (48) 
-10.08

>  <m_primary>  (48) 
energy

>  <rmsd>  (48) 
11.644307455848706

>  <m_score__min__rmsd>  (48) 
11.644307455848706

>  <meeko>  (48) 
{"free_energy": -8.17, "intermolecular_energy": -10.26, "internal_energy": -1.28, "cluster_size": 2, "cluster_id": 11, "rank_in_cluster": 2}

>  <energy>  (48) 
-8.22

>  <cluster_rmsd>  (48) 
0.0

>  <cluster>  (48) 
11

$$$$

     RDKit          3D

 74 79  0  0  0  0  0  0  0  0999 V2000
  146.3770   73.4420  218.3540 N   0  0  0  0  0  0  0  0  0  0  0  0
  145.5770   72.6300  219.6500 S   0  0  0  0  0  0  0  0  0  0  0  0
  146.2730   72.8950  220.9410 O   0  0  0  0  0  0  0  0  0  0  0  0
  145.6000   71.1690  219.3250 O   0  0  0  0  0  0  0  0  0  0  0  0
  143.8870   73.2270  219.7630 C   0  0  0  0  0  0  0  0  0  0  0  0
  143.0410   72.1840  220.4380 C   0  0  0  0  0  0  0  0  0  0  0  0
  141.9010   72.7780  221.2330 C   0  0  1  0  0  0  0  0  0  0  0  0
  141.6190   74.2100  220.9290 C   0  0  0  0  0  0  0  0  0  0  0  0
  140.2740   74.4370  220.2820 C   0  0  0  0  0  0  0  0  0  0  0  0
  139.1260   73.8070  220.9920 C   0  0  2  0  0  0  0  0  0  0  0  0
  138.3470   74.7510  221.8500 C   0  0  0  0  0  0  0  0  0  0  0  0
  137.2070   74.3780  222.4790 N   0  0  0  0  0  0  0  0  0  0  0  0
  136.5650   75.3010  223.2350 C   0  0  0  0  0  0  0  0  0  0  0  0
  135.3710   74.8750  223.8840 N   0  0  0  0  0  0  0  0  0  0  0  0
  134.2790   75.8060  224.0160 C   0  0  0  0  0  0  0  0  0  0  0  0
  133.9160   75.8830  225.4840 C   0  0  0  0  0  0  0  0  0  0  0  0
  133.5820   74.5080  225.9280 C   0  0  0  0  0  0  0  0  0  0  0  0
  132.5860   74.3540  226.8850 C   0  0  0  0  0  0  0  0  0  0  0  0
  132.2800   73.0630  227.2950 C   0  0  0  0  0  0  0  0  0  0  0  0
  132.9240   71.9560  226.7860 C   0  0  0  0  0  0  0  0  0  0  0  0
  133.9010   72.1700  225.8420 C   0  0  0  0  0  0  0  0  0  0  0  0
  134.2490   73.4280  225.3950 C   0  0  0  0  0  0  0  0  0  0  0  0
  135.3150   73.5340  224.3760 C   0  0  0  0  0  0  0  0  0  0  0  0
  137.0450   76.5540  223.3560 N   0  0  0  0  0  0  0  0  0  0  0  0
  138.1770   76.9330  222.7350 C   0  0  0  0  0  0  0  0  0  0  0  0
  138.7120   78.2440  222.8400 N   0  0  0  0  0  0  0  0  0  0  0  0
  137.8450   79.3950  222.7110 C   0  0  0  0  0  0  0  0  0  0  0  0
  138.5150   80.5280  223.4800 C   0  0  0  0  0  0  0  0  0  0  0  0
  139.7980   80.8060  222.7660 C   0  0  0  0  0  0  0  0  0  0  0  0
  140.1410   82.0790  222.3360 C   0  0  0  0  0  0  0  0  0  0  0  0
  141.3590   82.1930  221.6890 C   0  0  0  0  0  0  0  0  0  0  0  0
  142.1950   81.1320  221.4710 C   0  0  0  0  0  0  0  0  0  0  0  0
  141.8400   79.8490  221.9100 C   0  0  0  0  0  0  0  0  0  0  0  0
  140.6250   79.7120  222.5600 C   0  0  0  0  0  0  0  0  0  0  0  0
  140.1300   78.4080  223.0760 C   0  0  0  0  0  0  0  0  0  0  0  0
  138.7940   75.9930  221.9910 N   0  0  0  0  0  0  0  0  0  0  0  0
  139.5950   72.7070  221.9530 C   0  0  0  0  0  0  0  0  0  0  0  0
  140.6590   71.9460  221.1670 C   0  0  0  0  0  0  0  0  0  0  0  0
  147.0860   74.0860  218.7900 H   0  0  0  0  0  0  0  0  0  0  0  0
  145.6510   74.1030  217.9530 H   0  0  0  0  0  0  0  0  0  0  0  0
  143.8633   74.1569  220.3501 H   0  0  0  0  0  0  0  0  0  0  0  0
  143.4958   73.4254  218.7542 H   0  0  0  0  0  0  0  0  0  0  0  0
  142.6232   71.5185  219.6683 H   0  0  0  0  0  0  0  0  0  0  0  0
  143.6869   71.6391  221.1423 H   0  0  0  0  0  0  0  0  0  0  0  0
  142.2572   72.7625  222.2736 H   0  0  0  0  0  0  0  0  0  0  0  0
  142.3994   74.5812  220.2484 H   0  0  0  0  0  0  0  0  0  0  0  0
  141.6103   74.7478  221.8885 H   0  0  0  0  0  0  0  0  0  0  0  0
  140.3116   74.0280  219.2615 H   0  0  0  0  0  0  0  0  0  0  0  0
  140.0967   75.5223  220.3078 H   0  0  0  0  0  0  0  0  0  0  0  0
  138.4981   73.4254  220.1734 H   0  0  0  0  0  0  0  0  0  0  0  0
  134.5863   76.7980  223.6533 H   0  0  0  0  0  0  0  0  0  0  0  0
  133.4149   75.4737  223.4219 H   0  0  0  0  0  0  0  0  0  0  0  0
  134.7681   76.2690  226.0628 H   0  0  0  0  0  0  0  0  0  0  0  0
  133.0635   76.5605  225.6395 H   0  0  0  0  0  0  0  0  0  0  0  0
  132.0586   75.2241  227.3030 H   0  0  0  0  0  0  0  0  0  0  0  0
  131.4959   72.9189  228.0528 H   0  0  0  0  0  0  0  0  0  0  0  0
  132.6666   70.9406  227.1217 H   0  0  0  0  0  0  0  0  0  0  0  0
  134.4284   71.2995  225.4248 H   0  0  0  0  0  0  0  0  0  0  0  0
  136.2821   73.2683  224.8278 H   0  0  0  0  0  0  0  0  0  0  0  0
  135.0980   72.8468  223.5449 H   0  0  0  0  0  0  0  0  0  0  0  0
  137.7320   79.6691  221.6517 H   0  0  0  0  0  0  0  0  0  0  0  0
  136.8408   79.1838  223.1073 H   0  0  0  0  0  0  0  0  0  0  0  0
  137.8747   81.4224  223.4782 H   0  0  0  0  0  0  0  0  0  0  0  0
  138.6892   80.2545  224.5311 H   0  0  0  0  0  0  0  0  0  0  0  0
  139.4843   82.9462  222.4994 H   0  0  0  0  0  0  0  0  0  0  0  0
  141.6705   83.1858  221.3323 H   0  0  0  0  0  0  0  0  0  0  0  0
  143.1506   81.2866  220.9486 H   0  0  0  0  0  0  0  0  0  0  0  0
  142.5005   78.9851  221.7447 H   0  0  0  0  0  0  0  0  0  0  0  0
  140.6721   77.5953  222.5704 H   0  0  0  0  0  0  0  0  0  0  0  0
  140.3029   78.3804  224.1620 H   0  0  0  0  0  0  0  0  0  0  0  0
  138.7603   72.0430  222.2220 H   0  0  0  0  0  0  0  0  0  0  0  0
  139.9824   73.1133  222.8989 H   0  0  0  0  0  0  0  0  0  0  0  0
  140.3415   71.8169  220.1218 H   0  0  0  0  0  0  0  0  0  0  0  0
  140.8258   70.9426  221.5857 H   0  0  0  0  0  0  0  0  0  0  0  0
  1  2  1  0
  2  3  2  0
  2  4  2  0
  2  5  1  0
  5  6  1  0
  6  7  1  0
  7  8  1  0
  8  9  1  0
  9 10  1  0
 10 11  1  0
 11 12  2  0
 12 13  1  0
 13 14  1  0
 14 15  1  0
 15 16  1  0
 16 17  1  0
 17 18  2  0
 18 19  1  0
 19 20  2  0
 20 21  1  0
 21 22  2  0
 22 23  1  0
 13 24  2  0
 24 25  1  0
 25 26  1  0
 26 27  1  0
 27 28  1  0
 28 29  1  0
 29 30  2  0
 30 31  1  0
 31 32  2  0
 32 33  1  0
 33 34  2  0
 34 35  1  0
 25 36  2  0
 10 37  1  0
 37 38  1  0
 38  7  1  0
 36 11  1  0
 23 14  1  0
 35 26  1  0
 22 17  1  0
 34 29  1  0
  1 39  1  0
  1 40  1  0
  5 41  1  0
  5 42  1  0
  6 43  1  0
  6 44  1  0
  7 45  1  1
  8 46  1  0
  8 47  1  0
  9 48  1  0
  9 49  1  0
 10 50  1  6
 15 51  1  0
 15 52  1  0
 16 53  1  0
 16 54  1  0
 18 55  1  0
 19 56  1  0
 20 57  1  0
 21 58  1  0
 23 59  1  0
 23 60  1  0
 27 61  1  0
 27 62  1  0
 28 63  1  0
 28 64  1  0
 30 65  1  0
 31 66  1  0
 32 67  1  0
 33 68  1  0
 35 69  1  0
 35 70  1  0
 37 71  1  0
 37 72  1  0
 38 73  1  0
 38 74  1  0
M  END
>  <smiles>  (49) 
NS(=O)(=O)CC[C@H]1CC[C@H](c2nc(N3CCc4ccccc4C3)nc(N3CCc4ccccc4C3)n2)CC1

>  <score_type>  (49) 
oracle

>  <origin>  (49) 
autodockgpu

>  <m_score__min__energy>  (49) 
-10.08

>  <m_primary>  (49) 
energy

>  <rmsd>  (49) 
11.264808543336454

>  <m_score__min__rmsd>  (49) 
11.264808543336454

>  <meeko>  (49) 
{"free_energy": -9.45, "intermolecular_energy": -11.54, "internal_energy": -1.38, "cluster_size": 24, "cluster_id": 2, "rank_in_cluster": 6}

>  <energy>  (49) 
-8.17

>  <cluster_rmsd>  (49) 
1.22

>  <cluster>  (49) 
11

$$$$

     RDKit          3D

 74 79  0  0  0  0  0  0  0  0999 V2000
  145.3360   73.6940  218.5730 N   0  0  0  0  0  0  0  0  0  0  0  0
  145.5490   72.8110  220.0410 S   0  0  0  0  0  0  0  0  0  0  0  0
  146.2530   73.6450  221.0550 O   0  0  0  0  0  0  0  0  0  0  0  0
  146.3540   71.5960  219.7020 O   0  0  0  0  0  0  0  0  0  0  0  0
  143.9380   72.3440  220.6840 C   0  0  0  0  0  0  0  0  0  0  0  0
  142.8740   73.1100  219.9490 C   0  0  0  0  0  0  0  0  0  0  0  0
  141.8190   73.6800  220.8700 C   0  0  1  0  0  0  0  0  0  0  0  0
  141.1120   74.8760  220.3290 C   0  0  0  0  0  0  0  0  0  0  0  0
  139.6470   74.6360  220.0510 C   0  0  0  0  0  0  0  0  0  0  0  0
  138.8880   74.0350  221.1830 C   0  0  2  0  0  0  0  0  0  0  0  0
  138.0940   75.0200  221.9770 C   0  0  0  0  0  0  0  0  0  0  0  0
  136.9680   74.6690  222.6410 N   0  0  0  0  0  0  0  0  0  0  0  0
  136.3100   75.6290  223.3350 C   0  0  0  0  0  0  0  0  0  0  0  0
  135.1300   75.2250  224.0230 N   0  0  0  0  0  0  0  0  0  0  0  0
  134.0370   76.1570  224.1410 C   0  0  0  0  0  0  0  0  0  0  0  0
  133.7030   76.2900  225.6110 C   0  0  0  0  0  0  0  0  0  0  0  0
  133.3830   74.9310  226.1140 C   0  0  0  0  0  0  0  0  0  0  0  0
  132.4070   74.8110  227.0960 C   0  0  0  0  0  0  0  0  0  0  0  0
  132.1130   73.5360  227.5610 C   0  0  0  0  0  0  0  0  0  0  0  0
  132.7520   72.4130  227.0830 C   0  0  0  0  0  0  0  0  0  0  0  0
  133.7100   72.5930  226.1120 C   0  0  0  0  0  0  0  0  0  0  0  0
  134.0440   73.8340  225.6110 C   0  0  0  0  0  0  0  0  0  0  0  0
  135.0890   73.9040  224.5680 C   0  0  0  0  0  0  0  0  0  0  0  0
  136.7620   76.8980  223.3630 N   0  0  0  0  0  0  0  0  0  0  0  0
  137.8820   77.2560  222.7060 C   0  0  0  0  0  0  0  0  0  0  0  0
  138.3880   78.5830  222.7130 N   0  0  0  0  0  0  0  0  0  0  0  0
  137.7100   79.6230  221.9690 C   0  0  0  0  0  0  0  0  0  0  0  0
  138.0540   80.9380  222.6570 C   0  0  0  0  0  0  0  0  0  0  0  0
  139.5300   81.1130  222.4960 C   0  0  0  0  0  0  0  0  0  0  0  0
  140.0820   82.2660  221.9610 C   0  0  0  0  0  0  0  0  0  0  0  0
  141.4620   82.2930  221.8700 C   0  0  0  0  0  0  0  0  0  0  0  0
  142.2610   81.2570  222.2740 C   0  0  0  0  0  0  0  0  0  0  0  0
  141.6940   80.0950  222.8130 C   0  0  0  0  0  0  0  0  0  0  0  0
  140.3130   80.0470  222.9140 C   0  0  0  0  0  0  0  0  0  0  0  0
  139.5860   78.8740  223.4690 C   0  0  0  0  0  0  0  0  0  0  0  0
  138.5140   76.2790  222.0250 N   0  0  0  0  0  0  0  0  0  0  0  0
  139.8270   73.3800  222.2040 C   0  0  0  0  0  0  0  0  0  0  0  0
  140.8560   72.6420  221.3520 C   0  0  0  0  0  0  0  0  0  0  0  0
  146.2920   74.0110  218.2680 H   0  0  0  0  0  0  0  0  0  0  0  0
  144.8520   74.5930  218.8600 H   0  0  0  0  0  0  0  0  0  0  0  0
  143.7820   71.2649  220.5384 H   0  0  0  0  0  0  0  0  0  0  0  0
  143.8864   72.5758  221.7581 H   0  0  0  0  0  0  0  0  0  0  0  0
  143.3504   73.9389  219.4050 H   0  0  0  0  0  0  0  0  0  0  0  0
  142.3728   72.4079  219.2665 H   0  0  0  0  0  0  0  0  0  0  0  0
  142.3834   74.0410  221.7425 H   0  0  0  0  0  0  0  0  0  0  0  0
  141.6004   75.1736  219.3894 H   0  0  0  0  0  0  0  0  0  0  0  0
  141.1709   75.6613  221.0970 H   0  0  0  0  0  0  0  0  0  0  0  0
  139.5687   73.9583  219.1881 H   0  0  0  0  0  0  0  0  0  0  0  0
  139.2000   75.6243  219.8678 H   0  0  0  0  0  0  0  0  0  0  0  0
  138.2198   73.3149  220.6880 H   0  0  0  0  0  0  0  0  0  0  0  0
  134.3330   77.1351  223.7340 H   0  0  0  0  0  0  0  0  0  0  0  0
  133.1626   75.7988  223.5779 H   0  0  0  0  0  0  0  0  0  0  0  0
  134.5648   76.7007  226.1575 H   0  0  0  0  0  0  0  0  0  0  0  0
  132.8514   76.9707  225.7575 H   0  0  0  0  0  0  0  0  0  0  0  0
  131.8855   75.6952  227.4912 H   0  0  0  0  0  0  0  0  0  0  0  0
  131.3432   73.4186  228.3380 H   0  0  0  0  0  0  0  0  0  0  0  0
  132.5057   71.4106  227.4631 H   0  0  0  0  0  0  0  0  0  0  0  0
  134.2323   71.7087  225.7181 H   0  0  0  0  0  0  0  0  0  0  0  0
  136.0659   73.6594  225.0106 H   0  0  0  0  0  0  0  0  0  0  0  0
  134.8583   73.1844  223.7687 H   0  0  0  0  0  0  0  0  0  0  0  0
  138.0612   79.6357  220.9266 H   0  0  0  0  0  0  0  0  0  0  0  0
  136.6230   79.4555  221.9496 H   0  0  0  0  0  0  0  0  0  0  0  0
  137.5161   81.7709  222.1806 H   0  0  0  0  0  0  0  0  0  0  0  0
  137.7628   80.9262  223.7177 H   0  0  0  0  0  0  0  0  0  0  0  0
  139.4596   83.1098  221.6284 H   0  0  0  0  0  0  0  0  0  0  0  0
  141.9411   83.1909  221.4525 H   0  0  0  0  0  0  0  0  0  0  0  0
  143.3536   81.3376  222.1748 H   0  0  0  0  0  0  0  0  0  0  0  0
  142.3207   79.2535  223.1432 H   0  0  0  0  0  0  0  0  0  0  0  0
  140.2488   77.9966  223.4391 H   0  0  0  0  0  0  0  0  0  0  0  0
  139.2917   79.1094  224.5024 H   0  0  0  0  0  0  0  0  0  0  0  0
  139.2755   72.6765  222.8451 H   0  0  0  0  0  0  0  0  0  0  0  0
  140.2901   74.1140  222.8799 H   0  0  0  0  0  0  0  0  0  0  0  0
  140.3641   72.1524  220.4986 H   0  0  0  0  0  0  0  0  0  0  0  0
  141.3672   71.8580  221.9299 H   0  0  0  0  0  0  0  0  0  0  0  0
  1  2  1  0
  2  3  2  0
  2  4  2  0
  2  5  1  0
  5  6  1  0
  6  7  1  0
  7  8  1  0
  8  9  1  0
  9 10  1  0
 10 11  1  0
 11 12  2  0
 12 13  1  0
 13 14  1  0
 14 15  1  0
 15 16  1  0
 16 17  1  0
 17 18  2  0
 18 19  1  0
 19 20  2  0
 20 21  1  0
 21 22  2  0
 22 23  1  0
 13 24  2  0
 24 25  1  0
 25 26  1  0
 26 27  1  0
 27 28  1  0
 28 29  1  0
 29 30  2  0
 30 31  1  0
 31 32  2  0
 32 33  1  0
 33 34  2  0
 34 35  1  0
 25 36  2  0
 10 37  1  0
 37 38  1  0
 38  7  1  0
 36 11  1  0
 23 14  1  0
 35 26  1  0
 22 17  1  0
 34 29  1  0
  1 39  1  0
  1 40  1  0
  5 41  1  0
  5 42  1  0
  6 43  1  0
  6 44  1  0
  7 45  1  1
  8 46  1  0
  8 47  1  0
  9 48  1  0
  9 49  1  0
 10 50  1  6
 15 51  1  0
 15 52  1  0
 16 53  1  0
 16 54  1  0
 18 55  1  0
 19 56  1  0
 20 57  1  0
 21 58  1  0
 23 59  1  0
 23 60  1  0
 27 61  1  0
 27 62  1  0
 28 63  1  0
 28 64  1  0
 30 65  1  0
 31 66  1  0
 32 67  1  0
 33 68  1  0
 35 69  1  0
 35 70  1  0
 37 71  1  0
 37 72  1  0
 38 73  1  0
 38 74  1  0
M  END
>  <smiles>  (50) 
NS(=O)(=O)CC[C@H]1CC[C@H](c2nc(N3CCc4ccccc4C3)nc(N3CCc4ccccc4C3)n2)CC1

>  <score_type>  (50) 
oracle

>  <origin>  (50) 
autodockgpu

>  <m_score__min__energy>  (50) 
-10.08

>  <m_primary>  (50) 
energy

>  <rmsd>  (50) 
11.342216194583344

>  <m_score__min__rmsd>  (50) 
11.342216194583344

>  <meeko>  (50) 
{"free_energy": -9.28, "intermolecular_energy": -11.37, "internal_energy": -1.35, "cluster_size": 24, "cluster_id": 2, "rank_in_cluster": 12}

>  <energy>  (50) 
-8.2

>  <cluster_rmsd>  (50) 
0.0

>  <cluster>  (50) 
12

$$$$
