@<TRIPOS>MOLECULE
*****
 66 71 0 0 0
SMALL
GASTEIGER

@<TRIPOS>ATOM
      1 C         140.7200   71.0400  228.0610 C.ar    1  UNL1       -0.0617
      2 C         140.0290   69.9330  227.6020 C.ar    1  UNL1       -0.0615
      3 C         139.7890   69.7740  226.2480 C.ar    1  UNL1       -0.0571
      4 C         140.2610   70.7490  225.3890 C.ar    1  UNL1       -0.0303
      5 C         140.0040   70.5760  223.9380 C.3     1  UNL1        0.0370
      6 N         139.2530   71.7110  223.4740 N.pl3   1  UNL1       -0.3092
      7 C         139.8930   72.6190  222.5760 C.ar    1  UNL1        0.2213
      8 N         140.7520   72.1670  221.6530 N.ar    1  UNL1       -0.1809
      9 C         141.3800   72.9800  220.7840 C.ar    1  UNL1        0.2238
     10 N         142.2940   72.5060  219.8060 N.pl3   1  UNL1       -0.2965
     11 C         143.7300   72.7080  219.8920 C.3     1  UNL1        0.0307
     12 C         144.3340   71.3450  220.1200 C.3     1  UNL1        0.0294
     13 N         143.7510   70.3480  219.2740 N.pl3   1  UNL1       -0.3122
     14 C         144.3630   69.0420  219.2970 C.ar    1  UNL1        0.1213
     15 C         143.6750   67.9060  218.9150 C.ar    1  UNL1       -0.0217
     16 C         144.2390   66.6450  218.9280 C.ar    1  UNL1       -0.0571
     17 C         145.5570   66.5350  219.3460 C.ar    1  UNL1       -0.0435
     18 C         146.2490   67.6760  219.7290 C.ar    1  UNL1        0.0297
     19 N         145.6380   68.8620  219.6900 N.ar    1  UNL1       -0.2403
     20 C         142.6230   70.5180  218.4140 C.3     1  UNL1        0.0294
     21 C         141.8330   71.7670  218.6240 C.3     1  UNL1        0.0307
     22 N         141.1370   74.2960  220.8420 N.ar    1  UNL1       -0.1807
     23 C         140.2680   74.8000  221.7680 C.ar    1  UNL1        0.2240
     24 N         140.0020   76.2110  221.8360 N.pl3   1  UNL1       -0.2948
     25 C         138.6700   76.6730  221.5150 C.3     1  UNL1        0.0192
     26 C         138.1820   77.4840  222.7160 C.3     1  UNL1       -0.0115
     27 C         139.1730   78.5610  222.9730 C.ar    1  UNL1       -0.0412
     28 C         138.7340   79.7860  223.4590 C.ar    1  UNL1       -0.0582
     29 C         139.6230   80.8280  223.7140 C.ar    1  UNL1       -0.0615
     30 C         140.9680   80.6110  223.4710 C.ar    1  UNL1       -0.0614
     31 C         141.3710   79.3880  222.9910 C.ar    1  UNL1       -0.0568
     32 C         140.4940   78.3450  222.7340 C.ar    1  UNL1       -0.0269
     33 C         141.0830   77.0900  222.2200 C.3     1  UNL1        0.0402
     34 N         139.6660   73.9380  222.6160 N.ar    1  UNL1       -0.1809
     35 C         140.9470   71.8500  225.8400 C.ar    1  UNL1       -0.0571
     36 C         141.1910   72.0140  227.2000 C.ar    1  UNL1       -0.0615
     37 H         140.8997   71.1484  229.1408 H       1  UNL1        0.0618
     38 H         139.6692   69.1767  228.3152 H       1  UNL1        0.0618
     39 H         139.2403   68.8998  225.8677 H       1  UNL1        0.0621
     40 H         140.9591   70.5151  223.3958 H       1  UNL1        0.0512
     41 H         139.4383   69.6493  223.7612 H       1  UNL1        0.0512
     42 H         138.2800   71.8870  223.7660 H       1  UNL1        0.1492
     43 H         144.1107   73.1420  218.9557 H       1  UNL1        0.0480
     44 H         143.9890   73.4022  220.7050 H       1  UNL1        0.0480
     45 H         145.4135   71.3968  219.9149 H       1  UNL1        0.0480
     46 H         144.1388   71.0589  221.1640 H       1  UNL1        0.0480
     47 H         142.6307   68.0106  218.5856 H       1  UNL1        0.0652
     48 H         143.6637   65.7601  218.6181 H       1  UNL1        0.0619
     49 H         146.0498   65.5520  219.3738 H       1  UNL1        0.0633
     50 H         147.2946   67.6030  220.0626 H       1  UNL1        0.0830
     51 H         142.9863   70.5181  217.3757 H       1  UNL1        0.0480
     52 H         141.9399   69.6878  218.6467 H       1  UNL1        0.0480
     53 H         141.9389   72.4096  217.7375 H       1  UNL1        0.0480
     54 H         140.7813   71.4863  218.7824 H       1  UNL1        0.0480
     55 H         138.6952   77.3060  220.6157 H       1  UNL1        0.0468
     56 H         137.9974   75.8269  221.3107 H       1  UNL1        0.0468
     57 H         137.1992   77.9256  222.4943 H       1  UNL1        0.0328
     58 H         138.0815   76.8370  223.5999 H       1  UNL1        0.0328
     59 H         137.6607   79.9367  223.6467 H       1  UNL1        0.0620
     60 H         139.2661   81.7953  224.0974 H       1  UNL1        0.0618
     61 H         141.7042   81.4063  223.6594 H       1  UNL1        0.0618
     62 H         142.4427   79.2284  222.8012 H       1  UNL1        0.0621
     63 H         141.7163   77.3056  221.3469 H       1  UNL1        0.0514
     64 H         141.7036   76.6152  222.9942 H       1  UNL1        0.0514
     65 H         141.3047   72.6045  225.1239 H       1  UNL1        0.0621
     66 H         141.7402   72.8892  227.5775 H       1  UNL1        0.0618
@<TRIPOS>BOND
     1     1     2   ar
     2     2     3   ar
     3     3     4   ar
     4     4     5    1
     5     5     6    1
     6     6     7    1
     7     7     8   ar
     8     8     9   ar
     9     9    10    1
    10    10    11    1
    11    11    12    1
    12    12    13    1
    13    13    14    1
    14    14    15   ar
    15    15    16   ar
    16    16    17   ar
    17    17    18   ar
    18    18    19   ar
    19    13    20    1
    20    20    21    1
    21     9    22   ar
    22    22    23   ar
    23    23    24    1
    24    24    25    1
    25    25    26    1
    26    26    27    1
    27    27    28   ar
    28    28    29   ar
    29    29    30   ar
    30    30    31   ar
    31    31    32   ar
    32    32    33    1
    33    23    34   ar
    34     4    35   ar
    35    35    36   ar
    36    36     1   ar
    37    34     7   ar
    38    21    10    1
    39    33    24    1
    40    19    14   ar
    41    32    27   ar
    42     1    37    1
    43     2    38    1
    44     3    39    1
    45     5    40    1
    46     5    41    1
    47     6    42    1
    48    11    43    1
    49    11    44    1
    50    12    45    1
    51    12    46    1
    52    15    47    1
    53    16    48    1
    54    17    49    1
    55    18    50    1
    56    20    51    1
    57    20    52    1
    58    21    53    1
    59    21    54    1
    60    25    55    1
    61    25    56    1
    62    26    57    1
    63    26    58    1
    64    28    59    1
    65    29    60    1
    66    30    61    1
    67    31    62    1
    68    33    63    1
    69    33    64    1
    70    35    65    1
    71    36    66    1
