
     RDKit          3D

 56 61  0  0  0  0  0  0  0  0999 V2000
  139.5060   71.7720  221.3910 O   0  0  0  0  0  0  0  0  0  0  0  0
  140.5550   71.9290  222.1200 C   0  0  0  0  0  0  0  0  0  0  0  0
  140.4180   71.3850  223.4480 C   0  0  0  0  0  0  0  0  0  0  0  0
  140.6970   71.8620  224.6970 C   0  0  0  0  0  0  0  0  0  0  0  0
  140.4050   70.9110  225.6420 C   0  0  0  0  0  0  0  0  0  0  0  0
  140.5130   70.9070  227.0240 C   0  0  0  0  0  0  0  0  0  0  0  0
  140.9740   71.9790  227.7170 F   0  0  0  0  0  0  0  0  0  0  0  0
  140.1220   69.7470  227.6810 C   0  0  0  0  0  0  0  0  0  0  0  0
  139.6430   68.6330  226.9930 C   0  0  0  0  0  0  0  0  0  0  0  0
  139.5470   68.6680  225.6140 C   0  0  0  0  0  0  0  0  0  0  0  0
  139.9350   69.8240  224.9520 C   0  0  0  0  0  0  0  0  0  0  0  0
  139.9490   70.1230  223.6550 N   0  0  0  0  0  0  0  0  0  0  0  0
  141.6260   72.5900  221.5150 N   0  0  0  0  0  0  0  0  0  0  0  0
  142.9080   71.9080  221.2030 C   0  0  0  0  0  0  0  0  0  0  0  0
  143.3560   72.5640  219.9280 C   0  0  2  0  0  0  0  0  0  0  0  0
  142.7380   71.9190  218.7360 C   0  0  0  0  0  0  0  0  0  0  0  0
  143.9280   71.6800  217.8070 C   0  0  0  0  0  0  0  0  0  0  0  0
  145.0890   71.7070  218.5820 N   0  0  0  0  0  0  0  0  0  0  0  0
  145.8590   70.5910  218.8860 C   0  0  0  0  0  0  0  0  0  0  0  0
  145.3670   69.2280  218.5650 C   0  0  0  0  0  0  0  0  0  0  0  0
  146.2610   68.0520  218.5750 C   0  0  0  0  0  0  0  0  0  0  0  0
  145.6800   67.6010  219.8980 C   0  0  0  0  0  0  0  0  0  0  0  0
  144.5230   68.5790  219.6530 C   0  0  0  0  0  0  0  0  0  0  0  0
  144.8520   72.5260  219.7450 C   0  0  0  0  0  0  0  0  0  0  0  0
  142.8440   73.9500  220.0980 C   0  0  0  0  0  0  0  0  0  0  0  0
  143.1910   75.1590  219.5180 C   0  0  0  0  0  0  0  0  0  0  0  0
  142.5610   76.3460  219.8460 C   0  0  0  0  0  0  0  0  0  0  0  0
  141.5500   76.2900  220.7900 C   0  0  0  0  0  0  0  0  0  0  0  0
  141.2100   75.0820  221.3650 C   0  0  0  0  0  0  0  0  0  0  0  0
  141.8290   73.9010  221.0460 C   0  0  0  0  0  0  0  0  0  0  0  0
  141.0977   72.8632  224.9139 H   0  0  0  0  0  0  0  0  0  0  0  0
  140.1925   69.7062  228.7780 H   0  0  0  0  0  0  0  0  0  0  0  0
  139.3427   67.7301  227.5448 H   0  0  0  0  0  0  0  0  0  0  0  0
  139.1714   67.7987  225.0543 H   0  0  0  0  0  0  0  0  0  0  0  0
  139.6280   69.4480  222.9000 H   0  0  0  0  0  0  0  0  0  0  0  0
  143.6430   72.0670  222.0058 H   0  0  0  0  0  0  0  0  0  0  0  0
  142.7998   70.8175  221.1075 H   0  0  0  0  0  0  0  0  0  0  0  0
  142.2543   70.9694  219.0085 H   0  0  0  0  0  0  0  0  0  0  0  0
  141.9497   72.5326  218.2755 H   0  0  0  0  0  0  0  0  0  0  0  0
  143.8286   70.7004  217.3166 H   0  0  0  0  0  0  0  0  0  0  0  0
  143.9686   72.4561  217.0285 H   0  0  0  0  0  0  0  0  0  0  0  0
  146.8154   70.7139  218.3567 H   0  0  0  0  0  0  0  0  0  0  0  0
  145.8784   70.5951  219.9858 H   0  0  0  0  0  0  0  0  0  0  0  0
  144.9694   69.5443  217.5894 H   0  0  0  0  0  0  0  0  0  0  0  0
  146.0844   67.3497  217.7470 H   0  0  0  0  0  0  0  0  0  0  0  0
  147.3476   68.1847  218.4667 H   0  0  0  0  0  0  0  0  0  0  0  0
  145.3851   66.5418  219.9314 H   0  0  0  0  0  0  0  0  0  0  0  0
  146.2702   67.6266  220.8259 H   0  0  0  0  0  0  0  0  0  0  0  0
  143.5965   68.1085  219.2920 H   0  0  0  0  0  0  0  0  0  0  0  0
  144.0905   69.1716  220.4726 H   0  0  0  0  0  0  0  0  0  0  0  0
  145.3342   72.0833  220.6290 H   0  0  0  0  0  0  0  0  0  0  0  0
  145.2684   73.5362  219.6183 H   0  0  0  0  0  0  0  0  0  0  0  0
  143.9968   75.1758  218.7694 H   0  0  0  0  0  0  0  0  0  0  0  0
  142.8518   77.2967  219.3754 H   0  0  0  0  0  0  0  0  0  0  0  0
  141.0179   77.2075  221.0817 H   0  0  0  0  0  0  0  0  0  0  0  0
  140.4048   75.0662  222.1142 H   0  0  0  0  0  0  0  0  0  0  0  0
  1  2  2  0
  2  3  1  0
  3  4  2  0
  4  5  1  0
  5  6  2  0
  6  7  1  0
  6  8  1  0
  8  9  2  0
  9 10  1  0
 10 11  2  0
 11 12  1  0
  2 13  1  0
 13 14  1  0
 15 14  1  1
 15 16  1  0
 16 17  1  0
 17 18  1  0
 18 19  1  0
 19 20  1  0
 20 21  1  0
 21 22  1  0
 22 23  1  0
 18 24  1  0
 15 25  1  0
 25 26  2  0
 26 27  1  0
 27 28  2  0
 28 29  1  0
 29 30  2  0
 12  3  1  0
 30 13  1  0
 11  5  1  0
 24 15  1  0
 30 25  1  0
 23 20  1  0
  4 31  1  0
  8 32  1  0
  9 33  1  0
 10 34  1  0
 12 35  1  0
 14 36  1  0
 14 37  1  0
 16 38  1  0
 16 39  1  0
 17 40  1  0
 17 41  1  0
 19 42  1  0
 19 43  1  0
 20 44  1  0
 21 45  1  0
 21 46  1  0
 22 47  1  0
 22 48  1  0
 23 49  1  0
 23 50  1  0
 24 51  1  0
 24 52  1  0
 26 53  1  0
 27 54  1  0
 28 55  1  0
 29 56  1  0
M  END
