
     RDKit          3D

 51 54  0  0  1  0  0  0  0  0999 V2000
  140.7170   71.1200  221.3370 O   0  0  0  0  0  0  0  0  0  0  0  0
  140.2880   71.6920  222.3720 C   0  0  0  0  0  0  0  0  0  0  0  0
  139.9480   73.0810  222.3380 N   0  0  0  0  0  0  0  0  0  0  0  0
  140.1220   73.7770  221.0450 C   0  0  0  0  0  0  0  0  0  0  0  0
  140.5410   75.1620  221.2700 C   0  0  0  0  0  0  0  0  0  0  0  0
  140.2740   75.6390  222.4390 O   0  0  0  0  0  0  0  0  0  0  0  0
  141.1850   76.0410  220.3910 N   0  0  0  0  0  0  0  0  0  0  0  0
  141.1850   75.6220  218.9690 C   0  0  0  0  0  0  0  0  0  0  0  0
  140.4810   76.6720  218.1310 C   0  0  0  0  0  0  0  0  0  0  0  0
  141.0160   78.0490  218.4440 C   0  0  0  0  0  0  0  0  0  0  0  0
  142.1520   78.0040  219.4240 C   0  0  0  0  0  0  0  0  0  0  0  0
  141.8290   77.2820  220.7120 C   0  0  1  0  0  0  0  0  0  0  0  0
  141.0670   78.1840  221.5990 C   0  0  0  0  0  0  0  0  0  0  0  0
  141.5850   78.8810  222.6500 C   0  0  0  0  0  0  0  0  0  0  0  0
  140.8250   79.7080  223.4680 C   0  0  0  0  0  0  0  0  0  0  0  0
  139.4620   79.8590  223.2340 C   0  0  0  0  0  0  0  0  0  0  0  0
  138.4550   80.8810  224.2270 Cl  0  0  0  0  0  0  0  0  0  0  0  0
  138.9170   79.1580  222.1670 C   0  0  0  0  0  0  0  0  0  0  0  0
  139.6960   78.3410  221.3700 C   0  0  0  0  0  0  0  0  0  0  0  0
  140.1150   70.9750  223.6490 C   0  0  0  0  0  0  0  0  0  0  0  0
  139.5470   69.7350  223.6240 C   0  0  0  0  0  0  0  0  0  0  0  0
  139.3570   68.9870  224.7890 C   0  0  0  0  0  0  0  0  0  0  0  0
  139.8000   69.6300  225.9470 C   0  0  0  0  0  0  0  0  0  0  0  0
  139.6410   68.9520  227.1240 C   0  0  0  0  0  0  0  0  0  0  0  0
  140.0270   69.4580  228.3440 C   0  0  0  0  0  0  0  0  0  0  0  0
  140.6000   70.7130  228.3460 C   0  0  0  0  0  0  0  0  0  0  0  0
  140.7870   71.4530  227.1740 C   0  0  0  0  0  0  0  0  0  0  0  0
  140.3660   70.8630  225.9770 C   0  0  0  0  0  0  0  0  0  0  0  0
  140.5140   71.5210  224.8050 N   0  0  0  0  0  0  0  0  0  0  0  0
  139.5950   73.6090  223.1730 H   0  0  0  0  0  0  0  0  0  0  0  0
  140.8890   73.2568  220.4524 H   0  0  0  0  0  0  0  0  0  0  0  0
  139.1644   73.7746  220.5037 H   0  0  0  0  0  0  0  0  0  0  0  0
  142.2221   75.5097  218.6201 H   0  0  0  0  0  0  0  0  0  0  0  0
  140.6582   74.6614  218.8704 H   0  0  0  0  0  0  0  0  0  0  0  0
  140.6455   76.4539  217.0655 H   0  0  0  0  0  0  0  0  0  0  0  0
  139.4060   76.6483  218.3630 H   0  0  0  0  0  0  0  0  0  0  0  0
  141.3703   78.5123  217.5114 H   0  0  0  0  0  0  0  0  0  0  0  0
  140.2016   78.6342  218.8961 H   0  0  0  0  0  0  0  0  0  0  0  0
  143.0007   77.4934  218.9455 H   0  0  0  0  0  0  0  0  0  0  0  0
  142.3793   79.0460  219.6934 H   0  0  0  0  0  0  0  0  0  0  0  0
  142.7305   77.0139  221.2824 H   0  0  0  0  0  0  0  0  0  0  0  0
  142.6601   78.7836  222.8613 H   0  0  0  0  0  0  0  0  0  0  0  0
  141.3018   80.2441  224.3018 H   0  0  0  0  0  0  0  0  0  0  0  0
  137.8427   79.2549  221.9515 H   0  0  0  0  0  0  0  0  0  0  0  0
  139.2264   77.8007  220.5348 H   0  0  0  0  0  0  0  0  0  0  0  0
  139.2296   69.3119  222.6595 H   0  0  0  0  0  0  0  0  0  0  0  0
  138.9013   67.9858  224.7936 H   0  0  0  0  0  0  0  0  0  0  0  0
  139.1819   67.9528  227.0939 H   0  0  0  0  0  0  0  0  0  0  0  0
  139.8853   68.8884  229.2743 H   0  0  0  0  0  0  0  0  0  0  0  0
  140.9215   71.1474  229.3041 H   0  0  0  0  0  0  0  0  0  0  0  0
  141.2442   72.4533  227.1923 H   0  0  0  0  0  0  0  0  0  0  0  0
  1  2  2  0
  2  3  1  0
  3  4  1  0
  4  5  1  0
  5  6  2  0
  5  7  1  0
  7  8  1  0
  8  9  1  0
  9 10  1  0
 10 11  1  0
 11 12  1  0
 12 13  1  0
 13 14  2  0
 14 15  1  0
 15 16  2  0
 16 17  1  0
 16 18  1  0
 18 19  2  0
  2 20  1  0
 20 21  2  0
 21 22  1  0
 22 23  2  0
 23 24  1  0
 24 25  2  0
 25 26  1  0
 26 27  2  0
 27 28  1  0
 28 29  2  0
 12  7  1  0
 19 13  1  0
 29 20  1  0
 28 23  1  0
  3 30  1  0
  4 31  1  0
  4 32  1  0
  8 33  1  0
  8 34  1  0
  9 35  1  0
  9 36  1  0
 10 37  1  0
 10 38  1  0
 11 39  1  0
 11 40  1  0
 12 41  1  1
 14 42  1  0
 15 43  1  0
 18 44  1  0
 19 45  1  0
 21 46  1  0
 22 47  1  0
 24 48  1  0
 25 49  1  0
 26 50  1  0
 27 51  1  0
M  END
