
     RDKit          3D

 69 73  0  0  0  0  0  0  0  0999 V2000
  139.9980   70.9610  221.4220 O   0  0  0  0  0  0  0  0  0  0  0  0
  139.9430   71.4750  222.5710 C   0  0  0  0  0  0  0  0  0  0  0  0
  139.8820   72.9060  222.6120 N   0  0  0  0  0  0  0  0  0  0  0  0
  139.8890   73.5870  221.3340 C   0  0  0  0  0  0  0  0  0  0  0  0
  139.8860   75.0590  221.4700 C   0  0  0  0  0  0  0  0  0  0  0  0
  139.7350   75.6630  222.5640 O   0  0  0  0  0  0  0  0  0  0  0  0
  140.0600   75.8380  220.3110 N   0  0  0  0  0  0  0  0  0  0  0  0
  139.0080   76.5870  219.6690 C   0  0  0  0  0  0  0  0  0  0  0  0
  139.5450   77.0440  218.3330 C   0  0  2  0  0  0  0  0  0  0  0  0
  138.5900   76.8670  217.3230 O   0  0  0  0  0  0  0  0  0  0  0  0
  140.7330   76.1560  218.1190 C   0  0  0  0  0  0  0  0  0  0  0  0
  141.2850   76.0540  219.5330 C   0  0  1  0  0  0  0  0  0  0  0  0
  141.7910   77.4210  219.9010 C   0  0  0  0  0  0  0  0  0  0  0  0
  142.5340   78.0590  219.0820 O   0  0  0  0  0  0  0  0  0  0  0  0
  141.4210   77.9480  221.1440 N   0  0  0  0  0  0  0  0  0  0  0  0
  141.8480   79.2640  221.6140 C   0  0  2  0  0  0  0  0  0  0  0  0
  142.4360   79.0450  222.9750 C   0  0  0  0  0  0  0  0  0  0  0  0
  142.6390   80.2870  223.7820 C   0  0  0  0  0  0  0  0  0  0  0  0
  141.4490   81.1740  223.8240 C   0  0  0  0  0  0  0  0  0  0  0  0
  140.3660   80.8840  222.8440 C   0  0  0  0  0  0  0  0  0  0  0  0
  140.7700   80.2810  221.5480 C   0  0  1  0  0  0  0  0  0  0  0  0
  141.0450   81.3200  220.4920 C   0  0  0  0  0  0  0  0  0  0  0  0
  140.5810   82.6140  220.6470 C   0  0  0  0  0  0  0  0  0  0  0  0
  140.8370   83.5760  219.6660 C   0  0  0  0  0  0  0  0  0  0  0  0
  141.5610   83.2240  218.5310 C   0  0  0  0  0  0  0  0  0  0  0  0
  142.0240   81.9410  218.3740 C   0  0  0  0  0  0  0  0  0  0  0  0
  141.7620   81.0020  219.3520 C   0  0  0  0  0  0  0  0  0  0  0  0
  139.9420   70.6800  223.7870 C   0  0  0  0  0  0  0  0  0  0  0  0
  139.3520   69.4310  223.7340 C   0  0  0  0  0  0  0  0  0  0  0  0
  139.2980   68.6020  224.8330 C   0  0  0  0  0  0  0  0  0  0  0  0
  139.8470   69.0330  226.0040 C   0  0  0  0  0  0  0  0  0  0  0  0
  139.8220   68.2360  227.1460 C   0  0  0  0  0  0  0  0  0  0  0  0
  140.3750   68.6610  228.3430 C   0  0  0  0  0  0  0  0  0  0  0  0
  140.3190   67.8440  229.4110 F   0  0  0  0  0  0  0  0  0  0  0  0
  140.9640   69.9150  228.3820 C   0  0  0  0  0  0  0  0  0  0  0  0
  140.9790   70.6900  227.2390 C   0  0  0  0  0  0  0  0  0  0  0  0
  140.4370   70.2920  226.0420 C   0  0  0  0  0  0  0  0  0  0  0  0
  140.4750   71.0840  224.9490 N   0  0  0  0  0  0  0  0  0  0  0  0
  139.8340   73.4130  223.5260 H   0  0  0  0  0  0  0  0  0  0  0  0
  140.7911   73.2869  220.7806 H   0  0  0  0  0  0  0  0  0  0  0  0
  138.9700   73.3015  220.8012 H   0  0  0  0  0  0  0  0  0  0  0  0
  138.1244   75.9484  219.5228 H   0  0  0  0  0  0  0  0  0  0  0  0
  138.7046   77.4461  220.2854 H   0  0  0  0  0  0  0  0  0  0  0  0
  139.8008   78.1136  218.3112 H   0  0  0  0  0  0  0  0  0  0  0  0
  138.4440   77.7820  216.9580 H   0  0  0  0  0  0  0  0  0  0  0  0
  140.4351   75.1709  217.7307 H   0  0  0  0  0  0  0  0  0  0  0  0
  141.4533   76.5363  217.3798 H   0  0  0  0  0  0  0  0  0  0  0  0
  142.0709   75.2974  219.6739 H   0  0  0  0  0  0  0  0  0  0  0  0
  140.8060   77.4180  221.8170 H   0  0  0  0  0  0  0  0  0  0  0  0
  142.6106   79.7036  220.9543 H   0  0  0  0  0  0  0  0  0  0  0  0
  141.7620   78.3803  223.5352 H   0  0  0  0  0  0  0  0  0  0  0  0
  143.4360   78.6164  222.8129 H   0  0  0  0  0  0  0  0  0  0  0  0
  142.8903   79.9943  224.8122 H   0  0  0  0  0  0  0  0  0  0  0  0
  143.4464   80.8559  223.2979 H   0  0  0  0  0  0  0  0  0  0  0  0
  141.0148   81.1022  224.8321 H   0  0  0  0  0  0  0  0  0  0  0  0
  141.8226   82.1733  223.5559 H   0  0  0  0  0  0  0  0  0  0  0  0
  139.6598   80.1918  223.3257 H   0  0  0  0  0  0  0  0  0  0  0  0
  139.9480   81.8673  222.5824 H   0  0  0  0  0  0  0  0  0  0  0  0
  139.8804   79.7086  221.2463 H   0  0  0  0  0  0  0  0  0  0  0  0
  140.0084   82.8868  221.5457 H   0  0  0  0  0  0  0  0  0  0  0  0
  140.4685   84.6049  219.7903 H   0  0  0  0  0  0  0  0  0  0  0  0
  141.7634   83.9775  217.7556 H   0  0  0  0  0  0  0  0  0  0  0  0
  142.5982   81.6637  217.4777 H   0  0  0  0  0  0  0  0  0  0  0  0
  142.1328   79.9747  219.2215 H   0  0  0  0  0  0  0  0  0  0  0  0
  138.9123   69.0887  222.7856 H   0  0  0  0  0  0  0  0  0  0  0  0
  138.8217   67.6127  224.7670 H   0  0  0  0  0  0  0  0  0  0  0  0
  139.3509   67.2432  227.0962 H   0  0  0  0  0  0  0  0  0  0  0  0
  141.4146   70.2889  229.3132 H   0  0  0  0  0  0  0  0  0  0  0  0
  141.4518   71.6819  227.2905 H   0  0  0  0  0  0  0  0  0  0  0  0
  1  2  2  0
  2  3  1  0
  3  4  1  0
  4  5  1  0
  5  6  2  0
  5  7  1  0
  7  8  1  0
  8  9  1  0
  9 10  1  0
  9 11  1  0
 11 12  1  0
 12 13  1  0
 13 14  2  0
 13 15  1  0
 15 16  1  0
 16 17  1  0
 17 18  1  0
 18 19  1  0
 19 20  1  0
 20 21  1  0
 21 22  1  0
 22 23  2  0
 23 24  1  0
 24 25  2  0
 25 26  1  0
 26 27  2  0
  2 28  1  0
 28 29  2  0
 29 30  1  0
 30 31  2  0
 31 32  1  0
 32 33  2  0
 33 34  1  0
 33 35  1  0
 35 36  2  0
 36 37  1  0
 37 38  2  0
 12  7  1  0
 21 16  1  0
 27 22  1  0
 38 28  1  0
 37 31  1  0
  3 39  1  0
  4 40  1  0
  4 41  1  0
  8 42  1  0
  8 43  1  0
  9 44  1  1
 10 45  1  0
 11 46  1  0
 11 47  1  0
 12 48  1  6
 15 49  1  0
 16 50  1  6
 17 51  1  0
 17 52  1  0
 18 53  1  0
 18 54  1  0
 19 55  1  0
 19 56  1  0
 20 57  1  0
 20 58  1  0
 21 59  1  6
 23 60  1  0
 24 61  1  0
 25 62  1  0
 26 63  1  0
 27 64  1  0
 29 65  1  0
 30 66  1  0
 32 67  1  0
 35 68  1  0
 36 69  1  0
M  END
