
     RDKit          3D

 52 55  0  0  0  0  0  0  0  0999 V2000
  139.8740   71.1820  221.2810 O   0  0  0  0  0  0  0  0  0  0  0  0
  139.7920   71.7480  222.4230 C   0  0  0  0  0  0  0  0  0  0  0  0
  139.6070   73.1550  222.4630 N   0  0  0  0  0  0  0  0  0  0  0  0
  139.5100   73.9560  221.2790 C   0  0  0  0  0  0  0  0  0  0  0  0
  140.1100   75.3020  221.4270 C   0  0  0  0  0  0  0  0  0  0  0  0
  139.4730   76.1740  222.0440 O   0  0  0  0  0  0  0  0  0  0  0  0
  141.3940   75.5060  220.8420 N   0  0  0  0  0  0  0  0  0  0  0  0
  142.4100   74.5220  220.5020 C   0  0  0  0  0  0  0  0  0  0  0  0
  142.9290   75.0930  219.1980 C   0  0  0  0  0  0  0  0  0  0  0  0
  142.3850   76.5020  219.0760 C   0  0  2  0  0  0  0  0  0  0  0  0
  143.3340   77.3840  218.5830 O   0  0  0  0  0  0  0  0  0  0  0  0
  141.9420   76.8040  220.4650 C   0  0  1  0  0  0  0  0  0  0  0  0
  140.9910   77.9310  220.5980 C   0  0  0  0  0  0  0  0  0  0  0  0
  141.4240   78.8000  221.7130 C   0  0  0  0  0  0  0  0  0  0  0  0
  141.8540   80.1100  221.4730 C   0  0  0  0  0  0  0  0  0  0  0  0
  142.2550   80.9050  222.5290 C   0  0  0  0  0  0  0  0  0  0  0  0
  142.2540   80.4660  223.8390 C   0  0  0  0  0  0  0  0  0  0  0  0
  141.8240   79.1610  224.0720 C   0  0  0  0  0  0  0  0  0  0  0  0
  141.4200   78.3530  223.0290 C   0  0  0  0  0  0  0  0  0  0  0  0
  139.8830   70.9930  223.6640 C   0  0  0  0  0  0  0  0  0  0  0  0
  139.4910   69.6710  223.7120 C   0  0  0  0  0  0  0  0  0  0  0  0
  139.6030   69.0220  224.9140 C   0  0  0  0  0  0  0  0  0  0  0  0
  140.0810   69.6060  226.0640 C   0  0  0  0  0  0  0  0  0  0  0  0
  140.1820   68.9180  227.2700 C   0  0  0  0  0  0  0  0  0  0  0  0
  140.6790   69.6190  228.3580 C   0  0  0  0  0  0  0  0  0  0  0  0
  141.0560   70.9440  228.2470 C   0  0  0  0  0  0  0  0  0  0  0  0
  140.9550   71.6250  227.0550 C   0  0  0  0  0  0  0  0  0  0  0  0
  140.4630   70.9430  225.9640 C   0  0  0  0  0  0  0  0  0  0  0  0
  140.3550   71.5870  224.7860 N   0  0  0  0  0  0  0  0  0  0  0  0
  139.5420   73.5980  223.4280 H   0  0  0  0  0  0  0  0  0  0  0  0
  140.0263   73.4324  220.4609 H   0  0  0  0  0  0  0  0  0  0  0  0
  138.4393   74.0995  221.0716 H   0  0  0  0  0  0  0  0  0  0  0  0
  143.1997   74.4741  221.2663 H   0  0  0  0  0  0  0  0  0  0  0  0
  142.0395   73.4886  220.4325 H   0  0  0  0  0  0  0  0  0  0  0  0
  144.0288   75.1134  219.2070 H   0  0  0  0  0  0  0  0  0  0  0  0
  142.6068   74.4756  218.3465 H   0  0  0  0  0  0  0  0  0  0  0  0
  141.5633   76.6019  218.3516 H   0  0  0  0  0  0  0  0  0  0  0  0
  143.8390   77.7340  219.3620 H   0  0  0  0  0  0  0  0  0  0  0  0
  142.7464   77.1742  221.1176 H   0  0  0  0  0  0  0  0  0  0  0  0
  140.9744   78.5113  219.6637 H   0  0  0  0  0  0  0  0  0  0  0  0
  139.9820   77.5427  220.8010 H   0  0  0  0  0  0  0  0  0  0  0  0
  141.8726   80.5053  220.4467 H   0  0  0  0  0  0  0  0  0  0  0  0
  142.5894   81.9315  222.3180 H   0  0  0  0  0  0  0  0  0  0  0  0
  142.5787   81.1186  224.6628 H   0  0  0  0  0  0  0  0  0  0  0  0
  141.8065   78.7703  225.1001 H   0  0  0  0  0  0  0  0  0  0  0  0
  141.0858   77.3275  223.2449 H   0  0  0  0  0  0  0  0  0  0  0  0
  139.1034   69.1575  222.8197 H   0  0  0  0  0  0  0  0  0  0  0  0
  139.2911   67.9682  224.9620 H   0  0  0  0  0  0  0  0  0  0  0  0
  139.8805   67.8636  227.3560 H   0  0  0  0  0  0  0  0  0  0  0  0
  140.7752   69.1106  229.3287 H   0  0  0  0  0  0  0  0  0  0  0  0
  141.4462   71.4670  229.1326 H   0  0  0  0  0  0  0  0  0  0  0  0
  141.2574   72.6797  226.9762 H   0  0  0  0  0  0  0  0  0  0  0  0
  1  2  2  0
  2  3  1  0
  3  4  1  0
  4  5  1  0
  5  6  2  0
  5  7  1  0
  7  8  1  0
  8  9  1  0
  9 10  1  0
 10 11  1  0
 10 12  1  0
 12 13  1  0
 13 14  1  0
 14 15  2  0
 15 16  1  0
 16 17  2  0
 17 18  1  0
 18 19  2  0
  2 20  1  0
 20 21  2  0
 21 22  1  0
 22 23  2  0
 23 24  1  0
 24 25  2  0
 25 26  1  0
 26 27  2  0
 27 28  1  0
 28 29  2  0
 12  7  1  0
 19 14  1  0
 29 20  1  0
 28 23  1  0
  3 30  1  0
  4 31  1  0
  4 32  1  0
  8 33  1  0
  8 34  1  0
  9 35  1  0
  9 36  1  0
 10 37  1  6
 11 38  1  0
 12 39  1  1
 13 40  1  0
 13 41  1  0
 15 42  1  0
 16 43  1  0
 17 44  1  0
 18 45  1  0
 19 46  1  0
 21 47  1  0
 22 48  1  0
 24 49  1  0
 25 50  1  0
 26 51  1  0
 27 52  1  0
M  END
