@<TRIPOS>MOLECULE
*****
 66 70 0 0 0
SMALL
GASTEIGER

@<TRIPOS>ATOM
      1 O         140.3700   74.4770  222.2500 O.2     1  UNL1       -0.2685
      2 C         139.9970   75.4880  221.5860 C.2     1  UNL1        0.2628
      3 N         139.4970   75.2980  220.2510 N.am    1  UNL1       -0.3015
      4 C         139.4270   73.9680  219.6800 C.3     1  UNL1        0.0887
      5 C         138.0010   73.6310  219.4840 C.2     1  UNL1        0.2330
      6 O         137.5360   73.0800  218.4640 O.2     1  UNL1       -0.2739
      7 N         137.1000   73.9640  220.5450 N.am    1  UNL1       -0.2959
      8 C         135.7680   74.5740  220.4230 C.3     1  UNL1        0.0151
      9 C         135.4700   75.2250  221.7320 C.3     1  UNL1       -0.0354
     10 C         136.6610   74.9520  222.5850 C.3     1  UNL1       -0.0317
     11 C         137.3380   73.7570  221.9930 C.3     1  UNL1        0.0388
     12 C         136.7540   72.4370  222.4170 C.3     1  UNL1        0.0175
     13 N         137.7060   71.6700  223.1210 N.3     1  UNL1       -0.3005
     14 C         137.3500   70.2780  223.2580 C.3     1  UNL1       -0.0005
     15 C         137.9180   69.7950  224.5730 C.3     1  UNL1       -0.0333
     16 C         139.4170   69.8850  224.4540 C.3     1  UNL1       -0.0135
     17 C         139.9960   69.6800  225.8270 C.ar    1  UNL1       -0.0442
     18 C         140.1510   68.3840  226.3150 C.ar    1  UNL1       -0.0583
     19 C         140.6810   68.1610  227.5720 C.ar    1  UNL1       -0.0615
     20 C         141.0610   69.2560  228.3480 C.ar    1  UNL1       -0.0617
     21 C         140.9070   70.5380  227.8620 C.ar    1  UNL1       -0.0615
     22 C         140.3790   70.7660  226.6100 C.ar    1  UNL1       -0.0583
     23 C         139.8970   71.2030  223.9630 C.3     1  UNL1       -0.0333
     24 C         139.0780   71.8050  222.8370 C.3     1  UNL1       -0.0005
     25 C         140.0590   76.8350  222.1340 C.ar    1  UNL1        0.1260
     26 C         138.8750   77.4380  222.5280 C.ar    1  UNL1       -0.0306
     27 C         138.9270   78.7290  223.0550 C.ar    1  UNL1       -0.0504
     28 C         140.1680   79.3460  223.1590 C.ar    1  UNL1        0.0004
     29 C         140.1810   80.6160  223.6810 C.ar    1  UNL1       -0.0526
     30 C         141.4180   81.2510  223.7920 C.ar    1  UNL1       -0.0611
     31 C         142.5560   80.6180  223.3920 C.ar    1  UNL1       -0.0597
     32 C         142.5630   79.3290  222.8600 C.ar    1  UNL1       -0.0357
     33 C         141.3360   78.7160  222.7570 C.ar    1  UNL1        0.0718
     34 N         141.2350   77.4800  222.2590 N.ar    1  UNL1       -0.2421
     35 H         139.1900   76.1480  219.7140 H       1  UNL1        0.1496
     36 H         139.9518   73.9484  218.7134 H       1  UNL1        0.0558
     37 H         139.9041   73.2380  220.3504 H       1  UNL1        0.0558
     38 H         135.7673   75.3240  219.6183 H       1  UNL1        0.0465
     39 H         135.0086   73.8173  220.1768 H       1  UNL1        0.0465
     40 H         135.3297   76.3081  221.6009 H       1  UNL1        0.0281
     41 H         134.5444   74.8372  222.1824 H       1  UNL1        0.0281
     42 H         137.3406   75.8169  222.5779 H       1  UNL1        0.0284
     43 H         136.3702   74.7692  223.6300 H       1  UNL1        0.0284
     44 H         138.3901   73.6926  222.3076 H       1  UNL1        0.0513
     45 H         135.8857   72.6192  223.0673 H       1  UNL1        0.0445
     46 H         136.4495   71.8815  221.5177 H       1  UNL1        0.0445
     47 H         136.2555   70.1678  223.2577 H       1  UNL1        0.0427
     48 H         137.7527   69.6893  222.4206 H       1  UNL1        0.0427
     49 H         137.5638   70.4326  225.3964 H       1  UNL1        0.0283
     50 H         137.5985   68.7647  224.7883 H       1  UNL1        0.0283
     51 H         139.7333   69.1240  223.7254 H       1  UNL1        0.0350
     52 H         139.8482   67.5288  225.6929 H       1  UNL1        0.0620
     53 H         140.8011   67.1365  227.9542 H       1  UNL1        0.0618
     54 H         141.4848   69.0969  229.3506 H       1  UNL1        0.0618
     55 H         141.2109   71.3925  228.4845 H       1  UNL1        0.0618
     56 H         140.2615   71.7929  226.2337 H       1  UNL1        0.0620
     57 H         139.8846   71.9071  224.8081 H       1  UNL1        0.0283
     58 H         140.9030   71.0303  223.5529 H       1  UNL1        0.0283
     59 H         139.3265   72.8716  222.7344 H       1  UNL1        0.0427
     60 H         139.3083   71.2791  221.8987 H       1  UNL1        0.0427
     61 H         137.9151   76.9103  222.4275 H       1  UNL1        0.0641
     62 H         138.0108   79.2443  223.3792 H       1  UNL1        0.0625
     63 H         139.2526   81.1130  223.9991 H       1  UNL1        0.0624
     64 H         141.4749   82.2689  224.2050 H       1  UNL1        0.0618
     65 H         143.5143   81.1485  223.4934 H       1  UNL1        0.0618
     66 H         143.4922   78.8332  222.5424 H       1  UNL1        0.0639
@<TRIPOS>BOND
     1     1     2    2
     2     2     3   am
     3     3     4    1
     4     4     5    1
     5     5     6    2
     6     5     7   am
     7     7     8    1
     8     8     9    1
     9     9    10    1
    10    10    11    1
    11    11    12    1
    12    12    13    1
    13    13    14    1
    14    14    15    1
    15    15    16    1
    16    16    17    1
    17    17    18   ar
    18    18    19   ar
    19    19    20   ar
    20    20    21   ar
    21    21    22   ar
    22    16    23    1
    23    23    24    1
    24     2    25    1
    25    25    26   ar
    26    26    27   ar
    27    27    28   ar
    28    28    29   ar
    29    29    30   ar
    30    30    31   ar
    31    31    32   ar
    32    32    33   ar
    33    33    34   ar
    34    11     7    1
    35    24    13    1
    36    34    25   ar
    37    22    17   ar
    38    33    28   ar
    39     3    35    1
    40     4    36    1
    41     4    37    1
    42     8    38    1
    43     8    39    1
    44     9    40    1
    45     9    41    1
    46    10    42    1
    47    10    43    1
    48    11    44    1
    49    12    45    1
    50    12    46    1
    51    14    47    1
    52    14    48    1
    53    15    49    1
    54    15    50    1
    55    16    51    1
    56    18    52    1
    57    19    53    1
    58    20    54    1
    59    21    55    1
    60    22    56    1
    61    23    57    1
    62    23    58    1
    63    24    59    1
    64    24    60    1
    65    26    61    1
    66    27    62    1
    67    29    63    1
    68    30    64    1
    69    31    65    1
    70    32    66    1
