
     RDKit          3D

 54 57  0  0  1  0  0  0  0  0999 V2000
  141.3210   71.7120  221.7470 O   0  0  0  0  0  0  0  0  0  0  0  0
  140.3680   71.8660  222.5790 C   0  0  0  0  0  0  0  0  0  0  0  0
  139.4330   72.9410  222.3460 N   0  0  0  0  0  0  0  0  0  0  0  0
  139.4870   73.8340  221.2580 C   0  0  0  0  0  0  0  0  0  0  0  0
  140.6070   74.7470  221.0710 C   0  0  0  0  0  0  0  0  0  0  0  0
  140.9920   75.3300  222.1750 O   0  0  0  0  0  0  0  0  0  0  0  0
  141.3210   75.0960  219.9110 N   0  0  0  0  0  0  0  0  0  0  0  0
  141.4930   74.2650  218.7430 C   0  0  0  0  0  0  0  0  0  0  0  0
  141.5090   75.1050  217.4820 C   0  0  0  0  0  0  0  0  0  0  0  0
  142.5850   76.1260  217.4710 C   0  0  0  0  0  0  0  0  0  0  0  0
  143.0110   76.5630  218.8410 C   0  0  0  0  0  0  0  0  0  0  0  0
  141.9680   76.4030  219.8860 C   0  0  1  0  0  0  0  0  0  0  0  0
  141.0670   77.5740  220.0240 C   0  0  0  0  0  0  0  0  0  0  0  0
  141.4390   78.6010  220.9930 C   0  0  0  0  0  0  0  0  0  0  0  0
  141.3990   78.3020  222.3600 C   0  0  0  0  0  0  0  0  0  0  0  0
  141.7440   79.2350  223.3170 C   0  0  0  0  0  0  0  0  0  0  0  0
  142.1460   80.5110  222.9740 C   0  0  0  0  0  0  0  0  0  0  0  0
  142.5680   81.6420  224.2250 Cl  0  0  0  0  0  0  0  0  0  0  0  0
  142.1910   80.8190  221.6310 C   0  0  0  0  0  0  0  0  0  0  0  0
  141.8450   79.8830  220.6810 C   0  0  0  0  0  0  0  0  0  0  0  0
  140.2080   70.9940  223.7370 C   0  0  0  0  0  0  0  0  0  0  0  0
  139.5130   69.8160  223.5630 C   0  0  0  0  0  0  0  0  0  0  0  0
  139.3190   68.9350  224.6110 C   0  0  0  0  0  0  0  0  0  0  0  0
  139.8250   69.2290  225.8640 C   0  0  0  0  0  0  0  0  0  0  0  0
  139.6480   68.3730  226.9220 C   0  0  0  0  0  0  0  0  0  0  0  0
  140.1630   68.6870  228.1680 C   0  0  0  0  0  0  0  0  0  0  0  0
  140.8630   69.8840  228.3250 C   0  0  0  0  0  0  0  0  0  0  0  0
  141.0280   70.7340  227.2310 C   0  0  0  0  0  0  0  0  0  0  0  0
  140.5210   70.4330  225.9920 C   0  0  0  0  0  0  0  0  0  0  0  0
  140.6940   71.2690  224.9520 N   0  0  0  0  0  0  0  0  0  0  0  0
  138.6630   73.0240  223.0770 H   0  0  0  0  0  0  0  0  0  0  0  0
  139.4358   73.2170  220.3487 H   0  0  0  0  0  0  0  0  0  0  0  0
  138.6582   74.5226  221.4792 H   0  0  0  0  0  0  0  0  0  0  0  0
  142.4450   73.7200  218.8253 H   0  0  0  0  0  0  0  0  0  0  0  0
  140.6512   73.5593  218.6856 H   0  0  0  0  0  0  0  0  0  0  0  0
  141.6523   74.4374  216.6195 H   0  0  0  0  0  0  0  0  0  0  0  0
  140.5500   75.6417  217.4358 H   0  0  0  0  0  0  0  0  0  0  0  0
  143.4590   75.7047  216.9527 H   0  0  0  0  0  0  0  0  0  0  0  0
  142.1832   77.0131  216.9594 H   0  0  0  0  0  0  0  0  0  0  0  0
  143.8877   75.9674  219.1354 H   0  0  0  0  0  0  0  0  0  0  0  0
  143.2277   77.6394  218.7748 H   0  0  0  0  0  0  0  0  0  0  0  0
  142.5249   76.4017  220.8346 H   0  0  0  0  0  0  0  0  0  0  0  0
  141.0034   78.0586  219.0385 H   0  0  0  0  0  0  0  0  0  0  0  0
  140.1232   77.1576  220.4058 H   0  0  0  0  0  0  0  0  0  0  0  0
  141.0845   77.2976  222.6798 H   0  0  0  0  0  0  0  0  0  0  0  0
  141.6976   78.9551  224.3798 H   0  0  0  0  0  0  0  0  0  0  0  0
  142.5069   81.8239  221.3141 H   0  0  0  0  0  0  0  0  0  0  0  0
  141.8948   80.1717  219.6207 H   0  0  0  0  0  0  0  0  0  0  0  0
  139.1048   69.5722  222.5710 H   0  0  0  0  0  0  0  0  0  0  0  0
  138.7623   68.0004  224.4480 H   0  0  0  0  0  0  0  0  0  0  0  0
  139.0944   67.4332  226.7793 H   0  0  0  0  0  0  0  0  0  0  0  0
  140.0229   68.0049  229.0195 H   0  0  0  0  0  0  0  0  0  0  0  0
  141.2821   70.1557  229.3051 H   0  0  0  0  0  0  0  0  0  0  0  0
  141.5818   71.6748  227.3659 H   0  0  0  0  0  0  0  0  0  0  0  0
  1  2  2  0
  2  3  1  0
  3  4  1  0
  4  5  1  0
  5  6  2  0
  5  7  1  0
  7  8  1  0
  8  9  1  0
  9 10  1  0
 10 11  1  0
 11 12  1  0
 12 13  1  0
 13 14  1  0
 14 15  2  0
 15 16  1  0
 16 17  2  0
 17 18  1  0
 17 19  1  0
 19 20  2  0
  2 21  1  0
 21 22  2  0
 22 23  1  0
 23 24  2  0
 24 25  1  0
 25 26  2  0
 26 27  1  0
 27 28  2  0
 28 29  1  0
 29 30  2  0
 12  7  1  0
 20 14  1  0
 30 21  1  0
 29 24  1  0
  3 31  1  0
  4 32  1  0
  4 33  1  0
  8 34  1  0
  8 35  1  0
  9 36  1  0
  9 37  1  0
 10 38  1  0
 10 39  1  0
 11 40  1  0
 11 41  1  0
 12 42  1  1
 13 43  1  0
 13 44  1  0
 15 45  1  0
 16 46  1  0
 19 47  1  0
 20 48  1  0
 22 49  1  0
 23 50  1  0
 25 51  1  0
 26 52  1  0
 27 53  1  0
 28 54  1  0
M  END
