
     RDKit          3D

 63 66  0  0  0  0  0  0  0  0999 V2000
  136.7990   68.5440  222.7480 C   0  0  0  0  0  0  0  0  0  0  0  0
  138.2010   68.0110  222.7000 C   0  0  0  0  0  0  0  0  0  0  0  0
  138.9670   68.3430  223.9370 C   0  0  0  0  0  0  0  0  0  0  0  0
  139.2440   67.3880  224.7080 O   0  0  0  0  0  0  0  0  0  0  0  0
  139.3470   69.6910  224.1920 N   0  0  0  0  0  0  0  0  0  0  0  0
  139.7390   70.0780  225.5270 C   0  0  0  0  0  0  0  0  0  0  0  0
  139.2010   69.3710  226.5730 C   0  0  0  0  0  0  0  0  0  0  0  0
  139.5740   69.7400  227.8560 C   0  0  0  0  0  0  0  0  0  0  0  0
  140.4660   70.7950  228.0470 C   0  0  0  0  0  0  0  0  0  0  0  0
  141.0000   71.5010  226.9840 C   0  0  0  0  0  0  0  0  0  0  0  0
  140.6290   71.1330  225.7130 C   0  0  0  0  0  0  0  0  0  0  0  0
  139.3470   70.6720  223.1470 C   0  0  0  0  0  0  0  0  0  0  0  0
  138.4760   71.8670  223.4740 C   0  0  0  0  0  0  0  0  0  0  0  0
  138.3090   72.6410  222.1800 C   0  0  0  0  0  0  0  0  0  0  0  0
  139.5610   73.1040  221.6660 N   0  0  0  0  0  0  0  0  0  0  0  0
  139.8520   74.3810  221.1500 C   0  0  0  0  0  0  0  0  0  0  0  0
  141.0800   74.5770  220.7660 O   0  0  0  0  0  0  0  0  0  0  0  0
  138.9830   75.5460  220.9720 C   0  0  2  0  0  0  0  0  0  0  0  0
  139.4610   76.5830  220.1210 N   0  0  0  0  0  0  0  0  0  0  0  0
  138.5870   76.0840  222.3470 C   0  0  0  0  0  0  0  0  0  0  0  0
  139.0870   77.4180  222.6410 C   0  0  0  0  0  0  0  0  0  0  0  0
  138.3220   78.5460  222.8390 C   0  0  0  0  0  0  0  0  0  0  0  0
  138.8590   79.7930  223.1070 C   0  0  0  0  0  0  0  0  0  0  0  0
  140.2160   79.9670  223.1900 C   0  0  0  0  0  0  0  0  0  0  0  0
  140.7350   81.2040  223.4570 C   0  0  0  0  0  0  0  0  0  0  0  0
  142.1080   81.3770  223.5410 C   0  0  0  0  0  0  0  0  0  0  0  0
  142.9140   80.2660  223.3480 C   0  0  0  0  0  0  0  0  0  0  0  0
  142.3990   79.0170  223.0800 C   0  0  0  0  0  0  0  0  0  0  0  0
  141.0110   78.8600  222.9990 C   0  0  0  0  0  0  0  0  0  0  0  0
  140.4710   77.6080  222.7290 C   0  0  0  0  0  0  0  0  0  0  0  0
  140.6500   72.1290  221.6640 C   0  0  0  0  0  0  0  0  0  0  0  0
  140.7150   71.2520  222.8540 C   0  0  0  0  0  0  0  0  0  0  0  0
  136.4874   68.6624  223.7963 H   0  0  0  0  0  0  0  0  0  0  0  0
  136.7601   69.5196  222.2414 H   0  0  0  0  0  0  0  0  0  0  0  0
  136.1218   67.8406  222.2414 H   0  0  0  0  0  0  0  0  0  0  0  0
  138.1617   66.9173  222.5892 H   0  0  0  0  0  0  0  0  0  0  0  0
  138.7137   68.4788  221.8466 H   0  0  0  0  0  0  0  0  0  0  0  0
  138.4994   68.5418  226.3996 H   0  0  0  0  0  0  0  0  0  0  0  0
  139.1664   69.2006  228.7237 H   0  0  0  0  0  0  0  0  0  0  0  0
  140.7530   71.0735  229.0717 H   0  0  0  0  0  0  0  0  0  0  0  0
  141.7008   72.3323  227.1511 H   0  0  0  0  0  0  0  0  0  0  0  0
  141.0345   71.6711  224.8435 H   0  0  0  0  0  0  0  0  0  0  0  0
  138.9687   70.1098  222.2805 H   0  0  0  0  0  0  0  0  0  0  0  0
  137.4965   71.5333  223.8470 H   0  0  0  0  0  0  0  0  0  0  0  0
  138.9322   72.4912  224.2565 H   0  0  0  0  0  0  0  0  0  0  0  0
  137.8390   71.9852  221.4323 H   0  0  0  0  0  0  0  0  0  0  0  0
  137.6820   73.5203  222.3891 H   0  0  0  0  0  0  0  0  0  0  0  0
  138.1078   75.1744  220.4189 H   0  0  0  0  0  0  0  0  0  0  0  0
  138.8980   76.7290  219.2580 H   0  0  0  0  0  0  0  0  0  0  0  0
  140.4560   76.4650  219.8410 H   0  0  0  0  0  0  0  0  0  0  0  0
  137.4887   76.1090  222.4026 H   0  0  0  0  0  0  0  0  0  0  0  0
  139.0407   75.4100  223.0886 H   0  0  0  0  0  0  0  0  0  0  0  0
  137.2277   78.4508  222.7811 H   0  0  0  0  0  0  0  0  0  0  0  0
  138.1898   80.6534  223.2549 H   0  0  0  0  0  0  0  0  0  0  0  0
  140.0627   82.0620  223.6051 H   0  0  0  0  0  0  0  0  0  0  0  0
  142.5437   82.3643  223.7540 H   0  0  0  0  0  0  0  0  0  0  0  0
  144.0056   80.3863  223.4112 H   0  0  0  0  0  0  0  0  0  0  0  0
  143.0682   78.1566  222.9320 H   0  0  0  0  0  0  0  0  0  0  0  0
  141.1439   76.7504  222.5817 H   0  0  0  0  0  0  0  0  0  0  0  0
  140.5323   71.4897  220.7766 H   0  0  0  0  0  0  0  0  0  0  0  0
  141.5819   72.7135  221.6653 H   0  0  0  0  0  0  0  0  0  0  0  0
  141.4246   70.4331  222.6644 H   0  0  0  0  0  0  0  0  0  0  0  0
  141.0489   71.8430  223.7196 H   0  0  0  0  0  0  0  0  0  0  0  0
  1  2  1  0
  2  3  1  0
  3  4  2  0
  3  5  1  0
  5  6  1  0
  6  7  2  0
  7  8  1  0
  8  9  2  0
  9 10  1  0
 10 11  2  0
  5 12  1  0
 12 13  1  0
 13 14  1  0
 14 15  1  0
 15 16  1  0
 16 17  2  0
 16 18  1  0
 18 19  1  0
 18 20  1  0
 20 21  1  0
 21 22  2  0
 22 23  1  0
 23 24  2  0
 24 25  1  0
 25 26  2  0
 26 27  1  0
 27 28  2  0
 28 29  1  0
 29 30  2  0
 15 31  1  0
 31 32  1  0
 11  6  1  0
 32 12  1  0
 30 21  1  0
 29 24  1  0
  1 33  1  0
  1 34  1  0
  1 35  1  0
  2 36  1  0
  2 37  1  0
  7 38  1  0
  8 39  1  0
  9 40  1  0
 10 41  1  0
 11 42  1  0
 12 43  1  0
 13 44  1  0
 13 45  1  0
 14 46  1  0
 14 47  1  0
 18 48  1  6
 19 49  1  0
 19 50  1  0
 20 51  1  0
 20 52  1  0
 22 53  1  0
 23 54  1  0
 25 55  1  0
 26 56  1  0
 27 57  1  0
 28 58  1  0
 30 59  1  0
 31 60  1  0
 31 61  1  0
 32 62  1  0
 32 63  1  0
M  END
>  <smiles>  (1) 
CCC(=O)N(c1ccccc1)C1CCN(C(=O)[C@H](N)Cc2ccc3ccccc3c2)CC1

>  <score_type>  (1) 
oracle

>  <origin>  (1) 
autodockgpu

>  <m_score__min__energy>  (1) 
-9.5700000000000003

>  <m_primary>  (1) 
energy

>  <rmsd>  (1) 
7.415140961961175

>  <m_score__min__rmsd>  (1) 
7.415140961961175

>  <meeko>  (1) 
{"free_energy": -8.41, "intermolecular_energy": -10.8, "internal_energy": -1.88, "cluster_size": 2, "cluster_id": 6, "rank_in_cluster": 2}

>  <energy>  (1) 
-9.57

>  <cluster_rmsd>  (1) 
0.0

>  <cluster>  (1) 
1

$$$$

     RDKit          3D

 63 66  0  0  0  0  0  0  0  0999 V2000
  141.4530   80.9240  219.0910 C   0  0  0  0  0  0  0  0  0  0  0  0
  140.6410   79.6660  219.1760 C   0  0  0  0  0  0  0  0  0  0  0  0
  141.4400   78.5200  219.7030 C   0  0  0  0  0  0  0  0  0  0  0  0
  142.1560   77.8970  218.8760 O   0  0  0  0  0  0  0  0  0  0  0  0
  141.3640   78.1840  221.0840 N   0  0  0  0  0  0  0  0  0  0  0  0
  141.5320   79.2180  222.0770 C   0  0  0  0  0  0  0  0  0  0  0  0
  140.4030   79.8670  222.5090 C   0  0  0  0  0  0  0  0  0  0  0  0
  140.5590   80.8630  223.4620 C   0  0  0  0  0  0  0  0  0  0  0  0
  141.8310   81.1700  223.9460 C   0  0  0  0  0  0  0  0  0  0  0  0
  142.9620   80.5090  223.5010 C   0  0  0  0  0  0  0  0  0  0  0  0
  142.8030   79.5230  222.5580 C   0  0  0  0  0  0  0  0  0  0  0  0
  141.1240   76.8350  221.5070 C   0  0  0  0  0  0  0  0  0  0  0  0
  139.6510   76.4840  221.5090 C   0  0  0  0  0  0  0  0  0  0  0  0
  139.5230   75.1790  222.2740 C   0  0  0  0  0  0  0  0  0  0  0  0
  140.2550   74.1190  221.6540 N   0  0  0  0  0  0  0  0  0  0  0  0
  139.8210   72.7990  221.4320 C   0  0  0  0  0  0  0  0  0  0  0  0
  140.6590   72.0160  220.8180 O   0  0  0  0  0  0  0  0  0  0  0  0
  138.5570   72.1500  221.7870 C   0  0  2  0  0  0  0  0  0  0  0  0
  137.6950   72.8580  222.6730 N   0  0  0  0  0  0  0  0  0  0  0  0
  138.8500   70.7380  222.2950 C   0  0  0  0  0  0  0  0  0  0  0  0
  139.4310   70.6840  223.6280 C   0  0  0  0  0  0  0  0  0  0  0  0
  140.1840   71.6690  224.2260 C   0  0  0  0  0  0  0  0  0  0  0  0
  140.7180   71.5540  225.4970 C   0  0  0  0  0  0  0  0  0  0  0  0
  140.5150   70.4210  226.2410 C   0  0  0  0  0  0  0  0  0  0  0  0
  141.0480   70.3190  227.4970 C   0  0  0  0  0  0  0  0  0  0  0  0
  140.8410   69.1710  228.2470 C   0  0  0  0  0  0  0  0  0  0  0  0
  140.0880   68.1540  227.6810 C   0  0  0  0  0  0  0  0  0  0  0  0
  139.5470   68.2500  226.4180 C   0  0  0  0  0  0  0  0  0  0  0  0
  139.7660   69.4150  225.6740 C   0  0  0  0  0  0  0  0  0  0  0  0
  139.2300   69.5310  224.3970 C   0  0  0  0  0  0  0  0  0  0  0  0
  141.6110   74.4480  221.2190 C   0  0  0  0  0  0  0  0  0  0  0  0
  141.7750   75.7920  220.6230 C   0  0  0  0  0  0  0  0  0  0  0  0
  141.6834   81.2810  220.1056 H   0  0  0  0  0  0  0  0  0  0  0  0
  142.3902   80.7198  218.5525 H   0  0  0  0  0  0  0  0  0  0  0  0
  140.8810   81.6940  218.5525 H   0  0  0  0  0  0  0  0  0  0  0  0
  139.7853   79.8400  219.8450 H   0  0  0  0  0  0  0  0  0  0  0  0
  140.3057   79.4084  218.1605 H   0  0  0  0  0  0  0  0  0  0  0  0
  139.4099   79.6069  222.1139 H   0  0  0  0  0  0  0  0  0  0  0  0
  139.6808   81.4100  223.8356 H   0  0  0  0  0  0  0  0  0  0  0  0
  141.9377   81.9605  224.7034 H   0  0  0  0  0  0  0  0  0  0  0  0
  143.9583   80.7653  223.8905 H   0  0  0  0  0  0  0  0  0  0  0  0
  143.6794   78.9743  222.1827 H   0  0  0  0  0  0  0  0  0  0  0  0
  141.5567   76.8118  222.5181 H   0  0  0  0  0  0  0  0  0  0  0  0
  139.0719   77.2755  222.0071 H   0  0  0  0  0  0  0  0  0  0  0  0
  139.2629   76.3857  220.4845 H   0  0  0  0  0  0  0  0  0  0  0  0
  139.9075   75.3265  223.2940 H   0  0  0  0  0  0  0  0  0  0  0  0
  138.4602   74.8956  222.2856 H   0  0  0  0  0  0  0  0  0  0  0  0
  137.9697   72.1283  220.8572 H   0  0  0  0  0  0  0  0  0  0  0  0
  137.8790   73.8800  222.7320 H   0  0  0  0  0  0  0  0  0  0  0  0
  137.6880   72.4750  223.6400 H   0  0  0  0  0  0  0  0  0  0  0  0
  137.9050   70.1751  222.3092 H   0  0  0  0  0  0  0  0  0  0  0  0
  139.5967   70.3085  221.6110 H   0  0  0  0  0  0  0  0  0  0  0  0
  140.3709   72.5959  223.6639 H   0  0  0  0  0  0  0  0  0  0  0  0
  141.3117   72.3804  225.9148 H   0  0  0  0  0  0  0  0  0  0  0  0
  141.6407   71.1476  227.9119 H   0  0  0  0  0  0  0  0  0  0  0  0
  141.2609   69.0706  229.2587 H   0  0  0  0  0  0  0  0  0  0  0  0
  139.9161   67.2361  228.2623 H   0  0  0  0  0  0  0  0  0  0  0  0
  138.9522   67.4241  226.0007 H   0  0  0  0  0  0  0  0  0  0  0  0
  138.6371   68.7022  223.9828 H   0  0  0  0  0  0  0  0  0  0  0  0
  142.2743   74.3810  222.0940 H   0  0  0  0  0  0  0  0  0  0  0  0
  141.8577   73.7300  220.4230 H   0  0  0  0  0  0  0  0  0  0  0  0
  142.8470   76.0175  220.5228 H   0  0  0  0  0  0  0  0  0  0  0  0
  141.2956   75.8083  219.6331 H   0  0  0  0  0  0  0  0  0  0  0  0
  1  2  1  0
  2  3  1  0
  3  4  2  0
  3  5  1  0
  5  6  1  0
  6  7  2  0
  7  8  1  0
  8  9  2  0
  9 10  1  0
 10 11  2  0
  5 12  1  0
 12 13  1  0
 13 14  1  0
 14 15  1  0
 15 16  1  0
 16 17  2  0
 16 18  1  0
 18 19  1  0
 18 20  1  0
 20 21  1  0
 21 22  2  0
 22 23  1  0
 23 24  2  0
 24 25  1  0
 25 26  2  0
 26 27  1  0
 27 28  2  0
 28 29  1  0
 29 30  2  0
 15 31  1  0
 31 32  1  0
 11  6  1  0
 32 12  1  0
 30 21  1  0
 29 24  1  0
  1 33  1  0
  1 34  1  0
  1 35  1  0
  2 36  1  0
  2 37  1  0
  7 38  1  0
  8 39  1  0
  9 40  1  0
 10 41  1  0
 11 42  1  0
 12 43  1  0
 13 44  1  0
 13 45  1  0
 14 46  1  0
 14 47  1  0
 18 48  1  6
 19 49  1  0
 19 50  1  0
 20 51  1  0
 20 52  1  0
 22 53  1  0
 23 54  1  0
 25 55  1  0
 26 56  1  0
 27 57  1  0
 28 58  1  0
 30 59  1  0
 31 60  1  0
 31 61  1  0
 32 62  1  0
 32 63  1  0
M  END
>  <smiles>  (2) 
CCC(=O)N(c1ccccc1)C1CCN(C(=O)[C@H](N)Cc2ccc3ccccc3c2)CC1

>  <score_type>  (2) 
oracle

>  <origin>  (2) 
autodockgpu

>  <m_score__min__energy>  (2) 
-9.5700000000000003

>  <m_primary>  (2) 
energy

>  <rmsd>  (2) 
6.364944442715348

>  <m_score__min__rmsd>  (2) 
6.364944442715348

>  <meeko>  (2) 
{"free_energy": -9.36, "intermolecular_energy": -11.75, "internal_energy": -1.46, "cluster_size": 20, "cluster_id": 1, "rank_in_cluster": 5}

>  <energy>  (2) 
-9.52

>  <cluster_rmsd>  (2) 
0.43

>  <cluster>  (2) 
1

$$$$

     RDKit          3D

 63 66  0  0  0  0  0  0  0  0999 V2000
  142.8140   81.2690  217.8310 C   0  0  0  0  0  0  0  0  0  0  0  0
  142.5500   79.8550  218.2570 C   0  0  0  0  0  0  0  0  0  0  0  0
  141.4110   79.7650  219.2180 C   0  0  0  0  0  0  0  0  0  0  0  0
  140.3300   80.3080  218.8720 O   0  0  0  0  0  0  0  0  0  0  0  0
  141.5860   79.0870  220.4580 N   0  0  0  0  0  0  0  0  0  0  0  0
  141.7780   79.8550  221.6660 C   0  0  0  0  0  0  0  0  0  0  0  0
  140.9450   80.9260  221.8730 C   0  0  0  0  0  0  0  0  0  0  0  0
  141.1270   81.6660  223.0300 C   0  0  0  0  0  0  0  0  0  0  0  0
  142.1290   81.3110  223.9350 C   0  0  0  0  0  0  0  0  0  0  0  0
  142.9630   80.2290  223.7140 C   0  0  0  0  0  0  0  0  0  0  0  0
  142.7790   79.4980  222.5660 C   0  0  0  0  0  0  0  0  0  0  0  0
  141.5730   77.6560  220.5290 C   0  0  0  0  0  0  0  0  0  0  0  0
  140.6790   77.1390  221.6360 C   0  0  0  0  0  0  0  0  0  0  0  0
  141.0140   75.6690  221.8060 C   0  0  0  0  0  0  0  0  0  0  0  0
  140.7620   74.9190  220.6140 N   0  0  0  0  0  0  0  0  0  0  0  0
  140.1250   73.6690  220.5120 C   0  0  0  0  0  0  0  0  0  0  0  0
  139.9830   73.1950  219.3080 O   0  0  0  0  0  0  0  0  0  0  0  0
  139.5860   72.7970  221.5580 C   0  0  2  0  0  0  0  0  0  0  0  0
  138.5140   73.3150  222.3400 N   0  0  0  0  0  0  0  0  0  0  0  0
  140.7380   72.3060  222.4350 C   0  0  0  0  0  0  0  0  0  0  0  0
  140.3300   71.4780  223.5610 C   0  0  0  0  0  0  0  0  0  0  0  0
  139.5680   70.3340  223.4930 C   0  0  0  0  0  0  0  0  0  0  0  0
  139.2050   69.5930  224.6040 C   0  0  0  0  0  0  0  0  0  0  0  0
  139.5980   69.9770  225.8590 C   0  0  0  0  0  0  0  0  0  0  0  0
  139.2330   69.2360  226.9500 C   0  0  0  0  0  0  0  0  0  0  0  0
  139.6340   69.6260  228.2190 C   0  0  0  0  0  0  0  0  0  0  0  0
  140.4020   70.7740  228.3310 C   0  0  0  0  0  0  0  0  0  0  0  0
  140.7740   71.5250  227.2380 C   0  0  0  0  0  0  0  0  0  0  0  0
  140.3620   71.1160  225.9640 C   0  0  0  0  0  0  0  0  0  0  0  0
  140.7260   71.8610  224.8480 C   0  0  0  0  0  0  0  0  0  0  0  0
  141.2370   75.5200  219.3690 C   0  0  0  0  0  0  0  0  0  0  0  0
  141.0660   76.9860  219.2690 C   0  0  0  0  0  0  0  0  0  0  0  0
  142.9326   81.9041  218.7213 H   0  0  0  0  0  0  0  0  0  0  0  0
  143.7344   81.3050  217.2297 H   0  0  0  0  0  0  0  0  0  0  0  0
  141.9686   81.6347  217.2297 H   0  0  0  0  0  0  0  0  0  0  0  0
  142.3122   79.2542  217.3668 H   0  0  0  0  0  0  0  0  0  0  0  0
  143.4516   79.4777  218.7617 H   0  0  0  0  0  0  0  0  0  0  0  0
  140.1614   81.1873  221.1466 H   0  0  0  0  0  0  0  0  0  0  0  0
  140.4821   82.5331  223.2355 H   0  0  0  0  0  0  0  0  0  0  0  0
  142.2592   81.9082  224.8495 H   0  0  0  0  0  0  0  0  0  0  0  0
  143.7492   79.9626  224.4357 H   0  0  0  0  0  0  0  0  0  0  0  0
  143.4223   78.6305  222.3574 H   0  0  0  0  0  0  0  0  0  0  0  0
  142.6305   77.4080  220.7025 H   0  0  0  0  0  0  0  0  0  0  0  0
  140.8764   77.6847  222.5705 H   0  0  0  0  0  0  0  0  0  0  0  0
  139.6164   77.2798  221.3889 H   0  0  0  0  0  0  0  0  0  0  0  0
  142.0788   75.5754  222.0656 H   0  0  0  0  0  0  0  0  0  0  0  0
  140.3723   75.2649  222.6029 H   0  0  0  0  0  0  0  0  0  0  0  0
  139.1043   71.9642  221.0248 H   0  0  0  0  0  0  0  0  0  0  0  0
  138.6920   74.2540  222.7510 H   0  0  0  0  0  0  0  0  0  0  0  0
  138.2150   72.6780  223.1070 H   0  0  0  0  0  0  0  0  0  0  0  0
  141.4219   71.7174  221.8058 H   0  0  0  0  0  0  0  0  0  0  0  0
  141.2103   73.2031  222.8617 H   0  0  0  0  0  0  0  0  0  0  0  0
  139.2299   69.9908  222.5041 H   0  0  0  0  0  0  0  0  0  0  0  0
  138.5947   68.6865  224.4782 H   0  0  0  0  0  0  0  0  0  0  0  0
  138.6214   68.3309  226.8204 H   0  0  0  0  0  0  0  0  0  0  0  0
  139.3516   69.0429  229.1079 H   0  0  0  0  0  0  0  0  0  0  0  0
  140.7269   71.0978  229.3308 H   0  0  0  0  0  0  0  0  0  0  0  0
  141.3847   72.4312  227.3640 H   0  0  0  0  0  0  0  0  0  0  0  0
  141.3358   72.7672  224.9786 H   0  0  0  0  0  0  0  0  0  0  0  0
  142.3094   75.2955  219.2708 H   0  0  0  0  0  0  0  0  0  0  0  0
  140.6207   75.0866  218.5676 H   0  0  0  0  0  0  0  0  0  0  0  0
  141.6335   77.3604  218.4042 H   0  0  0  0  0  0  0  0  0  0  0  0
  139.9977   77.2162  219.1436 H   0  0  0  0  0  0  0  0  0  0  0  0
  1  2  1  0
  2  3  1  0
  3  4  2  0
  3  5  1  0
  5  6  1  0
  6  7  2  0
  7  8  1  0
  8  9  2  0
  9 10  1  0
 10 11  2  0
  5 12  1  0
 12 13  1  0
 13 14  1  0
 14 15  1  0
 15 16  1  0
 16 17  2  0
 16 18  1  0
 18 19  1  0
 18 20  1  0
 20 21  1  0
 21 22  2  0
 22 23  1  0
 23 24  2  0
 24 25  1  0
 25 26  2  0
 26 27  1  0
 27 28  2  0
 28 29  1  0
 29 30  2  0
 15 31  1  0
 31 32  1  0
 11  6  1  0
 32 12  1  0
 30 21  1  0
 29 24  1  0
  1 33  1  0
  1 34  1  0
  1 35  1  0
  2 36  1  0
  2 37  1  0
  7 38  1  0
  8 39  1  0
  9 40  1  0
 10 41  1  0
 11 42  1  0
 12 43  1  0
 13 44  1  0
 13 45  1  0
 14 46  1  0
 14 47  1  0
 18 48  1  6
 19 49  1  0
 19 50  1  0
 20 51  1  0
 20 52  1  0
 22 53  1  0
 23 54  1  0
 25 55  1  0
 26 56  1  0
 27 57  1  0
 28 58  1  0
 30 59  1  0
 31 60  1  0
 31 61  1  0
 32 62  1  0
 32 63  1  0
M  END
>  <smiles>  (3) 
CCC(=O)N(c1ccccc1)C1CCN(C(=O)[C@H](N)Cc2ccc3ccccc3c2)CC1

>  <score_type>  (3) 
oracle

>  <origin>  (3) 
autodockgpu

>  <m_score__min__energy>  (3) 
-9.5700000000000003

>  <m_primary>  (3) 
energy

>  <rmsd>  (3) 
5.66066932192878

>  <m_score__min__rmsd>  (3) 
5.66066932192878

>  <meeko>  (3) 
{"free_energy": -9.34, "intermolecular_energy": -11.73, "internal_energy": -1.53, "cluster_size": 20, "cluster_id": 1, "rank_in_cluster": 6}

>  <energy>  (3) 
-9.5

>  <cluster_rmsd>  (3) 
0.32

>  <cluster>  (3) 
1

$$$$

     RDKit          3D

 63 66  0  0  0  0  0  0  0  0999 V2000
  142.6720   81.4140  217.6510 C   0  0  0  0  0  0  0  0  0  0  0  0
  141.6710   80.7730  218.5660 C   0  0  0  0  0  0  0  0  0  0  0  0
  142.1050   79.4120  219.0020 C   0  0  0  0  0  0  0  0  0  0  0  0
  142.8780   78.7870  218.2310 O   0  0  0  0  0  0  0  0  0  0  0  0
  141.6390   78.8860  220.2410 N   0  0  0  0  0  0  0  0  0  0  0  0
  141.6980   79.7070  221.4270 C   0  0  0  0  0  0  0  0  0  0  0  0
  142.6330   79.3790  222.3770 C   0  0  0  0  0  0  0  0  0  0  0  0
  142.6910   80.1630  223.5180 C   0  0  0  0  0  0  0  0  0  0  0  0
  141.8190   81.2410  223.6680 C   0  0  0  0  0  0  0  0  0  0  0  0
  140.8800   81.5620  222.7040 C   0  0  0  0  0  0  0  0  0  0  0  0
  140.8250   80.7820  221.5740 C   0  0  0  0  0  0  0  0  0  0  0  0
  141.1130   77.5560  220.3300 C   0  0  0  0  0  0  0  0  0  0  0  0
  142.2020   76.5080  220.4240 C   0  0  0  0  0  0  0  0  0  0  0  0
  141.5290   75.1700  220.1810 C   0  0  0  0  0  0  0  0  0  0  0  0
  140.5250   74.8880  221.1580 N   0  0  0  0  0  0  0  0  0  0  0  0
  140.3090   73.6720  221.8340 C   0  0  0  0  0  0  0  0  0  0  0  0
  139.3440   73.6660  222.7070 O   0  0  0  0  0  0  0  0  0  0  0  0
  141.0050   72.3900  221.7110 C   0  0  2  0  0  0  0  0  0  0  0  0
  141.7730   72.1830  220.5300 N   0  0  0  0  0  0  0  0  0  0  0  0
  140.0010   71.2580  221.9360 C   0  0  0  0  0  0  0  0  0  0  0  0
  139.9460   70.7620  223.3030 C   0  0  0  0  0  0  0  0  0  0  0  0
  139.3630   69.5850  223.7170 C   0  0  0  0  0  0  0  0  0  0  0  0
  139.3360   69.1720  225.0370 C   0  0  0  0  0  0  0  0  0  0  0  0
  139.9050   69.9370  226.0220 C   0  0  0  0  0  0  0  0  0  0  0  0
  139.8730   69.5170  227.3230 C   0  0  0  0  0  0  0  0  0  0  0  0
  140.4500   70.2930  228.3170 C   0  0  0  0  0  0  0  0  0  0  0  0
  141.0480   71.4860  227.9420 C   0  0  0  0  0  0  0  0  0  0  0  0
  141.0850   71.9150  226.6340 C   0  0  0  0  0  0  0  0  0  0  0  0
  140.4980   71.1200  225.6430 C   0  0  0  0  0  0  0  0  0  0  0  0
  140.5250   71.5350  224.3170 C   0  0  0  0  0  0  0  0  0  0  0  0
  139.6130   75.9860  221.4730 C   0  0  0  0  0  0  0  0  0  0  0  0
  140.2390   77.3250  221.5450 C   0  0  0  0  0  0  0  0  0  0  0  0
  143.4494   81.9118  218.2491 H   0  0  0  0  0  0  0  0  0  0  0  0
  143.1347   80.6438  217.0164 H   0  0  0  0  0  0  0  0  0  0  0  0
  142.1660   82.1565  217.0164 H   0  0  0  0  0  0  0  0  0  0  0  0
  141.5449   81.4078  219.4555 H   0  0  0  0  0  0  0  0  0  0  0  0
  140.7245   80.6684  218.0154 H   0  0  0  0  0  0  0  0  0  0  0  0
  143.3117   78.5246  222.2375 H   0  0  0  0  0  0  0  0  0  0  0  0
  143.4246   79.9352  224.3053 H   0  0  0  0  0  0  0  0  0  0  0  0
  141.8796   81.8539  224.5794 H   0  0  0  0  0  0  0  0  0  0  0  0
  140.1986   82.4151  222.8379 H   0  0  0  0  0  0  0  0  0  0  0  0
  140.0915   81.0067  220.7857 H   0  0  0  0  0  0  0  0  0  0  0  0
  140.5259   77.4597  219.4048 H   0  0  0  0  0  0  0  0  0  0  0  0
  142.9729   76.6906  219.6609 H   0  0  0  0  0  0  0  0  0  0  0  0
  142.6971   76.5335  221.4059 H   0  0  0  0  0  0  0  0  0  0  0  0
  141.0612   75.1838  219.1855 H   0  0  0  0  0  0  0  0  0  0  0  0
  142.2981   74.3865  220.2497 H   0  0  0  0  0  0  0  0  0  0  0  0
  141.7789   72.4026  222.4926 H   0  0  0  0  0  0  0  0  0  0  0  0
  141.6410   71.2520  220.0850 H   0  0  0  0  0  0  0  0  0  0  0  0
  142.7940   72.3340  220.6670 H   0  0  0  0  0  0  0  0  0  0  0  0
  139.0010   71.6268  221.6640 H   0  0  0  0  0  0  0  0  0  0  0  0
  140.3341   70.4161  221.3113 H   0  0  0  0  0  0  0  0  0  0  0  0
  138.8947   68.9400  222.9589 H   0  0  0  0  0  0  0  0  0  0  0  0
  138.8526   68.2193  225.2991 H   0  0  0  0  0  0  0  0  0  0  0  0
  139.3894   68.5633  227.5811 H   0  0  0  0  0  0  0  0  0  0  0  0
  140.4337   69.9722  229.3691 H   0  0  0  0  0  0  0  0  0  0  0  0
  141.5103   72.1135  228.7183 H   0  0  0  0  0  0  0  0  0  0  0  0
  141.5684   72.8677  226.3721 H   0  0  0  0  0  0  0  0  0  0  0  0
  141.0100   72.4881  224.0592 H   0  0  0  0  0  0  0  0  0  0  0  0
  138.8350   76.0156  220.6959 H   0  0  0  0  0  0  0  0  0  0  0  0
  139.2215   75.7779  222.4797 H   0  0  0  0  0  0  0  0  0  0  0  0
  139.4524   78.0932  221.5789 H   0  0  0  0  0  0  0  0  0  0  0  0
  140.8591   77.3846  222.4516 H   0  0  0  0  0  0  0  0  0  0  0  0
  1  2  1  0
  2  3  1  0
  3  4  2  0
  3  5  1  0
  5  6  1  0
  6  7  2  0
  7  8  1  0
  8  9  2  0
  9 10  1  0
 10 11  2  0
  5 12  1  0
 12 13  1  0
 13 14  1  0
 14 15  1  0
 15 16  1  0
 16 17  2  0
 16 18  1  0
 18 19  1  0
 18 20  1  0
 20 21  1  0
 21 22  2  0
 22 23  1  0
 23 24  2  0
 24 25  1  0
 25 26  2  0
 26 27  1  0
 27 28  2  0
 28 29  1  0
 29 30  2  0
 15 31  1  0
 31 32  1  0
 11  6  1  0
 32 12  1  0
 30 21  1  0
 29 24  1  0
  1 33  1  0
  1 34  1  0
  1 35  1  0
  2 36  1  0
  2 37  1  0
  7 38  1  0
  8 39  1  0
  9 40  1  0
 10 41  1  0
 11 42  1  0
 12 43  1  0
 13 44  1  0
 13 45  1  0
 14 46  1  0
 14 47  1  0
 18 48  1  1
 19 49  1  0
 19 50  1  0
 20 51  1  0
 20 52  1  0
 22 53  1  0
 23 54  1  0
 25 55  1  0
 26 56  1  0
 27 57  1  0
 28 58  1  0
 30 59  1  0
 31 60  1  0
 31 61  1  0
 32 62  1  0
 32 63  1  0
M  END
>  <smiles>  (4) 
CCC(=O)N(c1ccccc1)C1CCN(C(=O)[C@H](N)Cc2ccc3ccccc3c2)CC1

>  <score_type>  (4) 
oracle

>  <origin>  (4) 
autodockgpu

>  <m_score__min__energy>  (4) 
-9.5700000000000003

>  <m_primary>  (4) 
energy

>  <rmsd>  (4) 
5.79689675981826

>  <m_score__min__rmsd>  (4) 
5.79689675981826

>  <meeko>  (4) 
{"free_energy": -8.92, "intermolecular_energy": -11.31, "internal_energy": -1.43, "cluster_size": 20, "cluster_id": 1, "rank_in_cluster": 14}

>  <energy>  (4) 
-9.42

>  <cluster_rmsd>  (4) 
0.6

>  <cluster>  (4) 
1

$$$$

     RDKit          3D

 63 66  0  0  0  0  0  0  0  0999 V2000
  145.7350   74.1070  220.7980 C   0  0  0  0  0  0  0  0  0  0  0  0
  146.0280   72.6360  220.7830 C   0  0  0  0  0  0  0  0  0  0  0  0
  145.5880   71.9920  219.5090 C   0  0  0  0  0  0  0  0  0  0  0  0
  145.9210   72.5630  218.4380 O   0  0  0  0  0  0  0  0  0  0  0  0
  144.8280   70.7890  219.5520 N   0  0  0  0  0  0  0  0  0  0  0  0
  145.3510   69.5960  218.9290 C   0  0  0  0  0  0  0  0  0  0  0  0
  145.3770   68.4500  219.6820 C   0  0  0  0  0  0  0  0  0  0  0  0
  145.8800   67.3030  219.0880 C   0  0  0  0  0  0  0  0  0  0  0  0
  146.3350   67.3430  217.7700 C   0  0  0  0  0  0  0  0  0  0  0  0
  146.3040   68.5050  217.0210 C   0  0  0  0  0  0  0  0  0  0  0  0
  145.8050   69.6400  217.6130 C   0  0  0  0  0  0  0  0  0  0  0  0
  143.5520   70.7410  220.2050 C   0  0  0  0  0  0  0  0  0  0  0  0
  143.0490   72.1150  220.5930 C   0  0  0  0  0  0  0  0  0  0  0  0
  141.8870   71.8920  221.5440 C   0  0  0  0  0  0  0  0  0  0  0  0
  140.8230   71.1620  220.9290 N   0  0  0  0  0  0  0  0  0  0  0  0
  139.4450   71.4390  221.0010 C   0  0  0  0  0  0  0  0  0  0  0  0
  138.6650   70.6440  220.3280 O   0  0  0  0  0  0  0  0  0  0  0  0
  138.7320   72.4950  221.7230 C   0  0  2  0  0  0  0  0  0  0  0  0
  139.5270   73.5040  222.3400 N   0  0  0  0  0  0  0  0  0  0  0  0
  137.7680   71.8500  222.7200 C   0  0  0  0  0  0  0  0  0  0  0  0
  138.3600   70.8080  223.5450 C   0  0  0  0  0  0  0  0  0  0  0  0
  138.2240   69.4510  223.3620 C   0  0  0  0  0  0  0  0  0  0  0  0
  138.8060   68.5080  224.1890 C   0  0  0  0  0  0  0  0  0  0  0  0
  139.5680   68.8930  225.2610 C   0  0  0  0  0  0  0  0  0  0  0  0
  140.1400   67.9510  226.0720 C   0  0  0  0  0  0  0  0  0  0  0  0
  140.9110   68.3440  227.1550 C   0  0  0  0  0  0  0  0  0  0  0  0
  141.0740   69.7020  227.3760 C   0  0  0  0  0  0  0  0  0  0  0  0
  140.5020   70.6570  226.5640 C   0  0  0  0  0  0  0  0  0  0  0  0
  139.7270   70.2430  225.4740 C   0  0  0  0  0  0  0  0  0  0  0  0
  139.1410   71.1900  224.6430 C   0  0  0  0  0  0  0  0  0  0  0  0
  141.2180   69.9880  220.1530 C   0  0  0  0  0  0  0  0  0  0  0  0
  142.4520   70.1460  219.3510 C   0  0  0  0  0  0  0  0  0  0  0  0
  145.6654   74.4564  221.8387 H   0  0  0  0  0  0  0  0  0  0  0  0
  146.5432   74.6471  220.2832 H   0  0  0  0  0  0  0  0  0  0  0  0
  144.7815   74.2962  220.2832 H   0  0  0  0  0  0  0  0  0  0  0  0
  147.1117   72.4883  220.9001 H   0  0  0  0  0  0  0  0  0  0  0  0
  145.4720   72.1698  221.6097 H   0  0  0  0  0  0  0  0  0  0  0  0
  145.0120   68.4414  220.7196 H   0  0  0  0  0  0  0  0  0  0  0  0
  145.9203   66.3617  219.6557 H   0  0  0  0  0  0  0  0  0  0  0  0
  146.7299   66.4236  217.3132 H   0  0  0  0  0  0  0  0  0  0  0  0
  146.6677   68.5202  215.9830 H   0  0  0  0  0  0  0  0  0  0  0  0
  145.7641   70.5829  217.0480 H   0  0  0  0  0  0  0  0  0  0  0  0
  143.7467   70.1092  221.0842 H   0  0  0  0  0  0  0  0  0  0  0  0
  143.8460   72.6849  221.0929 H   0  0  0  0  0  0  0  0  0  0  0  0
  142.7366   72.6901  219.7089 H   0  0  0  0  0  0  0  0  0  0  0  0
  142.2462   71.3277  222.4172 H   0  0  0  0  0  0  0  0  0  0  0  0
  141.4964   72.8770  221.8393 H   0  0  0  0  0  0  0  0  0  0  0  0
  138.1913   73.0621  220.9510 H   0  0  0  0  0  0  0  0  0  0  0  0
  140.4970   73.5770  221.9710 H   0  0  0  0  0  0  0  0  0  0  0  0
  139.5810   73.4150  223.3750 H   0  0  0  0  0  0  0  0  0  0  0  0
  137.3838   72.6376  223.3849 H   0  0  0  0  0  0  0  0  0  0  0  0
  136.9795   71.3668  222.1244 H   0  0  0  0  0  0  0  0  0  0  0  0
  137.6204   69.0977  222.5130 H   0  0  0  0  0  0  0  0  0  0  0  0
  138.6558   67.4377  223.9843 H   0  0  0  0  0  0  0  0  0  0  0  0
  139.9880   66.8815  225.8646 H   0  0  0  0  0  0  0  0  0  0  0  0
  141.3786   67.6011  227.8179 H   0  0  0  0  0  0  0  0  0  0  0  0
  141.6827   70.0300  228.2315 H   0  0  0  0  0  0  0  0  0  0  0  0
  140.6518   71.7273  226.7688 H   0  0  0  0  0  0  0  0  0  0  0  0
  139.2933   72.2593  224.8514 H   0  0  0  0  0  0  0  0  0  0  0  0
  141.3723   69.1539  220.8533 H   0  0  0  0  0  0  0  0  0  0  0  0
  140.4064   69.8131  219.4314 H   0  0  0  0  0  0  0  0  0  0  0  0
  142.7724   69.1621  218.9778 H   0  0  0  0  0  0  0  0  0  0  0  0
  142.2488   70.8180  218.5042 H   0  0  0  0  0  0  0  0  0  0  0  0
  1  2  1  0
  2  3  1  0
  3  4  2  0
  3  5  1  0
  5  6  1  0
  6  7  2  0
  7  8  1  0
  8  9  2  0
  9 10  1  0
 10 11  2  0
  5 12  1  0
 12 13  1  0
 13 14  1  0
 14 15  1  0
 15 16  1  0
 16 17  2  0
 16 18  1  0
 18 19  1  0
 18 20  1  0
 20 21  1  0
 21 22  2  0
 22 23  1  0
 23 24  2  0
 24 25  1  0
 25 26  2  0
 26 27  1  0
 27 28  2  0
 28 29  1  0
 29 30  2  0
 15 31  1  0
 31 32  1  0
 11  6  1  0
 32 12  1  0
 30 21  1  0
 29 24  1  0
  1 33  1  0
  1 34  1  0
  1 35  1  0
  2 36  1  0
  2 37  1  0
  7 38  1  0
  8 39  1  0
  9 40  1  0
 10 41  1  0
 11 42  1  0
 12 43  1  0
 13 44  1  0
 13 45  1  0
 14 46  1  0
 14 47  1  0
 18 48  1  6
 19 49  1  0
 19 50  1  0
 20 51  1  0
 20 52  1  0
 22 53  1  0
 23 54  1  0
 25 55  1  0
 26 56  1  0
 27 57  1  0
 28 58  1  0
 30 59  1  0
 31 60  1  0
 31 61  1  0
 32 62  1  0
 32 63  1  0
M  END
>  <smiles>  (5) 
CCC(=O)N(c1ccccc1)C1CCN(C(=O)[C@H](N)Cc2ccc3ccccc3c2)CC1

>  <score_type>  (5) 
oracle

>  <origin>  (5) 
autodockgpu

>  <m_score__min__energy>  (5) 
-9.5700000000000003

>  <m_primary>  (5) 
energy

>  <rmsd>  (5) 
8.579473990482592

>  <m_score__min__rmsd>  (5) 
8.579473990482592

>  <meeko>  (5) 
{"free_energy": -8.59, "intermolecular_energy": -10.97, "internal_energy": -1.76, "cluster_size": 6, "cluster_id": 2, "rank_in_cluster": 5}

>  <energy>  (5) 
-9.36

>  <cluster_rmsd>  (5) 
0.75

>  <cluster>  (5) 
1

$$$$

     RDKit          3D

 63 66  0  0  0  0  0  0  0  0999 V2000
  138.0280   80.5100  224.5890 C   0  0  0  0  0  0  0  0  0  0  0  0
  138.0900   80.9920  223.1690 C   0  0  0  0  0  0  0  0  0  0  0  0
  138.1760   79.8600  222.1990 C   0  0  0  0  0  0  0  0  0  0  0  0
  137.1840   79.6790  221.4460 O   0  0  0  0  0  0  0  0  0  0  0  0
  139.3460   79.0490  222.1620 N   0  0  0  0  0  0  0  0  0  0  0  0
  140.6140   79.6140  222.5590 C   0  0  0  0  0  0  0  0  0  0  0  0
  141.2950   80.3540  221.6250 C   0  0  0  0  0  0  0  0  0  0  0  0
  142.5140   80.8970  222.0010 C   0  0  0  0  0  0  0  0  0  0  0  0
  143.0050   80.6830  223.2890 C   0  0  0  0  0  0  0  0  0  0  0  0
  142.3090   79.9340  224.2210 C   0  0  0  0  0  0  0  0  0  0  0  0
  141.1010   79.3970  223.8460 C   0  0  0  0  0  0  0  0  0  0  0  0
  139.2860   77.6810  221.7400 C   0  0  0  0  0  0  0  0  0  0  0  0
  140.5750   76.9340  222.0120 C   0  0  0  0  0  0  0  0  0  0  0  0
  140.4900   75.6350  221.2340 C   0  0  0  0  0  0  0  0  0  0  0  0
  139.3870   74.8280  221.6530 N   0  0  0  0  0  0  0  0  0  0  0  0
  139.3880   73.4430  221.9010 C   0  0  0  0  0  0  0  0  0  0  0  0
  138.2610   72.9330  222.3050 O   0  0  0  0  0  0  0  0  0  0  0  0
  140.4700   72.4640  221.7750 C   0  0  2  0  0  0  0  0  0  0  0  0
  141.2830   72.5480  220.6090 N   0  0  0  0  0  0  0  0  0  0  0  0
  139.8920   71.0600  221.9590 C   0  0  0  0  0  0  0  0  0  0  0  0
  139.8420   70.6030  223.3390 C   0  0  0  0  0  0  0  0  0  0  0  0
  139.2200   69.4630  223.7950 C   0  0  0  0  0  0  0  0  0  0  0  0
  139.2000   69.0870  225.1260 C   0  0  0  0  0  0  0  0  0  0  0  0
  139.8170   69.8530  226.0800 C   0  0  0  0  0  0  0  0  0  0  0  0
  139.7910   69.4700  227.3930 C   0  0  0  0  0  0  0  0  0  0  0  0
  140.4170   70.2480  228.3550 C   0  0  0  0  0  0  0  0  0  0  0  0
  141.0560   71.4050  227.9380 C   0  0  0  0  0  0  0  0  0  0  0  0
  141.0870   71.7980  226.6170 C   0  0  0  0  0  0  0  0  0  0  0  0
  140.4500   71.0010  225.6590 C   0  0  0  0  0  0  0  0  0  0  0  0
  140.4690   71.3790  224.3220 C   0  0  0  0  0  0  0  0  0  0  0  0
  138.1150   75.5270  221.8270 C   0  0  0  0  0  0  0  0  0  0  0  0
  138.2100   76.8730  222.4340 C   0  0  0  0  0  0  0  0  0  0  0  0
  138.1380   81.3655  225.2717 H   0  0  0  0  0  0  0  0  0  0  0  0
  137.0595   80.0202  224.7680 H   0  0  0  0  0  0  0  0  0  0  0  0
  138.8411   79.7911  224.7680 H   0  0  0  0  0  0  0  0  0  0  0  0
  137.1843   81.5775  222.9525 H   0  0  0  0  0  0  0  0  0  0  0  0
  138.9959   81.6059  223.0571 H   0  0  0  0  0  0  0  0  0  0  0  0
  140.8885   80.5105  220.6149 H   0  0  0  0  0  0  0  0  0  0  0  0
  143.0939   81.4965  221.2838 H   0  0  0  0  0  0  0  0  0  0  0  0
  143.9731   81.1222  223.5717 H   0  0  0  0  0  0  0  0  0  0  0  0
  142.7107   79.7731  225.2323 H   0  0  0  0  0  0  0  0  0  0  0  0
  140.5194   78.7966  224.5610 H   0  0  0  0  0  0  0  0  0  0  0  0
  139.0755   77.7643  220.6636 H   0  0  0  0  0  0  0  0  0  0  0  0
  141.4370   77.5260  221.6707 H   0  0  0  0  0  0  0  0  0  0  0  0
  140.7075   76.7464  223.0877 H   0  0  0  0  0  0  0  0  0  0  0  0
  140.3728   75.8686  220.1655 H   0  0  0  0  0  0  0  0  0  0  0  0
  141.4142   75.0680  221.4197 H   0  0  0  0  0  0  0  0  0  0  0  0
  141.1828   72.7129  222.5750 H   0  0  0  0  0  0  0  0  0  0  0  0
  140.8190   72.9870  219.7880 H   0  0  0  0  0  0  0  0  0  0  0  0
  141.6740   71.6320  220.3080 H   0  0  0  0  0  0  0  0  0  0  0  0
  138.8675   71.0553  221.5585 H   0  0  0  0  0  0  0  0  0  0  0  0
  140.5659   70.3726  221.4267 H   0  0  0  0  0  0  0  0  0  0  0  0
  138.7125   68.8175  223.0630 H   0  0  0  0  0  0  0  0  0  0  0  0
  138.6828   68.1624  225.4220 H   0  0  0  0  0  0  0  0  0  0  0  0
  139.2733   68.5446  227.6857 H   0  0  0  0  0  0  0  0  0  0  0  0
  140.4068   69.9562  229.4155 H   0  0  0  0  0  0  0  0  0  0  0  0
  141.5571   72.0332  228.6892 H   0  0  0  0  0  0  0  0  0  0  0  0
  141.6039   72.7227  226.3208 H   0  0  0  0  0  0  0  0  0  0  0  0
  140.9861   72.3050  224.0302 H   0  0  0  0  0  0  0  0  0  0  0  0
  137.6476   75.6331  220.8369 H   0  0  0  0  0  0  0  0  0  0  0  0
  137.5273   74.9178  222.5294 H   0  0  0  0  0  0  0  0  0  0  0  0
  137.2437   77.3883  222.3299 H   0  0  0  0  0  0  0  0  0  0  0  0
  138.4664   76.7709  223.4988 H   0  0  0  0  0  0  0  0  0  0  0  0
  1  2  1  0
  2  3  1  0
  3  4  2  0
  3  5  1  0
  5  6  1  0
  6  7  2  0
  7  8  1  0
  8  9  2  0
  9 10  1  0
 10 11  2  0
  5 12  1  0
 12 13  1  0
 13 14  1  0
 14 15  1  0
 15 16  1  0
 16 17  2  0
 16 18  1  0
 18 19  1  0
 18 20  1  0
 20 21  1  0
 21 22  2  0
 22 23  1  0
 23 24  2  0
 24 25  1  0
 25 26  2  0
 26 27  1  0
 27 28  2  0
 28 29  1  0
 29 30  2  0
 15 31  1  0
 31 32  1  0
 11  6  1  0
 32 12  1  0
 30 21  1  0
 29 24  1  0
  1 33  1  0
  1 34  1  0
  1 35  1  0
  2 36  1  0
  2 37  1  0
  7 38  1  0
  8 39  1  0
  9 40  1  0
 10 41  1  0
 11 42  1  0
 12 43  1  0
 13 44  1  0
 13 45  1  0
 14 46  1  0
 14 47  1  0
 18 48  1  1
 19 49  1  0
 19 50  1  0
 20 51  1  0
 20 52  1  0
 22 53  1  0
 23 54  1  0
 25 55  1  0
 26 56  1  0
 27 57  1  0
 28 58  1  0
 30 59  1  0
 31 60  1  0
 31 61  1  0
 32 62  1  0
 32 63  1  0
M  END
>  <smiles>  (6) 
CCC(=O)N(c1ccccc1)C1CCN(C(=O)[C@H](N)Cc2ccc3ccccc3c2)CC1

>  <score_type>  (6) 
oracle

>  <origin>  (6) 
autodockgpu

>  <m_score__min__energy>  (6) 
-9.5700000000000003

>  <m_primary>  (6) 
energy

>  <rmsd>  (6) 
5.937356520358934

>  <m_score__min__rmsd>  (6) 
5.937356520358934

>  <meeko>  (6) 
{"free_energy": -8.6, "intermolecular_energy": -10.98, "internal_energy": -1.62, "cluster_size": 6, "cluster_id": 4, "rank_in_cluster": 3}

>  <energy>  (6) 
-9.34

>  <cluster_rmsd>  (6) 
1.12

>  <cluster>  (6) 
1

$$$$

     RDKit          3D

 63 66  0  0  0  0  0  0  0  0999 V2000
  146.5950   73.2930  222.0100 C   0  0  0  0  0  0  0  0  0  0  0  0
  146.2470   74.1390  220.8210 C   0  0  0  0  0  0  0  0  0  0  0  0
  145.3910   73.4030  219.8440 C   0  0  0  0  0  0  0  0  0  0  0  0
  145.9560   72.5290  219.1360 O   0  0  0  0  0  0  0  0  0  0  0  0
  144.0040   73.7090  219.7510 N   0  0  0  0  0  0  0  0  0  0  0  0
  143.5820   74.8780  219.0150 C   0  0  0  0  0  0  0  0  0  0  0  0
  143.4180   74.7460  217.6590 C   0  0  0  0  0  0  0  0  0  0  0  0
  143.0160   75.8660  216.9490 C   0  0  0  0  0  0  0  0  0  0  0  0
  142.7910   77.0710  217.6160 C   0  0  0  0  0  0  0  0  0  0  0  0
  142.9600   77.1910  218.9840 C   0  0  0  0  0  0  0  0  0  0  0  0
  143.3600   76.0790  219.6850 C   0  0  0  0  0  0  0  0  0  0  0  0
  143.0170   72.8770  220.3750 C   0  0  0  0  0  0  0  0  0  0  0  0
  141.7830   73.6510  220.7860 C   0  0  0  0  0  0  0  0  0  0  0  0
  140.9920   72.7390  221.7060 C   0  0  0  0  0  0  0  0  0  0  0  0
  140.5890   71.5340  221.0500 N   0  0  0  0  0  0  0  0  0  0  0  0
  139.3250   70.9180  221.0990 C   0  0  0  0  0  0  0  0  0  0  0  0
  139.1880   69.8350  220.3910 O   0  0  0  0  0  0  0  0  0  0  0  0
  138.1170   71.3020  221.8320 C   0  0  2  0  0  0  0  0  0  0  0  0
  138.0810   72.6210  222.3700 N   0  0  0  0  0  0  0  0  0  0  0  0
  137.8310   70.2490  222.9030 C   0  0  0  0  0  0  0  0  0  0  0  0
  138.6950   70.3250  224.0720 C   0  0  0  0  0  0  0  0  0  0  0  0
  139.5030   71.3850  224.4170 C   0  0  0  0  0  0  0  0  0  0  0  0
  140.3100   71.3930  225.5400 C   0  0  0  0  0  0  0  0  0  0  0  0
  140.3450   70.3150  226.3850 C   0  0  0  0  0  0  0  0  0  0  0  0
  141.1480   70.3350  227.4920 C   0  0  0  0  0  0  0  0  0  0  0  0
  141.1800   69.2420  228.3450 C   0  0  0  0  0  0  0  0  0  0  0  0
  140.3820   68.1530  228.0330 C   0  0  0  0  0  0  0  0  0  0  0  0
  139.5710   68.1250  226.9210 C   0  0  0  0  0  0  0  0  0  0  0  0
  139.5500   69.2370  226.0700 C   0  0  0  0  0  0  0  0  0  0  0  0
  138.7380   69.2280  224.9420 C   0  0  0  0  0  0  0  0  0  0  0  0
  141.6170   70.8660  220.2540 C   0  0  0  0  0  0  0  0  0  0  0  0
  142.5040   71.7650  219.4840 C   0  0  0  0  0  0  0  0  0  0  0  0
  146.3674   73.8464  222.9330 H   0  0  0  0  0  0  0  0  0  0  0  0
  146.0058   72.3645  221.9844 H   0  0  0  0  0  0  0  0  0  0  0  0
  147.6670   73.0478  221.9844 H   0  0  0  0  0  0  0  0  0  0  0  0
  145.7050   75.0317  221.1664 H   0  0  0  0  0  0  0  0  0  0  0  0
  147.1832   74.4144  220.3134 H   0  0  0  0  0  0  0  0  0  0  0  0
  143.5991   73.7858  217.1539 H   0  0  0  0  0  0  0  0  0  0  0  0
  142.8743   75.8053  215.8599 H   0  0  0  0  0  0  0  0  0  0  0  0
  142.4703   77.9501  217.0379 H   0  0  0  0  0  0  0  0  0  0  0  0
  142.7795   78.1481  219.4952 H   0  0  0  0  0  0  0  0  0  0  0  0
  143.5047   76.1371  220.7739 H   0  0  0  0  0  0  0  0  0  0  0  0
  143.5539   72.4649  221.2421 H   0  0  0  0  0  0  0  0  0  0  0  0
  142.0700   74.5707  221.3168 H   0  0  0  0  0  0  0  0  0  0  0  0
  141.1877   73.9471  219.9097 H   0  0  0  0  0  0  0  0  0  0  0  0
  141.6180   72.4792  222.5724 H   0  0  0  0  0  0  0  0  0  0  0  0
  140.0839   73.2759  222.0174 H   0  0  0  0  0  0  0  0  0  0  0  0
  137.3169   71.3351  221.0779 H   0  0  0  0  0  0  0  0  0  0  0  0
  137.7140   72.6820  223.3410 H   0  0  0  0  0  0  0  0  0  0  0  0
  137.5510   73.2950  221.7810 H   0  0  0  0  0  0  0  0  0  0  0  0
  136.7902   70.3727  223.2367 H   0  0  0  0  0  0  0  0  0  0  0  0
  138.0208   69.2706  222.4375 H   0  0  0  0  0  0  0  0  0  0  0  0
  139.5069   72.2714  223.7657 H   0  0  0  0  0  0  0  0  0  0  0  0
  140.9308   72.2747  225.7573 H   0  0  0  0  0  0  0  0  0  0  0  0
  141.7683   71.2179  227.7057 H   0  0  0  0  0  0  0  0  0  0  0  0
  141.8185   69.2396  229.2407 H   0  0  0  0  0  0  0  0  0  0  0  0
  140.3971   67.2777  228.6991 H   0  0  0  0  0  0  0  0  0  0  0  0
  138.9496   67.2436  226.7044 H   0  0  0  0  0  0  0  0  0  0  0  0
  138.1186   68.3443  224.7288 H   0  0  0  0  0  0  0  0  0  0  0  0
  142.2437   70.2733  220.9367 H   0  0  0  0  0  0  0  0  0  0  0  0
  141.0794   70.2593  219.5105 H   0  0  0  0  0  0  0  0  0  0  0  0
  143.3560   71.1890  219.0937 H   0  0  0  0  0  0  0  0  0  0  0  0
  141.9363   72.2041  218.6504 H   0  0  0  0  0  0  0  0  0  0  0  0
  1  2  1  0
  2  3  1  0
  3  4  2  0
  3  5  1  0
  5  6  1  0
  6  7  2  0
  7  8  1  0
  8  9  2  0
  9 10  1  0
 10 11  2  0
  5 12  1  0
 12 13  1  0
 13 14  1  0
 14 15  1  0
 15 16  1  0
 16 17  2  0
 16 18  1  0
 18 19  1  0
 18 20  1  0
 20 21  1  0
 21 22  2  0
 22 23  1  0
 23 24  2  0
 24 25  1  0
 25 26  2  0
 26 27  1  0
 27 28  2  0
 28 29  1  0
 29 30  2  0
 15 31  1  0
 31 32  1  0
 11  6  1  0
 32 12  1  0
 30 21  1  0
 29 24  1  0
  1 33  1  0
  1 34  1  0
  1 35  1  0
  2 36  1  0
  2 37  1  0
  7 38  1  0
  8 39  1  0
  9 40  1  0
 10 41  1  0
 11 42  1  0
 12 43  1  0
 13 44  1  0
 13 45  1  0
 14 46  1  0
 14 47  1  0
 18 48  1  6
 19 49  1  0
 19 50  1  0
 20 51  1  0
 20 52  1  0
 22 53  1  0
 23 54  1  0
 25 55  1  0
 26 56  1  0
 27 57  1  0
 28 58  1  0
 30 59  1  0
 31 60  1  0
 31 61  1  0
 32 62  1  0
 32 63  1  0
M  END
>  <smiles>  (7) 
CCC(=O)N(c1ccccc1)C1CCN(C(=O)[C@H](N)Cc2ccc3ccccc3c2)CC1

>  <score_type>  (7) 
oracle

>  <origin>  (7) 
autodockgpu

>  <m_score__min__energy>  (7) 
-9.5700000000000003

>  <m_primary>  (7) 
energy

>  <rmsd>  (7) 
8.279912144131428

>  <m_score__min__rmsd>  (7) 
8.279912144131428

>  <meeko>  (7) 
{"free_energy": -8.69, "intermolecular_energy": -11.08, "internal_energy": -1.57, "cluster_size": 6, "cluster_id": 3, "rank_in_cluster": 6}

>  <energy>  (7) 
-9.21

>  <cluster_rmsd>  (7) 
0.34

>  <cluster>  (7) 
1

$$$$

     RDKit          3D

 63 66  0  0  0  0  0  0  0  0999 V2000
  142.5420   80.0280  218.1970 C   0  0  0  0  0  0  0  0  0  0  0  0
  142.2160   78.6150  218.5820 C   0  0  0  0  0  0  0  0  0  0  0  0
  141.0300   78.5430  219.4860 C   0  0  0  0  0  0  0  0  0  0  0  0
  139.9060   78.7760  218.9690 O   0  0  0  0  0  0  0  0  0  0  0  0
  141.2090   78.2210  220.8610 N   0  0  0  0  0  0  0  0  0  0  0  0
  141.5500   79.2670  221.7960 C   0  0  0  0  0  0  0  0  0  0  0  0
  141.4580   80.5630  221.3540 C   0  0  0  0  0  0  0  0  0  0  0  0
  141.7860   81.5710  222.2480 C   0  0  0  0  0  0  0  0  0  0  0  0
  142.1910   81.2480  223.5440 C   0  0  0  0  0  0  0  0  0  0  0  0
  142.2800   79.9370  223.9770 C   0  0  0  0  0  0  0  0  0  0  0  0
  141.9530   78.9410  223.0880 C   0  0  0  0  0  0  0  0  0  0  0  0
  141.0550   76.8770  221.3340 C   0  0  0  0  0  0  0  0  0  0  0  0
  139.6170   76.4040  221.2750 C   0  0  0  0  0  0  0  0  0  0  0  0
  139.5530   75.1280  222.0940 C   0  0  0  0  0  0  0  0  0  0  0  0
  140.4020   74.1070  221.5650 N   0  0  0  0  0  0  0  0  0  0  0  0
  140.0900   72.7470  221.3840 C   0  0  0  0  0  0  0  0  0  0  0  0
  141.0230   72.0110  220.8540 O   0  0  0  0  0  0  0  0  0  0  0  0
  138.8650   72.0110  221.7020 C   0  0  2  0  0  0  0  0  0  0  0  0
  137.9240   72.6600  222.5520 N   0  0  0  0  0  0  0  0  0  0  0  0
  139.2410   70.6270  222.2320 C   0  0  0  0  0  0  0  0  0  0  0  0
  139.7080   70.6140  223.6110 C   0  0  0  0  0  0  0  0  0  0  0  0
  140.3320   71.6510  224.2660 C   0  0  0  0  0  0  0  0  0  0  0  0
  140.7620   71.5740  225.5790 C   0  0  0  0  0  0  0  0  0  0  0  0
  140.5800   70.4290  226.3080 C   0  0  0  0  0  0  0  0  0  0  0  0
  141.0080   70.3650  227.6060 C   0  0  0  0  0  0  0  0  0  0  0  0
  140.8220   69.2040  228.3420 C   0  0  0  0  0  0  0  0  0  0  0  0
  140.1980   68.1350  227.7180 C   0  0  0  0  0  0  0  0  0  0  0  0
  139.7630   68.1920  226.4130 C   0  0  0  0  0  0  0  0  0  0  0  0
  139.9580   69.3710  225.6850 C   0  0  0  0  0  0  0  0  0  0  0  0
  139.5270   69.4490  224.3650 C   0  0  0  0  0  0  0  0  0  0  0  0
  141.7500   74.5290  221.1870 C   0  0  0  0  0  0  0  0  0  0  0  0
  141.8380   75.8550  220.5370 C   0  0  0  0  0  0  0  0  0  0  0  0
  142.6815   80.6326  219.1053 H   0  0  0  0  0  0  0  0  0  0  0  0
  143.4669   80.0418  217.6017 H   0  0  0  0  0  0  0  0  0  0  0  0
  141.7166   80.4456  217.6017 H   0  0  0  0  0  0  0  0  0  0  0  0
  142.0033   78.0381  217.6699 H   0  0  0  0  0  0  0  0  0  0  0  0
  143.0808   78.2007  219.1211 H   0  0  0  0  0  0  0  0  0  0  0  0
  141.1358   80.7938  220.3279 H   0  0  0  0  0  0  0  0  0  0  0  0
  141.7270   82.6242  221.9360 H   0  0  0  0  0  0  0  0  0  0  0  0
  142.4468   82.0593  224.2414 H   0  0  0  0  0  0  0  0  0  0  0  0
  142.6026   79.6990  225.0014 H   0  0  0  0  0  0  0  0  0  0  0  0
  142.0097   77.8869  223.3973 H   0  0  0  0  0  0  0  0  0  0  0  0
  141.4294   76.9339  222.3667 H   0  0  0  0  0  0  0  0  0  0  0  0
  138.9481   77.1651  221.7031 H   0  0  0  0  0  0  0  0  0  0  0  0
  139.2965   76.2289  220.2374 H   0  0  0  0  0  0  0  0  0  0  0  0
  139.8666   75.3516  223.1244 H   0  0  0  0  0  0  0  0  0  0  0  0
  138.5178   74.7574  222.0637 H   0  0  0  0  0  0  0  0  0  0  0  0
  138.3134   71.9416  220.7529 H   0  0  0  0  0  0  0  0  0  0  0  0
  137.4050   73.4430  222.1050 H   0  0  0  0  0  0  0  0  0  0  0  0
  138.3390   73.0120  223.4390 H   0  0  0  0  0  0  0  0  0  0  0  0
  138.3537   69.9805  222.1638 H   0  0  0  0  0  0  0  0  0  0  0  0
  140.0799   70.2733  221.6147 H   0  0  0  0  0  0  0  0  0  0  0  0
  140.4976   72.5899  223.7173 H   0  0  0  0  0  0  0  0  0  0  0  0
  141.2551   72.4414  226.0420 H   0  0  0  0  0  0  0  0  0  0  0  0
  141.4998   71.2347  228.0662 H   0  0  0  0  0  0  0  0  0  0  0  0
  141.1588   69.1339  229.3868 H   0  0  0  0  0  0  0  0  0  0  0  0
  140.0446   67.2061  228.2869 H   0  0  0  0  0  0  0  0  0  0  0  0
  139.2700   67.3245  225.9500 H   0  0  0  0  0  0  0  0  0  0  0  0
  139.0349   68.5792  223.9053 H   0  0  0  0  0  0  0  0  0  0  0  0
  142.3659   74.5555  222.0980 H   0  0  0  0  0  0  0  0  0  0  0  0
  142.0989   73.8004  220.4404 H   0  0  0  0  0  0  0  0  0  0  0  0
  142.8921   76.1650  220.4835 H   0  0  0  0  0  0  0  0  0  0  0  0
  141.4162   75.7883  219.5233 H   0  0  0  0  0  0  0  0  0  0  0  0
  1  2  1  0
  2  3  1  0
  3  4  2  0
  3  5  1  0
  5  6  1  0
  6  7  2  0
  7  8  1  0
  8  9  2  0
  9 10  1  0
 10 11  2  0
  5 12  1  0
 12 13  1  0
 13 14  1  0
 14 15  1  0
 15 16  1  0
 16 17  2  0
 16 18  1  0
 18 19  1  0
 18 20  1  0
 20 21  1  0
 21 22  2  0
 22 23  1  0
 23 24  2  0
 24 25  1  0
 25 26  2  0
 26 27  1  0
 27 28  2  0
 28 29  1  0
 29 30  2  0
 15 31  1  0
 31 32  1  0
 11  6  1  0
 32 12  1  0
 30 21  1  0
 29 24  1  0
  1 33  1  0
  1 34  1  0
  1 35  1  0
  2 36  1  0
  2 37  1  0
  7 38  1  0
  8 39  1  0
  9 40  1  0
 10 41  1  0
 11 42  1  0
 12 43  1  0
 13 44  1  0
 13 45  1  0
 14 46  1  0
 14 47  1  0
 18 48  1  6
 19 49  1  0
 19 50  1  0
 20 51  1  0
 20 52  1  0
 22 53  1  0
 23 54  1  0
 25 55  1  0
 26 56  1  0
 27 57  1  0
 28 58  1  0
 30 59  1  0
 31 60  1  0
 31 61  1  0
 32 62  1  0
 32 63  1  0
M  END
>  <smiles>  (8) 
CCC(=O)N(c1ccccc1)C1CCN(C(=O)[C@H](N)Cc2ccc3ccccc3c2)CC1

>  <score_type>  (8) 
oracle

>  <origin>  (8) 
autodockgpu

>  <m_score__min__energy>  (8) 
-9.5700000000000003

>  <m_primary>  (8) 
energy

>  <rmsd>  (8) 
6.344428320653132

>  <m_score__min__rmsd>  (8) 
6.344428320653132

>  <meeko>  (8) 
{"free_energy": -9.21, "intermolecular_energy": -11.59, "internal_energy": -1.6, "cluster_size": 20, "cluster_id": 1, "rank_in_cluster": 7}

>  <energy>  (8) 
-9.08

>  <cluster_rmsd>  (8) 
1.12

>  <cluster>  (8) 
1

$$$$

     RDKit          3D

 63 66  0  0  0  0  0  0  0  0999 V2000
  142.9350   80.5580  223.7780 C   0  0  0  0  0  0  0  0  0  0  0  0
  142.0980   79.3140  223.7830 C   0  0  0  0  0  0  0  0  0  0  0  0
  141.4510   79.0700  222.4590 C   0  0  0  0  0  0  0  0  0  0  0  0
  142.1890   79.1520  221.4420 O   0  0  0  0  0  0  0  0  0  0  0  0
  140.0630   78.7640  222.3970 N   0  0  0  0  0  0  0  0  0  0  0  0
  139.1000   79.7370  222.8560 C   0  0  0  0  0  0  0  0  0  0  0  0
  138.3840   80.4160  221.9010 C   0  0  0  0  0  0  0  0  0  0  0  0
  137.4600   81.3520  222.3370 C   0  0  0  0  0  0  0  0  0  0  0  0
  137.2840   81.5750  223.7030 C   0  0  0  0  0  0  0  0  0  0  0  0
  138.0120   80.8850  224.6560 C   0  0  0  0  0  0  0  0  0  0  0  0
  138.9280   79.9570  224.2200 C   0  0  0  0  0  0  0  0  0  0  0  0
  139.6030   77.5060  221.8860 C   0  0  0  0  0  0  0  0  0  0  0  0
  140.6930   76.4550  221.8700 C   0  0  0  0  0  0  0  0  0  0  0  0
  140.1720   75.3120  221.0190 C   0  0  0  0  0  0  0  0  0  0  0  0
  138.9800   74.7390  221.5610 N   0  0  0  0  0  0  0  0  0  0  0  0
  138.6750   73.3710  221.6960 C   0  0  0  0  0  0  0  0  0  0  0  0
  137.5320   73.0910  222.2500 O   0  0  0  0  0  0  0  0  0  0  0  0
  139.4490   72.1910  221.3070 C   0  0  2  0  0  0  0  0  0  0  0  0
  138.7310   70.9690  221.1590 N   0  0  0  0  0  0  0  0  0  0  0  0
  140.6330   72.0360  222.2620 C   0  0  0  0  0  0  0  0  0  0  0  0
  140.3290   71.3120  223.4880 C   0  0  0  0  0  0  0  0  0  0  0  0
  139.6760   70.1040  223.5770 C   0  0  0  0  0  0  0  0  0  0  0  0
  139.4090   69.4690  224.7760 C   0  0  0  0  0  0  0  0  0  0  0  0
  139.7940   70.0290  225.9660 C   0  0  0  0  0  0  0  0  0  0  0  0
  139.5250   69.3910  227.1450 C   0  0  0  0  0  0  0  0  0  0  0  0
  139.9170   69.9600  228.3470 C   0  0  0  0  0  0  0  0  0  0  0  0
  140.5780   71.1780  228.3020 C   0  0  0  0  0  0  0  0  0  0  0  0
  140.8530   71.8260  227.1190 C   0  0  0  0  0  0  0  0  0  0  0  0
  140.4510   71.2370  225.9140 C   0  0  0  0  0  0  0  0  0  0  0  0
  140.7190   71.8760  224.7090 C   0  0  0  0  0  0  0  0  0  0  0  0
  137.9610   75.6870  222.0090 C   0  0  0  0  0  0  0  0  0  0  0  0
  138.4780   76.8930  222.6930 C   0  0  0  0  0  0  0  0  0  0  0  0
  143.1416   80.8651  224.8139 H   0  0  0  0  0  0  0  0  0  0  0  0
  143.8839   80.3594  223.2582 H   0  0  0  0  0  0  0  0  0  0  0  0
  142.3935   81.3622  223.2582 H   0  0  0  0  0  0  0  0  0  0  0  0
  142.7398   78.4550  224.0284 H   0  0  0  0  0  0  0  0  0  0  0  0
  141.3024   79.4426  224.5316 H   0  0  0  0  0  0  0  0  0  0  0  0
  138.5384   80.2239  220.8290 H   0  0  0  0  0  0  0  0  0  0  0  0
  136.8652   81.9193  221.6061 H   0  0  0  0  0  0  0  0  0  0  0  0
  136.5452   82.3208  224.0317 H   0  0  0  0  0  0  0  0  0  0  0  0
  137.8625   81.0731  225.7295 H   0  0  0  0  0  0  0  0  0  0  0  0
  139.5247   79.3886  224.9486 H   0  0  0  0  0  0  0  0  0  0  0  0
  139.2597   77.7613  220.8726 H   0  0  0  0  0  0  0  0  0  0  0  0
  141.6133   76.8677  221.4309 H   0  0  0  0  0  0  0  0  0  0  0  0
  140.9359   76.1163  222.8880 H   0  0  0  0  0  0  0  0  0  0  0  0
  139.9561   75.6912  220.0093 H   0  0  0  0  0  0  0  0  0  0  0  0
  140.9438   74.5286  220.9941 H   0  0  0  0  0  0  0  0  0  0  0  0
  139.7865   72.3907  220.2793 H   0  0  0  0  0  0  0  0  0  0  0  0
  138.6510   70.6300  220.1790 H   0  0  0  0  0  0  0  0  0  0  0  0
  137.7760   70.9960  221.5700 H   0  0  0  0  0  0  0  0  0  0  0  0
  141.4324   71.4961  221.7334 H   0  0  0  0  0  0  0  0  0  0  0  0
  140.9269   73.0522  222.5635 H   0  0  0  0  0  0  0  0  0  0  0  0
  139.3494   69.6181  222.6457 H   0  0  0  0  0  0  0  0  0  0  0  0
  138.8817   68.5036  224.7746 H   0  0  0  0  0  0  0  0  0  0  0  0
  138.9973   68.4258  227.1399 H   0  0  0  0  0  0  0  0  0  0  0  0
  139.7103   69.4613  229.3054 H   0  0  0  0  0  0  0  0  0  0  0  0
  140.8945   71.6439  229.2469 H   0  0  0  0  0  0  0  0  0  0  0  0
  141.3803   72.7914  227.1203 H   0  0  0  0  0  0  0  0  0  0  0  0
  141.2465   72.8413  224.7146 H   0  0  0  0  0  0  0  0  0  0  0  0
  137.3901   76.0144  221.1276 H   0  0  0  0  0  0  0  0  0  0  0  0
  137.3530   75.1517  222.7532 H   0  0  0  0  0  0  0  0  0  0  0  0
  137.6656   77.6268  222.8007 H   0  0  0  0  0  0  0  0  0  0  0  0
  138.8593   76.6090  223.6849 H   0  0  0  0  0  0  0  0  0  0  0  0
  1  2  1  0
  2  3  1  0
  3  4  2  0
  3  5  1  0
  5  6  1  0
  6  7  2  0
  7  8  1  0
  8  9  2  0
  9 10  1  0
 10 11  2  0
  5 12  1  0
 12 13  1  0
 13 14  1  0
 14 15  1  0
 15 16  1  0
 16 17  2  0
 16 18  1  0
 18 19  1  0
 18 20  1  0
 20 21  1  0
 21 22  2  0
 22 23  1  0
 23 24  2  0
 24 25  1  0
 25 26  2  0
 26 27  1  0
 27 28  2  0
 28 29  1  0
 29 30  2  0
 15 31  1  0
 31 32  1  0
 11  6  1  0
 32 12  1  0
 30 21  1  0
 29 24  1  0
  1 33  1  0
  1 34  1  0
  1 35  1  0
  2 36  1  0
  2 37  1  0
  7 38  1  0
  8 39  1  0
  9 40  1  0
 10 41  1  0
 11 42  1  0
 12 43  1  0
 13 44  1  0
 13 45  1  0
 14 46  1  0
 14 47  1  0
 18 48  1  6
 19 49  1  0
 19 50  1  0
 20 51  1  0
 20 52  1  0
 22 53  1  0
 23 54  1  0
 25 55  1  0
 26 56  1  0
 27 57  1  0
 28 58  1  0
 30 59  1  0
 31 60  1  0
 31 61  1  0
 32 62  1  0
 32 63  1  0
M  END
>  <smiles>  (9) 
CCC(=O)N(c1ccccc1)C1CCN(C(=O)[C@H](N)Cc2ccc3ccccc3c2)CC1

>  <score_type>  (9) 
oracle

>  <origin>  (9) 
autodockgpu

>  <m_score__min__energy>  (9) 
-9.5700000000000003

>  <m_primary>  (9) 
energy

>  <rmsd>  (9) 
5.82176114532331

>  <m_score__min__rmsd>  (9) 
5.82176114532331

>  <meeko>  (9) 
{"free_energy": -8.17, "intermolecular_energy": -10.56, "internal_energy": -2.12, "cluster_size": 7, "cluster_id": 5, "rank_in_cluster": 7}

>  <energy>  (9) 
-9.06

>  <cluster_rmsd>  (9) 
0.7

>  <cluster>  (9) 
1

$$$$

     RDKit          3D

 63 66  0  0  0  0  0  0  0  0999 V2000
  137.3080   81.6470  224.1560 C   0  0  0  0  0  0  0  0  0  0  0  0
  138.2080   80.4520  224.2690 C   0  0  0  0  0  0  0  0  0  0  0  0
  138.0960   79.5540  223.0820 C   0  0  0  0  0  0  0  0  0  0  0  0
  136.9710   79.4930  222.5200 O   0  0  0  0  0  0  0  0  0  0  0  0
  139.2330   78.8200  222.6410 N   0  0  0  0  0  0  0  0  0  0  0  0
  140.5430   79.4220  222.7270 C   0  0  0  0  0  0  0  0  0  0  0  0
  141.0100   80.0770  221.6150 C   0  0  0  0  0  0  0  0  0  0  0  0
  142.2680   80.6540  221.6920 C   0  0  0  0  0  0  0  0  0  0  0  0
  143.0080   80.5580  222.8710 C   0  0  0  0  0  0  0  0  0  0  0  0
  142.5260   79.8940  223.9850 C   0  0  0  0  0  0  0  0  0  0  0  0
  141.2790   79.3230  223.9050 C   0  0  0  0  0  0  0  0  0  0  0  0
  139.1010   77.4930  222.1150 C   0  0  0  0  0  0  0  0  0  0  0  0
  140.3330   76.6480  222.3620 C   0  0  0  0  0  0  0  0  0  0  0  0
  140.1900   75.4180  221.4860 C   0  0  0  0  0  0  0  0  0  0  0  0
  139.0270   74.6550  221.8160 N   0  0  0  0  0  0  0  0  0  0  0  0
  138.9350   73.2570  221.9590 C   0  0  0  0  0  0  0  0  0  0  0  0
  137.7680   72.7920  222.2950 O   0  0  0  0  0  0  0  0  0  0  0  0
  139.9580   72.2230  221.7850 C   0  0  2  0  0  0  0  0  0  0  0  0
  140.6590   72.2110  220.5450 N   0  0  0  0  0  0  0  0  0  0  0  0
  139.3410   70.8590  222.0970 C   0  0  0  0  0  0  0  0  0  0  0  0
  139.5360   70.4070  223.4670 C   0  0  0  0  0  0  0  0  0  0  0  0
  139.1890   69.1750  223.9720 C   0  0  0  0  0  0  0  0  0  0  0  0
  139.3930   68.8070  225.2900 C   0  0  0  0  0  0  0  0  0  0  0  0
  139.9680   69.6770  226.1780 C   0  0  0  0  0  0  0  0  0  0  0  0
  140.1660   69.3010  227.4790 C   0  0  0  0  0  0  0  0  0  0  0  0
  140.7480   70.1840  228.3750 C   0  0  0  0  0  0  0  0  0  0  0  0
  141.1130   71.4370  227.9060 C   0  0  0  0  0  0  0  0  0  0  0  0
  140.9180   71.8230  226.5980 C   0  0  0  0  0  0  0  0  0  0  0  0
  140.3290   70.9190  225.7070 C   0  0  0  0  0  0  0  0  0  0  0  0
  140.1230   71.2890  224.3830 C   0  0  0  0  0  0  0  0  0  0  0  0
  137.7960   75.4180  222.0110 C   0  0  0  0  0  0  0  0  0  0  0  0
  137.9570   76.7070  222.7210 C   0  0  0  0  0  0  0  0  0  0  0  0
  137.0411   82.0015  225.1625 H   0  0  0  0  0  0  0  0  0  0  0  0
  137.8290   82.4482  223.6113 H   0  0  0  0  0  0  0  0  0  0  0  0
  136.3941   81.3675  223.6113 H   0  0  0  0  0  0  0  0  0  0  0  0
  139.2486   80.7979  224.3558 H   0  0  0  0  0  0  0  0  0  0  0  0
  137.9036   79.8800  225.1579 H   0  0  0  0  0  0  0  0  0  0  0  0
  140.4082   80.1417  220.6965 H   0  0  0  0  0  0  0  0  0  0  0  0
  142.6828   81.1874  220.8240 H   0  0  0  0  0  0  0  0  0  0  0  0
  144.0035   81.0238  222.9161 H   0  0  0  0  0  0  0  0  0  0  0  0
  143.1229   79.8254  224.9064 H   0  0  0  0  0  0  0  0  0  0  0  0
  140.8622   78.7879  224.7710 H   0  0  0  0  0  0  0  0  0  0  0  0
  138.9277   77.6674  221.0428 H   0  0  0  0  0  0  0  0  0  0  0  0
  141.2395   77.2074  222.0876 H   0  0  0  0  0  0  0  0  0  0  0  0
  140.4228   76.3739  223.4235 H   0  0  0  0  0  0  0  0  0  0  0  0
  140.1187   75.7369  220.4357 H   0  0  0  0  0  0  0  0  0  0  0  0
  141.0713   74.7806  221.6506 H   0  0  0  0  0  0  0  0  0  0  0  0
  140.7542   72.4770  222.5002 H   0  0  0  0  0  0  0  0  0  0  0  0
  140.4260   72.9990  219.9080 H   0  0  0  0  0  0  0  0  0  0  0  0
  140.5480   71.3230  220.0150 H   0  0  0  0  0  0  0  0  0  0  0  0
  138.2594   70.9194  221.9059 H   0  0  0  0  0  0  0  0  0  0  0  0
  139.8520   70.1296  221.4514 H   0  0  0  0  0  0  0  0  0  0  0  0
  138.7253   68.4447  223.2925 H   0  0  0  0  0  0  0  0  0  0  0  0
  139.0902   67.8051  225.6283 H   0  0  0  0  0  0  0  0  0  0  0  0
  139.8632   68.2978  227.8136 H   0  0  0  0  0  0  0  0  0  0  0  0
  140.9150   69.9000  229.4245 H   0  0  0  0  0  0  0  0  0  0  0  0
  141.5757   72.1495  228.6047 H   0  0  0  0  0  0  0  0  0  0  0  0
  141.2203   72.8251  226.2597 H   0  0  0  0  0  0  0  0  0  0  0  0
  140.4264   72.2922  224.0488 H   0  0  0  0  0  0  0  0  0  0  0  0
  137.3651   75.6269  221.0207 H   0  0  0  0  0  0  0  0  0  0  0  0
  137.1510   74.7970  222.6500 H   0  0  0  0  0  0  0  0  0  0  0  0
  137.0281   77.2896  222.6334 H   0  0  0  0  0  0  0  0  0  0  0  0
  138.1756   76.5104  223.7810 H   0  0  0  0  0  0  0  0  0  0  0  0
  1  2  1  0
  2  3  1  0
  3  4  2  0
  3  5  1  0
  5  6  1  0
  6  7  2  0
  7  8  1  0
  8  9  2  0
  9 10  1  0
 10 11  2  0
  5 12  1  0
 12 13  1  0
 13 14  1  0
 14 15  1  0
 15 16  1  0
 16 17  2  0
 16 18  1  0
 18 19  1  0
 18 20  1  0
 20 21  1  0
 21 22  2  0
 22 23  1  0
 23 24  2  0
 24 25  1  0
 25 26  2  0
 26 27  1  0
 27 28  2  0
 28 29  1  0
 29 30  2  0
 15 31  1  0
 31 32  1  0
 11  6  1  0
 32 12  1  0
 30 21  1  0
 29 24  1  0
  1 33  1  0
  1 34  1  0
  1 35  1  0
  2 36  1  0
  2 37  1  0
  7 38  1  0
  8 39  1  0
  9 40  1  0
 10 41  1  0
 11 42  1  0
 12 43  1  0
 13 44  1  0
 13 45  1  0
 14 46  1  0
 14 47  1  0
 18 48  1  1
 19 49  1  0
 19 50  1  0
 20 51  1  0
 20 52  1  0
 22 53  1  0
 23 54  1  0
 25 55  1  0
 26 56  1  0
 27 57  1  0
 28 58  1  0
 30 59  1  0
 31 60  1  0
 31 61  1  0
 32 62  1  0
 32 63  1  0
M  END
>  <smiles>  (10) 
CCC(=O)N(c1ccccc1)C1CCN(C(=O)[C@H](N)Cc2ccc3ccccc3c2)CC1

>  <score_type>  (10) 
oracle

>  <origin>  (10) 
autodockgpu

>  <m_score__min__energy>  (10) 
-9.5700000000000003

>  <m_primary>  (10) 
energy

>  <rmsd>  (10) 
6.220531906610842

>  <m_score__min__rmsd>  (10) 
6.220531906610842

>  <meeko>  (10) 
{"free_energy": -8.76, "intermolecular_energy": -11.14, "internal_energy": -1.58, "cluster_size": 6, "cluster_id": 4, "rank_in_cluster": 2}

>  <energy>  (10) 
-9.05

>  <cluster_rmsd>  (10) 
0.68

>  <cluster>  (10) 
1

$$$$

     RDKit          3D

 63 66  0  0  0  0  0  0  0  0999 V2000
  145.9190   74.0950  220.9920 C   0  0  0  0  0  0  0  0  0  0  0  0
  146.0120   72.6380  220.6470 C   0  0  0  0  0  0  0  0  0  0  0  0
  145.4240   72.3440  219.3060 C   0  0  0  0  0  0  0  0  0  0  0  0
  145.9480   72.9190  218.3170 O   0  0  0  0  0  0  0  0  0  0  0  0
  144.3230   71.4480  219.1980 N   0  0  0  0  0  0  0  0  0  0  0  0
  144.5540   70.0880  218.7700 C   0  0  0  0  0  0  0  0  0  0  0  0
  144.4990   69.8320  217.4230 C   0  0  0  0  0  0  0  0  0  0  0  0
  144.7180   68.5280  217.0080 C   0  0  0  0  0  0  0  0  0  0  0  0
  144.9840   67.5320  217.9490 C   0  0  0  0  0  0  0  0  0  0  0  0
  145.0360   67.8030  219.3050 C   0  0  0  0  0  0  0  0  0  0  0  0
  144.8190   69.0970  219.7130 C   0  0  0  0  0  0  0  0  0  0  0  0
  142.9900   71.8710  219.5090 C   0  0  0  0  0  0  0  0  0  0  0  0
  142.1540   70.7590  220.1070 C   0  0  0  0  0  0  0  0  0  0  0  0
  140.7150   71.2390  220.0740 C   0  0  0  0  0  0  0  0  0  0  0  0
  140.5290   72.4290  220.8450 N   0  0  0  0  0  0  0  0  0  0  0  0
  139.4840   72.7070  221.7460 C   0  0  0  0  0  0  0  0  0  0  0  0
  139.5440   73.8540  222.3570 O   0  0  0  0  0  0  0  0  0  0  0  0
  138.3180   71.9010  222.1140 C   0  0  2  0  0  0  0  0  0  0  0  0
  137.3950   72.4830  223.0300 N   0  0  0  0  0  0  0  0  0  0  0  0
  138.7940   70.5280  222.5890 C   0  0  0  0  0  0  0  0  0  0  0  0
  139.3880   70.5210  223.9180 C   0  0  0  0  0  0  0  0  0  0  0  0
  140.1110   71.5430  224.4890 C   0  0  0  0  0  0  0  0  0  0  0  0
  140.6590   71.4730  225.7580 C   0  0  0  0  0  0  0  0  0  0  0  0
  140.5010   70.3490  226.5260 C   0  0  0  0  0  0  0  0  0  0  0  0
  141.0470   70.2910  227.7800 C   0  0  0  0  0  0  0  0  0  0  0  0
  140.8850   69.1530  228.5550 C   0  0  0  0  0  0  0  0  0  0  0  0
  140.1620   68.1000  228.0160 C   0  0  0  0  0  0  0  0  0  0  0  0
  139.6090   68.1510  226.7560 C   0  0  0  0  0  0  0  0  0  0  0  0
  139.7820   69.3070  225.9870 C   0  0  0  0  0  0  0  0  0  0  0  0
  139.2320   69.3780  224.7120 C   0  0  0  0  0  0  0  0  0  0  0  0
  141.5320   73.4750  220.6580 C   0  0  0  0  0  0  0  0  0  0  0  0
  142.9250   72.9970  220.5190 C   0  0  0  0  0  0  0  0  0  0  0  0
  145.9115   74.2131  222.0856 H   0  0  0  0  0  0  0  0  0  0  0  0
  146.7850   74.6273  220.5717 H   0  0  0  0  0  0  0  0  0  0  0  0
  144.9924   74.5129  220.5717 H   0  0  0  0  0  0  0  0  0  0  0  0
  147.0709   72.3403  220.6439 H   0  0  0  0  0  0  0  0  0  0  0  0
  145.4430   72.0727  221.3998 H   0  0  0  0  0  0  0  0  0  0  0  0
  144.2887   70.6328  216.6988 H   0  0  0  0  0  0  0  0  0  0  0  0
  144.6822   68.2780  215.9374 H   0  0  0  0  0  0  0  0  0  0  0  0
  145.1572   66.5024  217.6028 H   0  0  0  0  0  0  0  0  0  0  0  0
  145.2448   67.0065  220.0343 H   0  0  0  0  0  0  0  0  0  0  0  0
  144.8544   69.3503  220.7828 H   0  0  0  0  0  0  0  0  0  0  0  0
  142.6028   72.2010  218.5337 H   0  0  0  0  0  0  0  0  0  0  0  0
  142.2621   69.8400  219.5123 H   0  0  0  0  0  0  0  0  0  0  0  0
  142.4737   70.5282  221.1339 H   0  0  0  0  0  0  0  0  0  0  0  0
  140.4330   71.4441  219.0308 H   0  0  0  0  0  0  0  0  0  0  0  0
  140.0838   70.4502  220.5093 H   0  0  0  0  0  0  0  0  0  0  0  0
  137.7172   71.8215  221.1960 H   0  0  0  0  0  0  0  0  0  0  0  0
  137.4440   73.5200  223.0940 H   0  0  0  0  0  0  0  0  0  0  0  0
  137.4660   72.0960  223.9930 H   0  0  0  0  0  0  0  0  0  0  0  0
  137.9293   69.8481  222.5957 H   0  0  0  0  0  0  0  0  0  0  0  0
  139.5842   70.2126  221.8917 H   0  0  0  0  0  0  0  0  0  0  0  0
  140.2613   72.4639  223.9064 H   0  0  0  0  0  0  0  0  0  0  0  0
  141.2269   72.3278  226.1540 H   0  0  0  0  0  0  0  0  0  0  0  0
  141.6144   71.1476  228.1728 H   0  0  0  0  0  0  0  0  0  0  0  0
  141.3161   69.0876  229.5649 H   0  0  0  0  0  0  0  0  0  0  0  0
  140.0250   67.1894  228.6176 H   0  0  0  0  0  0  0  0  0  0  0  0
  139.0403   67.2966  226.3603 H   0  0  0  0  0  0  0  0  0  0  0  0
  138.6643   68.5212  224.3200 H   0  0  0  0  0  0  0  0  0  0  0  0
  141.2727   74.0358  219.7479 H   0  0  0  0  0  0  0  0  0  0  0  0
  141.5095   74.0853  221.5729 H   0  0  0  0  0  0  0  0  0  0  0  0
  143.5624   73.8270  220.1802 H   0  0  0  0  0  0  0  0  0  0  0  0
  143.2780   72.6278  221.4932 H   0  0  0  0  0  0  0  0  0  0  0  0
  1  2  1  0
  2  3  1  0
  3  4  2  0
  3  5  1  0
  5  6  1  0
  6  7  2  0
  7  8  1  0
  8  9  2  0
  9 10  1  0
 10 11  2  0
  5 12  1  0
 12 13  1  0
 13 14  1  0
 14 15  1  0
 15 16  1  0
 16 17  2  0
 16 18  1  0
 18 19  1  0
 18 20  1  0
 20 21  1  0
 21 22  2  0
 22 23  1  0
 23 24  2  0
 24 25  1  0
 25 26  2  0
 26 27  1  0
 27 28  2  0
 28 29  1  0
 29 30  2  0
 15 31  1  0
 31 32  1  0
 11  6  1  0
 32 12  1  0
 30 21  1  0
 29 24  1  0
  1 33  1  0
  1 34  1  0
  1 35  1  0
  2 36  1  0
  2 37  1  0
  7 38  1  0
  8 39  1  0
  9 40  1  0
 10 41  1  0
 11 42  1  0
 12 43  1  0
 13 44  1  0
 13 45  1  0
 14 46  1  0
 14 47  1  0
 18 48  1  6
 19 49  1  0
 19 50  1  0
 20 51  1  0
 20 52  1  0
 22 53  1  0
 23 54  1  0
 25 55  1  0
 26 56  1  0
 27 57  1  0
 28 58  1  0
 30 59  1  0
 31 60  1  0
 31 61  1  0
 32 62  1  0
 32 63  1  0
M  END
>  <smiles>  (11) 
CCC(=O)N(c1ccccc1)C1CCN(C(=O)[C@H](N)Cc2ccc3ccccc3c2)CC1

>  <score_type>  (11) 
oracle

>  <origin>  (11) 
autodockgpu

>  <m_score__min__energy>  (11) 
-9.5700000000000003

>  <m_primary>  (11) 
energy

>  <rmsd>  (11) 
8.161420107468425

>  <m_score__min__rmsd>  (11) 
8.161420107468425

>  <meeko>  (11) 
{"free_energy": -9.33, "intermolecular_energy": -11.72, "internal_energy": -2.17, "cluster_size": 6, "cluster_id": 2, "rank_in_cluster": 1}

>  <energy>  (11) 
-9.03

>  <cluster_rmsd>  (11) 
0.62

>  <cluster>  (11) 
1

$$$$

     RDKit          3D

 63 66  0  0  0  0  0  0  0  0999 V2000
  142.6270   77.8510  217.8080 C   0  0  0  0  0  0  0  0  0  0  0  0
  142.1790   78.9970  218.6660 C   0  0  0  0  0  0  0  0  0  0  0  0
  140.9990   78.6360  219.5080 C   0  0  0  0  0  0  0  0  0  0  0  0
  139.8750   78.6380  218.9420 O   0  0  0  0  0  0  0  0  0  0  0  0
  141.1850   78.3120  220.8820 N   0  0  0  0  0  0  0  0  0  0  0  0
  141.5220   79.3580  221.8180 C   0  0  0  0  0  0  0  0  0  0  0  0
  141.1420   80.6370  221.5000 C   0  0  0  0  0  0  0  0  0  0  0  0
  141.4650   81.6450  222.3950 C   0  0  0  0  0  0  0  0  0  0  0  0
  142.1520   81.3380  223.5710 C   0  0  0  0  0  0  0  0  0  0  0  0
  142.5300   80.0440  223.8800 C   0  0  0  0  0  0  0  0  0  0  0  0
  142.2080   79.0480  222.9900 C   0  0  0  0  0  0  0  0  0  0  0  0
  141.0410   76.9660  221.3520 C   0  0  0  0  0  0  0  0  0  0  0  0
  139.6020   76.4960  221.3310 C   0  0  0  0  0  0  0  0  0  0  0  0
  139.5570   75.2160  222.1440 C   0  0  0  0  0  0  0  0  0  0  0  0
  140.3890   74.1960  221.5870 N   0  0  0  0  0  0  0  0  0  0  0  0
  140.0690   72.8370  221.4070 C   0  0  0  0  0  0  0  0  0  0  0  0
  140.9860   72.1020  220.8470 O   0  0  0  0  0  0  0  0  0  0  0  0
  138.8520   72.1020  221.7560 C   0  0  2  0  0  0  0  0  0  0  0  0
  137.9410   72.7450  222.6420 N   0  0  0  0  0  0  0  0  0  0  0  0
  139.2400   70.7100  222.2580 C   0  0  0  0  0  0  0  0  0  0  0  0
  139.6970   70.6730  223.6390 C   0  0  0  0  0  0  0  0  0  0  0  0
  140.3480   71.6850  224.3070 C   0  0  0  0  0  0  0  0  0  0  0  0
  140.7660   71.5840  225.6220 C   0  0  0  0  0  0  0  0  0  0  0  0
  140.5450   70.4390  226.3410 C   0  0  0  0  0  0  0  0  0  0  0  0
  140.9620   70.3510  227.6410 C   0  0  0  0  0  0  0  0  0  0  0  0
  140.7360   69.1910  228.3660 C   0  0  0  0  0  0  0  0  0  0  0  0
  140.0830   68.1470  227.7300 C   0  0  0  0  0  0  0  0  0  0  0  0
  139.6590   68.2270  226.4210 C   0  0  0  0  0  0  0  0  0  0  0  0
  139.8950   69.4060  225.7040 C   0  0  0  0  0  0  0  0  0  0  0  0
  139.4750   69.5070  224.3830 C   0  0  0  0  0  0  0  0  0  0  0  0
  141.7270   74.6170  221.1730 C   0  0  0  0  0  0  0  0  0  0  0  0
  141.7990   75.9460  220.5280 C   0  0  0  0  0  0  0  0  0  0  0  0
  142.9525   77.0184  218.4490 H   0  0  0  0  0  0  0  0  0  0  0  0
  141.7920   77.5201  217.1729 H   0  0  0  0  0  0  0  0  0  0  0  0
  143.4650   78.1741  217.1729 H   0  0  0  0  0  0  0  0  0  0  0  0
  143.0085   79.2931  219.3249 H   0  0  0  0  0  0  0  0  0  0  0  0
  141.8839   79.8236  218.0030 H   0  0  0  0  0  0  0  0  0  0  0  0
  140.6002   80.8551  220.5679 H   0  0  0  0  0  0  0  0  0  0  0  0
  141.1804   82.6854  222.1790 H   0  0  0  0  0  0  0  0  0  0  0  0
  142.3998   82.1487  224.2720 H   0  0  0  0  0  0  0  0  0  0  0  0
  143.0721   79.8190  224.8103 H   0  0  0  0  0  0  0  0  0  0  0  0
  142.4917   78.0067  223.2028 H   0  0  0  0  0  0  0  0  0  0  0  0
  141.4443   77.0174  222.3741 H   0  0  0  0  0  0  0  0  0  0  0  0
  138.9470   77.2561  221.7818 H   0  0  0  0  0  0  0  0  0  0  0  0
  139.2530   76.3268  220.3016 H   0  0  0  0  0  0  0  0  0  0  0  0
  139.8986   75.4332  223.1668 H   0  0  0  0  0  0  0  0  0  0  0  0
  138.5204   74.8479  222.1393 H   0  0  0  0  0  0  0  0  0  0  0  0
  138.2694   72.0449  220.8247 H   0  0  0  0  0  0  0  0  0  0  0  0
  138.0760   73.7720  222.7310 H   0  0  0  0  0  0  0  0  0  0  0  0
  137.9340   72.3360  223.5990 H   0  0  0  0  0  0  0  0  0  0  0  0
  138.3606   70.0552  222.1693 H   0  0  0  0  0  0  0  0  0  0  0  0
  140.0868   70.3786  221.6390 H   0  0  0  0  0  0  0  0  0  0  0  0
  140.5463   72.6228  223.7674 H   0  0  0  0  0  0  0  0  0  0  0  0
  141.2816   72.4325  226.0955 H   0  0  0  0  0  0  0  0  0  0  0  0
  141.4771   71.2014  228.1115 H   0  0  0  0  0  0  0  0  0  0  0  0
  141.0643   69.1022  229.4121 H   0  0  0  0  0  0  0  0  0  0  0  0
  139.8961   67.2195  228.2911 H   0  0  0  0  0  0  0  0  0  0  0  0
  139.1436   67.3784  225.9475 H   0  0  0  0  0  0  0  0  0  0  0  0
  138.9592   68.6564  223.9134 H   0  0  0  0  0  0  0  0  0  0  0  0
  142.3687   74.6373  222.0662 H   0  0  0  0  0  0  0  0  0  0  0  0
  142.0532   73.8915  220.4132 H   0  0  0  0  0  0  0  0  0  0  0  0
  142.8518   76.2542  220.4462 H   0  0  0  0  0  0  0  0  0  0  0  0
  141.3480   75.8851  219.5266 H   0  0  0  0  0  0  0  0  0  0  0  0
  1  2  1  0
  2  3  1  0
  3  4  2  0
  3  5  1  0
  5  6  1  0
  6  7  2  0
  7  8  1  0
  8  9  2  0
  9 10  1  0
 10 11  2  0
  5 12  1  0
 12 13  1  0
 13 14  1  0
 14 15  1  0
 15 16  1  0
 16 17  2  0
 16 18  1  0
 18 19  1  0
 18 20  1  0
 20 21  1  0
 21 22  2  0
 22 23  1  0
 23 24  2  0
 24 25  1  0
 25 26  2  0
 26 27  1  0
 27 28  2  0
 28 29  1  0
 29 30  2  0
 15 31  1  0
 31 32  1  0
 11  6  1  0
 32 12  1  0
 30 21  1  0
 29 24  1  0
  1 33  1  0
  1 34  1  0
  1 35  1  0
  2 36  1  0
  2 37  1  0
  7 38  1  0
  8 39  1  0
  9 40  1  0
 10 41  1  0
 11 42  1  0
 12 43  1  0
 13 44  1  0
 13 45  1  0
 14 46  1  0
 14 47  1  0
 18 48  1  6
 19 49  1  0
 19 50  1  0
 20 51  1  0
 20 52  1  0
 22 53  1  0
 23 54  1  0
 25 55  1  0
 26 56  1  0
 27 57  1  0
 28 58  1  0
 30 59  1  0
 31 60  1  0
 31 61  1  0
 32 62  1  0
 32 63  1  0
M  END
>  <smiles>  (12) 
CCC(=O)N(c1ccccc1)C1CCN(C(=O)[C@H](N)Cc2ccc3ccccc3c2)CC1

>  <score_type>  (12) 
oracle

>  <origin>  (12) 
autodockgpu

>  <m_score__min__energy>  (12) 
-9.5700000000000003

>  <m_primary>  (12) 
energy

>  <rmsd>  (12) 
6.2944878389891885

>  <m_score__min__rmsd>  (12) 
6.2944878389891885

>  <meeko>  (12) 
{"free_energy": -9.57, "intermolecular_energy": -11.95, "internal_energy": -1.55, "cluster_size": 20, "cluster_id": 1, "rank_in_cluster": 1}

>  <energy>  (12) 
-9.02

>  <cluster_rmsd>  (12) 
0.77

>  <cluster>  (12) 
1

$$$$

     RDKit          3D

 63 66  0  0  0  0  0  0  0  0999 V2000
  142.5090   81.2550  223.8940 C   0  0  0  0  0  0  0  0  0  0  0  0
  142.4920   79.8070  223.5010 C   0  0  0  0  0  0  0  0  0  0  0  0
  141.2490   79.4440  222.7590 C   0  0  0  0  0  0  0  0  0  0  0  0
  140.1580   79.5890  223.3710 O   0  0  0  0  0  0  0  0  0  0  0  0
  141.3390   78.9600  221.4230 N   0  0  0  0  0  0  0  0  0  0  0  0
  141.5890   79.8900  220.3470 C   0  0  0  0  0  0  0  0  0  0  0  0
  141.2030   81.1930  220.5360 C   0  0  0  0  0  0  0  0  0  0  0  0
  141.4400   82.0880  219.5050 C   0  0  0  0  0  0  0  0  0  0  0  0
  142.0520   81.6520  218.3290 C   0  0  0  0  0  0  0  0  0  0  0  0
  142.4360   80.3350  218.1510 C   0  0  0  0  0  0  0  0  0  0  0  0
  142.2000   79.4500  219.1750 C   0  0  0  0  0  0  0  0  0  0  0  0
  141.1870   77.5660  221.1280 C   0  0  0  0  0  0  0  0  0  0  0  0
  140.6460   76.7810  222.3040 C   0  0  0  0  0  0  0  0  0  0  0  0
  140.8490   75.3140  221.9690 C   0  0  0  0  0  0  0  0  0  0  0  0
  140.1420   74.9310  220.7870 N   0  0  0  0  0  0  0  0  0  0  0  0
  139.3670   73.7710  220.5950 C   0  0  0  0  0  0  0  0  0  0  0  0
  138.7910   73.6540  219.4340 O   0  0  0  0  0  0  0  0  0  0  0  0
  139.1000   72.6550  221.5040 C   0  0  2  0  0  0  0  0  0  0  0  0
  137.9510   72.7630  222.3390 N   0  0  0  0  0  0  0  0  0  0  0  0
  140.3620   72.3660  222.3180 C   0  0  0  0  0  0  0  0  0  0  0  0
  140.1570   71.4870  223.4600 C   0  0  0  0  0  0  0  0  0  0  0  0
  139.4950   70.2810  223.4470 C   0  0  0  0  0  0  0  0  0  0  0  0
  139.3250   69.4930  224.5720 C   0  0  0  0  0  0  0  0  0  0  0  0
  139.8220   69.8900  225.7860 C   0  0  0  0  0  0  0  0  0  0  0  0
  139.6480   69.1020  226.8910 C   0  0  0  0  0  0  0  0  0  0  0  0
  140.1530   69.5060  228.1170 C   0  0  0  0  0  0  0  0  0  0  0  0
  140.8270   70.7160  228.1730 C   0  0  0  0  0  0  0  0  0  0  0  0
  141.0070   71.5150  227.0650 C   0  0  0  0  0  0  0  0  0  0  0  0
  140.4910   71.0920  225.8350 C   0  0  0  0  0  0  0  0  0  0  0  0
  140.6610   71.8830  224.7050 C   0  0  0  0  0  0  0  0  0  0  0  0
  140.2540   75.8430  219.6510 C   0  0  0  0  0  0  0  0  0  0  0  0
  140.2270   77.2830  219.9920 C   0  0  0  0  0  0  0  0  0  0  0  0
  142.5100   81.3372  224.9909 H   0  0  0  0  0  0  0  0  0  0  0  0
  143.4128   81.7341  223.4896 H   0  0  0  0  0  0  0  0  0  0  0  0
  141.6167   81.7552  223.4896 H   0  0  0  0  0  0  0  0  0  0  0  0
  143.3614   79.6030  222.8588 H   0  0  0  0  0  0  0  0  0  0  0  0
  142.5270   79.2047  224.4208 H   0  0  0  0  0  0  0  0  0  0  0  0
  140.7229   81.5154  221.4717 H   0  0  0  0  0  0  0  0  0  0  0  0
  141.1457   83.1423  219.6135 H   0  0  0  0  0  0  0  0  0  0  0  0
  142.2341   82.3758  217.5210 H   0  0  0  0  0  0  0  0  0  0  0  0
  142.9160   80.0062  217.2175 H   0  0  0  0  0  0  0  0  0  0  0  0
  142.4932   78.3951  219.0695 H   0  0  0  0  0  0  0  0  0  0  0  0
  142.2083   77.2576  220.8600 H   0  0  0  0  0  0  0  0  0  0  0  0
  141.1954   77.0416  223.2206 H   0  0  0  0  0  0  0  0  0  0  0  0
  139.5839   77.0069  222.4800 H   0  0  0  0  0  0  0  0  0  0  0  0
  141.9226   75.1302  221.8157 H   0  0  0  0  0  0  0  0  0  0  0  0
  140.4583   74.7174  222.8065 H   0  0  0  0  0  0  0  0  0  0  0  0
  138.8375   71.8071  220.8542 H   0  0  0  0  0  0  0  0  0  0  0  0
  137.0640   72.9580  221.8310 H   0  0  0  0  0  0  0  0  0  0  0  0
  138.0520   73.4700  223.0950 H   0  0  0  0  0  0  0  0  0  0  0  0
  141.1004   71.8964  221.6515 H   0  0  0  0  0  0  0  0  0  0  0  0
  140.6999   73.3311  222.7234 H   0  0  0  0  0  0  0  0  0  0  0  0
  139.0793   69.9246  222.4930 H   0  0  0  0  0  0  0  0  0  0  0  0
  138.7853   68.5379  224.4909 H   0  0  0  0  0  0  0  0  0  0  0  0
  139.1073   68.1478  226.8064 H   0  0  0  0  0  0  0  0  0  0  0  0
  140.0231   68.8864  229.0165 H   0  0  0  0  0  0  0  0  0  0  0  0
  141.2336   71.0510  229.1386 H   0  0  0  0  0  0  0  0  0  0  0  0
  141.5474   72.4697  227.1460 H   0  0  0  0  0  0  0  0  0  0  0  0
  141.2012   72.8374  224.7902 H   0  0  0  0  0  0  0  0  0  0  0  0
  141.2044   75.6327  219.1386 H   0  0  0  0  0  0  0  0  0  0  0  0
  139.3672   75.6613  219.0260 H   0  0  0  0  0  0  0  0  0  0  0  0
  140.5224   77.8713  219.1107 H   0  0  0  0  0  0  0  0  0  0  0  0
  139.2090   77.5607  220.3029 H   0  0  0  0  0  0  0  0  0  0  0  0
  1  2  1  0
  2  3  1  0
  3  4  2  0
  3  5  1  0
  5  6  1  0
  6  7  2  0
  7  8  1  0
  8  9  2  0
  9 10  1  0
 10 11  2  0
  5 12  1  0
 12 13  1  0
 13 14  1  0
 14 15  1  0
 15 16  1  0
 16 17  2  0
 16 18  1  0
 18 19  1  0
 18 20  1  0
 20 21  1  0
 21 22  2  0
 22 23  1  0
 23 24  2  0
 24 25  1  0
 25 26  2  0
 26 27  1  0
 27 28  2  0
 28 29  1  0
 29 30  2  0
 15 31  1  0
 31 32  1  0
 11  6  1  0
 32 12  1  0
 30 21  1  0
 29 24  1  0
  1 33  1  0
  1 34  1  0
  1 35  1  0
  2 36  1  0
  2 37  1  0
  7 38  1  0
  8 39  1  0
  9 40  1  0
 10 41  1  0
 11 42  1  0
 12 43  1  0
 13 44  1  0
 13 45  1  0
 14 46  1  0
 14 47  1  0
 18 48  1  6
 19 49  1  0
 19 50  1  0
 20 51  1  0
 20 52  1  0
 22 53  1  0
 23 54  1  0
 25 55  1  0
 26 56  1  0
 27 57  1  0
 28 58  1  0
 30 59  1  0
 31 60  1  0
 31 61  1  0
 32 62  1  0
 32 63  1  0
M  END
>  <smiles>  (13) 
CCC(=O)N(c1ccccc1)C1CCN(C(=O)[C@H](N)Cc2ccc3ccccc3c2)CC1

>  <score_type>  (13) 
oracle

>  <origin>  (13) 
autodockgpu

>  <m_score__min__energy>  (13) 
-9.5700000000000003

>  <m_primary>  (13) 
energy

>  <rmsd>  (13) 
5.693298242850426

>  <m_score__min__rmsd>  (13) 
5.693298242850426

>  <meeko>  (13) 
{"free_energy": -8.6, "intermolecular_energy": -10.99, "internal_energy": -1.41, "cluster_size": 2, "cluster_id": 7, "rank_in_cluster": 1}

>  <energy>  (13) 
-8.99

>  <cluster_rmsd>  (13) 
0.8

>  <cluster>  (13) 
1

$$$$

     RDKit          3D

 63 66  0  0  0  0  0  0  0  0999 V2000
  145.2210   65.9310  218.9690 C   0  0  0  0  0  0  0  0  0  0  0  0
  144.2510   67.0420  218.6940 C   0  0  0  0  0  0  0  0  0  0  0  0
  144.6760   68.3240  219.3290 C   0  0  0  0  0  0  0  0  0  0  0  0
  145.2850   68.2410  220.4270 O   0  0  0  0  0  0  0  0  0  0  0  0
  144.3850   69.5610  218.6860 N   0  0  0  0  0  0  0  0  0  0  0  0
  145.2310   70.0180  217.6090 C   0  0  0  0  0  0  0  0  0  0  0  0
  145.8690   69.0620  216.8590 C   0  0  0  0  0  0  0  0  0  0  0  0
  146.6830   69.4960  215.8250 C   0  0  0  0  0  0  0  0  0  0  0  0
  146.8290   70.8620  215.5790 C   0  0  0  0  0  0  0  0  0  0  0  0
  146.1810   71.8160  216.3430 C   0  0  0  0  0  0  0  0  0  0  0  0
  145.3740   71.3820  217.3670 C   0  0  0  0  0  0  0  0  0  0  0  0
  143.2650   70.3600  219.0890 C   0  0  0  0  0  0  0  0  0  0  0  0
  142.1450   69.5310  219.6810 C   0  0  0  0  0  0  0  0  0  0  0  0
  140.9310   70.4380  219.7500 C   0  0  0  0  0  0  0  0  0  0  0  0
  141.1580   71.5770  220.5840 N   0  0  0  0  0  0  0  0  0  0  0  0
  140.2890   72.1120  221.5530 C   0  0  0  0  0  0  0  0  0  0  0  0
  140.7320   73.1440  222.2110 O   0  0  0  0  0  0  0  0  0  0  0  0
  138.9440   71.6910  221.9470 C   0  0  2  0  0  0  0  0  0  0  0  0
  138.1660   72.6270  222.6880 N   0  0  0  0  0  0  0  0  0  0  0  0
  139.0370   70.3440  222.6640 C   0  0  0  0  0  0  0  0  0  0  0  0
  139.5990   70.4100  224.0050 C   0  0  0  0  0  0  0  0  0  0  0  0
  140.1730   71.5160  224.5910 C   0  0  0  0  0  0  0  0  0  0  0  0
  140.6990   71.5130  225.8700 C   0  0  0  0  0  0  0  0  0  0  0  0
  140.6720   70.3770  226.6360 C   0  0  0  0  0  0  0  0  0  0  0  0
  141.1950   70.3870  227.9000 C   0  0  0  0  0  0  0  0  0  0  0  0
  141.1650   69.2360  228.6720 C   0  0  0  0  0  0  0  0  0  0  0  0
  140.5950   68.0990  228.1200 C   0  0  0  0  0  0  0  0  0  0  0  0
  140.0650   68.0810  226.8480 C   0  0  0  0  0  0  0  0  0  0  0  0
  140.1040   69.2520  226.0820 C   0  0  0  0  0  0  0  0  0  0  0  0
  139.5760   69.2550  224.7960 C   0  0  0  0  0  0  0  0  0  0  0  0
  142.4320   72.2670  220.3900 C   0  0  0  0  0  0  0  0  0  0  0  0
  143.5980   71.3860  220.1520 C   0  0  0  0  0  0  0  0  0  0  0  0
  145.3330   65.8027  220.0557 H   0  0  0  0  0  0  0  0  0  0  0  0
  144.8440   64.9972  218.5264 H   0  0  0  0  0  0  0  0  0  0  0  0
  146.1971   66.1786  218.5264 H   0  0  0  0  0  0  0  0  0  0  0  0
  144.1800   67.1906  217.6064 H   0  0  0  0  0  0  0  0  0  0  0  0
  143.2779   66.7573  219.1206 H   0  0  0  0  0  0  0  0  0  0  0  0
  145.7390   67.9905  217.0709 H   0  0  0  0  0  0  0  0  0  0  0  0
  147.2139   68.7642  215.1984 H   0  0  0  0  0  0  0  0  0  0  0  0
  147.4782   71.1896  214.7536 H   0  0  0  0  0  0  0  0  0  0  0  0
  146.3079   72.8891  216.1371 H   0  0  0  0  0  0  0  0  0  0  0  0
  144.8414   72.1113  217.9950 H   0  0  0  0  0  0  0  0  0  0  0  0
  142.9636   70.8529  218.1529 H   0  0  0  0  0  0  0  0  0  0  0  0
  141.9349   68.6623  219.0398 H   0  0  0  0  0  0  0  0  0  0  0  0
  142.4148   69.1495  220.6768 H   0  0  0  0  0  0  0  0  0  0  0  0
  140.6888   70.7845  218.7345 H   0  0  0  0  0  0  0  0  0  0  0  0
  140.1008   69.8608  220.1831 H   0  0  0  0  0  0  0  0  0  0  0  0
  138.3777   71.6082  221.0076 H   0  0  0  0  0  0  0  0  0  0  0  0
  138.6060   73.5620  222.8000 H   0  0  0  0  0  0  0  0  0  0  0  0
  137.8900   72.2840  223.6300 H   0  0  0  0  0  0  0  0  0  0  0  0
  138.0233   69.9232  222.7369 H   0  0  0  0  0  0  0  0  0  0  0  0
  139.7207   69.7203  222.0693 H   0  0  0  0  0  0  0  0  0  0  0  0
  140.2153   72.4502  224.0118 H   0  0  0  0  0  0  0  0  0  0  0  0
  141.1441   72.4329  226.2771 H   0  0  0  0  0  0  0  0  0  0  0  0
  141.6395   71.3086  228.3039 H   0  0  0  0  0  0  0  0  0  0  0  0
  141.5803   69.2251  229.6905 H   0  0  0  0  0  0  0  0  0  0  0  0
  140.5647   67.1772  228.7195 H   0  0  0  0  0  0  0  0  0  0  0  0
  139.6186   67.1616  226.4413 H   0  0  0  0  0  0  0  0  0  0  0  0
  139.1320   68.3330  224.3925 H   0  0  0  0  0  0  0  0  0  0  0  0
  142.3281   72.9352  219.5224 H   0  0  0  0  0  0  0  0  0  0  0  0
  142.6379   72.7969  221.3317 H   0  0  0  0  0  0  0  0  0  0  0  0
  144.4512   71.9939  219.8166 H   0  0  0  0  0  0  0  0  0  0  0  0
  143.8541   70.8663  221.0871 H   0  0  0  0  0  0  0  0  0  0  0  0
  1  2  1  0
  2  3  1  0
  3  4  2  0
  3  5  1  0
  5  6  1  0
  6  7  2  0
  7  8  1  0
  8  9  2  0
  9 10  1  0
 10 11  2  0
  5 12  1  0
 12 13  1  0
 13 14  1  0
 14 15  1  0
 15 16  1  0
 16 17  2  0
 16 18  1  0
 18 19  1  0
 18 20  1  0
 20 21  1  0
 21 22  2  0
 22 23  1  0
 23 24  2  0
 24 25  1  0
 25 26  2  0
 26 27  1  0
 27 28  2  0
 28 29  1  0
 29 30  2  0
 15 31  1  0
 31 32  1  0
 11  6  1  0
 32 12  1  0
 30 21  1  0
 29 24  1  0
  1 33  1  0
  1 34  1  0
  1 35  1  0
  2 36  1  0
  2 37  1  0
  7 38  1  0
  8 39  1  0
  9 40  1  0
 10 41  1  0
 11 42  1  0
 12 43  1  0
 13 44  1  0
 13 45  1  0
 14 46  1  0
 14 47  1  0
 18 48  1  6
 19 49  1  0
 19 50  1  0
 20 51  1  0
 20 52  1  0
 22 53  1  0
 23 54  1  0
 25 55  1  0
 26 56  1  0
 27 57  1  0
 28 58  1  0
 30 59  1  0
 31 60  1  0
 31 61  1  0
 32 62  1  0
 32 63  1  0
M  END
>  <smiles>  (14) 
CCC(=O)N(c1ccccc1)C1CCN(C(=O)[C@H](N)Cc2ccc3ccccc3c2)CC1

>  <score_type>  (14) 
oracle

>  <origin>  (14) 
autodockgpu

>  <m_score__min__energy>  (14) 
-9.5700000000000003

>  <m_primary>  (14) 
energy

>  <rmsd>  (14) 
8.824133957683342

>  <m_score__min__rmsd>  (14) 
8.824133957683342

>  <meeko>  (14) 
{"free_energy": -8.45, "intermolecular_energy": -10.83, "internal_energy": -2.11, "cluster_size": 1, "cluster_id": 8, "rank_in_cluster": 1}

>  <energy>  (14) 
-8.92

>  <cluster_rmsd>  (14) 
1.88

>  <cluster>  (14) 
1

$$$$

     RDKit          3D

 63 66  0  0  0  0  0  0  0  0999 V2000
  146.7360   73.8000  221.1590 C   0  0  0  0  0  0  0  0  0  0  0  0
  145.7900   72.6480  220.9900 C   0  0  0  0  0  0  0  0  0  0  0  0
  145.4550   72.4070  219.5550 C   0  0  0  0  0  0  0  0  0  0  0  0
  146.1640   72.9980  218.6980 O   0  0  0  0  0  0  0  0  0  0  0  0
  144.3780   71.5400  219.2170 N   0  0  0  0  0  0  0  0  0  0  0  0
  144.6550   70.2850  218.5590 C   0  0  0  0  0  0  0  0  0  0  0  0
  145.3950   69.3600  219.2510 C   0  0  0  0  0  0  0  0  0  0  0  0
  145.6650   68.1540  218.6230 C   0  0  0  0  0  0  0  0  0  0  0  0
  145.1870   67.9180  217.3340 C   0  0  0  0  0  0  0  0  0  0  0  0
  144.4420   68.8590  216.6460 C   0  0  0  0  0  0  0  0  0  0  0  0
  144.1770   70.0530  217.2720 C   0  0  0  0  0  0  0  0  0  0  0  0
  143.0210   71.8920  219.5190 C   0  0  0  0  0  0  0  0  0  0  0  0
  142.2440   70.7380  220.1180 C   0  0  0  0  0  0  0  0  0  0  0  0
  140.7820   71.1400  220.0770 C   0  0  0  0  0  0  0  0  0  0  0  0
  140.5270   72.3200  220.8410 N   0  0  0  0  0  0  0  0  0  0  0  0
  139.4640   72.5440  221.7360 C   0  0  0  0  0  0  0  0  0  0  0  0
  139.4590   73.6960  222.3430 O   0  0  0  0  0  0  0  0  0  0  0  0
  138.3420   71.6780  222.1020 C   0  0  2  0  0  0  0  0  0  0  0  0
  137.3730   72.2190  222.9960 N   0  0  0  0  0  0  0  0  0  0  0  0
  138.8900   70.3430  222.6070 C   0  0  0  0  0  0  0  0  0  0  0  0
  139.4700   70.3940  223.9410 C   0  0  0  0  0  0  0  0  0  0  0  0
  140.1800   71.4430  224.4790 C   0  0  0  0  0  0  0  0  0  0  0  0
  140.7140   71.4280  225.7550 C   0  0  0  0  0  0  0  0  0  0  0  0
  140.5570   70.3350  226.5660 C   0  0  0  0  0  0  0  0  0  0  0  0
  141.0890   70.3310  227.8260 C   0  0  0  0  0  0  0  0  0  0  0  0
  140.9270   69.2240  228.6450 C   0  0  0  0  0  0  0  0  0  0  0  0
  140.2180   68.1440  228.1410 C   0  0  0  0  0  0  0  0  0  0  0  0
  139.6780   68.1400  226.8740 C   0  0  0  0  0  0  0  0  0  0  0  0
  139.8510   69.2670  226.0610 C   0  0  0  0  0  0  0  0  0  0  0  0
  139.3140   69.2820  224.7790 C   0  0  0  0  0  0  0  0  0  0  0  0
  141.4730   73.4190  220.6550 C   0  0  0  0  0  0  0  0  0  0  0  0
  142.8910   73.0170  220.5240 C   0  0  0  0  0  0  0  0  0  0  0  0
  146.8931   73.9913  222.2308 H   0  0  0  0  0  0  0  0  0  0  0  0
  147.6984   73.5567  220.6851 H   0  0  0  0  0  0  0  0  0  0  0  0
  146.3102   74.6967  220.6851 H   0  0  0  0  0  0  0  0  0  0  0  0
  146.2565   71.7415  221.4032 H   0  0  0  0  0  0  0  0  0  0  0  0
  144.8580   72.8922  221.5207 H   0  0  0  0  0  0  0  0  0  0  0  0
  145.7609   69.5678  220.2674 H   0  0  0  0  0  0  0  0  0  0  0  0
  146.2556   67.3839  219.1407 H   0  0  0  0  0  0  0  0  0  0  0  0
  145.4090   66.9553  216.8503 H   0  0  0  0  0  0  0  0  0  0  0  0
  144.0733   68.6576  215.6294 H   0  0  0  0  0  0  0  0  0  0  0  0
  143.5874   70.8254  216.7566 H   0  0  0  0  0  0  0  0  0  0  0  0
  142.6205   72.1967  218.5408 H   0  0  0  0  0  0  0  0  0  0  0  0
  142.4041   69.8240  219.5272 H   0  0  0  0  0  0  0  0  0  0  0  0
  142.5714   70.5278  221.1469 H   0  0  0  0  0  0  0  0  0  0  0  0
  140.4944   71.3254  219.0316 H   0  0  0  0  0  0  0  0  0  0  0  0
  140.1931   70.3200  220.5138 H   0  0  0  0  0  0  0  0  0  0  0  0
  137.7604   71.5499  221.1772 H   0  0  0  0  0  0  0  0  0  0  0  0
  136.4310   72.3600  222.5790 H   0  0  0  0  0  0  0  0  0  0  0  0
  137.6690   73.1140  223.4360 H   0  0  0  0  0  0  0  0  0  0  0  0
  138.0651   69.6154  222.6187 H   0  0  0  0  0  0  0  0  0  0  0  0
  139.7036   70.0602  221.9229 H   0  0  0  0  0  0  0  0  0  0  0  0
  140.3308   72.3409  223.8617 H   0  0  0  0  0  0  0  0  0  0  0  0
  141.2705   72.3028  226.1224 H   0  0  0  0  0  0  0  0  0  0  0  0
  141.6460   71.2069  228.1900 H   0  0  0  0  0  0  0  0  0  0  0  0
  141.3472   69.2031  229.6614 H   0  0  0  0  0  0  0  0  0  0  0  0
  140.0818   67.2570  228.7772 H   0  0  0  0  0  0  0  0  0  0  0  0
  139.1201   67.2660  226.5068 H   0  0  0  0  0  0  0  0  0  0  0  0
  138.7569   68.4057  224.4161 H   0  0  0  0  0  0  0  0  0  0  0  0
  141.1879   73.9620  219.7418 H   0  0  0  0  0  0  0  0  0  0  0  0
  141.4130   74.0300  221.5678 H   0  0  0  0  0  0  0  0  0  0  0  0
  143.4839   73.8790  220.1842 H   0  0  0  0  0  0  0  0  0  0  0  0
  143.2596   72.6718  221.5012 H   0  0  0  0  0  0  0  0  0  0  0  0
  1  2  1  0
  2  3  1  0
  3  4  2  0
  3  5  1  0
  5  6  1  0
  6  7  2  0
  7  8  1  0
  8  9  2  0
  9 10  1  0
 10 11  2  0
  5 12  1  0
 12 13  1  0
 13 14  1  0
 14 15  1  0
 15 16  1  0
 16 17  2  0
 16 18  1  0
 18 19  1  0
 18 20  1  0
 20 21  1  0
 21 22  2  0
 22 23  1  0
 23 24  2  0
 24 25  1  0
 25 26  2  0
 26 27  1  0
 27 28  2  0
 28 29  1  0
 29 30  2  0
 15 31  1  0
 31 32  1  0
 11  6  1  0
 32 12  1  0
 30 21  1  0
 29 24  1  0
  1 33  1  0
  1 34  1  0
  1 35  1  0
  2 36  1  0
  2 37  1  0
  7 38  1  0
  8 39  1  0
  9 40  1  0
 10 41  1  0
 11 42  1  0
 12 43  1  0
 13 44  1  0
 13 45  1  0
 14 46  1  0
 14 47  1  0
 18 48  1  6
 19 49  1  0
 19 50  1  0
 20 51  1  0
 20 52  1  0
 22 53  1  0
 23 54  1  0
 25 55  1  0
 26 56  1  0
 27 57  1  0
 28 58  1  0
 30 59  1  0
 31 60  1  0
 31 61  1  0
 32 62  1  0
 32 63  1  0
M  END
>  <smiles>  (15) 
CCC(=O)N(c1ccccc1)C1CCN(C(=O)[C@H](N)Cc2ccc3ccccc3c2)CC1

>  <score_type>  (15) 
oracle

>  <origin>  (15) 
autodockgpu

>  <m_score__min__energy>  (15) 
-9.5700000000000003

>  <m_primary>  (15) 
energy

>  <rmsd>  (15) 
8.237108446818933

>  <m_score__min__rmsd>  (15) 
8.237108446818933

>  <meeko>  (15) 
{"free_energy": -8.69, "intermolecular_energy": -11.08, "internal_energy": -2.17, "cluster_size": 6, "cluster_id": 2, "rank_in_cluster": 4}

>  <energy>  (15) 
-8.88

>  <cluster_rmsd>  (15) 
0.94

>  <cluster>  (15) 
1

$$$$

     RDKit          3D

 63 66  0  0  0  0  0  0  0  0999 V2000
  145.6640   74.1200  220.7980 C   0  0  0  0  0  0  0  0  0  0  0  0
  146.0270   72.6650  220.7350 C   0  0  0  0  0  0  0  0  0  0  0  0
  145.5560   72.0270  219.4710 C   0  0  0  0  0  0  0  0  0  0  0  0
  145.8550   72.6070  218.3950 O   0  0  0  0  0  0  0  0  0  0  0  0
  144.8070   70.8170  219.5260 N   0  0  0  0  0  0  0  0  0  0  0  0
  145.3410   69.6230  218.9150 C   0  0  0  0  0  0  0  0  0  0  0  0
  145.7620   69.7150  217.6120 C   0  0  0  0  0  0  0  0  0  0  0  0
  146.2740   68.5700  217.0210 C   0  0  0  0  0  0  0  0  0  0  0  0
  146.3460   67.3820  217.7490 C   0  0  0  0  0  0  0  0  0  0  0  0
  145.9170   67.3030  219.0620 C   0  0  0  0  0  0  0  0  0  0  0  0
  145.4110   68.4390  219.6450 C   0  0  0  0  0  0  0  0  0  0  0  0
  143.5330   70.7640  220.1800 C   0  0  0  0  0  0  0  0  0  0  0  0
  143.0610   72.1270  220.6400 C   0  0  0  0  0  0  0  0  0  0  0  0
  141.8970   71.8820  221.5820 C   0  0  0  0  0  0  0  0  0  0  0  0
  140.8150   71.2080  220.9350 N   0  0  0  0  0  0  0  0  0  0  0  0
  139.4440   71.5120  221.0260 C   0  0  0  0  0  0  0  0  0  0  0  0
  138.6440   70.7700  220.3160 O   0  0  0  0  0  0  0  0  0  0  0  0
  138.7570   72.5450  221.8040 C   0  0  2  0  0  0  0  0  0  0  0  0
  139.5300   73.6740  222.2010 N   0  0  0  0  0  0  0  0  0  0  0  0
  138.0660   71.8880  222.9990 C   0  0  0  0  0  0  0  0  0  0  0  0
  138.9670   71.2240  223.9290 C   0  0  0  0  0  0  0  0  0  0  0  0
  140.1840   71.7010  224.3610 C   0  0  0  0  0  0  0  0  0  0  0  0
  141.0010   71.0170  225.2420 C   0  0  0  0  0  0  0  0  0  0  0  0
  140.6260   69.7960  225.7400 C   0  0  0  0  0  0  0  0  0  0  0  0
  141.4430   69.1290  226.6110 C   0  0  0  0  0  0  0  0  0  0  0  0
  141.0610   67.8940  227.1130 C   0  0  0  0  0  0  0  0  0  0  0  0
  139.8420   67.3770  226.7030 C   0  0  0  0  0  0  0  0  0  0  0  0
  139.0140   68.0430  225.8260 C   0  0  0  0  0  0  0  0  0  0  0  0
  139.4150   69.2880  225.3290 C   0  0  0  0  0  0  0  0  0  0  0  0
  138.5940   69.9760  224.4430 C   0  0  0  0  0  0  0  0  0  0  0  0
  141.1820   70.0670  220.0980 C   0  0  0  0  0  0  0  0  0  0  0  0
  142.4170   70.2380  219.3010 C   0  0  0  0  0  0  0  0  0  0  0  0
  145.5859   74.4332  221.8496 H   0  0  0  0  0  0  0  0  0  0  0  0
  146.4415   74.7140  220.2953 H   0  0  0  0  0  0  0  0  0  0  0  0
  144.6986   74.2792  220.2953 H   0  0  0  0  0  0  0  0  0  0  0  0
  147.1211   72.5687  220.7955 H   0  0  0  0  0  0  0  0  0  0  0  0
  145.5363   72.1550  221.5771 H   0  0  0  0  0  0  0  0  0  0  0  0
  145.6957   70.6623  217.0569 H   0  0  0  0  0  0  0  0  0  0  0  0
  146.6234   68.5983  215.9783 H   0  0  0  0  0  0  0  0  0  0  0  0
  146.7554   66.4828  217.2654 H   0  0  0  0  0  0  0  0  0  0  0  0
  145.9793   66.3585  219.6223 H   0  0  0  0  0  0  0  0  0  0  0  0
  145.0613   68.4137  220.6876 H   0  0  0  0  0  0  0  0  0  0  0  0
  143.7168   70.0838  221.0247 H   0  0  0  0  0  0  0  0  0  0  0  0
  143.8716   72.6528  221.1657 H   0  0  0  0  0  0  0  0  0  0  0  0
  142.7590   72.7530  219.7874 H   0  0  0  0  0  0  0  0  0  0  0  0
  142.2457   71.2663  222.4242 H   0  0  0  0  0  0  0  0  0  0  0  0
  141.5293   72.8593  221.9278 H   0  0  0  0  0  0  0  0  0  0  0  0
  138.0266   72.9922  221.1137 H   0  0  0  0  0  0  0  0  0  0  0  0
  139.2000   74.1400  223.0700 H   0  0  0  0  0  0  0  0  0  0  0  0
  139.6170   74.3990  221.4590 H   0  0  0  0  0  0  0  0  0  0  0  0
  137.5176   72.6668  223.5492 H   0  0  0  0  0  0  0  0  0  0  0  0
  137.4093   71.1066  222.5889 H   0  0  0  0  0  0  0  0  0  0  0  0
  140.5242   72.6774  223.9856 H   0  0  0  0  0  0  0  0  0  0  0  0
  141.9620   71.4571  225.5466 H   0  0  0  0  0  0  0  0  0  0  0  0
  142.4032   69.5723  226.9133 H   0  0  0  0  0  0  0  0  0  0  0  0
  141.7047   67.3424  227.8140 H   0  0  0  0  0  0  0  0  0  0  0  0
  139.5239   66.3986  227.0923 H   0  0  0  0  0  0  0  0  0  0  0  0
  138.0530   67.6030  225.5214 H   0  0  0  0  0  0  0  0  0  0  0  0
  137.6341   69.5321  224.1402 H   0  0  0  0  0  0  0  0  0  0  0  0
  141.3190   69.1947  220.7539 H   0  0  0  0  0  0  0  0  0  0  0  0
  140.3651   69.9482  219.3710 H   0  0  0  0  0  0  0  0  0  0  0  0
  142.7141   69.2674  218.8770 H   0  0  0  0  0  0  0  0  0  0  0  0
  142.2267   70.9570  218.4905 H   0  0  0  0  0  0  0  0  0  0  0  0
  1  2  1  0
  2  3  1  0
  3  4  2  0
  3  5  1  0
  5  6  1  0
  6  7  2  0
  7  8  1  0
  8  9  2  0
  9 10  1  0
 10 11  2  0
  5 12  1  0
 12 13  1  0
 13 14  1  0
 14 15  1  0
 15 16  1  0
 16 17  2  0
 16 18  1  0
 18 19  1  0
 18 20  1  0
 20 21  1  0
 21 22  2  0
 22 23  1  0
 23 24  2  0
 24 25  1  0
 25 26  2  0
 26 27  1  0
 27 28  2  0
 28 29  1  0
 29 30  2  0
 15 31  1  0
 31 32  1  0
 11  6  1  0
 32 12  1  0
 30 21  1  0
 29 24  1  0
  1 33  1  0
  1 34  1  0
  1 35  1  0
  2 36  1  0
  2 37  1  0
  7 38  1  0
  8 39  1  0
  9 40  1  0
 10 41  1  0
 11 42  1  0
 12 43  1  0
 13 44  1  0
 13 45  1  0
 14 46  1  0
 14 47  1  0
 18 48  1  6
 19 49  1  0
 19 50  1  0
 20 51  1  0
 20 52  1  0
 22 53  1  0
 23 54  1  0
 25 55  1  0
 26 56  1  0
 27 57  1  0
 28 58  1  0
 30 59  1  0
 31 60  1  0
 31 61  1  0
 32 62  1  0
 32 63  1  0
M  END
>  <smiles>  (16) 
CCC(=O)N(c1ccccc1)C1CCN(C(=O)[C@H](N)Cc2ccc3ccccc3c2)CC1

>  <score_type>  (16) 
oracle

>  <origin>  (16) 
autodockgpu

>  <m_score__min__energy>  (16) 
-9.5700000000000003

>  <m_primary>  (16) 
energy

>  <rmsd>  (16) 
8.546424316434404

>  <m_score__min__rmsd>  (16) 
8.546424316434404

>  <meeko>  (16) 
{"free_energy": -8.88, "intermolecular_energy": -11.26, "internal_energy": -1.74, "cluster_size": 6, "cluster_id": 2, "rank_in_cluster": 2}

>  <energy>  (16) 
-8.84

>  <cluster_rmsd>  (16) 
1.83

>  <cluster>  (16) 
1

$$$$

     RDKit          3D

 63 66  0  0  0  0  0  0  0  0999 V2000
  146.3250   73.8170  221.0860 C   0  0  0  0  0  0  0  0  0  0  0  0
  145.4580   72.6440  220.7360 C   0  0  0  0  0  0  0  0  0  0  0  0
  145.2500   72.5240  219.2630 C   0  0  0  0  0  0  0  0  0  0  0  0
  145.9240   71.6470  218.6620 O   0  0  0  0  0  0  0  0  0  0  0  0
  144.3210   73.3820  218.6090 N   0  0  0  0  0  0  0  0  0  0  0  0
  144.7430   74.1320  217.4490 C   0  0  0  0  0  0  0  0  0  0  0  0
  143.9800   75.2120  217.0830 C   0  0  0  0  0  0  0  0  0  0  0  0
  144.3800   75.9330  215.9690 C   0  0  0  0  0  0  0  0  0  0  0  0
  145.5220   75.5510  215.2650 C   0  0  0  0  0  0  0  0  0  0  0  0
  146.2830   74.4600  215.6430 C   0  0  0  0  0  0  0  0  0  0  0  0
  145.8840   73.7470  216.7480 C   0  0  0  0  0  0  0  0  0  0  0  0
  142.9740   73.5150  219.0810 C   0  0  0  0  0  0  0  0  0  0  0  0
  142.3720   72.1880  219.4930 C   0  0  0  0  0  0  0  0  0  0  0  0
  140.8810   72.4240  219.6480 C   0  0  0  0  0  0  0  0  0  0  0  0
  140.5930   73.3990  220.6530 N   0  0  0  0  0  0  0  0  0  0  0  0
  139.6080   73.3260  221.6550 C   0  0  0  0  0  0  0  0  0  0  0  0
  139.5540   74.3310  222.4800 O   0  0  0  0  0  0  0  0  0  0  0  0
  138.6140   72.2850  221.9240 C   0  0  2  0  0  0  0  0  0  0  0  0
  137.6030   72.5910  222.8810 N   0  0  0  0  0  0  0  0  0  0  0  0
  139.3390   70.9840  222.2680 C   0  0  0  0  0  0  0  0  0  0  0  0
  139.7620   70.8760  223.6560 C   0  0  0  0  0  0  0  0  0  0  0  0
  140.4170   71.8440  224.3830 C   0  0  0  0  0  0  0  0  0  0  0  0
  140.8020   71.6770  225.7010 C   0  0  0  0  0  0  0  0  0  0  0  0
  140.5410   70.5070  226.3630 C   0  0  0  0  0  0  0  0  0  0  0  0
  140.9260   70.3540  227.6670 C   0  0  0  0  0  0  0  0  0  0  0  0
  140.6590   69.1680  228.3350 C   0  0  0  0  0  0  0  0  0  0  0  0
  140.0010   68.1670  227.6390 C   0  0  0  0  0  0  0  0  0  0  0  0
  139.6090   68.3130  226.3260 C   0  0  0  0  0  0  0  0  0  0  0  0
  139.8860   69.5160  225.6670 C   0  0  0  0  0  0  0  0  0  0  0  0
  139.5000   69.6840  224.3420 C   0  0  0  0  0  0  0  0  0  0  0  0
  141.4090   74.6110  220.6190 C   0  0  0  0  0  0  0  0  0  0  0  0
  142.8390   74.4030  220.3000 C   0  0  0  0  0  0  0  0  0  0  0  0
  146.3931   73.9091  222.1800 H   0  0  0  0  0  0  0  0  0  0  0  0
  147.3311   73.6672  220.6673 H   0  0  0  0  0  0  0  0  0  0  0  0
  145.8866   74.7349  220.6673 H   0  0  0  0  0  0  0  0  0  0  0  0
  145.9383   71.7250  221.1031 H   0  0  0  0  0  0  0  0  0  0  0  0
  144.4755   72.7943  221.2073 H   0  0  0  0  0  0  0  0  0  0  0  0
  143.0830   75.4954  217.6532 H   0  0  0  0  0  0  0  0  0  0  0  0
  143.7972   76.8060  215.6402 H   0  0  0  0  0  0  0  0  0  0  0  0
  145.8261   76.1346  214.3835 H   0  0  0  0  0  0  0  0  0  0  0  0
  147.1806   74.1716  215.0763 H   0  0  0  0  0  0  0  0  0  0  0  0
  146.4648   72.8733  217.0787 H   0  0  0  0  0  0  0  0  0  0  0  0
  142.4519   73.9560  218.2190 H   0  0  0  0  0  0  0  0  0  0  0  0
  142.5586   71.4289  218.7191 H   0  0  0  0  0  0  0  0  0  0  0  0
  142.8174   71.8216  220.4297 H   0  0  0  0  0  0  0  0  0  0  0  0
  140.4755   72.7743  218.6873 H   0  0  0  0  0  0  0  0  0  0  0  0
  140.4175   71.4745  219.9542 H   0  0  0  0  0  0  0  0  0  0  0  0
  138.0348   72.1878  220.9939 H   0  0  0  0  0  0  0  0  0  0  0  0
  137.4960   73.6040  223.0890 H   0  0  0  0  0  0  0  0  0  0  0  0
  137.7190   72.0860  223.7830 H   0  0  0  0  0  0  0  0  0  0  0  0
  138.6616   70.1454  222.0494 H   0  0  0  0  0  0  0  0  0  0  0  0
  140.2557   70.9674  221.6602 H   0  0  0  0  0  0  0  0  0  0  0  0
  140.6463   72.8003  223.8901 H   0  0  0  0  0  0  0  0  0  0  0  0
  141.3235   72.4928  226.2230 H   0  0  0  0  0  0  0  0  0  0  0  0
  141.4475   71.1718  228.1859 H   0  0  0  0  0  0  0  0  0  0  0  0
  140.9600   69.0268  229.3836 H   0  0  0  0  0  0  0  0  0  0  0  0
  139.7832   67.2197  228.1540 H   0  0  0  0  0  0  0  0  0  0  0  0
  139.0869   67.4973  225.8045 H   0  0  0  0  0  0  0  0  0  0  0  0
  138.9793   68.8656  223.8232 H   0  0  0  0  0  0  0  0  0  0  0  0
  140.9859   75.2841  219.8588 H   0  0  0  0  0  0  0  0  0  0  0  0
  141.3821   75.0239  221.6382 H   0  0  0  0  0  0  0  0  0  0  0  0
  143.3120   75.3751  220.0967 H   0  0  0  0  0  0  0  0  0  0  0  0
  143.3331   73.9193  221.1555 H   0  0  0  0  0  0  0  0  0  0  0  0
  1  2  1  0
  2  3  1  0
  3  4  2  0
  3  5  1  0
  5  6  1  0
  6  7  2  0
  7  8  1  0
  8  9  2  0
  9 10  1  0
 10 11  2  0
  5 12  1  0
 12 13  1  0
 13 14  1  0
 14 15  1  0
 15 16  1  0
 16 17  2  0
 16 18  1  0
 18 19  1  0
 18 20  1  0
 20 21  1  0
 21 22  2  0
 22 23  1  0
 23 24  2  0
 24 25  1  0
 25 26  2  0
 26 27  1  0
 27 28  2  0
 28 29  1  0
 29 30  2  0
 15 31  1  0
 31 32  1  0
 11  6  1  0
 32 12  1  0
 30 21  1  0
 29 24  1  0
  1 33  1  0
  1 34  1  0
  1 35  1  0
  2 36  1  0
  2 37  1  0
  7 38  1  0
  8 39  1  0
  9 40  1  0
 10 41  1  0
 11 42  1  0
 12 43  1  0
 13 44  1  0
 13 45  1  0
 14 46  1  0
 14 47  1  0
 18 48  1  6
 19 49  1  0
 19 50  1  0
 20 51  1  0
 20 52  1  0
 22 53  1  0
 23 54  1  0
 25 55  1  0
 26 56  1  0
 27 57  1  0
 28 58  1  0
 30 59  1  0
 31 60  1  0
 31 61  1  0
 32 62  1  0
 32 63  1  0
M  END
>  <smiles>  (17) 
CCC(=O)N(c1ccccc1)C1CCN(C(=O)[C@H](N)Cc2ccc3ccccc3c2)CC1

>  <score_type>  (17) 
oracle

>  <origin>  (17) 
autodockgpu

>  <m_score__min__energy>  (17) 
-9.5700000000000003

>  <m_primary>  (17) 
energy

>  <rmsd>  (17) 
7.2989961237243515

>  <m_score__min__rmsd>  (17) 
7.2989961237243515

>  <meeko>  (17) 
{"free_energy": -8.88, "intermolecular_energy": -11.26, "internal_energy": -2.23, "cluster_size": 6, "cluster_id": 3, "rank_in_cluster": 4}

>  <energy>  (17) 
-8.58

>  <cluster_rmsd>  (17) 
1.02

>  <cluster>  (17) 
1

$$$$

     RDKit          3D

 63 66  0  0  0  0  0  0  0  0999 V2000
  145.8920   73.4780  216.8300 C   0  0  0  0  0  0  0  0  0  0  0  0
  145.1570   72.2940  216.2760 C   0  0  0  0  0  0  0  0  0  0  0  0
  145.5350   71.0270  216.9700 C   0  0  0  0  0  0  0  0  0  0  0  0
  146.6440   70.5180  216.6620 O   0  0  0  0  0  0  0  0  0  0  0  0
  144.6510   70.4580  217.9300 N   0  0  0  0  0  0  0  0  0  0  0  0
  144.8530   69.0940  218.3590 C   0  0  0  0  0  0  0  0  0  0  0  0
  144.0880   68.1240  217.7610 C   0  0  0  0  0  0  0  0  0  0  0  0
  144.2770   66.8140  218.1720 C   0  0  0  0  0  0  0  0  0  0  0  0
  145.2190   66.5220  219.1590 C   0  0  0  0  0  0  0  0  0  0  0  0
  145.9840   67.5090  219.7550 C   0  0  0  0  0  0  0  0  0  0  0  0
  145.7940   68.8070  219.3450 C   0  0  0  0  0  0  0  0  0  0  0  0
  143.5650   71.2150  218.4790 C   0  0  0  0  0  0  0  0  0  0  0  0
  142.4100   70.3380  218.9140 C   0  0  0  0  0  0  0  0  0  0  0  0
  141.2340   71.2660  219.1550 C   0  0  0  0  0  0  0  0  0  0  0  0
  141.5070   72.2220  220.1830 N   0  0  0  0  0  0  0  0  0  0  0  0
  140.6590   72.6060  221.2380 C   0  0  0  0  0  0  0  0  0  0  0  0
  141.1420   73.4800  222.0730 O   0  0  0  0  0  0  0  0  0  0  0  0
  139.2960   72.1750  221.5560 C   0  0  2  0  0  0  0  0  0  0  0  0
  138.5040   73.0630  222.3400 N   0  0  0  0  0  0  0  0  0  0  0  0
  139.3490   70.7760  222.1710 C   0  0  0  0  0  0  0  0  0  0  0  0
  139.7820   70.7430  223.5610 C   0  0  0  0  0  0  0  0  0  0  0  0
  140.3870   71.7710  224.2470 C   0  0  0  0  0  0  0  0  0  0  0  0
  140.7840   71.6750  225.5690 C   0  0  0  0  0  0  0  0  0  0  0  0
  140.5880   70.5170  226.2760 C   0  0  0  0  0  0  0  0  0  0  0  0
  140.9850   70.4340  227.5820 C   0  0  0  0  0  0  0  0  0  0  0  0
  140.7850   69.2620  228.2950 C   0  0  0  0  0  0  0  0  0  0  0  0
  140.1790   68.2010  227.6400 C   0  0  0  0  0  0  0  0  0  0  0  0
  139.7760   68.2770  226.3250 C   0  0  0  0  0  0  0  0  0  0  0  0
  139.9850   69.4680  225.6200 C   0  0  0  0  0  0  0  0  0  0  0  0
  139.5870   69.5650  224.2920 C   0  0  0  0  0  0  0  0  0  0  0  0
  142.8090   72.8830  220.1120 C   0  0  0  0  0  0  0  0  0  0  0  0
  143.9370   72.0140  219.7100 C   0  0  0  0  0  0  0  0  0  0  0  0
  145.8696   73.4420  217.9292 H   0  0  0  0  0  0  0  0  0  0  0  0
  146.9358   73.4565  216.4836 H   0  0  0  0  0  0  0  0  0  0  0  0
  145.4097   74.4039  216.4836 H   0  0  0  0  0  0  0  0  0  0  0  0
  144.0762   72.4575  216.3988 H   0  0  0  0  0  0  0  0  0  0  0  0
  145.4257   72.1933  215.2141 H   0  0  0  0  0  0  0  0  0  0  0  0
  143.3518   68.3771  216.9839 H   0  0  0  0  0  0  0  0  0  0  0  0
  143.6846   66.0047  217.7202 H   0  0  0  0  0  0  0  0  0  0  0  0
  145.3575   65.4767  219.4724 H   0  0  0  0  0  0  0  0  0  0  0  0
  146.7215   67.2624  220.5330 H   0  0  0  0  0  0  0  0  0  0  0  0
  146.3846   69.6185  219.7952 H   0  0  0  0  0  0  0  0  0  0  0  0
  143.2873   71.8840  217.6512 H   0  0  0  0  0  0  0  0  0  0  0  0
  142.1658   69.6116  218.1249 H   0  0  0  0  0  0  0  0  0  0  0  0
  142.6612   69.7690  219.8213 H   0  0  0  0  0  0  0  0  0  0  0  0
  141.0083   71.8029  218.2218 H   0  0  0  0  0  0  0  0  0  0  0  0
  140.3794   70.6539  219.4789 H   0  0  0  0  0  0  0  0  0  0  0  0
  138.7607   72.1716  220.5950 H   0  0  0  0  0  0  0  0  0  0  0  0
  139.0210   73.8810  222.7210 H   0  0  0  0  0  0  0  0  0  0  0  0
  138.0140   72.5950  223.1290 H   0  0  0  0  0  0  0  0  0  0  0  0
  138.3417   70.3376  222.1145 H   0  0  0  0  0  0  0  0  0  0  0  0
  140.0975   70.2102  221.5968 H   0  0  0  0  0  0  0  0  0  0  0  0
  140.5642   72.7184  223.7168 H   0  0  0  0  0  0  0  0  0  0  0  0
  141.2619   72.5368  226.0578 H   0  0  0  0  0  0  0  0  0  0  0  0
  141.4633   71.2977  228.0671 H   0  0  0  0  0  0  0  0  0  0  0  0
  141.0970   69.1767  229.3464 H   0  0  0  0  0  0  0  0  0  0  0  0
  140.0138   67.2634  228.1910 H   0  0  0  0  0  0  0  0  0  0  0  0
  139.2975   67.4153  225.8366 H   0  0  0  0  0  0  0  0  0  0  0  0
  139.1102   68.7007  223.8065 H   0  0  0  0  0  0  0  0  0  0  0  0
  142.7347   73.7030  219.3826 H   0  0  0  0  0  0  0  0  0  0  0  0
  143.0347   73.2220  221.1338 H   0  0  0  0  0  0  0  0  0  0  0  0
  144.8153   72.6376  219.4873 H   0  0  0  0  0  0  0  0  0  0  0  0
  144.1687   71.3213  220.5325 H   0  0  0  0  0  0  0  0  0  0  0  0
  1  2  1  0
  2  3  1  0
  3  4  2  0
  3  5  1  0
  5  6  1  0
  6  7  2  0
  7  8  1  0
  8  9  2  0
  9 10  1  0
 10 11  2  0
  5 12  1  0
 12 13  1  0
 13 14  1  0
 14 15  1  0
 15 16  1  0
 16 17  2  0
 16 18  1  0
 18 19  1  0
 18 20  1  0
 20 21  1  0
 21 22  2  0
 22 23  1  0
 23 24  2  0
 24 25  1  0
 25 26  2  0
 26 27  1  0
 27 28  2  0
 28 29  1  0
 29 30  2  0
 15 31  1  0
 31 32  1  0
 11  6  1  0
 32 12  1  0
 30 21  1  0
 29 24  1  0
  1 33  1  0
  1 34  1  0
  1 35  1  0
  2 36  1  0
  2 37  1  0
  7 38  1  0
  8 39  1  0
  9 40  1  0
 10 41  1  0
 11 42  1  0
 12 43  1  0
 13 44  1  0
 13 45  1  0
 14 46  1  0
 14 47  1  0
 18 48  1  6
 19 49  1  0
 19 50  1  0
 20 51  1  0
 20 52  1  0
 22 53  1  0
 23 54  1  0
 25 55  1  0
 26 56  1  0
 27 57  1  0
 28 58  1  0
 30 59  1  0
 31 60  1  0
 31 61  1  0
 32 62  1  0
 32 63  1  0
M  END
>  <smiles>  (18) 
CCC(=O)N(c1ccccc1)C1CCN(C(=O)[C@H](N)Cc2ccc3ccccc3c2)CC1

>  <score_type>  (18) 
oracle

>  <origin>  (18) 
autodockgpu

>  <m_score__min__energy>  (18) 
-9.5700000000000003

>  <m_primary>  (18) 
energy

>  <rmsd>  (18) 
8.24009035645958

>  <m_score__min__rmsd>  (18) 
8.24009035645958

>  <meeko>  (18) 
{"free_energy": -8.24, "intermolecular_energy": -10.63, "internal_energy": -2.1, "cluster_size": 6, "cluster_id": 2, "rank_in_cluster": 6}

>  <energy>  (18) 
-8.47

>  <cluster_rmsd>  (18) 
1.96

>  <cluster>  (18) 
1

$$$$

     RDKit          3D

 63 66  0  0  0  0  0  0  0  0999 V2000
  142.5970   78.1320  218.1490 C   0  0  0  0  0  0  0  0  0  0  0  0
  141.9520   79.2150  218.9620 C   0  0  0  0  0  0  0  0  0  0  0  0
  140.8150   78.6980  219.7790 C   0  0  0  0  0  0  0  0  0  0  0  0
  139.6920   78.6290  219.2130 O   0  0  0  0  0  0  0  0  0  0  0  0
  141.0350   78.3110  221.1310 N   0  0  0  0  0  0  0  0  0  0  0  0
  141.3820   79.3160  222.1090 C   0  0  0  0  0  0  0  0  0  0  0  0
  140.3830   80.1540  222.5350 C   0  0  0  0  0  0  0  0  0  0  0  0
  140.7120   81.1210  223.4720 C   0  0  0  0  0  0  0  0  0  0  0  0
  142.0200   81.2130  223.9480 C   0  0  0  0  0  0  0  0  0  0  0  0
  143.0190   80.3620  223.5110 C   0  0  0  0  0  0  0  0  0  0  0  0
  142.6890   79.4050  222.5820 C   0  0  0  0  0  0  0  0  0  0  0  0
  140.9180   76.9420  221.5400 C   0  0  0  0  0  0  0  0  0  0  0  0
  139.4810   76.4650  221.5580 C   0  0  0  0  0  0  0  0  0  0  0  0
  139.4770   75.1470  222.3090 C   0  0  0  0  0  0  0  0  0  0  0  0
  140.2870   74.1600  221.6650 N   0  0  0  0  0  0  0  0  0  0  0  0
  139.9650   72.8100  221.4330 C   0  0  0  0  0  0  0  0  0  0  0  0
  140.8590   72.1090  220.7970 O   0  0  0  0  0  0  0  0  0  0  0  0
  138.7670   72.0510  221.7970 C   0  0  2  0  0  0  0  0  0  0  0  0
  137.8540   72.6780  222.6940 N   0  0  0  0  0  0  0  0  0  0  0  0
  139.1890   70.6690  222.2960 C   0  0  0  0  0  0  0  0  0  0  0  0
  139.6770   70.6450  223.6670 C   0  0  0  0  0  0  0  0  0  0  0  0
  140.3380   71.6660  224.3110 C   0  0  0  0  0  0  0  0  0  0  0  0
  140.7860   71.5790  225.6170 C   0  0  0  0  0  0  0  0  0  0  0  0
  140.5880   70.4380  226.3500 C   0  0  0  0  0  0  0  0  0  0  0  0
  141.0360   70.3630  227.6410 C   0  0  0  0  0  0  0  0  0  0  0  0
  140.8330   69.2080  228.3800 C   0  0  0  0  0  0  0  0  0  0  0  0
  140.1720   68.1550  227.7670 C   0  0  0  0  0  0  0  0  0  0  0  0
  139.7170   68.2220  226.4690 C   0  0  0  0  0  0  0  0  0  0  0  0
  139.9300   69.3960  225.7370 C   0  0  0  0  0  0  0  0  0  0  0  0
  139.4800   69.4840  224.4250 C   0  0  0  0  0  0  0  0  0  0  0  0
  141.6040   74.6090  221.2160 C   0  0  0  0  0  0  0  0  0  0  0  0
  141.6430   75.9700  220.6340 C   0  0  0  0  0  0  0  0  0  0  0  0
  143.0423   77.3843  218.8218 H   0  0  0  0  0  0  0  0  0  0  0  0
  141.8392   77.6492  217.5145 H   0  0  0  0  0  0  0  0  0  0  0  0
  143.3825   78.5683  217.5145 H   0  0  0  0  0  0  0  0  0  0  0  0
  142.7050   79.6496  219.6359 H   0  0  0  0  0  0  0  0  0  0  0  0
  141.5559   79.9710  218.2681 H   0  0  0  0  0  0  0  0  0  0  0  0
  139.3578   80.0619  222.1470 H   0  0  0  0  0  0  0  0  0  0  0  0
  139.9423   81.8153  223.8400 H   0  0  0  0  0  0  0  0  0  0  0  0
  142.2641   81.9849  224.6927 H   0  0  0  0  0  0  0  0  0  0  0  0
  144.0460   80.4487  223.8954 H   0  0  0  0  0  0  0  0  0  0  0  0
  143.4567   78.7094  222.2120 H   0  0  0  0  0  0  0  0  0  0  0  0
  141.3656   76.9445  222.5448 H   0  0  0  0  0  0  0  0  0  0  0  0
  138.8431   77.1983  222.0730 H   0  0  0  0  0  0  0  0  0  0  0  0
  139.0880   76.3440  220.5377 H   0  0  0  0  0  0  0  0  0  0  0  0
  139.8639   75.3161  223.3247 H   0  0  0  0  0  0  0  0  0  0  0  0
  138.4426   74.7736  222.3338 H   0  0  0  0  0  0  0  0  0  0  0  0
  138.1743   71.9801  220.8731 H   0  0  0  0  0  0  0  0  0  0  0  0
  137.9330   73.7140  222.7380 H   0  0  0  0  0  0  0  0  0  0  0  0
  137.9070   72.3080  223.6650 H   0  0  0  0  0  0  0  0  0  0  0  0
  138.3189   69.9993  222.2293 H   0  0  0  0  0  0  0  0  0  0  0  0
  140.0277   70.3496  221.6600 H   0  0  0  0  0  0  0  0  0  0  0  0
  140.5195   72.5998  223.7586 H   0  0  0  0  0  0  0  0  0  0  0  0
  141.3066   72.4346  226.0719 H   0  0  0  0  0  0  0  0  0  0  0  0
  141.5575   71.2198  228.0925 H   0  0  0  0  0  0  0  0  0  0  0  0
  141.1850   69.1296  229.4192 H   0  0  0  0  0  0  0  0  0  0  0  0
  140.0045   67.2306  228.3392 H   0  0  0  0  0  0  0  0  0  0  0  0
  139.1947   67.3670  226.0148 H   0  0  0  0  0  0  0  0  0  0  0  0
  138.9597   68.6263  223.9738 H   0  0  0  0  0  0  0  0  0  0  0  0
  142.2831   74.5896  222.0812 H   0  0  0  0  0  0  0  0  0  0  0  0
  141.9005   73.9237  220.4083 H   0  0  0  0  0  0  0  0  0  0  0  0
  142.6900   76.2883  220.5219 H   0  0  0  0  0  0  0  0  0  0  0  0
  141.1497   75.9564  219.6509 H   0  0  0  0  0  0  0  0  0  0  0  0
  1  2  1  0
  2  3  1  0
  3  4  2  0
  3  5  1  0
  5  6  1  0
  6  7  2  0
  7  8  1  0
  8  9  2  0
  9 10  1  0
 10 11  2  0
  5 12  1  0
 12 13  1  0
 13 14  1  0
 14 15  1  0
 15 16  1  0
 16 17  2  0
 16 18  1  0
 18 19  1  0
 18 20  1  0
 20 21  1  0
 21 22  2  0
 22 23  1  0
 23 24  2  0
 24 25  1  0
 25 26  2  0
 26 27  1  0
 27 28  2  0
 28 29  1  0
 29 30  2  0
 15 31  1  0
 31 32  1  0
 11  6  1  0
 32 12  1  0
 30 21  1  0
 29 24  1  0
  1 33  1  0
  1 34  1  0
  1 35  1  0
  2 36  1  0
  2 37  1  0
  7 38  1  0
  8 39  1  0
  9 40  1  0
 10 41  1  0
 11 42  1  0
 12 43  1  0
 13 44  1  0
 13 45  1  0
 14 46  1  0
 14 47  1  0
 18 48  1  6
 19 49  1  0
 19 50  1  0
 20 51  1  0
 20 52  1  0
 22 53  1  0
 23 54  1  0
 25 55  1  0
 26 56  1  0
 27 57  1  0
 28 58  1  0
 30 59  1  0
 31 60  1  0
 31 61  1  0
 32 62  1  0
 32 63  1  0
M  END
>  <smiles>  (19) 
CCC(=O)N(c1ccccc1)C1CCN(C(=O)[C@H](N)Cc2ccc3ccccc3c2)CC1

>  <score_type>  (19) 
oracle

>  <origin>  (19) 
autodockgpu

>  <m_score__min__energy>  (19) 
-9.5700000000000003

>  <m_primary>  (19) 
energy

>  <rmsd>  (19) 
6.350281187530744

>  <m_score__min__rmsd>  (19) 
6.350281187530744

>  <meeko>  (19) 
{"free_energy": -9.52, "intermolecular_energy": -11.91, "internal_energy": -1.57, "cluster_size": 20, "cluster_id": 1, "rank_in_cluster": 2}

>  <energy>  (19) 
-8.47

>  <cluster_rmsd>  (19) 
1.13

>  <cluster>  (19) 
1

$$$$

     RDKit          3D

 63 66  0  0  0  0  0  0  0  0999 V2000
  142.1810   80.0420  218.6100 C   0  0  0  0  0  0  0  0  0  0  0  0
  140.9130   80.1130  219.4090 C   0  0  0  0  0  0  0  0  0  0  0  0
  140.4910   78.7700  219.9060 C   0  0  0  0  0  0  0  0  0  0  0  0
  139.8560   78.0390  219.1020 O   0  0  0  0  0  0  0  0  0  0  0  0
  140.8150   78.3750  221.2350 N   0  0  0  0  0  0  0  0  0  0  0  0
  141.2770   79.3670  222.1770 C   0  0  0  0  0  0  0  0  0  0  0  0
  142.6280   79.4440  222.4020 C   0  0  0  0  0  0  0  0  0  0  0  0
  143.0760   80.3930  223.3070 C   0  0  0  0  0  0  0  0  0  0  0  0
  142.1620   81.2280  223.9510 C   0  0  0  0  0  0  0  0  0  0  0  0
  140.8020   81.1410  223.7160 C   0  0  0  0  0  0  0  0  0  0  0  0
  140.3610   80.1980  222.8190 C   0  0  0  0  0  0  0  0  0  0  0  0
  140.6880   77.0110  221.6550 C   0  0  0  0  0  0  0  0  0  0  0  0
  139.2590   76.5140  221.5850 C   0  0  0  0  0  0  0  0  0  0  0  0
  139.2230   75.2060  222.3530 C   0  0  0  0  0  0  0  0  0  0  0  0
  140.0880   74.2220  221.7790 N   0  0  0  0  0  0  0  0  0  0  0  0
  139.7990   72.8650  221.5460 C   0  0  0  0  0  0  0  0  0  0  0  0
  140.7420   72.1680  220.9820 O   0  0  0  0  0  0  0  0  0  0  0  0
  138.5890   72.0940  221.8410 C   0  0  2  0  0  0  0  0  0  0  0  0
  137.6420   72.6920  222.7210 N   0  0  0  0  0  0  0  0  0  0  0  0
  138.9940   70.6970  222.3140 C   0  0  0  0  0  0  0  0  0  0  0  0
  139.5310   70.6500  223.6660 C   0  0  0  0  0  0  0  0  0  0  0  0
  140.2630   71.6370  224.2850 C   0  0  0  0  0  0  0  0  0  0  0  0
  140.7540   71.5280  225.5740 C   0  0  0  0  0  0  0  0  0  0  0  0
  140.5260   70.3980  226.3150 C   0  0  0  0  0  0  0  0  0  0  0  0
  141.0160   70.3020  227.5890 C   0  0  0  0  0  0  0  0  0  0  0  0
  140.7840   69.1580  228.3370 C   0  0  0  0  0  0  0  0  0  0  0  0
  140.0500   68.1380  227.7510 C   0  0  0  0  0  0  0  0  0  0  0  0
  139.5530   68.2280  226.4690 C   0  0  0  0  0  0  0  0  0  0  0  0
  139.7960   69.3900  225.7280 C   0  0  0  0  0  0  0  0  0  0  0  0
  139.3040   69.5000  224.4330 C   0  0  0  0  0  0  0  0  0  0  0  0
  141.4250   74.6830  221.4120 C   0  0  0  0  0  0  0  0  0  0  0  0
  141.4850   76.0360  220.8140 C   0  0  0  0  0  0  0  0  0  0  0  0
  143.0423   79.9938  219.2926 H   0  0  0  0  0  0  0  0  0  0  0  0
  142.1650   79.1433  217.9758 H   0  0  0  0  0  0  0  0  0  0  0  0
  142.2654   80.9368  217.9758 H   0  0  0  0  0  0  0  0  0  0  0  0
  141.0730   80.7769  220.2713 H   0  0  0  0  0  0  0  0  0  0  0  0
  140.1184   80.4984  218.7531 H   0  0  0  0  0  0  0  0  0  0  0  0
  143.3308   78.7761  221.8824 H   0  0  0  0  0  0  0  0  0  0  0  0
  144.1515   80.4880  223.5176 H   0  0  0  0  0  0  0  0  0  0  0  0
  142.5339   81.9767  224.6659 H   0  0  0  0  0  0  0  0  0  0  0  0
  140.0944   81.8068  224.2317 H   0  0  0  0  0  0  0  0  0  0  0  0
  139.2860   80.0992  222.6080 H   0  0  0  0  0  0  0  0  0  0  0  0
  141.0671   77.0341  222.6874 H   0  0  0  0  0  0  0  0  0  0  0  0
  138.5788   77.2451  222.0464 H   0  0  0  0  0  0  0  0  0  0  0  0
  138.9358   76.3739  220.5429 H   0  0  0  0  0  0  0  0  0  0  0  0
  139.5386   75.3944  223.3898 H   0  0  0  0  0  0  0  0  0  0  0  0
  138.1945   74.8178  222.3136 H   0  0  0  0  0  0  0  0  0  0  0  0
  138.0325   72.0511  220.8931 H   0  0  0  0  0  0  0  0  0  0  0  0
  137.6930   73.7300  222.7710 H   0  0  0  0  0  0  0  0  0  0  0  0
  137.6840   72.3190  223.6910 H   0  0  0  0  0  0  0  0  0  0  0  0
  138.1054   70.0498  222.2745 H   0  0  0  0  0  0  0  0  0  0  0  0
  139.8003   70.3616  221.6451 H   0  0  0  0  0  0  0  0  0  0  0  0
  140.4687   72.5615  223.7256 H   0  0  0  0  0  0  0  0  0  0  0  0
  141.3330   72.3564  226.0082 H   0  0  0  0  0  0  0  0  0  0  0  0
  141.5942   71.1328  228.0198 H   0  0  0  0  0  0  0  0  0  0  0  0
  141.1699   69.0626  229.3627 H   0  0  0  0  0  0  0  0  0  0  0  0
  139.8574   67.2233  228.3309 H   0  0  0  0  0  0  0  0  0  0  0  0
  138.9743   67.3994  226.0348 H   0  0  0  0  0  0  0  0  0  0  0  0
  138.7259   68.6691  224.0025 H   0  0  0  0  0  0  0  0  0  0  0  0
  142.0452   74.6850  222.3205 H   0  0  0  0  0  0  0  0  0  0  0  0
  141.7833   73.9909  220.6358 H   0  0  0  0  0  0  0  0  0  0  0  0
  142.5329   76.3673  220.7674 H   0  0  0  0  0  0  0  0  0  0  0  0
  141.0586   76.0016  219.8006 H   0  0  0  0  0  0  0  0  0  0  0  0
  1  2  1  0
  2  3  1  0
  3  4  2  0
  3  5  1  0
  5  6  1  0
  6  7  2  0
  7  8  1  0
  8  9  2  0
  9 10  1  0
 10 11  2  0
  5 12  1  0
 12 13  1  0
 13 14  1  0
 14 15  1  0
 15 16  1  0
 16 17  2  0
 16 18  1  0
 18 19  1  0
 18 20  1  0
 20 21  1  0
 21 22  2  0
 22 23  1  0
 23 24  2  0
 24 25  1  0
 25 26  2  0
 26 27  1  0
 27 28  2  0
 28 29  1  0
 29 30  2  0
 15 31  1  0
 31 32  1  0
 11  6  1  0
 32 12  1  0
 30 21  1  0
 29 24  1  0
  1 33  1  0
  1 34  1  0
  1 35  1  0
  2 36  1  0
  2 37  1  0
  7 38  1  0
  8 39  1  0
  9 40  1  0
 10 41  1  0
 11 42  1  0
 12 43  1  0
 13 44  1  0
 13 45  1  0
 14 46  1  0
 14 47  1  0
 18 48  1  6
 19 49  1  0
 19 50  1  0
 20 51  1  0
 20 52  1  0
 22 53  1  0
 23 54  1  0
 25 55  1  0
 26 56  1  0
 27 57  1  0
 28 58  1  0
 30 59  1  0
 31 60  1  0
 31 61  1  0
 32 62  1  0
 32 63  1  0
M  END
>  <smiles>  (20) 
CCC(=O)N(c1ccccc1)C1CCN(C(=O)[C@H](N)Cc2ccc3ccccc3c2)CC1

>  <score_type>  (20) 
oracle

>  <origin>  (20) 
autodockgpu

>  <m_score__min__energy>  (20) 
-9.5700000000000003

>  <m_primary>  (20) 
energy

>  <rmsd>  (20) 
6.339048450296046

>  <m_score__min__rmsd>  (20) 
6.339048450296046

>  <meeko>  (20) 
{"free_energy": -9.42, "intermolecular_energy": -11.8, "internal_energy": -1.55, "cluster_size": 20, "cluster_id": 1, "rank_in_cluster": 4}

>  <energy>  (20) 
-8.42

>  <cluster_rmsd>  (20) 
1.38

>  <cluster>  (20) 
1

$$$$

     RDKit          3D

 63 66  0  0  0  0  0  0  0  0999 V2000
  136.2950   69.3400  224.4360 C   0  0  0  0  0  0  0  0  0  0  0  0
  137.1450   68.5970  223.4470 C   0  0  0  0  0  0  0  0  0  0  0  0
  138.5610   68.4800  223.9060 C   0  0  0  0  0  0  0  0  0  0  0  0
  139.0310   67.3170  224.0100 O   0  0  0  0  0  0  0  0  0  0  0  0
  139.3070   69.6560  224.2010 N   0  0  0  0  0  0  0  0  0  0  0  0
  139.9080   69.8070  225.5050 C   0  0  0  0  0  0  0  0  0  0  0  0
  140.4370   68.6850  226.0910 C   0  0  0  0  0  0  0  0  0  0  0  0
  141.0130   68.8250  227.3440 C   0  0  0  0  0  0  0  0  0  0  0  0
  141.0400   70.0760  227.9620 C   0  0  0  0  0  0  0  0  0  0  0  0
  140.5030   71.2000  227.3610 C   0  0  0  0  0  0  0  0  0  0  0  0
  139.9330   71.0570  226.1190 C   0  0  0  0  0  0  0  0  0  0  0  0
  139.4750   70.6920  223.2240 C   0  0  0  0  0  0  0  0  0  0  0  0
  138.3590   71.7150  223.2700 C   0  0  0  0  0  0  0  0  0  0  0  0
  138.4820   72.5390  222.0010 C   0  0  0  0  0  0  0  0  0  0  0  0
  139.7360   73.2200  221.9230 N   0  0  0  0  0  0  0  0  0  0  0  0
  139.9590   74.5580  221.5470 C   0  0  0  0  0  0  0  0  0  0  0  0
  141.1950   74.9640  221.5800 O   0  0  0  0  0  0  0  0  0  0  0  0
  139.0090   75.5850  221.1140 C   0  0  2  0  0  0  0  0  0  0  0  0
  139.4870   76.5550  220.1860 N   0  0  0  0  0  0  0  0  0  0  0  0
  138.3940   76.2430  222.3490 C   0  0  0  0  0  0  0  0  0  0  0  0
  138.9640   77.5380  222.6910 C   0  0  0  0  0  0  0  0  0  0  0  0
  138.2580   78.6830  222.9860 C   0  0  0  0  0  0  0  0  0  0  0  0
  138.8600   79.8900  223.2960 C   0  0  0  0  0  0  0  0  0  0  0  0
  140.2250   80.0040  223.3240 C   0  0  0  0  0  0  0  0  0  0  0  0
  140.8080   81.2030  223.6320 C   0  0  0  0  0  0  0  0  0  0  0  0
  142.1900   81.3150  223.6600 C   0  0  0  0  0  0  0  0  0  0  0  0
  142.9380   80.1850  223.3680 C   0  0  0  0  0  0  0  0  0  0  0  0
  142.3580   78.9740  223.0580 C   0  0  0  0  0  0  0  0  0  0  0  0
  140.9620   78.8780  223.0340 C   0  0  0  0  0  0  0  0  0  0  0  0
  140.3580   77.6660  222.7230 C   0  0  0  0  0  0  0  0  0  0  0  0
  140.9170   72.4260  222.2590 C   0  0  0  0  0  0  0  0  0  0  0  0
  140.7480   71.4920  223.3950 C   0  0  0  0  0  0  0  0  0  0  0  0
  136.6019   69.0718  225.4577 H   0  0  0  0  0  0  0  0  0  0  0  0
  136.4212   70.4226  224.2876 H   0  0  0  0  0  0  0  0  0  0  0  0
  135.2390   69.0702  224.2876 H   0  0  0  0  0  0  0  0  0  0  0  0
  136.7310   67.5871  223.3104 H   0  0  0  0  0  0  0  0  0  0  0  0
  137.1387   69.1597  222.5019 H   0  0  0  0  0  0  0  0  0  0  0  0
  140.4052   67.7090  225.5846 H   0  0  0  0  0  0  0  0  0  0  0  0
  141.4483   67.9510  227.8506 H   0  0  0  0  0  0  0  0  0  0  0  0
  141.5017   70.1708  228.9559 H   0  0  0  0  0  0  0  0  0  0  0  0
  140.5314   72.1788  227.8621 H   0  0  0  0  0  0  0  0  0  0  0  0
  139.4967   71.9291  225.6099 H   0  0  0  0  0  0  0  0  0  0  0  0
  139.4897   70.1374  222.2742 H   0  0  0  0  0  0  0  0  0  0  0  0
  137.3818   71.2110  223.3034 H   0  0  0  0  0  0  0  0  0  0  0  0
  138.4346   72.3483  224.1662 H   0  0  0  0  0  0  0  0  0  0  0  0
  138.3867   71.8702  221.1329 H   0  0  0  0  0  0  0  0  0  0  0  0
  137.6845   73.2966  222.0098 H   0  0  0  0  0  0  0  0  0  0  0  0
  138.2501   75.0503  220.5239 H   0  0  0  0  0  0  0  0  0  0  0  0
  139.1140   76.4500  219.2200 H   0  0  0  0  0  0  0  0  0  0  0  0
  140.5240   76.5990  220.1280 H   0  0  0  0  0  0  0  0  0  0  0  0
  137.3179   76.3790  222.1657 H   0  0  0  0  0  0  0  0  0  0  0  0
  138.6053   75.5749  223.1969 H   0  0  0  0  0  0  0  0  0  0  0  0
  137.1591   78.6358  222.9746 H   0  0  0  0  0  0  0  0  0  0  0  0
  138.2359   80.7671  223.5223 H   0  0  0  0  0  0  0  0  0  0  0  0
  140.1805   82.0779  223.8574 H   0  0  0  0  0  0  0  0  0  0  0  0
  142.6771   82.2701  223.9061 H   0  0  0  0  0  0  0  0  0  0  0  0
  144.0355   80.2577  223.3843 H   0  0  0  0  0  0  0  0  0  0  0  0
  142.9823   78.0967  222.8330 H   0  0  0  0  0  0  0  0  0  0  0  0
  140.9861   76.7914  222.4979 H   0  0  0  0  0  0  0  0  0  0  0  0
  141.1939   71.8366  221.3725 H   0  0  0  0  0  0  0  0  0  0  0  0
  141.6897   73.1452  222.5684 H   0  0  0  0  0  0  0  0  0  0  0  0
  141.6069   70.8058  223.4330 H   0  0  0  0  0  0  0  0  0  0  0  0
  140.6887   72.0685  224.3300 H   0  0  0  0  0  0  0  0  0  0  0  0
  1  2  1  0
  2  3  1  0
  3  4  2  0
  3  5  1  0
  5  6  1  0
  6  7  2  0
  7  8  1  0
  8  9  2  0
  9 10  1  0
 10 11  2  0
  5 12  1  0
 12 13  1  0
 13 14  1  0
 14 15  1  0
 15 16  1  0
 16 17  2  0
 16 18  1  0
 18 19  1  0
 18 20  1  0
 20 21  1  0
 21 22  2  0
 22 23  1  0
 23 24  2  0
 24 25  1  0
 25 26  2  0
 26 27  1  0
 27 28  2  0
 28 29  1  0
 29 30  2  0
 15 31  1  0
 31 32  1  0
 11  6  1  0
 32 12  1  0
 30 21  1  0
 29 24  1  0
  1 33  1  0
  1 34  1  0
  1 35  1  0
  2 36  1  0
  2 37  1  0
  7 38  1  0
  8 39  1  0
  9 40  1  0
 10 41  1  0
 11 42  1  0
 12 43  1  0
 13 44  1  0
 13 45  1  0
 14 46  1  0
 14 47  1  0
 18 48  1  6
 19 49  1  0
 19 50  1  0
 20 51  1  0
 20 52  1  0
 22 53  1  0
 23 54  1  0
 25 55  1  0
 26 56  1  0
 27 57  1  0
 28 58  1  0
 30 59  1  0
 31 60  1  0
 31 61  1  0
 32 62  1  0
 32 63  1  0
M  END
>  <smiles>  (21) 
CCC(=O)N(c1ccccc1)C1CCN(C(=O)[C@H](N)Cc2ccc3ccccc3c2)CC1

>  <score_type>  (21) 
oracle

>  <origin>  (21) 
autodockgpu

>  <m_score__min__energy>  (21) 
-9.5700000000000003

>  <m_primary>  (21) 
energy

>  <rmsd>  (21) 
7.392616860112253

>  <m_score__min__rmsd>  (21) 
7.392616860112253

>  <meeko>  (21) 
{"free_energy": -8.68, "intermolecular_energy": -11.06, "internal_energy": -1.87, "cluster_size": 2, "cluster_id": 6, "rank_in_cluster": 1}

>  <energy>  (21) 
-9.33

>  <cluster_rmsd>  (21) 
0.0

>  <cluster>  (21) 
2

$$$$

     RDKit          3D

 63 66  0  0  0  0  0  0  0  0999 V2000
  142.5560   80.7300  223.3370 C   0  0  0  0  0  0  0  0  0  0  0  0
  142.1950   79.6060  222.4110 C   0  0  0  0  0  0  0  0  0  0  0  0
  141.3220   78.5930  223.0760 C   0  0  0  0  0  0  0  0  0  0  0  0
  141.8650   77.8520  223.9370 O   0  0  0  0  0  0  0  0  0  0  0  0
  139.9460   78.5060  222.7220 N   0  0  0  0  0  0  0  0  0  0  0  0
  139.0890   79.6520  222.9150 C   0  0  0  0  0  0  0  0  0  0  0  0
  138.8110   80.0220  224.2060 C   0  0  0  0  0  0  0  0  0  0  0  0
  137.9870   81.1200  224.3960 C   0  0  0  0  0  0  0  0  0  0  0  0
  137.4750   81.8070  223.2950 C   0  0  0  0  0  0  0  0  0  0  0  0
  137.7630   81.4230  221.9970 C   0  0  0  0  0  0  0  0  0  0  0  0
  138.5800   80.3340  221.8120 C   0  0  0  0  0  0  0  0  0  0  0  0
  139.3960   77.3000  222.1750 C   0  0  0  0  0  0  0  0  0  0  0  0
  140.4390   76.2170  221.9980 C   0  0  0  0  0  0  0  0  0  0  0  0
  139.8040   75.1490  221.1270 C   0  0  0  0  0  0  0  0  0  0  0  0
  138.6410   74.5820  221.7340 N   0  0  0  0  0  0  0  0  0  0  0  0
  138.2960   73.2200  221.8100 C   0  0  0  0  0  0  0  0  0  0  0  0
  137.1940   72.9420  222.4430 O   0  0  0  0  0  0  0  0  0  0  0  0
  138.9870   72.0420  221.2820 C   0  0  2  0  0  0  0  0  0  0  0  0
  138.2390   70.8320  221.2110 N   0  0  0  0  0  0  0  0  0  0  0  0
  140.2970   71.8510  222.0480 C   0  0  0  0  0  0  0  0  0  0  0  0
  140.1490   71.2160  223.3490 C   0  0  0  0  0  0  0  0  0  0  0  0
  139.5400   70.0060  223.5970 C   0  0  0  0  0  0  0  0  0  0  0  0
  139.4230   69.4580  224.8620 C   0  0  0  0  0  0  0  0  0  0  0  0
  139.9210   70.1130  225.9570 C   0  0  0  0  0  0  0  0  0  0  0  0
  139.8000   69.5600  227.2030 C   0  0  0  0  0  0  0  0  0  0  0  0
  140.3060   70.2260  228.3090 C   0  0  0  0  0  0  0  0  0  0  0  0
  140.9260   71.4480  228.1030 C   0  0  0  0  0  0  0  0  0  0  0  0
  141.0530   72.0100  226.8520 C   0  0  0  0  0  0  0  0  0  0  0  0
  140.5370   71.3250  225.7460 C   0  0  0  0  0  0  0  0  0  0  0  0
  140.6540   71.8760  224.4750 C   0  0  0  0  0  0  0  0  0  0  0  0
  137.7020   75.5320  222.3270 C   0  0  0  0  0  0  0  0  0  0  0  0
  138.3210   76.6730  223.0380 C   0  0  0  0  0  0  0  0  0  0  0  0
  142.4485   80.3953  224.3793 H   0  0  0  0  0  0  0  0  0  0  0  0
  143.5972   81.0348  223.1553 H   0  0  0  0  0  0  0  0  0  0  0  0
  141.8870   81.5840  223.1553 H   0  0  0  0  0  0  0  0  0  0  0  0
  141.6618   80.0189  221.5420 H   0  0  0  0  0  0  0  0  0  0  0  0
  143.1253   79.1050  222.1052 H   0  0  0  0  0  0  0  0  0  0  0  0
  139.2271   79.4673  225.0599 H   0  0  0  0  0  0  0  0  0  0  0  0
  137.7366   81.4499  225.4151 H   0  0  0  0  0  0  0  0  0  0  0  0
  136.8245   82.6779  223.4632 H   0  0  0  0  0  0  0  0  0  0  0  0
  137.3500   81.9734  221.1388 H   0  0  0  0  0  0  0  0  0  0  0  0
  138.8319   80.0010  220.7943 H   0  0  0  0  0  0  0  0  0  0  0  0
  138.9780   77.6323  221.2133 H   0  0  0  0  0  0  0  0  0  0  0  0
  141.3334   76.6269  221.5061 H   0  0  0  0  0  0  0  0  0  0  0  0
  140.7546   75.8050  222.9679 H   0  0  0  0  0  0  0  0  0  0  0  0
  139.5182   75.5994  220.1650 H   0  0  0  0  0  0  0  0  0  0  0  0
  140.5402   74.3437  220.9874 H   0  0  0  0  0  0  0  0  0  0  0  0
  139.1709   72.2642  220.2205 H   0  0  0  0  0  0  0  0  0  0  0  0
  138.0650   70.4860  220.2460 H   0  0  0  0  0  0  0  0  0  0  0  0
  137.3260   70.8790  221.7070 H   0  0  0  0  0  0  0  0  0  0  0  0
  140.9652   71.2277  221.4356 H   0  0  0  0  0  0  0  0  0  0  0  0
  140.6991   72.8576  222.2354 H   0  0  0  0  0  0  0  0  0  0  0  0
  139.1252   69.4464  222.7456 H   0  0  0  0  0  0  0  0  0  0  0  0
  138.9246   68.4857  224.9897 H   0  0  0  0  0  0  0  0  0  0  0  0
  139.3014   68.5874  227.3271 H   0  0  0  0  0  0  0  0  0  0  0  0
  140.2180   69.7976  229.3183 H   0  0  0  0  0  0  0  0  0  0  0  0
  141.3317   71.9891  228.9705 H   0  0  0  0  0  0  0  0  0  0  0  0
  141.5521   72.9819  226.7242 H   0  0  0  0  0  0  0  0  0  0  0  0
  141.1527   72.8487  224.3521 H   0  0  0  0  0  0  0  0  0  0  0  0
  137.0720   75.9355  221.5206 H   0  0  0  0  0  0  0  0  0  0  0  0
  137.1391   74.9695  223.0865 H   0  0  0  0  0  0  0  0  0  0  0  0
  137.5495   77.4244  223.2620 H   0  0  0  0  0  0  0  0  0  0  0  0
  138.7738   76.3126  223.9735 H   0  0  0  0  0  0  0  0  0  0  0  0
  1  2  1  0
  2  3  1  0
  3  4  2  0
  3  5  1  0
  5  6  1  0
  6  7  2  0
  7  8  1  0
  8  9  2  0
  9 10  1  0
 10 11  2  0
  5 12  1  0
 12 13  1  0
 13 14  1  0
 14 15  1  0
 15 16  1  0
 16 17  2  0
 16 18  1  0
 18 19  1  0
 18 20  1  0
 20 21  1  0
 21 22  2  0
 22 23  1  0
 23 24  2  0
 24 25  1  0
 25 26  2  0
 26 27  1  0
 27 28  2  0
 28 29  1  0
 29 30  2  0
 15 31  1  0
 31 32  1  0
 11  6  1  0
 32 12  1  0
 30 21  1  0
 29 24  1  0
  1 33  1  0
  1 34  1  0
  1 35  1  0
  2 36  1  0
  2 37  1  0
  7 38  1  0
  8 39  1  0
  9 40  1  0
 10 41  1  0
 11 42  1  0
 12 43  1  0
 13 44  1  0
 13 45  1  0
 14 46  1  0
 14 47  1  0
 18 48  1  6
 19 49  1  0
 19 50  1  0
 20 51  1  0
 20 52  1  0
 22 53  1  0
 23 54  1  0
 25 55  1  0
 26 56  1  0
 27 57  1  0
 28 58  1  0
 30 59  1  0
 31 60  1  0
 31 61  1  0
 32 62  1  0
 32 63  1  0
M  END
>  <smiles>  (22) 
CCC(=O)N(c1ccccc1)C1CCN(C(=O)[C@H](N)Cc2ccc3ccccc3c2)CC1

>  <score_type>  (22) 
oracle

>  <origin>  (22) 
autodockgpu

>  <m_score__min__energy>  (22) 
-9.5700000000000003

>  <m_primary>  (22) 
energy

>  <rmsd>  (22) 
5.979321019193895

>  <m_score__min__rmsd>  (22) 
5.979321019193895

>  <meeko>  (22) 
{"free_energy": -8.17, "intermolecular_energy": -10.56, "internal_energy": -2.33, "cluster_size": 7, "cluster_id": 5, "rank_in_cluster": 6}

>  <energy>  (22) 
-8.88

>  <cluster_rmsd>  (22) 
1.39

>  <cluster>  (22) 
2

$$$$

     RDKit          3D

 63 66  0  0  0  0  0  0  0  0999 V2000
  142.1100   80.4650  218.8640 C   0  0  0  0  0  0  0  0  0  0  0  0
  141.8120   78.9950  218.9050 C   0  0  0  0  0  0  0  0  0  0  0  0
  140.6480   78.6860  219.7860 C   0  0  0  0  0  0  0  0  0  0  0  0
  139.5050   78.7560  219.2640 O   0  0  0  0  0  0  0  0  0  0  0  0
  140.8670   78.3340  221.1480 N   0  0  0  0  0  0  0  0  0  0  0  0
  141.2520   79.3560  222.0930 C   0  0  0  0  0  0  0  0  0  0  0  0
  142.5690   79.4000  222.4740 C   0  0  0  0  0  0  0  0  0  0  0  0
  142.9420   80.3780  223.3820 C   0  0  0  0  0  0  0  0  0  0  0  0
  141.9910   81.2730  223.8730 C   0  0  0  0  0  0  0  0  0  0  0  0
  140.6650   81.2180  223.4810 C   0  0  0  0  0  0  0  0  0  0  0  0
  140.2990   80.2470  222.5800 C   0  0  0  0  0  0  0  0  0  0  0  0
  140.7120   76.9820  221.5980 C   0  0  0  0  0  0  0  0  0  0  0  0
  139.2940   76.4770  221.4340 C   0  0  0  0  0  0  0  0  0  0  0  0
  139.2020   75.1920  222.2360 C   0  0  0  0  0  0  0  0  0  0  0  0
  140.1100   74.1950  221.7600 N   0  0  0  0  0  0  0  0  0  0  0  0
  139.8440   72.8300  221.5470 C   0  0  0  0  0  0  0  0  0  0  0  0
  140.8290   72.1210  221.0780 O   0  0  0  0  0  0  0  0  0  0  0  0
  138.6170   72.0630  221.7710 C   0  0  2  0  0  0  0  0  0  0  0  0
  137.6850   72.5960  222.7090 N   0  0  0  0  0  0  0  0  0  0  0  0
  138.9890   70.6190  222.1060 C   0  0  0  0  0  0  0  0  0  0  0  0
  139.1950   70.3610  223.5240 C   0  0  0  0  0  0  0  0  0  0  0  0
  138.6480   69.3260  224.2480 C   0  0  0  0  0  0  0  0  0  0  0  0
  138.8750   69.1390  225.6000 C   0  0  0  0  0  0  0  0  0  0  0  0
  139.6800   70.0000  226.3000 C   0  0  0  0  0  0  0  0  0  0  0  0
  139.8970   69.8050  227.6360 C   0  0  0  0  0  0  0  0  0  0  0  0
  140.7120   70.6770  228.3410 C   0  0  0  0  0  0  0  0  0  0  0  0
  141.2830   71.7330  227.6480 C   0  0  0  0  0  0  0  0  0  0  0  0
  141.0690   71.9370  226.3030 C   0  0  0  0  0  0  0  0  0  0  0  0
  140.2450   71.0460  225.6060 C   0  0  0  0  0  0  0  0  0  0  0  0
  140.0150   71.2340  224.2480 C   0  0  0  0  0  0  0  0  0  0  0  0
  141.4710   74.6520  221.4820 C   0  0  0  0  0  0  0  0  0  0  0  0
  141.5730   75.9860  220.8500 C   0  0  0  0  0  0  0  0  0  0  0  0
  142.1885   80.8520  219.8907 H   0  0  0  0  0  0  0  0  0  0  0  0
  143.0602   80.6319  218.3356 H   0  0  0  0  0  0  0  0  0  0  0  0
  141.2998   80.9888  218.3356 H   0  0  0  0  0  0  0  0  0  0  0  0
  141.5873   78.6494  217.8851 H   0  0  0  0  0  0  0  0  0  0  0  0
  142.6941   78.4803  219.3137 H   0  0  0  0  0  0  0  0  0  0  0  0
  143.3024   78.6848  222.0732 H   0  0  0  0  0  0  0  0  0  0  0  0
  143.9878   80.4487  223.7157 H   0  0  0  0  0  0  0  0  0  0  0  0
  142.3041   82.0443  224.5921 H   0  0  0  0  0  0  0  0  0  0  0  0
  139.9265   81.9298  223.8785 H   0  0  0  0  0  0  0  0  0  0  0  0
  139.2542   80.1737  222.2438 H   0  0  0  0  0  0  0  0  0  0  0  0
  141.0116   77.0374  222.6550 H   0  0  0  0  0  0  0  0  0  0  0  0
  138.5790   77.2185  221.8199 H   0  0  0  0  0  0  0  0  0  0  0  0
  139.0518   76.3046  220.3749 H   0  0  0  0  0  0  0  0  0  0  0  0
  139.4369   75.4126  223.2877 H   0  0  0  0  0  0  0  0  0  0  0  0
  138.1803   74.7985  222.1295 H   0  0  0  0  0  0  0  0  0  0  0  0
  138.0585   72.1246  220.8253 H   0  0  0  0  0  0  0  0  0  0  0  0
  136.7090   72.6670  222.3570 H   0  0  0  0  0  0  0  0  0  0  0  0
  137.9620   73.5250  223.0860 H   0  0  0  0  0  0  0  0  0  0  0  0
  138.1786   69.9647  221.7521 H   0  0  0  0  0  0  0  0  0  0  0  0
  139.9504   70.4209  221.6095 H   0  0  0  0  0  0  0  0  0  0  0  0
  137.9967   68.6105  223.7247 H   0  0  0  0  0  0  0  0  0  0  0  0
  138.4046   68.2906  226.1186 H   0  0  0  0  0  0  0  0  0  0  0  0
  139.4246   68.9558  228.1515 H   0  0  0  0  0  0  0  0  0  0  0  0
  140.8995   70.5355  229.4156 H   0  0  0  0  0  0  0  0  0  0  0  0
  141.9316   72.4346  228.1930 H   0  0  0  0  0  0  0  0  0  0  0  0
  141.5381   72.7864  225.7849 H   0  0  0  0  0  0  0  0  0  0  0  0
  140.4860   72.0843  223.7331 H   0  0  0  0  0  0  0  0  0  0  0  0
  142.0199   74.6843  222.4347 H   0  0  0  0  0  0  0  0  0  0  0  0
  141.8893   73.9388  220.7565 H   0  0  0  0  0  0  0  0  0  0  0  0
  142.6206   76.3207  220.8732 H   0  0  0  0  0  0  0  0  0  0  0  0
  141.2251   75.9192  219.8086 H   0  0  0  0  0  0  0  0  0  0  0  0
  1  2  1  0
  2  3  1  0
  3  4  2  0
  3  5  1  0
  5  6  1  0
  6  7  2  0
  7  8  1  0
  8  9  2  0
  9 10  1  0
 10 11  2  0
  5 12  1  0
 12 13  1  0
 13 14  1  0
 14 15  1  0
 15 16  1  0
 16 17  2  0
 16 18  1  0
 18 19  1  0
 18 20  1  0
 20 21  1  0
 21 22  2  0
 22 23  1  0
 23 24  2  0
 24 25  1  0
 25 26  2  0
 26 27  1  0
 27 28  2  0
 28 29  1  0
 29 30  2  0
 15 31  1  0
 31 32  1  0
 11  6  1  0
 32 12  1  0
 30 21  1  0
 29 24  1  0
  1 33  1  0
  1 34  1  0
  1 35  1  0
  2 36  1  0
  2 37  1  0
  7 38  1  0
  8 39  1  0
  9 40  1  0
 10 41  1  0
 11 42  1  0
 12 43  1  0
 13 44  1  0
 13 45  1  0
 14 46  1  0
 14 47  1  0
 18 48  1  6
 19 49  1  0
 19 50  1  0
 20 51  1  0
 20 52  1  0
 22 53  1  0
 23 54  1  0
 25 55  1  0
 26 56  1  0
 27 57  1  0
 28 58  1  0
 30 59  1  0
 31 60  1  0
 31 61  1  0
 32 62  1  0
 32 63  1  0
M  END
>  <smiles>  (23) 
CCC(=O)N(c1ccccc1)C1CCN(C(=O)[C@H](N)Cc2ccc3ccccc3c2)CC1

>  <score_type>  (23) 
oracle

>  <origin>  (23) 
autodockgpu

>  <m_score__min__energy>  (23) 
-9.5700000000000003

>  <m_primary>  (23) 
energy

>  <rmsd>  (23) 
6.426930576248637

>  <m_score__min__rmsd>  (23) 
6.426930576248637

>  <meeko>  (23) 
{"free_energy": -8.99, "intermolecular_energy": -11.37, "internal_energy": -1.67, "cluster_size": 20, "cluster_id": 1, "rank_in_cluster": 13}

>  <energy>  (23) 
-8.72

>  <cluster_rmsd>  (23) 
1.41

>  <cluster>  (23) 
2

$$$$

     RDKit          3D

 63 66  0  0  0  0  0  0  0  0999 V2000
  142.1880   80.6110  218.8170 C   0  0  0  0  0  0  0  0  0  0  0  0
  141.8300   79.1550  218.7860 C   0  0  0  0  0  0  0  0  0  0  0  0
  140.7110   78.8350  219.7210 C   0  0  0  0  0  0  0  0  0  0  0  0
  139.5420   78.9520  219.2700 O   0  0  0  0  0  0  0  0  0  0  0  0
  141.0000   78.4210  221.0520 N   0  0  0  0  0  0  0  0  0  0  0  0
  141.3450   79.4110  222.0450 C   0  0  0  0  0  0  0  0  0  0  0  0
  142.6420   79.4310  222.4930 C   0  0  0  0  0  0  0  0  0  0  0  0
  142.9770   80.3780  223.4470 C   0  0  0  0  0  0  0  0  0  0  0  0
  142.0100   81.2680  223.9150 C   0  0  0  0  0  0  0  0  0  0  0  0
  140.7050   81.2380  223.4560 C   0  0  0  0  0  0  0  0  0  0  0  0
  140.3760   80.2970  222.5100 C   0  0  0  0  0  0  0  0  0  0  0  0
  140.9530   77.0370  221.4250 C   0  0  0  0  0  0  0  0  0  0  0  0
  139.5490   76.4720  221.3740 C   0  0  0  0  0  0  0  0  0  0  0  0
  139.5990   75.1370  222.0940 C   0  0  0  0  0  0  0  0  0  0  0  0
  140.4950   74.2190  221.4620 N   0  0  0  0  0  0  0  0  0  0  0  0
  140.2680   72.8580  221.1860 C   0  0  0  0  0  0  0  0  0  0  0  0
  141.2280   72.2300  220.5730 O   0  0  0  0  0  0  0  0  0  0  0  0
  139.1060   72.0170  221.4840 C   0  0  2  0  0  0  0  0  0  0  0  0
  138.1580   72.5330  222.4140 N   0  0  0  0  0  0  0  0  0  0  0  0
  139.5930   70.6250  221.8880 C   0  0  0  0  0  0  0  0  0  0  0  0
  139.5770   70.3720  223.3210 C   0  0  0  0  0  0  0  0  0  0  0  0
  138.8890   69.3650  223.9600 C   0  0  0  0  0  0  0  0  0  0  0  0
  138.9070   69.1810  225.3310 C   0  0  0  0  0  0  0  0  0  0  0  0
  139.6320   70.0170  226.1390 C   0  0  0  0  0  0  0  0  0  0  0  0
  139.6420   69.8250  227.4940 C   0  0  0  0  0  0  0  0  0  0  0  0
  140.3770   70.6720  228.3090 C   0  0  0  0  0  0  0  0  0  0  0  0
  141.0840   71.7000  227.7050 C   0  0  0  0  0  0  0  0  0  0  0  0
  141.0790   71.9000  226.3420 C   0  0  0  0  0  0  0  0  0  0  0  0
  140.3320   71.0350  225.5340 C   0  0  0  0  0  0  0  0  0  0  0  0
  140.3140   71.2200  224.1560 C   0  0  0  0  0  0  0  0  0  0  0  0
  141.7970   74.7600  221.0770 C   0  0  0  0  0  0  0  0  0  0  0  0
  141.7730   76.1350  220.5280 C   0  0  0  0  0  0  0  0  0  0  0  0
  142.2704   80.9462  219.8615 H   0  0  0  0  0  0  0  0  0  0  0  0
  143.1503   80.7629  218.3061 H   0  0  0  0  0  0  0  0  0  0  0  0
  141.4059   81.1918  218.3061 H   0  0  0  0  0  0  0  0  0  0  0  0
  141.5268   78.8854  217.7636 H   0  0  0  0  0  0  0  0  0  0  0  0
  142.7130   78.5808  219.1032 H   0  0  0  0  0  0  0  0  0  0  0  0
  143.3887   78.7207  222.1084 H   0  0  0  0  0  0  0  0  0  0  0  0
  144.0050   80.4282  223.8353 H   0  0  0  0  0  0  0  0  0  0  0  0
  142.2932   82.0153  224.6709 H   0  0  0  0  0  0  0  0  0  0  0  0
  139.9539   81.9457  223.8367 H   0  0  0  0  0  0  0  0  0  0  0  0
  139.3487   80.2436  222.1205 H   0  0  0  0  0  0  0  0  0  0  0  0
  141.3596   77.0417  222.4471 H   0  0  0  0  0  0  0  0  0  0  0  0
  138.8468   77.1511  221.8797 H   0  0  0  0  0  0  0  0  0  0  0  0
  139.2040   76.3532  220.3363 H   0  0  0  0  0  0  0  0  0  0  0  0
  139.9335   75.3041  223.1285 H   0  0  0  0  0  0  0  0  0  0  0  0
  138.5902   74.6992  222.0670 H   0  0  0  0  0  0  0  0  0  0  0  0
  138.5230   71.9832  220.5518 H   0  0  0  0  0  0  0  0  0  0  0  0
  138.5760   73.0090  223.2390 H   0  0  0  0  0  0  0  0  0  0  0  0
  137.4860   71.8180  222.7600 H   0  0  0  0  0  0  0  0  0  0  0  0
  138.9469   69.8801  221.4004 H   0  0  0  0  0  0  0  0  0  0  0  0
  140.6439   70.5570  221.5702 H   0  0  0  0  0  0  0  0  0  0  0  0
  138.2941   68.6706  223.3485 H   0  0  0  0  0  0  0  0  0  0  0  0
  138.3334   68.3551  225.7770 H   0  0  0  0  0  0  0  0  0  0  0  0
  139.0667   68.9984  227.9365 H   0  0  0  0  0  0  0  0  0  0  0  0
  140.3985   70.5328  229.3999 H   0  0  0  0  0  0  0  0  0  0  0  0
  141.6711   72.3817  228.3379 H   0  0  0  0  0  0  0  0  0  0  0  0
  141.6526   72.7259  225.8960 H   0  0  0  0  0  0  0  0  0  0  0  0
  140.8890   72.0472  223.7143 H   0  0  0  0  0  0  0  0  0  0  0  0
  142.4417   74.7610  221.9682 H   0  0  0  0  0  0  0  0  0  0  0  0
  142.1671   74.1150  220.2664 H   0  0  0  0  0  0  0  0  0  0  0  0
  142.8014   76.5204  220.4662 H   0  0  0  0  0  0  0  0  0  0  0  0
  141.3207   76.1154  219.5255 H   0  0  0  0  0  0  0  0  0  0  0  0
  1  2  1  0
  2  3  1  0
  3  4  2  0
  3  5  1  0
  5  6  1  0
  6  7  2  0
  7  8  1  0
  8  9  2  0
  9 10  1  0
 10 11  2  0
  5 12  1  0
 12 13  1  0
 13 14  1  0
 14 15  1  0
 15 16  1  0
 16 17  2  0
 16 18  1  0
 18 19  1  0
 18 20  1  0
 20 21  1  0
 21 22  2  0
 22 23  1  0
 23 24  2  0
 24 25  1  0
 25 26  2  0
 26 27  1  0
 27 28  2  0
 28 29  1  0
 29 30  2  0
 15 31  1  0
 31 32  1  0
 11  6  1  0
 32 12  1  0
 30 21  1  0
 29 24  1  0
  1 33  1  0
  1 34  1  0
  1 35  1  0
  2 36  1  0
  2 37  1  0
  7 38  1  0
  8 39  1  0
  9 40  1  0
 10 41  1  0
 11 42  1  0
 12 43  1  0
 13 44  1  0
 13 45  1  0
 14 46  1  0
 14 47  1  0
 18 48  1  6
 19 49  1  0
 19 50  1  0
 20 51  1  0
 20 52  1  0
 22 53  1  0
 23 54  1  0
 25 55  1  0
 26 56  1  0
 27 57  1  0
 28 58  1  0
 30 59  1  0
 31 60  1  0
 31 61  1  0
 32 62  1  0
 32 63  1  0
M  END
>  <smiles>  (24) 
CCC(=O)N(c1ccccc1)C1CCN(C(=O)[C@H](N)Cc2ccc3ccccc3c2)CC1

>  <score_type>  (24) 
oracle

>  <origin>  (24) 
autodockgpu

>  <m_score__min__energy>  (24) 
-9.5700000000000003

>  <m_primary>  (24) 
energy

>  <rmsd>  (24) 
6.294487684973922

>  <m_score__min__rmsd>  (24) 
6.294487684973922

>  <meeko>  (24) 
{"free_energy": -9.02, "intermolecular_energy": -11.41, "internal_energy": -1.72, "cluster_size": 20, "cluster_id": 1, "rank_in_cluster": 12}

>  <energy>  (24) 
-8.69

>  <cluster_rmsd>  (24) 
0.47

>  <cluster>  (24) 
2

$$$$

     RDKit          3D

 63 66  0  0  0  0  0  0  0  0999 V2000
  139.0190   79.3700  222.7110 C   0  0  0  0  0  0  0  0  0  0  0  0
  140.2800   79.7290  223.4410 C   0  0  0  0  0  0  0  0  0  0  0  0
  141.4870   79.1310  222.7960 C   0  0  0  0  0  0  0  0  0  0  0  0
  142.5280   79.0560  223.4990 O   0  0  0  0  0  0  0  0  0  0  0  0
  141.4170   78.6800  221.4480 N   0  0  0  0  0  0  0  0  0  0  0  0
  141.6330   79.6190  220.3730 C   0  0  0  0  0  0  0  0  0  0  0  0
  142.1750   79.1330  219.2090 C   0  0  0  0  0  0  0  0  0  0  0  0
  142.3860   80.0320  218.1750 C   0  0  0  0  0  0  0  0  0  0  0  0
  142.0490   81.3760  218.3400 C   0  0  0  0  0  0  0  0  0  0  0  0
  141.5040   81.8540  219.5190 C   0  0  0  0  0  0  0  0  0  0  0  0
  141.2960   80.9600  220.5420 C   0  0  0  0  0  0  0  0  0  0  0  0
  141.1360   77.3090  221.1380 C   0  0  0  0  0  0  0  0  0  0  0  0
  140.6690   76.5260  222.3480 C   0  0  0  0  0  0  0  0  0  0  0  0
  140.7310   75.0610  221.9590 C   0  0  0  0  0  0  0  0  0  0  0  0
  139.8770   74.7620  220.8520 N   0  0  0  0  0  0  0  0  0  0  0  0
  139.0060   73.6640  220.7180 C   0  0  0  0  0  0  0  0  0  0  0  0
  138.3030   73.6210  219.6240 O   0  0  0  0  0  0  0  0  0  0  0  0
  138.7590   72.5410  221.6250 C   0  0  2  0  0  0  0  0  0  0  0  0
  137.8580   72.7690  222.7040 N   0  0  0  0  0  0  0  0  0  0  0  0
  140.1010   71.9970  222.1170 C   0  0  0  0  0  0  0  0  0  0  0  0
  140.0350   71.2820  223.3820 C   0  0  0  0  0  0  0  0  0  0  0  0
  139.4660   70.0450  223.5880 C   0  0  0  0  0  0  0  0  0  0  0  0
  139.4270   69.4200  224.8210 C   0  0  0  0  0  0  0  0  0  0  0  0
  139.9700   70.0190  225.9270 C   0  0  0  0  0  0  0  0  0  0  0  0
  139.9260   69.3900  227.1410 C   0  0  0  0  0  0  0  0  0  0  0  0
  140.4770   70.0000  228.2580 C   0  0  0  0  0  0  0  0  0  0  0  0
  141.0600   71.2460  228.0950 C   0  0  0  0  0  0  0  0  0  0  0  0
  141.1090   71.8860  226.8760 C   0  0  0  0  0  0  0  0  0  0  0  0
  140.5490   71.2570  225.7580 C   0  0  0  0  0  0  0  0  0  0  0  0
  140.5870   71.8850  224.5190 C   0  0  0  0  0  0  0  0  0  0  0  0
  139.9320   75.6990  219.7320 C   0  0  0  0  0  0  0  0  0  0  0  0
  140.0430   77.1260  220.1060 C   0  0  0  0  0  0  0  0  0  0  0  0
  138.2257   79.1441  223.4387 H   0  0  0  0  0  0  0  0  0  0  0  0
  138.7076   80.2152  222.0796 H   0  0  0  0  0  0  0  0  0  0  0  0
  139.1994   78.4875  222.0796 H   0  0  0  0  0  0  0  0  0  0  0  0
  140.3868   80.8238  223.4490 H   0  0  0  0  0  0  0  0  0  0  0  0
  140.2071   79.3299  224.4634 H   0  0  0  0  0  0  0  0  0  0  0  0
  142.4325   78.0690  219.1008 H   0  0  0  0  0  0  0  0  0  0  0  0
  142.8189   79.6860  217.2248 H   0  0  0  0  0  0  0  0  0  0  0  0
  142.2215   82.0758  217.5090 H   0  0  0  0  0  0  0  0  0  0  0  0
  141.2452   82.9169  219.6338 H   0  0  0  0  0  0  0  0  0  0  0  0
  140.8637   81.3032  221.4935 H   0  0  0  0  0  0  0  0  0  0  0  0
  142.0986   76.9411  220.7531 H   0  0  0  0  0  0  0  0  0  0  0  0
  141.3300   76.7204  223.2055 H   0  0  0  0  0  0  0  0  0  0  0  0
  139.6504   76.8178  222.6435 H   0  0  0  0  0  0  0  0  0  0  0  0
  141.7666   74.8100  221.6860 H   0  0  0  0  0  0  0  0  0  0  0  0
  140.3902   74.4671  222.8199 H   0  0  0  0  0  0  0  0  0  0  0  0
  138.2188   71.7947  221.0239 H   0  0  0  0  0  0  0  0  0  0  0  0
  137.6870   73.7720  222.9210 H   0  0  0  0  0  0  0  0  0  0  0  0
  138.1350   72.2910  223.5850 H   0  0  0  0  0  0  0  0  0  0  0  0
  140.4935   71.3091  221.3536 H   0  0  0  0  0  0  0  0  0  0  0  0
  140.7497   72.8694  222.2843 H   0  0  0  0  0  0  0  0  0  0  0  0
  139.0191   69.5269  222.7267 H   0  0  0  0  0  0  0  0  0  0  0  0
  138.9548   68.4310  224.9148 H   0  0  0  0  0  0  0  0  0  0  0  0
  139.4537   68.4007  227.2312 H   0  0  0  0  0  0  0  0  0  0  0  0
  140.4519   69.5098  229.2424 H   0  0  0  0  0  0  0  0  0  0  0  0
  141.5004   71.7431  228.9719 H   0  0  0  0  0  0  0  0  0  0  0  0
  141.5806   72.8754  226.7828 H   0  0  0  0  0  0  0  0  0  0  0  0
  141.0595   72.8743  224.4296 H   0  0  0  0  0  0  0  0  0  0  0  0
  140.8054   75.4405  219.1153 H   0  0  0  0  0  0  0  0  0  0  0  0
  138.9730   75.5971  219.2030 H   0  0  0  0  0  0  0  0  0  0  0  0
  140.2840   77.7191  219.2115 H   0  0  0  0  0  0  0  0  0  0  0  0
  139.0859   77.4627  220.5310 H   0  0  0  0  0  0  0  0  0  0  0  0
  1  2  1  0
  2  3  1  0
  3  4  2  0
  3  5  1  0
  5  6  1  0
  6  7  2  0
  7  8  1  0
  8  9  2  0
  9 10  1  0
 10 11  2  0
  5 12  1  0
 12 13  1  0
 13 14  1  0
 14 15  1  0
 15 16  1  0
 16 17  2  0
 16 18  1  0
 18 19  1  0
 18 20  1  0
 20 21  1  0
 21 22  2  0
 22 23  1  0
 23 24  2  0
 24 25  1  0
 25 26  2  0
 26 27  1  0
 27 28  2  0
 28 29  1  0
 29 30  2  0
 15 31  1  0
 31 32  1  0
 11  6  1  0
 32 12  1  0
 30 21  1  0
 29 24  1  0
  1 33  1  0
  1 34  1  0
  1 35  1  0
  2 36  1  0
  2 37  1  0
  7 38  1  0
  8 39  1  0
  9 40  1  0
 10 41  1  0
 11 42  1  0
 12 43  1  0
 13 44  1  0
 13 45  1  0
 14 46  1  0
 14 47  1  0
 18 48  1  6
 19 49  1  0
 19 50  1  0
 20 51  1  0
 20 52  1  0
 22 53  1  0
 23 54  1  0
 25 55  1  0
 26 56  1  0
 27 57  1  0
 28 58  1  0
 30 59  1  0
 31 60  1  0
 31 61  1  0
 32 62  1  0
 32 63  1  0
M  END
>  <smiles>  (25) 
CCC(=O)N(c1ccccc1)C1CCN(C(=O)[C@H](N)Cc2ccc3ccccc3c2)CC1

>  <score_type>  (25) 
oracle

>  <origin>  (25) 
autodockgpu

>  <m_score__min__energy>  (25) 
-9.5700000000000003

>  <m_primary>  (25) 
energy

>  <rmsd>  (25) 
5.878367698046157

>  <m_score__min__rmsd>  (25) 
5.878367698046157

>  <meeko>  (25) 
{"free_energy": -8.47, "intermolecular_energy": -10.86, "internal_energy": -1.48, "cluster_size": 20, "cluster_id": 1, "rank_in_cluster": 18}

>  <energy>  (25) 
-8.59

>  <cluster_rmsd>  (25) 
1.45

>  <cluster>  (25) 
2

$$$$

     RDKit          3D

 63 66  0  0  0  0  0  0  0  0999 V2000
  146.3320   73.8060  221.0550 C   0  0  0  0  0  0  0  0  0  0  0  0
  145.4470   72.6530  220.6850 C   0  0  0  0  0  0  0  0  0  0  0  0
  145.2520   72.5490  219.2090 C   0  0  0  0  0  0  0  0  0  0  0  0
  145.9280   71.6760  218.6060 O   0  0  0  0  0  0  0  0  0  0  0  0
  144.3340   73.4190  218.5550 N   0  0  0  0  0  0  0  0  0  0  0  0
  144.7630   74.1600  217.3920 C   0  0  0  0  0  0  0  0  0  0  0  0
  144.0030   75.2380  217.0140 C   0  0  0  0  0  0  0  0  0  0  0  0
  144.4100   75.9510  215.8980 C   0  0  0  0  0  0  0  0  0  0  0  0
  145.5570   75.5640  215.2040 C   0  0  0  0  0  0  0  0  0  0  0  0
  146.3150   74.4750  215.5950 C   0  0  0  0  0  0  0  0  0  0  0  0
  145.9090   73.7700  216.7020 C   0  0  0  0  0  0  0  0  0  0  0  0
  142.9900   73.5710  219.0300 C   0  0  0  0  0  0  0  0  0  0  0  0
  142.3500   72.2470  219.3880 C   0  0  0  0  0  0  0  0  0  0  0  0
  140.8660   72.5180  219.5490 C   0  0  0  0  0  0  0  0  0  0  0  0
  140.6030   73.4610  220.5920 N   0  0  0  0  0  0  0  0  0  0  0  0
  139.6120   73.3770  221.5880 C   0  0  0  0  0  0  0  0  0  0  0  0
  139.5850   74.3500  222.4520 O   0  0  0  0  0  0  0  0  0  0  0  0
  138.5880   72.3550  221.8150 C   0  0  2  0  0  0  0  0  0  0  0  0
  137.6190   72.6260  222.8230 N   0  0  0  0  0  0  0  0  0  0  0  0
  139.2750   71.0070  222.0420 C   0  0  0  0  0  0  0  0  0  0  0  0
  139.4180   70.6300  223.4400 C   0  0  0  0  0  0  0  0  0  0  0  0
  138.8450   69.5360  224.0490 C   0  0  0  0  0  0  0  0  0  0  0  0
  139.0120   69.2350  225.3880 C   0  0  0  0  0  0  0  0  0  0  0  0
  139.7780   70.0350  226.1950 C   0  0  0  0  0  0  0  0  0  0  0  0
  139.9370   69.7260  227.5180 C   0  0  0  0  0  0  0  0  0  0  0  0
  140.7140   70.5370  228.3320 C   0  0  0  0  0  0  0  0  0  0  0  0
  141.3090   71.6500  227.7580 C   0  0  0  0  0  0  0  0  0  0  0  0
  141.1550   71.9670  226.4260 C   0  0  0  0  0  0  0  0  0  0  0  0
  140.3680   71.1370  225.6190 C   0  0  0  0  0  0  0  0  0  0  0  0
  140.1990   71.4400  224.2730 C   0  0  0  0  0  0  0  0  0  0  0  0
  141.4520   74.6500  220.6070 C   0  0  0  0  0  0  0  0  0  0  0  0
  142.8760   74.4140  220.2820 C   0  0  0  0  0  0  0  0  0  0  0  0
  146.3926   73.8849  222.1505 H   0  0  0  0  0  0  0  0  0  0  0  0
  147.3387   73.6425  220.6429 H   0  0  0  0  0  0  0  0  0  0  0  0
  145.9138   74.7362  220.6429 H   0  0  0  0  0  0  0  0  0  0  0  0
  145.9059   71.7220  221.0490 H   0  0  0  0  0  0  0  0  0  0  0  0
  144.4625   72.8185  221.1469 H   0  0  0  0  0  0  0  0  0  0  0  0
  143.1028   75.5258  217.5769 H   0  0  0  0  0  0  0  0  0  0  0  0
  143.8293   76.8216  215.5592 H   0  0  0  0  0  0  0  0  0  0  0  0
  145.8673   76.1415  214.3207 H   0  0  0  0  0  0  0  0  0  0  0  0
  147.2161   74.1822  215.0362 H   0  0  0  0  0  0  0  0  0  0  0  0
  146.4877   72.8990  217.0431 H   0  0  0  0  0  0  0  0  0  0  0  0
  142.4831   74.0600  218.1851 H   0  0  0  0  0  0  0  0  0  0  0  0
  142.5179   71.5139  218.5853 H   0  0  0  0  0  0  0  0  0  0  0  0
  142.7819   71.8319  220.3106 H   0  0  0  0  0  0  0  0  0  0  0  0
  140.4732   72.9171  218.6022 H   0  0  0  0  0  0  0  0  0  0  0  0
  140.3749   71.5706  219.8160 H   0  0  0  0  0  0  0  0  0  0  0  0
  137.9774   72.3458  220.9001 H   0  0  0  0  0  0  0  0  0  0  0  0
  137.5470   73.6270  223.0960 H   0  0  0  0  0  0  0  0  0  0  0  0
  137.7500   72.0630  223.6880 H   0  0  0  0  0  0  0  0  0  0  0  0
  138.6832   70.2303  221.5356 H   0  0  0  0  0  0  0  0  0  0  0  0
  140.2937   71.1034  221.6384 H   0  0  0  0  0  0  0  0  0  0  0  0
  138.2217   68.8664  223.4381 H   0  0  0  0  0  0  0  0  0  0  0  0
  138.5247   68.3437  225.8102 H   0  0  0  0  0  0  0  0  0  0  0  0
  139.4484   68.8338  227.9367 H   0  0  0  0  0  0  0  0  0  0  0  0
  140.8536   70.3047  229.3981 H   0  0  0  0  0  0  0  0  0  0  0  0
  141.9273   72.3046  228.3898 H   0  0  0  0  0  0  0  0  0  0  0  0
  141.6426   72.8579  226.0035 H   0  0  0  0  0  0  0  0  0  0  0  0
  140.6877   72.3323  223.8548 H   0  0  0  0  0  0  0  0  0  0  0  0
  141.0498   75.3641  219.8733 H   0  0  0  0  0  0  0  0  0  0  0  0
  141.4339   75.0238  221.6414 H   0  0  0  0  0  0  0  0  0  0  0  0
  143.3767   75.3795  220.1175 H   0  0  0  0  0  0  0  0  0  0  0  0
  143.3535   73.8831  221.1187 H   0  0  0  0  0  0  0  0  0  0  0  0
  1  2  1  0
  2  3  1  0
  3  4  2  0
  3  5  1  0
  5  6  1  0
  6  7  2  0
  7  8  1  0
  8  9  2  0
  9 10  1  0
 10 11  2  0
  5 12  1  0
 12 13  1  0
 13 14  1  0
 14 15  1  0
 15 16  1  0
 16 17  2  0
 16 18  1  0
 18 19  1  0
 18 20  1  0
 20 21  1  0
 21 22  2  0
 22 23  1  0
 23 24  2  0
 24 25  1  0
 25 26  2  0
 26 27  1  0
 27 28  2  0
 28 29  1  0
 29 30  2  0
 15 31  1  0
 31 32  1  0
 11  6  1  0
 32 12  1  0
 30 21  1  0
 29 24  1  0
  1 33  1  0
  1 34  1  0
  1 35  1  0
  2 36  1  0
  2 37  1  0
  7 38  1  0
  8 39  1  0
  9 40  1  0
 10 41  1  0
 11 42  1  0
 12 43  1  0
 13 44  1  0
 13 45  1  0
 14 46  1  0
 14 47  1  0
 18 48  1  6
 19 49  1  0
 19 50  1  0
 20 51  1  0
 20 52  1  0
 22 53  1  0
 23 54  1  0
 25 55  1  0
 26 56  1  0
 27 57  1  0
 28 58  1  0
 30 59  1  0
 31 60  1  0
 31 61  1  0
 32 62  1  0
 32 63  1  0
M  END
>  <smiles>  (26) 
CCC(=O)N(c1ccccc1)C1CCN(C(=O)[C@H](N)Cc2ccc3ccccc3c2)CC1

>  <score_type>  (26) 
oracle

>  <origin>  (26) 
autodockgpu

>  <m_score__min__energy>  (26) 
-9.5700000000000003

>  <m_primary>  (26) 
energy

>  <rmsd>  (26) 
7.288838148518588

>  <m_score__min__rmsd>  (26) 
7.288838148518588

>  <meeko>  (26) 
{"free_energy": -8.82, "intermolecular_energy": -11.21, "internal_energy": -2.21, "cluster_size": 6, "cluster_id": 3, "rank_in_cluster": 5}

>  <energy>  (26) 
-8.24

>  <cluster_rmsd>  (26) 
1.37

>  <cluster>  (26) 
2

$$$$

     RDKit          3D

 63 66  0  0  0  0  0  0  0  0999 V2000
  142.9260   77.5070  217.1200 C   0  0  0  0  0  0  0  0  0  0  0  0
  142.9310   77.4450  218.6180 C   0  0  0  0  0  0  0  0  0  0  0  0
  142.2190   78.6070  219.2280 C   0  0  0  0  0  0  0  0  0  0  0  0
  142.3530   79.7200  218.6550 O   0  0  0  0  0  0  0  0  0  0  0  0
  141.4370   78.4200  220.4020 N   0  0  0  0  0  0  0  0  0  0  0  0
  141.6470   79.2830  221.5400 C   0  0  0  0  0  0  0  0  0  0  0  0
  141.4590   80.6300  221.3550 C   0  0  0  0  0  0  0  0  0  0  0  0
  141.6610   81.4620  222.4450 C   0  0  0  0  0  0  0  0  0  0  0  0
  142.0410   80.9210  223.6740 C   0  0  0  0  0  0  0  0  0  0  0  0
  142.2280   79.5620  223.8480 C   0  0  0  0  0  0  0  0  0  0  0  0
  142.0260   78.7400  222.7650 C   0  0  0  0  0  0  0  0  0  0  0  0
  140.4430   77.3900  220.4740 C   0  0  0  0  0  0  0  0  0  0  0  0
  141.0350   76.0370  220.8090 C   0  0  0  0  0  0  0  0  0  0  0  0
  139.9500   75.0140  220.5290 C   0  0  0  0  0  0  0  0  0  0  0  0
  138.7890   75.2270  221.3360 N   0  0  0  0  0  0  0  0  0  0  0  0
  138.0430   74.2580  222.0310 C   0  0  0  0  0  0  0  0  0  0  0  0
  137.0360   74.7000  222.7270 O   0  0  0  0  0  0  0  0  0  0  0  0
  138.2170   72.8050  222.1000 C   0  0  2  0  0  0  0  0  0  0  0  0
  137.2900   72.0820  222.9050 N   0  0  0  0  0  0  0  0  0  0  0  0
  139.6630   72.4970  222.4900 C   0  0  0  0  0  0  0  0  0  0  0  0
  139.8060   71.4940  223.5340 C   0  0  0  0  0  0  0  0  0  0  0  0
  139.4840   70.1600  223.4280 C   0  0  0  0  0  0  0  0  0  0  0  0
  139.6360   69.2550  224.4630 C   0  0  0  0  0  0  0  0  0  0  0  0
  140.1280   69.6570  225.6770 C   0  0  0  0  0  0  0  0  0  0  0  0
  140.2740   68.7520  226.6930 C   0  0  0  0  0  0  0  0  0  0  0  0
  140.7730   69.1620  227.9200 C   0  0  0  0  0  0  0  0  0  0  0  0
  141.1090   70.4990  228.0690 C   0  0  0  0  0  0  0  0  0  0  0  0
  140.9660   71.4150  227.0510 C   0  0  0  0  0  0  0  0  0  0  0  0
  140.4610   70.9840  225.8190 C   0  0  0  0  0  0  0  0  0  0  0  0
  140.3080   71.8940  224.7790 C   0  0  0  0  0  0  0  0  0  0  0  0
  138.3230   76.6090  221.4310 C   0  0  0  0  0  0  0  0  0  0  0  0
  139.3890   77.6310  221.5340 C   0  0  0  0  0  0  0  0  0  0  0  0
  142.8414   78.5550  216.7967 H   0  0  0  0  0  0  0  0  0  0  0  0
  143.8617   77.0780  216.7321 H   0  0  0  0  0  0  0  0  0  0  0  0
  142.0712   76.9335  216.7321 H   0  0  0  0  0  0  0  0  0  0  0  0
  142.4341   76.5168  218.9367 H   0  0  0  0  0  0  0  0  0  0  0  0
  143.9775   77.4722  218.9558 H   0  0  0  0  0  0  0  0  0  0  0  0
  141.1589   81.0346  220.3771 H   0  0  0  0  0  0  0  0  0  0  0  0
  141.5218   82.5482  222.3414 H   0  0  0  0  0  0  0  0  0  0  0  0
  142.1963   81.5952  224.5292 H   0  0  0  0  0  0  0  0  0  0  0  0
  142.5291   79.1514  224.8231 H   0  0  0  0  0  0  0  0  0  0  0  0
  142.1637   77.6533  222.8660 H   0  0  0  0  0  0  0  0  0  0  0  0
  139.9951   77.4080  219.4695 H   0  0  0  0  0  0  0  0  0  0  0  0
  141.9151   75.8403  220.1792 H   0  0  0  0  0  0  0  0  0  0  0  0
  141.3630   75.9937  221.8581 H   0  0  0  0  0  0  0  0  0  0  0  0
  139.6629   75.0824  219.4693 H   0  0  0  0  0  0  0  0  0  0  0  0
  140.3522   74.0189  220.7700 H   0  0  0  0  0  0  0  0  0  0  0  0
  137.9866   72.4353  221.0899 H   0  0  0  0  0  0  0  0  0  0  0  0
  136.4760   71.6960  222.3860 H   0  0  0  0  0  0  0  0  0  0  0  0
  136.9300   72.6270  223.7140 H   0  0  0  0  0  0  0  0  0  0  0  0
  140.1914   72.1383  221.5944 H   0  0  0  0  0  0  0  0  0  0  0  0
  140.0837   73.4300  222.8930 H   0  0  0  0  0  0  0  0  0  0  0  0
  139.0850   69.7945  222.4703 H   0  0  0  0  0  0  0  0  0  0  0  0
  139.3590   68.2015  224.3099 H   0  0  0  0  0  0  0  0  0  0  0  0
  139.9955   67.6994  226.5363 H   0  0  0  0  0  0  0  0  0  0  0  0
  140.8983   68.4495  228.7486 H   0  0  0  0  0  0  0  0  0  0  0  0
  141.5046   70.8407  229.0368 H   0  0  0  0  0  0  0  0  0  0  0  0
  141.2441   72.4683  227.2035 H   0  0  0  0  0  0  0  0  0  0  0  0
  140.5860   72.9465  224.9367 H   0  0  0  0  0  0  0  0  0  0  0  0
  137.7270   76.8290  220.5330 H   0  0  0  0  0  0  0  0  0  0  0  0
  137.7495   76.6726  222.3675 H   0  0  0  0  0  0  0  0  0  0  0  0
  138.9508   78.6298  221.3913 H   0  0  0  0  0  0  0  0  0  0  0  0
  139.8558   77.5664  222.5280 H   0  0  0  0  0  0  0  0  0  0  0  0
  1  2  1  0
  2  3  1  0
  3  4  2  0
  3  5  1  0
  5  6  1  0
  6  7  2  0
  7  8  1  0
  8  9  2  0
  9 10  1  0
 10 11  2  0
  5 12  1  0
 12 13  1  0
 13 14  1  0
 14 15  1  0
 15 16  1  0
 16 17  2  0
 16 18  1  0
 18 19  1  0
 18 20  1  0
 20 21  1  0
 21 22  2  0
 22 23  1  0
 23 24  2  0
 24 25  1  0
 25 26  2  0
 26 27  1  0
 27 28  2  0
 28 29  1  0
 29 30  2  0
 15 31  1  0
 31 32  1  0
 11  6  1  0
 32 12  1  0
 30 21  1  0
 29 24  1  0
  1 33  1  0
  1 34  1  0
  1 35  1  0
  2 36  1  0
  2 37  1  0
  7 38  1  0
  8 39  1  0
  9 40  1  0
 10 41  1  0
 11 42  1  0
 12 43  1  0
 13 44  1  0
 13 45  1  0
 14 46  1  0
 14 47  1  0
 18 48  1  6
 19 49  1  0
 19 50  1  0
 20 51  1  0
 20 52  1  0
 22 53  1  0
 23 54  1  0
 25 55  1  0
 26 56  1  0
 27 57  1  0
 28 58  1  0
 30 59  1  0
 31 60  1  0
 31 61  1  0
 32 62  1  0
 32 63  1  0
M  END
>  <smiles>  (27) 
CCC(=O)N(c1ccccc1)C1CCN(C(=O)[C@H](N)Cc2ccc3ccccc3c2)CC1

>  <score_type>  (27) 
oracle

>  <origin>  (27) 
autodockgpu

>  <m_score__min__energy>  (27) 
-9.5700000000000003

>  <m_primary>  (27) 
energy

>  <rmsd>  (27) 
5.7504094342604235

>  <m_score__min__rmsd>  (27) 
5.7504094342604235

>  <meeko>  (27) 
{"free_energy": -8.42, "intermolecular_energy": -10.8, "internal_energy": -1.95, "cluster_size": 20, "cluster_id": 1, "rank_in_cluster": 20}

>  <energy>  (27) 
-9.25

>  <cluster_rmsd>  (27) 
0.0

>  <cluster>  (27) 
3

$$$$

     RDKit          3D

 63 66  0  0  0  0  0  0  0  0999 V2000
  142.4530   80.6220  223.7410 C   0  0  0  0  0  0  0  0  0  0  0  0
  141.1640   80.0070  223.2820 C   0  0  0  0  0  0  0  0  0  0  0  0
  141.3320   78.5720  222.9080 C   0  0  0  0  0  0  0  0  0  0  0  0
  141.8080   77.8070  223.7870 O   0  0  0  0  0  0  0  0  0  0  0  0
  140.9570   78.1320  221.6060 N   0  0  0  0  0  0  0  0  0  0  0  0
  141.4990   78.8020  220.4480 C   0  0  0  0  0  0  0  0  0  0  0  0
  141.3390   80.1630  220.3730 C   0  0  0  0  0  0  0  0  0  0  0  0
  141.8560   80.8100  219.2610 C   0  0  0  0  0  0  0  0  0  0  0  0
  142.5120   80.0780  218.2710 C   0  0  0  0  0  0  0  0  0  0  0  0
  142.6660   78.7060  218.3580 C   0  0  0  0  0  0  0  0  0  0  0  0
  142.1530   78.0680  219.4610 C   0  0  0  0  0  0  0  0  0  0  0  0
  140.0520   77.0360  221.4260 C   0  0  0  0  0  0  0  0  0  0  0  0
  140.6670   75.7080  221.8150 C   0  0  0  0  0  0  0  0  0  0  0  0
  139.7440   74.6330  221.2720 C   0  0  0  0  0  0  0  0  0  0  0  0
  138.4310   74.7200  221.8310 N   0  0  0  0  0  0  0  0  0  0  0  0
  137.6380   73.6630  222.3130 C   0  0  0  0  0  0  0  0  0  0  0  0
  136.4800   73.9950  222.8060 O   0  0  0  0  0  0  0  0  0  0  0  0
  137.9060   72.2240  222.3500 C   0  0  2  0  0  0  0  0  0  0  0  0
  137.0340   71.4250  223.1450 N   0  0  0  0  0  0  0  0  0  0  0  0
  139.3720   72.0030  222.7260 C   0  0  0  0  0  0  0  0  0  0  0  0
  139.5820   71.0470  223.8030 C   0  0  0  0  0  0  0  0  0  0  0  0
  139.3180   69.6970  223.7540 C   0  0  0  0  0  0  0  0  0  0  0  0
  139.5320   68.8390  224.8180 C   0  0  0  0  0  0  0  0  0  0  0  0
  140.0300   69.3080  226.0050 C   0  0  0  0  0  0  0  0  0  0  0  0
  140.2380   68.4500  227.0500 C   0  0  0  0  0  0  0  0  0  0  0  0
  140.7440   68.9280  228.2500 C   0  0  0  0  0  0  0  0  0  0  0  0
  141.0230   70.2820  228.3420 C   0  0  0  0  0  0  0  0  0  0  0  0
  140.8170   71.1530  227.2940 C   0  0  0  0  0  0  0  0  0  0  0  0
  140.3070   70.6540  226.0900 C   0  0  0  0  0  0  0  0  0  0  0  0
  140.0910   71.5150  225.0210 C   0  0  0  0  0  0  0  0  0  0  0  0
  137.8500   76.0600  221.8900 C   0  0  0  0  0  0  0  0  0  0  0  0
  138.7900   77.1420  222.2560 C   0  0  0  0  0  0  0  0  0  0  0  0
  142.4817   80.6357  224.8405 H   0  0  0  0  0  0  0  0  0  0  0  0
  143.2980   80.0300  223.3595 H   0  0  0  0  0  0  0  0  0  0  0  0
  142.5245   81.6513  223.3595 H   0  0  0  0  0  0  0  0  0  0  0  0
  140.4269   80.0782  224.0954 H   0  0  0  0  0  0  0  0  0  0  0  0
  140.8252   80.5536  222.3896 H   0  0  0  0  0  0  0  0  0  0  0  0
  140.8194   80.7204  221.1664 H   0  0  0  0  0  0  0  0  0  0  0  0
  141.7490   81.9001  219.1594 H   0  0  0  0  0  0  0  0  0  0  0  0
  142.9184   80.6069  217.3963 H   0  0  0  0  0  0  0  0  0  0  0  0
  143.1838   78.1428  217.5676 H   0  0  0  0  0  0  0  0  0  0  0  0
  142.2586   76.9780  219.5649 H   0  0  0  0  0  0  0  0  0  0  0  0
  139.8163   77.0844  220.3526 H   0  0  0  0  0  0  0  0  0  0  0  0
  141.6690   75.6084  221.3721 H   0  0  0  0  0  0  0  0  0  0  0  0
  140.7781   75.6243  222.9062 H   0  0  0  0  0  0  0  0  0  0  0  0
  139.6729   74.7448  220.1800 H   0  0  0  0  0  0  0  0  0  0  0  0
  140.1651   73.6544  221.5460 H   0  0  0  0  0  0  0  0  0  0  0  0
  137.6925   71.8615  221.3336 H   0  0  0  0  0  0  0  0  0  0  0  0
  136.0780   71.8160  223.2650 H   0  0  0  0  0  0  0  0  0  0  0  0
  137.4150   71.2080  224.0880 H   0  0  0  0  0  0  0  0  0  0  0  0
  139.9040   71.6386  221.8348 H   0  0  0  0  0  0  0  0  0  0  0  0
  139.7509   72.9701  223.0882 H   0  0  0  0  0  0  0  0  0  0  0  0
  138.9157   69.2783  222.8197 H   0  0  0  0  0  0  0  0  0  0  0  0
  139.2999   67.7692  224.7098 H   0  0  0  0  0  0  0  0  0  0  0  0
  140.0040   67.3809  226.9388 H   0  0  0  0  0  0  0  0  0  0  0  0
  140.9182   68.2535  229.1013 H   0  0  0  0  0  0  0  0  0  0  0  0
  141.4241   70.6767  229.2872 H   0  0  0  0  0  0  0  0  0  0  0  0
  141.0496   72.2227  227.4021 H   0  0  0  0  0  0  0  0  0  0  0  0
  140.3241   72.5841  225.1334 H   0  0  0  0  0  0  0  0  0  0  0  0
  137.4328   76.2932  220.8993 H   0  0  0  0  0  0  0  0  0  0  0  0
  137.0959   76.0291  222.6902 H   0  0  0  0  0  0  0  0  0  0  0  0
  138.3135   78.1161  222.0713 H   0  0  0  0  0  0  0  0  0  0  0  0
  139.0499   77.0490  223.3208 H   0  0  0  0  0  0  0  0  0  0  0  0
  1  2  1  0
  2  3  1  0
  3  4  2  0
  3  5  1  0
  5  6  1  0
  6  7  2  0
  7  8  1  0
  8  9  2  0
  9 10  1  0
 10 11  2  0
  5 12  1  0
 12 13  1  0
 13 14  1  0
 14 15  1  0
 15 16  1  0
 16 17  2  0
 16 18  1  0
 18 19  1  0
 18 20  1  0
 20 21  1  0
 21 22  2  0
 22 23  1  0
 23 24  2  0
 24 25  1  0
 25 26  2  0
 26 27  1  0
 27 28  2  0
 28 29  1  0
 29 30  2  0
 15 31  1  0
 31 32  1  0
 11  6  1  0
 32 12  1  0
 30 21  1  0
 29 24  1  0
  1 33  1  0
  1 34  1  0
  1 35  1  0
  2 36  1  0
  2 37  1  0
  7 38  1  0
  8 39  1  0
  9 40  1  0
 10 41  1  0
 11 42  1  0
 12 43  1  0
 13 44  1  0
 13 45  1  0
 14 46  1  0
 14 47  1  0
 18 48  1  6
 19 49  1  0
 19 50  1  0
 20 51  1  0
 20 52  1  0
 22 53  1  0
 23 54  1  0
 25 55  1  0
 26 56  1  0
 27 57  1  0
 28 58  1  0
 30 59  1  0
 31 60  1  0
 31 61  1  0
 32 62  1  0
 32 63  1  0
M  END
>  <smiles>  (28) 
CCC(=O)N(c1ccccc1)C1CCN(C(=O)[C@H](N)Cc2ccc3ccccc3c2)CC1

>  <score_type>  (28) 
oracle

>  <origin>  (28) 
autodockgpu

>  <m_score__min__energy>  (28) 
-9.5700000000000003

>  <m_primary>  (28) 
energy

>  <rmsd>  (28) 
6.284530863234412

>  <m_score__min__rmsd>  (28) 
6.284530863234412

>  <meeko>  (28) 
{"free_energy": -8.31, "intermolecular_energy": -10.7, "internal_energy": -1.77, "cluster_size": 2, "cluster_id": 7, "rank_in_cluster": 2}

>  <energy>  (28) 
-9.0

>  <cluster_rmsd>  (28) 
0.62

>  <cluster>  (28) 
3

$$$$

     RDKit          3D

 63 66  0  0  0  0  0  0  0  0999 V2000
  145.6370   74.0740  220.7140 C   0  0  0  0  0  0  0  0  0  0  0  0
  146.0870   72.6470  220.6040 C   0  0  0  0  0  0  0  0  0  0  0  0
  145.5590   71.9880  219.3730 C   0  0  0  0  0  0  0  0  0  0  0  0
  145.8020   72.5540  218.2760 O   0  0  0  0  0  0  0  0  0  0  0  0
  144.8200   70.7760  219.4830 N   0  0  0  0  0  0  0  0  0  0  0  0
  145.3600   69.5620  218.9180 C   0  0  0  0  0  0  0  0  0  0  0  0
  145.7850   69.6070  217.6140 C   0  0  0  0  0  0  0  0  0  0  0  0
  146.3020   68.4440  217.0670 C   0  0  0  0  0  0  0  0  0  0  0  0
  146.3760   67.2830  217.8380 C   0  0  0  0  0  0  0  0  0  0  0  0
  145.9430   67.2510  219.1520 C   0  0  0  0  0  0  0  0  0  0  0  0
  145.4310   68.4060  219.6910 C   0  0  0  0  0  0  0  0  0  0  0  0
  143.5500   70.7400  220.1460 C   0  0  0  0  0  0  0  0  0  0  0  0
  143.0740   72.1160  220.5610 C   0  0  0  0  0  0  0  0  0  0  0  0
  141.9170   71.8990  221.5180 C   0  0  0  0  0  0  0  0  0  0  0  0
  140.8340   71.1970  220.9010 N   0  0  0  0  0  0  0  0  0  0  0  0
  139.4620   71.4970  220.9900 C   0  0  0  0  0  0  0  0  0  0  0  0
  138.6620   70.7270  220.3130 O   0  0  0  0  0  0  0  0  0  0  0  0
  138.7750   72.5540  221.7360 C   0  0  2  0  0  0  0  0  0  0  0  0
  139.5930   73.5390  222.3600 N   0  0  0  0  0  0  0  0  0  0  0  0
  137.8090   71.9100  222.7310 C   0  0  0  0  0  0  0  0  0  0  0  0
  138.3980   70.8670  223.5560 C   0  0  0  0  0  0  0  0  0  0  0  0
  138.2520   69.5100  223.3770 C   0  0  0  0  0  0  0  0  0  0  0  0
  138.8330   68.5650  224.2030 C   0  0  0  0  0  0  0  0  0  0  0  0
  139.6020   68.9470  225.2710 C   0  0  0  0  0  0  0  0  0  0  0  0
  140.1720   68.0030  226.0810 C   0  0  0  0  0  0  0  0  0  0  0  0
  140.9510   68.3940  227.1600 C   0  0  0  0  0  0  0  0  0  0  0  0
  141.1230   69.7520  227.3760 C   0  0  0  0  0  0  0  0  0  0  0  0
  140.5540   70.7090  226.5650 C   0  0  0  0  0  0  0  0  0  0  0  0
  139.7710   70.2970  225.4800 C   0  0  0  0  0  0  0  0  0  0  0  0
  139.1870   71.2460  224.6490 C   0  0  0  0  0  0  0  0  0  0  0  0
  141.2020   70.0290  220.1040 C   0  0  0  0  0  0  0  0  0  0  0  0
  142.4320   70.1780  219.2940 C   0  0  0  0  0  0  0  0  0  0  0  0
  145.5499   74.3502  221.7752 H   0  0  0  0  0  0  0  0  0  0  0  0
  146.3721   74.7291  220.2237 H   0  0  0  0  0  0  0  0  0  0  0  0
  144.6590   74.1889  220.2237 H   0  0  0  0  0  0  0  0  0  0  0  0
  147.1864   72.6223  220.5764 H   0  0  0  0  0  0  0  0  0  0  0  0
  145.6987   72.0999  221.4757 H   0  0  0  0  0  0  0  0  0  0  0  0
  145.7176   70.5331  217.0243 H   0  0  0  0  0  0  0  0  0  0  0  0
  146.6542   68.4356  216.0249 H   0  0  0  0  0  0  0  0  0  0  0  0
  146.7899   66.3682  217.3888 H   0  0  0  0  0  0  0  0  0  0  0  0
  146.0069   66.3281  219.7471 H   0  0  0  0  0  0  0  0  0  0  0  0
  145.0773   68.4177  220.7325 H   0  0  0  0  0  0  0  0  0  0  0  0
  143.7424   70.0907  221.0129 H   0  0  0  0  0  0  0  0  0  0  0  0
  143.8852   72.6637  221.0630 H   0  0  0  0  0  0  0  0  0  0  0  0
  142.7638   72.7102  219.6889 H   0  0  0  0  0  0  0  0  0  0  0  0
  142.2736   71.3150  222.3793 H   0  0  0  0  0  0  0  0  0  0  0  0
  141.5465   72.8861  221.8316 H   0  0  0  0  0  0  0  0  0  0  0  0
  138.2373   73.1435  220.9788 H   0  0  0  0  0  0  0  0  0  0  0  0
  139.0940   74.1490  223.0390 H   0  0  0  0  0  0  0  0  0  0  0  0
  140.0950   74.1510  221.6850 H   0  0  0  0  0  0  0  0  0  0  0  0
  137.4250   72.6978  223.3958 H   0  0  0  0  0  0  0  0  0  0  0  0
  137.0207   71.4282  222.1340 H   0  0  0  0  0  0  0  0  0  0  0  0
  137.6410   69.1587  222.5325 H   0  0  0  0  0  0  0  0  0  0  0  0
  138.6761   67.4952  224.0005 H   0  0  0  0  0  0  0  0  0  0  0  0
  140.0125   66.9340  225.8765 H   0  0  0  0  0  0  0  0  0  0  0  0
  141.4172   67.6501  227.8228 H   0  0  0  0  0  0  0  0  0  0  0  0
  141.7376   70.0783  228.2279 H   0  0  0  0  0  0  0  0  0  0  0  0
  140.7121   71.7788  226.7664 H   0  0  0  0  0  0  0  0  0  0  0  0
  139.3477   72.3148  224.8538 H   0  0  0  0  0  0  0  0  0  0  0  0
  141.3474   69.1816  220.7901 H   0  0  0  0  0  0  0  0  0  0  0  0
  140.3816   69.8795  219.3866 H   0  0  0  0  0  0  0  0  0  0  0  0
  142.7316   69.1945  218.9029 H   0  0  0  0  0  0  0  0  0  0  0  0
  142.2331   70.8672  218.4601 H   0  0  0  0  0  0  0  0  0  0  0  0
  1  2  1  0
  2  3  1  0
  3  4  2  0
  3  5  1  0
  5  6  1  0
  6  7  2  0
  7  8  1  0
  8  9  2  0
  9 10  1  0
 10 11  2  0
  5 12  1  0
 12 13  1  0
 13 14  1  0
 14 15  1  0
 15 16  1  0
 16 17  2  0
 16 18  1  0
 18 19  1  0
 18 20  1  0
 20 21  1  0
 21 22  2  0
 22 23  1  0
 23 24  2  0
 24 25  1  0
 25 26  2  0
 26 27  1  0
 27 28  2  0
 28 29  1  0
 29 30  2  0
 15 31  1  0
 31 32  1  0
 11  6  1  0
 32 12  1  0
 30 21  1  0
 29 24  1  0
  1 33  1  0
  1 34  1  0
  1 35  1  0
  2 36  1  0
  2 37  1  0
  7 38  1  0
  8 39  1  0
  9 40  1  0
 10 41  1  0
 11 42  1  0
 12 43  1  0
 13 44  1  0
 13 45  1  0
 14 46  1  0
 14 47  1  0
 18 48  1  6
 19 49  1  0
 19 50  1  0
 20 51  1  0
 20 52  1  0
 22 53  1  0
 23 54  1  0
 25 55  1  0
 26 56  1  0
 27 57  1  0
 28 58  1  0
 30 59  1  0
 31 60  1  0
 31 61  1  0
 32 62  1  0
 32 63  1  0
M  END
>  <smiles>  (29) 
CCC(=O)N(c1ccccc1)C1CCN(C(=O)[C@H](N)Cc2ccc3ccccc3c2)CC1

>  <score_type>  (29) 
oracle

>  <origin>  (29) 
autodockgpu

>  <m_score__min__energy>  (29) 
-9.5700000000000003

>  <m_primary>  (29) 
energy

>  <rmsd>  (29) 
8.55431934229484

>  <m_score__min__rmsd>  (29) 
8.55431934229484

>  <meeko>  (29) 
{"free_energy": -8.72, "intermolecular_energy": -11.11, "internal_energy": -1.78, "cluster_size": 6, "cluster_id": 2, "rank_in_cluster": 3}

>  <energy>  (29) 
-8.95

>  <cluster_rmsd>  (29) 
0.41

>  <cluster>  (29) 
3

$$$$

     RDKit          3D

 63 66  0  0  0  0  0  0  0  0999 V2000
  142.6920   77.6640  217.8870 C   0  0  0  0  0  0  0  0  0  0  0  0
  142.1980   78.8240  218.6990 C   0  0  0  0  0  0  0  0  0  0  0  0
  141.0200   78.4560  219.5390 C   0  0  0  0  0  0  0  0  0  0  0  0
  139.8920   78.4870  218.9820 O   0  0  0  0  0  0  0  0  0  0  0  0
  141.2110   78.0940  220.9030 N   0  0  0  0  0  0  0  0  0  0  0  0
  141.5410   79.1150  221.8690 C   0  0  0  0  0  0  0  0  0  0  0  0
  141.8320   78.7050  223.1460 C   0  0  0  0  0  0  0  0  0  0  0  0
  142.1480   79.6820  224.0770 C   0  0  0  0  0  0  0  0  0  0  0  0
  142.1620   81.0260  223.7010 C   0  0  0  0  0  0  0  0  0  0  0  0
  141.8650   81.4260  222.4100 C   0  0  0  0  0  0  0  0  0  0  0  0
  141.5530   80.4550  221.4890 C   0  0  0  0  0  0  0  0  0  0  0  0
  141.0810   76.7330  221.3340 C   0  0  0  0  0  0  0  0  0  0  0  0
  139.6550   76.2320  221.2450 C   0  0  0  0  0  0  0  0  0  0  0  0
  139.6090   74.9310  222.0240 C   0  0  0  0  0  0  0  0  0  0  0  0
  140.4850   73.9440  221.4740 N   0  0  0  0  0  0  0  0  0  0  0  0
  140.2040   72.5840  221.2490 C   0  0  0  0  0  0  0  0  0  0  0  0
  141.1580   71.8840  220.7080 O   0  0  0  0  0  0  0  0  0  0  0  0
  138.9910   71.8130  221.5310 C   0  0  2  0  0  0  0  0  0  0  0  0
  138.0390   72.4060  222.4090 N   0  0  0  0  0  0  0  0  0  0  0  0
  139.3910   70.4130  221.9980 C   0  0  0  0  0  0  0  0  0  0  0  0
  139.4780   70.2590  223.4420 C   0  0  0  0  0  0  0  0  0  0  0  0
  138.8060   69.3280  224.2020 C   0  0  0  0  0  0  0  0  0  0  0  0
  138.9250   69.2380  225.5770 C   0  0  0  0  0  0  0  0  0  0  0  0
  139.7410   70.0970  226.2670 C   0  0  0  0  0  0  0  0  0  0  0  0
  139.8510   69.9970  227.6270 C   0  0  0  0  0  0  0  0  0  0  0  0
  140.6770   70.8670  228.3220 C   0  0  0  0  0  0  0  0  0  0  0  0
  141.3720   71.8210  227.5940 C   0  0  0  0  0  0  0  0  0  0  0  0
  141.2680   71.9260  226.2240 C   0  0  0  0  0  0  0  0  0  0  0  0
  140.4290   71.0400  225.5390 C   0  0  0  0  0  0  0  0  0  0  0  0
  140.3090   71.1310  224.1570 C   0  0  0  0  0  0  0  0  0  0  0  0
  141.8270   74.4050  221.1250 C   0  0  0  0  0  0  0  0  0  0  0  0
  141.8940   75.7520  220.5150 C   0  0  0  0  0  0  0  0  0  0  0  0
  143.0328   76.8637  218.5604 H   0  0  0  0  0  0  0  0  0  0  0  0
  141.8764   77.2868  217.2525 H   0  0  0  0  0  0  0  0  0  0  0  0
  143.5291   77.9906  217.2525 H   0  0  0  0  0  0  0  0  0  0  0  0
  143.0096   79.1686  219.3567 H   0  0  0  0  0  0  0  0  0  0  0  0
  141.8857   79.6174  218.0040 H   0  0  0  0  0  0  0  0  0  0  0  0
  141.8151   77.6400  223.4206 H   0  0  0  0  0  0  0  0  0  0  0  0
  142.3878   79.3981  225.1123 H   0  0  0  0  0  0  0  0  0  0  0  0
  142.4162   81.7886  224.4519 H   0  0  0  0  0  0  0  0  0  0  0  0
  141.8783   82.4895  222.1294 H   0  0  0  0  0  0  0  0  0  0  0  0
  141.3130   80.7357  220.4528 H   0  0  0  0  0  0  0  0  0  0  0  0
  141.4435   76.7666  222.3720 H   0  0  0  0  0  0  0  0  0  0  0  0
  138.9656   76.9656  221.6884 H   0  0  0  0  0  0  0  0  0  0  0  0
  139.3496   76.0816  220.1990 H   0  0  0  0  0  0  0  0  0  0  0  0
  139.9068   75.1296  223.0641 H   0  0  0  0  0  0  0  0  0  0  0  0
  138.5821   74.5402  221.9707 H   0  0  0  0  0  0  0  0  0  0  0  0
  138.4409   71.7776  220.5791 H   0  0  0  0  0  0  0  0  0  0  0  0
  138.4510   72.9930  223.1620 H   0  0  0  0  0  0  0  0  0  0  0  0
  137.3960   71.7180  222.8510 H   0  0  0  0  0  0  0  0  0  0  0  0
  138.6440   69.6989  221.6210 H   0  0  0  0  0  0  0  0  0  0  0  0
  140.4010   70.2289  221.6030 H   0  0  0  0  0  0  0  0  0  0  0  0
  138.1398   68.6189  223.6888 H   0  0  0  0  0  0  0  0  0  0  0  0
  138.3589   68.4689  226.1229 H   0  0  0  0  0  0  0  0  0  0  0  0
  139.2839   69.2261  228.1693 H   0  0  0  0  0  0  0  0  0  0  0  0
  140.7778   70.8026  229.4155 H   0  0  0  0  0  0  0  0  0  0  0  0
  142.0308   72.5199  228.1301 H   0  0  0  0  0  0  0  0  0  0  0  0
  141.8353   72.6939  225.6776 H   0  0  0  0  0  0  0  0  0  0  0  0
  140.8769   71.9017  223.6152 H   0  0  0  0  0  0  0  0  0  0  0  0
  142.4318   74.4175  222.0438 H   0  0  0  0  0  0  0  0  0  0  0  0
  142.1999   73.7063  220.3616 H   0  0  0  0  0  0  0  0  0  0  0  0
  142.9418   76.0853  220.4823 H   0  0  0  0  0  0  0  0  0  0  0  0
  141.4846   75.7071  219.4950 H   0  0  0  0  0  0  0  0  0  0  0  0
  1  2  1  0
  2  3  1  0
  3  4  2  0
  3  5  1  0
  5  6  1  0
  6  7  2  0
  7  8  1  0
  8  9  2  0
  9 10  1  0
 10 11  2  0
  5 12  1  0
 12 13  1  0
 13 14  1  0
 14 15  1  0
 15 16  1  0
 16 17  2  0
 16 18  1  0
 18 19  1  0
 18 20  1  0
 20 21  1  0
 21 22  2  0
 22 23  1  0
 23 24  2  0
 24 25  1  0
 25 26  2  0
 26 27  1  0
 27 28  2  0
 28 29  1  0
 29 30  2  0
 15 31  1  0
 31 32  1  0
 11  6  1  0
 32 12  1  0
 30 21  1  0
 29 24  1  0
  1 33  1  0
  1 34  1  0
  1 35  1  0
  2 36  1  0
  2 37  1  0
  7 38  1  0
  8 39  1  0
  9 40  1  0
 10 41  1  0
 11 42  1  0
 12 43  1  0
 13 44  1  0
 13 45  1  0
 14 46  1  0
 14 47  1  0
 18 48  1  6
 19 49  1  0
 19 50  1  0
 20 51  1  0
 20 52  1  0
 22 53  1  0
 23 54  1  0
 25 55  1  0
 26 56  1  0
 27 57  1  0
 28 58  1  0
 30 59  1  0
 31 60  1  0
 31 61  1  0
 32 62  1  0
 32 63  1  0
M  END
>  <smiles>  (30) 
CCC(=O)N(c1ccccc1)C1CCN(C(=O)[C@H](N)Cc2ccc3ccccc3c2)CC1

>  <score_type>  (30) 
oracle

>  <origin>  (30) 
autodockgpu

>  <m_score__min__energy>  (30) 
-9.5700000000000003

>  <m_primary>  (30) 
energy

>  <rmsd>  (30) 
6.520904632520575

>  <m_score__min__rmsd>  (30) 
6.520904632520575

>  <meeko>  (30) 
{"free_energy": -9.03, "intermolecular_energy": -11.42, "internal_energy": -1.71, "cluster_size": 20, "cluster_id": 1, "rank_in_cluster": 11}

>  <energy>  (30) 
-8.88

>  <cluster_rmsd>  (30) 
0.49

>  <cluster>  (30) 
3

$$$$

     RDKit          3D

 63 66  0  0  0  0  0  0  0  0999 V2000
  142.5430   80.4270  217.9190 C   0  0  0  0  0  0  0  0  0  0  0  0
  142.5040   78.9580  218.2180 C   0  0  0  0  0  0  0  0  0  0  0  0
  141.3210   78.5890  219.0500 C   0  0  0  0  0  0  0  0  0  0  0  0
  140.2070   78.5400  218.4660 O   0  0  0  0  0  0  0  0  0  0  0  0
  141.4910   78.3140  220.4370 N   0  0  0  0  0  0  0  0  0  0  0  0
  141.6020   79.4100  221.3700 C   0  0  0  0  0  0  0  0  0  0  0  0
  141.1050   80.6270  220.9760 C   0  0  0  0  0  0  0  0  0  0  0  0
  141.2110   81.6830  221.8680 C   0  0  0  0  0  0  0  0  0  0  0  0
  141.8060   81.4850  223.1150 C   0  0  0  0  0  0  0  0  0  0  0  0
  142.3040   80.2530  223.4990 C   0  0  0  0  0  0  0  0  0  0  0  0
  142.1970   79.2090  222.6130 C   0  0  0  0  0  0  0  0  0  0  0  0
  141.5520   76.9670  220.9230 C   0  0  0  0  0  0  0  0  0  0  0  0
  140.1870   76.3170  221.0000 C   0  0  0  0  0  0  0  0  0  0  0  0
  140.3600   75.0530  221.8220 C   0  0  0  0  0  0  0  0  0  0  0  0
  141.2780   74.1400  221.2160 N   0  0  0  0  0  0  0  0  0  0  0  0
  141.1240   72.7490  221.0660 C   0  0  0  0  0  0  0  0  0  0  0  0
  142.0890   72.1290  220.4510 O   0  0  0  0  0  0  0  0  0  0  0  0
  140.0370   71.8690  221.4990 C   0  0  2  0  0  0  0  0  0  0  0  0
  138.9120   71.7600  220.6310 N   0  0  0  0  0  0  0  0  0  0  0  0
  139.6190   72.2590  222.9170 C   0  0  0  0  0  0  0  0  0  0  0  0
  139.7360   71.1890  223.8970 C   0  0  0  0  0  0  0  0  0  0  0  0
  139.3530   69.8790  223.7190 C   0  0  0  0  0  0  0  0  0  0  0  0
  139.4830   68.9080  224.6950 C   0  0  0  0  0  0  0  0  0  0  0  0
  140.0150   69.2140  225.9200 C   0  0  0  0  0  0  0  0  0  0  0  0
  140.1390   68.2450  226.8780 C   0  0  0  0  0  0  0  0  0  0  0  0
  140.6790   68.5580  228.1160 C   0  0  0  0  0  0  0  0  0  0  0  0
  141.0770   69.8670  228.3370 C   0  0  0  0  0  0  0  0  0  0  0  0
  140.9560   70.8490  227.3780 C   0  0  0  0  0  0  0  0  0  0  0  0
  140.4100   70.5150  226.1330 C   0  0  0  0  0  0  0  0  0  0  0  0
  140.2790   71.4910  225.1520 C   0  0  0  0  0  0  0  0  0  0  0  0
  142.5210   74.7230  220.7130 C   0  0  0  0  0  0  0  0  0  0  0  0
  142.3800   76.0410  220.0560 C   0  0  0  0  0  0  0  0  0  0  0  0
  142.5580   80.9929  218.8622 H   0  0  0  0  0  0  0  0  0  0  0  0
  143.4476   80.6590  217.3378 H   0  0  0  0  0  0  0  0  0  0  0  0
  141.6520   80.7067  217.3378 H   0  0  0  0  0  0  0  0  0  0  0  0
  142.4580   78.4034  217.2692 H   0  0  0  0  0  0  0  0  0  0  0  0
  143.4115   78.7019  218.7844 H   0  0  0  0  0  0  0  0  0  0  0  0
  140.6394   80.7598  219.9883 H   0  0  0  0  0  0  0  0  0  0  0  0
  140.8264   82.6763  221.5932 H   0  0  0  0  0  0  0  0  0  0  0  0
  141.8810   82.3326  223.8121 H   0  0  0  0  0  0  0  0  0  0  0  0
  142.7719   80.1135  224.4847 H   0  0  0  0  0  0  0  0  0  0  0  0
  142.5810   78.2148  222.8850 H   0  0  0  0  0  0  0  0  0  0  0  0
  142.0108   77.0834  221.9159 H   0  0  0  0  0  0  0  0  0  0  0  0
  139.4705   76.9936  221.4888 H   0  0  0  0  0  0  0  0  0  0  0  0
  139.7963   76.0901  219.9971 H   0  0  0  0  0  0  0  0  0  0  0  0
  140.7372   75.3265  222.8184 H   0  0  0  0  0  0  0  0  0  0  0  0
  139.3813   74.5554  221.8891 H   0  0  0  0  0  0  0  0  0  0  0  0
  140.4549   70.8519  221.4695 H   0  0  0  0  0  0  0  0  0  0  0  0
  139.0930   72.0480  219.6490 H   0  0  0  0  0  0  0  0  0  0  0  0
  138.0740   72.2750  220.9700 H   0  0  0  0  0  0  0  0  0  0  0  0
  140.2538   73.0956  223.2444 H   0  0  0  0  0  0  0  0  0  0  0  0
  138.5521   72.5222  222.8673 H   0  0  0  0  0  0  0  0  0  0  0  0
  138.9209   69.5893  222.7498 H   0  0  0  0  0  0  0  0  0  0  0  0
  139.1558   67.8789  224.4856 H   0  0  0  0  0  0  0  0  0  0  0  0
  139.8101   67.2170  226.6658 H   0  0  0  0  0  0  0  0  0  0  0  0
  140.7881   67.7919  228.8978 H   0  0  0  0  0  0  0  0  0  0  0  0
  141.5056   70.1320  229.3148 H   0  0  0  0  0  0  0  0  0  0  0  0
  141.2830   71.8782  227.5872 H   0  0  0  0  0  0  0  0  0  0  0  0
  140.6077   72.5188  225.3652 H   0  0  0  0  0  0  0  0  0  0  0  0
  143.2104   74.8386  221.5623 H   0  0  0  0  0  0  0  0  0  0  0  0
  142.8885   74.0343  219.9380 H   0  0  0  0  0  0  0  0  0  0  0  0
  143.3769   76.4801  219.9029 H   0  0  0  0  0  0  0  0  0  0  0  0
  141.8772   75.9089  219.0866 H   0  0  0  0  0  0  0  0  0  0  0  0
  1  2  1  0
  2  3  1  0
  3  4  2  0
  3  5  1  0
  5  6  1  0
  6  7  2  0
  7  8  1  0
  8  9  2  0
  9 10  1  0
 10 11  2  0
  5 12  1  0
 12 13  1  0
 13 14  1  0
 14 15  1  0
 15 16  1  0
 16 17  2  0
 16 18  1  0
 18 19  1  0
 18 20  1  0
 20 21  1  0
 21 22  2  0
 22 23  1  0
 23 24  2  0
 24 25  1  0
 25 26  2  0
 26 27  1  0
 27 28  2  0
 28 29  1  0
 29 30  2  0
 15 31  1  0
 31 32  1  0
 11  6  1  0
 32 12  1  0
 30 21  1  0
 29 24  1  0
  1 33  1  0
  1 34  1  0
  1 35  1  0
  2 36  1  0
  2 37  1  0
  7 38  1  0
  8 39  1  0
  9 40  1  0
 10 41  1  0
 11 42  1  0
 12 43  1  0
 13 44  1  0
 13 45  1  0
 14 46  1  0
 14 47  1  0
 18 48  1  1
 19 49  1  0
 19 50  1  0
 20 51  1  0
 20 52  1  0
 22 53  1  0
 23 54  1  0
 25 55  1  0
 26 56  1  0
 27 57  1  0
 28 58  1  0
 30 59  1  0
 31 60  1  0
 31 61  1  0
 32 62  1  0
 32 63  1  0
M  END
>  <smiles>  (31) 
CCC(=O)N(c1ccccc1)C1CCN(C(=O)[C@H](N)Cc2ccc3ccccc3c2)CC1

>  <score_type>  (31) 
oracle

>  <origin>  (31) 
autodockgpu

>  <m_score__min__energy>  (31) 
-9.5700000000000003

>  <m_primary>  (31) 
energy

>  <rmsd>  (31) 
6.1527162021744894

>  <m_score__min__rmsd>  (31) 
6.1527162021744894

>  <meeko>  (31) 
{"free_energy": -8.47, "intermolecular_energy": -10.85, "internal_energy": -1.53, "cluster_size": 20, "cluster_id": 1, "rank_in_cluster": 19}

>  <energy>  (31) 
-8.82

>  <cluster_rmsd>  (31) 
0.7

>  <cluster>  (31) 
3

$$$$

     RDKit          3D

 63 66  0  0  0  0  0  0  0  0999 V2000
  141.4830   78.4140  216.9660 C   0  0  0  0  0  0  0  0  0  0  0  0
  142.5600   78.6160  217.9910 C   0  0  0  0  0  0  0  0  0  0  0  0
  142.1160   79.5140  219.0980 C   0  0  0  0  0  0  0  0  0  0  0  0
  142.1580   80.7530  218.8770 O   0  0  0  0  0  0  0  0  0  0  0  0
  141.6730   78.9520  220.3280 N   0  0  0  0  0  0  0  0  0  0  0  0
  141.7550   79.7370  221.5370 C   0  0  0  0  0  0  0  0  0  0  0  0
  140.7810   80.6820  221.7440 C   0  0  0  0  0  0  0  0  0  0  0  0
  140.8570   81.4390  222.9030 C   0  0  0  0  0  0  0  0  0  0  0  0
  141.8970   81.2250  223.8080 C   0  0  0  0  0  0  0  0  0  0  0  0
  142.8730   80.2700  223.5880 C   0  0  0  0  0  0  0  0  0  0  0  0
  142.7950   79.5210  222.4380 C   0  0  0  0  0  0  0  0  0  0  0  0
  141.1460   77.6210  220.3880 C   0  0  0  0  0  0  0  0  0  0  0  0
  142.2340   76.5690  220.4330 C   0  0  0  0  0  0  0  0  0  0  0  0
  141.5560   75.2390  220.1630 C   0  0  0  0  0  0  0  0  0  0  0  0
  140.5670   74.9300  221.1490 N   0  0  0  0  0  0  0  0  0  0  0  0
  140.3610   73.6950  221.7920 C   0  0  0  0  0  0  0  0  0  0  0  0
  139.4120   73.6650  222.6810 O   0  0  0  0  0  0  0  0  0  0  0  0
  141.0530   72.4160  221.6210 C   0  0  2  0  0  0  0  0  0  0  0  0
  141.8020   72.2430  220.4210 N   0  0  0  0  0  0  0  0  0  0  0  0
  140.0510   71.2800  221.8280 C   0  0  0  0  0  0  0  0  0  0  0  0
  139.9660   70.7920  223.1970 C   0  0  0  0  0  0  0  0  0  0  0  0
  139.3230   69.6480  223.6130 C   0  0  0  0  0  0  0  0  0  0  0  0
  139.2700   69.2420  224.9340 C   0  0  0  0  0  0  0  0  0  0  0  0
  139.8720   69.9810  225.9180 C   0  0  0  0  0  0  0  0  0  0  0  0
  139.8130   69.5680  227.2210 C   0  0  0  0  0  0  0  0  0  0  0  0
  140.4240   70.3180  228.2150 C   0  0  0  0  0  0  0  0  0  0  0  0
  141.0820   71.4790  227.8380 C   0  0  0  0  0  0  0  0  0  0  0  0
  141.1470   71.9000  226.5280 C   0  0  0  0  0  0  0  0  0  0  0  0
  140.5250   71.1310  225.5380 C   0  0  0  0  0  0  0  0  0  0  0  0
  140.5780   71.5400  224.2110 C   0  0  0  0  0  0  0  0  0  0  0  0
  139.6640   76.0200  221.5110 C   0  0  0  0  0  0  0  0  0  0  0  0
  140.2920   77.3560  221.6110 C   0  0  0  0  0  0  0  0  0  0  0  0
  140.5235   78.2340  217.4729 H   0  0  0  0  0  0  0  0  0  0  0  0
  141.4024   79.3127  216.3368 H   0  0  0  0  0  0  0  0  0  0  0  0
  141.7335   77.5472  216.3368 H   0  0  0  0  0  0  0  0  0  0  0  0
  142.8350   77.6388  218.4148 H   0  0  0  0  0  0  0  0  0  0  0  0
  143.4191   79.0892  217.4930 H   0  0  0  0  0  0  0  0  0  0  0  0
  139.9697   80.8331  221.0167 H   0  0  0  0  0  0  0  0  0  0  0  0
  140.0978   82.2079  223.1089 H   0  0  0  0  0  0  0  0  0  0  0  0
  141.9421   81.8335  224.7232 H   0  0  0  0  0  0  0  0  0  0  0  0
  143.6870   80.1145  224.3114 H   0  0  0  0  0  0  0  0  0  0  0  0
  143.5532   78.7518  222.2295 H   0  0  0  0  0  0  0  0  0  0  0  0
  140.5429   77.5527  219.4706 H   0  0  0  0  0  0  0  0  0  0  0  0
  142.9922   76.7728  219.6625 H   0  0  0  0  0  0  0  0  0  0  0  0
  142.7449   76.5654  221.4072 H   0  0  0  0  0  0  0  0  0  0  0  0
  141.0720   75.2813  219.1761 H   0  0  0  0  0  0  0  0  0  0  0  0
  142.3252   74.4534  220.1965 H   0  0  0  0  0  0  0  0  0  0  0  0
  141.8389   72.4042  222.3905 H   0  0  0  0  0  0  0  0  0  0  0  0
  141.3310   71.6640  219.6970 H   0  0  0  0  0  0  0  0  0  0  0  0
  142.7530   71.8540  220.5780 H   0  0  0  0  0  0  0  0  0  0  0  0
  139.0557   71.6411  221.5295 H   0  0  0  0  0  0  0  0  0  0  0  0
  140.4037   70.4364  221.2165 H   0  0  0  0  0  0  0  0  0  0  0  0
  138.8256   69.0245  222.8555 H   0  0  0  0  0  0  0  0  0  0  0  0
  138.7387   68.3156  225.1975 H   0  0  0  0  0  0  0  0  0  0  0  0
  139.2809   68.6409  227.4804 H   0  0  0  0  0  0  0  0  0  0  0  0
  140.3878   70.0021  229.2680 H   0  0  0  0  0  0  0  0  0  0  0  0
  141.5704   72.0865  228.6141 H   0  0  0  0  0  0  0  0  0  0  0  0
  141.6793   72.8258  226.2643 H   0  0  0  0  0  0  0  0  0  0  0  0
  141.1099   72.4674  223.9523 H   0  0  0  0  0  0  0  0  0  0  0  0
  138.8727   76.0729  220.7487 H   0  0  0  0  0  0  0  0  0  0  0  0
  139.2911   75.7835  222.5185 H   0  0  0  0  0  0  0  0  0  0  0  0
  139.5067   78.1232  221.6799 H   0  0  0  0  0  0  0  0  0  0  0  0
  140.9270   77.3898  222.5085 H   0  0  0  0  0  0  0  0  0  0  0  0
  1  2  1  0
  2  3  1  0
  3  4  2  0
  3  5  1  0
  5  6  1  0
  6  7  2  0
  7  8  1  0
  8  9  2  0
  9 10  1  0
 10 11  2  0
  5 12  1  0
 12 13  1  0
 13 14  1  0
 14 15  1  0
 15 16  1  0
 16 17  2  0
 16 18  1  0
 18 19  1  0
 18 20  1  0
 20 21  1  0
 21 22  2  0
 22 23  1  0
 23 24  2  0
 24 25  1  0
 25 26  2  0
 26 27  1  0
 27 28  2  0
 28 29  1  0
 29 30  2  0
 15 31  1  0
 31 32  1  0
 11  6  1  0
 32 12  1  0
 30 21  1  0
 29 24  1  0
  1 33  1  0
  1 34  1  0
  1 35  1  0
  2 36  1  0
  2 37  1  0
  7 38  1  0
  8 39  1  0
  9 40  1  0
 10 41  1  0
 11 42  1  0
 12 43  1  0
 13 44  1  0
 13 45  1  0
 14 46  1  0
 14 47  1  0
 18 48  1  1
 19 49  1  0
 19 50  1  0
 20 51  1  0
 20 52  1  0
 22 53  1  0
 23 54  1  0
 25 55  1  0
 26 56  1  0
 27 57  1  0
 28 58  1  0
 30 59  1  0
 31 60  1  0
 31 61  1  0
 32 62  1  0
 32 63  1  0
M  END
>  <smiles>  (32) 
CCC(=O)N(c1ccccc1)C1CCN(C(=O)[C@H](N)Cc2ccc3ccccc3c2)CC1

>  <score_type>  (32) 
oracle

>  <origin>  (32) 
autodockgpu

>  <m_score__min__energy>  (32) 
-9.5700000000000003

>  <m_primary>  (32) 
energy

>  <rmsd>  (32) 
5.726697980964523

>  <m_score__min__rmsd>  (32) 
5.726697980964523

>  <meeko>  (32) 
{"free_energy": -8.84, "intermolecular_energy": -11.22, "internal_energy": -1.49, "cluster_size": 20, "cluster_id": 1, "rank_in_cluster": 16}

>  <energy>  (32) 
-8.69

>  <cluster_rmsd>  (32) 
1.6

>  <cluster>  (32) 
3

$$$$

     RDKit          3D

 63 66  0  0  0  0  0  0  0  0999 V2000
  146.3840   73.2510  221.9590 C   0  0  0  0  0  0  0  0  0  0  0  0
  145.9490   74.0850  220.7910 C   0  0  0  0  0  0  0  0  0  0  0  0
  145.5900   73.2460  219.6100 C   0  0  0  0  0  0  0  0  0  0  0  0
  146.2570   72.1940  219.4350 O   0  0  0  0  0  0  0  0  0  0  0  0
  144.5330   73.6560  218.7480 N   0  0  0  0  0  0  0  0  0  0  0  0
  144.8420   74.1000  217.4090 C   0  0  0  0  0  0  0  0  0  0  0  0
  145.8980   73.5000  216.7720 C   0  0  0  0  0  0  0  0  0  0  0  0
  146.1990   73.9240  215.4870 C   0  0  0  0  0  0  0  0  0  0  0  0
  145.4360   74.9270  214.8880 C   0  0  0  0  0  0  0  0  0  0  0  0
  144.3730   75.5250  215.5410 C   0  0  0  0  0  0  0  0  0  0  0  0
  144.0780   75.1020  216.8140 C   0  0  0  0  0  0  0  0  0  0  0  0
  143.1690   73.6350  219.1850 C   0  0  0  0  0  0  0  0  0  0  0  0
  142.7480   72.2760  219.7020 C   0  0  0  0  0  0  0  0  0  0  0  0
  141.2350   72.3090  219.8120 C   0  0  0  0  0  0  0  0  0  0  0  0
  140.7850   73.3150  220.7240 N   0  0  0  0  0  0  0  0  0  0  0  0
  139.7910   73.1870  221.7120 C   0  0  0  0  0  0  0  0  0  0  0  0
  139.5740   74.2400  222.4450 O   0  0  0  0  0  0  0  0  0  0  0  0
  138.9460   72.0420  222.0560 C   0  0  2  0  0  0  0  0  0  0  0  0
  137.9130   72.2660  223.0120 N   0  0  0  0  0  0  0  0  0  0  0  0
  139.8400   70.8690  222.4580 C   0  0  0  0  0  0  0  0  0  0  0  0
  140.1350   70.7930  223.8810 C   0  0  0  0  0  0  0  0  0  0  0  0
  140.7000   71.7870  224.6470 C   0  0  0  0  0  0  0  0  0  0  0  0
  140.9640   71.6510  225.9990 C   0  0  0  0  0  0  0  0  0  0  0  0
  140.6650   70.4860  226.6560 C   0  0  0  0  0  0  0  0  0  0  0  0
  140.9300   70.3630  227.9920 C   0  0  0  0  0  0  0  0  0  0  0  0
  140.6260   69.1840  228.6540 C   0  0  0  0  0  0  0  0  0  0  0  0
  140.0550   68.1570  227.9190 C   0  0  0  0  0  0  0  0  0  0  0  0
  139.7850   68.2730  226.5730 C   0  0  0  0  0  0  0  0  0  0  0  0
  140.0970   69.4710  225.9210 C   0  0  0  0  0  0  0  0  0  0  0  0
  139.8330   69.6080  224.5630 C   0  0  0  0  0  0  0  0  0  0  0  0
  141.4220   74.6240  220.5970 C   0  0  0  0  0  0  0  0  0  0  0  0
  142.8760   74.5950  220.3190 C   0  0  0  0  0  0  0  0  0  0  0  0
  146.1168   73.7633  222.8951 H   0  0  0  0  0  0  0  0  0  0  0  0
  145.8808   72.2737  221.9193 H   0  0  0  0  0  0  0  0  0  0  0  0
  147.4735   73.1044  221.9193 H   0  0  0  0  0  0  0  0  0  0  0  0
  145.0710   74.6786  221.0854 H   0  0  0  0  0  0  0  0  0  0  0  0
  146.7893   74.7345  220.5045 H   0  0  0  0  0  0  0  0  0  0  0  0
  146.4853   72.7103  217.2634 H   0  0  0  0  0  0  0  0  0  0  0  0
  147.0386   73.4702  214.9400 H   0  0  0  0  0  0  0  0  0  0  0  0
  145.6869   75.2515  213.8673 H   0  0  0  0  0  0  0  0  0  0  0  0
  143.7819   76.3154  215.0553 H   0  0  0  0  0  0  0  0  0  0  0  0
  143.2391   75.5540  217.3635 H   0  0  0  0  0  0  0  0  0  0  0  0
  142.6147   73.9224  218.2794 H   0  0  0  0  0  0  0  0  0  0  0  0
  143.0613   71.4885  219.0008 H   0  0  0  0  0  0  0  0  0  0  0  0
  143.2137   72.0576  220.6743 H   0  0  0  0  0  0  0  0  0  0  0  0
  140.8113   72.5157  218.8182 H   0  0  0  0  0  0  0  0  0  0  0  0
  140.9010   71.3323  220.1922 H   0  0  0  0  0  0  0  0  0  0  0  0
  138.3749   71.8174  221.1431 H   0  0  0  0  0  0  0  0  0  0  0  0
  137.6740   73.2670  223.1640 H   0  0  0  0  0  0  0  0  0  0  0  0
  138.1050   71.8350  223.9390 H   0  0  0  0  0  0  0  0  0  0  0  0
  139.3371   69.9367  222.1614 H   0  0  0  0  0  0  0  0  0  0  0  0
  140.8024   71.0208  221.9474 H   0  0  0  0  0  0  0  0  0  0  0  0
  140.9551   72.7394  224.1593 H   0  0  0  0  0  0  0  0  0  0  0  0
  141.4184   72.4865  226.5517 H   0  0  0  0  0  0  0  0  0  0  0  0
  141.3847   71.2004  228.5415 H   0  0  0  0  0  0  0  0  0  0  0  0
  140.8313   69.0670  229.7283 H   0  0  0  0  0  0  0  0  0  0  0  0
  139.8082   67.2143  228.4293 H   0  0  0  0  0  0  0  0  0  0  0  0
  139.3315   67.4373  226.0199 H   0  0  0  0  0  0  0  0  0  0  0  0
  139.3785   68.7700  224.0142 H   0  0  0  0  0  0  0  0  0  0  0  0
  140.9293   75.1635  219.7747 H   0  0  0  0  0  0  0  0  0  0  0  0
  141.3087   75.1140  221.5753 H   0  0  0  0  0  0  0  0  0  0  0  0
  143.2131   75.6037  220.0382 H   0  0  0  0  0  0  0  0  0  0  0  0
  143.4089   74.2604  221.2213 H   0  0  0  0  0  0  0  0  0  0  0  0
  1  2  1  0
  2  3  1  0
  3  4  2  0
  3  5  1  0
  5  6  1  0
  6  7  2  0
  7  8  1  0
  8  9  2  0
  9 10  1  0
 10 11  2  0
  5 12  1  0
 12 13  1  0
 13 14  1  0
 14 15  1  0
 15 16  1  0
 16 17  2  0
 16 18  1  0
 18 19  1  0
 18 20  1  0
 20 21  1  0
 21 22  2  0
 22 23  1  0
 23 24  2  0
 24 25  1  0
 25 26  2  0
 26 27  1  0
 27 28  2  0
 28 29  1  0
 29 30  2  0
 15 31  1  0
 31 32  1  0
 11  6  1  0
 32 12  1  0
 30 21  1  0
 29 24  1  0
  1 33  1  0
  1 34  1  0
  1 35  1  0
  2 36  1  0
  2 37  1  0
  7 38  1  0
  8 39  1  0
  9 40  1  0
 10 41  1  0
 11 42  1  0
 12 43  1  0
 13 44  1  0
 13 45  1  0
 14 46  1  0
 14 47  1  0
 18 48  1  6
 19 49  1  0
 19 50  1  0
 20 51  1  0
 20 52  1  0
 22 53  1  0
 23 54  1  0
 25 55  1  0
 26 56  1  0
 27 57  1  0
 28 58  1  0
 30 59  1  0
 31 60  1  0
 31 61  1  0
 32 62  1  0
 32 63  1  0
M  END
>  <smiles>  (33) 
CCC(=O)N(c1ccccc1)C1CCN(C(=O)[C@H](N)Cc2ccc3ccccc3c2)CC1

>  <score_type>  (33) 
oracle

>  <origin>  (33) 
autodockgpu

>  <m_score__min__energy>  (33) 
-9.5700000000000003

>  <m_primary>  (33) 
energy

>  <rmsd>  (33) 
7.3867822812950905

>  <m_score__min__rmsd>  (33) 
7.3867822812950905

>  <meeko>  (33) 
{"free_energy": -9.25, "intermolecular_energy": -11.63, "internal_energy": -2.22, "cluster_size": 6, "cluster_id": 3, "rank_in_cluster": 1}

>  <energy>  (33) 
-8.96

>  <cluster_rmsd>  (33) 
0.0

>  <cluster>  (33) 
4

$$$$

     RDKit          3D

 63 66  0  0  0  0  0  0  0  0999 V2000
  146.0240   73.1810  221.6910 C   0  0  0  0  0  0  0  0  0  0  0  0
  146.3260   73.7590  220.3400 C   0  0  0  0  0  0  0  0  0  0  0  0
  145.6480   73.0030  219.2450 C   0  0  0  0  0  0  0  0  0  0  0  0
  146.0070   71.8090  219.0710 O   0  0  0  0  0  0  0  0  0  0  0  0
  144.6460   73.6430  218.4610 N   0  0  0  0  0  0  0  0  0  0  0  0
  144.9960   74.1850  217.1700 C   0  0  0  0  0  0  0  0  0  0  0  0
  146.1580   73.7420  216.5910 C   0  0  0  0  0  0  0  0  0  0  0  0
  146.4980   74.2610  215.3520 C   0  0  0  0  0  0  0  0  0  0  0  0
  145.6680   75.2000  214.7380 C   0  0  0  0  0  0  0  0  0  0  0  0
  144.4980   75.6400  215.3320 C   0  0  0  0  0  0  0  0  0  0  0  0
  144.1640   75.1220  216.5600 C   0  0  0  0  0  0  0  0  0  0  0  0
  143.2970   73.7570  218.9310 C   0  0  0  0  0  0  0  0  0  0  0  0
  142.6910   72.4140  219.2820 C   0  0  0  0  0  0  0  0  0  0  0  0
  141.2000   72.6450  219.4380 C   0  0  0  0  0  0  0  0  0  0  0  0
  140.9070   73.5770  220.4830 N   0  0  0  0  0  0  0  0  0  0  0  0
  139.9160   73.4620  221.4750 C   0  0  0  0  0  0  0  0  0  0  0  0
  139.8580   74.4310  222.3420 O   0  0  0  0  0  0  0  0  0  0  0  0
  138.9190   72.4120  221.6940 C   0  0  2  0  0  0  0  0  0  0  0  0
  137.9140   72.6700  222.6710 N   0  0  0  0  0  0  0  0  0  0  0  0
  139.6410   71.0920  221.9650 C   0  0  0  0  0  0  0  0  0  0  0  0
  139.6870   70.7050  223.3670 C   0  0  0  0  0  0  0  0  0  0  0  0
  139.1130   69.5820  223.9190 C   0  0  0  0  0  0  0  0  0  0  0  0
  139.1850   69.2730  225.2650 C   0  0  0  0  0  0  0  0  0  0  0  0
  139.8510   70.0940  226.1370 C   0  0  0  0  0  0  0  0  0  0  0  0
  139.9160   69.7770  227.4660 C   0  0  0  0  0  0  0  0  0  0  0  0
  140.5920   70.6100  228.3450 C   0  0  0  0  0  0  0  0  0  0  0  0
  141.1850   71.7520  227.8300 C   0  0  0  0  0  0  0  0  0  0  0  0
  141.1240   72.0770  226.4930 C   0  0  0  0  0  0  0  0  0  0  0  0
  140.4390   71.2260  225.6190 C   0  0  0  0  0  0  0  0  0  0  0  0
  140.3660   71.5360  224.2660 C   0  0  0  0  0  0  0  0  0  0  0  0
  141.7240   74.7890  220.5060 C   0  0  0  0  0  0  0  0  0  0  0  0
  143.1550   74.5920  220.1860 C   0  0  0  0  0  0  0  0  0  0  0  0
  146.3827   73.8675  222.4720 H   0  0  0  0  0  0  0  0  0  0  0  0
  144.9379   73.0418  221.7958 H   0  0  0  0  0  0  0  0  0  0  0  0
  146.5300   72.2099  221.7958 H   0  0  0  0  0  0  0  0  0  0  0  0
  145.9829   74.8038  220.3157 H   0  0  0  0  0  0  0  0  0  0  0  0
  147.4119   73.6935  220.1769 H   0  0  0  0  0  0  0  0  0  0  0  0
  146.7975   73.0008  217.0927 H   0  0  0  0  0  0  0  0  0  0  0  0
  147.4216   73.9331  214.8527 H   0  0  0  0  0  0  0  0  0  0  0  0
  145.9518   75.6018  213.7541 H   0  0  0  0  0  0  0  0  0  0  0  0
  143.8549   76.3819  214.8360 H   0  0  0  0  0  0  0  0  0  0  0  0
  143.2403   75.4467  217.0614 H   0  0  0  0  0  0  0  0  0  0  0  0
  142.7808   74.2355  218.0857 H   0  0  0  0  0  0  0  0  0  0  0  0
  142.8815   71.6886  218.4773 H   0  0  0  0  0  0  0  0  0  0  0  0
  143.1303   72.0070  220.2047 H   0  0  0  0  0  0  0  0  0  0  0  0
  140.8006   73.0367  218.4909 H   0  0  0  0  0  0  0  0  0  0  0  0
  140.7336   71.6839  219.7002 H   0  0  0  0  0  0  0  0  0  0  0  0
  138.3345   72.3668  220.7632 H   0  0  0  0  0  0  0  0  0  0  0  0
  137.8350   73.6670  222.9570 H   0  0  0  0  0  0  0  0  0  0  0  0
  138.0130   72.0930  223.5310 H   0  0  0  0  0  0  0  0  0  0  0  0
  139.1250   70.2974  221.4062 H   0  0  0  0  0  0  0  0  0  0  0  0
  140.6840   71.2352  221.6461 H   0  0  0  0  0  0  0  0  0  0  0  0
  138.5687   68.8946  223.2547 H   0  0  0  0  0  0  0  0  0  0  0  0
  138.7024   68.3583  225.6398 H   0  0  0  0  0  0  0  0  0  0  0  0
  139.4322   68.8616  227.8375 H   0  0  0  0  0  0  0  0  0  0  0  0
  140.6555   70.3719  229.4170 H   0  0  0  0  0  0  0  0  0  0  0  0
  141.7242   72.4235  228.5143 H   0  0  0  0  0  0  0  0  0  0  0  0
  141.6065   72.9917  226.1181 H   0  0  0  0  0  0  0  0  0  0  0  0
  140.8506   72.4511  223.8949 H   0  0  0  0  0  0  0  0  0  0  0  0
  141.3058   75.4949  219.7733 H   0  0  0  0  0  0  0  0  0  0  0  0
  141.6915   75.1586  221.5415 H   0  0  0  0  0  0  0  0  0  0  0  0
  143.6305   75.5711  220.0274 H   0  0  0  0  0  0  0  0  0  0  0  0
  143.6427   74.0704  221.0227 H   0  0  0  0  0  0  0  0  0  0  0  0
  1  2  1  0
  2  3  1  0
  3  4  2  0
  3  5  1  0
  5  6  1  0
  6  7  2  0
  7  8  1  0
  8  9  2  0
  9 10  1  0
 10 11  2  0
  5 12  1  0
 12 13  1  0
 13 14  1  0
 14 15  1  0
 15 16  1  0
 16 17  2  0
 16 18  1  0
 18 19  1  0
 18 20  1  0
 20 21  1  0
 21 22  2  0
 22 23  1  0
 23 24  2  0
 24 25  1  0
 25 26  2  0
 26 27  1  0
 27 28  2  0
 28 29  1  0
 29 30  2  0
 15 31  1  0
 31 32  1  0
 11  6  1  0
 32 12  1  0
 30 21  1  0
 29 24  1  0
  1 33  1  0
  1 34  1  0
  1 35  1  0
  2 36  1  0
  2 37  1  0
  7 38  1  0
  8 39  1  0
  9 40  1  0
 10 41  1  0
 11 42  1  0
 12 43  1  0
 13 44  1  0
 13 45  1  0
 14 46  1  0
 14 47  1  0
 18 48  1  6
 19 49  1  0
 19 50  1  0
 20 51  1  0
 20 52  1  0
 22 53  1  0
 23 54  1  0
 25 55  1  0
 26 56  1  0
 27 57  1  0
 28 58  1  0
 30 59  1  0
 31 60  1  0
 31 61  1  0
 32 62  1  0
 32 63  1  0
M  END
>  <smiles>  (34) 
CCC(=O)N(c1ccccc1)C1CCN(C(=O)[C@H](N)Cc2ccc3ccccc3c2)CC1

>  <score_type>  (34) 
oracle

>  <origin>  (34) 
autodockgpu

>  <m_score__min__energy>  (34) 
-9.5700000000000003

>  <m_primary>  (34) 
energy

>  <rmsd>  (34) 
7.171744306612198

>  <m_score__min__rmsd>  (34) 
7.171744306612198

>  <meeko>  (34) 
{"free_energy": -9.0, "intermolecular_energy": -11.38, "internal_energy": -2.27, "cluster_size": 6, "cluster_id": 3, "rank_in_cluster": 2}

>  <energy>  (34) 
-8.76

>  <cluster_rmsd>  (34) 
0.6

>  <cluster>  (34) 
4

$$$$

     RDKit          3D

 63 66  0  0  0  0  0  0  0  0999 V2000
  139.6150   78.4750  218.2690 C   0  0  0  0  0  0  0  0  0  0  0  0
  140.3820   79.7040  218.6580 C   0  0  0  0  0  0  0  0  0  0  0  0
  141.7230   79.3690  219.2230 C   0  0  0  0  0  0  0  0  0  0  0  0
  142.7160   79.5300  218.4670 O   0  0  0  0  0  0  0  0  0  0  0  0
  141.8260   78.8930  220.5610 N   0  0  0  0  0  0  0  0  0  0  0  0
  141.9410   79.8400  221.6450 C   0  0  0  0  0  0  0  0  0  0  0  0
  141.3870   81.0820  221.4600 C   0  0  0  0  0  0  0  0  0  0  0  0
  141.4960   81.9950  222.4970 C   0  0  0  0  0  0  0  0  0  0  0  0
  142.1510   81.6360  223.6760 C   0  0  0  0  0  0  0  0  0  0  0  0
  142.7070   80.3810  223.8490 C   0  0  0  0  0  0  0  0  0  0  0  0
  142.5960   79.4780  222.8190 C   0  0  0  0  0  0  0  0  0  0  0  0
  141.8170   77.4900  220.8510 C   0  0  0  0  0  0  0  0  0  0  0  0
  140.4740   77.0130  221.3630 C   0  0  0  0  0  0  0  0  0  0  0  0
  140.7000   75.6240  221.9300 C   0  0  0  0  0  0  0  0  0  0  0  0
  141.1720   74.7090  220.9380 N   0  0  0  0  0  0  0  0  0  0  0  0
  140.7340   73.3900  220.7160 C   0  0  0  0  0  0  0  0  0  0  0  0
  141.2970   72.7590  219.7280 O   0  0  0  0  0  0  0  0  0  0  0  0
  139.7310   72.5980  221.4300 C   0  0  2  0  0  0  0  0  0  0  0  0
  139.0810   73.2230  222.5340 N   0  0  0  0  0  0  0  0  0  0  0  0
  140.3480   71.2560  221.8260 C   0  0  0  0  0  0  0  0  0  0  0  0
  140.1170   70.8690  223.2090 C   0  0  0  0  0  0  0  0  0  0  0  0
  139.2730   69.8710  223.6430 C   0  0  0  0  0  0  0  0  0  0  0  0
  139.0890   69.5550  224.9770 C   0  0  0  0  0  0  0  0  0  0  0  0
  139.7570   70.2420  225.9570 C   0  0  0  0  0  0  0  0  0  0  0  0
  139.5670   69.9200  227.2730 C   0  0  0  0  0  0  0  0  0  0  0  0
  140.2450   70.6160  228.2620 C   0  0  0  0  0  0  0  0  0  0  0  0
  141.1040   71.6300  227.8680 C   0  0  0  0  0  0  0  0  0  0  0  0
  141.3020   71.9590  226.5450 C   0  0  0  0  0  0  0  0  0  0  0  0
  140.6100   71.2460  225.5590 C   0  0  0  0  0  0  0  0  0  0  0  0
  140.7940   71.5640  224.2190 C   0  0  0  0  0  0  0  0  0  0  0  0
  142.2410   75.2020  220.0710 C   0  0  0  0  0  0  0  0  0  0  0  0
  142.1120   76.6150  219.6510 C   0  0  0  0  0  0  0  0  0  0  0  0
  139.2851   77.9464  219.1755 H   0  0  0  0  0  0  0  0  0  0  0  0
  138.7368   78.7642  217.6731 H   0  0  0  0  0  0  0  0  0  0  0  0
  140.2607   77.8131  217.6731 H   0  0  0  0  0  0  0  0  0  0  0  0
  140.5191   80.3343  217.7670 H   0  0  0  0  0  0  0  0  0  0  0  0
  139.8081   80.2323  219.4336 H   0  0  0  0  0  0  0  0  0  0  0  0
  140.8748   81.3434  220.5223 H   0  0  0  0  0  0  0  0  0  0  0  0
  141.0665   83.0021  222.3909 H   0  0  0  0  0  0  0  0  0  0  0  0
  142.2273   82.3714  224.4904 H   0  0  0  0  0  0  0  0  0  0  0  0
  143.2226   80.1139  224.7832 H   0  0  0  0  0  0  0  0  0  0  0  0
  143.0243   78.4701  222.9220 H   0  0  0  0  0  0  0  0  0  0  0  0
  142.6081   77.3903  221.6088 H   0  0  0  0  0  0  0  0  0  0  0  0
  140.1044   77.6889  222.1483 H   0  0  0  0  0  0  0  0  0  0  0  0
  139.7233   76.9981  220.5591 H   0  0  0  0  0  0  0  0  0  0  0  0
  141.4445   75.6871  222.7373 H   0  0  0  0  0  0  0  0  0  0  0  0
  139.7359   75.2499  222.3049 H   0  0  0  0  0  0  0  0  0  0  0  0
  138.9042   72.4648  220.7168 H   0  0  0  0  0  0  0  0  0  0  0  0
  139.6840   73.8690  223.0820 H   0  0  0  0  0  0  0  0  0  0  0  0
  138.6460   72.5480  223.1950 H   0  0  0  0  0  0  0  0  0  0  0  0
  139.9224   70.4773  221.1760 H   0  0  0  0  0  0  0  0  0  0  0  0
  141.4363   71.3665  221.7103 H   0  0  0  0  0  0  0  0  0  0  0  0
  138.7160   69.2950  222.8893 H   0  0  0  0  0  0  0  0  0  0  0  0
  138.3995   68.7440  225.2542 H   0  0  0  0  0  0  0  0  0  0  0  0
  138.8762   69.1088  227.5465 H   0  0  0  0  0  0  0  0  0  0  0  0
  140.1057   70.3713  229.3254 H   0  0  0  0  0  0  0  0  0  0  0  0
  141.6480   72.1931  228.6407 H   0  0  0  0  0  0  0  0  0  0  0  0
  141.9928   72.7690  226.2679 H   0  0  0  0  0  0  0  0  0  0  0  0
  141.4839   72.3763  223.9465 H   0  0  0  0  0  0  0  0  0  0  0  0
  143.1936   75.0931  220.6102 H   0  0  0  0  0  0  0  0  0  0  0  0
  142.1861   74.6040  219.1494 H   0  0  0  0  0  0  0  0  0  0  0  0
  143.0524   76.9430  219.1840 H   0  0  0  0  0  0  0  0  0  0  0  0
  141.2857   76.7022  218.9302 H   0  0  0  0  0  0  0  0  0  0  0  0
  1  2  1  0
  2  3  1  0
  3  4  2  0
  3  5  1  0
  5  6  1  0
  6  7  2  0
  7  8  1  0
  8  9  2  0
  9 10  1  0
 10 11  2  0
  5 12  1  0
 12 13  1  0
 13 14  1  0
 14 15  1  0
 15 16  1  0
 16 17  2  0
 16 18  1  0
 18 19  1  0
 18 20  1  0
 20 21  1  0
 21 22  2  0
 22 23  1  0
 23 24  2  0
 24 25  1  0
 25 26  2  0
 26 27  1  0
 27 28  2  0
 28 29  1  0
 29 30  2  0
 15 31  1  0
 31 32  1  0
 11  6  1  0
 32 12  1  0
 30 21  1  0
 29 24  1  0
  1 33  1  0
  1 34  1  0
  1 35  1  0
  2 36  1  0
  2 37  1  0
  7 38  1  0
  8 39  1  0
  9 40  1  0
 10 41  1  0
 11 42  1  0
 12 43  1  0
 13 44  1  0
 13 45  1  0
 14 46  1  0
 14 47  1  0
 18 48  1  6
 19 49  1  0
 19 50  1  0
 20 51  1  0
 20 52  1  0
 22 53  1  0
 23 54  1  0
 25 55  1  0
 26 56  1  0
 27 57  1  0
 28 58  1  0
 30 59  1  0
 31 60  1  0
 31 61  1  0
 32 62  1  0
 32 63  1  0
M  END
>  <smiles>  (35) 
CCC(=O)N(c1ccccc1)C1CCN(C(=O)[C@H](N)Cc2ccc3ccccc3c2)CC1

>  <score_type>  (35) 
oracle

>  <origin>  (35) 
autodockgpu

>  <m_score__min__energy>  (35) 
-9.5700000000000003

>  <m_primary>  (35) 
energy

>  <rmsd>  (35) 
5.848728121448715

>  <m_score__min__rmsd>  (35) 
5.848728121448715

>  <meeko>  (35) 
{"free_energy": -9.08, "intermolecular_energy": -11.46, "internal_energy": -1.5, "cluster_size": 20, "cluster_id": 1, "rank_in_cluster": 8}

>  <energy>  (35) 
-8.6

>  <cluster_rmsd>  (35) 
0.67

>  <cluster>  (35) 
4

$$$$

     RDKit          3D

 63 66  0  0  0  0  0  0  0  0999 V2000
  141.4410   82.2040  221.6440 C   0  0  0  0  0  0  0  0  0  0  0  0
  142.0710   80.8750  221.9380 C   0  0  0  0  0  0  0  0  0  0  0  0
  141.3960   80.1760  223.0720 C   0  0  0  0  0  0  0  0  0  0  0  0
  142.0050   80.1580  224.1730 O   0  0  0  0  0  0  0  0  0  0  0  0
  140.1220   79.5730  222.8720 N   0  0  0  0  0  0  0  0  0  0  0  0
  138.9290   80.2880  223.2580 C   0  0  0  0  0  0  0  0  0  0  0  0
  138.2280   80.9290  222.2670 C   0  0  0  0  0  0  0  0  0  0  0  0
  137.0830   81.6180  222.6340 C   0  0  0  0  0  0  0  0  0  0  0  0
  136.6810   81.6420  223.9700 C   0  0  0  0  0  0  0  0  0  0  0  0
  137.3970   80.9930  224.9600 C   0  0  0  0  0  0  0  0  0  0  0  0
  138.5310   80.3100  224.5930 C   0  0  0  0  0  0  0  0  0  0  0  0
  140.0030   78.2670  222.2920 C   0  0  0  0  0  0  0  0  0  0  0  0
  141.0730   77.3160  222.7840 C   0  0  0  0  0  0  0  0  0  0  0  0
  141.0300   76.1110  221.8630 C   0  0  0  0  0  0  0  0  0  0  0  0
  139.7640   75.4490  221.9030 N   0  0  0  0  0  0  0  0  0  0  0  0
  139.5270   74.0640  221.9810 C   0  0  0  0  0  0  0  0  0  0  0  0
  138.2790   73.6980  222.0350 O   0  0  0  0  0  0  0  0  0  0  0  0
  140.4730   72.9460  222.0120 C   0  0  2  0  0  0  0  0  0  0  0  0
  141.4390   72.8900  220.9660 N   0  0  0  0  0  0  0  0  0  0  0  0
  139.6900   71.6380  222.1270 C   0  0  0  0  0  0  0  0  0  0  0  0
  139.7530   71.0090  223.4380 C   0  0  0  0  0  0  0  0  0  0  0  0
  139.2730   69.7610  223.7640 C   0  0  0  0  0  0  0  0  0  0  0  0
  139.3560   69.2210  225.0350 C   0  0  0  0  0  0  0  0  0  0  0  0
  139.9370   69.9240  226.0570 C   0  0  0  0  0  0  0  0  0  0  0  0
  140.0130   69.3790  227.3100 C   0  0  0  0  0  0  0  0  0  0  0  0
  140.6030   70.0930  228.3420 C   0  0  0  0  0  0  0  0  0  0  0  0
  141.1000   71.3550  228.0560 C   0  0  0  0  0  0  0  0  0  0  0  0
  141.0270   71.9100  226.7970 C   0  0  0  0  0  0  0  0  0  0  0  0
  140.4290   71.1760  225.7670 C   0  0  0  0  0  0  0  0  0  0  0  0
  140.3450   71.7190  224.4900 C   0  0  0  0  0  0  0  0  0  0  0  0
  138.5880   76.3150  221.8390 C   0  0  0  0  0  0  0  0  0  0  0  0
  138.6910   77.5780  222.6030 C   0  0  0  0  0  0  0  0  0  0  0  0
  141.1999   82.7126  222.5891 H   0  0  0  0  0  0  0  0  0  0  0  0
  142.1421   82.8218  221.0636 H   0  0  0  0  0  0  0  0  0  0  0  0
  140.5189   82.0523  221.0636 H   0  0  0  0  0  0  0  0  0  0  0  0
  142.0032   80.2431  221.0401 H   0  0  0  0  0  0  0  0  0  0  0  0
  143.1191   81.0506  222.2219 H   0  0  0  0  0  0  0  0  0  0  0  0
  138.5629   80.8969  221.2197 H   0  0  0  0  0  0  0  0  0  0  0  0
  136.4909   82.1461  221.8720 H   0  0  0  0  0  0  0  0  0  0  0  0
  135.7689   82.1926  224.2438 H   0  0  0  0  0  0  0  0  0  0  0  0
  137.0682   81.0230  226.0093 H   0  0  0  0  0  0  0  0  0  0  0  0
  139.1246   79.7806  225.3529 H   0  0  0  0  0  0  0  0  0  0  0  0
  140.0914   78.4659  221.2138 H   0  0  0  0  0  0  0  0  0  0  0  0
  142.0611   77.7969  222.7357 H   0  0  0  0  0  0  0  0  0  0  0  0
  140.8982   77.0252  223.8303 H   0  0  0  0  0  0  0  0  0  0  0  0
  141.2234   76.4448  220.8329 H   0  0  0  0  0  0  0  0  0  0  0  0
  141.7961   75.3980  222.2018 H   0  0  0  0  0  0  0  0  0  0  0  0
  141.0996   73.1179  222.8996 H   0  0  0  0  0  0  0  0  0  0  0  0
  142.0690   73.7150  220.9150 H   0  0  0  0  0  0  0  0  0  0  0  0
  141.0230   72.7420  220.0240 H   0  0  0  0  0  0  0  0  0  0  0  0
  138.6350   71.8480  221.8973 H   0  0  0  0  0  0  0  0  0  0  0  0
  140.1528   70.9337  221.4200 H   0  0  0  0  0  0  0  0  0  0  0  0
  138.7987   69.1618  222.9728 H   0  0  0  0  0  0  0  0  0  0  0  0
  138.9511   68.2164  225.2269 H   0  0  0  0  0  0  0  0  0  0  0  0
  139.6061   68.3746  227.4985 H   0  0  0  0  0  0  0  0  0  0  0  0
  140.6743   69.6713  229.3554 H   0  0  0  0  0  0  0  0  0  0  0  0
  141.5701   71.9348  228.8640 H   0  0  0  0  0  0  0  0  0  0  0  0
  141.4325   72.9143  226.6048 H   0  0  0  0  0  0  0  0  0  0  0  0
  140.7507   72.7241  224.3026 H   0  0  0  0  0  0  0  0  0  0  0  0
  138.4104   76.5696  220.7837 H   0  0  0  0  0  0  0  0  0  0  0  0
  137.7662   75.7469  222.2994 H   0  0  0  0  0  0  0  0  0  0  0  0
  137.8574   78.2401  222.3260 H   0  0  0  0  0  0  0  0  0  0  0  0
  138.6478   77.3532  223.6789 H   0  0  0  0  0  0  0  0  0  0  0  0
  1  2  1  0
  2  3  1  0
  3  4  2  0
  3  5  1  0
  5  6  1  0
  6  7  2  0
  7  8  1  0
  8  9  2  0
  9 10  1  0
 10 11  2  0
  5 12  1  0
 12 13  1  0
 13 14  1  0
 14 15  1  0
 15 16  1  0
 16 17  2  0
 16 18  1  0
 18 19  1  0
 18 20  1  0
 20 21  1  0
 21 22  2  0
 22 23  1  0
 23 24  2  0
 24 25  1  0
 25 26  2  0
 26 27  1  0
 27 28  2  0
 28 29  1  0
 29 30  2  0
 15 31  1  0
 31 32  1  0
 11  6  1  0
 32 12  1  0
 30 21  1  0
 29 24  1  0
  1 33  1  0
  1 34  1  0
  1 35  1  0
  2 36  1  0
  2 37  1  0
  7 38  1  0
  8 39  1  0
  9 40  1  0
 10 41  1  0
 11 42  1  0
 12 43  1  0
 13 44  1  0
 13 45  1  0
 14 46  1  0
 14 47  1  0
 18 48  1  1
 19 49  1  0
 19 50  1  0
 20 51  1  0
 20 52  1  0
 22 53  1  0
 23 54  1  0
 25 55  1  0
 26 56  1  0
 27 57  1  0
 28 58  1  0
 30 59  1  0
 31 60  1  0
 31 61  1  0
 32 62  1  0
 32 63  1  0
M  END
>  <smiles>  (36) 
CCC(=O)N(c1ccccc1)C1CCN(C(=O)[C@H](N)Cc2ccc3ccccc3c2)CC1

>  <score_type>  (36) 
oracle

>  <origin>  (36) 
autodockgpu

>  <m_score__min__energy>  (36) 
-9.5700000000000003

>  <m_primary>  (36) 
energy

>  <rmsd>  (36) 
5.591819505283496

>  <m_score__min__rmsd>  (36) 
5.591819505283496

>  <meeko>  (36) 
{"free_energy": -8.53, "intermolecular_energy": -10.92, "internal_energy": -1.65, "cluster_size": 7, "cluster_id": 5, "rank_in_cluster": 3}

>  <energy>  (36) 
-8.55

>  <cluster_rmsd>  (36) 
0.94

>  <cluster>  (36) 
4

$$$$

     RDKit          3D

 63 66  0  0  0  0  0  0  0  0999 V2000
  141.0660   79.5270  218.9640 C   0  0  0  0  0  0  0  0  0  0  0  0
  139.6370   79.1520  219.2260 C   0  0  0  0  0  0  0  0  0  0  0  0
  139.3000   79.2160  220.6790 C   0  0  0  0  0  0  0  0  0  0  0  0
  138.1850   79.7140  220.9830 O   0  0  0  0  0  0  0  0  0  0  0  0
  140.2270   78.7250  221.6410 N   0  0  0  0  0  0  0  0  0  0  0  0
  141.0210   79.6590  222.4030 C   0  0  0  0  0  0  0  0  0  0  0  0
  140.9680   80.9800  222.0350 C   0  0  0  0  0  0  0  0  0  0  0  0
  141.7310   81.8800  222.7640 C   0  0  0  0  0  0  0  0  0  0  0  0
  142.5130   81.4300  223.8280 C   0  0  0  0  0  0  0  0  0  0  0  0
  142.5570   80.0950  224.1890 C   0  0  0  0  0  0  0  0  0  0  0  0
  141.8010   79.2060  223.4650 C   0  0  0  0  0  0  0  0  0  0  0  0
  140.3850   77.3180  221.8670 C   0  0  0  0  0  0  0  0  0  0  0  0
  139.0710   76.5690  221.7920 C   0  0  0  0  0  0  0  0  0  0  0  0
  139.3320   75.1890  222.3660 C   0  0  0  0  0  0  0  0  0  0  0  0
  140.3200   74.4740  221.6190 N   0  0  0  0  0  0  0  0  0  0  0  0
  140.2710   73.1290  221.2080 C   0  0  0  0  0  0  0  0  0  0  0  0
  141.2840   72.7070  220.5070 O   0  0  0  0  0  0  0  0  0  0  0  0
  139.2490   72.1080  221.4440 C   0  0  2  0  0  0  0  0  0  0  0  0
  138.1760   72.4580  222.3140 N   0  0  0  0  0  0  0  0  0  0  0  0
  139.9340   70.8150  221.8880 C   0  0  0  0  0  0  0  0  0  0  0  0
  139.8170   70.5260  223.3090 C   0  0  0  0  0  0  0  0  0  0  0  0
  139.0460   69.5360  223.8760 C   0  0  0  0  0  0  0  0  0  0  0  0
  138.9700   69.3170  225.2400 C   0  0  0  0  0  0  0  0  0  0  0  0
  139.6790   70.0980  226.1150 C   0  0  0  0  0  0  0  0  0  0  0  0
  139.5970   69.8700  227.4610 C   0  0  0  0  0  0  0  0  0  0  0  0
  140.3160   70.6620  228.3440 C   0  0  0  0  0  0  0  0  0  0  0  0
  141.1050   71.6710  227.8140 C   0  0  0  0  0  0  0  0  0  0  0  0
  141.1940   71.9050  226.4590 C   0  0  0  0  0  0  0  0  0  0  0  0
  140.4620   71.0970  225.5830 C   0  0  0  0  0  0  0  0  0  0  0  0
  140.5370   71.3180  224.2120 C   0  0  0  0  0  0  0  0  0  0  0  0
  141.5190   75.2290  221.2600 C   0  0  0  0  0  0  0  0  0  0  0  0
  141.2850   76.6340  220.8600 C   0  0  0  0  0  0  0  0  0  0  0  0
  141.5904   79.6646  219.9211 H   0  0  0  0  0  0  0  0  0  0  0  0
  141.5556   78.7269  218.3894 H   0  0  0  0  0  0  0  0  0  0  0  0
  141.0997   80.4644  218.3894 H   0  0  0  0  0  0  0  0  0  0  0  0
  138.9816   79.8453  218.6784 H   0  0  0  0  0  0  0  0  0  0  0  0
  139.4900   78.1155  218.8882 H   0  0  0  0  0  0  0  0  0  0  0  0
  140.3434   81.3128  221.1929 H   0  0  0  0  0  0  0  0  0  0  0  0
  141.7195   82.9486  222.5032 H   0  0  0  0  0  0  0  0  0  0  0  0
  143.1117   82.1572  224.3962 H   0  0  0  0  0  0  0  0  0  0  0  0
  143.1789   79.7559  225.0306 H   0  0  0  0  0  0  0  0  0  0  0  0
  141.8112   78.1368  223.7234 H   0  0  0  0  0  0  0  0  0  0  0  0
  140.8273   77.2777  222.8734 H   0  0  0  0  0  0  0  0  0  0  0  0
  138.3027   77.0882  222.3837 H   0  0  0  0  0  0  0  0  0  0  0  0
  138.7051   76.5078  220.7565 H   0  0  0  0  0  0  0  0  0  0  0  0
  139.6809   75.2966  223.4037 H   0  0  0  0  0  0  0  0  0  0  0  0
  138.3926   74.6188  222.3180 H   0  0  0  0  0  0  0  0  0  0  0  0
  138.7361   71.9808  220.4792 H   0  0  0  0  0  0  0  0  0  0  0  0
  137.4150   73.0050  221.8630 H   0  0  0  0  0  0  0  0  0  0  0  0
  138.4820   72.9720  223.1650 H   0  0  0  0  0  0  0  0  0  0  0  0
  139.4858   69.9798  221.3298 H   0  0  0  0  0  0  0  0  0  0  0  0
  141.0070   70.9438  221.6829 H   0  0  0  0  0  0  0  0  0  0  0  0
  138.4601   68.8855  223.2100 H   0  0  0  0  0  0  0  0  0  0  0  0
  138.3336   68.5072  225.6264 H   0  0  0  0  0  0  0  0  0  0  0  0
  138.9607   69.0583  227.8434 H   0  0  0  0  0  0  0  0  0  0  0  0
  140.2618   70.4948  229.4299 H   0  0  0  0  0  0  0  0  0  0  0  0
  141.6814   72.3085  228.5005 H   0  0  0  0  0  0  0  0  0  0  0  0
  141.8307   72.7145  226.0724 H   0  0  0  0  0  0  0  0  0  0  0  0
  141.1735   72.1297  223.8299 H   0  0  0  0  0  0  0  0  0  0  0  0
  142.1926   75.2309  222.1297 H   0  0  0  0  0  0  0  0  0  0  0  0
  141.9413   74.7275  220.3767 H   0  0  0  0  0  0  0  0  0  0  0  0
  142.2477   77.1642  220.8131 H   0  0  0  0  0  0  0  0  0  0  0  0
  140.7999   76.6516  219.8729 H   0  0  0  0  0  0  0  0  0  0  0  0
  1  2  1  0
  2  3  1  0
  3  4  2  0
  3  5  1  0
  5  6  1  0
  6  7  2  0
  7  8  1  0
  8  9  2  0
  9 10  1  0
 10 11  2  0
  5 12  1  0
 12 13  1  0
 13 14  1  0
 14 15  1  0
 15 16  1  0
 16 17  2  0
 16 18  1  0
 18 19  1  0
 18 20  1  0
 20 21  1  0
 21 22  2  0
 22 23  1  0
 23 24  2  0
 24 25  1  0
 25 26  2  0
 26 27  1  0
 27 28  2  0
 28 29  1  0
 29 30  2  0
 15 31  1  0
 31 32  1  0
 11  6  1  0
 32 12  1  0
 30 21  1  0
 29 24  1  0
  1 33  1  0
  1 34  1  0
  1 35  1  0
  2 36  1  0
  2 37  1  0
  7 38  1  0
  8 39  1  0
  9 40  1  0
 10 41  1  0
 11 42  1  0
 12 43  1  0
 13 44  1  0
 13 45  1  0
 14 46  1  0
 14 47  1  0
 18 48  1  6
 19 49  1  0
 19 50  1  0
 20 51  1  0
 20 52  1  0
 22 53  1  0
 23 54  1  0
 25 55  1  0
 26 56  1  0
 27 57  1  0
 28 58  1  0
 30 59  1  0
 31 60  1  0
 31 61  1  0
 32 62  1  0
 32 63  1  0
M  END
>  <smiles>  (37) 
CCC(=O)N(c1ccccc1)C1CCN(C(=O)[C@H](N)Cc2ccc3ccccc3c2)CC1

>  <score_type>  (37) 
oracle

>  <origin>  (37) 
autodockgpu

>  <m_score__min__energy>  (37) 
-9.5700000000000003

>  <m_primary>  (37) 
energy

>  <rmsd>  (37) 
6.1365356323689

>  <m_score__min__rmsd>  (37) 
6.1365356323689

>  <meeko>  (37) 
{"free_energy": -8.58, "intermolecular_energy": -10.96, "internal_energy": -1.75, "cluster_size": 20, "cluster_id": 1, "rank_in_cluster": 17}

>  <energy>  (37) 
-8.44

>  <cluster_rmsd>  (37) 
0.98

>  <cluster>  (37) 
4

$$$$

     RDKit          3D

 63 66  0  0  0  0  0  0  0  0999 V2000
  142.1840   80.8480  223.5890 C   0  0  0  0  0  0  0  0  0  0  0  0
  141.7880   81.4010  222.2520 C   0  0  0  0  0  0  0  0  0  0  0  0
  140.5970   80.7000  221.6880 C   0  0  0  0  0  0  0  0  0  0  0  0
  140.4610   80.7250  220.4370 O   0  0  0  0  0  0  0  0  0  0  0  0
  139.6830   80.0470  222.5620 N   0  0  0  0  0  0  0  0  0  0  0  0
  138.6870   80.8270  223.2600 C   0  0  0  0  0  0  0  0  0  0  0  0
  138.4310   80.5000  224.5670 C   0  0  0  0  0  0  0  0  0  0  0  0
  137.4740   81.2440  225.2400 C   0  0  0  0  0  0  0  0  0  0  0  0
  136.8130   82.2840  224.5850 C   0  0  0  0  0  0  0  0  0  0  0  0
  137.0800   82.6040  223.2660 C   0  0  0  0  0  0  0  0  0  0  0  0
  138.0290   81.8640  222.6020 C   0  0  0  0  0  0  0  0  0  0  0  0
  139.7320   78.6290  222.7620 C   0  0  0  0  0  0  0  0  0  0  0  0
  138.6160   77.9040  222.0400 C   0  0  0  0  0  0  0  0  0  0  0  0
  138.5930   76.4920  222.5960 C   0  0  0  0  0  0  0  0  0  0  0  0
  139.8240   75.8030  222.3630 N   0  0  0  0  0  0  0  0  0  0  0  0
  139.9900   74.4820  221.9070 C   0  0  0  0  0  0  0  0  0  0  0  0
  141.2170   74.0820  221.7420 O   0  0  0  0  0  0  0  0  0  0  0  0
  138.9880   73.4650  221.5820 C   0  0  2  0  0  0  0  0  0  0  0  0
  137.7810   73.4830  222.3400 N   0  0  0  0  0  0  0  0  0  0  0  0
  139.6520   72.0880  221.6130 C   0  0  0  0  0  0  0  0  0  0  0  0
  139.5900   71.4160  222.9020 C   0  0  0  0  0  0  0  0  0  0  0  0
  138.8290   70.3100  223.2060 C   0  0  0  0  0  0  0  0  0  0  0  0
  138.8080   69.7200  224.4580 C   0  0  0  0  0  0  0  0  0  0  0  0
  139.5650   70.2260  225.4820 C   0  0  0  0  0  0  0  0  0  0  0  0
  139.5360   69.6340  226.7150 C   0  0  0  0  0  0  0  0  0  0  0  0
  140.3040   70.1470  227.7490 C   0  0  0  0  0  0  0  0  0  0  0  0
  141.0840   71.2610  227.4850 C   0  0  0  0  0  0  0  0  0  0  0  0
  141.1200   71.8630  226.2460 C   0  0  0  0  0  0  0  0  0  0  0  0
  140.3390   71.3310  225.2130 C   0  0  0  0  0  0  0  0  0  0  0  0
  140.3600   71.9240  223.9560 C   0  0  0  0  0  0  0  0  0  0  0  0
  141.0430   76.5580  222.6490 C   0  0  0  0  0  0  0  0  0  0  0  0
  141.0080   77.9850  222.2610 C   0  0  0  0  0  0  0  0  0  0  0  0
  141.7426   81.4644  224.3861 H   0  0  0  0  0  0  0  0  0  0  0  0
  141.8197   79.8141  223.6807 H   0  0  0  0  0  0  0  0  0  0  0  0
  143.2801   80.8600  223.6807 H   0  0  0  0  0  0  0  0  0  0  0  0
  141.5508   82.4691  222.3655 H   0  0  0  0  0  0  0  0  0  0  0  0
  142.6297   81.2520  221.5596 H   0  0  0  0  0  0  0  0  0  0  0  0
  138.9658   79.6769  225.0636 H   0  0  0  0  0  0  0  0  0  0  0  0
  137.2360   81.0148  226.2892 H   0  0  0  0  0  0  0  0  0  0  0  0
  136.0578   82.8661  225.1335 H   0  0  0  0  0  0  0  0  0  0  0  0
  136.5488   83.4259  222.7637 H   0  0  0  0  0  0  0  0  0  0  0  0
  138.2687   82.0902  221.5525 H   0  0  0  0  0  0  0  0  0  0  0  0
  139.6499   78.5303  223.8545 H   0  0  0  0  0  0  0  0  0  0  0  0
  137.6539   78.4028  222.2283 H   0  0  0  0  0  0  0  0  0  0  0  0
  138.7798   77.9019  220.9523 H   0  0  0  0  0  0  0  0  0  0  0  0
  138.4131   76.5404  223.6801 H   0  0  0  0  0  0  0  0  0  0  0  0
  137.7924   75.9387  222.0833 H   0  0  0  0  0  0  0  0  0  0  0  0
  138.6333   73.7174  220.5718 H   0  0  0  0  0  0  0  0  0  0  0  0
  137.5370   74.4100  222.7430 H   0  0  0  0  0  0  0  0  0  0  0  0
  137.7630   72.7810  223.1080 H   0  0  0  0  0  0  0  0  0  0  0  0
  139.1536   71.4496  220.8687 H   0  0  0  0  0  0  0  0  0  0  0  0
  140.7182   72.2504  221.3964 H   0  0  0  0  0  0  0  0  0  0  0  0
  138.2051   69.8723  222.4128 H   0  0  0  0  0  0  0  0  0  0  0  0
  138.1772   68.8359  224.6327 H   0  0  0  0  0  0  0  0  0  0  0  0
  138.9031   68.7507  226.8861 H   0  0  0  0  0  0  0  0  0  0  0  0
  140.2943   69.6843  228.7469 H   0  0  0  0  0  0  0  0  0  0  0  0
  141.6980   71.6810  228.2953 H   0  0  0  0  0  0  0  0  0  0  0  0
  141.7516   72.7465  226.0715 H   0  0  0  0  0  0  0  0  0  0  0  0
  140.9925   72.8078  223.7860 H   0  0  0  0  0  0  0  0  0  0  0  0
  141.2297   76.5046  223.7317 H   0  0  0  0  0  0  0  0  0  0  0  0
  141.8360   76.0969  222.0419 H   0  0  0  0  0  0  0  0  0  0  0  0
  141.8736   78.5028  222.6999 H   0  0  0  0  0  0  0  0  0  0  0  0
  141.0433   78.0610  221.1642 H   0  0  0  0  0  0  0  0  0  0  0  0
  1  2  1  0
  2  3  1  0
  3  4  2  0
  3  5  1  0
  5  6  1  0
  6  7  2  0
  7  8  1  0
  8  9  2  0
  9 10  1  0
 10 11  2  0
  5 12  1  0
 12 13  1  0
 13 14  1  0
 14 15  1  0
 15 16  1  0
 16 17  2  0
 16 18  1  0
 18 19  1  0
 18 20  1  0
 20 21  1  0
 21 22  2  0
 22 23  1  0
 23 24  2  0
 24 25  1  0
 25 26  2  0
 26 27  1  0
 27 28  2  0
 28 29  1  0
 29 30  2  0
 15 31  1  0
 31 32  1  0
 11  6  1  0
 32 12  1  0
 30 21  1  0
 29 24  1  0
  1 33  1  0
  1 34  1  0
  1 35  1  0
  2 36  1  0
  2 37  1  0
  7 38  1  0
  8 39  1  0
  9 40  1  0
 10 41  1  0
 11 42  1  0
 12 43  1  0
 13 44  1  0
 13 45  1  0
 14 46  1  0
 14 47  1  0
 18 48  1  6
 19 49  1  0
 19 50  1  0
 20 51  1  0
 20 52  1  0
 22 53  1  0
 23 54  1  0
 25 55  1  0
 26 56  1  0
 27 57  1  0
 28 58  1  0
 30 59  1  0
 31 60  1  0
 31 61  1  0
 32 62  1  0
 32 63  1  0
M  END
>  <smiles>  (38) 
CCC(=O)N(c1ccccc1)C1CCN(C(=O)[C@H](N)Cc2ccc3ccccc3c2)CC1

>  <score_type>  (38) 
oracle

>  <origin>  (38) 
autodockgpu

>  <m_score__min__energy>  (38) 
-9.5700000000000003

>  <m_primary>  (38) 
energy

>  <rmsd>  (38) 
5.1750015880167

>  <m_score__min__rmsd>  (38) 
5.1750015880167

>  <meeko>  (38) 
{"free_energy": -8.93, "intermolecular_energy": -11.32, "internal_energy": -1.71, "cluster_size": 7, "cluster_id": 5, "rank_in_cluster": 1}

>  <energy>  (38) 
-8.43

>  <cluster_rmsd>  (38) 
1.74

>  <cluster>  (38) 
4

$$$$

     RDKit          3D

 63 66  0  0  0  0  0  0  0  0999 V2000
  141.7970   79.3170  219.0900 C   0  0  0  0  0  0  0  0  0  0  0  0
  140.3450   78.9400  219.0560 C   0  0  0  0  0  0  0  0  0  0  0  0
  139.7190   79.0100  220.4090 C   0  0  0  0  0  0  0  0  0  0  0  0
  138.5680   79.5140  220.4780 O   0  0  0  0  0  0  0  0  0  0  0  0
  140.4270   78.5170  221.5410 N   0  0  0  0  0  0  0  0  0  0  0  0
  141.1710   79.4380  222.3690 C   0  0  0  0  0  0  0  0  0  0  0  0
  140.4570   80.3810  223.0640 C   0  0  0  0  0  0  0  0  0  0  0  0
  141.1670   81.2670  223.8580 C   0  0  0  0  0  0  0  0  0  0  0  0
  142.5570   81.1790  223.9300 C   0  0  0  0  0  0  0  0  0  0  0  0
  143.2660   80.2240  223.2230 C   0  0  0  0  0  0  0  0  0  0  0  0
  142.5590   79.3470  222.4370 C   0  0  0  0  0  0  0  0  0  0  0  0
  140.4150   77.1230  221.8750 C   0  0  0  0  0  0  0  0  0  0  0  0
  139.0640   76.4830  221.6350 C   0  0  0  0  0  0  0  0  0  0  0  0
  139.1010   75.1330  222.3270 C   0  0  0  0  0  0  0  0  0  0  0  0
  140.1210   74.2840  221.7930 N   0  0  0  0  0  0  0  0  0  0  0  0
  140.0090   72.9210  221.4620 C   0  0  0  0  0  0  0  0  0  0  0  0
  141.0730   72.3650  220.9610 O   0  0  0  0  0  0  0  0  0  0  0  0
  138.8700   72.0100  221.5930 C   0  0  2  0  0  0  0  0  0  0  0  0
  137.8110   72.4190  222.4530 N   0  0  0  0  0  0  0  0  0  0  0  0
  139.3890   70.6190  221.9600 C   0  0  0  0  0  0  0  0  0  0  0  0
  139.4430   70.3530  223.3900 C   0  0  0  0  0  0  0  0  0  0  0  0
  138.8090   69.3240  224.0490 C   0  0  0  0  0  0  0  0  0  0  0  0
  138.8930   69.1290  225.4160 C   0  0  0  0  0  0  0  0  0  0  0  0
  139.6330   69.9750  226.1990 C   0  0  0  0  0  0  0  0  0  0  0  0
  139.7090   69.7710  227.5500 C   0  0  0  0  0  0  0  0  0  0  0  0
  140.4600   70.6290  228.3400 C   0  0  0  0  0  0  0  0  0  0  0  0
  141.1150   71.6790  227.7150 C   0  0  0  0  0  0  0  0  0  0  0  0
  141.0440   71.8900  226.3550 C   0  0  0  0  0  0  0  0  0  0  0  0
  140.2820   71.0150  225.5730 C   0  0  0  0  0  0  0  0  0  0  0  0
  140.1970   71.2110  224.2000 C   0  0  0  0  0  0  0  0  0  0  0  0
  141.4270   74.9070  221.5870 C   0  0  0  0  0  0  0  0  0  0  0  0
  141.3920   76.2930  221.0700 C   0  0  0  0  0  0  0  0  0  0  0  0
  142.1291   79.4032  220.1351 H   0  0  0  0  0  0  0  0  0  0  0  0
  142.3889   78.5428  218.5799 H   0  0  0  0  0  0  0  0  0  0  0  0
  141.9375   80.2814  218.5799 H   0  0  0  0  0  0  0  0  0  0  0  0
  139.8144   79.6294  218.3828 H   0  0  0  0  0  0  0  0  0  0  0  0
  140.2710   77.9019  218.6999 H   0  0  0  0  0  0  0  0  0  0  0  0
  139.3604   80.4318  222.9934 H   0  0  0  0  0  0  0  0  0  0  0  0
  140.6344   82.0398  224.4316 H   0  0  0  0  0  0  0  0  0  0  0  0
  143.1052   81.8889  224.5668 H   0  0  0  0  0  0  0  0  0  0  0  0
  144.3627   80.1688  223.2884 H   0  0  0  0  0  0  0  0  0  0  0  0
  143.0887   78.5734  221.8617 H   0  0  0  0  0  0  0  0  0  0  0  0
  140.6901   77.1213  222.9400 H   0  0  0  0  0  0  0  0  0  0  0  0
  138.2657   77.1078  222.0621 H   0  0  0  0  0  0  0  0  0  0  0  0
  138.8592   76.3747  220.5597 H   0  0  0  0  0  0  0  0  0  0  0  0
  139.2938   75.2886  223.3987 H   0  0  0  0  0  0  0  0  0  0  0  0
  138.1305   74.6414  222.1641 H   0  0  0  0  0  0  0  0  0  0  0  0
  138.3818   72.0103  220.6073 H   0  0  0  0  0  0  0  0  0  0  0  0
  137.0590   72.9640  221.9840 H   0  0  0  0  0  0  0  0  0  0  0  0
  138.1350   72.9600  223.2800 H   0  0  0  0  0  0  0  0  0  0  0  0
  138.7278   69.8722  221.4963 H   0  0  0  0  0  0  0  0  0  0  0  0
  140.4243   70.5642  221.5922 H   0  0  0  0  0  0  0  0  0  0  0  0
  138.2043   68.6204  223.4580 H   0  0  0  0  0  0  0  0  0  0  0  0
  138.3599   68.2856  225.8791 H   0  0  0  0  0  0  0  0  0  0  0  0
  139.1745   68.9266  228.0096 H   0  0  0  0  0  0  0  0  0  0  0  0
  140.5335   70.4810  229.4275 H   0  0  0  0  0  0  0  0  0  0  0  0
  141.7136   72.3693  228.3274 H   0  0  0  0  0  0  0  0  0  0  0  0
  141.5778   72.7328  225.8916 H   0  0  0  0  0  0  0  0  0  0  0  0
  140.7318   72.0556  223.7410 H   0  0  0  0  0  0  0  0  0  0  0  0
  141.9545   74.9176  222.5522 H   0  0  0  0  0  0  0  0  0  0  0  0
  141.9318   74.3072  220.8154 H   0  0  0  0  0  0  0  0  0  0  0  0
  142.3959   76.7358  221.1474 H   0  0  0  0  0  0  0  0  0  0  0  0
  141.0704   76.2773  220.0182 H   0  0  0  0  0  0  0  0  0  0  0  0
  1  2  1  0
  2  3  1  0
  3  4  2  0
  3  5  1  0
  5  6  1  0
  6  7  2  0
  7  8  1  0
  8  9  2  0
  9 10  1  0
 10 11  2  0
  5 12  1  0
 12 13  1  0
 13 14  1  0
 14 15  1  0
 15 16  1  0
 16 17  2  0
 16 18  1  0
 18 19  1  0
 18 20  1  0
 20 21  1  0
 21 22  2  0
 22 23  1  0
 23 24  2  0
 24 25  1  0
 25 26  2  0
 26 27  1  0
 27 28  2  0
 28 29  1  0
 29 30  2  0
 15 31  1  0
 31 32  1  0
 11  6  1  0
 32 12  1  0
 30 21  1  0
 29 24  1  0
  1 33  1  0
  1 34  1  0
  1 35  1  0
  2 36  1  0
  2 37  1  0
  7 38  1  0
  8 39  1  0
  9 40  1  0
 10 41  1  0
 11 42  1  0
 12 43  1  0
 13 44  1  0
 13 45  1  0
 14 46  1  0
 14 47  1  0
 18 48  1  6
 19 49  1  0
 19 50  1  0
 20 51  1  0
 20 52  1  0
 22 53  1  0
 23 54  1  0
 25 55  1  0
 26 56  1  0
 27 57  1  0
 28 58  1  0
 30 59  1  0
 31 60  1  0
 31 61  1  0
 32 62  1  0
 32 63  1  0
M  END
>  <smiles>  (39) 
CCC(=O)N(c1ccccc1)C1CCN(C(=O)[C@H](N)Cc2ccc3ccccc3c2)CC1

>  <score_type>  (39) 
oracle

>  <origin>  (39) 
autodockgpu

>  <m_score__min__energy>  (39) 
-9.5700000000000003

>  <m_primary>  (39) 
energy

>  <rmsd>  (39) 
6.332470278884703

>  <m_score__min__rmsd>  (39) 
6.332470278884703

>  <meeko>  (39) 
{"free_energy": -8.88, "intermolecular_energy": -11.27, "internal_energy": -1.76, "cluster_size": 20, "cluster_id": 1, "rank_in_cluster": 15}

>  <energy>  (39) 
-8.93

>  <cluster_rmsd>  (39) 
0.0

>  <cluster>  (39) 
5

$$$$

     RDKit          3D

 63 66  0  0  0  0  0  0  0  0999 V2000
  137.3350   81.1440  225.2390 C   0  0  0  0  0  0  0  0  0  0  0  0
  138.3730   80.8420  224.1980 C   0  0  0  0  0  0  0  0  0  0  0  0
  138.0390   79.6150  223.4160 C   0  0  0  0  0  0  0  0  0  0  0  0
  136.8210   79.3090  223.3300 O   0  0  0  0  0  0  0  0  0  0  0  0
  139.0810   78.8560  222.8130 N   0  0  0  0  0  0  0  0  0  0  0  0
  140.4210   79.3940  222.7780 C   0  0  0  0  0  0  0  0  0  0  0  0
  141.1950   79.2340  223.9000 C   0  0  0  0  0  0  0  0  0  0  0  0
  142.4810   79.7490  223.8720 C   0  0  0  0  0  0  0  0  0  0  0  0
  142.9460   80.4020  222.7290 C   0  0  0  0  0  0  0  0  0  0  0  0
  142.1550   80.5570  221.6040 C   0  0  0  0  0  0  0  0  0  0  0  0
  140.8810   80.0450  221.6360 C   0  0  0  0  0  0  0  0  0  0  0  0
  138.8250   77.5670  222.2400 C   0  0  0  0  0  0  0  0  0  0  0  0
  140.0810   76.7330  222.1080 C   0  0  0  0  0  0  0  0  0  0  0  0
  139.7260   75.5650  221.2070 C   0  0  0  0  0  0  0  0  0  0  0  0
  138.6860   74.7560  221.7610 N   0  0  0  0  0  0  0  0  0  0  0  0
  138.6360   73.3510  221.8180 C   0  0  0  0  0  0  0  0  0  0  0  0
  137.5920   72.8380  222.4010 O   0  0  0  0  0  0  0  0  0  0  0  0
  139.5850   72.3530  221.3180 C   0  0  2  0  0  0  0  0  0  0  0  0
  139.0450   71.1040  220.8980 N   0  0  0  0  0  0  0  0  0  0  0  0
  140.6980   72.1680  222.3500 C   0  0  0  0  0  0  0  0  0  0  0  0
  140.3070   71.4140  223.5320 C   0  0  0  0  0  0  0  0  0  0  0  0
  139.5580   70.2590  223.5470 C   0  0  0  0  0  0  0  0  0  0  0  0
  139.2110   69.5910  224.7080 C   0  0  0  0  0  0  0  0  0  0  0  0
  139.6080   70.0630  225.9320 C   0  0  0  0  0  0  0  0  0  0  0  0
  139.2590   69.3940  227.0730 C   0  0  0  0  0  0  0  0  0  0  0  0
  139.6630   69.8730  228.3100 C   0  0  0  0  0  0  0  0  0  0  0  0
  140.4190   71.0350  228.3380 C   0  0  0  0  0  0  0  0  0  0  0  0
  140.7750   71.7140  227.1940 C   0  0  0  0  0  0  0  0  0  0  0  0
  140.3590   71.2160  225.9540 C   0  0  0  0  0  0  0  0  0  0  0  0
  140.7070   71.8870  224.7880 C   0  0  0  0  0  0  0  0  0  0  0  0
  137.5410   75.4780  222.3130 C   0  0  0  0  0  0  0  0  0  0  0  0
  137.8720   76.7160  223.0530 C   0  0  0  0  0  0  0  0  0  0  0  0
  137.7721   81.0168  226.2404 H   0  0  0  0  0  0  0  0  0  0  0  0
  136.9869   82.1806  225.1198 H   0  0  0  0  0  0  0  0  0  0  0  0
  136.4851   80.4559  225.1198 H   0  0  0  0  0  0  0  0  0  0  0  0
  138.4425   81.6954  223.5075 H   0  0  0  0  0  0  0  0  0  0  0  0
  139.3297   80.6678  224.7121 H   0  0  0  0  0  0  0  0  0  0  0  0
  140.8083   78.7155  224.7897 H   0  0  0  0  0  0  0  0  0  0  0  0
  143.1353   79.6434  224.7499 H   0  0  0  0  0  0  0  0  0  0  0  0
  143.9697   80.8046  222.7224 H   0  0  0  0  0  0  0  0  0  0  0  0
  142.5352   81.0747  220.7110 H   0  0  0  0  0  0  0  0  0  0  0  0
  140.2241   80.1491  220.7598 H   0  0  0  0  0  0  0  0  0  0  0  0
  138.3880   77.8135  221.2611 H   0  0  0  0  0  0  0  0  0  0  0  0
  140.8882   77.3294  221.6577 H   0  0  0  0  0  0  0  0  0  0  0  0
  140.4349   76.3863  223.0901 H   0  0  0  0  0  0  0  0  0  0  0  0
  139.3916   75.9558  220.2346 H   0  0  0  0  0  0  0  0  0  0  0  0
  140.6223   74.9367  221.0975 H   0  0  0  0  0  0  0  0  0  0  0  0
  139.9754   72.7666  220.3764 H   0  0  0  0  0  0  0  0  0  0  0  0
  138.0930   70.8980  221.2630 H   0  0  0  0  0  0  0  0  0  0  0  0
  139.6580   70.2920  221.1180 H   0  0  0  0  0  0  0  0  0  0  0  0
  141.5314   71.6386  221.8651 H   0  0  0  0  0  0  0  0  0  0  0  0
  140.9718   73.1749  222.6981 H   0  0  0  0  0  0  0  0  0  0  0  0
  139.2177   69.8457  222.5861 H   0  0  0  0  0  0  0  0  0  0  0  0
  138.6102   68.6715  224.6480 H   0  0  0  0  0  0  0  0  0  0  0  0
  138.6574   68.4753  227.0092 H   0  0  0  0  0  0  0  0  0  0  0  0
  139.3927   69.3485  229.2383 H   0  0  0  0  0  0  0  0  0  0  0  0
  140.7469   71.4295  229.3111 H   0  0  0  0  0  0  0  0  0  0  0  0
  141.3766   72.6329  227.2539 H   0  0  0  0  0  0  0  0  0  0  0  0
  141.3075   72.8063  224.8527 H   0  0  0  0  0  0  0  0  0  0  0  0
  136.8753   75.7476  221.4799 H   0  0  0  0  0  0  0  0  0  0  0  0
  137.0778   74.8002  223.0452 H   0  0  0  0  0  0  0  0  0  0  0  0
  136.9494   77.2837  223.2441 H   0  0  0  0  0  0  0  0  0  0  0  0
  138.3506   76.4492  224.0068 H   0  0  0  0  0  0  0  0  0  0  0  0
  1  2  1  0
  2  3  1  0
  3  4  2  0
  3  5  1  0
  5  6  1  0
  6  7  2  0
  7  8  1  0
  8  9  2  0
  9 10  1  0
 10 11  2  0
  5 12  1  0
 12 13  1  0
 13 14  1  0
 14 15  1  0
 15 16  1  0
 16 17  2  0
 16 18  1  0
 18 19  1  0
 18 20  1  0
 20 21  1  0
 21 22  2  0
 22 23  1  0
 23 24  2  0
 24 25  1  0
 25 26  2  0
 26 27  1  0
 27 28  2  0
 28 29  1  0
 29 30  2  0
 15 31  1  0
 31 32  1  0
 11  6  1  0
 32 12  1  0
 30 21  1  0
 29 24  1  0
  1 33  1  0
  1 34  1  0
  1 35  1  0
  2 36  1  0
  2 37  1  0
  7 38  1  0
  8 39  1  0
  9 40  1  0
 10 41  1  0
 11 42  1  0
 12 43  1  0
 13 44  1  0
 13 45  1  0
 14 46  1  0
 14 47  1  0
 18 48  1  6
 19 49  1  0
 19 50  1  0
 20 51  1  0
 20 52  1  0
 22 53  1  0
 23 54  1  0
 25 55  1  0
 26 56  1  0
 27 57  1  0
 28 58  1  0
 30 59  1  0
 31 60  1  0
 31 61  1  0
 32 62  1  0
 32 63  1  0
M  END
>  <smiles>  (40) 
CCC(=O)N(c1ccccc1)C1CCN(C(=O)[C@H](N)Cc2ccc3ccccc3c2)CC1

>  <score_type>  (40) 
oracle

>  <origin>  (40) 
autodockgpu

>  <m_score__min__energy>  (40) 
-9.5700000000000003

>  <m_primary>  (40) 
energy

>  <rmsd>  (40) 
5.832542617447738

>  <m_score__min__rmsd>  (40) 
5.832542617447738

>  <meeko>  (40) 
{"free_energy": -8.55, "intermolecular_energy": -10.93, "internal_energy": -2.04, "cluster_size": 6, "cluster_id": 4, "rank_in_cluster": 4}

>  <energy>  (40) 
-8.56

>  <cluster_rmsd>  (40) 
1.62

>  <cluster>  (40) 
5

$$$$

     RDKit          3D

 63 66  0  0  0  0  0  0  0  0999 V2000
  142.6070   77.5040  217.8370 C   0  0  0  0  0  0  0  0  0  0  0  0
  142.1850   78.6780  218.6710 C   0  0  0  0  0  0  0  0  0  0  0  0
  141.0120   78.3540  219.5360 C   0  0  0  0  0  0  0  0  0  0  0  0
  139.8750   78.4280  219.0020 O   0  0  0  0  0  0  0  0  0  0  0  0
  141.2180   77.9850  220.8960 N   0  0  0  0  0  0  0  0  0  0  0  0
  141.5720   78.9990  221.8610 C   0  0  0  0  0  0  0  0  0  0  0  0
  141.7230   78.6030  223.1660 C   0  0  0  0  0  0  0  0  0  0  0  0
  142.0620   79.5740  224.0960 C   0  0  0  0  0  0  0  0  0  0  0  0
  142.2370   80.8970  223.6900 C   0  0  0  0  0  0  0  0  0  0  0  0
  142.0810   81.2840  222.3710 C   0  0  0  0  0  0  0  0  0  0  0  0
  141.7460   80.3190  221.4510 C   0  0  0  0  0  0  0  0  0  0  0  0
  141.0780   76.6250  221.3240 C   0  0  0  0  0  0  0  0  0  0  0  0
  139.6440   76.1420  221.2600 C   0  0  0  0  0  0  0  0  0  0  0  0
  139.5950   74.8390  222.0350 C   0  0  0  0  0  0  0  0  0  0  0  0
  140.4480   73.8430  221.4650 N   0  0  0  0  0  0  0  0  0  0  0  0
  140.1450   72.4870  221.2400 C   0  0  0  0  0  0  0  0  0  0  0  0
  141.0790   71.7770  220.6780 O   0  0  0  0  0  0  0  0  0  0  0  0
  138.9280   71.7310  221.5420 C   0  0  2  0  0  0  0  0  0  0  0  0
  137.9960   72.3370  222.4330 N   0  0  0  0  0  0  0  0  0  0  0  0
  139.3180   70.3270  222.0050 C   0  0  0  0  0  0  0  0  0  0  0  0
  139.3970   70.1670  223.4500 C   0  0  0  0  0  0  0  0  0  0  0  0
  138.7620   69.2000  224.1950 C   0  0  0  0  0  0  0  0  0  0  0  0
  138.8710   69.1060  225.5710 C   0  0  0  0  0  0  0  0  0  0  0  0
  139.6370   69.9970  226.2750 C   0  0  0  0  0  0  0  0  0  0  0  0
  139.7370   69.8930  227.6360 C   0  0  0  0  0  0  0  0  0  0  0  0
  140.5140   70.7960  228.3450 C   0  0  0  0  0  0  0  0  0  0  0  0
  141.1710   71.7870  227.6320 C   0  0  0  0  0  0  0  0  0  0  0  0
  141.0760   71.8970  226.2620 C   0  0  0  0  0  0  0  0  0  0  0  0
  140.2880   70.9780  225.5610 C   0  0  0  0  0  0  0  0  0  0  0  0
  140.1780   71.0720  224.1790 C   0  0  0  0  0  0  0  0  0  0  0  0
  141.7890   74.2880  221.0920 C   0  0  0  0  0  0  0  0  0  0  0  0
  141.8620   75.6370  220.4860 C   0  0  0  0  0  0  0  0  0  0  0  0
  142.9051   76.6747  218.4954 H   0  0  0  0  0  0  0  0  0  0  0  0
  141.7674   77.1845  217.2021 H   0  0  0  0  0  0  0  0  0  0  0  0
  143.4578   77.7921  217.2021 H   0  0  0  0  0  0  0  0  0  0  0  0
  143.0266   78.9799  219.3117 H   0  0  0  0  0  0  0  0  0  0  0  0
  141.8924   79.4915  217.9909 H   0  0  0  0  0  0  0  0  0  0  0  0
  141.5804   77.5537  223.4635 H   0  0  0  0  0  0  0  0  0  0  0  0
  142.1929   79.3011  225.1535 H   0  0  0  0  0  0  0  0  0  0  0  0
  142.5069   81.6546  224.4404 H   0  0  0  0  0  0  0  0  0  0  0  0
  142.2208   82.3320  222.0676 H   0  0  0  0  0  0  0  0  0  0  0  0
  141.6155   80.5887  220.3926 H   0  0  0  0  0  0  0  0  0  0  0  0
  141.4601   76.6504  222.3552 H   0  0  0  0  0  0  0  0  0  0  0  0
  138.9724   76.8827  221.7186 H   0  0  0  0  0  0  0  0  0  0  0  0
  139.3178   75.9990  220.2192 H   0  0  0  0  0  0  0  0  0  0  0  0
  139.9144   75.0296  223.0702 H   0  0  0  0  0  0  0  0  0  0  0  0
  138.5623   74.4618  221.9996 H   0  0  0  0  0  0  0  0  0  0  0  0
  138.3633   71.7004  220.5985 H   0  0  0  0  0  0  0  0  0  0  0  0
  137.2590   72.9050  221.9680 H   0  0  0  0  0  0  0  0  0  0  0  0
  138.4440   72.9260  223.1650 H   0  0  0  0  0  0  0  0  0  0  0  0
  138.5690   69.6185  221.6215 H   0  0  0  0  0  0  0  0  0  0  0  0
  140.3288   70.1386  221.6141 H   0  0  0  0  0  0  0  0  0  0  0  0
  138.1356   68.4640  223.6697 H   0  0  0  0  0  0  0  0  0  0  0  0
  138.3366   68.3069  226.1056 H   0  0  0  0  0  0  0  0  0  0  0  0
  139.2008   69.0929  228.1673 H   0  0  0  0  0  0  0  0  0  0  0  0
  140.6064   70.7283  229.4390 H   0  0  0  0  0  0  0  0  0  0  0  0
  141.7907   72.5119  228.1801 H   0  0  0  0  0  0  0  0  0  0  0  0
  141.6117   72.6953  225.7275 H   0  0  0  0  0  0  0  0  0  0  0  0
  140.7144   71.8722  223.6479 H   0  0  0  0  0  0  0  0  0  0  0  0
  142.4114   74.2887  221.9990 H   0  0  0  0  0  0  0  0  0  0  0  0
  142.1379   73.5878  220.3187 H   0  0  0  0  0  0  0  0  0  0  0  0
  142.9133   75.9567  220.4345 H   0  0  0  0  0  0  0  0  0  0  0  0
  141.4325   75.6016  219.4739 H   0  0  0  0  0  0  0  0  0  0  0  0
  1  2  1  0
  2  3  1  0
  3  4  2  0
  3  5  1  0
  5  6  1  0
  6  7  2  0
  7  8  1  0
  8  9  2  0
  9 10  1  0
 10 11  2  0
  5 12  1  0
 12 13  1  0
 13 14  1  0
 14 15  1  0
 15 16  1  0
 16 17  2  0
 16 18  1  0
 18 19  1  0
 18 20  1  0
 20 21  1  0
 21 22  2  0
 22 23  1  0
 23 24  2  0
 24 25  1  0
 25 26  2  0
 26 27  1  0
 27 28  2  0
 28 29  1  0
 29 30  2  0
 15 31  1  0
 31 32  1  0
 11  6  1  0
 32 12  1  0
 30 21  1  0
 29 24  1  0
  1 33  1  0
  1 34  1  0
  1 35  1  0
  2 36  1  0
  2 37  1  0
  7 38  1  0
  8 39  1  0
  9 40  1  0
 10 41  1  0
 11 42  1  0
 12 43  1  0
 13 44  1  0
 13 45  1  0
 14 46  1  0
 14 47  1  0
 18 48  1  6
 19 49  1  0
 19 50  1  0
 20 51  1  0
 20 52  1  0
 22 53  1  0
 23 54  1  0
 25 55  1  0
 26 56  1  0
 27 57  1  0
 28 58  1  0
 30 59  1  0
 31 60  1  0
 31 61  1  0
 32 62  1  0
 32 63  1  0
M  END
>  <smiles>  (41) 
CCC(=O)N(c1ccccc1)C1CCN(C(=O)[C@H](N)Cc2ccc3ccccc3c2)CC1

>  <score_type>  (41) 
oracle

>  <origin>  (41) 
autodockgpu

>  <m_score__min__energy>  (41) 
-9.5700000000000003

>  <m_primary>  (41) 
energy

>  <rmsd>  (41) 
6.611205099039253

>  <m_score__min__rmsd>  (41) 
6.611205099039253

>  <meeko>  (41) 
{"free_energy": -9.06, "intermolecular_energy": -11.44, "internal_energy": -1.68, "cluster_size": 20, "cluster_id": 1, "rank_in_cluster": 9}

>  <energy>  (41) 
-8.53

>  <cluster_rmsd>  (41) 
1.74

>  <cluster>  (41) 
5

$$$$

     RDKit          3D

 63 66  0  0  0  0  0  0  0  0999 V2000
  137.6970   80.8630  224.9050 C   0  0  0  0  0  0  0  0  0  0  0  0
  138.3860   80.8940  223.5720 C   0  0  0  0  0  0  0  0  0  0  0  0
  138.2500   79.5980  222.8430 C   0  0  0  0  0  0  0  0  0  0  0  0
  137.0850   79.2470  222.5190 O   0  0  0  0  0  0  0  0  0  0  0  0
  139.4100   78.8280  222.5500 N   0  0  0  0  0  0  0  0  0  0  0  0
  140.7170   79.4080  222.7520 C   0  0  0  0  0  0  0  0  0  0  0  0
  141.3270   79.9830  221.6650 C   0  0  0  0  0  0  0  0  0  0  0  0
  142.5820   80.5400  221.8540 C   0  0  0  0  0  0  0  0  0  0  0  0
  143.1790   80.5020  223.1150 C   0  0  0  0  0  0  0  0  0  0  0  0
  142.5540   79.9180  224.2020 C   0  0  0  0  0  0  0  0  0  0  0  0
  141.3090   79.3680  224.0120 C   0  0  0  0  0  0  0  0  0  0  0  0
  139.3040   77.4850  222.0580 C   0  0  0  0  0  0  0  0  0  0  0  0
  140.5550   76.6730  222.3220 C   0  0  0  0  0  0  0  0  0  0  0  0
  140.4350   75.4180  221.4770 C   0  0  0  0  0  0  0  0  0  0  0  0
  139.2890   74.6390  221.8320 N   0  0  0  0  0  0  0  0  0  0  0  0
  139.2280   73.2440  222.0100 C   0  0  0  0  0  0  0  0  0  0  0  0
  138.0710   72.7630  222.3630 O   0  0  0  0  0  0  0  0  0  0  0  0
  140.2710   72.2280  221.8590 C   0  0  2  0  0  0  0  0  0  0  0  0
  140.7520   71.9890  220.5400 N   0  0  0  0  0  0  0  0  0  0  0  0
  139.8050   70.9360  222.5320 C   0  0  0  0  0  0  0  0  0  0  0  0
  140.1360   70.8370  223.9450 C   0  0  0  0  0  0  0  0  0  0  0  0
  140.7050   71.8250  224.7170 C   0  0  0  0  0  0  0  0  0  0  0  0
  141.0050   71.6670  226.0580 C   0  0  0  0  0  0  0  0  0  0  0  0
  140.7410   70.4840  226.6990 C   0  0  0  0  0  0  0  0  0  0  0  0
  141.0410   70.3400  228.0260 C   0  0  0  0  0  0  0  0  0  0  0  0
  140.7720   69.1430  228.6720 C   0  0  0  0  0  0  0  0  0  0  0  0
  140.1980   68.1220  227.9300 C   0  0  0  0  0  0  0  0  0  0  0  0
  139.8920   68.2590  226.5940 C   0  0  0  0  0  0  0  0  0  0  0  0
  140.1700   69.4750  225.9580 C   0  0  0  0  0  0  0  0  0  0  0  0
  139.8700   69.6340  224.6100 C   0  0  0  0  0  0  0  0  0  0  0  0
  138.0430   75.3810  222.0120 C   0  0  0  0  0  0  0  0  0  0  0  0
  138.1800   76.6910  222.6880 C   0  0  0  0  0  0  0  0  0  0  0  0
  138.4489   80.8968  225.7072 H   0  0  0  0  0  0  0  0  0  0  0  0
  137.0282   81.7320  224.9924 H   0  0  0  0  0  0  0  0  0  0  0  0
  137.1090   79.9375  224.9924 H   0  0  0  0  0  0  0  0  0  0  0  0
  137.9420   81.6937  222.9610 H   0  0  0  0  0  0  0  0  0  0  0  0
  139.4568   81.0754  223.7466 H   0  0  0  0  0  0  0  0  0  0  0  0
  140.8377   80.0011  220.6800 H   0  0  0  0  0  0  0  0  0  0  0  0
  143.1073   81.0118  221.0105 H   0  0  0  0  0  0  0  0  0  0  0  0
  144.1751   80.9493  223.2482 H   0  0  0  0  0  0  0  0  0  0  0  0
  143.0390   79.8945  225.1890 H   0  0  0  0  0  0  0  0  0  0  0  0
  140.7808   78.8968  224.8540 H   0  0  0  0  0  0  0  0  0  0  0  0
  139.1229   77.6282  220.9825 H   0  0  0  0  0  0  0  0  0  0  0  0
  141.4485   77.2445  222.0303 H   0  0  0  0  0  0  0  0  0  0  0  0
  140.6544   76.4279  223.3897 H   0  0  0  0  0  0  0  0  0  0  0  0
  140.3526   75.7088  220.4193 H   0  0  0  0  0  0  0  0  0  0  0  0
  141.3304   74.8038  221.6529 H   0  0  0  0  0  0  0  0  0  0  0  0
  141.1581   72.6438  222.3591 H   0  0  0  0  0  0  0  0  0  0  0  0
  140.3060   72.5720  219.8040 H   0  0  0  0  0  0  0  0  0  0  0  0
  140.6850   70.9930  220.2480 H   0  0  0  0  0  0  0  0  0  0  0  0
  138.7117   70.8709  222.4301 H   0  0  0  0  0  0  0  0  0  0  0  0
  140.3344   70.1134  222.0289 H   0  0  0  0  0  0  0  0  0  0  0  0
  140.9330   72.7908  224.2423 H   0  0  0  0  0  0  0  0  0  0  0  0
  141.4600   72.4988  226.6158 H   0  0  0  0  0  0  0  0  0  0  0  0
  141.4957   71.1740  228.5806 H   0  0  0  0  0  0  0  0  0  0  0  0
  141.0063   69.0078  229.7382 H   0  0  0  0  0  0  0  0  0  0  0  0
  139.9785   67.1658  228.4274 H   0  0  0  0  0  0  0  0  0  0  0  0
  139.4370   67.4272  226.0362 H   0  0  0  0  0  0  0  0  0  0  0  0
  139.4154   68.7996  224.0558 H   0  0  0  0  0  0  0  0  0  0  0  0
  137.6045   75.5553  221.0184 H   0  0  0  0  0  0  0  0  0  0  0  0
  137.4129   74.7635  222.6690 H   0  0  0  0  0  0  0  0  0  0  0  0
  137.2387   77.2516  222.5897 H   0  0  0  0  0  0  0  0  0  0  0  0
  138.4073   76.5259  223.7515 H   0  0  0  0  0  0  0  0  0  0  0  0
  1  2  1  0
  2  3  1  0
  3  4  2  0
  3  5  1  0
  5  6  1  0
  6  7  2  0
  7  8  1  0
  8  9  2  0
  9 10  1  0
 10 11  2  0
  5 12  1  0
 12 13  1  0
 13 14  1  0
 14 15  1  0
 15 16  1  0
 16 17  2  0
 16 18  1  0
 18 19  1  0
 18 20  1  0
 20 21  1  0
 21 22  2  0
 22 23  1  0
 23 24  2  0
 24 25  1  0
 25 26  2  0
 26 27  1  0
 27 28  2  0
 28 29  1  0
 29 30  2  0
 15 31  1  0
 31 32  1  0
 11  6  1  0
 32 12  1  0
 30 21  1  0
 29 24  1  0
  1 33  1  0
  1 34  1  0
  1 35  1  0
  2 36  1  0
  2 37  1  0
  7 38  1  0
  8 39  1  0
  9 40  1  0
 10 41  1  0
 11 42  1  0
 12 43  1  0
 13 44  1  0
 13 45  1  0
 14 46  1  0
 14 47  1  0
 18 48  1  1
 19 49  1  0
 19 50  1  0
 20 51  1  0
 20 52  1  0
 22 53  1  0
 23 54  1  0
 25 55  1  0
 26 56  1  0
 27 57  1  0
 28 58  1  0
 30 59  1  0
 31 60  1  0
 31 61  1  0
 32 62  1  0
 32 63  1  0
M  END
>  <smiles>  (42) 
CCC(=O)N(c1ccccc1)C1CCN(C(=O)[C@H](N)Cc2ccc3ccccc3c2)CC1

>  <score_type>  (42) 
oracle

>  <origin>  (42) 
autodockgpu

>  <m_score__min__energy>  (42) 
-9.5700000000000003

>  <m_primary>  (42) 
energy

>  <rmsd>  (42) 
6.1763940967029205

>  <m_score__min__rmsd>  (42) 
6.1763940967029205

>  <meeko>  (42) 
{"free_energy": -8.96, "intermolecular_energy": -11.34, "internal_energy": -1.55, "cluster_size": 6, "cluster_id": 4, "rank_in_cluster": 1}

>  <energy>  (42) 
-8.29

>  <cluster_rmsd>  (42) 
1.62

>  <cluster>  (42) 
5

$$$$

     RDKit          3D

 63 66  0  0  0  0  0  0  0  0999 V2000
  142.2570   80.5430  218.7530 C   0  0  0  0  0  0  0  0  0  0  0  0
  141.7940   79.1180  218.6850 C   0  0  0  0  0  0  0  0  0  0  0  0
  140.7050   78.8370  219.6670 C   0  0  0  0  0  0  0  0  0  0  0  0
  139.5220   78.9570  219.2530 O   0  0  0  0  0  0  0  0  0  0  0  0
  141.0350   78.4540  220.9970 N   0  0  0  0  0  0  0  0  0  0  0  0
  141.4460   79.4640  221.9450 C   0  0  0  0  0  0  0  0  0  0  0  0
  142.5520   79.1970  222.7120 C   0  0  0  0  0  0  0  0  0  0  0  0
  142.9490   80.1620  223.6240 C   0  0  0  0  0  0  0  0  0  0  0  0
  142.2310   81.3530  223.7350 C   0  0  0  0  0  0  0  0  0  0  0  0
  141.1170   81.6100  222.9560 C   0  0  0  0  0  0  0  0  0  0  0  0
  140.7270   80.6510  222.0530 C   0  0  0  0  0  0  0  0  0  0  0  0
  140.9660   77.0850  221.4140 C   0  0  0  0  0  0  0  0  0  0  0  0
  139.5630   76.5230  221.3240 C   0  0  0  0  0  0  0  0  0  0  0  0
  139.5760   75.2130  222.0900 C   0  0  0  0  0  0  0  0  0  0  0  0
  140.4930   74.2710  221.5270 N   0  0  0  0  0  0  0  0  0  0  0  0
  140.2700   72.9020  221.2880 C   0  0  0  0  0  0  0  0  0  0  0  0
  141.2510   72.2500  220.7360 O   0  0  0  0  0  0  0  0  0  0  0  0
  139.0930   72.0760  221.5660 C   0  0  2  0  0  0  0  0  0  0  0  0
  138.1580   72.5840  222.5130 N   0  0  0  0  0  0  0  0  0  0  0  0
  139.5530   70.6640  221.9290 C   0  0  0  0  0  0  0  0  0  0  0  0
  139.5580   70.3780  223.3560 C   0  0  0  0  0  0  0  0  0  0  0  0
  138.9010   69.3420  223.9790 C   0  0  0  0  0  0  0  0  0  0  0  0
  138.9380   69.1280  225.3450 C   0  0  0  0  0  0  0  0  0  0  0  0
  139.6520   69.9620  226.1650 C   0  0  0  0  0  0  0  0  0  0  0  0
  139.6810   69.7400  227.5140 C   0  0  0  0  0  0  0  0  0  0  0  0
  140.4050   70.5860  228.3410 C   0  0  0  0  0  0  0  0  0  0  0  0
  141.0820   71.6430  227.7530 C   0  0  0  0  0  0  0  0  0  0  0  0
  141.0570   71.8740  226.3950 C   0  0  0  0  0  0  0  0  0  0  0  0
  140.3220   71.0100  225.5750 C   0  0  0  0  0  0  0  0  0  0  0  0
  140.2840   71.2250  224.2020 C   0  0  0  0  0  0  0  0  0  0  0  0
  141.8120   74.7940  221.1780 C   0  0  0  0  0  0  0  0  0  0  0  0
  141.8180   76.1490  220.5830 C   0  0  0  0  0  0  0  0  0  0  0  0
  142.3557   80.8466  219.8057 H   0  0  0  0  0  0  0  0  0  0  0  0
  143.2316   80.6362  218.2516 H   0  0  0  0  0  0  0  0  0  0  0  0
  141.5233   81.1913  218.2516 H   0  0  0  0  0  0  0  0  0  0  0  0
  141.4194   78.9142  217.6710 H   0  0  0  0  0  0  0  0  0  0  0  0
  142.6488   78.4706  218.9306 H   0  0  0  0  0  0  0  0  0  0  0  0
  143.1036   78.2511  222.6068 H   0  0  0  0  0  0  0  0  0  0  0  0
  143.8297   79.9890  224.2600 H   0  0  0  0  0  0  0  0  0  0  0  0
  142.5601   82.1094  224.4628 H   0  0  0  0  0  0  0  0  0  0  0  0
  140.5605   82.5535  223.0566 H   0  0  0  0  0  0  0  0  0  0  0  0
  139.8468   80.8211  221.4155 H   0  0  0  0  0  0  0  0  0  0  0  0
  141.3302   77.1241  222.4512 H   0  0  0  0  0  0  0  0  0  0  0  0
  138.8437   77.2213  221.7768 H   0  0  0  0  0  0  0  0  0  0  0  0
  139.2612   76.3699  220.2773 H   0  0  0  0  0  0  0  0  0  0  0  0
  139.8680   75.4137  223.1314 H   0  0  0  0  0  0  0  0  0  0  0  0
  138.5670   74.7783  222.0358 H   0  0  0  0  0  0  0  0  0  0  0  0
  138.5073   72.0799  220.6349 H   0  0  0  0  0  0  0  0  0  0  0  0
  137.5040   73.2990  222.1360 H   0  0  0  0  0  0  0  0  0  0  0  0
  138.6040   72.9730  223.3690 H   0  0  0  0  0  0  0  0  0  0  0  0
  138.8796   69.9465  221.4374 H   0  0  0  0  0  0  0  0  0  0  0  0
  140.5958   70.5782  221.5896 H   0  0  0  0  0  0  0  0  0  0  0  0
  138.3157   68.6476  223.3583 H   0  0  0  0  0  0  0  0  0  0  0  0
  138.3883   68.2791  225.7778 H   0  0  0  0  0  0  0  0  0  0  0  0
  139.1300   68.8903  227.9434 H   0  0  0  0  0  0  0  0  0  0  0  0
  140.4408   70.4234  229.4283 H   0  0  0  0  0  0  0  0  0  0  0  0
  141.6611   72.3231  228.3949 H   0  0  0  0  0  0  0  0  0  0  0  0
  141.6057   72.7235  225.9623 H   0  0  0  0  0  0  0  0  0  0  0  0
  140.8340   72.0755  223.7728 H   0  0  0  0  0  0  0  0  0  0  0  0
  142.4196   74.8226  222.0945 H   0  0  0  0  0  0  0  0  0  0  0  0
  142.2114   74.1207  220.4052 H   0  0  0  0  0  0  0  0  0  0  0  0
  142.8502   76.5280  220.5512 H   0  0  0  0  0  0  0  0  0  0  0  0
  141.4073   76.0969  219.5639 H   0  0  0  0  0  0  0  0  0  0  0  0
  1  2  1  0
  2  3  1  0
  3  4  2  0
  3  5  1  0
  5  6  1  0
  6  7  2  0
  7  8  1  0
  8  9  2  0
  9 10  1  0
 10 11  2  0
  5 12  1  0
 12 13  1  0
 13 14  1  0
 14 15  1  0
 15 16  1  0
 16 17  2  0
 16 18  1  0
 18 19  1  0
 18 20  1  0
 20 21  1  0
 21 22  2  0
 22 23  1  0
 23 24  2  0
 24 25  1  0
 25 26  2  0
 26 27  1  0
 27 28  2  0
 28 29  1  0
 29 30  2  0
 15 31  1  0
 31 32  1  0
 11  6  1  0
 32 12  1  0
 30 21  1  0
 29 24  1  0
  1 33  1  0
  1 34  1  0
  1 35  1  0
  2 36  1  0
  2 37  1  0
  7 38  1  0
  8 39  1  0
  9 40  1  0
 10 41  1  0
 11 42  1  0
 12 43  1  0
 13 44  1  0
 13 45  1  0
 14 46  1  0
 14 47  1  0
 18 48  1  6
 19 49  1  0
 19 50  1  0
 20 51  1  0
 20 52  1  0
 22 53  1  0
 23 54  1  0
 25 55  1  0
 26 56  1  0
 27 57  1  0
 28 58  1  0
 30 59  1  0
 31 60  1  0
 31 61  1  0
 32 62  1  0
 32 63  1  0
M  END
>  <smiles>  (43) 
CCC(=O)N(c1ccccc1)C1CCN(C(=O)[C@H](N)Cc2ccc3ccccc3c2)CC1

>  <score_type>  (43) 
oracle

>  <origin>  (43) 
autodockgpu

>  <m_score__min__energy>  (43) 
-9.5700000000000003

>  <m_primary>  (43) 
energy

>  <rmsd>  (43) 
6.269821433262802

>  <m_score__min__rmsd>  (43) 
6.269821433262802

>  <meeko>  (43) 
{"free_energy": -9.05, "intermolecular_energy": -11.43, "internal_energy": -1.72, "cluster_size": 20, "cluster_id": 1, "rank_in_cluster": 10}

>  <energy>  (43) 
-8.29

>  <cluster_rmsd>  (43) 
1.65

>  <cluster>  (43) 
5

$$$$

     RDKit          3D

 63 66  0  0  0  0  0  0  0  0999 V2000
  142.6350   80.8660  223.6210 C   0  0  0  0  0  0  0  0  0  0  0  0
  142.3650   79.7390  222.6690 C   0  0  0  0  0  0  0  0  0  0  0  0
  141.4610   78.7100  223.2640 C   0  0  0  0  0  0  0  0  0  0  0  0
  141.9490   77.9730  224.1590 O   0  0  0  0  0  0  0  0  0  0  0  0
  140.1160   78.6050  222.8090 N   0  0  0  0  0  0  0  0  0  0  0  0
  139.2270   79.7330  222.9520 C   0  0  0  0  0  0  0  0  0  0  0  0
  138.8150   80.3630  221.8050 C   0  0  0  0  0  0  0  0  0  0  0  0
  137.9640   81.4480  221.9380 C   0  0  0  0  0  0  0  0  0  0  0  0
  137.5550   81.8620  223.2060 C   0  0  0  0  0  0  0  0  0  0  0  0
  137.9780   81.2200  224.3560 C   0  0  0  0  0  0  0  0  0  0  0  0
  138.8220   80.1440  224.2200 C   0  0  0  0  0  0  0  0  0  0  0  0
  139.6280   77.3970  222.2100 C   0  0  0  0  0  0  0  0  0  0  0  0
  140.6910   76.3210  222.1290 C   0  0  0  0  0  0  0  0  0  0  0  0
  140.1480   75.2530  221.1990 C   0  0  0  0  0  0  0  0  0  0  0  0
  138.9370   74.6750  221.6930 N   0  0  0  0  0  0  0  0  0  0  0  0
  138.5970   73.3100  221.7320 C   0  0  0  0  0  0  0  0  0  0  0  0
  137.4420   73.0230  222.2580 O   0  0  0  0  0  0  0  0  0  0  0  0
  139.3430   72.1390  221.2670 C   0  0  2  0  0  0  0  0  0  0  0  0
  138.6100   70.9280  221.1070 N   0  0  0  0  0  0  0  0  0  0  0  0
  140.5660   71.9430  222.1640 C   0  0  0  0  0  0  0  0  0  0  0  0
  140.2850   71.2860  223.4320 C   0  0  0  0  0  0  0  0  0  0  0  0
  139.5930   70.1080  223.6010 C   0  0  0  0  0  0  0  0  0  0  0  0
  139.3510   69.5370  224.8370 C   0  0  0  0  0  0  0  0  0  0  0  0
  139.8030   70.1350  225.9850 C   0  0  0  0  0  0  0  0  0  0  0  0
  139.5580   69.5600  227.2020 C   0  0  0  0  0  0  0  0  0  0  0  0
  140.0170   70.1670  228.3610 C   0  0  0  0  0  0  0  0  0  0  0  0
  140.7190   71.3560  228.2350 C   0  0  0  0  0  0  0  0  0  0  0  0
  140.9710   71.9400  227.0130 C   0  0  0  0  0  0  0  0  0  0  0  0
  140.5010   71.3140  225.8530 C   0  0  0  0  0  0  0  0  0  0  0  0
  140.7430   71.8880  224.6110 C   0  0  0  0  0  0  0  0  0  0  0  0
  137.9400   75.6170  222.1970 C   0  0  0  0  0  0  0  0  0  0  0  0
  138.4820   76.7600  222.9660 C   0  0  0  0  0  0  0  0  0  0  0  0
  142.5476   80.5013  224.6551 H   0  0  0  0  0  0  0  0  0  0  0  0
  143.6511   81.2524  223.4531 H   0  0  0  0  0  0  0  0  0  0  0  0
  141.9043   81.6709  223.4531 H   0  0  0  0  0  0  0  0  0  0  0  0
  141.8929   80.1451  221.7623 H   0  0  0  0  0  0  0  0  0  0  0  0
  143.3243   79.2545  222.4345 H   0  0  0  0  0  0  0  0  0  0  0  0
  139.1485   80.0188  220.8149 H   0  0  0  0  0  0  0  0  0  0  0  0
  137.6108   81.9830  221.0441 H   0  0  0  0  0  0  0  0  0  0  0  0
  136.8768   82.7236  223.2938 H   0  0  0  0  0  0  0  0  0  0  0  0
  137.6489   81.5603  225.3489 H   0  0  0  0  0  0  0  0  0  0  0  0
  139.1776   79.6075  225.1120 H   0  0  0  0  0  0  0  0  0  0  0  0
  139.2996   77.7299  221.2144 H   0  0  0  0  0  0  0  0  0  0  0  0
  141.6251   76.7384  221.7249 H   0  0  0  0  0  0  0  0  0  0  0  0
  140.9169   75.9074  223.1230 H   0  0  0  0  0  0  0  0  0  0  0  0
  139.9499   75.7057  220.2162 H   0  0  0  0  0  0  0  0  0  0  0  0
  140.8998   74.4534  221.1257 H   0  0  0  0  0  0  0  0  0  0  0  0
  139.6360   72.3722  220.2327 H   0  0  0  0  0  0  0  0  0  0  0  0
  138.4940   70.6200  220.1210 H   0  0  0  0  0  0  0  0  0  0  0  0
  137.6690   70.9510  221.5510 H   0  0  0  0  0  0  0  0  0  0  0  0
  141.2997   71.3334  221.6163 H   0  0  0  0  0  0  0  0  0  0  0  0
  140.9393   72.9485  222.4084 H   0  0  0  0  0  0  0  0  0  0  0  0
  139.2126   69.5940  222.7060 H   0  0  0  0  0  0  0  0  0  0  0  0
  138.7899   68.5930  224.8998 H   0  0  0  0  0  0  0  0  0  0  0  0
  138.9967   68.6158  227.2610 H   0  0  0  0  0  0  0  0  0  0  0  0
  139.8303   69.7198  229.3485 H   0  0  0  0  0  0  0  0  0  0  0  0
  141.0886   71.8516  229.1449 H   0  0  0  0  0  0  0  0  0  0  0  0
  141.5328   72.8836  226.9501 H   0  0  0  0  0  0  0  0  0  0  0  0
  141.3043   72.8322  224.5525 H   0  0  0  0  0  0  0  0  0  0  0  0
  137.3861   76.0188  221.3358 H   0  0  0  0  0  0  0  0  0  0  0  0
  137.3117   75.0487  222.8986 H   0  0  0  0  0  0  0  0  0  0  0  0
  137.6876   77.5054  223.1188 H   0  0  0  0  0  0  0  0  0  0  0  0
  138.8479   76.3992  223.9386 H   0  0  0  0  0  0  0  0  0  0  0  0
  1  2  1  0
  2  3  1  0
  3  4  2  0
  3  5  1  0
  5  6  1  0
  6  7  2  0
  7  8  1  0
  8  9  2  0
  9 10  1  0
 10 11  2  0
  5 12  1  0
 12 13  1  0
 13 14  1  0
 14 15  1  0
 15 16  1  0
 16 17  2  0
 16 18  1  0
 18 19  1  0
 18 20  1  0
 20 21  1  0
 21 22  2  0
 22 23  1  0
 23 24  2  0
 24 25  1  0
 25 26  2  0
 26 27  1  0
 27 28  2  0
 28 29  1  0
 29 30  2  0
 15 31  1  0
 31 32  1  0
 11  6  1  0
 32 12  1  0
 30 21  1  0
 29 24  1  0
  1 33  1  0
  1 34  1  0
  1 35  1  0
  2 36  1  0
  2 37  1  0
  7 38  1  0
  8 39  1  0
  9 40  1  0
 10 41  1  0
 11 42  1  0
 12 43  1  0
 13 44  1  0
 13 45  1  0
 14 46  1  0
 14 47  1  0
 18 48  1  6
 19 49  1  0
 19 50  1  0
 20 51  1  0
 20 52  1  0
 22 53  1  0
 23 54  1  0
 25 55  1  0
 26 56  1  0
 27 57  1  0
 28 58  1  0
 30 59  1  0
 31 60  1  0
 31 61  1  0
 32 62  1  0
 32 63  1  0
M  END
>  <smiles>  (44) 
CCC(=O)N(c1ccccc1)C1CCN(C(=O)[C@H](N)Cc2ccc3ccccc3c2)CC1

>  <score_type>  (44) 
oracle

>  <origin>  (44) 
autodockgpu

>  <m_score__min__energy>  (44) 
-9.5700000000000003

>  <m_primary>  (44) 
energy

>  <rmsd>  (44) 
5.881313040882581

>  <m_score__min__rmsd>  (44) 
5.881313040882581

>  <meeko>  (44) 
{"free_energy": -8.29, "intermolecular_energy": -10.67, "internal_energy": -2.28, "cluster_size": 7, "cluster_id": 5, "rank_in_cluster": 5}

>  <energy>  (44) 
-8.17

>  <cluster_rmsd>  (44) 
1.66

>  <cluster>  (44) 
5

$$$$

     RDKit          3D

 63 66  0  0  0  0  0  0  0  0999 V2000
  142.6360   80.8680  223.6950 C   0  0  0  0  0  0  0  0  0  0  0  0
  142.3850   79.7400  222.7380 C   0  0  0  0  0  0  0  0  0  0  0  0
  141.4580   78.7190  223.3100 C   0  0  0  0  0  0  0  0  0  0  0  0
  141.9290   77.9540  224.1910 O   0  0  0  0  0  0  0  0  0  0  0  0
  140.1130   78.6500  222.8500 N   0  0  0  0  0  0  0  0  0  0  0  0
  139.2590   79.8070  222.9750 C   0  0  0  0  0  0  0  0  0  0  0  0
  139.0660   80.5740  221.8540 C   0  0  0  0  0  0  0  0  0  0  0  0
  138.2480   81.6880  221.9710 C   0  0  0  0  0  0  0  0  0  0  0  0
  137.6560   81.9920  223.1970 C   0  0  0  0  0  0  0  0  0  0  0  0
  137.8600   81.2110  224.3210 C   0  0  0  0  0  0  0  0  0  0  0  0
  138.6700   80.1080  224.2010 C   0  0  0  0  0  0  0  0  0  0  0  0
  139.5910   77.4510  222.2620 C   0  0  0  0  0  0  0  0  0  0  0  0
  140.6440   76.3730  222.1150 C   0  0  0  0  0  0  0  0  0  0  0  0
  140.0500   75.3170  221.2010 C   0  0  0  0  0  0  0  0  0  0  0  0
  138.8630   74.7380  221.7500 N   0  0  0  0  0  0  0  0  0  0  0  0
  138.5190   73.3740  221.7900 C   0  0  0  0  0  0  0  0  0  0  0  0
  137.3910   73.0850  222.3710 O   0  0  0  0  0  0  0  0  0  0  0  0
  139.2360   72.2060  221.2750 C   0  0  2  0  0  0  0  0  0  0  0  0
  138.4830   71.0090  221.1060 N   0  0  0  0  0  0  0  0  0  0  0  0
  140.4810   71.9710  222.1320 C   0  0  0  0  0  0  0  0  0  0  0  0
  140.2270   71.2930  223.3940 C   0  0  0  0  0  0  0  0  0  0  0  0
  139.5380   70.1130  223.5580 C   0  0  0  0  0  0  0  0  0  0  0  0
  139.3220   69.5210  224.7900 C   0  0  0  0  0  0  0  0  0  0  0  0
  139.7970   70.1010  225.9370 C   0  0  0  0  0  0  0  0  0  0  0  0
  139.5770   69.5060  227.1490 C   0  0  0  0  0  0  0  0  0  0  0  0
  140.0600   70.0940  228.3080 C   0  0  0  0  0  0  0  0  0  0  0  0
  140.7590   71.2850  228.1880 C   0  0  0  0  0  0  0  0  0  0  0  0
  140.9860   71.8900  226.9710 C   0  0  0  0  0  0  0  0  0  0  0  0
  140.4920   71.2820  225.8110 C   0  0  0  0  0  0  0  0  0  0  0  0
  140.7080   71.8760  224.5730 C   0  0  0  0  0  0  0  0  0  0  0  0
  137.8970   75.6770  222.3150 C   0  0  0  0  0  0  0  0  0  0  0  0
  138.4810   76.8090  223.0680 C   0  0  0  0  0  0  0  0  0  0  0  0
  142.5537   80.4980  224.7276 H   0  0  0  0  0  0  0  0  0  0  0  0
  143.6459   81.2714  223.5295 H   0  0  0  0  0  0  0  0  0  0  0  0
  141.8925   81.6616  223.5295 H   0  0  0  0  0  0  0  0  0  0  0  0
  141.9411   80.1470  221.8175 H   0  0  0  0  0  0  0  0  0  0  0  0
  143.3471   79.2484  222.5313 H   0  0  0  0  0  0  0  0  0  0  0  0
  139.5427   80.3149  220.8971 H   0  0  0  0  0  0  0  0  0  0  0  0
  138.0662   82.3314  221.0975 H   0  0  0  0  0  0  0  0  0  0  0  0
  137.0084   82.8780  223.2725 H   0  0  0  0  0  0  0  0  0  0  0  0
  137.3879   81.4657  225.2814 H   0  0  0  0  0  0  0  0  0  0  0  0
  138.8534   79.4627  225.0727 H   0  0  0  0  0  0  0  0  0  0  0  0
  139.2145   77.7964  221.2878 H   0  0  0  0  0  0  0  0  0  0  0  0
  141.5580   76.7920  221.6689 H   0  0  0  0  0  0  0  0  0  0  0  0
  140.9184   75.9472  223.0914 H   0  0  0  0  0  0  0  0  0  0  0  0
  139.8041   75.7816  220.2347 H   0  0  0  0  0  0  0  0  0  0  0  0
  140.7938   74.5157  221.0801 H   0  0  0  0  0  0  0  0  0  0  0  0
  139.5030   72.4623  220.2391 H   0  0  0  0  0  0  0  0  0  0  0  0
  138.3290   70.7300  220.1160 H   0  0  0  0  0  0  0  0  0  0  0  0
  137.5580   71.0290  221.5830 H   0  0  0  0  0  0  0  0  0  0  0  0
  141.1879   71.3608  221.5506 H   0  0  0  0  0  0  0  0  0  0  0  0
  140.8776   72.9651  222.3859 H   0  0  0  0  0  0  0  0  0  0  0  0
  139.1380   69.6143  222.6628 H   0  0  0  0  0  0  0  0  0  0  0  0
  138.7634   68.5753  224.8491 H   0  0  0  0  0  0  0  0  0  0  0  0
  139.0168   68.5609  227.2041 H   0  0  0  0  0  0  0  0  0  0  0  0
  139.8938   69.6301  229.2915 H   0  0  0  0  0  0  0  0  0  0  0  0
  141.1470   71.7651  229.0984 H   0  0  0  0  0  0  0  0  0  0  0  0
  141.5460   72.8349  226.9120 H   0  0  0  0  0  0  0  0  0  0  0  0
  141.2672   72.8217  224.5183 H   0  0  0  0  0  0  0  0  0  0  0  0
  137.3013   76.0904  221.4879 H   0  0  0  0  0  0  0  0  0  0  0  0
  137.3037   75.1024  223.0415 H   0  0  0  0  0  0  0  0  0  0  0  0
  137.6982   77.5553  223.2686 H   0  0  0  0  0  0  0  0  0  0  0  0
  138.8937   76.4362  224.0170 H   0  0  0  0  0  0  0  0  0  0  0  0
  1  2  1  0
  2  3  1  0
  3  4  2  0
  3  5  1  0
  5  6  1  0
  6  7  2  0
  7  8  1  0
  8  9  2  0
  9 10  1  0
 10 11  2  0
  5 12  1  0
 12 13  1  0
 13 14  1  0
 14 15  1  0
 15 16  1  0
 16 17  2  0
 16 18  1  0
 18 19  1  0
 18 20  1  0
 20 21  1  0
 21 22  2  0
 22 23  1  0
 23 24  2  0
 24 25  1  0
 25 26  2  0
 26 27  1  0
 27 28  2  0
 28 29  1  0
 29 30  2  0
 15 31  1  0
 31 32  1  0
 11  6  1  0
 32 12  1  0
 30 21  1  0
 29 24  1  0
  1 33  1  0
  1 34  1  0
  1 35  1  0
  2 36  1  0
  2 37  1  0
  7 38  1  0
  8 39  1  0
  9 40  1  0
 10 41  1  0
 11 42  1  0
 12 43  1  0
 13 44  1  0
 13 45  1  0
 14 46  1  0
 14 47  1  0
 18 48  1  6
 19 49  1  0
 19 50  1  0
 20 51  1  0
 20 52  1  0
 22 53  1  0
 23 54  1  0
 25 55  1  0
 26 56  1  0
 27 57  1  0
 28 58  1  0
 30 59  1  0
 31 60  1  0
 31 61  1  0
 32 62  1  0
 32 63  1  0
M  END
>  <smiles>  (45) 
CCC(=O)N(c1ccccc1)C1CCN(C(=O)[C@H](N)Cc2ccc3ccccc3c2)CC1

>  <score_type>  (45) 
oracle

>  <origin>  (45) 
autodockgpu

>  <m_score__min__energy>  (45) 
-9.5700000000000003

>  <m_primary>  (45) 
energy

>  <rmsd>  (45) 
5.847425794668664

>  <m_score__min__rmsd>  (45) 
5.847425794668664

>  <meeko>  (45) 
{"free_energy": -8.29, "intermolecular_energy": -10.68, "internal_energy": -2.28, "cluster_size": 7, "cluster_id": 5, "rank_in_cluster": 4}

>  <energy>  (45) 
-8.17

>  <cluster_rmsd>  (45) 
1.51

>  <cluster>  (45) 
5

$$$$

     RDKit          3D

 63 66  0  0  0  0  0  0  0  0999 V2000
  142.2590   81.3370  224.1720 C   0  0  0  0  0  0  0  0  0  0  0  0
  142.3450   80.1320  223.2840 C   0  0  0  0  0  0  0  0  0  0  0  0
  141.3630   80.1940  222.1620 C   0  0  0  0  0  0  0  0  0  0  0  0
  141.7130   80.8300  221.1330 O   0  0  0  0  0  0  0  0  0  0  0  0
  140.1000   79.5500  222.2920 N   0  0  0  0  0  0  0  0  0  0  0  0
  138.9930   80.2700  222.8760 C   0  0  0  0  0  0  0  0  0  0  0  0
  138.1980   81.0000  222.0290 C   0  0  0  0  0  0  0  0  0  0  0  0
  137.1350   81.6940  222.5850 C   0  0  0  0  0  0  0  0  0  0  0  0
  136.9050   81.6330  223.9600 C   0  0  0  0  0  0  0  0  0  0  0  0
  137.7150   80.8930  224.8040 C   0  0  0  0  0  0  0  0  0  0  0  0
  138.7670   80.2060  224.2490 C   0  0  0  0  0  0  0  0  0  0  0  0
  139.9070   78.1990  221.8530 C   0  0  0  0  0  0  0  0  0  0  0  0
  141.0700   77.3010  222.2190 C   0  0  0  0  0  0  0  0  0  0  0  0
  140.8890   76.0210  221.4230 C   0  0  0  0  0  0  0  0  0  0  0  0
  139.6660   75.3560  221.7470 N   0  0  0  0  0  0  0  0  0  0  0  0
  139.4790   73.9810  221.9810 C   0  0  0  0  0  0  0  0  0  0  0  0
  138.2700   73.6120  222.2900 O   0  0  0  0  0  0  0  0  0  0  0  0
  140.4400   72.8770  221.9310 C   0  0  2  0  0  0  0  0  0  0  0  0
  141.3420   72.8560  220.8290 N   0  0  0  0  0  0  0  0  0  0  0  0
  139.6830   71.5550  222.0640 C   0  0  0  0  0  0  0  0  0  0  0  0
  139.7250   70.9660  223.3950 C   0  0  0  0  0  0  0  0  0  0  0  0
  139.2070   69.7440  223.7590 C   0  0  0  0  0  0  0  0  0  0  0  0
  139.2720   69.2420  225.0460 C   0  0  0  0  0  0  0  0  0  0  0  0
  139.8720   69.9600  226.0480 C   0  0  0  0  0  0  0  0  0  0  0  0
  139.9300   69.4520  227.3170 C   0  0  0  0  0  0  0  0  0  0  0  0
  140.5380   70.1810  228.3280 C   0  0  0  0  0  0  0  0  0  0  0  0
  141.0720   71.4180  228.0030 C   0  0  0  0  0  0  0  0  0  0  0  0
  141.0180   71.9350  226.7280 C   0  0  0  0  0  0  0  0  0  0  0  0
  140.4010   71.1870  225.7190 C   0  0  0  0  0  0  0  0  0  0  0  0
  140.3360   71.6910  224.4260 C   0  0  0  0  0  0  0  0  0  0  0  0
  138.4790   76.2050  221.8270 C   0  0  0  0  0  0  0  0  0  0  0  0
  138.6890   77.5290  222.4530 C   0  0  0  0  0  0  0  0  0  0  0  0
  142.2817   81.0190  225.2248 H   0  0  0  0  0  0  0  0  0  0  0  0
  143.1120   82.0020  223.9714 H   0  0  0  0  0  0  0  0  0  0  0  0
  141.3202   81.8741  223.9714 H   0  0  0  0  0  0  0  0  0  0  0  0
  143.3601   80.0714  222.8647 H   0  0  0  0  0  0  0  0  0  0  0  0
  142.1121   79.2448  223.8912 H   0  0  0  0  0  0  0  0  0  0  0  0
  138.3971   81.0333  220.9477 H   0  0  0  0  0  0  0  0  0  0  0  0
  136.4727   82.2928  221.9425 H   0  0  0  0  0  0  0  0  0  0  0  0
  136.0561   82.1886  224.3851 H   0  0  0  0  0  0  0  0  0  0  0  0
  137.5221   80.8562  225.8863 H   0  0  0  0  0  0  0  0  0  0  0  0
  139.4307   79.6056  224.8885 H   0  0  0  0  0  0  0  0  0  0  0  0
  139.7937   78.3064  220.7641 H   0  0  0  0  0  0  0  0  0  0  0  0
  142.0220   77.7835  221.9525 H   0  0  0  0  0  0  0  0  0  0  0  0
  141.0934   77.0989  223.3000 H   0  0  0  0  0  0  0  0  0  0  0  0
  140.8859   76.2672  220.3509 H   0  0  0  0  0  0  0  0  0  0  0  0
  141.7196   75.3450  221.6743 H   0  0  0  0  0  0  0  0  0  0  0  0
  141.1162   73.0407  222.7831 H   0  0  0  0  0  0  0  0  0  0  0  0
  141.9570   73.6920  220.7570 H   0  0  0  0  0  0  0  0  0  0  0  0
  140.8720   72.7210  219.9100 H   0  0  0  0  0  0  0  0  0  0  0  0
  138.6301   71.7341  221.8007 H   0  0  0  0  0  0  0  0  0  0  0  0
  140.1796   70.8412  221.3904 H   0  0  0  0  0  0  0  0  0  0  0  0
  138.7157   69.1349  222.9860 H   0  0  0  0  0  0  0  0  0  0  0  0
  138.8377   68.2561  225.2681 H   0  0  0  0  0  0  0  0  0  0  0  0
  139.4945   68.4657  227.5353 H   0  0  0  0  0  0  0  0  0  0  0  0
  140.5946   69.7901  229.3547 H   0  0  0  0  0  0  0  0  0  0  0  0
  141.5573   72.0091  228.7936 H   0  0  0  0  0  0  0  0  0  0  0  0
  141.4531   72.9206  226.5060 H   0  0  0  0  0  0  0  0  0  0  0  0
  140.7722   72.6770  224.2080 H   0  0  0  0  0  0  0  0  0  0  0  0
  138.1082   76.3678  220.8043 H   0  0  0  0  0  0  0  0  0  0  0  0
  137.7673   75.6721  222.4746 H   0  0  0  0  0  0  0  0  0  0  0  0
  137.8041   78.1587  222.2787 H   0  0  0  0  0  0  0  0  0  0  0  0
  138.8459   77.3963  223.5336 H   0  0  0  0  0  0  0  0  0  0  0  0
  1  2  1  0
  2  3  1  0
  3  4  2  0
  3  5  1  0
  5  6  1  0
  6  7  2  0
  7  8  1  0
  8  9  2  0
  9 10  1  0
 10 11  2  0
  5 12  1  0
 12 13  1  0
 13 14  1  0
 14 15  1  0
 15 16  1  0
 16 17  2  0
 16 18  1  0
 18 19  1  0
 18 20  1  0
 20 21  1  0
 21 22  2  0
 22 23  1  0
 23 24  2  0
 24 25  1  0
 25 26  2  0
 26 27  1  0
 27 28  2  0
 28 29  1  0
 29 30  2  0
 15 31  1  0
 31 32  1  0
 11  6  1  0
 32 12  1  0
 30 21  1  0
 29 24  1  0
  1 33  1  0
  1 34  1  0
  1 35  1  0
  2 36  1  0
  2 37  1  0
  7 38  1  0
  8 39  1  0
  9 40  1  0
 10 41  1  0
 11 42  1  0
 12 43  1  0
 13 44  1  0
 13 45  1  0
 14 46  1  0
 14 47  1  0
 18 48  1  1
 19 49  1  0
 19 50  1  0
 20 51  1  0
 20 52  1  0
 22 53  1  0
 23 54  1  0
 25 55  1  0
 26 56  1  0
 27 57  1  0
 28 58  1  0
 30 59  1  0
 31 60  1  0
 31 61  1  0
 32 62  1  0
 32 63  1  0
M  END
>  <smiles>  (46) 
CCC(=O)N(c1ccccc1)C1CCN(C(=O)[C@H](N)Cc2ccc3ccccc3c2)CC1

>  <score_type>  (46) 
oracle

>  <origin>  (46) 
autodockgpu

>  <m_score__min__energy>  (46) 
-9.5700000000000003

>  <m_primary>  (46) 
energy

>  <rmsd>  (46) 
5.592602896728257

>  <m_score__min__rmsd>  (46) 
5.592602896728257

>  <meeko>  (46) 
{"free_energy": -8.56, "intermolecular_energy": -10.95, "internal_energy": -1.6, "cluster_size": 7, "cluster_id": 5, "rank_in_cluster": 2}

>  <energy>  (46) 
-8.68

>  <cluster_rmsd>  (46) 
0.0

>  <cluster>  (46) 
6

$$$$

     RDKit          3D

 63 66  0  0  0  0  0  0  0  0999 V2000
  137.5810   81.1030  225.0550 C   0  0  0  0  0  0  0  0  0  0  0  0
  138.2460   80.8910  223.7270 C   0  0  0  0  0  0  0  0  0  0  0  0
  137.9300   79.5500  223.1530 C   0  0  0  0  0  0  0  0  0  0  0  0
  136.7200   79.2020  223.1510 O   0  0  0  0  0  0  0  0  0  0  0  0
  138.9800   78.7350  222.6430 N   0  0  0  0  0  0  0  0  0  0  0  0
  140.3360   79.2320  222.6600 C   0  0  0  0  0  0  0  0  0  0  0  0
  140.8300   79.7600  221.4940 C   0  0  0  0  0  0  0  0  0  0  0  0
  142.1320   80.2360  221.5060 C   0  0  0  0  0  0  0  0  0  0  0  0
  142.8880   80.1680  222.6770 C   0  0  0  0  0  0  0  0  0  0  0  0
  142.3780   79.6330  223.8460 C   0  0  0  0  0  0  0  0  0  0  0  0
  141.0880   79.1620  223.8310 C   0  0  0  0  0  0  0  0  0  0  0  0
  138.7160   77.4300  222.1130 C   0  0  0  0  0  0  0  0  0  0  0  0
  139.9750   76.6050  221.9500 C   0  0  0  0  0  0  0  0  0  0  0  0
  139.5970   75.4120  221.0920 C   0  0  0  0  0  0  0  0  0  0  0  0
  138.5890   74.6060  221.7080 N   0  0  0  0  0  0  0  0  0  0  0  0
  138.5580   73.2020  221.8020 C   0  0  0  0  0  0  0  0  0  0  0  0
  137.5440   72.6930  222.4390 O   0  0  0  0  0  0  0  0  0  0  0  0
  139.4970   72.2030  221.2890 C   0  0  2  0  0  0  0  0  0  0  0  0
  138.9550   70.9370  220.9220 N   0  0  0  0  0  0  0  0  0  0  0  0
  140.6530   72.0550  222.2780 C   0  0  0  0  0  0  0  0  0  0  0  0
  140.3160   71.3390  223.4990 C   0  0  0  0  0  0  0  0  0  0  0  0
  139.6320   70.1470  223.5780 C   0  0  0  0  0  0  0  0  0  0  0  0
  139.3340   69.5180  224.7740 C   0  0  0  0  0  0  0  0  0  0  0  0
  139.7170   70.0690  225.9690 C   0  0  0  0  0  0  0  0  0  0  0  0
  139.4170   69.4370  227.1450 C   0  0  0  0  0  0  0  0  0  0  0  0
  139.8070   69.9960  228.3520 C   0  0  0  0  0  0  0  0  0  0  0  0
  140.4980   71.1970  228.3160 C   0  0  0  0  0  0  0  0  0  0  0  0
  140.8050   71.8390  227.1360 C   0  0  0  0  0  0  0  0  0  0  0  0
  140.4040   71.2600  225.9270 C   0  0  0  0  0  0  0  0  0  0  0  0
  140.7030   71.8920  224.7260 C   0  0  0  0  0  0  0  0  0  0  0  0
  137.4600   75.3300  222.2890 C   0  0  0  0  0  0  0  0  0  0  0  0
  137.8060   76.5900  222.9840 C   0  0  0  0  0  0  0  0  0  0  0  0
  138.2931   80.8760  225.8621 H   0  0  0  0  0  0  0  0  0  0  0  0
  137.2539   82.1499  225.1383 H   0  0  0  0  0  0  0  0  0  0  0  0
  136.7083   80.4385  225.1383 H   0  0  0  0  0  0  0  0  0  0  0  0
  137.9002   81.6671  223.0284 H   0  0  0  0  0  0  0  0  0  0  0  0
  139.3341   80.9489  223.8780 H   0  0  0  0  0  0  0  0  0  0  0  0
  140.2154   79.8040  220.5828 H   0  0  0  0  0  0  0  0  0  0  0  0
  142.5689   80.6670  220.5931 H   0  0  0  0  0  0  0  0  0  0  0  0
  143.9192   80.5509  222.6701 H   0  0  0  0  0  0  0  0  0  0  0  0
  142.9875   79.5861  224.7605 H   0  0  0  0  0  0  0  0  0  0  0  0
  140.6489   78.7300  224.7424 H   0  0  0  0  0  0  0  0  0  0  0  0
  138.2375   77.6481  221.1468 H   0  0  0  0  0  0  0  0  0  0  0  0
  140.7570   77.1982  221.4535 H   0  0  0  0  0  0  0  0  0  0  0  0
  140.3715   76.2855  222.9250 H   0  0  0  0  0  0  0  0  0  0  0  0
  139.2190   75.7757  220.1251 H   0  0  0  0  0  0  0  0  0  0  0  0
  140.4950   74.7905  220.9603 H   0  0  0  0  0  0  0  0  0  0  0  0
  139.8436   72.5982  220.3228 H   0  0  0  0  0  0  0  0  0  0  0  0
  138.9340   70.7560  219.8980 H   0  0  0  0  0  0  0  0  0  0  0  0
  138.0000   70.7690  221.2990 H   0  0  0  0  0  0  0  0  0  0  0  0
  141.4674   71.5125  221.7755 H   0  0  0  0  0  0  0  0  0  0  0  0
  140.9368   73.0735  222.5814 H   0  0  0  0  0  0  0  0  0  0  0  0
  139.3055   69.6699  222.6422 H   0  0  0  0  0  0  0  0  0  0  0  0
  138.7838   68.5655  224.7655 H   0  0  0  0  0  0  0  0  0  0  0  0
  138.8661   68.4850  227.1325 H   0  0  0  0  0  0  0  0  0  0  0  0
  139.5756   69.5025  229.3075 H   0  0  0  0  0  0  0  0  0  0  0  0
  140.8132   71.6549  229.2652 H   0  0  0  0  0  0  0  0  0  0  0  0
  141.3562   72.7909  227.1444 H   0  0  0  0  0  0  0  0  0  0  0  0
  141.2538   72.8441  224.7394 H   0  0  0  0  0  0  0  0  0  0  0  0
  136.7575   75.5714  221.4777 H   0  0  0  0  0  0  0  0  0  0  0  0
  137.0360   74.6661  223.0567 H   0  0  0  0  0  0  0  0  0  0  0  0
  136.8853   77.1527  223.1976 H   0  0  0  0  0  0  0  0  0  0  0  0
  138.3252   76.3524  223.9242 H   0  0  0  0  0  0  0  0  0  0  0  0
  1  2  1  0
  2  3  1  0
  3  4  2  0
  3  5  1  0
  5  6  1  0
  6  7  2  0
  7  8  1  0
  8  9  2  0
  9 10  1  0
 10 11  2  0
  5 12  1  0
 12 13  1  0
 13 14  1  0
 14 15  1  0
 15 16  1  0
 16 17  2  0
 16 18  1  0
 18 19  1  0
 18 20  1  0
 20 21  1  0
 21 22  2  0
 22 23  1  0
 23 24  2  0
 24 25  1  0
 25 26  2  0
 26 27  1  0
 27 28  2  0
 28 29  1  0
 29 30  2  0
 15 31  1  0
 31 32  1  0
 11  6  1  0
 32 12  1  0
 30 21  1  0
 29 24  1  0
  1 33  1  0
  1 34  1  0
  1 35  1  0
  2 36  1  0
  2 37  1  0
  7 38  1  0
  8 39  1  0
  9 40  1  0
 10 41  1  0
 11 42  1  0
 12 43  1  0
 13 44  1  0
 13 45  1  0
 14 46  1  0
 14 47  1  0
 18 48  1  6
 19 49  1  0
 19 50  1  0
 20 51  1  0
 20 52  1  0
 22 53  1  0
 23 54  1  0
 25 55  1  0
 26 56  1  0
 27 57  1  0
 28 58  1  0
 30 59  1  0
 31 60  1  0
 31 61  1  0
 32 62  1  0
 32 63  1  0
M  END
>  <smiles>  (47) 
CCC(=O)N(c1ccccc1)C1CCN(C(=O)[C@H](N)Cc2ccc3ccccc3c2)CC1

>  <score_type>  (47) 
oracle

>  <origin>  (47) 
autodockgpu

>  <m_score__min__energy>  (47) 
-9.5700000000000003

>  <m_primary>  (47) 
energy

>  <rmsd>  (47) 
5.93139346745008

>  <m_score__min__rmsd>  (47) 
5.93139346745008

>  <meeko>  (47) 
{"free_energy": -8.44, "intermolecular_energy": -10.83, "internal_energy": -2.13, "cluster_size": 6, "cluster_id": 4, "rank_in_cluster": 5}

>  <energy>  (47) 
-8.41

>  <cluster_rmsd>  (47) 
0.59

>  <cluster>  (47) 
6

$$$$

     RDKit          3D

 63 66  0  0  0  0  0  0  0  0999 V2000
  142.2440   80.5230  218.6180 C   0  0  0  0  0  0  0  0  0  0  0  0
  141.9790   79.0470  218.6730 C   0  0  0  0  0  0  0  0  0  0  0  0
  140.8440   78.7170  219.5850 C   0  0  0  0  0  0  0  0  0  0  0  0
  139.6870   78.7630  219.0920 O   0  0  0  0  0  0  0  0  0  0  0  0
  141.1050   78.3730  220.9420 N   0  0  0  0  0  0  0  0  0  0  0  0
  141.4840   79.4060  221.8760 C   0  0  0  0  0  0  0  0  0  0  0  0
  140.7740   80.5790  221.8430 C   0  0  0  0  0  0  0  0  0  0  0  0
  141.1360   81.5740  222.7380 C   0  0  0  0  0  0  0  0  0  0  0  0
  142.1890   81.3610  223.6290 C   0  0  0  0  0  0  0  0  0  0  0  0
  142.8980   80.1740  223.6510 C   0  0  0  0  0  0  0  0  0  0  0  0
  142.5360   79.1900  222.7630 C   0  0  0  0  0  0  0  0  0  0  0  0
  140.9960   77.0170  221.3960 C   0  0  0  0  0  0  0  0  0  0  0  0
  139.5710   76.5090  221.3650 C   0  0  0  0  0  0  0  0  0  0  0  0
  139.5580   75.2190  222.1640 C   0  0  0  0  0  0  0  0  0  0  0  0
  140.4190   74.2280  221.5980 N   0  0  0  0  0  0  0  0  0  0  0  0
  140.1370   72.8640  221.4020 C   0  0  0  0  0  0  0  0  0  0  0  0
  141.0750   72.1600  220.8370 O   0  0  0  0  0  0  0  0  0  0  0  0
  138.9390   72.0920  221.7380 C   0  0  2  0  0  0  0  0  0  0  0  0
  138.0090   72.6990  222.6300 N   0  0  0  0  0  0  0  0  0  0  0  0
  139.3630   70.7050  222.2240 C   0  0  0  0  0  0  0  0  0  0  0  0
  139.7800   70.6550  223.6170 C   0  0  0  0  0  0  0  0  0  0  0  0
  140.4450   71.6470  224.3020 C   0  0  0  0  0  0  0  0  0  0  0  0
  140.8240   71.5350  225.6280 C   0  0  0  0  0  0  0  0  0  0  0  0
  140.5460   70.3990  226.3410 C   0  0  0  0  0  0  0  0  0  0  0  0
  140.9250   70.3010  227.6520 C   0  0  0  0  0  0  0  0  0  0  0  0
  140.6420   69.1500  228.3720 C   0  0  0  0  0  0  0  0  0  0  0  0
  139.9730   68.1260  227.7190 C   0  0  0  0  0  0  0  0  0  0  0  0
  139.5870   68.2180  226.4000 C   0  0  0  0  0  0  0  0  0  0  0  0
  139.8810   69.3870  225.6880 C   0  0  0  0  0  0  0  0  0  0  0  0
  139.5010   69.4990  224.3560 C   0  0  0  0  0  0  0  0  0  0  0  0
  141.7460   74.6900  221.1940 C   0  0  0  0  0  0  0  0  0  0  0  0
  141.7850   76.0290  220.5640 C   0  0  0  0  0  0  0  0  0  0  0  0
  142.3155   80.9211  219.6409 H   0  0  0  0  0  0  0  0  0  0  0  0
  143.1894   80.7062  218.0864 H   0  0  0  0  0  0  0  0  0  0  0  0
  141.4214   81.0237  218.0864 H   0  0  0  0  0  0  0  0  0  0  0  0
  141.7362   78.6916  217.6607 H   0  0  0  0  0  0  0  0  0  0  0  0
  142.8821   78.5535  219.0616 H   0  0  0  0  0  0  0  0  0  0  0  0
  139.9473   80.7250  221.1322 H   0  0  0  0  0  0  0  0  0  0  0  0
  140.5936   82.5309  222.7459 H   0  0  0  0  0  0  0  0  0  0  0  0
  142.4627   82.1601  224.3337 H   0  0  0  0  0  0  0  0  0  0  0  0
  143.7268   80.0221  224.3581 H   0  0  0  0  0  0  0  0  0  0  0  0
  143.0767   78.2321  222.7526 H   0  0  0  0  0  0  0  0  0  0  0  0
  141.3939   77.0666  222.4203 H   0  0  0  0  0  0  0  0  0  0  0  0
  138.8944   77.2462  221.8219 H   0  0  0  0  0  0  0  0  0  0  0  0
  139.2298   76.3419  220.3327 H   0  0  0  0  0  0  0  0  0  0  0  0
  139.8907   75.4339  223.1902 H   0  0  0  0  0  0  0  0  0  0  0  0
  138.5317   74.8232  222.1522 H   0  0  0  0  0  0  0  0  0  0  0  0
  138.3607   72.0311  220.8043 H   0  0  0  0  0  0  0  0  0  0  0  0
  138.1160   73.7290  222.7320 H   0  0  0  0  0  0  0  0  0  0  0  0
  138.0110   72.2780  223.5810 H   0  0  0  0  0  0  0  0  0  0  0  0
  138.5113   70.0208  222.0956 H   0  0  0  0  0  0  0  0  0  0  0  0
  140.2396   70.4180  221.6246 H   0  0  0  0  0  0  0  0  0  0  0  0
  140.6877   72.5771  223.7672 H   0  0  0  0  0  0  0  0  0  0  0  0
  141.3541   72.3670  226.1147 H   0  0  0  0  0  0  0  0  0  0  0  0
  141.4544   71.1355  228.1351 H   0  0  0  0  0  0  0  0  0  0  0  0
  140.9386   69.0526  229.4268 H   0  0  0  0  0  0  0  0  0  0  0  0
  139.7419   67.2056  228.2752 H   0  0  0  0  0  0  0  0  0  0  0  0
  139.0562   67.3862  225.9138 H   0  0  0  0  0  0  0  0  0  0  0  0
  138.9714   68.6643  223.8735 H   0  0  0  0  0  0  0  0  0  0  0  0
  142.3837   74.7172  222.0899 H   0  0  0  0  0  0  0  0  0  0  0  0
  142.0938   73.9826  220.4268 H   0  0  0  0  0  0  0  0  0  0  0  0
  142.8293   76.3667  220.4910 H   0  0  0  0  0  0  0  0  0  0  0  0
  141.3410   75.9679  219.5594 H   0  0  0  0  0  0  0  0  0  0  0  0
  1  2  1  0
  2  3  1  0
  3  4  2  0
  3  5  1  0
  5  6  1  0
  6  7  2  0
  7  8  1  0
  8  9  2  0
  9 10  1  0
 10 11  2  0
  5 12  1  0
 12 13  1  0
 13 14  1  0
 14 15  1  0
 15 16  1  0
 16 17  2  0
 16 18  1  0
 18 19  1  0
 18 20  1  0
 20 21  1  0
 21 22  2  0
 22 23  1  0
 23 24  2  0
 24 25  1  0
 25 26  2  0
 26 27  1  0
 27 28  2  0
 28 29  1  0
 29 30  2  0
 15 31  1  0
 31 32  1  0
 11  6  1  0
 32 12  1  0
 30 21  1  0
 29 24  1  0
  1 33  1  0
  1 34  1  0
  1 35  1  0
  2 36  1  0
  2 37  1  0
  7 38  1  0
  8 39  1  0
  9 40  1  0
 10 41  1  0
 11 42  1  0
 12 43  1  0
 13 44  1  0
 13 45  1  0
 14 46  1  0
 14 47  1  0
 18 48  1  6
 19 49  1  0
 19 50  1  0
 20 51  1  0
 20 52  1  0
 22 53  1  0
 23 54  1  0
 25 55  1  0
 26 56  1  0
 27 57  1  0
 28 58  1  0
 30 59  1  0
 31 60  1  0
 31 61  1  0
 32 62  1  0
 32 63  1  0
M  END
>  <smiles>  (48) 
CCC(=O)N(c1ccccc1)C1CCN(C(=O)[C@H](N)Cc2ccc3ccccc3c2)CC1

>  <score_type>  (48) 
oracle

>  <origin>  (48) 
autodockgpu

>  <m_score__min__energy>  (48) 
-9.5700000000000003

>  <m_primary>  (48) 
energy

>  <rmsd>  (48) 
6.270901690355581

>  <m_score__min__rmsd>  (48) 
6.270901690355581

>  <meeko>  (48) 
{"free_energy": -9.5, "intermolecular_energy": -11.88, "internal_energy": -1.58, "cluster_size": 20, "cluster_id": 1, "rank_in_cluster": 3}

>  <energy>  (48) 
-8.6

>  <cluster_rmsd>  (48) 
0.0

>  <cluster>  (48) 
7

$$$$

     RDKit          3D

 63 66  0  0  0  0  0  0  0  0999 V2000
  145.6710   73.0150  221.6110 C   0  0  0  0  0  0  0  0  0  0  0  0
  145.9910   73.7710  220.3550 C   0  0  0  0  0  0  0  0  0  0  0  0
  145.3920   73.1290  219.1480 C   0  0  0  0  0  0  0  0  0  0  0  0
  145.8820   72.0270  218.7870 O   0  0  0  0  0  0  0  0  0  0  0  0
  144.3170   73.7680  218.4690 N   0  0  0  0  0  0  0  0  0  0  0  0
  144.5810   74.4980  217.2510 C   0  0  0  0  0  0  0  0  0  0  0  0
  143.8020   75.5980  216.9930 C   0  0  0  0  0  0  0  0  0  0  0  0
  144.0510   76.3010  215.8240 C   0  0  0  0  0  0  0  0  0  0  0  0
  145.0640   75.8820  214.9620 C   0  0  0  0  0  0  0  0  0  0  0  0
  145.8430   74.7710  215.2330 C   0  0  0  0  0  0  0  0  0  0  0  0
  145.5930   74.0770  216.3920 C   0  0  0  0  0  0  0  0  0  0  0  0
  142.9760   73.6990  218.9710 C   0  0  0  0  0  0  0  0  0  0  0  0
  142.6460   72.3410  219.5540 C   0  0  0  0  0  0  0  0  0  0  0  0
  141.1400   72.3080  219.7350 C   0  0  0  0  0  0  0  0  0  0  0  0
  140.6830   73.3240  220.6310 N   0  0  0  0  0  0  0  0  0  0  0  0
  139.7440   73.1860  221.6700 C   0  0  0  0  0  0  0  0  0  0  0  0
  139.5090   74.2540  222.3750 O   0  0  0  0  0  0  0  0  0  0  0  0
  138.9720   72.0160  222.0930 C   0  0  2  0  0  0  0  0  0  0  0  0
  137.9720   72.2270  223.0860 N   0  0  0  0  0  0  0  0  0  0  0  0
  139.9400   70.9030  222.4970 C   0  0  0  0  0  0  0  0  0  0  0  0
  140.1850   70.8050  223.9280 C   0  0  0  0  0  0  0  0  0  0  0  0
  140.6890   71.7980  224.7360 C   0  0  0  0  0  0  0  0  0  0  0  0
  140.9080   71.6390  226.0930 C   0  0  0  0  0  0  0  0  0  0  0  0
  140.6230   70.4510  226.7130 C   0  0  0  0  0  0  0  0  0  0  0  0
  140.8430   70.3060  228.0550 C   0  0  0  0  0  0  0  0  0  0  0  0
  140.5540   69.1020  228.6790 C   0  0  0  0  0  0  0  0  0  0  0  0
  140.0440   68.0750  227.9010 C   0  0  0  0  0  0  0  0  0  0  0  0
  139.8190   68.2130  226.5490 C   0  0  0  0  0  0  0  0  0  0  0  0
  140.1160   69.4350  225.9350 C   0  0  0  0  0  0  0  0  0  0  0  0
  139.8970   69.5950  224.5710 C   0  0  0  0  0  0  0  0  0  0  0  0
  141.2500   74.6560  220.4280 C   0  0  0  0  0  0  0  0  0  0  0  0
  142.6890   74.6850  220.0830 C   0  0  0  0  0  0  0  0  0  0  0  0
  145.9312   73.6297  222.4853 H   0  0  0  0  0  0  0  0  0  0  0  0
  144.5965   72.7806  221.6342 H   0  0  0  0  0  0  0  0  0  0  0  0
  146.2507   72.0804  221.6342 H   0  0  0  0  0  0  0  0  0  0  0  0
  145.5965   74.7938  220.4459 H   0  0  0  0  0  0  0  0  0  0  0  0
  147.0839   73.7756  220.2303 H   0  0  0  0  0  0  0  0  0  0  0  0
  143.0090   75.9106  217.6882 H   0  0  0  0  0  0  0  0  0  0  0  0
  143.4500   77.1885  215.5768 H   0  0  0  0  0  0  0  0  0  0  0  0
  145.2492   76.4516  214.0394 H   0  0  0  0  0  0  0  0  0  0  0  0
  146.6377   74.4534  214.5420 H   0  0  0  0  0  0  0  0  0  0  0  0
  146.1922   73.1889  216.6414 H   0  0  0  0  0  0  0  0  0  0  0  0
  142.3672   73.9265  218.0835 H   0  0  0  0  0  0  0  0  0  0  0  0
  142.9642   71.5439  218.8660 H   0  0  0  0  0  0  0  0  0  0  0  0
  143.1665   72.1797  220.5096 H   0  0  0  0  0  0  0  0  0  0  0  0
  140.6618   72.4576  218.7557 H   0  0  0  0  0  0  0  0  0  0  0  0
  140.8722   71.3318  220.1654 H   0  0  0  0  0  0  0  0  0  0  0  0
  138.3735   71.7296  221.2156 H   0  0  0  0  0  0  0  0  0  0  0  0
  137.6790   73.2190  223.2010 H   0  0  0  0  0  0  0  0  0  0  0  0
  138.2330   71.8570  224.0230 H   0  0  0  0  0  0  0  0  0  0  0  0
  139.5238   69.9445  222.1534 H   0  0  0  0  0  0  0  0  0  0  0  0
  140.9064   71.1449  222.0305 H   0  0  0  0  0  0  0  0  0  0  0  0
  140.9305   72.7692  224.2793 H   0  0  0  0  0  0  0  0  0  0  0  0
  141.3152   72.4753  226.6802 H   0  0  0  0  0  0  0  0  0  0  0  0
  141.2493   71.1447  228.6394 H   0  0  0  0  0  0  0  0  0  0  0  0
  140.7242   68.9664  229.7573 H   0  0  0  0  0  0  0  0  0  0  0  0
  139.8100   67.1133  228.3811 H   0  0  0  0  0  0  0  0  0  0  0  0
  139.4126   67.3764  225.9617 H   0  0  0  0  0  0  0  0  0  0  0  0
  139.4904   68.7562  223.9870 H   0  0  0  0  0  0  0  0  0  0  0  0
  140.6949   75.1408  219.6114 H   0  0  0  0  0  0  0  0  0  0  0  0
  141.1580   75.1760  221.3929 H   0  0  0  0  0  0  0  0  0  0  0  0
  142.9636   75.6974  219.7518 H   0  0  0  0  0  0  0  0  0  0  0  0
  143.2781   74.4094  220.9701 H   0  0  0  0  0  0  0  0  0  0  0  0
  1  2  1  0
  2  3  1  0
  3  4  2  0
  3  5  1  0
  5  6  1  0
  6  7  2  0
  7  8  1  0
  8  9  2  0
  9 10  1  0
 10 11  2  0
  5 12  1  0
 12 13  1  0
 13 14  1  0
 14 15  1  0
 15 16  1  0
 16 17  2  0
 16 18  1  0
 18 19  1  0
 18 20  1  0
 20 21  1  0
 21 22  2  0
 22 23  1  0
 23 24  2  0
 24 25  1  0
 25 26  2  0
 26 27  1  0
 27 28  2  0
 28 29  1  0
 29 30  2  0
 15 31  1  0
 31 32  1  0
 11  6  1  0
 32 12  1  0
 30 21  1  0
 29 24  1  0
  1 33  1  0
  1 34  1  0
  1 35  1  0
  2 36  1  0
  2 37  1  0
  7 38  1  0
  8 39  1  0
  9 40  1  0
 10 41  1  0
 11 42  1  0
 12 43  1  0
 13 44  1  0
 13 45  1  0
 14 46  1  0
 14 47  1  0
 18 48  1  6
 19 49  1  0
 19 50  1  0
 20 51  1  0
 20 52  1  0
 22 53  1  0
 23 54  1  0
 25 55  1  0
 26 56  1  0
 27 57  1  0
 28 58  1  0
 30 59  1  0
 31 60  1  0
 31 61  1  0
 32 62  1  0
 32 63  1  0
M  END
>  <smiles>  (49) 
CCC(=O)N(c1ccccc1)C1CCN(C(=O)[C@H](N)Cc2ccc3ccccc3c2)CC1

>  <score_type>  (49) 
oracle

>  <origin>  (49) 
autodockgpu

>  <m_score__min__energy>  (49) 
-9.5700000000000003

>  <m_primary>  (49) 
energy

>  <rmsd>  (49) 
7.380925476208308

>  <m_score__min__rmsd>  (49) 
7.380925476208308

>  <meeko>  (49) 
{"free_energy": -8.95, "intermolecular_energy": -11.34, "internal_energy": -2.27, "cluster_size": 6, "cluster_id": 3, "rank_in_cluster": 3}

>  <energy>  (49) 
-8.31

>  <cluster_rmsd>  (49) 
1.51

>  <cluster>  (49) 
7

$$$$

     RDKit          3D

 63 66  0  0  0  0  0  0  0  0999 V2000
  137.2620   81.3020  225.4900 C   0  0  0  0  0  0  0  0  0  0  0  0
  137.3200   81.4600  223.9990 C   0  0  0  0  0  0  0  0  0  0  0  0
  137.4550   80.1460  223.3040 C   0  0  0  0  0  0  0  0  0  0  0  0
  136.4000   79.4810  223.1330 O   0  0  0  0  0  0  0  0  0  0  0  0
  138.7380   79.7060  222.8700 N   0  0  0  0  0  0  0  0  0  0  0  0
  139.6780   80.6670  222.3450 C   0  0  0  0  0  0  0  0  0  0  0  0
  140.7540   80.9930  223.1320 C   0  0  0  0  0  0  0  0  0  0  0  0
  141.6590   81.9170  222.6320 C   0  0  0  0  0  0  0  0  0  0  0  0
  141.4570   82.4780  221.3710 C   0  0  0  0  0  0  0  0  0  0  0  0
  140.3680   82.1410  220.5870 C   0  0  0  0  0  0  0  0  0  0  0  0
  139.4730   81.2250  221.0850 C   0  0  0  0  0  0  0  0  0  0  0  0
  139.1120   78.3240  222.9480 C   0  0  0  0  0  0  0  0  0  0  0  0
  138.0820   77.4100  222.3210 C   0  0  0  0  0  0  0  0  0  0  0  0
  138.4360   76.0010  222.7600 C   0  0  0  0  0  0  0  0  0  0  0  0
  139.7380   75.6110  222.3150 N   0  0  0  0  0  0  0  0  0  0  0  0
  140.1090   74.3830  221.7360 C   0  0  0  0  0  0  0  0  0  0  0  0
  141.3570   74.2710  221.3820 O   0  0  0  0  0  0  0  0  0  0  0  0
  139.3070   73.1890  221.4640 C   0  0  2  0  0  0  0  0  0  0  0  0
  138.0450   73.0960  222.1180 N   0  0  0  0  0  0  0  0  0  0  0  0
  140.1650   71.9480  221.7150 C   0  0  0  0  0  0  0  0  0  0  0  0
  139.9830   71.3440  223.0270 C   0  0  0  0  0  0  0  0  0  0  0  0
  139.1820   70.2640  223.3190 C   0  0  0  0  0  0  0  0  0  0  0  0
  139.0450   69.7400  224.5920 C   0  0  0  0  0  0  0  0  0  0  0  0
  139.7200   70.2880  225.6510 C   0  0  0  0  0  0  0  0  0  0  0  0
  139.5760   69.7600  226.9050 C   0  0  0  0  0  0  0  0  0  0  0  0
  140.2610   70.3170  227.9740 C   0  0  0  0  0  0  0  0  0  0  0  0
  141.0790   71.4070  227.7230 C   0  0  0  0  0  0  0  0  0  0  0  0
  141.2300   71.9440  226.4630 C   0  0  0  0  0  0  0  0  0  0  0  0
  140.5310   71.3690  225.3950 C   0  0  0  0  0  0  0  0  0  0  0  0
  140.6690   71.8960  224.1160 C   0  0  0  0  0  0  0  0  0  0  0  0
  140.7980   76.5990  222.5000 C   0  0  0  0  0  0  0  0  0  0  0  0
  140.4090   78.0020  222.2350 C   0  0  0  0  0  0  0  0  0  0  0  0
  137.6030   82.2308  225.9707 H   0  0  0  0  0  0  0  0  0  0  0  0
  136.2271   81.0893  225.7962 H   0  0  0  0  0  0  0  0  0  0  0  0
  137.9133   80.4701  225.7962 H   0  0  0  0  0  0  0  0  0  0  0  0
  136.3962   81.9496  223.6572 H   0  0  0  0  0  0  0  0  0  0  0  0
  138.2045   82.0667  223.7550 H   0  0  0  0  0  0  0  0  0  0  0  0
  140.8935   80.5377  224.1236 H   0  0  0  0  0  0  0  0  0  0  0  0
  142.5357   82.2074  223.2295 H   0  0  0  0  0  0  0  0  0  0  0  0
  142.1844   83.2093  220.9889 H   0  0  0  0  0  0  0  0  0  0  0  0
  140.2230   82.5929  219.5946 H   0  0  0  0  0  0  0  0  0  0  0  0
  138.5956   80.9326  220.4895 H   0  0  0  0  0  0  0  0  0  0  0  0
  139.2102   78.1544  224.0304 H   0  0  0  0  0  0  0  0  0  0  0  0
  137.0738   77.6758  222.6716 H   0  0  0  0  0  0  0  0  0  0  0  0
  138.0847   77.4987  221.2246 H   0  0  0  0  0  0  0  0  0  0  0  0
  138.4076   75.9539  223.8586 H   0  0  0  0  0  0  0  0  0  0  0  0
  137.7042   75.3124  222.3124 H   0  0  0  0  0  0  0  0  0  0  0  0
  139.0156   73.2688  220.4063 H   0  0  0  0  0  0  0  0  0  0  0  0
  137.2510   73.5090  221.5880 H   0  0  0  0  0  0  0  0  0  0  0  0
  138.0430   73.5050  223.0750 H   0  0  0  0  0  0  0  0  0  0  0  0
  139.9131   71.1961  220.9526 H   0  0  0  0  0  0  0  0  0  0  0  0
  141.2135   72.2769  221.6645 H   0  0  0  0  0  0  0  0  0  0  0  0
  138.6217   69.7930  222.4979 H   0  0  0  0  0  0  0  0  0  0  0  0
  138.3869   68.8739  224.7558 H   0  0  0  0  0  0  0  0  0  0  0  0
  138.9170   68.8939  227.0650 H   0  0  0  0  0  0  0  0  0  0  0  0
  140.1584   69.9066  228.9894 H   0  0  0  0  0  0  0  0  0  0  0  0
  141.6284   71.8606  228.5611 H   0  0  0  0  0  0  0  0  0  0  0  0
  141.8885   72.8097  226.2991 H   0  0  0  0  0  0  0  0  0  0  0  0
  141.3286   72.7618  223.9566 H   0  0  0  0  0  0  0  0  0  0  0  0
  141.1452   76.5337  223.5417 H   0  0  0  0  0  0  0  0  0  0  0  0
  141.5743   76.3540  221.7601 H   0  0  0  0  0  0  0  0  0  0  0  0
  141.2006   78.6741  222.5978 H   0  0  0  0  0  0  0  0  0  0  0  0
  140.2695   78.1395  221.1526 H   0  0  0  0  0  0  0  0  0  0  0  0
  1  2  1  0
  2  3  1  0
  3  4  2  0
  3  5  1  0
  5  6  1  0
  6  7  2  0
  7  8  1  0
  8  9  2  0
  9 10  1  0
 10 11  2  0
  5 12  1  0
 12 13  1  0
 13 14  1  0
 14 15  1  0
 15 16  1  0
 16 17  2  0
 16 18  1  0
 18 19  1  0
 18 20  1  0
 20 21  1  0
 21 22  2  0
 22 23  1  0
 23 24  2  0
 24 25  1  0
 25 26  2  0
 26 27  1  0
 27 28  2  0
 28 29  1  0
 29 30  2  0
 15 31  1  0
 31 32  1  0
 11  6  1  0
 32 12  1  0
 30 21  1  0
 29 24  1  0
  1 33  1  0
  1 34  1  0
  1 35  1  0
  2 36  1  0
  2 37  1  0
  7 38  1  0
  8 39  1  0
  9 40  1  0
 10 41  1  0
 11 42  1  0
 12 43  1  0
 13 44  1  0
 13 45  1  0
 14 46  1  0
 14 47  1  0
 18 48  1  6
 19 49  1  0
 19 50  1  0
 20 51  1  0
 20 52  1  0
 22 53  1  0
 23 54  1  0
 25 55  1  0
 26 56  1  0
 27 57  1  0
 28 58  1  0
 30 59  1  0
 31 60  1  0
 31 61  1  0
 32 62  1  0
 32 63  1  0
M  END
>  <smiles>  (50) 
CCC(=O)N(c1ccccc1)C1CCN(C(=O)[C@H](N)Cc2ccc3ccccc3c2)CC1

>  <score_type>  (50) 
oracle

>  <origin>  (50) 
autodockgpu

>  <m_score__min__energy>  (50) 
-9.5700000000000003

>  <m_primary>  (50) 
energy

>  <rmsd>  (50) 
5.387848597222284

>  <m_score__min__rmsd>  (50) 
5.387848597222284

>  <meeko>  (50) 
{"free_energy": -8.43, "intermolecular_energy": -10.81, "internal_energy": -1.6, "cluster_size": 6, "cluster_id": 4, "rank_in_cluster": 6}

>  <energy>  (50) 
-8.45

>  <cluster_rmsd>  (50) 
0.0

>  <cluster>  (50) 
8

$$$$
