
     RDKit          3D

 63 66  0  0  0  0  0  0  0  0999 V2000
  136.1260   80.3050  221.0280 C   0  0  0  0  0  0  0  0  0  0  0  0
  136.8950   79.5320  220.1540 O   0  0  0  0  0  0  0  0  0  0  0  0
  138.2260   79.7360  219.8440 C   0  0  0  0  0  0  0  0  0  0  0  0
  138.7900   78.9760  218.8230 C   0  0  0  0  0  0  0  0  0  0  0  0
  140.1250   79.1320  218.4610 C   0  0  0  0  0  0  0  0  0  0  0  0
  140.9480   80.0600  219.1120 C   0  0  0  0  0  0  0  0  0  0  0  0
  142.3250   80.1660  218.6610 C   0  0  2  0  0  0  0  0  0  0  0  0
  142.6180   81.3390  217.7610 C   0  0  0  0  0  0  0  0  0  0  0  0
  142.8570   78.9670  218.0330 N   0  0  0  0  0  0  0  0  0  0  0  0
  142.8150   77.6860  218.6660 C   0  0  0  0  0  0  0  0  0  0  0  0
  142.3050   77.5270  219.8260 O   0  0  0  0  0  0  0  0  0  0  0  0
  143.3970   76.5510  217.9030 C   0  0  2  0  0  0  0  0  0  0  0  0
  142.8280   76.5230  216.4740 C   0  0  0  0  0  0  0  0  0  0  0  0
  141.3830   76.1980  216.7930 C   0  0  1  0  0  0  0  0  0  0  0  0
  140.7120   75.6750  215.6960 O   0  0  0  0  0  0  0  0  0  0  0  0
  141.4400   75.2310  217.9620 C   0  0  0  0  0  0  0  0  0  0  0  0
  142.8540   75.2840  218.3630 N   0  0  0  0  0  0  0  0  0  0  0  0
  143.5710   74.2560  219.0800 C   0  0  0  0  0  0  0  0  0  0  0  0
  144.5260   73.6700  218.5100 O   0  0  0  0  0  0  0  0  0  0  0  0
  143.1320   73.9440  220.4690 C   0  0  0  0  0  0  0  0  0  0  0  0
  142.3110   75.0300  220.9690 N   0  0  0  0  0  0  0  0  0  0  0  0
  141.0720   74.8340  221.6300 C   0  0  0  0  0  0  0  0  0  0  0  0
  140.6040   73.6650  221.8240 O   0  0  0  0  0  0  0  0  0  0  0  0
  140.3070   75.9990  222.1020 C   0  0  0  0  0  0  0  0  0  0  0  0
  138.9350   76.0050  222.1780 C   0  0  0  0  0  0  0  0  0  0  0  0
  138.2200   77.1080  222.6270 C   0  0  0  0  0  0  0  0  0  0  0  0
  138.9480   78.2120  223.0010 C   0  0  0  0  0  0  0  0  0  0  0  0
  138.3050   79.3510  223.4590 C   0  0  0  0  0  0  0  0  0  0  0  0
  139.0030   80.4870  223.8450 C   0  0  0  0  0  0  0  0  0  0  0  0
  138.3940   81.6060  224.2930 F   0  0  0  0  0  0  0  0  0  0  0  0
  140.3860   80.4460  223.7550 C   0  0  0  0  0  0  0  0  0  0  0  0
  141.0710   79.3410  223.3070 C   0  0  0  0  0  0  0  0  0  0  0  0
  140.3290   78.2210  222.9290 C   0  0  0  0  0  0  0  0  0  0  0  0
  140.9500   77.1150  222.4840 N   0  0  0  0  0  0  0  0  0  0  0  0
  140.3790   80.8160  220.1330 C   0  0  0  0  0  0  0  0  0  0  0  0
  141.3890   81.9710  220.9570 Cl  0  0  0  0  0  0  0  0  0  0  0  0
  139.0390   80.6440  220.4810 C   0  0  0  0  0  0  0  0  0  0  0  0
  136.3817   80.0480  222.0665 H   0  0  0  0  0  0  0  0  0  0  0  0
  136.3322   81.3712  220.8527 H   0  0  0  0  0  0  0  0  0  0  0  0
  135.0588   80.1043  220.8527 H   0  0  0  0  0  0  0  0  0  0  0  0
  138.1693   78.2388  218.2927 H   0  0  0  0  0  0  0  0  0  0  0  0
  140.5408   78.5161  217.6499 H   0  0  0  0  0  0  0  0  0  0  0  0
  142.8418   80.3249  219.6190 H   0  0  0  0  0  0  0  0  0  0  0  0
  142.8393   82.2252  218.3740 H   0  0  0  0  0  0  0  0  0  0  0  0
  143.4856   81.1063  217.1261 H   0  0  0  0  0  0  0  0  0  0  0  0
  141.7429   81.5416  217.1261 H   0  0  0  0  0  0  0  0  0  0  0  0
  143.2930   79.0560  217.0650 H   0  0  0  0  0  0  0  0  0  0  0  0
  144.4862   76.6723  217.9980 H   0  0  0  0  0  0  0  0  0  0  0  0
  142.9295   77.4964  215.9717 H   0  0  0  0  0  0  0  0  0  0  0  0
  143.3254   75.8264  215.7831 H   0  0  0  0  0  0  0  0  0  0  0  0
  140.8097   77.0999  217.0535 H   0  0  0  0  0  0  0  0  0  0  0  0
  140.9370   74.7230  215.5830 H   0  0  0  0  0  0  0  0  0  0  0  0
  140.7837   75.5608  218.7809 H   0  0  0  0  0  0  0  0  0  0  0  0
  141.0990   74.2174  217.7046 H   0  0  0  0  0  0  0  0  0  0  0  0
  142.5477   73.0120  220.4688 H   0  0  0  0  0  0  0  0  0  0  0  0
  144.0140   73.8221  221.1149 H   0  0  0  0  0  0  0  0  0  0  0  0
  142.6150   76.0380  220.8550 H   0  0  0  0  0  0  0  0  0  0  0  0
  138.3831   75.1039  221.8723 H   0  0  0  0  0  0  0  0  0  0  0  0
  137.1214   77.0983  222.6808 H   0  0  0  0  0  0  0  0  0  0  0  0
  137.2066   79.3550  223.5185 H   0  0  0  0  0  0  0  0  0  0  0  0
  140.9597   81.3354  224.0548 H   0  0  0  0  0  0  0  0  0  0  0  0
  142.1694   79.3399  223.2484 H   0  0  0  0  0  0  0  0  0  0  0  0
  138.6183   81.2556  221.2928 H   0  0  0  0  0  0  0  0  0  0  0  0
  1  2  1  0
  2  3  1  0
  3  4  2  0
  4  5  1  0
  5  6  2  0
  6  7  1  0
  7  8  1  0
  7  9  1  0
  9 10  1  0
 10 11  2  0
 10 12  1  0
 12 13  1  0
 13 14  1  0
 14 15  1  0
 14 16  1  0
 16 17  1  0
 17 18  1  0
 18 19  2  0
 18 20  1  0
 20 21  1  0
 21 22  1  0
 22 23  2  0
 22 24  1  0
 24 25  2  0
 25 26  1  0
 26 27  2  0
 27 28  1  0
 28 29  2  0
 29 30  1  0
 29 31  1  0
 31 32  2  0
 32 33  1  0
 33 34  2  0
  6 35  1  0
 35 36  1  0
 35 37  2  0
 37  3  1  0
 17 12  1  0
 34 24  1  0
 33 27  1  0
  1 38  1  0
  1 39  1  0
  1 40  1  0
  4 41  1  0
  5 42  1  0
  7 43  1  1
  8 44  1  0
  8 45  1  0
  8 46  1  0
  9 47  1  0
 12 48  1  6
 13 49  1  0
 13 50  1  0
 14 51  1  1
 15 52  1  0
 16 53  1  0
 16 54  1  0
 20 55  1  0
 20 56  1  0
 21 57  1  0
 25 58  1  0
 26 59  1  0
 28 60  1  0
 31 61  1  0
 32 62  1  0
 37 63  1  0
M  END
>  <smiles>  (1) 
COc1ccc([C@H](C)NC(=O)[C@@H]2C[C@@H](O)CN2C(=O)CNC(=O)c2ccc3cc(F)ccc3n2)c(Cl)c1

>  <score_type>  (1) 
oracle

>  <origin>  (1) 
autodockgpu

>  <m_score__min__energy>  (1) 
-8.7400000000000002

>  <m_primary>  (1) 
energy

>  <rmsd>  (1) 
6.144232303354076

>  <m_score__min__rmsd>  (1) 
6.144232303354076

>  <meeko>  (1) 
{"free_energy": -5.8, "intermolecular_energy": -8.48, "internal_energy": -4.87, "cluster_size": 3, "cluster_id": 14, "rank_in_cluster": 3}

>  <energy>  (1) 
-8.74

>  <cluster_rmsd>  (1) 
0.0

>  <cluster>  (1) 
1

$$$$

     RDKit          3D

 63 66  0  0  0  0  0  0  0  0999 V2000
  137.9940   85.3320  221.5400 C   0  0  0  0  0  0  0  0  0  0  0  0
  138.7000   84.3600  220.8260 O   0  0  0  0  0  0  0  0  0  0  0  0
  139.3720   83.2820  221.3670 C   0  0  0  0  0  0  0  0  0  0  0  0
  140.7170   83.1130  221.0480 C   0  0  0  0  0  0  0  0  0  0  0  0
  141.4520   82.0480  221.5590 C   0  0  0  0  0  0  0  0  0  0  0  0
  140.8640   81.1070  222.4160 C   0  0  0  0  0  0  0  0  0  0  0  0
  141.7090   80.0360  222.9140 C   0  0  2  0  0  0  0  0  0  0  0  0
  143.0530   80.4680  223.4420 C   0  0  0  0  0  0  0  0  0  0  0  0
  141.9180   78.9380  221.9830 N   0  0  0  0  0  0  0  0  0  0  0  0
  141.0930   77.7710  221.9740 C   0  0  0  0  0  0  0  0  0  0  0  0
  140.1220   77.6300  222.7910 O   0  0  0  0  0  0  0  0  0  0  0  0
  141.4260   76.7320  220.9640 C   0  0  2  0  0  0  0  0  0  0  0  0
  141.1690   77.2670  219.5450 C   0  0  0  0  0  0  0  0  0  0  0  0
  139.6620   77.4120  219.6080 C   0  0  1  0  0  0  0  0  0  0  0  0
  139.0890   77.4550  218.3440 O   0  0  0  0  0  0  0  0  0  0  0  0
  139.1820   76.2290  220.4310 C   0  0  0  0  0  0  0  0  0  0  0  0
  140.4320   75.6710  220.9660 N   0  0  0  0  0  0  0  0  0  0  0  0
  140.6350   74.3110  221.4050 C   0  0  0  0  0  0  0  0  0  0  0  0
  141.8080   73.8930  221.5720 O   0  0  0  0  0  0  0  0  0  0  0  0
  139.4270   73.4700  221.6370 C   0  0  0  0  0  0  0  0  0  0  0  0
  139.7090   72.5010  222.6780 N   0  0  0  0  0  0  0  0  0  0  0  0
  138.7760   71.5280  223.1150 C   0  0  0  0  0  0  0  0  0  0  0  0
  137.6110   71.4520  222.6040 O   0  0  0  0  0  0  0  0  0  0  0  0
  139.1520   70.5860  224.1800 C   0  0  0  0  0  0  0  0  0  0  0  0
  138.8340   69.2490  224.1370 C   0  0  0  0  0  0  0  0  0  0  0  0
  139.1960   68.3650  225.1460 C   0  0  0  0  0  0  0  0  0  0  0  0
  139.8960   68.8850  226.2080 C   0  0  0  0  0  0  0  0  0  0  0  0
  140.2900   68.0650  227.2530 C   0  0  0  0  0  0  0  0  0  0  0  0
  140.9980   68.5510  228.3440 C   0  0  0  0  0  0  0  0  0  0  0  0
  141.3910   67.7680  229.3720 F   0  0  0  0  0  0  0  0  0  0  0  0
  141.3020   69.9030  228.3550 C   0  0  0  0  0  0  0  0  0  0  0  0
  140.9330   70.7590  227.3440 C   0  0  0  0  0  0  0  0  0  0  0  0
  140.2220   70.2280  226.2660 C   0  0  0  0  0  0  0  0  0  0  0  0
  139.8370   71.0210  225.2510 N   0  0  0  0  0  0  0  0  0  0  0  0
  139.5210   81.2810  222.7310 C   0  0  0  0  0  0  0  0  0  0  0  0
  138.7710   80.1180  223.7910 Cl  0  0  0  0  0  0  0  0  0  0  0  0
  138.8000   82.3550  222.2080 C   0  0  0  0  0  0  0  0  0  0  0  0
  138.1202   85.1583  222.6188 H   0  0  0  0  0  0  0  0  0  0  0  0
  138.3798   86.3292  221.2816 H   0  0  0  0  0  0  0  0  0  0  0  0
  136.9264   85.2736  221.2816 H   0  0  0  0  0  0  0  0  0  0  0  0
  141.2077   83.8354  220.3792 H   0  0  0  0  0  0  0  0  0  0  0  0
  142.5124   81.9425  221.2860 H   0  0  0  0  0  0  0  0  0  0  0  0
  141.1033   79.6764  223.7589 H   0  0  0  0  0  0  0  0  0  0  0  0
  143.0341   80.4619  224.5418 H   0  0  0  0  0  0  0  0  0  0  0  0
  143.8277   79.7736  223.0848 H   0  0  0  0  0  0  0  0  0  0  0  0
  143.2781   81.4837  223.0848 H   0  0  0  0  0  0  0  0  0  0  0  0
  142.7190   79.0160  221.2840 H   0  0  0  0  0  0  0  0  0  0  0  0
  142.4573   76.4279  221.1961 H   0  0  0  0  0  0  0  0  0  0  0  0
  141.6682   78.2319  219.3725 H   0  0  0  0  0  0  0  0  0  0  0  0
  141.5470   76.6346  218.7282 H   0  0  0  0  0  0  0  0  0  0  0  0
  139.3620   78.3638  220.0707 H   0  0  0  0  0  0  0  0  0  0  0  0
  138.2910   76.8800  218.3140 H   0  0  0  0  0  0  0  0  0  0  0  0
  138.5156   76.5562  221.2427 H   0  0  0  0  0  0  0  0  0  0  0  0
  138.5975   75.5028  219.8471 H   0  0  0  0  0  0  0  0  0  0  0  0
  138.5883   74.1100  221.9484 H   0  0  0  0  0  0  0  0  0  0  0  0
  139.1603   72.9449  220.7080 H   0  0  0  0  0  0  0  0  0  0  0  0
  140.6500   72.4850  223.1640 H   0  0  0  0  0  0  0  0  0  0  0  0
  138.2726   68.8653  223.2724 H   0  0  0  0  0  0  0  0  0  0  0  0
  138.9342   67.2977  225.0969 H   0  0  0  0  0  0  0  0  0  0  0  0
  140.0339   66.9958  227.2172 H   0  0  0  0  0  0  0  0  0  0  0  0
  141.8629   70.3091  229.2097 H   0  0  0  0  0  0  0  0  0  0  0  0
  141.1898   71.8279  227.3833 H   0  0  0  0  0  0  0  0  0  0  0  0
  137.7390   82.4644  222.4769 H   0  0  0  0  0  0  0  0  0  0  0  0
  1  2  1  0
  2  3  1  0
  3  4  2  0
  4  5  1  0
  5  6  2  0
  6  7  1  0
  7  8  1  0
  7  9  1  0
  9 10  1  0
 10 11  2  0
 10 12  1  0
 12 13  1  0
 13 14  1  0
 14 15  1  0
 14 16  1  0
 16 17  1  0
 17 18  1  0
 18 19  2  0
 18 20  1  0
 20 21  1  0
 21 22  1  0
 22 23  2  0
 22 24  1  0
 24 25  2  0
 25 26  1  0
 26 27  2  0
 27 28  1  0
 28 29  2  0
 29 30  1  0
 29 31  1  0
 31 32  2  0
 32 33  1  0
 33 34  2  0
  6 35  1  0
 35 36  1  0
 35 37  2  0
 37  3  1  0
 17 12  1  0
 34 24  1  0
 33 27  1  0
  1 38  1  0
  1 39  1  0
  1 40  1  0
  4 41  1  0
  5 42  1  0
  7 43  1  1
  8 44  1  0
  8 45  1  0
  8 46  1  0
  9 47  1  0
 12 48  1  6
 13 49  1  0
 13 50  1  0
 14 51  1  1
 15 52  1  0
 16 53  1  0
 16 54  1  0
 20 55  1  0
 20 56  1  0
 21 57  1  0
 25 58  1  0
 26 59  1  0
 28 60  1  0
 31 61  1  0
 32 62  1  0
 37 63  1  0
M  END
>  <smiles>  (2) 
COc1ccc([C@H](C)NC(=O)[C@@H]2C[C@@H](O)CN2C(=O)CNC(=O)c2ccc3cc(F)ccc3n2)c(Cl)c1

>  <score_type>  (2) 
oracle

>  <origin>  (2) 
autodockgpu

>  <m_score__min__energy>  (2) 
-8.7400000000000002

>  <m_primary>  (2) 
energy

>  <rmsd>  (2) 
1.7047868064265426

>  <m_score__min__rmsd>  (2) 
1.7047868064265426

>  <meeko>  (2) 
{"free_energy": -8.26, "intermolecular_energy": -10.94, "internal_energy": -2.21, "cluster_size": 8, "cluster_id": 3, "rank_in_cluster": 4}

>  <energy>  (2) 
-8.51

>  <cluster_rmsd>  (2) 
0.91

>  <cluster>  (2) 
1

$$$$

     RDKit          3D

 63 66  0  0  0  0  0  0  0  0999 V2000
  132.3030   74.4020  227.1490 C   0  0  0  0  0  0  0  0  0  0  0  0
  133.5990   74.0180  226.7950 O   0  0  0  0  0  0  0  0  0  0  0  0
  134.3090   74.4680  225.6990 C   0  0  0  0  0  0  0  0  0  0  0  0
  135.0320   73.5390  224.9540 C   0  0  0  0  0  0  0  0  0  0  0  0
  135.7680   73.9260  223.8380 C   0  0  0  0  0  0  0  0  0  0  0  0
  135.8080   75.2650  223.4250 C   0  0  0  0  0  0  0  0  0  0  0  0
  136.5910   75.5770  222.2420 C   0  0  2  0  0  0  0  0  0  0  0  0
  136.2300   74.7930  221.0060 C   0  0  0  0  0  0  0  0  0  0  0  0
  138.0320   75.5010  222.4240 N   0  0  0  0  0  0  0  0  0  0  0  0
  138.8900   76.6280  222.2320 C   0  0  0  0  0  0  0  0  0  0  0  0
  138.4330   77.7690  221.8870 O   0  0  0  0  0  0  0  0  0  0  0  0
  140.3420   76.4000  222.4550 C   0  0  2  0  0  0  0  0  0  0  0  0
  141.0710   77.7440  222.6260 C   0  0  0  0  0  0  0  0  0  0  0  0
  140.8800   78.3040  221.2310 C   0  0  1  0  0  0  0  0  0  0  0  0
  141.7980   79.3040  220.9410 O   0  0  0  0  0  0  0  0  0  0  0  0
  141.0000   77.1090  220.3010 C   0  0  0  0  0  0  0  0  0  0  0  0
  140.9940   75.9690  221.2300 N   0  0  0  0  0  0  0  0  0  0  0  0
  141.5430   74.6600  220.9690 C   0  0  0  0  0  0  0  0  0  0  0  0
  142.7920   74.5100  220.9790 O   0  0  0  0  0  0  0  0  0  0  0  0
  140.5890   73.5480  220.6980 C   0  0  0  0  0  0  0  0  0  0  0  0
  140.5820   72.6360  221.8260 N   0  0  0  0  0  0  0  0  0  0  0  0
  139.3970   72.1770  222.4540 C   0  0  0  0  0  0  0  0  0  0  0  0
  138.2480   72.5520  222.0500 O   0  0  0  0  0  0  0  0  0  0  0  0
  139.4880   71.2530  223.5940 C   0  0  0  0  0  0  0  0  0  0  0  0
  138.9220   70.0000  223.5830 C   0  0  0  0  0  0  0  0  0  0  0  0
  139.0160   69.1320  224.6640 C   0  0  0  0  0  0  0  0  0  0  0  0
  139.7080   69.5790  225.7630 C   0  0  0  0  0  0  0  0  0  0  0  0
  139.8430   68.7690  226.8800 C   0  0  0  0  0  0  0  0  0  0  0  0
  140.5340   69.1830  228.0110 C   0  0  0  0  0  0  0  0  0  0  0  0
  140.6760   68.4090  229.1090 F   0  0  0  0  0  0  0  0  0  0  0  0
  141.0920   70.4520  227.9880 C   0  0  0  0  0  0  0  0  0  0  0  0
  140.9860   71.2940  226.9050 C   0  0  0  0  0  0  0  0  0  0  0  0
  140.2830   70.8370  225.7890 C   0  0  0  0  0  0  0  0  0  0  0  0
  140.1490   71.6200  224.7050 N   0  0  0  0  0  0  0  0  0  0  0  0
  135.0850   76.1880  224.1730 C   0  0  0  0  0  0  0  0  0  0  0  0
  135.1260   77.8570  223.6770 Cl  0  0  0  0  0  0  0  0  0  0  0  0
  134.3530   75.7800  225.2890 C   0  0  0  0  0  0  0  0  0  0  0  0
  132.2148   74.4281  228.2452 H   0  0  0  0  0  0  0  0  0  0  0  0
  132.0921   75.4012  226.7403 H   0  0  0  0  0  0  0  0  0  0  0  0
  131.5818   73.6790  226.7403 H   0  0  0  0  0  0  0  0  0  0  0  0
  135.0209   72.4805  225.2532 H   0  0  0  0  0  0  0  0  0  0  0  0
  136.3279   73.1682  223.2703 H   0  0  0  0  0  0  0  0  0  0  0  0
  136.3077   76.6278  222.0822 H   0  0  0  0  0  0  0  0  0  0  0  0
  135.7866   73.8300  221.2992 H   0  0  0  0  0  0  0  0  0  0  0  0
  135.5042   75.3641  220.4085 H   0  0  0  0  0  0  0  0  0  0  0  0
  137.1358   74.6128  220.4085 H   0  0  0  0  0  0  0  0  0  0  0  0
  138.4550   74.5660  222.7110 H   0  0  0  0  0  0  0  0  0  0  0  0
  140.3940   75.6992  223.3013 H   0  0  0  0  0  0  0  0  0  0  0  0
  140.5959   78.3753  223.3913 H   0  0  0  0  0  0  0  0  0  0  0  0
  142.1148   77.6733  222.9659 H   0  0  0  0  0  0  0  0  0  0  0  0
  139.9025   78.7958  221.1188 H   0  0  0  0  0  0  0  0  0  0  0  0
  142.7090   79.0040  221.1650 H   0  0  0  0  0  0  0  0  0  0  0  0
  140.1472   77.0595  219.6080 H   0  0  0  0  0  0  0  0  0  0  0  0
  141.8942   77.1439  219.6614 H   0  0  0  0  0  0  0  0  0  0  0  0
  139.5790   73.9581  220.5509 H   0  0  0  0  0  0  0  0  0  0  0  0
  140.8997   73.0092  219.7907 H   0  0  0  0  0  0  0  0  0  0  0  0
  141.4880   72.2700  222.2340 H   0  0  0  0  0  0  0  0  0  0  0  0
  138.3752   69.6730  222.6863 H   0  0  0  0  0  0  0  0  0  0  0  0
  138.5572   68.1325  224.6407 H   0  0  0  0  0  0  0  0  0  0  0  0
  139.3886   67.7673  226.8700 H   0  0  0  0  0  0  0  0  0  0  0  0
  141.6432   70.8007  228.8738 H   0  0  0  0  0  0  0  0  0  0  0  0
  141.4408   72.2955  226.9182 H   0  0  0  0  0  0  0  0  0  0  0  0
  133.7918   76.5339  225.8605 H   0  0  0  0  0  0  0  0  0  0  0  0
  1  2  1  0
  2  3  1  0
  3  4  2  0
  4  5  1  0
  5  6  2  0
  6  7  1  0
  7  8  1  0
  7  9  1  0
  9 10  1  0
 10 11  2  0
 10 12  1  0
 12 13  1  0
 13 14  1  0
 14 15  1  0
 14 16  1  0
 16 17  1  0
 17 18  1  0
 18 19  2  0
 18 20  1  0
 20 21  1  0
 21 22  1  0
 22 23  2  0
 22 24  1  0
 24 25  2  0
 25 26  1  0
 26 27  2  0
 27 28  1  0
 28 29  2  0
 29 30  1  0
 29 31  1  0
 31 32  2  0
 32 33  1  0
 33 34  2  0
  6 35  1  0
 35 36  1  0
 35 37  2  0
 37  3  1  0
 17 12  1  0
 34 24  1  0
 33 27  1  0
  1 38  1  0
  1 39  1  0
  1 40  1  0
  4 41  1  0
  5 42  1  0
  7 43  1  6
  8 44  1  0
  8 45  1  0
  8 46  1  0
  9 47  1  0
 12 48  1  1
 13 49  1  0
 13 50  1  0
 14 51  1  1
 15 52  1  0
 16 53  1  0
 16 54  1  0
 20 55  1  0
 20 56  1  0
 21 57  1  0
 25 58  1  0
 26 59  1  0
 28 60  1  0
 31 61  1  0
 32 62  1  0
 37 63  1  0
M  END
>  <smiles>  (3) 
COc1ccc([C@H](C)NC(=O)[C@@H]2C[C@@H](O)CN2C(=O)CNC(=O)c2ccc3cc(F)ccc3n2)c(Cl)c1

>  <score_type>  (3) 
oracle

>  <origin>  (3) 
autodockgpu

>  <m_score__min__energy>  (3) 
-8.7400000000000002

>  <m_primary>  (3) 
energy

>  <rmsd>  (3) 
6.535164324850421

>  <m_score__min__rmsd>  (3) 
6.535164324850421

>  <meeko>  (3) 
{"free_energy": -8.67, "intermolecular_energy": -11.36, "internal_energy": -2.88, "cluster_size": 5, "cluster_id": 2, "rank_in_cluster": 1}

>  <energy>  (3) 
-8.51

>  <cluster_rmsd>  (3) 
1.89

>  <cluster>  (3) 
1

$$$$

     RDKit          3D

 63 66  0  0  0  0  0  0  0  0999 V2000
  140.7250   82.8130  220.0420 C   0  0  0  0  0  0  0  0  0  0  0  0
  140.1030   81.5910  219.7740 O   0  0  0  0  0  0  0  0  0  0  0  0
  140.7170   80.4590  219.2740 C   0  0  0  0  0  0  0  0  0  0  0  0
  142.0750   80.5240  218.9700 C   0  0  0  0  0  0  0  0  0  0  0  0
  142.7540   79.4200  218.4630 C   0  0  0  0  0  0  0  0  0  0  0  0
  142.0960   78.2030  218.2420 C   0  0  0  0  0  0  0  0  0  0  0  0
  142.8860   77.1000  217.7240 C   0  0  2  0  0  0  0  0  0  0  0  0
  142.7410   76.8420  216.2460 C   0  0  0  0  0  0  0  0  0  0  0  0
  142.7080   75.8380  218.4260 N   0  0  0  0  0  0  0  0  0  0  0  0
  143.4550   75.4970  219.5950 C   0  0  0  0  0  0  0  0  0  0  0  0
  144.3260   76.2900  220.0900 O   0  0  0  0  0  0  0  0  0  0  0  0
  143.1640   74.1730  220.2050 C   0  0  2  0  0  0  0  0  0  0  0  0
  144.4370   73.5920  220.8440 C   0  0  0  0  0  0  0  0  0  0  0  0
  145.2620   73.3750  219.5930 C   0  0  1  0  0  0  0  0  0  0  0  0
  146.2850   72.4580  219.7950 O   0  0  0  0  0  0  0  0  0  0  0  0
  144.2710   72.9240  218.5340 C   0  0  0  0  0  0  0  0  0  0  0  0
  142.9710   73.1610  219.1790 N   0  0  0  0  0  0  0  0  0  0  0  0
  141.7300   72.5000  218.8540 C   0  0  0  0  0  0  0  0  0  0  0  0
  141.6340   71.8890  217.7590 O   0  0  0  0  0  0  0  0  0  0  0  0
  140.6210   72.5810  219.8450 C   0  0  0  0  0  0  0  0  0  0  0  0
  140.4530   73.9580  220.2680 N   0  0  0  0  0  0  0  0  0  0  0  0
  140.2060   74.3400  221.6110 C   0  0  0  0  0  0  0  0  0  0  0  0
  140.1160   73.4710  222.5390 O   0  0  0  0  0  0  0  0  0  0  0  0
  140.0480   75.7630  221.9460 C   0  0  0  0  0  0  0  0  0  0  0  0
  138.8430   76.3110  222.3160 C   0  0  0  0  0  0  0  0  0  0  0  0
  138.7030   77.6560  222.6330 C   0  0  0  0  0  0  0  0  0  0  0  0
  139.8340   78.4330  222.5630 C   0  0  0  0  0  0  0  0  0  0  0  0
  139.7730   79.7840  222.8640 C   0  0  0  0  0  0  0  0  0  0  0  0
  140.8910   80.6040  222.8040 C   0  0  0  0  0  0  0  0  0  0  0  0
  140.8520   81.9230  223.0930 F   0  0  0  0  0  0  0  0  0  0  0  0
  142.0900   80.0190  222.4270 C   0  0  0  0  0  0  0  0  0  0  0  0
  142.2040   78.6840  222.1180 C   0  0  0  0  0  0  0  0  0  0  0  0
  141.0540   77.8970  222.1910 C   0  0  0  0  0  0  0  0  0  0  0  0
  141.1090   76.5850  221.8990 N   0  0  0  0  0  0  0  0  0  0  0  0
  140.7400   78.1440  218.5470 C   0  0  0  0  0  0  0  0  0  0  0  0
  139.9030   76.6400  218.2750 Cl  0  0  0  0  0  0  0  0  0  0  0  0
  140.0760   79.2620  219.0540 C   0  0  0  0  0  0  0  0  0  0  0  0
  140.7980   82.9564  221.1302 H   0  0  0  0  0  0  0  0  0  0  0  0
  141.7338   82.8149  219.6034 H   0  0  0  0  0  0  0  0  0  0  0  0
  140.1329   83.6298  219.6034 H   0  0  0  0  0  0  0  0  0  0  0  0
  142.6205   81.4651  219.1337 H   0  0  0  0  0  0  0  0  0  0  0  0
  143.8261   79.5044  218.2317 H   0  0  0  0  0  0  0  0  0  0  0  0
  143.9037   77.4723  217.9127 H   0  0  0  0  0  0  0  0  0  0  0  0
  142.2075   75.8928  216.0901 H   0  0  0  0  0  0  0  0  0  0  0  0
  142.1719   77.6625  215.7847 H   0  0  0  0  0  0  0  0  0  0  0  0
  143.7378   76.7824  215.7847 H   0  0  0  0  0  0  0  0  0  0  0  0
  141.9910   75.1470  218.0450 H   0  0  0  0  0  0  0  0  0  0  0  0
  142.3105   74.3484  220.8764 H   0  0  0  0  0  0  0  0  0  0  0  0
  144.9138   74.3053  221.5324 H   0  0  0  0  0  0  0  0  0  0  0  0
  144.2844   72.6985  221.4672 H   0  0  0  0  0  0  0  0  0  0  0  0
  145.7818   74.2936  219.2833 H   0  0  0  0  0  0  0  0  0  0  0  0
  146.0750   71.8790  220.5630 H   0  0  0  0  0  0  0  0  0  0  0  0
  144.3725   73.5222  217.6165 H   0  0  0  0  0  0  0  0  0  0  0  0
  144.4162   71.8800  218.2195 H   0  0  0  0  0  0  0  0  0  0  0  0
  139.6892   72.2226  219.3832 H   0  0  0  0  0  0  0  0  0  0  0  0
  140.8611   71.9552  220.7172 H   0  0  0  0  0  0  0  0  0  0  0  0
  140.5100   74.7510  219.5700 H   0  0  0  0  0  0  0  0  0  0  0  0
  137.9571   75.6606  222.3628 H   0  0  0  0  0  0  0  0  0  0  0  0
  137.7313   78.0797  222.9266 H   0  0  0  0  0  0  0  0  0  0  0  0
  138.8077   80.2206  223.1599 H   0  0  0  0  0  0  0  0  0  0  0  0
  142.9892   80.6502  222.3727 H   0  0  0  0  0  0  0  0  0  0  0  0
  143.1708   78.2503  221.8227 H   0  0  0  0  0  0  0  0  0  0  0  0
  139.0035   79.1832  219.2856 H   0  0  0  0  0  0  0  0  0  0  0  0
  1  2  1  0
  2  3  1  0
  3  4  2  0
  4  5  1  0
  5  6  2  0
  6  7  1  0
  7  8  1  0
  7  9  1  0
  9 10  1  0
 10 11  2  0
 10 12  1  0
 12 13  1  0
 13 14  1  0
 14 15  1  0
 14 16  1  0
 16 17  1  0
 17 18  1  0
 18 19  2  0
 18 20  1  0
 20 21  1  0
 21 22  1  0
 22 23  2  0
 22 24  1  0
 24 25  2  0
 25 26  1  0
 26 27  2  0
 27 28  1  0
 28 29  2  0
 29 30  1  0
 29 31  1  0
 31 32  2  0
 32 33  1  0
 33 34  2  0
  6 35  1  0
 35 36  1  0
 35 37  2  0
 37  3  1  0
 17 12  1  0
 34 24  1  0
 33 27  1  0
  1 38  1  0
  1 39  1  0
  1 40  1  0
  4 41  1  0
  5 42  1  0
  7 43  1  6
  8 44  1  0
  8 45  1  0
  8 46  1  0
  9 47  1  0
 12 48  1  1
 13 49  1  0
 13 50  1  0
 14 51  1  6
 15 52  1  0
 16 53  1  0
 16 54  1  0
 20 55  1  0
 20 56  1  0
 21 57  1  0
 25 58  1  0
 26 59  1  0
 28 60  1  0
 31 61  1  0
 32 62  1  0
 37 63  1  0
M  END
>  <smiles>  (4) 
COc1ccc([C@H](C)NC(=O)[C@@H]2C[C@@H](O)CN2C(=O)CNC(=O)c2ccc3cc(F)ccc3n2)c(Cl)c1

>  <score_type>  (4) 
oracle

>  <origin>  (4) 
autodockgpu

>  <m_score__min__energy>  (4) 
-8.7400000000000002

>  <m_primary>  (4) 
energy

>  <rmsd>  (4) 
6.634034957800131

>  <m_score__min__rmsd>  (4) 
6.634034957800131

>  <meeko>  (4) 
{"free_energy": -6.46, "intermolecular_energy": -9.14, "internal_energy": -4.13, "cluster_size": 19, "cluster_id": 9, "rank_in_cluster": 12}

>  <energy>  (4) 
-8.5

>  <cluster_rmsd>  (4) 
1.89

>  <cluster>  (4) 
1

$$$$

     RDKit          3D

 63 66  0  0  0  0  0  0  0  0999 V2000
  137.2680   80.9740  220.2440 C   0  0  0  0  0  0  0  0  0  0  0  0
  137.6340   79.9480  219.3690 O   0  0  0  0  0  0  0  0  0  0  0  0
  138.9190   79.5070  219.1250 C   0  0  0  0  0  0  0  0  0  0  0  0
  139.1700   78.1380  219.1790 C   0  0  0  0  0  0  0  0  0  0  0  0
  140.4430   77.6280  218.9430 C   0  0  0  0  0  0  0  0  0  0  0  0
  141.5190   78.4750  218.6420 C   0  0  0  0  0  0  0  0  0  0  0  0
  142.8090   77.8560  218.3960 C   0  0  2  0  0  0  0  0  0  0  0  0
  143.0510   77.4110  216.9770 C   0  0  0  0  0  0  0  0  0  0  0  0
  143.1350   76.7480  219.2810 N   0  0  0  0  0  0  0  0  0  0  0  0
  142.6020   75.4360  219.0970 C   0  0  0  0  0  0  0  0  0  0  0  0
  141.8030   75.1640  218.1380 O   0  0  0  0  0  0  0  0  0  0  0  0
  143.0250   74.4040  220.0810 C   0  0  2  0  0  0  0  0  0  0  0  0
  144.5600   74.3100  220.1250 C   0  0  0  0  0  0  0  0  0  0  0  0
  144.8120   73.7770  218.7300 C   0  0  1  0  0  0  0  0  0  0  0  0
  146.0580   73.1740  218.6200 O   0  0  0  0  0  0  0  0  0  0  0  0
  143.6690   72.8160  218.4570 C   0  0  0  0  0  0  0  0  0  0  0  0
  142.7530   73.0680  219.5790 N   0  0  0  0  0  0  0  0  0  0  0  0
  141.7670   72.1460  220.0920 C   0  0  0  0  0  0  0  0  0  0  0  0
  142.1490   71.0440  220.5610 O   0  0  0  0  0  0  0  0  0  0  0  0
  140.3370   72.5580  220.0340 C   0  0  0  0  0  0  0  0  0  0  0  0
  140.2240   73.9580  220.3980 N   0  0  0  0  0  0  0  0  0  0  0  0
  140.0310   74.4080  221.7290 C   0  0  0  0  0  0  0  0  0  0  0  0
  139.9430   73.5850  222.6980 O   0  0  0  0  0  0  0  0  0  0  0  0
  139.9270   75.8490  222.0010 C   0  0  0  0  0  0  0  0  0  0  0  0
  138.7430   76.4570  222.3450 C   0  0  0  0  0  0  0  0  0  0  0  0
  138.6540   77.8190  222.6030 C   0  0  0  0  0  0  0  0  0  0  0  0
  139.8130   78.5490  222.5030 C   0  0  0  0  0  0  0  0  0  0  0  0
  139.8030   79.9140  222.7450 C   0  0  0  0  0  0  0  0  0  0  0  0
  140.9520   80.6880  222.6540 C   0  0  0  0  0  0  0  0  0  0  0  0
  140.9620   82.0180  222.8860 F   0  0  0  0  0  0  0  0  0  0  0  0
  142.1280   80.0420  222.3050 C   0  0  0  0  0  0  0  0  0  0  0  0
  142.1920   78.6910  222.0540 C   0  0  0  0  0  0  0  0  0  0  0  0
  141.0120   77.9520  222.1580 C   0  0  0  0  0  0  0  0  0  0  0  0
  141.0190   76.6280  221.9220 N   0  0  0  0  0  0  0  0  0  0  0  0
  141.2620   79.8410  218.5900 C   0  0  0  0  0  0  0  0  0  0  0  0
  142.5880   80.9100  218.2210 Cl  0  0  0  0  0  0  0  0  0  0  0  0
  139.9790   80.3340  218.8300 C   0  0  0  0  0  0  0  0  0  0  0  0
  137.3902   80.6315  221.2822 H   0  0  0  0  0  0  0  0  0  0  0  0
  137.9088   81.8509  220.0694 H   0  0  0  0  0  0  0  0  0  0  0  0
  136.2169   81.2473  220.0694 H   0  0  0  0  0  0  0  0  0  0  0  0
  138.3465   77.4471  219.4126 H   0  0  0  0  0  0  0  0  0  0  0  0
  140.6080   76.5416  218.9934 H   0  0  0  0  0  0  0  0  0  0  0  0
  143.4820   78.6981  218.6152 H   0  0  0  0  0  0  0  0  0  0  0  0
  143.5765   76.4446  216.9803 H   0  0  0  0  0  0  0  0  0  0  0  0
  142.0876   77.3027  216.4573 H   0  0  0  0  0  0  0  0  0  0  0  0
  143.6656   78.1608  216.4573 H   0  0  0  0  0  0  0  0  0  0  0  0
  143.7970   76.9320  220.0960 H   0  0  0  0  0  0  0  0  0  0  0  0
  142.5206   74.6789  221.0191 H   0  0  0  0  0  0  0  0  0  0  0  0
  145.0280   75.2933  220.2804 H   0  0  0  0  0  0  0  0  0  0  0  0
  144.9706   73.6999  220.9430 H   0  0  0  0  0  0  0  0  0  0  0  0
  144.8368   74.5841  217.9830 H   0  0  0  0  0  0  0  0  0  0  0  0
  146.7690   73.8530  218.6730 H   0  0  0  0  0  0  0  0  0  0  0  0
  143.1861   73.0388  217.4941 H   0  0  0  0  0  0  0  0  0  0  0  0
  143.9912   71.7666  218.3865 H   0  0  0  0  0  0  0  0  0  0  0  0
  139.9541   72.4121  219.0132 H   0  0  0  0  0  0  0  0  0  0  0  0
  139.7498   71.9473  220.7355 H   0  0  0  0  0  0  0  0  0  0  0  0
  140.2830   74.7170  219.6620 H   0  0  0  0  0  0  0  0  0  0  0  0
  137.8334   75.8429  222.4186 H   0  0  0  0  0  0  0  0  0  0  0  0
  137.6986   78.2914  222.8750 H   0  0  0  0  0  0  0  0  0  0  0  0
  138.8543   80.3994  223.0178 H   0  0  0  0  0  0  0  0  0  0  0  0
  143.0505   80.6359  222.2253 H   0  0  0  0  0  0  0  0  0  0  0  0
  143.1419   78.2086  221.7803 H   0  0  0  0  0  0  0  0  0  0  0  0
  139.8090   81.4197  218.7819 H   0  0  0  0  0  0  0  0  0  0  0  0
  1  2  1  0
  2  3  1  0
  3  4  2  0
  4  5  1  0
  5  6  2  0
  6  7  1  0
  7  8  1  0
  7  9  1  0
  9 10  1  0
 10 11  2  0
 10 12  1  0
 12 13  1  0
 13 14  1  0
 14 15  1  0
 14 16  1  0
 16 17  1  0
 17 18  1  0
 18 19  2  0
 18 20  1  0
 20 21  1  0
 21 22  1  0
 22 23  2  0
 22 24  1  0
 24 25  2  0
 25 26  1  0
 26 27  2  0
 27 28  1  0
 28 29  2  0
 29 30  1  0
 29 31  1  0
 31 32  2  0
 32 33  1  0
 33 34  2  0
  6 35  1  0
 35 36  1  0
 35 37  2  0
 37  3  1  0
 17 12  1  0
 34 24  1  0
 33 27  1  0
  1 38  1  0
  1 39  1  0
  1 40  1  0
  4 41  1  0
  5 42  1  0
  7 43  1  1
  8 44  1  0
  8 45  1  0
  8 46  1  0
  9 47  1  0
 12 48  1  1
 13 49  1  0
 13 50  1  0
 14 51  1  6
 15 52  1  0
 16 53  1  0
 16 54  1  0
 20 55  1  0
 20 56  1  0
 21 57  1  0
 25 58  1  0
 26 59  1  0
 28 60  1  0
 31 61  1  0
 32 62  1  0
 37 63  1  0
M  END
>  <smiles>  (5) 
COc1ccc([C@H](C)NC(=O)[C@@H]2C[C@@H](O)CN2C(=O)CNC(=O)c2ccc3cc(F)ccc3n2)c(Cl)c1

>  <score_type>  (5) 
oracle

>  <origin>  (5) 
autodockgpu

>  <m_score__min__energy>  (5) 
-8.7400000000000002

>  <m_primary>  (5) 
energy

>  <rmsd>  (5) 
6.548338544706088

>  <m_score__min__rmsd>  (5) 
6.548338544706088

>  <meeko>  (5) 
{"free_energy": -6.62, "intermolecular_energy": -9.3, "internal_energy": -4.7, "cluster_size": 19, "cluster_id": 9, "rank_in_cluster": 7}

>  <energy>  (5) 
-8.67

>  <cluster_rmsd>  (5) 
0.0

>  <cluster>  (5) 
2

$$$$

     RDKit          3D

 63 66  0  0  0  0  0  0  0  0999 V2000
  141.0450   83.9260  218.4470 C   0  0  0  0  0  0  0  0  0  0  0  0
  140.6680   83.7870  219.7860 O   0  0  0  0  0  0  0  0  0  0  0  0
  140.7170   82.6230  220.5270 C   0  0  0  0  0  0  0  0  0  0  0  0
  141.6660   81.6620  220.1870 C   0  0  0  0  0  0  0  0  0  0  0  0
  141.7690   80.4680  220.8930 C   0  0  0  0  0  0  0  0  0  0  0  0
  140.9200   80.1890  221.9730 C   0  0  0  0  0  0  0  0  0  0  0  0
  141.1070   78.9240  222.6610 C   0  0  2  0  0  0  0  0  0  0  0  0
  141.7650   79.0180  224.0130 C   0  0  0  0  0  0  0  0  0  0  0  0
  141.7970   77.9030  221.8890 N   0  0  0  0  0  0  0  0  0  0  0  0
  141.1040   76.8490  221.2160 C   0  0  0  0  0  0  0  0  0  0  0  0
  139.8320   76.7470  221.2590 O   0  0  0  0  0  0  0  0  0  0  0  0
  141.9430   75.8780  220.4650 C   0  0  2  0  0  0  0  0  0  0  0  0
  143.0180   76.6220  219.6540 C   0  0  0  0  0  0  0  0  0  0  0  0
  142.1240   77.3480  218.6700 C   0  0  1  0  0  0  0  0  0  0  0  0
  142.8160   77.7520  217.5360 O   0  0  0  0  0  0  0  0  0  0  0  0
  141.0020   76.3740  218.3570 C   0  0  0  0  0  0  0  0  0  0  0  0
  141.2040   75.3090  219.3500 N   0  0  0  0  0  0  0  0  0  0  0  0
  140.7540   73.9430  219.2320 C   0  0  0  0  0  0  0  0  0  0  0  0
  141.5440   73.0780  218.7760 O   0  0  0  0  0  0  0  0  0  0  0  0
  139.3610   73.6320  219.6610 C   0  0  0  0  0  0  0  0  0  0  0  0
  139.3960   72.6550  220.7330 N   0  0  0  0  0  0  0  0  0  0  0  0
  139.8800   72.9380  222.0350 C   0  0  0  0  0  0  0  0  0  0  0  0
  140.3210   74.0940  222.3390 O   0  0  0  0  0  0  0  0  0  0  0  0
  139.8780   71.8810  223.0580 C   0  0  0  0  0  0  0  0  0  0  0  0
  139.3370   70.6360  222.8400 C   0  0  0  0  0  0  0  0  0  0  0  0
  139.3410   69.6430  223.8110 C   0  0  0  0  0  0  0  0  0  0  0  0
  139.9170   69.9540  225.0180 C   0  0  0  0  0  0  0  0  0  0  0  0
  139.9590   69.0150  226.0360 C   0  0  0  0  0  0  0  0  0  0  0  0
  140.5310   69.2900  227.2700 C   0  0  0  0  0  0  0  0  0  0  0  0
  140.5800   68.3880  228.2750 F   0  0  0  0  0  0  0  0  0  0  0  0
  141.0670   70.5550  227.4560 C   0  0  0  0  0  0  0  0  0  0  0  0
  141.0510   71.5230  226.4790 C   0  0  0  0  0  0  0  0  0  0  0  0
  140.4660   71.2030  225.2530 C   0  0  0  0  0  0  0  0  0  0  0  0
  140.4230   72.1120  224.2630 N   0  0  0  0  0  0  0  0  0  0  0  0
  139.9740   81.1520  222.3080 C   0  0  0  0  0  0  0  0  0  0  0  0
  138.9070   80.8210  223.6450 Cl  0  0  0  0  0  0  0  0  0  0  0  0
  139.8860   82.3440  221.5880 C   0  0  0  0  0  0  0  0  0  0  0  0
  142.0759   84.3061  218.3939 H   0  0  0  0  0  0  0  0  0  0  0  0
  140.9886   82.9480  217.9468 H   0  0  0  0  0  0  0  0  0  0  0  0
  140.3672   84.6333  217.9468 H   0  0  0  0  0  0  0  0  0  0  0  0
  142.3470   81.8509  219.3441 H   0  0  0  0  0  0  0  0  0  0  0  0
  142.5298   79.7300  220.5988 H   0  0  0  0  0  0  0  0  0  0  0  0
  140.0612   78.6147  222.8044 H   0  0  0  0  0  0  0  0  0  0  0  0
  141.0038   78.9093  224.7996 H   0  0  0  0  0  0  0  0  0  0  0  0
  142.5128   78.2176  224.1133 H   0  0  0  0  0  0  0  0  0  0  0  0
  142.2588   79.9958  224.1133 H   0  0  0  0  0  0  0  0  0  0  0  0
  142.8600   77.9500  221.8280 H   0  0  0  0  0  0  0  0  0  0  0  0
  142.3013   75.1639  221.2211 H   0  0  0  0  0  0  0  0  0  0  0  0
  143.5943   77.3204  220.2786 H   0  0  0  0  0  0  0  0  0  0  0  0
  143.7923   75.9838  219.2032 H   0  0  0  0  0  0  0  0  0  0  0  0
  141.7294   78.2844  219.0912 H   0  0  0  0  0  0  0  0  0  0  0  0
  143.2180   78.6390  217.6820 H   0  0  0  0  0  0  0  0  0  0  0  0
  140.0183   76.8502  218.4821 H   0  0  0  0  0  0  0  0  0  0  0  0
  141.0207   76.0093  217.3194 H   0  0  0  0  0  0  0  0  0  0  0  0
  138.8724   74.5509  220.0172 H   0  0  0  0  0  0  0  0  0  0  0  0
  138.7956   73.2248  218.8098 H   0  0  0  0  0  0  0  0  0  0  0  0
  139.0520   71.6650  220.5770 H   0  0  0  0  0  0  0  0  0  0  0  0
  138.8847   70.4185  221.8612 H   0  0  0  0  0  0  0  0  0  0  0  0
  138.9025   68.6521  223.6217 H   0  0  0  0  0  0  0  0  0  0  0  0
  139.5250   68.0196  225.8603 H   0  0  0  0  0  0  0  0  0  0  0  0
  141.5249   70.7949  228.4270 H   0  0  0  0  0  0  0  0  0  0  0  0
  141.4854   72.5176  226.6582 H   0  0  0  0  0  0  0  0  0  0  0  0
  139.1271   83.0855  221.8781 H   0  0  0  0  0  0  0  0  0  0  0  0
  1  2  1  0
  2  3  1  0
  3  4  2  0
  4  5  1  0
  5  6  2  0
  6  7  1  0
  7  8  1  0
  7  9  1  0
  9 10  1  0
 10 11  2  0
 10 12  1  0
 12 13  1  0
 13 14  1  0
 14 15  1  0
 14 16  1  0
 16 17  1  0
 17 18  1  0
 18 19  2  0
 18 20  1  0
 20 21  1  0
 21 22  1  0
 22 23  2  0
 22 24  1  0
 24 25  2  0
 25 26  1  0
 26 27  2  0
 27 28  1  0
 28 29  2  0
 29 30  1  0
 29 31  1  0
 31 32  2  0
 32 33  1  0
 33 34  2  0
  6 35  1  0
 35 36  1  0
 35 37  2  0
 37  3  1  0
 17 12  1  0
 34 24  1  0
 33 27  1  0
  1 38  1  0
  1 39  1  0
  1 40  1  0
  4 41  1  0
  5 42  1  0
  7 43  1  1
  8 44  1  0
  8 45  1  0
  8 46  1  0
  9 47  1  0
 12 48  1  1
 13 49  1  0
 13 50  1  0
 14 51  1  1
 15 52  1  0
 16 53  1  0
 16 54  1  0
 20 55  1  0
 20 56  1  0
 21 57  1  0
 25 58  1  0
 26 59  1  0
 28 60  1  0
 31 61  1  0
 32 62  1  0
 37 63  1  0
M  END
>  <smiles>  (6) 
COc1ccc([C@H](C)NC(=O)[C@@H]2C[C@@H](O)CN2C(=O)CNC(=O)c2ccc3cc(F)ccc3n2)c(Cl)c1

>  <score_type>  (6) 
oracle

>  <origin>  (6) 
autodockgpu

>  <m_score__min__energy>  (6) 
-8.7400000000000002

>  <m_primary>  (6) 
energy

>  <rmsd>  (6) 
1.9752825790815258

>  <m_score__min__rmsd>  (6) 
1.9752825790815258

>  <meeko>  (6) 
{"free_energy": -8.12, "intermolecular_energy": -10.8, "internal_energy": -2.06, "cluster_size": 8, "cluster_id": 3, "rank_in_cluster": 7}

>  <energy>  (6) 
-8.4

>  <cluster_rmsd>  (6) 
0.33

>  <cluster>  (6) 
2

$$$$

     RDKit          3D

 63 66  0  0  0  0  0  0  0  0999 V2000
  141.0960   82.8260  220.1000 C   0  0  0  0  0  0  0  0  0  0  0  0
  141.7620   82.0990  219.1090 O   0  0  0  0  0  0  0  0  0  0  0  0
  141.5820   80.7600  218.8240 C   0  0  0  0  0  0  0  0  0  0  0  0
  140.6730   80.0380  219.5930 C   0  0  0  0  0  0  0  0  0  0  0  0
  140.4450   78.6850  219.3590 C   0  0  0  0  0  0  0  0  0  0  0  0
  141.1230   78.0020  218.3400 C   0  0  0  0  0  0  0  0  0  0  0  0
  140.8130   76.5940  218.1570 C   0  0  2  0  0  0  0  0  0  0  0  0
  139.3480   76.2710  218.0160 C   0  0  0  0  0  0  0  0  0  0  0  0
  141.3800   75.7070  219.1610 N   0  0  0  0  0  0  0  0  0  0  0  0
  142.7620   75.7420  219.5240 C   0  0  0  0  0  0  0  0  0  0  0  0
  143.5780   76.5610  218.9810 O   0  0  0  0  0  0  0  0  0  0  0  0
  143.1980   74.7760  220.5660 C   0  0  2  0  0  0  0  0  0  0  0  0
  144.7170   74.5480  220.4770 C   0  0  0  0  0  0  0  0  0  0  0  0
  144.7820   73.8620  219.1280 C   0  0  1  0  0  0  0  0  0  0  0  0
  145.9580   73.1410  218.9660 O   0  0  0  0  0  0  0  0  0  0  0  0
  143.5430   72.9870  219.0640 C   0  0  0  0  0  0  0  0  0  0  0  0
  142.7690   73.4270  220.2350 N   0  0  0  0  0  0  0  0  0  0  0  0
  141.7700   72.6530  220.9300 C   0  0  0  0  0  0  0  0  0  0  0  0
  142.0590   71.4920  221.3180 O   0  0  0  0  0  0  0  0  0  0  0  0
  140.4360   73.2800  221.1520 C   0  0  0  0  0  0  0  0  0  0  0  0
  140.6160   74.6010  221.7240 N   0  0  0  0  0  0  0  0  0  0  0  0
  139.7280   75.6820  221.4920 C   0  0  0  0  0  0  0  0  0  0  0  0
  138.7020   75.5460  220.7490 O   0  0  0  0  0  0  0  0  0  0  0  0
  139.9930   76.9880  222.1140 C   0  0  0  0  0  0  0  0  0  0  0  0
  139.0040   77.7550  222.6810 C   0  0  0  0  0  0  0  0  0  0  0  0
  139.2630   78.9870  223.2690 C   0  0  0  0  0  0  0  0  0  0  0  0
  140.5680   79.4170  223.2660 C   0  0  0  0  0  0  0  0  0  0  0  0
  140.9040   80.6350  223.8330 C   0  0  0  0  0  0  0  0  0  0  0  0
  142.2090   81.1060  223.8500 C   0  0  0  0  0  0  0  0  0  0  0  0
  142.5560   82.2910  224.3980 F   0  0  0  0  0  0  0  0  0  0  0  0
  143.1820   80.3060  223.2700 C   0  0  0  0  0  0  0  0  0  0  0  0
  142.9010   79.0900  222.6930 C   0  0  0  0  0  0  0  0  0  0  0  0
  141.5740   78.6550  222.6990 C   0  0  0  0  0  0  0  0  0  0  0  0
  141.2450   77.4740  222.1480 N   0  0  0  0  0  0  0  0  0  0  0  0
  142.0300   78.7280  217.5760 C   0  0  0  0  0  0  0  0  0  0  0  0
  142.8860   77.8940  216.3080 Cl  0  0  0  0  0  0  0  0  0  0  0  0
  142.2460   80.0840  217.8260 C   0  0  0  0  0  0  0  0  0  0  0  0
  141.4179   82.4746  221.0914 H   0  0  0  0  0  0  0  0  0  0  0  0
  141.3352   83.8944  219.9942 H   0  0  0  0  0  0  0  0  0  0  0  0
  140.0107   82.6811  219.9942 H   0  0  0  0  0  0  0  0  0  0  0  0
  140.1251   80.5462  220.4002 H   0  0  0  0  0  0  0  0  0  0  0  0
  139.7205   78.1426  219.9843 H   0  0  0  0  0  0  0  0  0  0  0  0
  141.3058   76.4008  217.1927 H   0  0  0  0  0  0  0  0  0  0  0  0
  138.8967   76.1715  219.0142 H   0  0  0  0  0  0  0  0  0  0  0  0
  138.8455   77.0799  217.4654 H   0  0  0  0  0  0  0  0  0  0  0  0
  139.2323   75.3258  217.4654 H   0  0  0  0  0  0  0  0  0  0  0  0
  140.7330   75.0080  219.6380 H   0  0  0  0  0  0  0  0  0  0  0  0
  142.8153   75.1850  221.5127 H   0  0  0  0  0  0  0  0  0  0  0  0
  145.2762   75.4952  220.4842 H   0  0  0  0  0  0  0  0  0  0  0  0
  145.1580   73.9851  221.3128 H   0  0  0  0  0  0  0  0  0  0  0  0
  144.7959   74.5878  218.3015 H   0  0  0  0  0  0  0  0  0  0  0  0
  146.7030   73.7510  218.7600 H   0  0  0  0  0  0  0  0  0  0  0  0
  142.9841   73.1599  218.1325 H   0  0  0  0  0  0  0  0  0  0  0  0
  143.7703   71.9108  219.0730 H   0  0  0  0  0  0  0  0  0  0  0  0
  139.9054   73.3645  220.1921 H   0  0  0  0  0  0  0  0  0  0  0  0
  139.8465   72.6574  221.8411 H   0  0  0  0  0  0  0  0  0  0  0  0
  141.4400   74.8120  222.3540 H   0  0  0  0  0  0  0  0  0  0  0  0
  137.9699   77.3802  222.6690 H   0  0  0  0  0  0  0  0  0  0  0  0
  138.4597   79.5907  223.7166 H   0  0  0  0  0  0  0  0  0  0  0  0
  140.1107   81.2489  224.2844 H   0  0  0  0  0  0  0  0  0  0  0  0
  144.2236   80.6595  223.2716 H   0  0  0  0  0  0  0  0  0  0  0  0
  143.6963   78.4791  222.2409 H   0  0  0  0  0  0  0  0  0  0  0  0
  142.9709   80.6304  217.2048 H   0  0  0  0  0  0  0  0  0  0  0  0
  1  2  1  0
  2  3  1  0
  3  4  2  0
  4  5  1  0
  5  6  2  0
  6  7  1  0
  7  8  1  0
  7  9  1  0
  9 10  1  0
 10 11  2  0
 10 12  1  0
 12 13  1  0
 13 14  1  0
 14 15  1  0
 14 16  1  0
 16 17  1  0
 17 18  1  0
 18 19  2  0
 18 20  1  0
 20 21  1  0
 21 22  1  0
 22 23  2  0
 22 24  1  0
 24 25  2  0
 25 26  1  0
 26 27  2  0
 27 28  1  0
 28 29  2  0
 29 30  1  0
 29 31  1  0
 31 32  2  0
 32 33  1  0
 33 34  2  0
  6 35  1  0
 35 36  1  0
 35 37  2  0
 37  3  1  0
 17 12  1  0
 34 24  1  0
 33 27  1  0
  1 38  1  0
  1 39  1  0
  1 40  1  0
  4 41  1  0
  5 42  1  0
  7 43  1  6
  8 44  1  0
  8 45  1  0
  8 46  1  0
  9 47  1  0
 12 48  1  1
 13 49  1  0
 13 50  1  0
 14 51  1  6
 15 52  1  0
 16 53  1  0
 16 54  1  0
 20 55  1  0
 20 56  1  0
 21 57  1  0
 25 58  1  0
 26 59  1  0
 28 60  1  0
 31 61  1  0
 32 62  1  0
 37 63  1  0
M  END
>  <smiles>  (7) 
COc1ccc([C@H](C)NC(=O)[C@@H]2C[C@@H](O)CN2C(=O)CNC(=O)c2ccc3cc(F)ccc3n2)c(Cl)c1

>  <score_type>  (7) 
oracle

>  <origin>  (7) 
autodockgpu

>  <m_score__min__energy>  (7) 
-8.7400000000000002

>  <m_primary>  (7) 
energy

>  <rmsd>  (7) 
6.830686959848556

>  <m_score__min__rmsd>  (7) 
6.830686959848556

>  <meeko>  (7) 
{"free_energy": -6.47, "intermolecular_energy": -9.16, "internal_energy": -4.12, "cluster_size": 19, "cluster_id": 9, "rank_in_cluster": 11}

>  <energy>  (7) 
-8.18

>  <cluster_rmsd>  (7) 
0.7

>  <cluster>  (7) 
2

$$$$

     RDKit          3D

 63 66  0  0  0  0  0  0  0  0999 V2000
  136.3110   78.8090  220.3230 C   0  0  0  0  0  0  0  0  0  0  0  0
  137.2120   79.5660  219.5690 O   0  0  0  0  0  0  0  0  0  0  0  0
  138.5430   79.2660  219.3530 C   0  0  0  0  0  0  0  0  0  0  0  0
  138.9020   77.9300  219.1950 C   0  0  0  0  0  0  0  0  0  0  0  0
  140.2250   77.5600  218.9740 C   0  0  0  0  0  0  0  0  0  0  0  0
  141.2440   78.5200  218.9030 C   0  0  0  0  0  0  0  0  0  0  0  0
  142.5940   78.0450  218.6560 C   0  0  2  0  0  0  0  0  0  0  0  0
  142.8640   77.5730  217.2510 C   0  0  0  0  0  0  0  0  0  0  0  0
  143.0610   77.0210  219.5770 N   0  0  0  0  0  0  0  0  0  0  0  0
  142.6890   75.6470  219.4510 C   0  0  0  0  0  0  0  0  0  0  0  0
  141.9200   75.2430  218.5140 O   0  0  0  0  0  0  0  0  0  0  0  0
  143.2440   74.7130  220.4660 C   0  0  2  0  0  0  0  0  0  0  0  0
  144.7600   74.5490  220.2640 C   0  0  0  0  0  0  0  0  0  0  0  0
  144.7540   73.8500  218.9210 C   0  0  1  0  0  0  0  0  0  0  0  0
  145.9440   73.1780  218.6770 O   0  0  0  0  0  0  0  0  0  0  0  0
  143.5530   72.9220  218.9590 C   0  0  0  0  0  0  0  0  0  0  0  0
  142.8510   73.3440  220.1800 N   0  0  0  0  0  0  0  0  0  0  0  0
  141.9410   72.5360  220.9570 C   0  0  0  0  0  0  0  0  0  0  0  0
  142.3270   71.4150  221.3760 O   0  0  0  0  0  0  0  0  0  0  0  0
  140.5800   73.0820  221.2200 C   0  0  0  0  0  0  0  0  0  0  0  0
  140.6920   74.4600  221.6580 N   0  0  0  0  0  0  0  0  0  0  0  0
  139.5890   75.3480  221.7400 C   0  0  0  0  0  0  0  0  0  0  0  0
  138.4140   74.9710  221.4250 O   0  0  0  0  0  0  0  0  0  0  0  0
  139.8000   76.7300  222.1950 C   0  0  0  0  0  0  0  0  0  0  0  0
  138.7850   77.5120  222.6920 C   0  0  0  0  0  0  0  0  0  0  0  0
  138.9930   78.8170  223.1230 C   0  0  0  0  0  0  0  0  0  0  0  0
  140.2740   79.3050  223.0330 C   0  0  0  0  0  0  0  0  0  0  0  0
  140.5590   80.5980  223.4420 C   0  0  0  0  0  0  0  0  0  0  0  0
  141.8390   81.1300  223.3670 C   0  0  0  0  0  0  0  0  0  0  0  0
  142.1370   82.3870  223.7600 F   0  0  0  0  0  0  0  0  0  0  0  0
  142.8390   80.3130  222.8610 C   0  0  0  0  0  0  0  0  0  0  0  0
  142.6090   79.0240  222.4410 C   0  0  0  0  0  0  0  0  0  0  0  0
  141.3060   78.5300  222.5340 C   0  0  0  0  0  0  0  0  0  0  0  0
  141.0260   77.2760  222.1380 N   0  0  0  0  0  0  0  0  0  0  0  0
  140.8800   79.8530  219.0620 C   0  0  0  0  0  0  0  0  0  0  0  0
  142.1330   81.0600  218.9820 Cl  0  0  0  0  0  0  0  0  0  0  0  0
  139.5470   80.2040  219.2830 C   0  0  0  0  0  0  0  0  0  0  0  0
  136.5030   78.9703  221.3940 H   0  0  0  0  0  0  0  0  0  0  0  0
  135.2827   79.1181  220.0842 H   0  0  0  0  0  0  0  0  0  0  0  0
  136.4382   77.7428  220.0842 H   0  0  0  0  0  0  0  0  0  0  0  0
  138.1253   77.1527  219.2459 H   0  0  0  0  0  0  0  0  0  0  0  0
  140.4756   76.4958  218.8529 H   0  0  0  0  0  0  0  0  0  0  0  0
  143.1676   78.9676  218.8287 H   0  0  0  0  0  0  0  0  0  0  0  0
  143.4100   76.6186  217.2834 H   0  0  0  0  0  0  0  0  0  0  0  0
  141.9100   77.4319  216.7219 H   0  0  0  0  0  0  0  0  0  0  0  0
  143.4692   78.3239  216.7219 H   0  0  0  0  0  0  0  0  0  0  0  0
  143.7040   77.3150  220.3750 H   0  0  0  0  0  0  0  0  0  0  0  0
  142.9162   75.1165  221.4354 H   0  0  0  0  0  0  0  0  0  0  0  0
  145.2763   75.5193  220.2202 H   0  0  0  0  0  0  0  0  0  0  0  0
  145.2865   74.0156  221.0692 H   0  0  0  0  0  0  0  0  0  0  0  0
  144.6748   74.5656  218.0894 H   0  0  0  0  0  0  0  0  0  0  0  0
  146.6860   73.8210  218.5970 H   0  0  0  0  0  0  0  0  0  0  0  0
  142.9189   73.0586  218.0706 H   0  0  0  0  0  0  0  0  0  0  0  0
  143.8269   71.8566  218.9613 H   0  0  0  0  0  0  0  0  0  0  0  0
  139.9817   73.0371  220.2980 H   0  0  0  0  0  0  0  0  0  0  0  0
  140.0890   72.4855  222.0030 H   0  0  0  0  0  0  0  0  0  0  0  0
  141.6280   74.8660  221.9410 H   0  0  0  0  0  0  0  0  0  0  0  0
  137.7710   77.0897  222.7509 H   0  0  0  0  0  0  0  0  0  0  0  0
  138.1699   79.4306  223.5179 H   0  0  0  0  0  0  0  0  0  0  0  0
  139.7451   81.2227  223.8387 H   0  0  0  0  0  0  0  0  0  0  0  0
  143.8611   80.7138  222.7926 H   0  0  0  0  0  0  0  0  0  0  0  0
  143.4250   78.4020  222.0445 H   0  0  0  0  0  0  0  0  0  0  0  0
  139.2907   81.2667  219.4053 H   0  0  0  0  0  0  0  0  0  0  0  0
  1  2  1  0
  2  3  1  0
  3  4  2  0
  4  5  1  0
  5  6  2  0
  6  7  1  0
  7  8  1  0
  7  9  1  0
  9 10  1  0
 10 11  2  0
 10 12  1  0
 12 13  1  0
 13 14  1  0
 14 15  1  0
 14 16  1  0
 16 17  1  0
 17 18  1  0
 18 19  2  0
 18 20  1  0
 20 21  1  0
 21 22  1  0
 22 23  2  0
 22 24  1  0
 24 25  2  0
 25 26  1  0
 26 27  2  0
 27 28  1  0
 28 29  2  0
 29 30  1  0
 29 31  1  0
 31 32  2  0
 32 33  1  0
 33 34  2  0
  6 35  1  0
 35 36  1  0
 35 37  2  0
 37  3  1  0
 17 12  1  0
 34 24  1  0
 33 27  1  0
  1 38  1  0
  1 39  1  0
  1 40  1  0
  4 41  1  0
  5 42  1  0
  7 43  1  1
  8 44  1  0
  8 45  1  0
  8 46  1  0
  9 47  1  0
 12 48  1  1
 13 49  1  0
 13 50  1  0
 14 51  1  6
 15 52  1  0
 16 53  1  0
 16 54  1  0
 20 55  1  0
 20 56  1  0
 21 57  1  0
 25 58  1  0
 26 59  1  0
 28 60  1  0
 31 61  1  0
 32 62  1  0
 37 63  1  0
M  END
>  <smiles>  (8) 
COc1ccc([C@H](C)NC(=O)[C@@H]2C[C@@H](O)CN2C(=O)CNC(=O)c2ccc3cc(F)ccc3n2)c(Cl)c1

>  <score_type>  (8) 
oracle

>  <origin>  (8) 
autodockgpu

>  <m_score__min__energy>  (8) 
-8.7400000000000002

>  <m_primary>  (8) 
energy

>  <rmsd>  (8) 
6.817091696150422

>  <m_score__min__rmsd>  (8) 
6.817091696150422

>  <meeko>  (8) 
{"free_energy": -6.7, "intermolecular_energy": -9.38, "internal_energy": -4.28, "cluster_size": 19, "cluster_id": 9, "rank_in_cluster": 3}

>  <energy>  (8) 
-7.36

>  <cluster_rmsd>  (8) 
1.31

>  <cluster>  (8) 
2

$$$$

     RDKit          3D

 63 66  0  0  0  0  0  0  0  0999 V2000
  138.5830   82.3380  221.7060 C   0  0  0  0  0  0  0  0  0  0  0  0
  139.7420   82.2360  220.9330 O   0  0  0  0  0  0  0  0  0  0  0  0
  140.2620   81.0740  220.3970 C   0  0  0  0  0  0  0  0  0  0  0  0
  141.6260   81.0270  220.1180 C   0  0  0  0  0  0  0  0  0  0  0  0
  142.2130   79.8880  219.5780 C   0  0  0  0  0  0  0  0  0  0  0  0
  141.4530   78.7450  219.2940 C   0  0  0  0  0  0  0  0  0  0  0  0
  142.1500   77.5960  218.7440 C   0  0  2  0  0  0  0  0  0  0  0  0
  141.4960   76.9590  217.5450 C   0  0  0  0  0  0  0  0  0  0  0  0
  142.4560   76.5480  219.7060 N   0  0  0  0  0  0  0  0  0  0  0  0
  143.4130   75.5200  219.4420 C   0  0  0  0  0  0  0  0  0  0  0  0
  144.0540   75.4660  218.3390 O   0  0  0  0  0  0  0  0  0  0  0  0
  143.6210   74.5170  220.5190 C   0  0  2  0  0  0  0  0  0  0  0  0
  145.0480   73.9470  220.4460 C   0  0  0  0  0  0  0  0  0  0  0  0
  144.9530   73.2180  219.1220 C   0  0  1  0  0  0  0  0  0  0  0  0
  145.9340   72.2440  218.9910 O   0  0  0  0  0  0  0  0  0  0  0  0
  143.5470   72.6450  219.0820 C   0  0  0  0  0  0  0  0  0  0  0  0
  142.8970   73.2900  220.2320 N   0  0  0  0  0  0  0  0  0  0  0  0
  141.7500   72.7870  220.9490 C   0  0  0  0  0  0  0  0  0  0  0  0
  141.8680   71.7340  221.6270 O   0  0  0  0  0  0  0  0  0  0  0  0
  140.4750   73.5520  220.8440 C   0  0  0  0  0  0  0  0  0  0  0  0
  140.6700   74.8850  221.3790 N   0  0  0  0  0  0  0  0  0  0  0  0
  139.6190   75.6780  221.9080 C   0  0  0  0  0  0  0  0  0  0  0  0
  138.4200   75.2480  221.9410 O   0  0  0  0  0  0  0  0  0  0  0  0
  139.9130   77.0220  222.4280 C   0  0  0  0  0  0  0  0  0  0  0  0
  138.9370   77.8610  222.9120 C   0  0  0  0  0  0  0  0  0  0  0  0
  139.2230   79.1280  223.4030 C   0  0  0  0  0  0  0  0  0  0  0  0
  140.5400   79.5190  223.3890 C   0  0  0  0  0  0  0  0  0  0  0  0
  140.9030   80.7700  223.8630 C   0  0  0  0  0  0  0  0  0  0  0  0
  142.2210   81.2040  223.8660 C   0  0  0  0  0  0  0  0  0  0  0  0
  142.5950   82.4180  224.3230 F   0  0  0  0  0  0  0  0  0  0  0  0
  143.1790   80.3320  223.3710 C   0  0  0  0  0  0  0  0  0  0  0  0
  142.8720   79.0810  222.8890 C   0  0  0  0  0  0  0  0  0  0  0  0
  141.5330   78.6860  222.9050 C   0  0  0  0  0  0  0  0  0  0  0  0
  141.1780   77.4730  222.4460 N   0  0  0  0  0  0  0  0  0  0  0  0
  140.0910   78.7980  219.5740 C   0  0  0  0  0  0  0  0  0  0  0  0
  139.1280   77.3880  219.2250 Cl  0  0  0  0  0  0  0  0  0  0  0  0
  139.5200   79.9500  220.1160 C   0  0  0  0  0  0  0  0  0  0  0  0
  138.8505   82.3145  222.7727 H   0  0  0  0  0  0  0  0  0  0  0  0
  138.0716   83.2846  221.4770 H   0  0  0  0  0  0  0  0  0  0  0  0
  137.9142   81.4952  221.4770 H   0  0  0  0  0  0  0  0  0  0  0  0
  142.2505   81.9076  220.3289 H   0  0  0  0  0  0  0  0  0  0  0  0
  143.2931   79.8839  219.3700 H   0  0  0  0  0  0  0  0  0  0  0  0
  143.0897   78.0656  218.4178 H   0  0  0  0  0  0  0  0  0  0  0  0
  140.7458   76.2283  217.8815 H   0  0  0  0  0  0  0  0  0  0  0  0
  141.0057   77.7353  216.9391 H   0  0  0  0  0  0  0  0  0  0  0  0
  142.2591   76.4485  216.9391 H   0  0  0  0  0  0  0  0  0  0  0  0
  141.9420   76.5550  220.6390 H   0  0  0  0  0  0  0  0  0  0  0  0
  143.3434   75.0349  221.4489 H   0  0  0  0  0  0  0  0  0  0  0  0
  145.8078   74.7422  220.4240 H   0  0  0  0  0  0  0  0  0  0  0  0
  145.3512   73.3276  221.3030 H   0  0  0  0  0  0  0  0  0  0  0  0
  145.1297   73.8924  218.2711 H   0  0  0  0  0  0  0  0  0  0  0  0
  145.6710   71.4300  219.4800 H   0  0  0  0  0  0  0  0  0  0  0  0
  143.0393   72.9072  218.1420 H   0  0  0  0  0  0  0  0  0  0  0  0
  143.5240   71.5463  219.1298 H   0  0  0  0  0  0  0  0  0  0  0  0
  140.1735   73.6203  219.7883 H   0  0  0  0  0  0  0  0  0  0  0  0
  139.6886   73.0373  221.4155 H   0  0  0  0  0  0  0  0  0  0  0  0
  141.6310   75.3300  221.3940 H   0  0  0  0  0  0  0  0  0  0  0  0
  137.8924   77.5162  222.9102 H   0  0  0  0  0  0  0  0  0  0  0  0
  138.4311   79.7886  223.7858 H   0  0  0  0  0  0  0  0  0  0  0  0
  140.1210   81.4403  224.2492 H   0  0  0  0  0  0  0  0  0  0  0  0
  144.2305   80.6550  223.3635 H   0  0  0  0  0  0  0  0  0  0  0  0
  143.6563   78.4131  222.5033 H   0  0  0  0  0  0  0  0  0  0  0  0
  138.4402   79.9598  220.3257 H   0  0  0  0  0  0  0  0  0  0  0  0
  1  2  1  0
  2  3  1  0
  3  4  2  0
  4  5  1  0
  5  6  2  0
  6  7  1  0
  7  8  1  0
  7  9  1  0
  9 10  1  0
 10 11  2  0
 10 12  1  0
 12 13  1  0
 13 14  1  0
 14 15  1  0
 14 16  1  0
 16 17  1  0
 17 18  1  0
 18 19  2  0
 18 20  1  0
 20 21  1  0
 21 22  1  0
 22 23  2  0
 22 24  1  0
 24 25  2  0
 25 26  1  0
 26 27  2  0
 27 28  1  0
 28 29  2  0
 29 30  1  0
 29 31  1  0
 31 32  2  0
 32 33  1  0
 33 34  2  0
  6 35  1  0
 35 36  1  0
 35 37  2  0
 37  3  1  0
 17 12  1  0
 34 24  1  0
 33 27  1  0
  1 38  1  0
  1 39  1  0
  1 40  1  0
  4 41  1  0
  5 42  1  0
  7 43  1  6
  8 44  1  0
  8 45  1  0
  8 46  1  0
  9 47  1  0
 12 48  1  1
 13 49  1  0
 13 50  1  0
 14 51  1  6
 15 52  1  0
 16 53  1  0
 16 54  1  0
 20 55  1  0
 20 56  1  0
 21 57  1  0
 25 58  1  0
 26 59  1  0
 28 60  1  0
 31 61  1  0
 32 62  1  0
 37 63  1  0
M  END
>  <smiles>  (9) 
COc1ccc([C@H](C)NC(=O)[C@@H]2C[C@@H](O)CN2C(=O)CNC(=O)c2ccc3cc(F)ccc3n2)c(Cl)c1

>  <score_type>  (9) 
oracle

>  <origin>  (9) 
autodockgpu

>  <m_score__min__energy>  (9) 
-8.7400000000000002

>  <m_primary>  (9) 
energy

>  <rmsd>  (9) 
6.637941036379134

>  <m_score__min__rmsd>  (9) 
6.637941036379134

>  <meeko>  (9) 
{"free_energy": -6.7, "intermolecular_energy": -9.38, "internal_energy": -4.35, "cluster_size": 19, "cluster_id": 9, "rank_in_cluster": 4}

>  <energy>  (9) 
-6.93

>  <cluster_rmsd>  (9) 
1.0

>  <cluster>  (9) 
2

$$$$

     RDKit          3D

 63 66  0  0  0  0  0  0  0  0999 V2000
  143.9970   82.9190  216.3130 C   0  0  0  0  0  0  0  0  0  0  0  0
  142.7030   82.7550  216.8160 O   0  0  0  0  0  0  0  0  0  0  0  0
  142.3540   82.0310  217.9390 C   0  0  0  0  0  0  0  0  0  0  0  0
  142.5880   80.6580  217.9390 C   0  0  0  0  0  0  0  0  0  0  0  0
  142.2600   79.8710  219.0380 C   0  0  0  0  0  0  0  0  0  0  0  0
  141.6810   80.4320  220.1850 C   0  0  0  0  0  0  0  0  0  0  0  0
  141.3840   79.5380  221.2900 C   0  0  2  0  0  0  0  0  0  0  0  0
  142.4010   79.5280  222.4020 C   0  0  0  0  0  0  0  0  0  0  0  0
  141.1140   78.1600  220.9080 N   0  0  0  0  0  0  0  0  0  0  0  0
  139.8350   77.7300  220.4380 C   0  0  0  0  0  0  0  0  0  0  0  0
  138.8530   78.5390  220.3280 O   0  0  0  0  0  0  0  0  0  0  0  0
  139.7090   76.2920  220.0830 C   0  0  2  0  0  0  0  0  0  0  0  0
  138.3320   75.7570  220.5140 C   0  0  0  0  0  0  0  0  0  0  0  0
  138.4850   75.8710  222.0160 C   0  0  1  0  0  0  0  0  0  0  0  0
  137.5860   75.0590  222.6950 O   0  0  0  0  0  0  0  0  0  0  0  0
  139.9320   75.5080  222.2990 C   0  0  0  0  0  0  0  0  0  0  0  0
  140.5290   75.4690  220.9560 N   0  0  0  0  0  0  0  0  0  0  0  0
  141.7140   74.7370  220.5760 C   0  0  0  0  0  0  0  0  0  0  0  0
  142.8150   75.3410  220.5310 O   0  0  0  0  0  0  0  0  0  0  0  0
  141.5620   73.2910  220.2530 C   0  0  0  0  0  0  0  0  0  0  0  0
  141.2820   72.5530  221.4700 N   0  0  0  0  0  0  0  0  0  0  0  0
  139.9740   72.3430  221.9740 C   0  0  0  0  0  0  0  0  0  0  0  0
  138.9510   72.8010  221.3690 O   0  0  0  0  0  0  0  0  0  0  0  0
  139.7870   71.5830  223.2190 C   0  0  0  0  0  0  0  0  0  0  0  0
  138.8800   70.5570  223.3360 C   0  0  0  0  0  0  0  0  0  0  0  0
  138.7120   69.8420  224.5150 C   0  0  0  0  0  0  0  0  0  0  0  0
  139.5010   70.2030  225.5800 C   0  0  0  0  0  0  0  0  0  0  0  0
  139.3900   69.5370  226.7900 C   0  0  0  0  0  0  0  0  0  0  0  0
  140.1670   69.8720  227.8900 C   0  0  0  0  0  0  0  0  0  0  0  0
  140.0740   69.2350  229.0770 F   0  0  0  0  0  0  0  0  0  0  0  0
  141.0720   70.9110  227.7380 C   0  0  0  0  0  0  0  0  0  0  0  0
  141.2210   71.6040  226.5590 C   0  0  0  0  0  0  0  0  0  0  0  0
  140.4180   71.2340  225.4790 C   0  0  0  0  0  0  0  0  0  0  0  0
  140.5230   71.8790  224.3040 N   0  0  0  0  0  0  0  0  0  0  0  0
  141.4490   81.8030  220.1790 C   0  0  0  0  0  0  0  0  0  0  0  0
  140.7270   82.5180  221.5940 Cl  0  0  0  0  0  0  0  0  0  0  0  0
  141.7850   82.5760  219.0670 C   0  0  0  0  0  0  0  0  0  0  0  0
  144.7066   83.0089  217.1487 H   0  0  0  0  0  0  0  0  0  0  0  0
  144.2642   82.0475  215.6973 H   0  0  0  0  0  0  0  0  0  0  0  0
  144.0384   83.8296  215.6973 H   0  0  0  0  0  0  0  0  0  0  0  0
  143.0405   80.1874  217.0537 H   0  0  0  0  0  0  0  0  0  0  0  0
  142.4584   78.7895  219.0066 H   0  0  0  0  0  0  0  0  0  0  0  0
  140.4565   79.9897  221.6717 H   0  0  0  0  0  0  0  0  0  0  0  0
  141.8832   79.5331  223.3725 H   0  0  0  0  0  0  0  0  0  0  0  0
  143.0222   78.6237  222.3226 H   0  0  0  0  0  0  0  0  0  0  0  0
  143.0399   80.4199  222.3226 H   0  0  0  0  0  0  0  0  0  0  0  0
  141.9070   77.4520  220.9850 H   0  0  0  0  0  0  0  0  0  0  0  0
  139.9446   76.2408  219.0097 H   0  0  0  0  0  0  0  0  0  0  0  0
  137.5106   76.3832  220.1356 H   0  0  0  0  0  0  0  0  0  0  0  0
  138.0799   74.7531  220.1418 H   0  0  0  0  0  0  0  0  0  0  0  0
  138.2542   76.8854  222.3734 H   0  0  0  0  0  0  0  0  0  0  0  0
  137.9340   74.1400  222.7510 H   0  0  0  0  0  0  0  0  0  0  0  0
  140.4164   76.2715  222.9255 H   0  0  0  0  0  0  0  0  0  0  0  0
  140.0430   74.5634  222.8516 H   0  0  0  0  0  0  0  0  0  0  0  0
  140.7315   73.1585  219.5440 H   0  0  0  0  0  0  0  0  0  0  0  0
  142.4918   72.9155  219.8009 H   0  0  0  0  0  0  0  0  0  0  0  0
  142.0670   72.1340  222.0440 H   0  0  0  0  0  0  0  0  0  0  0  0
  138.2644   70.2923  222.4637 H   0  0  0  0  0  0  0  0  0  0  0  0
  137.9806   69.0241  224.5923 H   0  0  0  0  0  0  0  0  0  0  0  0
  138.6629   68.7167  226.8816 H   0  0  0  0  0  0  0  0  0  0  0  0
  141.6980   71.1935  228.5972 H   0  0  0  0  0  0  0  0  0  0  0  0
  141.9495   72.4234  226.4703 H   0  0  0  0  0  0  0  0  0  0  0  0
  141.5883   83.6580  219.0930 H   0  0  0  0  0  0  0  0  0  0  0  0
  1  2  1  0
  2  3  1  0
  3  4  2  0
  4  5  1  0
  5  6  2  0
  6  7  1  0
  7  8  1  0
  7  9  1  0
  9 10  1  0
 10 11  2  0
 10 12  1  0
 12 13  1  0
 13 14  1  0
 14 15  1  0
 14 16  1  0
 16 17  1  0
 17 18  1  0
 18 19  2  0
 18 20  1  0
 20 21  1  0
 21 22  1  0
 22 23  2  0
 22 24  1  0
 24 25  2  0
 25 26  1  0
 26 27  2  0
 27 28  1  0
 28 29  2  0
 29 30  1  0
 29 31  1  0
 31 32  2  0
 32 33  1  0
 33 34  2  0
  6 35  1  0
 35 36  1  0
 35 37  2  0
 37  3  1  0
 17 12  1  0
 34 24  1  0
 33 27  1  0
  1 38  1  0
  1 39  1  0
  1 40  1  0
  4 41  1  0
  5 42  1  0
  7 43  1  1
  8 44  1  0
  8 45  1  0
  8 46  1  0
  9 47  1  0
 12 48  1  6
 13 49  1  0
 13 50  1  0
 14 51  1  1
 15 52  1  0
 16 53  1  0
 16 54  1  0
 20 55  1  0
 20 56  1  0
 21 57  1  0
 25 58  1  0
 26 59  1  0
 28 60  1  0
 31 61  1  0
 32 62  1  0
 37 63  1  0
M  END
>  <smiles>  (10) 
COc1ccc([C@H](C)NC(=O)[C@@H]2C[C@@H](O)CN2C(=O)CNC(=O)c2ccc3cc(F)ccc3n2)c(Cl)c1

>  <score_type>  (10) 
oracle

>  <origin>  (10) 
autodockgpu

>  <m_score__min__energy>  (10) 
-8.7400000000000002

>  <m_primary>  (10) 
energy

>  <rmsd>  (10) 
3.181720796175187

>  <m_score__min__rmsd>  (10) 
3.181720796175187

>  <meeko>  (10) 
{"free_energy": -7.32, "intermolecular_energy": -10.01, "internal_energy": -3.46, "cluster_size": 1, "cluster_id": 11, "rank_in_cluster": 1}

>  <energy>  (10) 
-8.6

>  <cluster_rmsd>  (10) 
0.0

>  <cluster>  (10) 
3

$$$$

     RDKit          3D

 63 66  0  0  0  0  0  0  0  0999 V2000
  141.0750   82.7120  219.8870 C   0  0  0  0  0  0  0  0  0  0  0  0
  140.3970   81.5230  219.6030 O   0  0  0  0  0  0  0  0  0  0  0  0
  140.9620   80.3640  219.1090 C   0  0  0  0  0  0  0  0  0  0  0  0
  142.3030   80.3910  218.7320 C   0  0  0  0  0  0  0  0  0  0  0  0
  142.9330   79.2580  218.2270 C   0  0  0  0  0  0  0  0  0  0  0  0
  142.2410   78.0480  218.0790 C   0  0  0  0  0  0  0  0  0  0  0  0
  142.9810   76.9130  217.5570 C   0  0  2  0  0  0  0  0  0  0  0  0
  142.7520   76.6110  216.0980 C   0  0  0  0  0  0  0  0  0  0  0  0
  142.8170   75.6780  218.3080 N   0  0  0  0  0  0  0  0  0  0  0  0
  143.4600   75.4530  219.5640 C   0  0  0  0  0  0  0  0  0  0  0  0
  144.2180   76.3310  220.0980 O   0  0  0  0  0  0  0  0  0  0  0  0
  143.1990   74.1430  220.2170 C   0  0  2  0  0  0  0  0  0  0  0  0
  144.4980   73.5820  220.8210 C   0  0  0  0  0  0  0  0  0  0  0  0
  145.2750   73.3370  219.5440 C   0  0  1  0  0  0  0  0  0  0  0  0
  146.3090   72.4290  219.7300 O   0  0  0  0  0  0  0  0  0  0  0  0
  144.2460   72.8570  218.5360 C   0  0  0  0  0  0  0  0  0  0  0  0
  142.9710   73.1060  219.2250 N   0  0  0  0  0  0  0  0  0  0  0  0
  141.7220   72.4320  218.9640 C   0  0  0  0  0  0  0  0  0  0  0  0
  141.5880   71.7900  217.8910 O   0  0  0  0  0  0  0  0  0  0  0  0
  140.6480   72.5380  219.9910 C   0  0  0  0  0  0  0  0  0  0  0  0
  140.4980   73.9250  220.3880 N   0  0  0  0  0  0  0  0  0  0  0  0
  140.1510   74.3310  221.7020 C   0  0  0  0  0  0  0  0  0  0  0  0
  139.9480   73.4770  222.6250 O   0  0  0  0  0  0  0  0  0  0  0  0
  140.0200   75.7630  222.0110 C   0  0  0  0  0  0  0  0  0  0  0  0
  138.8340   76.3320  222.4080 C   0  0  0  0  0  0  0  0  0  0  0  0
  138.7190   77.6850  222.7010 C   0  0  0  0  0  0  0  0  0  0  0  0
  139.8560   78.4480  222.5770 C   0  0  0  0  0  0  0  0  0  0  0  0
  139.8190   79.8050  222.8510 C   0  0  0  0  0  0  0  0  0  0  0  0
  140.9440   80.6110  222.7370 C   0  0  0  0  0  0  0  0  0  0  0  0
  140.9290   81.9360  222.9990 F   0  0  0  0  0  0  0  0  0  0  0  0
  142.1240   80.0040  222.3340 C   0  0  0  0  0  0  0  0  0  0  0  0
  142.2120   78.6610  222.0500 C   0  0  0  0  0  0  0  0  0  0  0  0
  141.0560   77.8890  222.1770 C   0  0  0  0  0  0  0  0  0  0  0  0
  141.0880   76.5720  221.9110 N   0  0  0  0  0  0  0  0  0  0  0  0
  140.9020   78.0270  218.4570 C   0  0  0  0  0  0  0  0  0  0  0  0
  140.0230   76.5340  218.2760 Cl  0  0  0  0  0  0  0  0  0  0  0  0
  140.2870   79.1740  218.9610 C   0  0  0  0  0  0  0  0  0  0  0  0
  141.1485   82.8408  220.9769 H   0  0  0  0  0  0  0  0  0  0  0  0
  142.0852   82.6705  219.4538 H   0  0  0  0  0  0  0  0  0  0  0  0
  140.5248   83.5603  219.4538 H   0  0  0  0  0  0  0  0  0  0  0  0
  142.8742   81.3254  218.8355 H   0  0  0  0  0  0  0  0  0  0  0  0
  143.9931   79.3127  217.9387 H   0  0  0  0  0  0  0  0  0  0  0  0
  144.0141   77.2701  217.6799 H   0  0  0  0  0  0  0  0  0  0  0  0
  142.0898   75.7377  216.0039 H   0  0  0  0  0  0  0  0  0  0  0  0
  142.2839   77.4801  215.6127 H   0  0  0  0  0  0  0  0  0  0  0  0
  143.7152   76.3948  215.6127 H   0  0  0  0  0  0  0  0  0  0  0  0
  142.1930   74.9180  217.8980 H   0  0  0  0  0  0  0  0  0  0  0  0
  142.3714   74.3322  220.9164 H   0  0  0  0  0  0  0  0  0  0  0  0
  144.9980   74.3136  221.4728 H   0  0  0  0  0  0  0  0  0  0  0  0
  144.3734   72.7039  221.4717 H   0  0  0  0  0  0  0  0  0  0  0  0
  145.7783   74.2491  219.1907 H   0  0  0  0  0  0  0  0  0  0  0  0
  146.1290   71.8650  220.5170 H   0  0  0  0  0  0  0  0  0  0  0  0
  144.3096   73.4326  217.6008 H   0  0  0  0  0  0  0  0  0  0  0  0
  144.3831   71.8059  218.2419 H   0  0  0  0  0  0  0  0  0  0  0  0
  139.6999   72.1719  219.5701 H   0  0  0  0  0  0  0  0  0  0  0  0
  140.9165   71.9311  220.8683 H   0  0  0  0  0  0  0  0  0  0  0  0
  140.6460   74.7090  219.6910 H   0  0  0  0  0  0  0  0  0  0  0  0
  137.9432   75.6929  222.4971 H   0  0  0  0  0  0  0  0  0  0  0  0
  137.7622   78.1257  223.0177 H   0  0  0  0  0  0  0  0  0  0  0  0
  138.8686   80.2586  223.1689 H   0  0  0  0  0  0  0  0  0  0  0  0
  143.0282   80.6230  222.2373 H   0  0  0  0  0  0  0  0  0  0  0  0
  143.1636   78.2095  221.7327 H   0  0  0  0  0  0  0  0  0  0  0  0
  139.2267   79.1251  219.2497 H   0  0  0  0  0  0  0  0  0  0  0  0
  1  2  1  0
  2  3  1  0
  3  4  2  0
  4  5  1  0
  5  6  2  0
  6  7  1  0
  7  8  1  0
  7  9  1  0
  9 10  1  0
 10 11  2  0
 10 12  1  0
 12 13  1  0
 13 14  1  0
 14 15  1  0
 14 16  1  0
 16 17  1  0
 17 18  1  0
 18 19  2  0
 18 20  1  0
 20 21  1  0
 21 22  1  0
 22 23  2  0
 22 24  1  0
 24 25  2  0
 25 26  1  0
 26 27  2  0
 27 28  1  0
 28 29  2  0
 29 30  1  0
 29 31  1  0
 31 32  2  0
 32 33  1  0
 33 34  2  0
  6 35  1  0
 35 36  1  0
 35 37  2  0
 37  3  1  0
 17 12  1  0
 34 24  1  0
 33 27  1  0
  1 38  1  0
  1 39  1  0
  1 40  1  0
  4 41  1  0
  5 42  1  0
  7 43  1  6
  8 44  1  0
  8 45  1  0
  8 46  1  0
  9 47  1  0
 12 48  1  1
 13 49  1  0
 13 50  1  0
 14 51  1  6
 15 52  1  0
 16 53  1  0
 16 54  1  0
 20 55  1  0
 20 56  1  0
 21 57  1  0
 25 58  1  0
 26 59  1  0
 28 60  1  0
 31 61  1  0
 32 62  1  0
 37 63  1  0
M  END
>  <smiles>  (11) 
COc1ccc([C@H](C)NC(=O)[C@@H]2C[C@@H](O)CN2C(=O)CNC(=O)c2ccc3cc(F)ccc3n2)c(Cl)c1

>  <score_type>  (11) 
oracle

>  <origin>  (11) 
autodockgpu

>  <m_score__min__energy>  (11) 
-8.7400000000000002

>  <m_primary>  (11) 
energy

>  <rmsd>  (11) 
6.705197267430691

>  <m_score__min__rmsd>  (11) 
6.705197267430691

>  <meeko>  (11) 
{"free_energy": -6.58, "intermolecular_energy": -9.26, "internal_energy": -4.09, "cluster_size": 19, "cluster_id": 9, "rank_in_cluster": 9}

>  <energy>  (11) 
-8.58

>  <cluster_rmsd>  (11) 
1.33

>  <cluster>  (11) 
3

$$$$

     RDKit          3D

 63 66  0  0  0  0  0  0  0  0999 V2000
  140.2340   83.4100  220.8070 C   0  0  0  0  0  0  0  0  0  0  0  0
  139.7810   82.4260  219.9250 O   0  0  0  0  0  0  0  0  0  0  0  0
  140.4480   81.2620  219.5930 C   0  0  0  0  0  0  0  0  0  0  0  0
  141.8210   81.3280  219.3730 C   0  0  0  0  0  0  0  0  0  0  0  0
  142.5520   80.1930  219.0360 C   0  0  0  0  0  0  0  0  0  0  0  0
  141.9320   78.9430  218.9070 C   0  0  0  0  0  0  0  0  0  0  0  0
  142.7740   77.8090  218.5660 C   0  0  2  0  0  0  0  0  0  0  0  0
  142.4510   77.1390  217.2560 C   0  0  0  0  0  0  0  0  0  0  0  0
  142.8640   76.7830  219.5930 N   0  0  0  0  0  0  0  0  0  0  0  0
  143.4220   75.4920  219.3410 C   0  0  0  0  0  0  0  0  0  0  0  0
  143.8750   75.1680  218.1910 O   0  0  0  0  0  0  0  0  0  0  0  0
  143.4480   74.5460  220.4880 C   0  0  2  0  0  0  0  0  0  0  0  0
  144.8980   74.1620  220.8280 C   0  0  0  0  0  0  0  0  0  0  0  0
  145.2520   73.4000  219.5670 C   0  0  1  0  0  0  0  0  0  0  0  0
  146.3390   72.5580  219.7550 O   0  0  0  0  0  0  0  0  0  0  0  0
  143.9870   72.6510  219.1860 C   0  0  0  0  0  0  0  0  0  0  0  0
  142.9780   73.2310  220.0850 N   0  0  0  0  0  0  0  0  0  0  0  0
  141.7470   72.5990  220.4970 C   0  0  0  0  0  0  0  0  0  0  0  0
  141.7990   71.4920  221.0910 O   0  0  0  0  0  0  0  0  0  0  0  0
  140.4700   73.3030  220.1900 C   0  0  0  0  0  0  0  0  0  0  0  0
  140.5480   74.6700  220.6690 N   0  0  0  0  0  0  0  0  0  0  0  0
  139.7590   75.1720  221.7350 C   0  0  0  0  0  0  0  0  0  0  0  0
  138.9200   74.4300  222.3420 O   0  0  0  0  0  0  0  0  0  0  0  0
  139.9060   76.5750  222.1510 C   0  0  0  0  0  0  0  0  0  0  0  0
  138.8570   77.3230  222.6290 C   0  0  0  0  0  0  0  0  0  0  0  0
  139.0050   78.6470  223.0220 C   0  0  0  0  0  0  0  0  0  0  0  0
  140.2620   79.1920  222.9150 C   0  0  0  0  0  0  0  0  0  0  0  0
  140.4870   80.5070  223.2870 C   0  0  0  0  0  0  0  0  0  0  0  0
  141.7410   81.0960  223.1930 C   0  0  0  0  0  0  0  0  0  0  0  0
  141.9800   82.3760  223.5510 F   0  0  0  0  0  0  0  0  0  0  0  0
  142.7770   80.3130  222.7070 C   0  0  0  0  0  0  0  0  0  0  0  0
  142.6050   79.0030  222.3240 C   0  0  0  0  0  0  0  0  0  0  0  0
  141.3280   78.4520  222.4350 C   0  0  0  0  0  0  0  0  0  0  0  0
  141.1050   77.1760  222.0740 N   0  0  0  0  0  0  0  0  0  0  0  0
  140.5600   78.8830  219.1280 C   0  0  0  0  0  0  0  0  0  0  0  0
  139.7700   77.3390  218.9680 Cl  0  0  0  0  0  0  0  0  0  0  0  0
  139.8430   80.0330  219.4640 C   0  0  0  0  0  0  0  0  0  0  0  0
  140.0791   83.0735  221.8427 H   0  0  0  0  0  0  0  0  0  0  0  0
  141.3057   83.5901  220.6364 H   0  0  0  0  0  0  0  0  0  0  0  0
  139.6740   84.3413  220.6364 H   0  0  0  0  0  0  0  0  0  0  0  0
  142.3373   82.2947  219.4673 H   0  0  0  0  0  0  0  0  0  0  0  0
  143.6357   80.2785  218.8679 H   0  0  0  0  0  0  0  0  0  0  0  0
  143.7522   78.3030  218.4709 H   0  0  0  0  0  0  0  0  0  0  0  0
  141.9807   76.1635  217.4492 H   0  0  0  0  0  0  0  0  0  0  0  0
  141.7592   77.7721  216.6811 H   0  0  0  0  0  0  0  0  0  0  0  0
  143.3772   76.9921  216.6811 H   0  0  0  0  0  0  0  0  0  0  0  0
  142.4960   77.0110  220.5670 H   0  0  0  0  0  0  0  0  0  0  0  0
  142.8708   75.0430  221.2816 H   0  0  0  0  0  0  0  0  0  0  0  0
  145.5361   75.0473  220.9662 H   0  0  0  0  0  0  0  0  0  0  0  0
  145.0286   73.6038  221.7668 H   0  0  0  0  0  0  0  0  0  0  0  0
  145.5716   74.0736  218.7583 H   0  0  0  0  0  0  0  0  0  0  0  0
  146.1550   71.9250  220.4880 H   0  0  0  0  0  0  0  0  0  0  0  0
  143.7255   72.8265  218.1320 H   0  0  0  0  0  0  0  0  0  0  0  0
  144.0817   71.5597  219.2860 H   0  0  0  0  0  0  0  0  0  0  0  0
  140.3032   73.3038  219.1027 H   0  0  0  0  0  0  0  0  0  0  0  0
  139.6359   72.7859  220.6869 H   0  0  0  0  0  0  0  0  0  0  0  0
  141.2150   75.3630  220.2270 H   0  0  0  0  0  0  0  0  0  0  0  0
  137.8637   76.8561  222.7031 H   0  0  0  0  0  0  0  0  0  0  0  0
  138.1548   79.2326  223.4016 H   0  0  0  0  0  0  0  0  0  0  0  0
  139.6456   81.1038  223.6691 H   0  0  0  0  0  0  0  0  0  0  0  0
  143.7794   80.7584  222.6242 H   0  0  0  0  0  0  0  0  0  0  0  0
  143.4480   78.4084  221.9421 H   0  0  0  0  0  0  0  0  0  0  0  0
  138.7587   79.9538  219.6311 H   0  0  0  0  0  0  0  0  0  0  0  0
  1  2  1  0
  2  3  1  0
  3  4  2  0
  4  5  1  0
  5  6  2  0
  6  7  1  0
  7  8  1  0
  7  9  1  0
  9 10  1  0
 10 11  2  0
 10 12  1  0
 12 13  1  0
 13 14  1  0
 14 15  1  0
 14 16  1  0
 16 17  1  0
 17 18  1  0
 18 19  2  0
 18 20  1  0
 20 21  1  0
 21 22  1  0
 22 23  2  0
 22 24  1  0
 24 25  2  0
 25 26  1  0
 26 27  2  0
 27 28  1  0
 28 29  2  0
 29 30  1  0
 29 31  1  0
 31 32  2  0
 32 33  1  0
 33 34  2  0
  6 35  1  0
 35 36  1  0
 35 37  2  0
 37  3  1  0
 17 12  1  0
 34 24  1  0
 33 27  1  0
  1 38  1  0
  1 39  1  0
  1 40  1  0
  4 41  1  0
  5 42  1  0
  7 43  1  6
  8 44  1  0
  8 45  1  0
  8 46  1  0
  9 47  1  0
 12 48  1  1
 13 49  1  0
 13 50  1  0
 14 51  1  6
 15 52  1  0
 16 53  1  0
 16 54  1  0
 20 55  1  0
 20 56  1  0
 21 57  1  0
 25 58  1  0
 26 59  1  0
 28 60  1  0
 31 61  1  0
 32 62  1  0
 37 63  1  0
M  END
>  <smiles>  (12) 
COc1ccc([C@H](C)NC(=O)[C@@H]2C[C@@H](O)CN2C(=O)CNC(=O)c2ccc3cc(F)ccc3n2)c(Cl)c1

>  <score_type>  (12) 
oracle

>  <origin>  (12) 
autodockgpu

>  <m_score__min__energy>  (12) 
-8.7400000000000002

>  <m_primary>  (12) 
energy

>  <rmsd>  (12) 
6.605235242483225

>  <m_score__min__rmsd>  (12) 
6.605235242483225

>  <meeko>  (12) 
{"free_energy": -7.05, "intermolecular_energy": -9.73, "internal_energy": -4.3, "cluster_size": 19, "cluster_id": 9, "rank_in_cluster": 2}

>  <energy>  (12) 
-8.39

>  <cluster_rmsd>  (12) 
1.95

>  <cluster>  (12) 
3

$$$$

     RDKit          3D

 63 66  0  0  0  0  0  0  0  0999 V2000
  136.3120   79.8580  220.5090 C   0  0  0  0  0  0  0  0  0  0  0  0
  136.9320   79.0010  219.5960 O   0  0  0  0  0  0  0  0  0  0  0  0
  138.2890   78.7620  219.4970 C   0  0  0  0  0  0  0  0  0  0  0  0
  138.7090   77.5110  219.0500 C   0  0  0  0  0  0  0  0  0  0  0  0
  140.0600   77.2060  218.9280 C   0  0  0  0  0  0  0  0  0  0  0  0
  141.0480   78.1460  219.2510 C   0  0  0  0  0  0  0  0  0  0  0  0
  142.4340   77.7460  219.0810 C   0  0  2  0  0  0  0  0  0  0  0  0
  142.8770   77.5520  217.6530 C   0  0  0  0  0  0  0  0  0  0  0  0
  142.8310   76.5720  219.8440 N   0  0  0  0  0  0  0  0  0  0  0  0
  142.4330   75.2490  219.4800 C   0  0  0  0  0  0  0  0  0  0  0  0
  141.7010   75.0260  218.4570 O   0  0  0  0  0  0  0  0  0  0  0  0
  142.9150   74.1480  220.3540 C   0  0  2  0  0  0  0  0  0  0  0  0
  144.4510   74.1720  220.4410 C   0  0  0  0  0  0  0  0  0  0  0  0
  144.7820   73.8260  219.0040 C   0  0  1  0  0  0  0  0  0  0  0  0
  146.0760   73.3410  218.8700 O   0  0  0  0  0  0  0  0  0  0  0  0
  143.7300   72.8150  218.5840 C   0  0  0  0  0  0  0  0  0  0  0  0
  142.7680   72.8610  219.6950 N   0  0  0  0  0  0  0  0  0  0  0  0
  141.8500   71.8110  220.0660 C   0  0  0  0  0  0  0  0  0  0  0  0
  142.3090   70.7300  220.5140 O   0  0  0  0  0  0  0  0  0  0  0  0
  140.3930   72.0700  219.8930 C   0  0  0  0  0  0  0  0  0  0  0  0
  140.0890   73.4190  220.3340 N   0  0  0  0  0  0  0  0  0  0  0  0
  139.9210   73.7780  221.6950 C   0  0  0  0  0  0  0  0  0  0  0  0
  140.0300   72.9140  222.6250 O   0  0  0  0  0  0  0  0  0  0  0  0
  139.6130   75.1730  222.0460 C   0  0  0  0  0  0  0  0  0  0  0  0
  138.3290   75.6610  222.0920 C   0  0  0  0  0  0  0  0  0  0  0  0
  138.0460   76.9790  222.4280 C   0  0  0  0  0  0  0  0  0  0  0  0
  139.1160   77.7910  222.7180 C   0  0  0  0  0  0  0  0  0  0  0  0
  138.9130   79.1190  223.0610 C   0  0  0  0  0  0  0  0  0  0  0  0
  139.9660   79.9720  223.3600 C   0  0  0  0  0  0  0  0  0  0  0  0
  139.7880   81.2680  223.6950 F   0  0  0  0  0  0  0  0  0  0  0  0
  141.2470   79.4460  223.3040 C   0  0  0  0  0  0  0  0  0  0  0  0
  141.5020   78.1370  222.9690 C   0  0  0  0  0  0  0  0  0  0  0  0
  140.4130   77.3140  222.6750 C   0  0  0  0  0  0  0  0  0  0  0  0
  140.6070   76.0260  222.3420 N   0  0  0  0  0  0  0  0  0  0  0  0
  140.6230   79.3930  219.6980 C   0  0  0  0  0  0  0  0  0  0  0  0
  141.8370   80.5730  220.1080 Cl  0  0  0  0  0  0  0  0  0  0  0  0
  139.2630   79.6810  219.8140 C   0  0  0  0  0  0  0  0  0  0  0  0
  136.5465   79.5339  221.5337 H   0  0  0  0  0  0  0  0  0  0  0  0
  136.6784   80.8839  220.3560 H   0  0  0  0  0  0  0  0  0  0  0  0
  135.2230   79.8310  220.3560 H   0  0  0  0  0  0  0  0  0  0  0  0
  137.9581   76.7508  218.7889 H   0  0  0  0  0  0  0  0  0  0  0  0
  140.3587   76.2091  218.5716 H   0  0  0  0  0  0  0  0  0  0  0  0
  142.9513   78.6268  219.4892 H   0  0  0  0  0  0  0  0  0  0  0  0
  143.8845   77.1108  217.6384 H   0  0  0  0  0  0  0  0  0  0  0  0
  142.1746   76.8791  217.1394 H   0  0  0  0  0  0  0  0  0  0  0  0
  142.8951   78.5246  217.1394 H   0  0  0  0  0  0  0  0  0  0  0  0
  143.4410   76.7150  220.7050 H   0  0  0  0  0  0  0  0  0  0  0  0
  142.3655   74.2718  221.2989 H   0  0  0  0  0  0  0  0  0  0  0  0
  144.8316   75.1647  220.7232 H   0  0  0  0  0  0  0  0  0  0  0  0
  144.8898   73.5059  221.1984 H   0  0  0  0  0  0  0  0  0  0  0  0
  144.7587   74.7136  218.3547 H   0  0  0  0  0  0  0  0  0  0  0  0
  146.7100   74.0890  218.7730 H   0  0  0  0  0  0  0  0  0  0  0  0
  143.2547   73.1089  217.6365 H   0  0  0  0  0  0  0  0  0  0  0  0
  144.1401   71.8100  218.4059 H   0  0  0  0  0  0  0  0  0  0  0  0
  140.1240   71.9611  218.8320 H   0  0  0  0  0  0  0  0  0  0  0  0
  139.8173   71.3486  220.4914 H   0  0  0  0  0  0  0  0  0  0  0  0
  139.9780   74.2060  219.6350 H   0  0  0  0  0  0  0  0  0  0  0  0
  137.4955   74.9837  221.8542 H   0  0  0  0  0  0  0  0  0  0  0  0
  137.0129   77.3553  222.4604 H   0  0  0  0  0  0  0  0  0  0  0  0
  137.8850   79.5087  223.0973 H   0  0  0  0  0  0  0  0  0  0  0  0
  142.0967   80.1043  223.5377 H   0  0  0  0  0  0  0  0  0  0  0  0
  142.5312   77.7504  222.9337 H   0  0  0  0  0  0  0  0  0  0  0  0
  138.9589   80.6761  220.1708 H   0  0  0  0  0  0  0  0  0  0  0  0
  1  2  1  0
  2  3  1  0
  3  4  2  0
  4  5  1  0
  5  6  2  0
  6  7  1  0
  7  8  1  0
  7  9  1  0
  9 10  1  0
 10 11  2  0
 10 12  1  0
 12 13  1  0
 13 14  1  0
 14 15  1  0
 14 16  1  0
 16 17  1  0
 17 18  1  0
 18 19  2  0
 18 20  1  0
 20 21  1  0
 21 22  1  0
 22 23  2  0
 22 24  1  0
 24 25  2  0
 25 26  1  0
 26 27  2  0
 27 28  1  0
 28 29  2  0
 29 30  1  0
 29 31  1  0
 31 32  2  0
 32 33  1  0
 33 34  2  0
  6 35  1  0
 35 36  1  0
 35 37  2  0
 37  3  1  0
 17 12  1  0
 34 24  1  0
 33 27  1  0
  1 38  1  0
  1 39  1  0
  1 40  1  0
  4 41  1  0
  5 42  1  0
  7 43  1  1
  8 44  1  0
  8 45  1  0
  8 46  1  0
  9 47  1  0
 12 48  1  1
 13 49  1  0
 13 50  1  0
 14 51  1  6
 15 52  1  0
 16 53  1  0
 16 54  1  0
 20 55  1  0
 20 56  1  0
 21 57  1  0
 25 58  1  0
 26 59  1  0
 28 60  1  0
 31 61  1  0
 32 62  1  0
 37 63  1  0
M  END
>  <smiles>  (13) 
COc1ccc([C@H](C)NC(=O)[C@@H]2C[C@@H](O)CN2C(=O)CNC(=O)c2ccc3cc(F)ccc3n2)c(Cl)c1

>  <score_type>  (13) 
oracle

>  <origin>  (13) 
autodockgpu

>  <m_score__min__energy>  (13) 
-8.7400000000000002

>  <m_primary>  (13) 
energy

>  <rmsd>  (13) 
6.2173956015896845

>  <m_score__min__rmsd>  (13) 
6.2173956015896845

>  <meeko>  (13) 
{"free_energy": -6.43, "intermolecular_energy": -9.11, "internal_energy": -4.82, "cluster_size": 19, "cluster_id": 9, "rank_in_cluster": 13}

>  <energy>  (13) 
-8.26

>  <cluster_rmsd>  (13) 
1.31

>  <cluster>  (13) 
3

$$$$

     RDKit          3D

 63 66  0  0  0  0  0  0  0  0999 V2000
  132.2130   74.3230  226.8530 C   0  0  0  0  0  0  0  0  0  0  0  0
  133.6070   74.3440  226.7560 O   0  0  0  0  0  0  0  0  0  0  0  0
  134.3390   74.7030  225.6420 C   0  0  0  0  0  0  0  0  0  0  0  0
  134.9990   73.7010  224.9340 C   0  0  0  0  0  0  0  0  0  0  0  0
  135.7530   73.9950  223.8020 C   0  0  0  0  0  0  0  0  0  0  0  0
  135.8760   75.3110  223.3350 C   0  0  0  0  0  0  0  0  0  0  0  0
  136.6720   75.5240  222.1390 C   0  0  2  0  0  0  0  0  0  0  0  0
  136.3400   74.6250  220.9760 C   0  0  0  0  0  0  0  0  0  0  0  0
  138.1110   75.4870  222.3460 N   0  0  0  0  0  0  0  0  0  0  0  0
  138.9290   76.6560  222.2650 C   0  0  0  0  0  0  0  0  0  0  0  0
  138.4350   77.8040  222.0030 O   0  0  0  0  0  0  0  0  0  0  0  0
  140.3840   76.4640  222.5020 C   0  0  2  0  0  0  0  0  0  0  0  0
  141.0560   77.8150  222.8020 C   0  0  0  0  0  0  0  0  0  0  0  0
  140.8720   78.4840  221.4560 C   0  0  1  0  0  0  0  0  0  0  0  0
  141.7550   79.5400  221.2740 O   0  0  0  0  0  0  0  0  0  0  0  0
  141.0570   77.3790  220.4320 C   0  0  0  0  0  0  0  0  0  0  0  0
  141.0760   76.1640  221.2600 N   0  0  0  0  0  0  0  0  0  0  0  0
  141.6820   74.9040  220.9020 C   0  0  0  0  0  0  0  0  0  0  0  0
  142.9350   74.8200  220.8590 O   0  0  0  0  0  0  0  0  0  0  0  0
  140.7760   73.7600  220.5990 C   0  0  0  0  0  0  0  0  0  0  0  0
  140.6580   72.9170  221.7720 N   0  0  0  0  0  0  0  0  0  0  0  0
  139.4290   72.3740  222.2270 C   0  0  0  0  0  0  0  0  0  0  0  0
  138.3370   72.6060  221.6120 O   0  0  0  0  0  0  0  0  0  0  0  0
  139.4070   71.5300  223.4300 C   0  0  0  0  0  0  0  0  0  0  0  0
  138.6150   70.4120  223.5390 C   0  0  0  0  0  0  0  0  0  0  0  0
  138.6020   69.6170  224.6790 C   0  0  0  0  0  0  0  0  0  0  0  0
  139.4250   69.9960  225.7110 C   0  0  0  0  0  0  0  0  0  0  0  0
  139.4660   69.2540  226.8810 C   0  0  0  0  0  0  0  0  0  0  0  0
  140.2830   69.6030  227.9480 C   0  0  0  0  0  0  0  0  0  0  0  0
  140.3370   68.8930  229.0950 F   0  0  0  0  0  0  0  0  0  0  0  0
  141.0690   70.7360  227.8030 C   0  0  0  0  0  0  0  0  0  0  0  0
  141.0650   71.5070  226.6640 C   0  0  0  0  0  0  0  0  0  0  0  0
  140.2280   71.1190  225.6170 C   0  0  0  0  0  0  0  0  0  0  0  0
  140.1850   71.8380  224.4810 N   0  0  0  0  0  0  0  0  0  0  0  0
  135.2150   76.3070  224.0460 C   0  0  0  0  0  0  0  0  0  0  0  0
  135.3600   77.9490  223.4820 Cl  0  0  0  0  0  0  0  0  0  0  0  0
  134.4640   75.9920  225.1790 C   0  0  0  0  0  0  0  0  0  0  0  0
  131.9192   74.3186  227.9130 H   0  0  0  0  0  0  0  0  0  0  0  0
  131.7977   75.2150  226.3612 H   0  0  0  0  0  0  0  0  0  0  0  0
  131.8248   73.4189  226.3612 H   0  0  0  0  0  0  0  0  0  0  0  0
  134.9227   72.6583  225.2761 H   0  0  0  0  0  0  0  0  0  0  0  0
  136.2612   73.1809  223.2645 H   0  0  0  0  0  0  0  0  0  0  0  0
  136.3765   76.5513  221.8796 H   0  0  0  0  0  0  0  0  0  0  0  0
  135.9819   73.6555  221.3526 H   0  0  0  0  0  0  0  0  0  0  0  0
  135.5553   75.0928  220.3633 H   0  0  0  0  0  0  0  0  0  0  0  0
  137.2404   74.4705  220.3633 H   0  0  0  0  0  0  0  0  0  0  0  0
  138.5640   74.5480  222.5670 H   0  0  0  0  0  0  0  0  0  0  0  0
  140.4470   75.6963  223.2873 H   0  0  0  0  0  0  0  0  0  0  0  0
  140.5410   78.3608  223.6063 H   0  0  0  0  0  0  0  0  0  0  0  0
  142.0947   77.7545  223.1589 H   0  0  0  0  0  0  0  0  0  0  0  0
  139.8784   78.9465  221.3620 H   0  0  0  0  0  0  0  0  0  0  0  0
  142.6790   79.2030  221.2170 H   0  0  0  0  0  0  0  0  0  0  0  0
  140.2212   77.3578  219.7172 H   0  0  0  0  0  0  0  0  0  0  0  0
  141.9624   77.5015  219.8194 H   0  0  0  0  0  0  0  0  0  0  0  0
  139.7829   74.1420  220.3199 H   0  0  0  0  0  0  0  0  0  0  0  0
  141.1896   73.1741  219.7649 H   0  0  0  0  0  0  0  0  0  0  0  0
  141.5090   72.6680  222.3510 H   0  0  0  0  0  0  0  0  0  0  0  0
  137.9679   70.1364  222.6933 H   0  0  0  0  0  0  0  0  0  0  0  0
  137.9620   68.7253  224.7513 H   0  0  0  0  0  0  0  0  0  0  0  0
  138.8309   68.3600  226.9670 H   0  0  0  0  0  0  0  0  0  0  0  0
  141.7246   71.0312  228.6355 H   0  0  0  0  0  0  0  0  0  0  0  0
  141.7011   72.4006  226.5811 H   0  0  0  0  0  0  0  0  0  0  0  0
  133.9544   76.8026  225.7206 H   0  0  0  0  0  0  0  0  0  0  0  0
  1  2  1  0
  2  3  1  0
  3  4  2  0
  4  5  1  0
  5  6  2  0
  6  7  1  0
  7  8  1  0
  7  9  1  0
  9 10  1  0
 10 11  2  0
 10 12  1  0
 12 13  1  0
 13 14  1  0
 14 15  1  0
 14 16  1  0
 16 17  1  0
 17 18  1  0
 18 19  2  0
 18 20  1  0
 20 21  1  0
 21 22  1  0
 22 23  2  0
 22 24  1  0
 24 25  2  0
 25 26  1  0
 26 27  2  0
 27 28  1  0
 28 29  2  0
 29 30  1  0
 29 31  1  0
 31 32  2  0
 32 33  1  0
 33 34  2  0
  6 35  1  0
 35 36  1  0
 35 37  2  0
 37  3  1  0
 17 12  1  0
 34 24  1  0
 33 27  1  0
  1 38  1  0
  1 39  1  0
  1 40  1  0
  4 41  1  0
  5 42  1  0
  7 43  1  6
  8 44  1  0
  8 45  1  0
  8 46  1  0
  9 47  1  0
 12 48  1  1
 13 49  1  0
 13 50  1  0
 14 51  1  1
 15 52  1  0
 16 53  1  0
 16 54  1  0
 20 55  1  0
 20 56  1  0
 21 57  1  0
 25 58  1  0
 26 59  1  0
 28 60  1  0
 31 61  1  0
 32 62  1  0
 37 63  1  0
M  END
>  <smiles>  (14) 
COc1ccc([C@H](C)NC(=O)[C@@H]2C[C@@H](O)CN2C(=O)CNC(=O)c2ccc3cc(F)ccc3n2)c(Cl)c1

>  <score_type>  (14) 
oracle

>  <origin>  (14) 
autodockgpu

>  <m_score__min__energy>  (14) 
-8.7400000000000002

>  <m_primary>  (14) 
energy

>  <rmsd>  (14) 
6.529506768085891

>  <m_score__min__rmsd>  (14) 
6.529506768085891

>  <meeko>  (14) 
{"free_energy": -8.4, "intermolecular_energy": -11.08, "internal_energy": -3.03, "cluster_size": 5, "cluster_id": 2, "rank_in_cluster": 2}

>  <energy>  (14) 
-8.18

>  <cluster_rmsd>  (14) 
0.67

>  <cluster>  (14) 
3

$$$$

     RDKit          3D

 63 66  0  0  0  0  0  0  0  0999 V2000
  133.2250   72.1800  226.9500 C   0  0  0  0  0  0  0  0  0  0  0  0
  133.7160   73.4820  226.8190 O   0  0  0  0  0  0  0  0  0  0  0  0
  134.3390   74.0080  225.7050 C   0  0  0  0  0  0  0  0  0  0  0  0
  134.4410   75.3930  225.5970 C   0  0  0  0  0  0  0  0  0  0  0  0
  135.0580   75.9870  224.5000 C   0  0  0  0  0  0  0  0  0  0  0  0
  135.5980   75.2120  223.4650 C   0  0  0  0  0  0  0  0  0  0  0  0
  136.2350   75.9160  222.3650 C   0  0  2  0  0  0  0  0  0  0  0  0
  135.5410   75.7920  221.0330 C   0  0  0  0  0  0  0  0  0  0  0  0
  137.6440   75.6060  222.1750 N   0  0  0  0  0  0  0  0  0  0  0  0
  138.6860   76.5020  222.5660 C   0  0  0  0  0  0  0  0  0  0  0  0
  138.4340   77.6310  223.1070 O   0  0  0  0  0  0  0  0  0  0  0  0
  140.0790   76.0500  222.3090 C   0  0  2  0  0  0  0  0  0  0  0  0
  141.0740   77.1680  222.6650 C   0  0  0  0  0  0  0  0  0  0  0  0
  140.6940   78.1800  221.6040 C   0  0  1  0  0  0  0  0  0  0  0  0
  141.7020   79.1090  221.3850 O   0  0  0  0  0  0  0  0  0  0  0  0
  140.3720   77.3600  220.3670 C   0  0  0  0  0  0  0  0  0  0  0  0
  140.3480   75.9840  220.8830 N   0  0  0  0  0  0  0  0  0  0  0  0
  140.5610   74.7850  220.1080 C   0  0  0  0  0  0  0  0  0  0  0  0
  139.7710   74.5180  219.1670 O   0  0  0  0  0  0  0  0  0  0  0  0
  141.7190   73.9200  220.4720 C   0  0  0  0  0  0  0  0  0  0  0  0
  141.3730   73.1160  221.6290 N   0  0  0  0  0  0  0  0  0  0  0  0
  140.0580   72.6620  221.9020 C   0  0  0  0  0  0  0  0  0  0  0  0
  139.0870   72.9430  221.1260 O   0  0  0  0  0  0  0  0  0  0  0  0
  139.8020   71.8520  223.1030 C   0  0  0  0  0  0  0  0  0  0  0  0
  138.8030   70.9100  223.1650 C   0  0  0  0  0  0  0  0  0  0  0  0
  138.5700   70.1470  224.3030 C   0  0  0  0  0  0  0  0  0  0  0  0
  139.3900   70.3710  225.3820 C   0  0  0  0  0  0  0  0  0  0  0  0
  139.2180   69.6500  226.5520 C   0  0  0  0  0  0  0  0  0  0  0  0
  140.0240   69.8460  227.6650 C   0  0  0  0  0  0  0  0  0  0  0  0
  139.8720   69.1530  228.8140 F   0  0  0  0  0  0  0  0  0  0  0  0
  141.0220   70.8030  227.5670 C   0  0  0  0  0  0  0  0  0  0  0  0
  141.2340   71.5460  226.4290 C   0  0  0  0  0  0  0  0  0  0  0  0
  140.4000   71.3160  225.3340 C   0  0  0  0  0  0  0  0  0  0  0  0
  140.5630   72.0150  224.1970 N   0  0  0  0  0  0  0  0  0  0  0  0
  135.4930   73.8300  223.5780 C   0  0  0  0  0  0  0  0  0  0  0  0
  136.1550   72.8500  222.2980 Cl  0  0  0  0  0  0  0  0  0  0  0  0
  134.8710   73.2520  224.6850 C   0  0  0  0  0  0  0  0  0  0  0  0
  133.1305   71.9294  228.0169 H   0  0  0  0  0  0  0  0  0  0  0  0
  132.2387   72.1099  226.4681 H   0  0  0  0  0  0  0  0  0  0  0  0
  133.9194   71.4760  226.4681 H   0  0  0  0  0  0  0  0  0  0  0  0
  134.0264   76.0288  226.3932 H   0  0  0  0  0  0  0  0  0  0  0  0
  135.1229   77.0837  224.4445 H   0  0  0  0  0  0  0  0  0  0  0  0
  136.1424   76.9569  222.7086 H   0  0  0  0  0  0  0  0  0  0  0  0
  134.4698   75.6006  221.1941 H   0  0  0  0  0  0  0  0  0  0  0  0
  135.6653   76.7266  220.4664 H   0  0  0  0  0  0  0  0  0  0  0  0
  135.9813   74.9583  220.4664 H   0  0  0  0  0  0  0  0  0  0  0  0
  137.8980   74.6740  221.7250 H   0  0  0  0  0  0  0  0  0  0  0  0
  140.1796   75.1049  222.8628 H   0  0  0  0  0  0  0  0  0  0  0  0
  140.9102   77.5562  223.6811 H   0  0  0  0  0  0  0  0  0  0  0  0
  142.1329   76.8702  222.6732 H   0  0  0  0  0  0  0  0  0  0  0  0
  139.8304   78.7883  221.9109 H   0  0  0  0  0  0  0  0  0  0  0  0
  142.5600   78.6500  221.2320 H   0  0  0  0  0  0  0  0  0  0  0  0
  139.3950   77.6427  219.9479 H   0  0  0  0  0  0  0  0  0  0  0  0
  141.0935   77.5051  219.5494 H   0  0  0  0  0  0  0  0  0  0  0  0
  141.9648   73.2605  219.6267 H   0  0  0  0  0  0  0  0  0  0  0  0
  142.5891   74.5500  220.7085 H   0  0  0  0  0  0  0  0  0  0  0  0
  142.1110   72.8320  222.3330 H   0  0  0  0  0  0  0  0  0  0  0  0
  138.1651   70.7545  222.2824 H   0  0  0  0  0  0  0  0  0  0  0  0
  137.7654   69.3977  224.3380 H   0  0  0  0  0  0  0  0  0  0  0  0
  138.4169   68.8978  226.6008 H   0  0  0  0  0  0  0  0  0  0  0  0
  141.6726   70.9757  228.4370 H   0  0  0  0  0  0  0  0  0  0  0  0
  142.0357   72.2978  226.3835 H   0  0  0  0  0  0  0  0  0  0  0  0
  134.8035   72.1557  224.7447 H   0  0  0  0  0  0  0  0  0  0  0  0
  1  2  1  0
  2  3  1  0
  3  4  2  0
  4  5  1  0
  5  6  2  0
  6  7  1  0
  7  8  1  0
  7  9  1  0
  9 10  1  0
 10 11  2  0
 10 12  1  0
 12 13  1  0
 13 14  1  0
 14 15  1  0
 14 16  1  0
 16 17  1  0
 17 18  1  0
 18 19  2  0
 18 20  1  0
 20 21  1  0
 21 22  1  0
 22 23  2  0
 22 24  1  0
 24 25  2  0
 25 26  1  0
 26 27  2  0
 27 28  1  0
 28 29  2  0
 29 30  1  0
 29 31  1  0
 31 32  2  0
 32 33  1  0
 33 34  2  0
  6 35  1  0
 35 36  1  0
 35 37  2  0
 37  3  1  0
 17 12  1  0
 34 24  1  0
 33 27  1  0
  1 38  1  0
  1 39  1  0
  1 40  1  0
  4 41  1  0
  5 42  1  0
  7 43  1  1
  8 44  1  0
  8 45  1  0
  8 46  1  0
  9 47  1  0
 12 48  1  1
 13 49  1  0
 13 50  1  0
 14 51  1  1
 15 52  1  0
 16 53  1  0
 16 54  1  0
 20 55  1  0
 20 56  1  0
 21 57  1  0
 25 58  1  0
 26 59  1  0
 28 60  1  0
 31 61  1  0
 32 62  1  0
 37 63  1  0
M  END
>  <smiles>  (15) 
COc1ccc([C@H](C)NC(=O)[C@@H]2C[C@@H](O)CN2C(=O)CNC(=O)c2ccc3cc(F)ccc3n2)c(Cl)c1

>  <score_type>  (15) 
oracle

>  <origin>  (15) 
autodockgpu

>  <m_score__min__energy>  (15) 
-8.7400000000000002

>  <m_primary>  (15) 
energy

>  <rmsd>  (15) 
6.948930791813659

>  <m_score__min__rmsd>  (15) 
6.948930791813659

>  <meeko>  (15) 
{"free_energy": -7.36, "intermolecular_energy": -10.05, "internal_energy": -3.18, "cluster_size": 5, "cluster_id": 2, "rank_in_cluster": 4}

>  <energy>  (15) 
-8.12

>  <cluster_rmsd>  (15) 
1.95

>  <cluster>  (15) 
3

$$$$

     RDKit          3D

 63 66  0  0  0  0  0  0  0  0999 V2000
  138.0880   80.8330  224.2650 C   0  0  0  0  0  0  0  0  0  0  0  0
  138.9690   79.7650  224.4520 O   0  0  0  0  0  0  0  0  0  0  0  0
  139.6370   79.0780  223.4570 C   0  0  0  0  0  0  0  0  0  0  0  0
  140.9740   79.3890  223.2230 C   0  0  0  0  0  0  0  0  0  0  0  0
  141.7040   78.7350  222.2360 C   0  0  0  0  0  0  0  0  0  0  0  0
  141.1200   77.7380  221.4420 C   0  0  0  0  0  0  0  0  0  0  0  0
  141.9600   77.0980  220.4450 C   0  0  2  0  0  0  0  0  0  0  0  0
  141.6920   77.5070  219.0200 C   0  0  0  0  0  0  0  0  0  0  0  0
  141.9820   75.6450  220.5050 N   0  0  0  0  0  0  0  0  0  0  0  0
  143.1800   74.8870  220.3280 C   0  0  0  0  0  0  0  0  0  0  0  0
  144.3040   75.4510  220.1050 O   0  0  0  0  0  0  0  0  0  0  0  0
  143.0480   73.4090  220.4170 C   0  0  2  0  0  0  0  0  0  0  0  0
  144.4400   72.7520  220.4420 C   0  0  0  0  0  0  0  0  0  0  0  0
  144.9050   73.1110  219.0460 C   0  0  1  0  0  0  0  0  0  0  0  0
  145.9370   72.2890  218.6140 O   0  0  0  0  0  0  0  0  0  0  0  0
  143.6660   73.0070  218.1730 C   0  0  0  0  0  0  0  0  0  0  0  0
  142.5840   72.8530  219.1560 N   0  0  0  0  0  0  0  0  0  0  0  0
  141.2960   72.2510  218.9110 C   0  0  0  0  0  0  0  0  0  0  0  0
  141.2110   71.3060  218.0860 O   0  0  0  0  0  0  0  0  0  0  0  0
  140.1240   72.7900  219.6580 C   0  0  0  0  0  0  0  0  0  0  0  0
  139.9420   72.0300  220.8800 N   0  0  0  0  0  0  0  0  0  0  0  0
  140.2150   72.5460  222.1720 C   0  0  0  0  0  0  0  0  0  0  0  0
  140.6460   73.7350  222.3300 O   0  0  0  0  0  0  0  0  0  0  0  0
  140.0010   71.6990  223.3540 C   0  0  0  0  0  0  0  0  0  0  0  0
  139.1960   70.5850  223.3350 C   0  0  0  0  0  0  0  0  0  0  0  0
  139.0010   69.7880  224.4560 C   0  0  0  0  0  0  0  0  0  0  0  0
  139.6550   70.1600  225.6060 C   0  0  0  0  0  0  0  0  0  0  0  0
  139.5090   69.4150  226.7650 C   0  0  0  0  0  0  0  0  0  0  0  0
  140.1520   69.7560  227.9470 C   0  0  0  0  0  0  0  0  0  0  0  0
  140.0220   69.0440  229.0860 F   0  0  0  0  0  0  0  0  0  0  0  0
  140.9560   70.8860  227.9310 C   0  0  0  0  0  0  0  0  0  0  0  0
  141.1340   71.6590  226.8070 C   0  0  0  0  0  0  0  0  0  0  0  0
  140.4680   71.2780  225.6410 C   0  0  0  0  0  0  0  0  0  0  0  0
  140.6070   72.0000  224.5150 N   0  0  0  0  0  0  0  0  0  0  0  0
  139.7840   77.4320  221.6810 C   0  0  0  0  0  0  0  0  0  0  0  0
  139.0390   76.1980  220.7020 Cl  0  0  0  0  0  0  0  0  0  0  0  0
  139.0680   78.1000  222.6750 C   0  0  0  0  0  0  0  0  0  0  0  0
  137.7684   81.2204  225.2437 H   0  0  0  0  0  0  0  0  0  0  0  0
  138.5938   81.6313  223.7020 H   0  0  0  0  0  0  0  0  0  0  0  0
  137.2081   80.4882  223.7020 H   0  0  0  0  0  0  0  0  0  0  0  0
  141.4618   80.1661  223.8298 H   0  0  0  0  0  0  0  0  0  0  0  0
  142.7582   79.0049  222.0756 H   0  0  0  0  0  0  0  0  0  0  0  0
  142.9493   77.4809  220.7361 H   0  0  0  0  0  0  0  0  0  0  0  0
  141.0891   78.4270  219.0098 H   0  0  0  0  0  0  0  0  0  0  0  0
  142.6468   77.6886  218.5049 H   0  0  0  0  0  0  0  0  0  0  0  0
  141.1444   76.7040  218.5049 H   0  0  0  0  0  0  0  0  0  0  0  0
  141.0640   75.1350  220.6890 H   0  0  0  0  0  0  0  0  0  0  0  0
  142.4023   73.2316  221.2897 H   0  0  0  0  0  0  0  0  0  0  0  0
  145.0874   73.1895  221.2163 H   0  0  0  0  0  0  0  0  0  0  0  0
  144.4488   71.6778  220.6788 H   0  0  0  0  0  0  0  0  0  0  0  0
  145.3328   74.1236  219.0055 H   0  0  0  0  0  0  0  0  0  0  0  0
  145.6080   71.6630  217.9280 H   0  0  0  0  0  0  0  0  0  0  0  0
  143.5279   73.9177  217.5718 H   0  0  0  0  0  0  0  0  0  0  0  0
  143.7141   72.1821  217.4469 H   0  0  0  0  0  0  0  0  0  0  0  0
  140.3010   73.8470  219.9059 H   0  0  0  0  0  0  0  0  0  0  0  0
  139.2210   72.7072  219.0353 H   0  0  0  0  0  0  0  0  0  0  0  0
  139.5890   71.0320  220.8510 H   0  0  0  0  0  0  0  0  0  0  0  0
  138.6875   70.3147  222.3978 H   0  0  0  0  0  0  0  0  0  0  0  0
  138.3528   68.8998  224.4246 H   0  0  0  0  0  0  0  0  0  0  0  0
  138.8629   68.5249  226.7480 H   0  0  0  0  0  0  0  0  0  0  0  0
  141.4737   71.1767  228.8570 H   0  0  0  0  0  0  0  0  0  0  0  0
  141.7805   72.5488  226.8265 H   0  0  0  0  0  0  0  0  0  0  0  0
  138.0129   77.8355  222.8387 H   0  0  0  0  0  0  0  0  0  0  0  0
  1  2  1  0
  2  3  1  0
  3  4  2  0
  4  5  1  0
  5  6  2  0
  6  7  1  0
  7  8  1  0
  7  9  1  0
  9 10  1  0
 10 11  2  0
 10 12  1  0
 12 13  1  0
 13 14  1  0
 14 15  1  0
 14 16  1  0
 16 17  1  0
 17 18  1  0
 18 19  2  0
 18 20  1  0
 20 21  1  0
 21 22  1  0
 22 23  2  0
 22 24  1  0
 24 25  2  0
 25 26  1  0
 26 27  2  0
 27 28  1  0
 28 29  2  0
 29 30  1  0
 29 31  1  0
 31 32  2  0
 32 33  1  0
 33 34  2  0
  6 35  1  0
 35 36  1  0
 35 37  2  0
 37  3  1  0
 17 12  1  0
 34 24  1  0
 33 27  1  0
  1 38  1  0
  1 39  1  0
  1 40  1  0
  4 41  1  0
  5 42  1  0
  7 43  1  1
  8 44  1  0
  8 45  1  0
  8 46  1  0
  9 47  1  0
 12 48  1  1
 13 49  1  0
 13 50  1  0
 14 51  1  1
 15 52  1  0
 16 53  1  0
 16 54  1  0
 20 55  1  0
 20 56  1  0
 21 57  1  0
 25 58  1  0
 26 59  1  0
 28 60  1  0
 31 61  1  0
 32 62  1  0
 37 63  1  0
M  END
>  <smiles>  (16) 
COc1ccc([C@H](C)NC(=O)[C@@H]2C[C@@H](O)CN2C(=O)CNC(=O)c2ccc3cc(F)ccc3n2)c(Cl)c1

>  <score_type>  (16) 
oracle

>  <origin>  (16) 
autodockgpu

>  <m_score__min__energy>  (16) 
-8.7400000000000002

>  <m_primary>  (16) 
energy

>  <rmsd>  (16) 
4.129448919166061

>  <m_score__min__rmsd>  (16) 
4.129448919166061

>  <meeko>  (16) 
{"free_energy": -8.5, "intermolecular_energy": -11.19, "internal_energy": -2.66, "cluster_size": 4, "cluster_id": 1, "rank_in_cluster": 4}

>  <energy>  (16) 
-8.12

>  <cluster_rmsd>  (16) 
1.69

>  <cluster>  (16) 
3

$$$$

     RDKit          3D

 63 66  0  0  0  0  0  0  0  0999 V2000
  137.1970   81.3680  225.4360 C   0  0  0  0  0  0  0  0  0  0  0  0
  137.1640   80.4360  224.3950 O   0  0  0  0  0  0  0  0  0  0  0  0
  138.2500   79.9950  223.6640 C   0  0  0  0  0  0  0  0  0  0  0  0
  138.0390   79.0220  222.6900 C   0  0  0  0  0  0  0  0  0  0  0  0
  139.0900   78.5340  221.9200 C   0  0  0  0  0  0  0  0  0  0  0  0
  140.3980   79.0050  222.0960 C   0  0  0  0  0  0  0  0  0  0  0  0
  141.4300   78.4500  221.2390 C   0  0  2  0  0  0  0  0  0  0  0  0
  141.3240   78.8190  219.7810 C   0  0  0  0  0  0  0  0  0  0  0  0
  141.5930   77.0070  221.3320 N   0  0  0  0  0  0  0  0  0  0  0  0
  140.9780   76.1040  220.4100 C   0  0  0  0  0  0  0  0  0  0  0  0
  140.2470   76.5200  219.4490 O   0  0  0  0  0  0  0  0  0  0  0  0
  141.2350   74.6560  220.6300 C   0  0  2  0  0  0  0  0  0  0  0  0
  142.7430   74.4030  220.7980 C   0  0  0  0  0  0  0  0  0  0  0  0
  143.2090   74.7680  219.4040 C   0  0  1  0  0  0  0  0  0  0  0  0
  144.4530   74.2260  219.1120 O   0  0  0  0  0  0  0  0  0  0  0  0
  142.1170   74.2690  218.4740 C   0  0  0  0  0  0  0  0  0  0  0  0
  141.0370   73.9030  219.4030 N   0  0  0  0  0  0  0  0  0  0  0  0
  139.9780   72.9590  219.1410 C   0  0  0  0  0  0  0  0  0  0  0  0
  140.1020   72.1530  218.1840 O   0  0  0  0  0  0  0  0  0  0  0  0
  138.7820   72.9930  220.0300 C   0  0  0  0  0  0  0  0  0  0  0  0
  138.9870   72.0890  221.1450 N   0  0  0  0  0  0  0  0  0  0  0  0
  139.4250   72.5120  222.4260 C   0  0  0  0  0  0  0  0  0  0  0  0
  139.6690   73.7380  222.6690 O   0  0  0  0  0  0  0  0  0  0  0  0
  139.6070   71.5200  223.4970 C   0  0  0  0  0  0  0  0  0  0  0  0
  139.2730   70.1950  223.3480 C   0  0  0  0  0  0  0  0  0  0  0  0
  139.4500   69.2650  224.3640 C   0  0  0  0  0  0  0  0  0  0  0  0
  139.9810   69.7250  225.5450 C   0  0  0  0  0  0  0  0  0  0  0  0
  140.1860   68.8560  226.6040 C   0  0  0  0  0  0  0  0  0  0  0  0
  140.7200   69.2810  227.8130 C   0  0  0  0  0  0  0  0  0  0  0  0
  140.9270   68.4500  228.8580 F   0  0  0  0  0  0  0  0  0  0  0  0
  141.0450   70.6240  227.9290 C   0  0  0  0  0  0  0  0  0  0  0  0
  140.8610   71.5260  226.9080 C   0  0  0  0  0  0  0  0  0  0  0  0
  140.3210   71.0560  225.7100 C   0  0  0  0  0  0  0  0  0  0  0  0
  140.1200   71.8960  224.6800 N   0  0  0  0  0  0  0  0  0  0  0  0
  140.6020   79.9760  223.0710 C   0  0  0  0  0  0  0  0  0  0  0  0
  142.2230   80.5710  223.3080 Cl  0  0  0  0  0  0  0  0  0  0  0  0
  139.5360   80.4530  223.8340 C   0  0  0  0  0  0  0  0  0  0  0  0
  137.1783   80.8405  226.4011 H   0  0  0  0  0  0  0  0  0  0  0  0
  138.1169   81.9667  225.3631 H   0  0  0  0  0  0  0  0  0  0  0  0
  136.3218   82.0303  225.3631 H   0  0  0  0  0  0  0  0  0  0  0  0
  137.0233   78.6325  222.5267 H   0  0  0  0  0  0  0  0  0  0  0  0
  138.8906   77.7647  221.1595 H   0  0  0  0  0  0  0  0  0  0  0  0
  142.3236   78.9369  221.6567 H   0  0  0  0  0  0  0  0  0  0  0  0
  141.0214   79.8727  219.6905 H   0  0  0  0  0  0  0  0  0  0  0  0
  142.2999   78.6747  219.2944 H   0  0  0  0  0  0  0  0  0  0  0  0
  140.5734   78.1788  219.2944 H   0  0  0  0  0  0  0  0  0  0  0  0
  142.1950   76.6180  222.1200 H   0  0  0  0  0  0  0  0  0  0  0  0
  140.5912   74.3767  221.4771 H   0  0  0  0  0  0  0  0  0  0  0  0
  143.1867   75.0559  221.5640 H   0  0  0  0  0  0  0  0  0  0  0  0
  143.0155   73.3920  221.1352 H   0  0  0  0  0  0  0  0  0  0  0  0
  143.3564   75.8525  219.2937 H   0  0  0  0  0  0  0  0  0  0  0  0
  144.8900   74.7450  218.3980 H   0  0  0  0  0  0  0  0  0  0  0  0
  141.7932   75.0611  217.7828 H   0  0  0  0  0  0  0  0  0  0  0  0
  142.4396   73.4357  217.8325 H   0  0  0  0  0  0  0  0  0  0  0  0
  138.6344   74.0153  220.4083 H   0  0  0  0  0  0  0  0  0  0  0  0
  137.8925   72.6819  219.4625 H   0  0  0  0  0  0  0  0  0  0  0  0
  138.8130   71.0490  221.0410 H   0  0  0  0  0  0  0  0  0  0  0  0
  138.8503   69.8593  222.3896 H   0  0  0  0  0  0  0  0  0  0  0  0
  139.1774   68.2078  224.2295 H   0  0  0  0  0  0  0  0  0  0  0  0
  139.9173   67.7962  226.4833 H   0  0  0  0  0  0  0  0  0  0  0  0
  141.4682   70.9831  228.8787 H   0  0  0  0  0  0  0  0  0  0  0  0
  141.1310   72.5852  227.0315 H   0  0  0  0  0  0  0  0  0  0  0  0
  139.7302   81.2211  224.5971 H   0  0  0  0  0  0  0  0  0  0  0  0
  1  2  1  0
  2  3  1  0
  3  4  2  0
  4  5  1  0
  5  6  2  0
  6  7  1  0
  7  8  1  0
  7  9  1  0
  9 10  1  0
 10 11  2  0
 10 12  1  0
 12 13  1  0
 13 14  1  0
 14 15  1  0
 14 16  1  0
 16 17  1  0
 17 18  1  0
 18 19  2  0
 18 20  1  0
 20 21  1  0
 21 22  1  0
 22 23  2  0
 22 24  1  0
 24 25  2  0
 25 26  1  0
 26 27  2  0
 27 28  1  0
 28 29  2  0
 29 30  1  0
 29 31  1  0
 31 32  2  0
 32 33  1  0
 33 34  2  0
  6 35  1  0
 35 36  1  0
 35 37  2  0
 37  3  1  0
 17 12  1  0
 34 24  1  0
 33 27  1  0
  1 38  1  0
  1 39  1  0
  1 40  1  0
  4 41  1  0
  5 42  1  0
  7 43  1  1
  8 44  1  0
  8 45  1  0
  8 46  1  0
  9 47  1  0
 12 48  1  1
 13 49  1  0
 13 50  1  0
 14 51  1  1
 15 52  1  0
 16 53  1  0
 16 54  1  0
 20 55  1  0
 20 56  1  0
 21 57  1  0
 25 58  1  0
 26 59  1  0
 28 60  1  0
 31 61  1  0
 32 62  1  0
 37 63  1  0
M  END
>  <smiles>  (17) 
COc1ccc([C@H](C)NC(=O)[C@@H]2C[C@@H](O)CN2C(=O)CNC(=O)c2ccc3cc(F)ccc3n2)c(Cl)c1

>  <score_type>  (17) 
oracle

>  <origin>  (17) 
autodockgpu

>  <m_score__min__energy>  (17) 
-8.7400000000000002

>  <m_primary>  (17) 
energy

>  <rmsd>  (17) 
3.5077651433201313

>  <m_score__min__rmsd>  (17) 
3.5077651433201313

>  <meeko>  (17) 
{"free_energy": -8.51, "intermolecular_energy": -11.2, "internal_energy": -1.6, "cluster_size": 4, "cluster_id": 1, "rank_in_cluster": 2}

>  <energy>  (17) 
-7.43

>  <cluster_rmsd>  (17) 
1.02

>  <cluster>  (17) 
3

$$$$

     RDKit          3D

 63 66  0  0  0  0  0  0  0  0999 V2000
  137.1000   81.2630  225.5670 C   0  0  0  0  0  0  0  0  0  0  0  0
  138.0280   81.4970  224.5490 O   0  0  0  0  0  0  0  0  0  0  0  0
  138.8290   80.5470  223.9450 C   0  0  0  0  0  0  0  0  0  0  0  0
  138.2190   79.4200  223.3990 C   0  0  0  0  0  0  0  0  0  0  0  0
  138.9670   78.4250  222.7770 C   0  0  0  0  0  0  0  0  0  0  0  0
  140.3620   78.5230  222.6770 C   0  0  0  0  0  0  0  0  0  0  0  0
  141.0610   77.4460  221.9990 C   0  0  2  0  0  0  0  0  0  0  0  0
  141.5050   77.7510  220.5910 C   0  0  0  0  0  0  0  0  0  0  0  0
  140.3590   76.1720  221.9880 N   0  0  0  0  0  0  0  0  0  0  0  0
  140.9880   74.9520  221.5910 C   0  0  0  0  0  0  0  0  0  0  0  0
  142.2100   74.9160  221.2200 O   0  0  0  0  0  0  0  0  0  0  0  0
  140.1460   73.7280  221.6320 C   0  0  2  0  0  0  0  0  0  0  0  0
  140.5630   72.7580  220.5130 C   0  0  0  0  0  0  0  0  0  0  0  0
  140.1550   73.5830  219.3100 C   0  0  1  0  0  0  0  0  0  0  0  0
  139.9970   72.8030  218.1720 O   0  0  0  0  0  0  0  0  0  0  0  0
  138.8730   74.2840  219.7230 C   0  0  0  0  0  0  0  0  0  0  0  0
  138.7980   74.0100  221.1650 N   0  0  0  0  0  0  0  0  0  0  0  0
  137.5990   74.0150  221.9690 C   0  0  0  0  0  0  0  0  0  0  0  0
  137.2270   75.0910  222.5010 O   0  0  0  0  0  0  0  0  0  0  0  0
  136.8630   72.7290  222.1240 C   0  0  0  0  0  0  0  0  0  0  0  0
  137.4940   71.9360  223.1610 N   0  0  0  0  0  0  0  0  0  0  0  0
  138.1470   70.7010  222.9150 C   0  0  0  0  0  0  0  0  0  0  0  0
  138.2150   70.2130  221.7400 O   0  0  0  0  0  0  0  0  0  0  0  0
  138.7580   69.9660  224.0320 C   0  0  0  0  0  0  0  0  0  0  0  0
  138.7930   68.5930  224.0880 C   0  0  0  0  0  0  0  0  0  0  0  0
  139.3740   67.9060  225.1460 C   0  0  0  0  0  0  0  0  0  0  0  0
  139.9250   68.6620  226.1520 C   0  0  0  0  0  0  0  0  0  0  0  0
  140.5220   68.0480  227.2410 C   0  0  0  0  0  0  0  0  0  0  0  0
  141.0890   68.7750  228.2790 C   0  0  0  0  0  0  0  0  0  0  0  0
  141.6750   68.1950  229.3480 F   0  0  0  0  0  0  0  0  0  0  0  0
  141.0370   70.1570  228.1900 C   0  0  0  0  0  0  0  0  0  0  0  0
  140.4550   70.8150  227.1320 C   0  0  0  0  0  0  0  0  0  0  0  0
  139.8970   70.0440  226.1100 C   0  0  0  0  0  0  0  0  0  0  0  0
  139.3160   70.6370  225.0530 N   0  0  0  0  0  0  0  0  0  0  0  0
  140.9650   79.6510  223.2240 C   0  0  0  0  0  0  0  0  0  0  0  0
  142.6980   79.7880  223.1130 Cl  0  0  0  0  0  0  0  0  0  0  0  0
  140.1980   80.6370  223.8450 C   0  0  0  0  0  0  0  0  0  0  0  0
  137.5892   81.3863  226.5445 H   0  0  0  0  0  0  0  0  0  0  0  0
  136.2705   81.9801  225.4790 H   0  0  0  0  0  0  0  0  0  0  0  0
  136.7097   80.2383  225.4790 H   0  0  0  0  0  0  0  0  0  0  0  0
  137.1258   79.3146  223.4607 H   0  0  0  0  0  0  0  0  0  0  0  0
  138.4551   77.5468  222.3567 H   0  0  0  0  0  0  0  0  0  0  0  0
  141.9553   77.3548  222.6329 H   0  0  0  0  0  0  0  0  0  0  0  0
  142.4114   78.3736  220.6191 H   0  0  0  0  0  0  0  0  0  0  0  0
  141.7223   76.8107  220.0633 H   0  0  0  0  0  0  0  0  0  0  0  0
  140.7053   78.2913  220.0633 H   0  0  0  0  0  0  0  0  0  0  0  0
  139.3370   76.1570  222.2900 H   0  0  0  0  0  0  0  0  0  0  0  0
  140.2317   73.3569  222.6639 H   0  0  0  0  0  0  0  0  0  0  0  0
  141.6442   72.5560  220.5256 H   0  0  0  0  0  0  0  0  0  0  0  0
  140.1153   71.7548  220.5691 H   0  0  0  0  0  0  0  0  0  0  0  0
  140.9319   74.3102  219.0317 H   0  0  0  0  0  0  0  0  0  0  0  0
  140.5000   73.1940  217.4210 H   0  0  0  0  0  0  0  0  0  0  0  0
  138.9328   75.3650  219.5283 H   0  0  0  0  0  0  0  0  0  0  0  0
  137.9894   73.9352  219.1683 H   0  0  0  0  0  0  0  0  0  0  0  0
  135.8191   72.9347  222.4031 H   0  0  0  0  0  0  0  0  0  0  0  0
  136.8848   72.1758  221.1734 H   0  0  0  0  0  0  0  0  0  0  0  0
  137.4900   72.2580  224.1700 H   0  0  0  0  0  0  0  0  0  0  0  0
  138.3445   68.0174  223.2649 H   0  0  0  0  0  0  0  0  0  0  0  0
  139.3921   66.8066  225.1770 H   0  0  0  0  0  0  0  0  0  0  0  0
  140.5476   66.9492  227.2846 H   0  0  0  0  0  0  0  0  0  0  0  0
  141.4805   70.7535  229.0009 H   0  0  0  0  0  0  0  0  0  0  0  0
  140.4298   71.9140  227.0920 H   0  0  0  0  0  0  0  0  0  0  0  0
  140.7051   81.5162  224.2691 H   0  0  0  0  0  0  0  0  0  0  0  0
  1  2  1  0
  2  3  1  0
  3  4  2  0
  4  5  1  0
  5  6  2  0
  6  7  1  0
  7  8  1  0
  7  9  1  0
  9 10  1  0
 10 11  2  0
 10 12  1  0
 12 13  1  0
 13 14  1  0
 14 15  1  0
 14 16  1  0
 16 17  1  0
 17 18  1  0
 18 19  2  0
 18 20  1  0
 20 21  1  0
 21 22  1  0
 22 23  2  0
 22 24  1  0
 24 25  2  0
 25 26  1  0
 26 27  2  0
 27 28  1  0
 28 29  2  0
 29 30  1  0
 29 31  1  0
 31 32  2  0
 32 33  1  0
 33 34  2  0
  6 35  1  0
 35 36  1  0
 35 37  2  0
 37  3  1  0
 17 12  1  0
 34 24  1  0
 33 27  1  0
  1 38  1  0
  1 39  1  0
  1 40  1  0
  4 41  1  0
  5 42  1  0
  7 43  1  1
  8 44  1  0
  8 45  1  0
  8 46  1  0
  9 47  1  0
 12 48  1  1
 13 49  1  0
 13 50  1  0
 14 51  1  6
 15 52  1  0
 16 53  1  0
 16 54  1  0
 20 55  1  0
 20 56  1  0
 21 57  1  0
 25 58  1  0
 26 59  1  0
 28 60  1  0
 31 61  1  0
 32 62  1  0
 37 63  1  0
M  END
>  <smiles>  (18) 
COc1ccc([C@H](C)NC(=O)[C@@H]2C[C@@H](O)CN2C(=O)CNC(=O)c2ccc3cc(F)ccc3n2)c(Cl)c1

>  <score_type>  (18) 
oracle

>  <origin>  (18) 
autodockgpu

>  <m_score__min__energy>  (18) 
-8.7400000000000002

>  <m_primary>  (18) 
energy

>  <rmsd>  (18) 
3.6488394926780985

>  <m_score__min__rmsd>  (18) 
3.6488394926780985

>  <meeko>  (18) 
{"free_energy": -8.04, "intermolecular_energy": -10.72, "internal_energy": -2.69, "cluster_size": 1, "cluster_id": 6, "rank_in_cluster": 1}

>  <energy>  (18) 
-8.56

>  <cluster_rmsd>  (18) 
0.0

>  <cluster>  (18) 
4

$$$$

     RDKit          3D

 63 66  0  0  0  0  0  0  0  0999 V2000
  139.5900   82.0220  220.4040 C   0  0  0  0  0  0  0  0  0  0  0  0
  140.7720   81.7600  219.7050 O   0  0  0  0  0  0  0  0  0  0  0  0
  141.1880   80.5250  219.2450 C   0  0  0  0  0  0  0  0  0  0  0  0
  142.4660   80.4190  218.7030 C   0  0  0  0  0  0  0  0  0  0  0  0
  142.9460   79.2050  218.2220 C   0  0  0  0  0  0  0  0  0  0  0  0
  142.1600   78.0450  218.2670 C   0  0  0  0  0  0  0  0  0  0  0  0
  142.7470   76.8190  217.7560 C   0  0  2  0  0  0  0  0  0  0  0  0
  142.2320   76.3700  216.4120 C   0  0  0  0  0  0  0  0  0  0  0  0
  142.6880   75.6860  218.6670 N   0  0  0  0  0  0  0  0  0  0  0  0
  143.5420   75.5720  219.8060 C   0  0  0  0  0  0  0  0  0  0  0  0
  144.4100   76.4660  220.0870 O   0  0  0  0  0  0  0  0  0  0  0  0
  143.3670   74.3590  220.6470 C   0  0  2  0  0  0  0  0  0  0  0  0
  144.7260   73.6810  220.8930 C   0  0  0  0  0  0  0  0  0  0  0  0
  145.0410   73.2440  219.4770 C   0  0  1  0  0  0  0  0  0  0  0  0
  145.9850   72.2270  219.4440 O   0  0  0  0  0  0  0  0  0  0  0  0
  143.7070   72.8280  218.8820 C   0  0  0  0  0  0  0  0  0  0  0  0
  142.7400   73.2890  219.8890 N   0  0  0  0  0  0  0  0  0  0  0  0
  141.4100   72.7640  220.0890 C   0  0  0  0  0  0  0  0  0  0  0  0
  140.8310   72.1910  219.1320 O   0  0  0  0  0  0  0  0  0  0  0  0
  140.7930   72.9350  221.4340 C   0  0  0  0  0  0  0  0  0  0  0  0
  140.8500   74.3330  221.8160 N   0  0  0  0  0  0  0  0  0  0  0  0
  139.7140   75.1800  221.8560 C   0  0  0  0  0  0  0  0  0  0  0  0
  138.5550   74.7470  221.5520 O   0  0  0  0  0  0  0  0  0  0  0  0
  139.8690   76.5870  222.2550 C   0  0  0  0  0  0  0  0  0  0  0  0
  138.8250   77.3460  222.7270 C   0  0  0  0  0  0  0  0  0  0  0  0
  138.9820   78.6740  223.1040 C   0  0  0  0  0  0  0  0  0  0  0  0
  140.2410   79.2110  222.9860 C   0  0  0  0  0  0  0  0  0  0  0  0
  140.4740   80.5300  223.3410 C   0  0  0  0  0  0  0  0  0  0  0  0
  141.7310   81.1100  223.2360 C   0  0  0  0  0  0  0  0  0  0  0  0
  141.9780   82.3930  223.5770 F   0  0  0  0  0  0  0  0  0  0  0  0
  142.7610   80.3160  222.7560 C   0  0  0  0  0  0  0  0  0  0  0  0
  142.5820   79.0030  222.3890 C   0  0  0  0  0  0  0  0  0  0  0  0
  141.3010   78.4600  222.5110 C   0  0  0  0  0  0  0  0  0  0  0  0
  141.0710   77.1810  222.1660 N   0  0  0  0  0  0  0  0  0  0  0  0
  140.8840   78.1580  218.8090 C   0  0  0  0  0  0  0  0  0  0  0  0
  139.8900   76.7280  218.8700 Cl  0  0  0  0  0  0  0  0  0  0  0  0
  140.4200   79.3850  219.2860 C   0  0  0  0  0  0  0  0  0  0  0  0
  139.7862   81.9785  221.4855 H   0  0  0  0  0  0  0  0  0  0  0  0
  139.2212   83.0237  220.1383 H   0  0  0  0  0  0  0  0  0  0  0  0
  138.8325   81.2700  220.1383 H   0  0  0  0  0  0  0  0  0  0  0  0
  143.1077   81.3111  218.6542 H   0  0  0  0  0  0  0  0  0  0  0  0
  143.9601   79.1544  217.7989 H   0  0  0  0  0  0  0  0  0  0  0  0
  143.7961   77.1288  217.6405 H   0  0  0  0  0  0  0  0  0  0  0  0
  141.4099   75.6533  216.5551 H   0  0  0  0  0  0  0  0  0  0  0  0
  141.8649   77.2416  215.8502 H   0  0  0  0  0  0  0  0  0  0  0  0
  143.0454   75.8876  215.8502 H   0  0  0  0  0  0  0  0  0  0  0  0
  141.9780   74.9170  218.4680 H   0  0  0  0  0  0  0  0  0  0  0  0
  142.8205   74.7051  221.5367 H   0  0  0  0  0  0  0  0  0  0  0  0
  145.4740   74.3879  221.2812 H   0  0  0  0  0  0  0  0  0  0  0  0
  144.7213   72.8767  221.6434 H   0  0  0  0  0  0  0  0  0  0  0  0
  145.4993   74.0544  218.8912 H   0  0  0  0  0  0  0  0  0  0  0  0
  145.9780   71.7300  220.2930 H   0  0  0  0  0  0  0  0  0  0  0  0
  143.5349   73.3204  217.9135 H   0  0  0  0  0  0  0  0  0  0  0  0
  143.6401   71.7493  218.6775 H   0  0  0  0  0  0  0  0  0  0  0  0
  139.7438   72.6061  221.4010 H   0  0  0  0  0  0  0  0  0  0  0  0
  141.3430   72.3303  222.1701 H   0  0  0  0  0  0  0  0  0  0  0  0
  141.7690   74.7850  222.0850 H   0  0  0  0  0  0  0  0  0  0  0  0
  137.8294   76.8856  222.8093 H   0  0  0  0  0  0  0  0  0  0  0  0
  138.1364   79.2686  223.4800 H   0  0  0  0  0  0  0  0  0  0  0  0
  139.6371   81.1363  223.7177 H   0  0  0  0  0  0  0  0  0  0  0  0
  143.7653   80.7555  222.6647 H   0  0  0  0  0  0  0  0  0  0  0  0
  143.4207   78.3997  222.0115 H   0  0  0  0  0  0  0  0  0  0  0  0
  139.4061   79.4420  219.7088 H   0  0  0  0  0  0  0  0  0  0  0  0
  1  2  1  0
  2  3  1  0
  3  4  2  0
  4  5  1  0
  5  6  2  0
  6  7  1  0
  7  8  1  0
  7  9  1  0
  9 10  1  0
 10 11  2  0
 10 12  1  0
 12 13  1  0
 13 14  1  0
 14 15  1  0
 14 16  1  0
 16 17  1  0
 17 18  1  0
 18 19  2  0
 18 20  1  0
 20 21  1  0
 21 22  1  0
 22 23  2  0
 22 24  1  0
 24 25  2  0
 25 26  1  0
 26 27  2  0
 27 28  1  0
 28 29  2  0
 29 30  1  0
 29 31  1  0
 31 32  2  0
 32 33  1  0
 33 34  2  0
  6 35  1  0
 35 36  1  0
 35 37  2  0
 37  3  1  0
 17 12  1  0
 34 24  1  0
 33 27  1  0
  1 38  1  0
  1 39  1  0
  1 40  1  0
  4 41  1  0
  5 42  1  0
  7 43  1  6
  8 44  1  0
  8 45  1  0
  8 46  1  0
  9 47  1  0
 12 48  1  1
 13 49  1  0
 13 50  1  0
 14 51  1  6
 15 52  1  0
 16 53  1  0
 16 54  1  0
 20 55  1  0
 20 56  1  0
 21 57  1  0
 25 58  1  0
 26 59  1  0
 28 60  1  0
 31 61  1  0
 32 62  1  0
 37 63  1  0
M  END
>  <smiles>  (19) 
COc1ccc([C@H](C)NC(=O)[C@@H]2C[C@@H](O)CN2C(=O)CNC(=O)c2ccc3cc(F)ccc3n2)c(Cl)c1

>  <score_type>  (19) 
oracle

>  <origin>  (19) 
autodockgpu

>  <m_score__min__energy>  (19) 
-8.7400000000000002

>  <m_primary>  (19) 
energy

>  <rmsd>  (19) 
6.8300591119210265

>  <m_score__min__rmsd>  (19) 
6.8300591119210265

>  <meeko>  (19) 
{"free_energy": -6.39, "intermolecular_energy": -9.08, "internal_energy": -4.28, "cluster_size": 19, "cluster_id": 9, "rank_in_cluster": 15}

>  <energy>  (19) 
-8.03

>  <cluster_rmsd>  (19) 
1.92

>  <cluster>  (19) 
4

$$$$

     RDKit          3D

 63 66  0  0  0  0  0  0  0  0999 V2000
  141.7900   78.2510  220.2140 C   0  0  0  0  0  0  0  0  0  0  0  0
  140.8970   77.4840  220.9680 O   0  0  0  0  0  0  0  0  0  0  0  0
  140.9570   76.1170  221.1550 C   0  0  0  0  0  0  0  0  0  0  0  0
  139.8740   75.4850  221.7620 C   0  0  0  0  0  0  0  0  0  0  0  0
  139.8710   74.1110  221.9800 C   0  0  0  0  0  0  0  0  0  0  0  0
  140.9580   73.3140  221.5970 C   0  0  0  0  0  0  0  0  0  0  0  0
  140.8640   71.8860  221.8510 C   0  0  2  0  0  0  0  0  0  0  0  0
  140.7410   71.0210  220.6230 C   0  0  0  0  0  0  0  0  0  0  0  0
  139.8200   71.4990  222.7870 N   0  0  0  0  0  0  0  0  0  0  0  0
  140.0990   71.1390  224.1410 C   0  0  0  0  0  0  0  0  0  0  0  0
  141.2890   71.1380  224.6050 O   0  0  0  0  0  0  0  0  0  0  0  0
  138.9310   70.7670  224.9820 C   0  0  2  0  0  0  0  0  0  0  0  0
  139.3120   69.6330  225.9490 C   0  0  0  0  0  0  0  0  0  0  0  0
  139.5550   68.5260  224.9450 C   0  0  1  0  0  0  0  0  0  0  0  0
  139.4860   67.2680  225.5290 O   0  0  0  0  0  0  0  0  0  0  0  0
  138.5080   68.7300  223.8640 C   0  0  0  0  0  0  0  0  0  0  0  0
  137.9410   70.0430  224.2010 N   0  0  0  0  0  0  0  0  0  0  0  0
  136.6310   70.5220  223.8280 C   0  0  0  0  0  0  0  0  0  0  0  0
  136.5230   71.2940  222.8420 O   0  0  0  0  0  0  0  0  0  0  0  0
  135.4680   70.0690  224.6420 C   0  0  0  0  0  0  0  0  0  0  0  0
  134.7630   71.2260  225.1580 N   0  0  0  0  0  0  0  0  0  0  0  0
  133.8590   71.1700  226.2490 C   0  0  0  0  0  0  0  0  0  0  0  0
  133.6130   70.0720  226.8470 O   0  0  0  0  0  0  0  0  0  0  0  0
  133.1870   72.3980  226.7010 C   0  0  0  0  0  0  0  0  0  0  0  0
  131.9780   72.3860  227.3540 C   0  0  0  0  0  0  0  0  0  0  0  0
  131.3520   73.5510  227.7810 C   0  0  0  0  0  0  0  0  0  0  0  0
  131.9980   74.7350  227.5230 C   0  0  0  0  0  0  0  0  0  0  0  0
  131.4350   75.9380  227.9180 C   0  0  0  0  0  0  0  0  0  0  0  0
  132.0540   77.1570  227.6760 C   0  0  0  0  0  0  0  0  0  0  0  0
  131.5210   78.3400  228.0520 F   0  0  0  0  0  0  0  0  0  0  0  0
  133.2730   77.1320  227.0160 C   0  0  0  0  0  0  0  0  0  0  0  0
  133.8730   75.9660  226.6030 C   0  0  0  0  0  0  0  0  0  0  0  0
  133.2150   74.7630  226.8670 C   0  0  0  0  0  0  0  0  0  0  0  0
  133.7580   73.5940  226.4840 N   0  0  0  0  0  0  0  0  0  0  0  0
  142.0370   73.9500  220.9920 C   0  0  0  0  0  0  0  0  0  0  0  0
  143.4000   72.9760  220.5130 Cl  0  0  0  0  0  0  0  0  0  0  0  0
  142.0220   75.3300  220.7820 C   0  0  0  0  0  0  0  0  0  0  0  0
  142.4485   78.8166  220.8895 H   0  0  0  0  0  0  0  0  0  0  0  0
  142.3972   77.5886  219.5796 H   0  0  0  0  0  0  0  0  0  0  0  0
  141.2269   78.9513  219.5796 H   0  0  0  0  0  0  0  0  0  0  0  0
  139.0054   76.0833  222.0746 H   0  0  0  0  0  0  0  0  0  0  0  0
  139.0002   73.6421  222.4614 H   0  0  0  0  0  0  0  0  0  0  0  0
  141.8441   71.6959  222.3127 H   0  0  0  0  0  0  0  0  0  0  0  0
  140.5921   69.9739  220.9255 H   0  0  0  0  0  0  0  0  0  0  0  0
  139.8814   71.3553  220.0236 H   0  0  0  0  0  0  0  0  0  0  0  0
  141.6598   71.1024  220.0236 H   0  0  0  0  0  0  0  0  0  0  0  0
  138.8130   71.4860  222.4410 H   0  0  0  0  0  0  0  0  0  0  0  0
  138.5934   71.7103  225.4362 H   0  0  0  0  0  0  0  0  0  0  0  0
  140.2180   69.8713  226.5255 H   0  0  0  0  0  0  0  0  0  0  0  0
  138.5666   69.4076  226.7259 H   0  0  0  0  0  0  0  0  0  0  0  0
  140.5707   68.5717  224.5252 H   0  0  0  0  0  0  0  0  0  0  0  0
  140.3110   66.7620  225.3450 H   0  0  0  0  0  0  0  0  0  0  0  0
  138.9678   68.7420  222.8648 H   0  0  0  0  0  0  0  0  0  0  0  0
  137.7563   67.9276  223.8299 H   0  0  0  0  0  0  0  0  0  0  0  0
  134.7884   69.4753  224.0129 H   0  0  0  0  0  0  0  0  0  0  0  0
  135.8236   69.4510  225.4797 H   0  0  0  0  0  0  0  0  0  0  0  0
  134.9000   72.1830  224.7260 H   0  0  0  0  0  0  0  0  0  0  0  0
  131.4882   71.4199  227.5456 H   0  0  0  0  0  0  0  0  0  0  0  0
  130.3834   73.5258  228.3018 H   0  0  0  0  0  0  0  0  0  0  0  0
  130.4668   75.9268  228.4399 H   0  0  0  0  0  0  0  0  0  0  0  0
  133.7819   78.0861  226.8141 H   0  0  0  0  0  0  0  0  0  0  0  0
  134.8411   75.9803  226.0809 H   0  0  0  0  0  0  0  0  0  0  0  0
  142.8909   75.8041  220.3022 H   0  0  0  0  0  0  0  0  0  0  0  0
  1  2  1  0
  2  3  1  0
  3  4  2  0
  4  5  1  0
  5  6  2  0
  6  7  1  0
  7  8  1  0
  7  9  1  0
  9 10  1  0
 10 11  2  0
 10 12  1  0
 12 13  1  0
 13 14  1  0
 14 15  1  0
 14 16  1  0
 16 17  1  0
 17 18  1  0
 18 19  2  0
 18 20  1  0
 20 21  1  0
 21 22  1  0
 22 23  2  0
 22 24  1  0
 24 25  2  0
 25 26  1  0
 26 27  2  0
 27 28  1  0
 28 29  2  0
 29 30  1  0
 29 31  1  0
 31 32  2  0
 32 33  1  0
 33 34  2  0
  6 35  1  0
 35 36  1  0
 35 37  2  0
 37  3  1  0
 17 12  1  0
 34 24  1  0
 33 27  1  0
  1 38  1  0
  1 39  1  0
  1 40  1  0
  4 41  1  0
  5 42  1  0
  7 43  1  1
  8 44  1  0
  8 45  1  0
  8 46  1  0
  9 47  1  0
 12 48  1  1
 13 49  1  0
 13 50  1  0
 14 51  1  6
 15 52  1  0
 16 53  1  0
 16 54  1  0
 20 55  1  0
 20 56  1  0
 21 57  1  0
 25 58  1  0
 26 59  1  0
 28 60  1  0
 31 61  1  0
 32 62  1  0
 37 63  1  0
M  END
>  <smiles>  (20) 
COc1ccc([C@H](C)NC(=O)[C@@H]2C[C@@H](O)CN2C(=O)CNC(=O)c2ccc3cc(F)ccc3n2)c(Cl)c1

>  <score_type>  (20) 
oracle

>  <origin>  (20) 
autodockgpu

>  <m_score__min__energy>  (20) 
-8.7400000000000002

>  <m_primary>  (20) 
energy

>  <rmsd>  (20) 
8.59863315216579

>  <m_score__min__rmsd>  (20) 
8.59863315216579

>  <meeko>  (20) 
{"free_energy": -7.73, "intermolecular_energy": -10.41, "internal_energy": -2.64, "cluster_size": 1, "cluster_id": 8, "rank_in_cluster": 1}

>  <energy>  (20) 
-7.54

>  <cluster_rmsd>  (20) 
0.99

>  <cluster>  (20) 
4

$$$$

     RDKit          3D

 63 66  0  0  0  0  0  0  0  0999 V2000
  138.0720   80.8220  224.3070 C   0  0  0  0  0  0  0  0  0  0  0  0
  138.9770   79.7740  224.4910 O   0  0  0  0  0  0  0  0  0  0  0  0
  139.6390   79.0870  223.4910 C   0  0  0  0  0  0  0  0  0  0  0  0
  140.9760   79.3960  223.2520 C   0  0  0  0  0  0  0  0  0  0  0  0
  141.7010   78.7420  222.2610 C   0  0  0  0  0  0  0  0  0  0  0  0
  141.1110   77.7490  221.4670 C   0  0  0  0  0  0  0  0  0  0  0  0
  141.9460   77.1090  220.4650 C   0  0  2  0  0  0  0  0  0  0  0  0
  141.6700   77.5190  219.0410 C   0  0  0  0  0  0  0  0  0  0  0  0
  141.9680   75.6560  220.5240 N   0  0  0  0  0  0  0  0  0  0  0  0
  143.1660   74.8990  220.3440 C   0  0  0  0  0  0  0  0  0  0  0  0
  144.2890   75.4630  220.1180 O   0  0  0  0  0  0  0  0  0  0  0  0
  143.0350   73.4200  220.4320 C   0  0  2  0  0  0  0  0  0  0  0  0
  144.4260   72.7650  220.4760 C   0  0  0  0  0  0  0  0  0  0  0  0
  144.9080   73.1230  219.0850 C   0  0  1  0  0  0  0  0  0  0  0  0
  145.9470   72.3020  218.6660 O   0  0  0  0  0  0  0  0  0  0  0  0
  143.6810   73.0170  218.1970 C   0  0  0  0  0  0  0  0  0  0  0  0
  142.5870   72.8630  219.1670 N   0  0  0  0  0  0  0  0  0  0  0  0
  141.3020   72.2590  218.9060 C   0  0  0  0  0  0  0  0  0  0  0  0
  141.2280   71.3190  218.0750 O   0  0  0  0  0  0  0  0  0  0  0  0
  140.1230   72.7910  219.6450 C   0  0  0  0  0  0  0  0  0  0  0  0
  139.9350   72.0280  220.8640 N   0  0  0  0  0  0  0  0  0  0  0  0
  140.1680   72.5530  222.1600 C   0  0  0  0  0  0  0  0  0  0  0  0
  140.5650   73.7530  222.3260 O   0  0  0  0  0  0  0  0  0  0  0  0
  139.9520   71.7020  223.3400 C   0  0  0  0  0  0  0  0  0  0  0  0
  139.1450   70.5890  223.3160 C   0  0  0  0  0  0  0  0  0  0  0  0
  138.9480   69.7890  224.4350 C   0  0  0  0  0  0  0  0  0  0  0  0
  139.6020   70.1560  225.5860 C   0  0  0  0  0  0  0  0  0  0  0  0
  139.4540   69.4070  226.7420 C   0  0  0  0  0  0  0  0  0  0  0  0
  140.0960   69.7440  227.9260 C   0  0  0  0  0  0  0  0  0  0  0  0
  139.9640   69.0280  229.0630 F   0  0  0  0  0  0  0  0  0  0  0  0
  140.9020   70.8720  227.9150 C   0  0  0  0  0  0  0  0  0  0  0  0
  141.0820   71.6490  226.7940 C   0  0  0  0  0  0  0  0  0  0  0  0
  140.4170   71.2730  225.6260 C   0  0  0  0  0  0  0  0  0  0  0  0
  140.5580   71.9980  224.5020 N   0  0  0  0  0  0  0  0  0  0  0  0
  139.7760   77.4450  221.7100 C   0  0  0  0  0  0  0  0  0  0  0  0
  139.0230   76.2160  220.7310 Cl  0  0  0  0  0  0  0  0  0  0  0  0
  139.0650   78.1130  222.7090 C   0  0  0  0  0  0  0  0  0  0  0  0
  137.7452   81.2005  225.2868 H   0  0  0  0  0  0  0  0  0  0  0  0
  138.5589   81.6324  223.7447 H   0  0  0  0  0  0  0  0  0  0  0  0
  137.1993   80.4584  223.7447 H   0  0  0  0  0  0  0  0  0  0  0  0
  141.4676   80.1714  223.8579 H   0  0  0  0  0  0  0  0  0  0  0  0
  142.7556   79.0088  222.0977 H   0  0  0  0  0  0  0  0  0  0  0  0
  142.9369   77.4913  220.7512 H   0  0  0  0  0  0  0  0  0  0  0  0
  141.0557   78.4315  219.0347 H   0  0  0  0  0  0  0  0  0  0  0  0
  142.6215   77.7139  218.5246 H   0  0  0  0  0  0  0  0  0  0  0  0
  141.1314   76.7108  218.5246 H   0  0  0  0  0  0  0  0  0  0  0  0
  141.0510   75.1460  220.7100 H   0  0  0  0  0  0  0  0  0  0  0  0
  142.3786   73.2423  221.2967 H   0  0  0  0  0  0  0  0  0  0  0  0
  145.0630   73.2042  221.2578 H   0  0  0  0  0  0  0  0  0  0  0  0
  144.4332   71.6912  220.7147 H   0  0  0  0  0  0  0  0  0  0  0  0
  145.3351   74.1361  219.0493 H   0  0  0  0  0  0  0  0  0  0  0  0
  145.6170   71.6470  218.0090 H   0  0  0  0  0  0  0  0  0  0  0  0
  143.5495   73.9270  217.5931 H   0  0  0  0  0  0  0  0  0  0  0  0
  143.7388   72.1915  217.4722 H   0  0  0  0  0  0  0  0  0  0  0  0
  140.2937   73.8482  219.8963 H   0  0  0  0  0  0  0  0  0  0  0  0
  139.2251   72.7054  219.0154 H   0  0  0  0  0  0  0  0  0  0  0  0
  139.6080   71.0210  220.8300 H   0  0  0  0  0  0  0  0  0  0  0  0
  138.6372   70.3223  222.3774 H   0  0  0  0  0  0  0  0  0  0  0  0
  138.2980   68.9023  224.4007 H   0  0  0  0  0  0  0  0  0  0  0  0
  138.8075   68.5173  226.7212 H   0  0  0  0  0  0  0  0  0  0  0  0
  141.4198   71.1580  228.8424 H   0  0  0  0  0  0  0  0  0  0  0  0
  141.7293   72.5381  226.8175 H   0  0  0  0  0  0  0  0  0  0  0  0
  138.0098   77.8510  222.8759 H   0  0  0  0  0  0  0  0  0  0  0  0
  1  2  1  0
  2  3  1  0
  3  4  2  0
  4  5  1  0
  5  6  2  0
  6  7  1  0
  7  8  1  0
  7  9  1  0
  9 10  1  0
 10 11  2  0
 10 12  1  0
 12 13  1  0
 13 14  1  0
 14 15  1  0
 14 16  1  0
 16 17  1  0
 17 18  1  0
 18 19  2  0
 18 20  1  0
 20 21  1  0
 21 22  1  0
 22 23  2  0
 22 24  1  0
 24 25  2  0
 25 26  1  0
 26 27  2  0
 27 28  1  0
 28 29  2  0
 29 30  1  0
 29 31  1  0
 31 32  2  0
 32 33  1  0
 33 34  2  0
  6 35  1  0
 35 36  1  0
 35 37  2  0
 37  3  1  0
 17 12  1  0
 34 24  1  0
 33 27  1  0
  1 38  1  0
  1 39  1  0
  1 40  1  0
  4 41  1  0
  5 42  1  0
  7 43  1  1
  8 44  1  0
  8 45  1  0
  8 46  1  0
  9 47  1  0
 12 48  1  1
 13 49  1  0
 13 50  1  0
 14 51  1  1
 15 52  1  0
 16 53  1  0
 16 54  1  0
 20 55  1  0
 20 56  1  0
 21 57  1  0
 25 58  1  0
 26 59  1  0
 28 60  1  0
 31 61  1  0
 32 62  1  0
 37 63  1  0
M  END
>  <smiles>  (21) 
COc1ccc([C@H](C)NC(=O)[C@@H]2C[C@@H](O)CN2C(=O)CNC(=O)c2ccc3cc(F)ccc3n2)c(Cl)c1

>  <score_type>  (21) 
oracle

>  <origin>  (21) 
autodockgpu

>  <m_score__min__energy>  (21) 
-8.7400000000000002

>  <m_primary>  (21) 
energy

>  <rmsd>  (21) 
4.131787094324048

>  <m_score__min__rmsd>  (21) 
4.131787094324048

>  <meeko>  (21) 
{"free_energy": -8.51, "intermolecular_energy": -11.19, "internal_energy": -2.65, "cluster_size": 4, "cluster_id": 1, "rank_in_cluster": 3}

>  <energy>  (21) 
-8.27

>  <cluster_rmsd>  (21) 
0.0

>  <cluster>  (21) 
5

$$$$

     RDKit          3D

 63 66  0  0  0  0  0  0  0  0999 V2000
  147.2080   74.4620  215.8750 C   0  0  0  0  0  0  0  0  0  0  0  0
  146.7070   73.3380  216.5380 O   0  0  0  0  0  0  0  0  0  0  0  0
  145.8640   73.3490  217.6310 C   0  0  0  0  0  0  0  0  0  0  0  0
  144.4900   73.3290  217.4060 C   0  0  0  0  0  0  0  0  0  0  0  0
  143.5850   73.3380  218.4630 C   0  0  0  0  0  0  0  0  0  0  0  0
  144.0260   73.3670  219.7930 C   0  0  0  0  0  0  0  0  0  0  0  0
  143.0120   73.3600  220.8340 C   0  0  2  0  0  0  0  0  0  0  0  0
  142.4460   72.0050  221.1730 C   0  0  0  0  0  0  0  0  0  0  0  0
  141.9030   74.2750  220.6140 N   0  0  0  0  0  0  0  0  0  0  0  0
  142.0890   75.6010  220.1150 C   0  0  0  0  0  0  0  0  0  0  0  0
  143.2490   76.0560  219.8340 O   0  0  0  0  0  0  0  0  0  0  0  0
  140.8610   76.4210  219.9400 C   0  0  2  0  0  0  0  0  0  0  0  0
  141.2370   77.8800  219.6280 C   0  0  0  0  0  0  0  0  0  0  0  0
  141.8820   78.2540  220.9460 C   0  0  1  0  0  0  0  0  0  0  0  0
  141.9260   79.6290  221.1340 O   0  0  0  0  0  0  0  0  0  0  0  0
  141.0610   77.5430  222.0080 C   0  0  0  0  0  0  0  0  0  0  0  0
  140.2040   76.6490  221.2160 N   0  0  0  0  0  0  0  0  0  0  0  0
  138.9340   76.1030  221.6320 C   0  0  0  0  0  0  0  0  0  0  0  0
  138.2240   76.7580  222.4370 O   0  0  0  0  0  0  0  0  0  0  0  0
  138.5330   74.7790  221.0790 C   0  0  0  0  0  0  0  0  0  0  0  0
  138.7260   73.7570  222.0900 N   0  0  0  0  0  0  0  0  0  0  0  0
  139.2990   72.4880  221.8220 C   0  0  0  0  0  0  0  0  0  0  0  0
  139.6840   72.1720  220.6490 O   0  0  0  0  0  0  0  0  0  0  0  0
  139.4540   71.5140  222.9120 C   0  0  0  0  0  0  0  0  0  0  0  0
  139.0230   70.2130  222.8130 C   0  0  0  0  0  0  0  0  0  0  0  0
  139.1760   69.2980  223.8480 C   0  0  0  0  0  0  0  0  0  0  0  0
  139.7840   69.7490  224.9940 C   0  0  0  0  0  0  0  0  0  0  0  0
  139.9700   68.8950  226.0690 C   0  0  0  0  0  0  0  0  0  0  0  0
  140.5800   69.3110  227.2450 C   0  0  0  0  0  0  0  0  0  0  0  0
  140.7700   68.4950  228.3030 F   0  0  0  0  0  0  0  0  0  0  0  0
  141.0020   70.6310  227.3100 C   0  0  0  0  0  0  0  0  0  0  0  0
  140.8400   71.5180  226.2720 C   0  0  0  0  0  0  0  0  0  0  0  0
  140.2220   71.0560  225.1090 C   0  0  0  0  0  0  0  0  0  0  0  0
  140.0390   71.8830  224.0640 N   0  0  0  0  0  0  0  0  0  0  0  0
  145.3990   73.3870  220.0130 C   0  0  0  0  0  0  0  0  0  0  0  0
  145.9660   73.4280  221.6600 Cl  0  0  0  0  0  0  0  0  0  0  0  0
  146.2910   73.3780  218.9390 C   0  0  0  0  0  0  0  0  0  0  0  0
  147.5397   75.2061  216.6141 H   0  0  0  0  0  0  0  0  0  0  0  0
  148.0596   74.1665  215.2446 H   0  0  0  0  0  0  0  0  0  0  0  0
  146.4189   74.8978  215.2446 H   0  0  0  0  0  0  0  0  0  0  0  0
  144.1128   73.3056  216.3730 H   0  0  0  0  0  0  0  0  0  0  0  0
  142.5057   73.3221  218.2512 H   0  0  0  0  0  0  0  0  0  0  0  0
  143.6005   73.7145  221.6931 H   0  0  0  0  0  0  0  0  0  0  0  0
  142.3982   71.8906  222.2660 H   0  0  0  0  0  0  0  0  0  0  0  0
  141.4346   71.9139  220.7502 H   0  0  0  0  0  0  0  0  0  0  0  0
  143.0921   71.2215  220.7502 H   0  0  0  0  0  0  0  0  0  0  0  0
  140.9180   73.9350  220.8370 H   0  0  0  0  0  0  0  0  0  0  0  0
  140.2686   75.8904  219.1801 H   0  0  0  0  0  0  0  0  0  0  0  0
  141.9447   77.9518  218.7889 H   0  0  0  0  0  0  0  0  0  0  0  0
  140.4021   78.5237  219.3139 H   0  0  0  0  0  0  0  0  0  0  0  0
  142.9365   77.9435  220.9864 H   0  0  0  0  0  0  0  0  0  0  0  0
  142.8590   79.9260  221.2480 H   0  0  0  0  0  0  0  0  0  0  0  0
  141.7068   76.9705  222.6901 H   0  0  0  0  0  0  0  0  0  0  0  0
  140.4936   78.2312  222.6517 H   0  0  0  0  0  0  0  0  0  0  0  0
  137.4734   74.8095  220.7853 H   0  0  0  0  0  0  0  0  0  0  0  0
  139.1497   74.5462  220.1984 H   0  0  0  0  0  0  0  0  0  0  0  0
  138.4370   73.9260  223.0950 H   0  0  0  0  0  0  0  0  0  0  0  0
  138.5396   69.8839  221.8813 H   0  0  0  0  0  0  0  0  0  0  0  0
  138.8259   68.2595  223.7536 H   0  0  0  0  0  0  0  0  0  0  0  0
  139.6234   67.8542  225.9883 H   0  0  0  0  0  0  0  0  0  0  0  0
  141.4873   70.9833  228.2321 H   0  0  0  0  0  0  0  0  0  0  0  0
  141.1864   72.5587  226.3555 H   0  0  0  0  0  0  0  0  0  0  0  0
  147.3714   73.3946  219.1452 H   0  0  0  0  0  0  0  0  0  0  0  0
  1  2  1  0
  2  3  1  0
  3  4  2  0
  4  5  1  0
  5  6  2  0
  6  7  1  0
  7  8  1  0
  7  9  1  0
  9 10  1  0
 10 11  2  0
 10 12  1  0
 12 13  1  0
 13 14  1  0
 14 15  1  0
 14 16  1  0
 16 17  1  0
 17 18  1  0
 18 19  2  0
 18 20  1  0
 20 21  1  0
 21 22  1  0
 22 23  2  0
 22 24  1  0
 24 25  2  0
 25 26  1  0
 26 27  2  0
 27 28  1  0
 28 29  2  0
 29 30  1  0
 29 31  1  0
 31 32  2  0
 32 33  1  0
 33 34  2  0
  6 35  1  0
 35 36  1  0
 35 37  2  0
 37  3  1  0
 17 12  1  0
 34 24  1  0
 33 27  1  0
  1 38  1  0
  1 39  1  0
  1 40  1  0
  4 41  1  0
  5 42  1  0
  7 43  1  1
  8 44  1  0
  8 45  1  0
  8 46  1  0
  9 47  1  0
 12 48  1  6
 13 49  1  0
 13 50  1  0
 14 51  1  6
 15 52  1  0
 16 53  1  0
 16 54  1  0
 20 55  1  0
 20 56  1  0
 21 57  1  0
 25 58  1  0
 26 59  1  0
 28 60  1  0
 31 61  1  0
 32 62  1  0
 37 63  1  0
M  END
>  <smiles>  (22) 
COc1ccc([C@H](C)NC(=O)[C@@H]2C[C@@H](O)CN2C(=O)CNC(=O)c2ccc3cc(F)ccc3n2)c(Cl)c1

>  <score_type>  (22) 
oracle

>  <origin>  (22) 
autodockgpu

>  <m_score__min__energy>  (22) 
-8.7400000000000002

>  <m_primary>  (22) 
energy

>  <rmsd>  (22) 
6.606539295404673

>  <m_score__min__rmsd>  (22) 
6.606539295404673

>  <meeko>  (22) 
{"free_energy": -7.82, "intermolecular_energy": -10.51, "internal_energy": -3.01, "cluster_size": 1, "cluster_id": 7, "rank_in_cluster": 1}

>  <energy>  (22) 
-8.04

>  <cluster_rmsd>  (22) 
0.0

>  <cluster>  (22) 
6

$$$$

     RDKit          3D

 63 66  0  0  0  0  0  0  0  0999 V2000
  139.7630   83.1650  220.7580 C   0  0  0  0  0  0  0  0  0  0  0  0
  139.2680   81.8860  220.4860 O   0  0  0  0  0  0  0  0  0  0  0  0
  140.0140   80.7930  220.0910 C   0  0  0  0  0  0  0  0  0  0  0  0
  141.3990   80.9260  220.0290 C   0  0  0  0  0  0  0  0  0  0  0  0
  142.2090   79.8640  219.6400 C   0  0  0  0  0  0  0  0  0  0  0  0
  141.6590   78.6220  219.2960 C   0  0  0  0  0  0  0  0  0  0  0  0
  142.5800   77.5650  218.9150 C   0  0  2  0  0  0  0  0  0  0  0  0
  142.2680   76.8790  217.6090 C   0  0  0  0  0  0  0  0  0  0  0  0
  142.7900   76.5410  219.9270 N   0  0  0  0  0  0  0  0  0  0  0  0
  143.5220   75.3430  219.6660 C   0  0  0  0  0  0  0  0  0  0  0  0
  144.0350   75.1040  218.5210 O   0  0  0  0  0  0  0  0  0  0  0  0
  143.6560   74.3880  220.7980 C   0  0  2  0  0  0  0  0  0  0  0  0
  145.0890   73.8300  220.8570 C   0  0  0  0  0  0  0  0  0  0  0  0
  145.0980   73.0450  219.5620 C   0  0  1  0  0  0  0  0  0  0  0  0
  146.0930   72.0760  219.5470 O   0  0  0  0  0  0  0  0  0  0  0  0
  143.7040   72.4570  219.4410 C   0  0  0  0  0  0  0  0  0  0  0  0
  142.9640   73.1430  220.5100 N   0  0  0  0  0  0  0  0  0  0  0  0
  141.7700   72.6590  221.1600 C   0  0  0  0  0  0  0  0  0  0  0  0
  141.8330   71.6080  221.8480 O   0  0  0  0  0  0  0  0  0  0  0  0
  140.5150   73.4410  220.9770 C   0  0  0  0  0  0  0  0  0  0  0  0
  140.7000   74.7780  221.5070 N   0  0  0  0  0  0  0  0  0  0  0  0
  139.6280   75.6450  221.8380 C   0  0  0  0  0  0  0  0  0  0  0  0
  138.4160   75.2850  221.6830 O   0  0  0  0  0  0  0  0  0  0  0  0
  139.9140   76.9870  222.3690 C   0  0  0  0  0  0  0  0  0  0  0  0
  138.9340   77.8190  222.8540 C   0  0  0  0  0  0  0  0  0  0  0  0
  139.2130   79.0830  223.3570 C   0  0  0  0  0  0  0  0  0  0  0  0
  140.5280   79.4790  223.3520 C   0  0  0  0  0  0  0  0  0  0  0  0
  140.8840   80.7280  223.8360 C   0  0  0  0  0  0  0  0  0  0  0  0
  142.2010   81.1660  223.8480 C   0  0  0  0  0  0  0  0  0  0  0  0
  142.5680   82.3790  224.3150 F   0  0  0  0  0  0  0  0  0  0  0  0
  143.1640   80.3010  223.3510 C   0  0  0  0  0  0  0  0  0  0  0  0
  142.8630   79.0530  222.8590 C   0  0  0  0  0  0  0  0  0  0  0  0
  141.5260   78.6530  222.8660 C   0  0  0  0  0  0  0  0  0  0  0  0
  141.1770   77.4430  222.3960 N   0  0  0  0  0  0  0  0  0  0  0  0
  140.2750   78.4950  219.3590 C   0  0  0  0  0  0  0  0  0  0  0  0
  139.5730   76.9580  218.9320 Cl  0  0  0  0  0  0  0  0  0  0  0  0
  139.4800   79.5720  219.7520 C   0  0  0  0  0  0  0  0  0  0  0  0
  139.8200   83.3123  221.8466 H   0  0  0  0  0  0  0  0  0  0  0  0
  140.7668   83.2703  220.3207 H   0  0  0  0  0  0  0  0  0  0  0  0
  139.0916   83.9187  220.3207 H   0  0  0  0  0  0  0  0  0  0  0  0
  141.8611   81.8888  220.2926 H   0  0  0  0  0  0  0  0  0  0  0  0
  143.2997   80.0016  219.6018 H   0  0  0  0  0  0  0  0  0  0  0  0
  143.5095   78.1404  218.7926 H   0  0  0  0  0  0  0  0  0  0  0  0
  141.8203   75.8945  217.8098 H   0  0  0  0  0  0  0  0  0  0  0  0
  141.5605   77.4928  217.0322 H   0  0  0  0  0  0  0  0  0  0  0  0
  143.1956   76.7492  217.0322 H   0  0  0  0  0  0  0  0  0  0  0  0
  142.3780   76.7000  220.8970 H   0  0  0  0  0  0  0  0  0  0  0  0
  143.3060   74.9417  221.6817 H   0  0  0  0  0  0  0  0  0  0  0  0
  145.8428   74.6312  220.8577 H   0  0  0  0  0  0  0  0  0  0  0  0
  145.3318   73.2509  221.7601 H   0  0  0  0  0  0  0  0  0  0  0  0
  145.3329   73.6849  218.6986 H   0  0  0  0  0  0  0  0  0  0  0  0
  146.0610   71.5450  220.3750 H   0  0  0  0  0  0  0  0  0  0  0  0
  143.2671   72.6742  218.4551 H   0  0  0  0  0  0  0  0  0  0  0  0
  143.6853   71.3611  219.5341 H   0  0  0  0  0  0  0  0  0  0  0  0
  140.2727   73.5010  219.9057 H   0  0  0  0  0  0  0  0  0  0  0  0
  139.6912   72.9445  221.5107 H   0  0  0  0  0  0  0  0  0  0  0  0
  141.6710   75.1680  221.6710 H   0  0  0  0  0  0  0  0  0  0  0  0
  137.8905   77.4712  222.8435 H   0  0  0  0  0  0  0  0  0  0  0  0
  138.4169   79.7373  223.7419 H   0  0  0  0  0  0  0  0  0  0  0  0
  140.0979   81.3932  224.2228 H   0  0  0  0  0  0  0  0  0  0  0  0
  144.2144   80.6275  223.3503 H   0  0  0  0  0  0  0  0  0  0  0  0
  143.6513   78.3906  222.4720 H   0  0  0  0  0  0  0  0  0  0  0  0
  138.3887   79.4399  219.7921 H   0  0  0  0  0  0  0  0  0  0  0  0
  1  2  1  0
  2  3  1  0
  3  4  2  0
  4  5  1  0
  5  6  2  0
  6  7  1  0
  7  8  1  0
  7  9  1  0
  9 10  1  0
 10 11  2  0
 10 12  1  0
 12 13  1  0
 13 14  1  0
 14 15  1  0
 14 16  1  0
 16 17  1  0
 17 18  1  0
 18 19  2  0
 18 20  1  0
 20 21  1  0
 21 22  1  0
 22 23  2  0
 22 24  1  0
 24 25  2  0
 25 26  1  0
 26 27  2  0
 27 28  1  0
 28 29  2  0
 29 30  1  0
 29 31  1  0
 31 32  2  0
 32 33  1  0
 33 34  2  0
  6 35  1  0
 35 36  1  0
 35 37  2  0
 37  3  1  0
 17 12  1  0
 34 24  1  0
 33 27  1  0
  1 38  1  0
  1 39  1  0
  1 40  1  0
  4 41  1  0
  5 42  1  0
  7 43  1  6
  8 44  1  0
  8 45  1  0
  8 46  1  0
  9 47  1  0
 12 48  1  1
 13 49  1  0
 13 50  1  0
 14 51  1  6
 15 52  1  0
 16 53  1  0
 16 54  1  0
 20 55  1  0
 20 56  1  0
 21 57  1  0
 25 58  1  0
 26 59  1  0
 28 60  1  0
 31 61  1  0
 32 62  1  0
 37 63  1  0
M  END
>  <smiles>  (23) 
COc1ccc([C@H](C)NC(=O)[C@@H]2C[C@@H](O)CN2C(=O)CNC(=O)c2ccc3cc(F)ccc3n2)c(Cl)c1

>  <score_type>  (23) 
oracle

>  <origin>  (23) 
autodockgpu

>  <m_score__min__energy>  (23) 
-8.7400000000000002

>  <m_primary>  (23) 
energy

>  <rmsd>  (23) 
6.630095371045939

>  <m_score__min__rmsd>  (23) 
6.630095371045939

>  <meeko>  (23) 
{"free_energy": -7.47, "intermolecular_energy": -10.16, "internal_energy": -4.26, "cluster_size": 19, "cluster_id": 9, "rank_in_cluster": 1}

>  <energy>  (23) 
-7.82

>  <cluster_rmsd>  (23) 
0.0

>  <cluster>  (23) 
7

$$$$

     RDKit          3D

 63 66  0  0  0  0  0  0  0  0999 V2000
  141.0850   82.2710  220.4150 C   0  0  0  0  0  0  0  0  0  0  0  0
  140.4380   81.3860  219.5480 O   0  0  0  0  0  0  0  0  0  0  0  0
  140.9240   80.1660  219.1200 C   0  0  0  0  0  0  0  0  0  0  0  0
  142.2830   80.0590  218.8360 C   0  0  0  0  0  0  0  0  0  0  0  0
  142.8370   78.8590  218.4010 C   0  0  0  0  0  0  0  0  0  0  0  0
  142.0460   77.7140  218.2350 C   0  0  0  0  0  0  0  0  0  0  0  0
  142.7100   76.5010  217.7910 C   0  0  2  0  0  0  0  0  0  0  0  0
  142.2090   75.9320  216.4880 C   0  0  0  0  0  0  0  0  0  0  0  0
  142.7450   75.4280  218.7720 N   0  0  0  0  0  0  0  0  0  0  0  0
  143.6250   75.4450  219.8980 C   0  0  0  0  0  0  0  0  0  0  0  0
  144.4340   76.4110  220.1030 O   0  0  0  0  0  0  0  0  0  0  0  0
  143.5480   74.2790  220.8170 C   0  0  2  0  0  0  0  0  0  0  0  0
  144.9520   73.6980  221.0580 C   0  0  0  0  0  0  0  0  0  0  0  0
  145.2490   73.1910  219.6620 C   0  0  1  0  0  0  0  0  0  0  0  0
  146.2520   72.2300  219.6590 O   0  0  0  0  0  0  0  0  0  0  0  0
  143.9260   72.6610  219.1390 C   0  0  0  0  0  0  0  0  0  0  0  0
  142.9640   73.1290  220.1480 N   0  0  0  0  0  0  0  0  0  0  0  0
  141.6740   72.5420  220.4250 C   0  0  0  0  0  0  0  0  0  0  0  0
  141.6230   71.3780  220.8960 O   0  0  0  0  0  0  0  0  0  0  0  0
  140.4630   73.3590  220.1320 C   0  0  0  0  0  0  0  0  0  0  0  0
  140.6050   74.6650  220.7460 N   0  0  0  0  0  0  0  0  0  0  0  0
  139.5430   75.3450  221.3950 C   0  0  0  0  0  0  0  0  0  0  0  0
  138.3800   74.8300  221.4750 O   0  0  0  0  0  0  0  0  0  0  0  0
  139.7810   76.6690  221.9880 C   0  0  0  0  0  0  0  0  0  0  0  0
  138.8070   77.3690  222.6600 C   0  0  0  0  0  0  0  0  0  0  0  0
  139.0420   78.6190  223.2190 C   0  0  0  0  0  0  0  0  0  0  0  0
  140.3050   79.1390  223.0760 C   0  0  0  0  0  0  0  0  0  0  0  0
  140.6140   80.3810  223.6060 C   0  0  0  0  0  0  0  0  0  0  0  0
  141.8780   80.9420  223.4830 C   0  0  0  0  0  0  0  0  0  0  0  0
  142.1980   82.1510  223.9920 F   0  0  0  0  0  0  0  0  0  0  0  0
  142.8360   80.2090  222.8000 C   0  0  0  0  0  0  0  0  0  0  0  0
  142.5800   78.9720  222.2540 C   0  0  0  0  0  0  0  0  0  0  0  0
  141.2950   78.4460  222.4020 C   0  0  0  0  0  0  0  0  0  0  0  0
  140.9920   77.2420  221.8880 N   0  0  0  0  0  0  0  0  0  0  0  0
  140.6900   77.8260  218.5200 C   0  0  0  0  0  0  0  0  0  0  0  0
  139.6890   76.4150  218.3150 Cl  0  0  0  0  0  0  0  0  0  0  0  0
  140.1520   79.0390  218.9540 C   0  0  0  0  0  0  0  0  0  0  0  0
  140.8751   81.9838  221.4559 H   0  0  0  0  0  0  0  0  0  0  0  0
  142.1696   82.2328  220.2357 H   0  0  0  0  0  0  0  0  0  0  0  0
  140.7195   83.2929  220.2357 H   0  0  0  0  0  0  0  0  0  0  0  0
  142.9308   80.9397  218.9578 H   0  0  0  0  0  0  0  0  0  0  0  0
  143.9141   78.8082  218.1837 H   0  0  0  0  0  0  0  0  0  0  0  0
  143.7327   76.8752  217.6361 H   0  0  0  0  0  0  0  0  0  0  0  0
  141.4948   75.1208  216.6926 H   0  0  0  0  0  0  0  0  0  0  0  0
  141.7092   76.7235  215.9103 H   0  0  0  0  0  0  0  0  0  0  0  0
  143.0574   75.5365  215.9103 H   0  0  0  0  0  0  0  0  0  0  0  0
  142.0850   74.6010  218.6380 H   0  0  0  0  0  0  0  0  0  0  0  0
  143.0084   74.6482  221.7016 H   0  0  0  0  0  0  0  0  0  0  0  0
  145.6678   74.4703  221.3761 H   0  0  0  0  0  0  0  0  0  0  0  0
  145.0186   72.9442  221.8564 H   0  0  0  0  0  0  0  0  0  0  0  0
  145.6392   73.9885  219.0126 H   0  0  0  0  0  0  0  0  0  0  0  0
  146.2190   71.7040  220.4910 H   0  0  0  0  0  0  0  0  0  0  0  0
  143.6957   73.0796  218.1482 H   0  0  0  0  0  0  0  0  0  0  0  0
  143.9178   71.5694  219.0037 H   0  0  0  0  0  0  0  0  0  0  0  0
  140.3525   73.4748  219.0437 H   0  0  0  0  0  0  0  0  0  0  0  0
  139.5727   72.8563  220.5377 H   0  0  0  0  0  0  0  0  0  0  0  0
  141.5330   75.1750  220.7300 H   0  0  0  0  0  0  0  0  0  0  0  0
  137.8061   76.9235  222.7586 H   0  0  0  0  0  0  0  0  0  0  0  0
  138.2517   79.1677  223.7523 H   0  0  0  0  0  0  0  0  0  0  0  0
  139.8329   80.9407  224.1414 H   0  0  0  0  0  0  0  0  0  0  0  0
  143.8444   80.6345  222.6897 H   0  0  0  0  0  0  0  0  0  0  0  0
  143.3628   78.4153  221.7180 H   0  0  0  0  0  0  0  0  0  0  0  0
  139.0750   79.0957  219.1705 H   0  0  0  0  0  0  0  0  0  0  0  0
  1  2  1  0
  2  3  1  0
  3  4  2  0
  4  5  1  0
  5  6  2  0
  6  7  1  0
  7  8  1  0
  7  9  1  0
  9 10  1  0
 10 11  2  0
 10 12  1  0
 12 13  1  0
 13 14  1  0
 14 15  1  0
 14 16  1  0
 16 17  1  0
 17 18  1  0
 18 19  2  0
 18 20  1  0
 20 21  1  0
 21 22  1  0
 22 23  2  0
 22 24  1  0
 24 25  2  0
 25 26  1  0
 26 27  2  0
 27 28  1  0
 28 29  2  0
 29 30  1  0
 29 31  1  0
 31 32  2  0
 32 33  1  0
 33 34  2  0
  6 35  1  0
 35 36  1  0
 35 37  2  0
 37  3  1  0
 17 12  1  0
 34 24  1  0
 33 27  1  0
  1 38  1  0
  1 39  1  0
  1 40  1  0
  4 41  1  0
  5 42  1  0
  7 43  1  6
  8 44  1  0
  8 45  1  0
  8 46  1  0
  9 47  1  0
 12 48  1  1
 13 49  1  0
 13 50  1  0
 14 51  1  6
 15 52  1  0
 16 53  1  0
 16 54  1  0
 20 55  1  0
 20 56  1  0
 21 57  1  0
 25 58  1  0
 26 59  1  0
 28 60  1  0
 31 61  1  0
 32 62  1  0
 37 63  1  0
M  END
>  <smiles>  (24) 
COc1ccc([C@H](C)NC(=O)[C@@H]2C[C@@H](O)CN2C(=O)CNC(=O)c2ccc3cc(F)ccc3n2)c(Cl)c1

>  <score_type>  (24) 
oracle

>  <origin>  (24) 
autodockgpu

>  <m_score__min__energy>  (24) 
-8.7400000000000002

>  <m_primary>  (24) 
energy

>  <rmsd>  (24) 
6.88077697182156

>  <m_score__min__rmsd>  (24) 
6.88077697182156

>  <meeko>  (24) 
{"free_energy": -6.24, "intermolecular_energy": -8.92, "internal_energy": -4.36, "cluster_size": 19, "cluster_id": 9, "rank_in_cluster": 19}

>  <energy>  (24) 
-7.73

>  <cluster_rmsd>  (24) 
0.0

>  <cluster>  (24) 
8

$$$$

     RDKit          3D

 63 66  0  0  0  0  0  0  0  0999 V2000
  140.1130   82.0620  219.8640 C   0  0  0  0  0  0  0  0  0  0  0  0
  141.2960   81.5030  219.3720 O   0  0  0  0  0  0  0  0  0  0  0  0
  141.4560   80.2090  218.9190 C   0  0  0  0  0  0  0  0  0  0  0  0
  142.6840   79.8490  218.3690 C   0  0  0  0  0  0  0  0  0  0  0  0
  142.9120   78.5610  217.8940 C   0  0  0  0  0  0  0  0  0  0  0  0
  141.9130   77.5800  217.9530 C   0  0  0  0  0  0  0  0  0  0  0  0
  142.2420   76.2590  217.4460 C   0  0  2  0  0  0  0  0  0  0  0  0
  141.3320   75.7390  216.3640 C   0  0  0  0  0  0  0  0  0  0  0  0
  142.3720   75.2280  218.4650 N   0  0  0  0  0  0  0  0  0  0  0  0
  143.2730   75.3480  219.5670 C   0  0  0  0  0  0  0  0  0  0  0  0
  144.0180   76.3740  219.7170 O   0  0  0  0  0  0  0  0  0  0  0  0
  143.2970   74.2150  220.5300 C   0  0  2  0  0  0  0  0  0  0  0  0
  144.7490   73.8410  220.8750 C   0  0  0  0  0  0  0  0  0  0  0  0
  145.1990   73.3320  219.5210 C   0  0  1  0  0  0  0  0  0  0  0  0
  146.3200   72.5180  219.6160 O   0  0  0  0  0  0  0  0  0  0  0  0
  143.9950   72.6080  218.9460 C   0  0  0  0  0  0  0  0  0  0  0  0
  142.9170   72.9730  219.8780 N   0  0  0  0  0  0  0  0  0  0  0  0
  141.7040   72.2250  220.1050 C   0  0  0  0  0  0  0  0  0  0  0  0
  141.7770   71.1000  220.6620 O   0  0  0  0  0  0  0  0  0  0  0  0
  140.4190   72.8350  219.6620 C   0  0  0  0  0  0  0  0  0  0  0  0
  140.3410   74.1990  220.1480 N   0  0  0  0  0  0  0  0  0  0  0  0
  140.0390   74.5350  221.4920 C   0  0  0  0  0  0  0  0  0  0  0  0
  139.8140   73.6330  222.3640 O   0  0  0  0  0  0  0  0  0  0  0  0
  139.9810   75.9490  221.8940 C   0  0  0  0  0  0  0  0  0  0  0  0
  138.8440   76.5310  222.4020 C   0  0  0  0  0  0  0  0  0  0  0  0
  138.7990   77.8660  222.7810 C   0  0  0  0  0  0  0  0  0  0  0  0
  139.9520   78.5970  222.6280 C   0  0  0  0  0  0  0  0  0  0  0  0
  139.9830   79.9360  222.9830 C   0  0  0  0  0  0  0  0  0  0  0  0
  141.1270   80.7100  222.8430 C   0  0  0  0  0  0  0  0  0  0  0  0
  141.1770   82.0160  223.1830 F   0  0  0  0  0  0  0  0  0  0  0  0
  142.2550   80.0900  222.3270 C   0  0  0  0  0  0  0  0  0  0  0  0
  142.2760   78.7650  221.9590 C   0  0  0  0  0  0  0  0  0  0  0  0
  141.1030   78.0250  222.1170 C   0  0  0  0  0  0  0  0  0  0  0  0
  141.0690   76.7260  221.7720 N   0  0  0  0  0  0  0  0  0  0  0  0
  140.6880   77.9450  218.5020 C   0  0  0  0  0  0  0  0  0  0  0  0
  139.4320   76.7400  218.5790 Cl  0  0  0  0  0  0  0  0  0  0  0  0
  140.4790   79.2420  218.9720 C   0  0  0  0  0  0  0  0  0  0  0  0
  140.1327   82.0527  220.9638 H   0  0  0  0  0  0  0  0  0  0  0  0
  140.0214   83.0987  219.5077 H   0  0  0  0  0  0  0  0  0  0  0  0
  139.2540   81.4745  219.5077 H   0  0  0  0  0  0  0  0  0  0  0  0
  143.4886   80.5967  218.3090 H   0  0  0  0  0  0  0  0  0  0  0  0
  143.8929   78.3087  217.4650 H   0  0  0  0  0  0  0  0  0  0  0  0
  143.2310   76.4515  217.0045 H   0  0  0  0  0  0  0  0  0  0  0  0
  140.4637   75.2428  216.8222 H   0  0  0  0  0  0  0  0  0  0  0  0
  140.9883   76.5770  215.7398 H   0  0  0  0  0  0  0  0  0  0  0  0
  141.8795   75.0174  215.7398 H   0  0  0  0  0  0  0  0  0  0  0  0
  141.7690   74.3540  218.3770 H   0  0  0  0  0  0  0  0  0  0  0  0
  142.6585   74.5369  221.3658 H   0  0  0  0  0  0  0  0  0  0  0  0
  145.3325   74.7149  221.2005 H   0  0  0  0  0  0  0  0  0  0  0  0
  144.8666   73.1311  221.7070 H   0  0  0  0  0  0  0  0  0  0  0  0
  145.5184   74.1530  218.8623 H   0  0  0  0  0  0  0  0  0  0  0  0
  146.2370   71.9150  220.3910 H   0  0  0  0  0  0  0  0  0  0  0  0
  143.7725   72.9574  217.9270 H   0  0  0  0  0  0  0  0  0  0  0  0
  144.1429   71.5217  218.8564 H   0  0  0  0  0  0  0  0  0  0  0  0
  140.3716   72.8336  218.5630 H   0  0  0  0  0  0  0  0  0  0  0  0
  139.5774   72.2525  220.0649 H   0  0  0  0  0  0  0  0  0  0  0  0
  140.5120   75.0180  219.4990 H   0  0  0  0  0  0  0  0  0  0  0  0
  137.9377   75.9174  222.5121 H   0  0  0  0  0  0  0  0  0  0  0  0
  137.8814   78.3180  223.1856 H   0  0  0  0  0  0  0  0  0  0  0  0
  139.0722   80.4005  223.3887 H   0  0  0  0  0  0  0  0  0  0  0  0
  143.1731   80.6839  222.2068 H   0  0  0  0  0  0  0  0  0  0  0  0
  143.1881   78.3031  221.5531 H   0  0  0  0  0  0  0  0  0  0  0  0
  139.4990   79.5002  219.3997 H   0  0  0  0  0  0  0  0  0  0  0  0
  1  2  1  0
  2  3  1  0
  3  4  2  0
  4  5  1  0
  5  6  2  0
  6  7  1  0
  7  8  1  0
  7  9  1  0
  9 10  1  0
 10 11  2  0
 10 12  1  0
 12 13  1  0
 13 14  1  0
 14 15  1  0
 14 16  1  0
 16 17  1  0
 17 18  1  0
 18 19  2  0
 18 20  1  0
 20 21  1  0
 21 22  1  0
 22 23  2  0
 22 24  1  0
 24 25  2  0
 25 26  1  0
 26 27  2  0
 27 28  1  0
 28 29  2  0
 29 30  1  0
 29 31  1  0
 31 32  2  0
 32 33  1  0
 33 34  2  0
  6 35  1  0
 35 36  1  0
 35 37  2  0
 37  3  1  0
 17 12  1  0
 34 24  1  0
 33 27  1  0
  1 38  1  0
  1 39  1  0
  1 40  1  0
  4 41  1  0
  5 42  1  0
  7 43  1  6
  8 44  1  0
  8 45  1  0
  8 46  1  0
  9 47  1  0
 12 48  1  1
 13 49  1  0
 13 50  1  0
 14 51  1  6
 15 52  1  0
 16 53  1  0
 16 54  1  0
 20 55  1  0
 20 56  1  0
 21 57  1  0
 25 58  1  0
 26 59  1  0
 28 60  1  0
 31 61  1  0
 32 62  1  0
 37 63  1  0
M  END
>  <smiles>  (25) 
COc1ccc([C@H](C)NC(=O)[C@@H]2C[C@@H](O)CN2C(=O)CNC(=O)c2ccc3cc(F)ccc3n2)c(Cl)c1

>  <score_type>  (25) 
oracle

>  <origin>  (25) 
autodockgpu

>  <m_score__min__energy>  (25) 
-8.7400000000000002

>  <m_primary>  (25) 
energy

>  <rmsd>  (25) 
6.779300978290735

>  <m_score__min__rmsd>  (25) 
6.779300978290735

>  <meeko>  (25) 
{"free_energy": -6.48, "intermolecular_energy": -9.16, "internal_energy": -4.21, "cluster_size": 19, "cluster_id": 9, "rank_in_cluster": 10}

>  <energy>  (25) 
-7.47

>  <cluster_rmsd>  (25) 
0.0

>  <cluster>  (25) 
9

$$$$

     RDKit          3D

 63 66  0  0  0  0  0  0  0  0999 V2000
  141.1270   82.6180  219.6490 C   0  0  0  0  0  0  0  0  0  0  0  0
  140.4200   81.4170  219.5410 O   0  0  0  0  0  0  0  0  0  0  0  0
  140.9330   80.2070  219.1150 C   0  0  0  0  0  0  0  0  0  0  0  0
  142.2420   80.1750  218.6390 C   0  0  0  0  0  0  0  0  0  0  0  0
  142.8190   78.9900  218.1960 C   0  0  0  0  0  0  0  0  0  0  0  0
  142.1040   77.7850  218.2120 C   0  0  0  0  0  0  0  0  0  0  0  0
  142.7900   76.5930  217.7430 C   0  0  2  0  0  0  0  0  0  0  0  0
  142.3640   76.0980  216.3850 C   0  0  0  0  0  0  0  0  0  0  0  0
  142.7630   75.4690  218.6670 N   0  0  0  0  0  0  0  0  0  0  0  0
  143.6140   75.3960  219.8120 C   0  0  0  0  0  0  0  0  0  0  0  0
  144.4490   76.3220  220.0890 O   0  0  0  0  0  0  0  0  0  0  0  0
  143.4740   74.1870  220.6660 C   0  0  2  0  0  0  0  0  0  0  0  0
  144.8360   73.4890  220.8250 C   0  0  0  0  0  0  0  0  0  0  0  0
  145.0520   73.0460  219.3930 C   0  0  1  0  0  0  0  0  0  0  0  0
  145.9770   72.0140  219.3010 O   0  0  0  0  0  0  0  0  0  0  0  0
  143.6770   72.6490  218.8860 C   0  0  0  0  0  0  0  0  0  0  0  0
  142.7840   73.1260  219.9510 N   0  0  0  0  0  0  0  0  0  0  0  0
  141.4620   72.6220  220.2380 C   0  0  0  0  0  0  0  0  0  0  0  0
  140.8420   71.9930  219.3440 O   0  0  0  0  0  0  0  0  0  0  0  0
  140.9000   72.8810  221.5940 C   0  0  0  0  0  0  0  0  0  0  0  0
  140.9170   74.3070  221.8570 N   0  0  0  0  0  0  0  0  0  0  0  0
  139.7450   75.0980  221.9620 C   0  0  0  0  0  0  0  0  0  0  0  0
  138.5870   74.5840  221.8260 O   0  0  0  0  0  0  0  0  0  0  0  0
  139.8610   76.5390  222.2300 C   0  0  0  0  0  0  0  0  0  0  0  0
  138.7810   77.3240  222.5560 C   0  0  0  0  0  0  0  0  0  0  0  0
  138.9000   78.6850  222.8100 C   0  0  0  0  0  0  0  0  0  0  0  0
  140.1600   79.2270  222.7240 C   0  0  0  0  0  0  0  0  0  0  0  0
  140.3570   80.5770  222.9630 C   0  0  0  0  0  0  0  0  0  0  0  0
  141.6130   81.1640  222.8850 C   0  0  0  0  0  0  0  0  0  0  0  0
  141.8250   82.4780  223.1140 F   0  0  0  0  0  0  0  0  0  0  0  0
  142.6800   80.3430  222.5540 C   0  0  0  0  0  0  0  0  0  0  0  0
  142.5370   78.9970  222.3070 C   0  0  0  0  0  0  0  0  0  0  0  0
  141.2560   78.4490  222.3960 C   0  0  0  0  0  0  0  0  0  0  0  0
  141.0610   77.1400  222.1640 N   0  0  0  0  0  0  0  0  0  0  0  0
  140.7970   77.8220  218.6880 C   0  0  0  0  0  0  0  0  0  0  0  0
  139.8910   76.3350  218.7120 Cl  0  0  0  0  0  0  0  0  0  0  0  0
  140.2350   79.0210  219.1280 C   0  0  0  0  0  0  0  0  0  0  0  0
  141.2718   82.8640  220.7113 H   0  0  0  0  0  0  0  0  0  0  0  0
  142.1068   82.5119  219.1603 H   0  0  0  0  0  0  0  0  0  0  0  0
  140.5588   83.4232  219.1603 H   0  0  0  0  0  0  0  0  0  0  0  0
  142.8299   81.1044  218.6132 H   0  0  0  0  0  0  0  0  0  0  0  0
  143.8550   78.9986  217.8264 H   0  0  0  0  0  0  0  0  0  0  0  0
  143.8216   76.9672  217.6676 H   0  0  0  0  0  0  0  0  0  0  0  0
  141.6507   75.2691  216.5040 H   0  0  0  0  0  0  0  0  0  0  0  0
  141.8844   76.9176  215.8298 H   0  0  0  0  0  0  0  0  0  0  0  0
  143.2459   75.7459  215.8298 H   0  0  0  0  0  0  0  0  0  0  0  0
  142.0810   74.6740  218.4720 H   0  0  0  0  0  0  0  0  0  0  0  0
  142.9907   74.5417  221.5882 H   0  0  0  0  0  0  0  0  0  0  0  0
  145.6180   74.1851  221.1626 H   0  0  0  0  0  0  0  0  0  0  0  0
  144.8680   72.6857  221.5758 H   0  0  0  0  0  0  0  0  0  0  0  0
  145.4833   73.8493  218.7776 H   0  0  0  0  0  0  0  0  0  0  0  0
  146.0390   71.5360  220.1600 H   0  0  0  0  0  0  0  0  0  0  0  0
  143.4505   73.1421  217.9292 H   0  0  0  0  0  0  0  0  0  0  0  0
  143.5812   71.5710  218.6892 H   0  0  0  0  0  0  0  0  0  0  0  0
  139.8649   72.5116  221.6391 H   0  0  0  0  0  0  0  0  0  0  0  0
  141.5069   72.3603  222.3494 H   0  0  0  0  0  0  0  0  0  0  0  0
  141.8320   74.8250  221.9840 H   0  0  0  0  0  0  0  0  0  0  0  0
  137.7865   76.8581  222.6181 H   0  0  0  0  0  0  0  0  0  0  0  0
  138.0256   79.3005  223.0681 H   0  0  0  0  0  0  0  0  0  0  0  0
  139.4912   81.2039  223.2228 H   0  0  0  0  0  0  0  0  0  0  0  0
  143.6842   80.7868  222.4859 H   0  0  0  0  0  0  0  0  0  0  0  0
  143.4046   78.3724  222.0476 H   0  0  0  0  0  0  0  0  0  0  0  0
  139.1990   79.0181  219.4978 H   0  0  0  0  0  0  0  0  0  0  0  0
  1  2  1  0
  2  3  1  0
  3  4  2  0
  4  5  1  0
  5  6  2  0
  6  7  1  0
  7  8  1  0
  7  9  1  0
  9 10  1  0
 10 11  2  0
 10 12  1  0
 12 13  1  0
 13 14  1  0
 14 15  1  0
 14 16  1  0
 16 17  1  0
 17 18  1  0
 18 19  2  0
 18 20  1  0
 20 21  1  0
 21 22  1  0
 22 23  2  0
 22 24  1  0
 24 25  2  0
 25 26  1  0
 26 27  2  0
 27 28  1  0
 28 29  2  0
 29 30  1  0
 29 31  1  0
 31 32  2  0
 32 33  1  0
 33 34  2  0
  6 35  1  0
 35 36  1  0
 35 37  2  0
 37  3  1  0
 17 12  1  0
 34 24  1  0
 33 27  1  0
  1 38  1  0
  1 39  1  0
  1 40  1  0
  4 41  1  0
  5 42  1  0
  7 43  1  6
  8 44  1  0
  8 45  1  0
  8 46  1  0
  9 47  1  0
 12 48  1  1
 13 49  1  0
 13 50  1  0
 14 51  1  6
 15 52  1  0
 16 53  1  0
 16 54  1  0
 20 55  1  0
 20 56  1  0
 21 57  1  0
 25 58  1  0
 26 59  1  0
 28 60  1  0
 31 61  1  0
 32 62  1  0
 37 63  1  0
M  END
>  <smiles>  (26) 
COc1ccc([C@H](C)NC(=O)[C@@H]2C[C@@H](O)CN2C(=O)CNC(=O)c2ccc3cc(F)ccc3n2)c(Cl)c1

>  <score_type>  (26) 
oracle

>  <origin>  (26) 
autodockgpu

>  <m_score__min__energy>  (26) 
-8.7400000000000002

>  <m_primary>  (26) 
energy

>  <rmsd>  (26) 
6.916463837478533

>  <m_score__min__rmsd>  (26) 
6.916463837478533

>  <meeko>  (26) 
{"free_energy": -6.33, "intermolecular_energy": -9.02, "internal_energy": -4.41, "cluster_size": 19, "cluster_id": 9, "rank_in_cluster": 17}

>  <energy>  (26) 
-7.05

>  <cluster_rmsd>  (26) 
0.67

>  <cluster>  (26) 
9

$$$$

     RDKit          3D

 63 66  0  0  0  0  0  0  0  0999 V2000
  135.6730   75.6960  223.8820 C   0  0  0  0  0  0  0  0  0  0  0  0
  136.3110   76.7520  223.2240 O   0  0  0  0  0  0  0  0  0  0  0  0
  137.5830   76.7250  222.6860 C   0  0  0  0  0  0  0  0  0  0  0  0
  137.9090   75.6880  221.8160 C   0  0  0  0  0  0  0  0  0  0  0  0
  139.1720   75.6010  221.2380 C   0  0  0  0  0  0  0  0  0  0  0  0
  140.1610   76.5560  221.5130 C   0  0  0  0  0  0  0  0  0  0  0  0
  141.4470   76.3950  220.8560 C   0  0  2  0  0  0  0  0  0  0  0  0
  141.5320   76.9590  219.4610 C   0  0  0  0  0  0  0  0  0  0  0  0
  141.9530   75.0320  220.8270 N   0  0  0  0  0  0  0  0  0  0  0  0
  143.2970   74.7190  220.4550 C   0  0  0  0  0  0  0  0  0  0  0  0
  144.1310   75.6290  220.1240 O   0  0  0  0  0  0  0  0  0  0  0  0
  143.6720   73.2810  220.4730 C   0  0  2  0  0  0  0  0  0  0  0  0
  145.1720   73.1190  220.1710 C   0  0  0  0  0  0  0  0  0  0  0  0
  145.1860   73.6030  218.7360 C   0  0  1  0  0  0  0  0  0  0  0  0
  146.3110   73.1640  218.0490 O   0  0  0  0  0  0  0  0  0  0  0  0
  143.8910   73.0910  218.1290 C   0  0  0  0  0  0  0  0  0  0  0  0
  143.1540   72.5950  219.3010 N   0  0  0  0  0  0  0  0  0  0  0  0
  142.1080   71.6010  219.2850 C   0  0  0  0  0  0  0  0  0  0  0  0
  142.3610   70.4580  218.8270 O   0  0  0  0  0  0  0  0  0  0  0  0
  140.7730   71.9900  219.8200 C   0  0  0  0  0  0  0  0  0  0  0  0
  140.5330   71.2910  221.0680 N   0  0  0  0  0  0  0  0  0  0  0  0
  140.3770   71.9480  222.3150 C   0  0  0  0  0  0  0  0  0  0  0  0
  140.4430   73.2170  222.4060 O   0  0  0  0  0  0  0  0  0  0  0  0
  140.1380   71.1550  223.5300 C   0  0  0  0  0  0  0  0  0  0  0  0
  139.4050   69.9920  223.5270 C   0  0  0  0  0  0  0  0  0  0  0  0
  139.1860   69.2480  224.6790 C   0  0  0  0  0  0  0  0  0  0  0  0
  139.7400   69.7230  225.8430 C   0  0  0  0  0  0  0  0  0  0  0  0
  139.5640   69.0350  227.0320 C   0  0  0  0  0  0  0  0  0  0  0  0
  140.1070   69.4810  228.2300 C   0  0  0  0  0  0  0  0  0  0  0  0
  139.9460   68.8250  229.3990 F   0  0  0  0  0  0  0  0  0  0  0  0
  140.8410   70.6570  228.1970 C   0  0  0  0  0  0  0  0  0  0  0  0
  141.0440   71.3770  227.0430 C   0  0  0  0  0  0  0  0  0  0  0  0
  140.4800   70.8910  225.8620 C   0  0  0  0  0  0  0  0  0  0  0  0
  140.6490   71.5570  224.7060 N   0  0  0  0  0  0  0  0  0  0  0  0
  139.8300   77.5890  222.3830 C   0  0  0  0  0  0  0  0  0  0  0  0
  141.0480   78.7830  222.7390 Cl  0  0  0  0  0  0  0  0  0  0  0  0
  138.5580   77.6580  222.9520 C   0  0  0  0  0  0  0  0  0  0  0  0
  135.7581   75.8368  224.9696 H   0  0  0  0  0  0  0  0  0  0  0  0
  134.6108   75.6747  223.5970 H   0  0  0  0  0  0  0  0  0  0  0  0
  136.1483   74.7458  223.5970 H   0  0  0  0  0  0  0  0  0  0  0  0
  137.1541   74.9232  221.5811 H   0  0  0  0  0  0  0  0  0  0  0  0
  139.3980   74.7695  220.5543 H   0  0  0  0  0  0  0  0  0  0  0  0
  142.0887   76.9987  221.5147 H   0  0  0  0  0  0  0  0  0  0  0  0
  141.6957   78.0455  219.5141 H   0  0  0  0  0  0  0  0  0  0  0  0
  142.3693   76.4878  218.9254 H   0  0  0  0  0  0  0  0  0  0  0  0
  140.5930   76.7554  218.9254 H   0  0  0  0  0  0  0  0  0  0  0  0
  141.2900   74.2420  221.0950 H   0  0  0  0  0  0  0  0  0  0  0  0
  143.3209   72.9068  221.4460 H   0  0  0  0  0  0  0  0  0  0  0  0
  145.7934   73.7497  220.8238 H   0  0  0  0  0  0  0  0  0  0  0  0
  145.5775   72.1090  220.3307 H   0  0  0  0  0  0  0  0  0  0  0  0
  145.2447   74.6998  218.6757 H   0  0  0  0  0  0  0  0  0  0  0  0
  146.8870   73.9290  217.8180 H   0  0  0  0  0  0  0  0  0  0  0  0
  143.3405   73.9015  217.6289 H   0  0  0  0  0  0  0  0  0  0  0  0
  144.0464   72.3238  217.3562 H   0  0  0  0  0  0  0  0  0  0  0  0
  140.7504   73.0755  219.9969 H   0  0  0  0  0  0  0  0  0  0  0  0
  139.9928   71.7221  219.0924 H   0  0  0  0  0  0  0  0  0  0  0  0
  140.4630   70.2350  221.0950 H   0  0  0  0  0  0  0  0  0  0  0  0
  138.9765   69.6379  222.5778 H   0  0  0  0  0  0  0  0  0  0  0  0
  138.5955   68.3201  224.6603 H   0  0  0  0  0  0  0  0  0  0  0  0
  138.9754   68.1057  227.0274 H   0  0  0  0  0  0  0  0  0  0  0  0
  141.2798   71.0300  229.1342 H   0  0  0  0  0  0  0  0  0  0  0  0
  141.6322   72.3065  227.0503 H   0  0  0  0  0  0  0  0  0  0  0  0
  138.3269   78.4871  223.6369 H   0  0  0  0  0  0  0  0  0  0  0  0
  1  2  1  0
  2  3  1  0
  3  4  2  0
  4  5  1  0
  5  6  2  0
  6  7  1  0
  7  8  1  0
  7  9  1  0
  9 10  1  0
 10 11  2  0
 10 12  1  0
 12 13  1  0
 13 14  1  0
 14 15  1  0
 14 16  1  0
 16 17  1  0
 17 18  1  0
 18 19  2  0
 18 20  1  0
 20 21  1  0
 21 22  1  0
 22 23  2  0
 22 24  1  0
 24 25  2  0
 25 26  1  0
 26 27  2  0
 27 28  1  0
 28 29  2  0
 29 30  1  0
 29 31  1  0
 31 32  2  0
 32 33  1  0
 33 34  2  0
  6 35  1  0
 35 36  1  0
 35 37  2  0
 37  3  1  0
 17 12  1  0
 34 24  1  0
 33 27  1  0
  1 38  1  0
  1 39  1  0
  1 40  1  0
  4 41  1  0
  5 42  1  0
  7 43  1  1
  8 44  1  0
  8 45  1  0
  8 46  1  0
  9 47  1  0
 12 48  1  1
 13 49  1  0
 13 50  1  0
 14 51  1  1
 15 52  1  0
 16 53  1  0
 16 54  1  0
 20 55  1  0
 20 56  1  0
 21 57  1  0
 25 58  1  0
 26 59  1  0
 28 60  1  0
 31 61  1  0
 32 62  1  0
 37 63  1  0
M  END
>  <smiles>  (27) 
COc1ccc([C@H](C)NC(=O)[C@@H]2C[C@@H](O)CN2C(=O)CNC(=O)c2ccc3cc(F)ccc3n2)c(Cl)c1

>  <score_type>  (27) 
oracle

>  <origin>  (27) 
autodockgpu

>  <m_score__min__energy>  (27) 
-8.7400000000000002

>  <m_primary>  (27) 
energy

>  <rmsd>  (27) 
5.092042336498504

>  <m_score__min__rmsd>  (27) 
5.092042336498504

>  <meeko>  (27) 
{"free_energy": -8.56, "intermolecular_energy": -11.24, "internal_energy": -2.78, "cluster_size": 3, "cluster_id": 4, "rank_in_cluster": 1}

>  <energy>  (27) 
-6.7

>  <cluster_rmsd>  (27) 
1.52

>  <cluster>  (27) 
9

$$$$

     RDKit          3D

 63 66  0  0  0  0  0  0  0  0999 V2000
  139.3090   85.3290  219.8460 C   0  0  0  0  0  0  0  0  0  0  0  0
  138.7160   84.4050  220.7110 O   0  0  0  0  0  0  0  0  0  0  0  0
  139.3470   83.3340  221.3130 C   0  0  0  0  0  0  0  0  0  0  0  0
  140.7330   83.2380  221.2060 C   0  0  0  0  0  0  0  0  0  0  0  0
  141.4300   82.1850  221.7880 C   0  0  0  0  0  0  0  0  0  0  0  0
  140.7620   81.1820  222.5050 C   0  0  0  0  0  0  0  0  0  0  0  0
  141.5710   80.1280  223.0910 C   0  0  2  0  0  0  0  0  0  0  0  0
  143.0300   80.4600  223.2720 C   0  0  0  0  0  0  0  0  0  0  0  0
  141.4770   78.8400  222.4210 N   0  0  0  0  0  0  0  0  0  0  0  0
  141.8070   78.6670  221.0420 C   0  0  0  0  0  0  0  0  0  0  0  0
  142.2050   79.6420  220.3190 O   0  0  0  0  0  0  0  0  0  0  0  0
  141.6640   77.2930  220.4930 C   0  0  2  0  0  0  0  0  0  0  0  0
  141.6130   77.3360  218.9560 C   0  0  0  0  0  0  0  0  0  0  0  0
  140.2980   78.0660  218.7750 C   0  0  1  0  0  0  0  0  0  0  0  0
  139.7630   77.8700  217.5090 O   0  0  0  0  0  0  0  0  0  0  0  0
  139.3970   77.5460  219.8810 C   0  0  0  0  0  0  0  0  0  0  0  0
  140.3240   76.7790  220.7260 N   0  0  0  0  0  0  0  0  0  0  0  0
  139.9650   75.7050  221.6210 C   0  0  0  0  0  0  0  0  0  0  0  0
  139.5430   75.9850  222.7710 O   0  0  0  0  0  0  0  0  0  0  0  0
  140.1160   74.3080  221.1240 C   0  0  0  0  0  0  0  0  0  0  0  0
  139.9560   73.3840  222.2310 N   0  0  0  0  0  0  0  0  0  0  0  0
  140.3660   72.0280  222.1840 C   0  0  0  0  0  0  0  0  0  0  0  0
  140.9110   71.5380  221.1420 O   0  0  0  0  0  0  0  0  0  0  0  0
  140.1610   71.1650  223.3570 C   0  0  0  0  0  0  0  0  0  0  0  0
  139.4950   69.9650  223.2890 C   0  0  0  0  0  0  0  0  0  0  0  0
  139.3070   69.1540  224.4020 C   0  0  0  0  0  0  0  0  0  0  0  0
  139.8220   69.6030  225.5940 C   0  0  0  0  0  0  0  0  0  0  0  0
  139.6740   68.8500  226.7470 C   0  0  0  0  0  0  0  0  0  0  0  0
  140.1780   69.2680  227.9710 C   0  0  0  0  0  0  0  0  0  0  0  0
  140.0430   68.5490  229.1060 F   0  0  0  0  0  0  0  0  0  0  0  0
  140.8440   70.4840  228.0030 C   0  0  0  0  0  0  0  0  0  0  0  0
  141.0180   71.2690  226.8880 C   0  0  0  0  0  0  0  0  0  0  0  0
  140.4940   70.8090  225.6780 C   0  0  0  0  0  0  0  0  0  0  0  0
  140.6350   71.5390  224.5570 N   0  0  0  0  0  0  0  0  0  0  0  0
  139.3790   81.2830  222.6080 C   0  0  0  0  0  0  0  0  0  0  0  0
  138.5310   80.0440  223.4920 Cl  0  0  0  0  0  0  0  0  0  0  0  0
  138.6970   82.3470  222.0170 C   0  0  0  0  0  0  0  0  0  0  0  0
  139.8112   86.1115  220.4337 H   0  0  0  0  0  0  0  0  0  0  0  0
  140.0471   84.8162  219.2118 H   0  0  0  0  0  0  0  0  0  0  0  0
  138.5354   85.7864  219.2118 H   0  0  0  0  0  0  0  0  0  0  0  0
  141.2861   84.0098  220.6506 H   0  0  0  0  0  0  0  0  0  0  0  0
  142.5241   82.1380  221.6842 H   0  0  0  0  0  0  0  0  0  0  0  0
  141.1081   80.0467  224.0855 H   0  0  0  0  0  0  0  0  0  0  0  0
  143.2635   80.5131  224.3456 H   0  0  0  0  0  0  0  0  0  0  0  0
  143.6449   79.6788  222.8012 H   0  0  0  0  0  0  0  0  0  0  0  0
  143.2464   81.4303  222.8012 H   0  0  0  0  0  0  0  0  0  0  0  0
  141.1480   78.0000  222.9880 H   0  0  0  0  0  0  0  0  0  0  0  0
  142.4872   76.7189  220.9432 H   0  0  0  0  0  0  0  0  0  0  0  0
  142.4576   77.8990  218.5321 H   0  0  0  0  0  0  0  0  0  0  0  0
  141.6809   76.3586  218.4558 H   0  0  0  0  0  0  0  0  0  0  0  0
  140.4230   79.1565  218.8473 H   0  0  0  0  0  0  0  0  0  0  0  0
  140.2900   78.3630  216.8380 H   0  0  0  0  0  0  0  0  0  0  0  0
  138.9422   78.3747  220.4435 H   0  0  0  0  0  0  0  0  0  0  0  0
  138.5525   76.9477  219.5083 H   0  0  0  0  0  0  0  0  0  0  0  0
  139.3492   74.1044  220.3620 H   0  0  0  0  0  0  0  0  0  0  0  0
  141.1145   74.1812  220.6803 H   0  0  0  0  0  0  0  0  0  0  0  0
  139.5120   73.6980  223.1400 H   0  0  0  0  0  0  0  0  0  0  0  0
  139.0962   69.6343  222.3186 H   0  0  0  0  0  0  0  0  0  0  0  0
  138.7704   68.1963  224.3317 H   0  0  0  0  0  0  0  0  0  0  0  0
  139.1400   67.8900  226.6910 H   0  0  0  0  0  0  0  0  0  0  0  0
  141.2508   70.8358  228.9626 H   0  0  0  0  0  0  0  0  0  0  0  0
  141.5527   72.2285  226.9470 H   0  0  0  0  0  0  0  0  0  0  0  0
  137.6028   82.3984  222.1174 H   0  0  0  0  0  0  0  0  0  0  0  0
  1  2  1  0
  2  3  1  0
  3  4  2  0
  4  5  1  0
  5  6  2  0
  6  7  1  0
  7  8  1  0
  7  9  1  0
  9 10  1  0
 10 11  2  0
 10 12  1  0
 12 13  1  0
 13 14  1  0
 14 15  1  0
 14 16  1  0
 16 17  1  0
 17 18  1  0
 18 19  2  0
 18 20  1  0
 20 21  1  0
 21 22  1  0
 22 23  2  0
 22 24  1  0
 24 25  2  0
 25 26  1  0
 26 27  2  0
 27 28  1  0
 28 29  2  0
 29 30  1  0
 29 31  1  0
 31 32  2  0
 32 33  1  0
 33 34  2  0
  6 35  1  0
 35 36  1  0
 35 37  2  0
 37  3  1  0
 17 12  1  0
 34 24  1  0
 33 27  1  0
  1 38  1  0
  1 39  1  0
  1 40  1  0
  4 41  1  0
  5 42  1  0
  7 43  1  1
  8 44  1  0
  8 45  1  0
  8 46  1  0
  9 47  1  0
 12 48  1  6
 13 49  1  0
 13 50  1  0
 14 51  1  1
 15 52  1  0
 16 53  1  0
 16 54  1  0
 20 55  1  0
 20 56  1  0
 21 57  1  0
 25 58  1  0
 26 59  1  0
 28 60  1  0
 31 61  1  0
 32 62  1  0
 37 63  1  0
M  END
>  <smiles>  (28) 
COc1ccc([C@H](C)NC(=O)[C@@H]2C[C@@H](O)CN2C(=O)CNC(=O)c2ccc3cc(F)ccc3n2)c(Cl)c1

>  <score_type>  (28) 
oracle

>  <origin>  (28) 
autodockgpu

>  <m_score__min__energy>  (28) 
-8.7400000000000002

>  <m_primary>  (28) 
energy

>  <rmsd>  (28) 
1.6833384574814192

>  <m_score__min__rmsd>  (28) 
1.6833384574814192

>  <meeko>  (28) 
{"free_energy": -8.18, "intermolecular_energy": -10.87, "internal_energy": -2.75, "cluster_size": 8, "cluster_id": 3, "rank_in_cluster": 5}

>  <energy>  (28) 
-6.7

>  <cluster_rmsd>  (28) 
0.47

>  <cluster>  (28) 
9

$$$$

     RDKit          3D

 63 66  0  0  0  0  0  0  0  0999 V2000
  135.7750   79.1810  220.5300 C   0  0  0  0  0  0  0  0  0  0  0  0
  136.5730   79.1150  219.3840 O   0  0  0  0  0  0  0  0  0  0  0  0
  137.9480   78.9820  219.3580 C   0  0  0  0  0  0  0  0  0  0  0  0
  138.4850   77.7660  218.9430 C   0  0  0  0  0  0  0  0  0  0  0  0
  139.8610   77.5650  218.8940 C   0  0  0  0  0  0  0  0  0  0  0  0
  140.7550   78.5800  219.2600 C   0  0  0  0  0  0  0  0  0  0  0  0
  142.1750   78.2880  219.1640 C   0  0  2  0  0  0  0  0  0  0  0  0
  142.6950   78.0720  217.7660 C   0  0  0  0  0  0  0  0  0  0  0  0
  142.6300   77.1840  219.9950 N   0  0  0  0  0  0  0  0  0  0  0  0
  142.6540   75.8330  219.5310 C   0  0  0  0  0  0  0  0  0  0  0  0
  142.2740   75.5210  218.3520 O   0  0  0  0  0  0  0  0  0  0  0  0
  143.1450   74.8110  220.4920 C   0  0  2  0  0  0  0  0  0  0  0  0
  144.6440   74.5470  220.2680 C   0  0  0  0  0  0  0  0  0  0  0  0
  144.5790   73.9200  218.8910 C   0  0  1  0  0  0  0  0  0  0  0  0
  145.7150   73.1770  218.6020 O   0  0  0  0  0  0  0  0  0  0  0  0
  143.3130   73.0810  218.8930 C   0  0  0  0  0  0  0  0  0  0  0  0
  142.6510   73.4900  220.1410 N   0  0  0  0  0  0  0  0  0  0  0  0
  141.6890   72.7120  220.8840 C   0  0  0  0  0  0  0  0  0  0  0  0
  142.0000   71.5510  221.2550 O   0  0  0  0  0  0  0  0  0  0  0  0
  140.3670   73.3350  221.1720 C   0  0  0  0  0  0  0  0  0  0  0  0
  140.5690   74.6730  221.6930 N   0  0  0  0  0  0  0  0  0  0  0  0
  139.5660   75.6750  221.6880 C   0  0  0  0  0  0  0  0  0  0  0  0
  138.4060   75.4460  221.2140 O   0  0  0  0  0  0  0  0  0  0  0  0
  139.8650   77.0060  222.2380 C   0  0  0  0  0  0  0  0  0  0  0  0
  138.8930   77.8370  222.7430 C   0  0  0  0  0  0  0  0  0  0  0  0
  139.1840   79.0920  223.2630 C   0  0  0  0  0  0  0  0  0  0  0  0
  140.5020   79.4790  223.2540 C   0  0  0  0  0  0  0  0  0  0  0  0
  140.8700   80.7180  223.7550 C   0  0  0  0  0  0  0  0  0  0  0  0
  142.1900   81.1480  223.7640 C   0  0  0  0  0  0  0  0  0  0  0  0
  142.5680   82.3510  224.2470 F   0  0  0  0  0  0  0  0  0  0  0  0
  143.1440   80.2850  223.2470 C   0  0  0  0  0  0  0  0  0  0  0  0
  142.8310   79.0460  222.7380 C   0  0  0  0  0  0  0  0  0  0  0  0
  141.4910   78.6550  222.7480 C   0  0  0  0  0  0  0  0  0  0  0  0
  141.1310   77.4540  222.2620 N   0  0  0  0  0  0  0  0  0  0  0  0
  140.2130   79.7920  219.6740 C   0  0  0  0  0  0  0  0  0  0  0  0
  141.3090   81.0650  220.1360 Cl  0  0  0  0  0  0  0  0  0  0  0  0
  138.8300   79.9750  219.7170 C   0  0  0  0  0  0  0  0  0  0  0  0
  136.4129   79.1282  221.4246 H   0  0  0  0  0  0  0  0  0  0  0  0
  135.2161   80.1284  220.5336 H   0  0  0  0  0  0  0  0  0  0  0  0
  135.0680   78.3383  220.5336 H   0  0  0  0  0  0  0  0  0  0  0  0
  137.8092   76.9496  218.6486 H   0  0  0  0  0  0  0  0  0  0  0  0
  140.2537   76.5925  218.5622 H   0  0  0  0  0  0  0  0  0  0  0  0
  142.6019   79.2247  219.5518 H   0  0  0  0  0  0  0  0  0  0  0  0
  143.7099   77.6504  217.8134 H   0  0  0  0  0  0  0  0  0  0  0  0
  142.0328   77.3745  217.2322 H   0  0  0  0  0  0  0  0  0  0  0  0
  142.7219   79.0334  217.2322 H   0  0  0  0  0  0  0  0  0  0  0  0
  142.9550   77.4010  220.9870 H   0  0  0  0  0  0  0  0  0  0  0  0
  142.8533   75.1878  221.4834 H   0  0  0  0  0  0  0  0  0  0  0  0
  145.2301   75.4779  220.2687 H   0  0  0  0  0  0  0  0  0  0  0  0
  145.1343   73.9359  221.0402 H   0  0  0  0  0  0  0  0  0  0  0  0
  144.5475   74.6812  218.0975 H   0  0  0  0  0  0  0  0  0  0  0  0
  146.4900   73.7730  218.4830 H   0  0  0  0  0  0  0  0  0  0  0  0
  142.6855   73.3091  218.0188 H   0  0  0  0  0  0  0  0  0  0  0  0
  143.5078   71.9998  218.8383 H   0  0  0  0  0  0  0  0  0  0  0  0
  139.7761   73.3871  220.2456 H   0  0  0  0  0  0  0  0  0  0  0  0
  139.8288   72.7284  221.9152 H   0  0  0  0  0  0  0  0  0  0  0  0
  141.5010   74.9600  222.1070 H   0  0  0  0  0  0  0  0  0  0  0  0
  137.8473   77.4959  222.7350 H   0  0  0  0  0  0  0  0  0  0  0  0
  138.3952   79.7458  223.6635 H   0  0  0  0  0  0  0  0  0  0  0  0
  140.0911   81.3818  224.1584 H   0  0  0  0  0  0  0  0  0  0  0  0
  144.1965   80.6048  223.2437 H   0  0  0  0  0  0  0  0  0  0  0  0
  143.6121   78.3841  222.3358 H   0  0  0  0  0  0  0  0  0  0  0  0
  138.4320   80.9453  220.0489 H   0  0  0  0  0  0  0  0  0  0  0  0
  1  2  1  0
  2  3  1  0
  3  4  2  0
  4  5  1  0
  5  6  2  0
  6  7  1  0
  7  8  1  0
  7  9  1  0
  9 10  1  0
 10 11  2  0
 10 12  1  0
 12 13  1  0
 13 14  1  0
 14 15  1  0
 14 16  1  0
 16 17  1  0
 17 18  1  0
 18 19  2  0
 18 20  1  0
 20 21  1  0
 21 22  1  0
 22 23  2  0
 22 24  1  0
 24 25  2  0
 25 26  1  0
 26 27  2  0
 27 28  1  0
 28 29  2  0
 29 30  1  0
 29 31  1  0
 31 32  2  0
 32 33  1  0
 33 34  2  0
  6 35  1  0
 35 36  1  0
 35 37  2  0
 37  3  1  0
 17 12  1  0
 34 24  1  0
 33 27  1  0
  1 38  1  0
  1 39  1  0
  1 40  1  0
  4 41  1  0
  5 42  1  0
  7 43  1  1
  8 44  1  0
  8 45  1  0
  8 46  1  0
  9 47  1  0
 12 48  1  1
 13 49  1  0
 13 50  1  0
 14 51  1  6
 15 52  1  0
 16 53  1  0
 16 54  1  0
 20 55  1  0
 20 56  1  0
 21 57  1  0
 25 58  1  0
 26 59  1  0
 28 60  1  0
 31 61  1  0
 32 62  1  0
 37 63  1  0
M  END
>  <smiles>  (29) 
COc1ccc([C@H](C)NC(=O)[C@@H]2C[C@@H](O)CN2C(=O)CNC(=O)c2ccc3cc(F)ccc3n2)c(Cl)c1

>  <score_type>  (29) 
oracle

>  <origin>  (29) 
autodockgpu

>  <m_score__min__energy>  (29) 
-8.7400000000000002

>  <m_primary>  (29) 
energy

>  <rmsd>  (29) 
6.733403216261993

>  <m_score__min__rmsd>  (29) 
6.733403216261993

>  <meeko>  (29) 
{"free_energy": -6.7, "intermolecular_energy": -9.38, "internal_energy": -4.61, "cluster_size": 19, "cluster_id": 9, "rank_in_cluster": 5}

>  <energy>  (29) 
-6.7

>  <cluster_rmsd>  (29) 
1.58

>  <cluster>  (29) 
9

$$$$

     RDKit          3D

 63 66  0  0  0  0  0  0  0  0999 V2000
  137.6790   84.7560  221.9910 C   0  0  0  0  0  0  0  0  0  0  0  0
  138.5070   83.9720  221.1830 O   0  0  0  0  0  0  0  0  0  0  0  0
  139.2630   82.8930  221.6000 C   0  0  0  0  0  0  0  0  0  0  0  0
  140.6500   82.9900  221.5240 C   0  0  0  0  0  0  0  0  0  0  0  0
  141.4690   81.9400  221.9280 C   0  0  0  0  0  0  0  0  0  0  0  0
  140.9270   80.7470  222.4250 C   0  0  0  0  0  0  0  0  0  0  0  0
  141.8560   79.7090  222.8350 C   0  0  2  0  0  0  0  0  0  0  0  0
  143.2860   80.1550  223.0020 C   0  0  0  0  0  0  0  0  0  0  0  0
  141.8460   78.5150  222.0050 N   0  0  0  0  0  0  0  0  0  0  0  0
  141.8330   78.5720  220.5770 C   0  0  0  0  0  0  0  0  0  0  0  0
  141.8290   79.6850  219.9500 O   0  0  0  0  0  0  0  0  0  0  0  0
  141.8240   77.2690  219.8620 C   0  0  2  0  0  0  0  0  0  0  0  0
  141.2470   77.4450  218.4460 C   0  0  0  0  0  0  0  0  0  0  0  0
  139.8210   77.8060  218.8060 C   0  0  1  0  0  0  0  0  0  0  0  0
  138.9470   77.5940  217.7480 O   0  0  0  0  0  0  0  0  0  0  0  0
  139.4890   76.9580  220.0210 C   0  0  0  0  0  0  0  0  0  0  0  0
  140.7940   76.3930  220.3940 N   0  0  0  0  0  0  0  0  0  0  0  0
  141.0090   75.1810  221.1480 C   0  0  0  0  0  0  0  0  0  0  0  0
  141.4060   75.2660  222.3370 O   0  0  0  0  0  0  0  0  0  0  0  0
  140.7460   73.8830  220.4650 C   0  0  0  0  0  0  0  0  0  0  0  0
  140.7050   72.8210  221.4510 N   0  0  0  0  0  0  0  0  0  0  0  0
  139.6160   72.6150  222.3350 C   0  0  0  0  0  0  0  0  0  0  0  0
  138.5910   73.3710  222.3090 O   0  0  0  0  0  0  0  0  0  0  0  0
  139.6650   71.5100  223.3050 C   0  0  0  0  0  0  0  0  0  0  0  0
  139.1420   70.2660  223.0420 C   0  0  0  0  0  0  0  0  0  0  0  0
  139.1950   69.2270  223.9630 C   0  0  0  0  0  0  0  0  0  0  0  0
  139.8000   69.4920  225.1670 C   0  0  0  0  0  0  0  0  0  0  0  0
  139.8900   68.5060  226.1360 C   0  0  0  0  0  0  0  0  0  0  0  0
  140.4930   68.7330  227.3660 C   0  0  0  0  0  0  0  0  0  0  0  0
  140.5900   67.7850  228.3230 F   0  0  0  0  0  0  0  0  0  0  0  0
  141.0090   69.9990  227.5980 C   0  0  0  0  0  0  0  0  0  0  0  0
  140.9450   71.0120  226.6700 C   0  0  0  0  0  0  0  0  0  0  0  0
  140.3300   70.7390  225.4470 C   0  0  0  0  0  0  0  0  0  0  0  0
  140.2410   71.6940  224.5050 N   0  0  0  0  0  0  0  0  0  0  0  0
  139.5410   80.6560  222.4970 C   0  0  0  0  0  0  0  0  0  0  0  0
  138.8470   79.1790  223.1090 Cl  0  0  0  0  0  0  0  0  0  0  0  0
  138.7360   81.7200  222.0870 C   0  0  0  0  0  0  0  0  0  0  0  0
  137.8972   84.5494  223.0492 H   0  0  0  0  0  0  0  0  0  0  0  0
  137.8616   85.8200  221.7799 H   0  0  0  0  0  0  0  0  0  0  0  0
  136.6265   84.5156  221.7799 H   0  0  0  0  0  0  0  0  0  0  0  0
  141.1065   83.9132  221.1377 H   0  0  0  0  0  0  0  0  0  0  0  0
  142.5613   82.0483  221.8559 H   0  0  0  0  0  0  0  0  0  0  0  0
  141.4525   79.4557  223.8265 H   0  0  0  0  0  0  0  0  0  0  0  0
  143.5242   80.2293  224.0733 H   0  0  0  0  0  0  0  0  0  0  0  0
  143.9561   79.4232  222.5273 H   0  0  0  0  0  0  0  0  0  0  0  0
  143.4213   81.1380  222.5273 H   0  0  0  0  0  0  0  0  0  0  0  0
  141.8470   77.5650  222.4890 H   0  0  0  0  0  0  0  0  0  0  0  0
  142.8568   76.8970  219.9318 H   0  0  0  0  0  0  0  0  0  0  0  0
  141.7493   78.2537  217.8949 H   0  0  0  0  0  0  0  0  0  0  0  0
  141.3584   76.5755  217.7815 H   0  0  0  0  0  0  0  0  0  0  0  0
  139.7154   78.8775  219.0311 H   0  0  0  0  0  0  0  0  0  0  0  0
  138.3420   76.8450  217.9520 H   0  0  0  0  0  0  0  0  0  0  0  0
  139.0780   77.5749  220.8337 H   0  0  0  0  0  0  0  0  0  0  0  0
  138.7254   76.1920  219.8205 H   0  0  0  0  0  0  0  0  0  0  0  0
  139.7810   73.9335  219.9394 H   0  0  0  0  0  0  0  0  0  0  0  0
  141.5471   73.6803  219.7390 H   0  0  0  0  0  0  0  0  0  0  0  0
  141.5110   72.1410  221.5510 H   0  0  0  0  0  0  0  0  0  0  0  0
  138.6644   70.0868  222.0674 H   0  0  0  0  0  0  0  0  0  0  0  0
  138.7716   68.2370  223.7379 H   0  0  0  0  0  0  0  0  0  0  0  0
  139.4704   67.5115  225.9242 H   0  0  0  0  0  0  0  0  0  0  0  0
  141.4903   70.2018  228.5661 H   0  0  0  0  0  0  0  0  0  0  0  0
  141.3651   72.0057  226.8847 H   0  0  0  0  0  0  0  0  0  0  0  0
  137.6430   81.6167  222.1558 H   0  0  0  0  0  0  0  0  0  0  0  0
  1  2  1  0
  2  3  1  0
  3  4  2  0
  4  5  1  0
  5  6  2  0
  6  7  1  0
  7  8  1  0
  7  9  1  0
  9 10  1  0
 10 11  2  0
 10 12  1  0
 12 13  1  0
 13 14  1  0
 14 15  1  0
 14 16  1  0
 16 17  1  0
 17 18  1  0
 18 19  2  0
 18 20  1  0
 20 21  1  0
 21 22  1  0
 22 23  2  0
 22 24  1  0
 24 25  2  0
 25 26  1  0
 26 27  2  0
 27 28  1  0
 28 29  2  0
 29 30  1  0
 29 31  1  0
 31 32  2  0
 32 33  1  0
 33 34  2  0
  6 35  1  0
 35 36  1  0
 35 37  2  0
 37  3  1  0
 17 12  1  0
 34 24  1  0
 33 27  1  0
  1 38  1  0
  1 39  1  0
  1 40  1  0
  4 41  1  0
  5 42  1  0
  7 43  1  1
  8 44  1  0
  8 45  1  0
  8 46  1  0
  9 47  1  0
 12 48  1  6
 13 49  1  0
 13 50  1  0
 14 51  1  1
 15 52  1  0
 16 53  1  0
 16 54  1  0
 20 55  1  0
 20 56  1  0
 21 57  1  0
 25 58  1  0
 26 59  1  0
 28 60  1  0
 31 61  1  0
 32 62  1  0
 37 63  1  0
M  END
>  <smiles>  (30) 
COc1ccc([C@H](C)NC(=O)[C@@H]2C[C@@H](O)CN2C(=O)CNC(=O)c2ccc3cc(F)ccc3n2)c(Cl)c1

>  <score_type>  (30) 
oracle

>  <origin>  (30) 
autodockgpu

>  <m_score__min__energy>  (30) 
-8.7400000000000002

>  <m_primary>  (30) 
energy

>  <rmsd>  (30) 
1.9644697028638896

>  <m_score__min__rmsd>  (30) 
1.9644697028638896

>  <meeko>  (30) 
{"free_energy": -7.43, "intermolecular_energy": -10.11, "internal_energy": -2.61, "cluster_size": 8, "cluster_id": 3, "rank_in_cluster": 8}

>  <energy>  (30) 
-6.66

>  <cluster_rmsd>  (30) 
1.55

>  <cluster>  (30) 
9

$$$$

     RDKit          3D

 63 66  0  0  0  0  0  0  0  0999 V2000
  145.9840   72.9650  217.0840 C   0  0  0  0  0  0  0  0  0  0  0  0
  145.5640   73.0220  218.4160 O   0  0  0  0  0  0  0  0  0  0  0  0
  144.4430   73.6780  218.8870 C   0  0  0  0  0  0  0  0  0  0  0  0
  143.7460   73.1120  219.9520 C   0  0  0  0  0  0  0  0  0  0  0  0
  142.6090   73.7210  220.4740 C   0  0  0  0  0  0  0  0  0  0  0  0
  142.1250   74.9260  219.9470 C   0  0  0  0  0  0  0  0  0  0  0  0
  140.9410   75.4980  220.5630 C   0  0  2  0  0  0  0  0  0  0  0  0
  141.0990   75.9100  222.0040 C   0  0  0  0  0  0  0  0  0  0  0  0
  139.7400   74.6850  220.4510 N   0  0  0  0  0  0  0  0  0  0  0  0
  138.4410   75.2530  220.2700 C   0  0  0  0  0  0  0  0  0  0  0  0
  138.2660   76.5160  220.1960 O   0  0  0  0  0  0  0  0  0  0  0  0
  137.3070   74.2980  220.1720 C   0  0  2  0  0  0  0  0  0  0  0  0
  136.1400   74.7640  221.0590 C   0  0  0  0  0  0  0  0  0  0  0  0
  136.7880   74.6040  222.4190 C   0  0  1  0  0  0  0  0  0  0  0  0
  135.8480   74.5260  223.4380 O   0  0  0  0  0  0  0  0  0  0  0  0
  137.6410   73.3530  222.3100 C   0  0  0  0  0  0  0  0  0  0  0  0
  137.6110   73.0590  220.8690 N   0  0  0  0  0  0  0  0  0  0  0  0
  137.8360   71.7690  220.2620 C   0  0  0  0  0  0  0  0  0  0  0  0
  136.8850   71.2020  219.6660 O   0  0  0  0  0  0  0  0  0  0  0  0
  139.1980   71.1760  220.3780 C   0  0  0  0  0  0  0  0  0  0  0  0
  139.4380   70.7880  221.7540 N   0  0  0  0  0  0  0  0  0  0  0  0
  140.0930   71.6190  222.6990 C   0  0  0  0  0  0  0  0  0  0  0  0
  140.5150   72.7770  222.3790 O   0  0  0  0  0  0  0  0  0  0  0  0
  140.2930   71.1390  224.0740 C   0  0  0  0  0  0  0  0  0  0  0  0
  140.8640   71.9130  225.0560 C   0  0  0  0  0  0  0  0  0  0  0  0
  141.0470   71.4520  226.3540 C   0  0  0  0  0  0  0  0  0  0  0  0
  140.6280   70.1730  226.6260 C   0  0  0  0  0  0  0  0  0  0  0  0
  140.7780   69.6440  227.8980 C   0  0  0  0  0  0  0  0  0  0  0  0
  140.3690   68.3560  228.2140 C   0  0  0  0  0  0  0  0  0  0  0  0
  140.5070   67.8220  229.4470 F   0  0  0  0  0  0  0  0  0  0  0  0
  139.7970   67.6030  227.2000 C   0  0  0  0  0  0  0  0  0  0  0  0
  139.6250   68.0810  225.9220 C   0  0  0  0  0  0  0  0  0  0  0  0
  140.0520   69.3820  225.6480 C   0  0  0  0  0  0  0  0  0  0  0  0
  139.9080   69.8970  224.4150 N   0  0  0  0  0  0  0  0  0  0  0  0
  142.8260   75.4860  218.8840 C   0  0  0  0  0  0  0  0  0  0  0  0
  142.2370   76.9820  218.2130 Cl  0  0  0  0  0  0  0  0  0  0  0  0
  143.9630   74.8600  218.3730 C   0  0  0  0  0  0  0  0  0  0  0  0
  147.0734   72.8171  217.0491 H   0  0  0  0  0  0  0  0  0  0  0  0
  145.4837   72.1265  216.5774 H   0  0  0  0  0  0  0  0  0  0  0  0
  145.7253   73.9065  216.5774 H   0  0  0  0  0  0  0  0  0  0  0  0
  144.1008   72.1666  220.3882 H   0  0  0  0  0  0  0  0  0  0  0  0
  142.0807   73.2483  221.3151 H   0  0  0  0  0  0  0  0  0  0  0  0
  140.8146   76.4060  219.9550 H   0  0  0  0  0  0  0  0  0  0  0  0
  140.7824   75.0844  222.6583 H   0  0  0  0  0  0  0  0  0  0  0  0
  142.1536   76.1516  222.2028 H   0  0  0  0  0  0  0  0  0  0  0  0
  140.4764   76.7948  222.2028 H   0  0  0  0  0  0  0  0  0  0  0  0
  139.8420   73.6260  220.5080 H   0  0  0  0  0  0  0  0  0  0  0  0
  137.1020   74.2083  219.0950 H   0  0  0  0  0  0  0  0  0  0  0  0
  135.8612   75.8087  220.8566 H   0  0  0  0  0  0  0  0  0  0  0  0
  135.1960   74.2165  220.9204 H   0  0  0  0  0  0  0  0  0  0  0  0
  137.4005   75.4781  222.6849 H   0  0  0  0  0  0  0  0  0  0  0  0
  136.2600   74.1550  224.2520 H   0  0  0  0  0  0  0  0  0  0  0  0
  138.6684   73.5434  222.6537 H   0  0  0  0  0  0  0  0  0  0  0  0
  137.2744   72.5220  222.9305 H   0  0  0  0  0  0  0  0  0  0  0  0
  139.2694   70.2906  219.7291 H   0  0  0  0  0  0  0  0  0  0  0  0
  139.9494   71.9174  220.0687 H   0  0  0  0  0  0  0  0  0  0  0  0
  139.1240   69.8430  222.1150 H   0  0  0  0  0  0  0  0  0  0  0  0
  141.1877   72.9340  224.8053 H   0  0  0  0  0  0  0  0  0  0  0  0
  141.5068   72.0832  227.1287 H   0  0  0  0  0  0  0  0  0  0  0  0
  141.2358   70.2648  228.6822 H   0  0  0  0  0  0  0  0  0  0  0  0
  139.4664   66.5788  227.4276 H   0  0  0  0  0  0  0  0  0  0  0  0
  139.1656   67.4582  225.1403 H   0  0  0  0  0  0  0  0  0  0  0  0
  144.4937   75.3275  217.5305 H   0  0  0  0  0  0  0  0  0  0  0  0
  1  2  1  0
  2  3  1  0
  3  4  2  0
  4  5  1  0
  5  6  2  0
  6  7  1  0
  7  8  1  0
  7  9  1  0
  9 10  1  0
 10 11  2  0
 10 12  1  0
 12 13  1  0
 13 14  1  0
 14 15  1  0
 14 16  1  0
 16 17  1  0
 17 18  1  0
 18 19  2  0
 18 20  1  0
 20 21  1  0
 21 22  1  0
 22 23  2  0
 22 24  1  0
 24 25  2  0
 25 26  1  0
 26 27  2  0
 27 28  1  0
 28 29  2  0
 29 30  1  0
 29 31  1  0
 31 32  2  0
 32 33  1  0
 33 34  2  0
  6 35  1  0
 35 36  1  0
 35 37  2  0
 37  3  1  0
 17 12  1  0
 34 24  1  0
 33 27  1  0
  1 38  1  0
  1 39  1  0
  1 40  1  0
  4 41  1  0
  5 42  1  0
  7 43  1  6
  8 44  1  0
  8 45  1  0
  8 46  1  0
  9 47  1  0
 12 48  1  6
 13 49  1  0
 13 50  1  0
 14 51  1  1
 15 52  1  0
 16 53  1  0
 16 54  1  0
 20 55  1  0
 20 56  1  0
 21 57  1  0
 25 58  1  0
 26 59  1  0
 28 60  1  0
 31 61  1  0
 32 62  1  0
 37 63  1  0
M  END
>  <smiles>  (31) 
COc1ccc([C@H](C)NC(=O)[C@@H]2C[C@@H](O)CN2C(=O)CNC(=O)c2ccc3cc(F)ccc3n2)c(Cl)c1

>  <score_type>  (31) 
oracle

>  <origin>  (31) 
autodockgpu

>  <m_score__min__energy>  (31) 
-8.7400000000000002

>  <m_primary>  (31) 
energy

>  <rmsd>  (31) 
6.50523817253099

>  <m_score__min__rmsd>  (31) 
6.50523817253099

>  <meeko>  (31) 
{"free_energy": -6.45, "intermolecular_energy": -9.14, "internal_energy": -3.43, "cluster_size": 1, "cluster_id": 12, "rank_in_cluster": 1}

>  <energy>  (31) 
-6.62

>  <cluster_rmsd>  (31) 
1.71

>  <cluster>  (31) 
9

$$$$

     RDKit          3D

 63 66  0  0  0  0  0  0  0  0999 V2000
  135.6560   75.1680  223.6560 C   0  0  0  0  0  0  0  0  0  0  0  0
  136.3440   76.2050  223.0200 O   0  0  0  0  0  0  0  0  0  0  0  0
  137.6280   76.1400  222.5170 C   0  0  0  0  0  0  0  0  0  0  0  0
  137.9570   75.0760  221.6820 C   0  0  0  0  0  0  0  0  0  0  0  0
  139.2340   74.9510  221.1410 C   0  0  0  0  0  0  0  0  0  0  0  0
  140.2330   75.8930  221.4190 C   0  0  0  0  0  0  0  0  0  0  0  0
  141.5320   75.6920  220.8010 C   0  0  2  0  0  0  0  0  0  0  0  0
  141.6930   76.2950  219.4290 C   0  0  0  0  0  0  0  0  0  0  0  0
  141.9750   74.3080  220.7440 N   0  0  0  0  0  0  0  0  0  0  0  0
  143.3540   73.9460  220.6460 C   0  0  0  0  0  0  0  0  0  0  0  0
  144.2780   74.8270  220.6020 O   0  0  0  0  0  0  0  0  0  0  0  0
  143.6560   72.4910  220.5980 C   0  0  2  0  0  0  0  0  0  0  0  0
  145.0590   72.2580  220.0110 C   0  0  0  0  0  0  0  0  0  0  0  0
  144.8170   72.7460  218.5980 C   0  0  1  0  0  0  0  0  0  0  0  0
  145.7630   72.2570  217.7080 O   0  0  0  0  0  0  0  0  0  0  0  0
  143.4050   72.3010  218.2580 C   0  0  0  0  0  0  0  0  0  0  0  0
  142.8870   71.8360  219.5530 N   0  0  0  0  0  0  0  0  0  0  0  0
  141.8110   70.8940  219.7460 C   0  0  0  0  0  0  0  0  0  0  0  0
  141.9510   69.7160  219.3300 O   0  0  0  0  0  0  0  0  0  0  0  0
  140.5810   71.3760  220.4360 C   0  0  0  0  0  0  0  0  0  0  0  0
  140.6080   70.9470  221.8220 N   0  0  0  0  0  0  0  0  0  0  0  0
  140.5830   71.8440  222.9190 C   0  0  0  0  0  0  0  0  0  0  0  0
  140.5350   73.1050  222.7410 O   0  0  0  0  0  0  0  0  0  0  0  0
  140.6150   71.3160  224.2920 C   0  0  0  0  0  0  0  0  0  0  0  0
  140.9460   72.0900  225.3780 C   0  0  0  0  0  0  0  0  0  0  0  0
  140.9720   71.5830  226.6720 C   0  0  0  0  0  0  0  0  0  0  0  0
  140.6470   70.2580  226.8280 C   0  0  0  0  0  0  0  0  0  0  0  0
  140.6510   69.6810  228.0880 C   0  0  0  0  0  0  0  0  0  0  0  0
  140.3300   68.3460  228.2890 C   0  0  0  0  0  0  0  0  0  0  0  0
  140.3290   67.7660  229.5090 F   0  0  0  0  0  0  0  0  0  0  0  0
  140.0010   67.5950  227.1710 C   0  0  0  0  0  0  0  0  0  0  0  0
  139.9830   68.1190  225.9000 C   0  0  0  0  0  0  0  0  0  0  0  0
  140.3120   69.4660  225.7440 C   0  0  0  0  0  0  0  0  0  0  0  0
  140.3100   70.0280  224.5230 N   0  0  0  0  0  0  0  0  0  0  0  0
  139.8990   76.9540  222.2540 C   0  0  0  0  0  0  0  0  0  0  0  0
  141.1300   78.1330  222.6140 Cl  0  0  0  0  0  0  0  0  0  0  0  0
  138.6140   77.0620  222.7870 C   0  0  0  0  0  0  0  0  0  0  0  0
  135.7364   75.2892  224.7463 H   0  0  0  0  0  0  0  0  0  0  0  0
  134.5966   75.1958  223.3611 H   0  0  0  0  0  0  0  0  0  0  0  0
  136.0935   74.2028  223.3611 H   0  0  0  0  0  0  0  0  0  0  0  0
  137.1940   74.3198  221.4451 H   0  0  0  0  0  0  0  0  0  0  0  0
  139.4622   74.0984  220.4844 H   0  0  0  0  0  0  0  0  0  0  0  0
  142.1769   76.2439  221.5007 H   0  0  0  0  0  0  0  0  0  0  0  0
  141.9757   77.3537  219.5247 H   0  0  0  0  0  0  0  0  0  0  0  0
  142.4782   75.7540  218.8805 H   0  0  0  0  0  0  0  0  0  0  0  0
  140.7427   76.2173  218.8805 H   0  0  0  0  0  0  0  0  0  0  0  0
  141.2360   73.5410  220.7780 H   0  0  0  0  0  0  0  0  0  0  0  0
  143.4837   72.1298  221.6226 H   0  0  0  0  0  0  0  0  0  0  0  0
  145.8250   72.8555  220.5269 H   0  0  0  0  0  0  0  0  0  0  0  0
  145.4387   71.2290  220.0945 H   0  0  0  0  0  0  0  0  0  0  0  0
  144.9165   73.8388  218.5213 H   0  0  0  0  0  0  0  0  0  0  0  0
  145.3180   71.8290  216.9410 H   0  0  0  0  0  0  0  0  0  0  0  0
  142.8080   73.1399  217.8710 H   0  0  0  0  0  0  0  0  0  0  0  0
  143.3691   71.5307  217.4736 H   0  0  0  0  0  0  0  0  0  0  0  0
  140.5419   72.4744  220.3923 H   0  0  0  0  0  0  0  0  0  0  0  0
  139.6928   70.9589  219.9389 H   0  0  0  0  0  0  0  0  0  0  0  0
  140.6500   69.9190  222.0710 H   0  0  0  0  0  0  0  0  0  0  0  0
  141.1994   73.1483  225.2177 H   0  0  0  0  0  0  0  0  0  0  0  0
  141.2407   72.2144  227.5318 H   0  0  0  0  0  0  0  0  0  0  0  0
  140.9172   70.3011  228.9567 H   0  0  0  0  0  0  0  0  0  0  0  0
  139.7433   66.5343  227.3067 H   0  0  0  0  0  0  0  0  0  0  0  0
  139.7176   67.4959  225.0333 H   0  0  0  0  0  0  0  0  0  0  0  0
  138.3811   77.9122  223.4449 H   0  0  0  0  0  0  0  0  0  0  0  0
  1  2  1  0
  2  3  1  0
  3  4  2  0
  4  5  1  0
  5  6  2  0
  6  7  1  0
  7  8  1  0
  7  9  1  0
  9 10  1  0
 10 11  2  0
 10 12  1  0
 12 13  1  0
 13 14  1  0
 14 15  1  0
 14 16  1  0
 16 17  1  0
 17 18  1  0
 18 19  2  0
 18 20  1  0
 20 21  1  0
 21 22  1  0
 22 23  2  0
 22 24  1  0
 24 25  2  0
 25 26  1  0
 26 27  2  0
 27 28  1  0
 28 29  2  0
 29 30  1  0
 29 31  1  0
 31 32  2  0
 32 33  1  0
 33 34  2  0
  6 35  1  0
 35 36  1  0
 35 37  2  0
 37  3  1  0
 17 12  1  0
 34 24  1  0
 33 27  1  0
  1 38  1  0
  1 39  1  0
  1 40  1  0
  4 41  1  0
  5 42  1  0
  7 43  1  1
  8 44  1  0
  8 45  1  0
  8 46  1  0
  9 47  1  0
 12 48  1  1
 13 49  1  0
 13 50  1  0
 14 51  1  1
 15 52  1  0
 16 53  1  0
 16 54  1  0
 20 55  1  0
 20 56  1  0
 21 57  1  0
 25 58  1  0
 26 59  1  0
 28 60  1  0
 31 61  1  0
 32 62  1  0
 37 63  1  0
M  END
>  <smiles>  (32) 
COc1ccc([C@H](C)NC(=O)[C@@H]2C[C@@H](O)CN2C(=O)CNC(=O)c2ccc3cc(F)ccc3n2)c(Cl)c1

>  <score_type>  (32) 
oracle

>  <origin>  (32) 
autodockgpu

>  <m_score__min__energy>  (32) 
-8.7400000000000002

>  <m_primary>  (32) 
energy

>  <rmsd>  (32) 
5.6716765776852345

>  <m_score__min__rmsd>  (32) 
5.6716765776852345

>  <meeko>  (32) 
{"free_energy": -7.54, "intermolecular_energy": -10.23, "internal_energy": -3.32, "cluster_size": 3, "cluster_id": 4, "rank_in_cluster": 3}

>  <energy>  (32) 
-6.6

>  <cluster_rmsd>  (32) 
1.56

>  <cluster>  (32) 
9

$$$$

     RDKit          3D

 63 66  0  0  0  0  0  0  0  0999 V2000
  132.5820   73.7200  226.8420 C   0  0  0  0  0  0  0  0  0  0  0  0
  133.9460   73.9100  226.6030 O   0  0  0  0  0  0  0  0  0  0  0  0
  134.5070   74.4000  225.4400 C   0  0  0  0  0  0  0  0  0  0  0  0
  135.0910   73.4960  224.5570 C   0  0  0  0  0  0  0  0  0  0  0  0
  135.6740   73.9240  223.3680 C   0  0  0  0  0  0  0  0  0  0  0  0
  135.6940   75.2810  223.0180 C   0  0  0  0  0  0  0  0  0  0  0  0
  136.3110   75.6360  221.7520 C   0  0  2  0  0  0  0  0  0  0  0  0
  135.6470   75.0600  220.5270 C   0  0  0  0  0  0  0  0  0  0  0  0
  137.7370   75.3620  221.6680 N   0  0  0  0  0  0  0  0  0  0  0  0
  138.7130   76.1500  222.3520 C   0  0  0  0  0  0  0  0  0  0  0  0
  138.3810   77.1460  223.0790 O   0  0  0  0  0  0  0  0  0  0  0  0
  140.1330   75.7500  222.1730 C   0  0  2  0  0  0  0  0  0  0  0  0
  141.0670   76.8660  222.6710 C   0  0  0  0  0  0  0  0  0  0  0  0
  140.7360   77.9350  221.6510 C   0  0  1  0  0  0  0  0  0  0  0  0
  141.7300   78.9010  221.5670 O   0  0  0  0  0  0  0  0  0  0  0  0
  140.5290   77.1900  220.3440 C   0  0  0  0  0  0  0  0  0  0  0  0
  140.5070   75.7830  220.7690 N   0  0  0  0  0  0  0  0  0  0  0  0
  140.8110   74.6420  219.9390 C   0  0  0  0  0  0  0  0  0  0  0  0
  140.1220   74.4380  218.9070 O   0  0  0  0  0  0  0  0  0  0  0  0
  141.9370   73.7600  220.3560 C   0  0  0  0  0  0  0  0  0  0  0  0
  141.5430   72.9990  221.5260 N   0  0  0  0  0  0  0  0  0  0  0  0
  140.2250   72.5270  221.7460 C   0  0  0  0  0  0  0  0  0  0  0  0
  139.2940   72.7530  220.9060 O   0  0  0  0  0  0  0  0  0  0  0  0
  139.9180   71.7640  222.9650 C   0  0  0  0  0  0  0  0  0  0  0  0
  138.8790   70.8680  223.0400 C   0  0  0  0  0  0  0  0  0  0  0  0
  138.5980   70.1490  224.1950 C   0  0  0  0  0  0  0  0  0  0  0  0
  139.4120   70.3690  225.2790 C   0  0  0  0  0  0  0  0  0  0  0  0
  139.1940   69.6900  226.4670 C   0  0  0  0  0  0  0  0  0  0  0  0
  139.9920   69.8840  227.5860 C   0  0  0  0  0  0  0  0  0  0  0  0
  139.7950   69.2320  228.7520 F   0  0  0  0  0  0  0  0  0  0  0  0
  141.0310   70.7960  227.4750 C   0  0  0  0  0  0  0  0  0  0  0  0
  141.2900   71.4960  226.3200 C   0  0  0  0  0  0  0  0  0  0  0  0
  140.4610   71.2690  225.2200 C   0  0  0  0  0  0  0  0  0  0  0  0
  140.6700   71.9280  224.0660 N   0  0  0  0  0  0  0  0  0  0  0  0
  135.1090   76.1790  223.9040 C   0  0  0  0  0  0  0  0  0  0  0  0
  135.1280   77.8710  223.4880 Cl  0  0  0  0  0  0  0  0  0  0  0  0
  134.5300   75.7310  225.0920 C   0  0  0  0  0  0  0  0  0  0  0  0
  132.3998   73.6946  227.9265 H   0  0  0  0  0  0  0  0  0  0  0  0
  132.0125   74.5475  226.3938 H   0  0  0  0  0  0  0  0  0  0  0  0
  132.2603   72.7684  226.3938 H   0  0  0  0  0  0  0  0  0  0  0  0
  135.0917   72.4240  224.8036 H   0  0  0  0  0  0  0  0  0  0  0  0
  136.1269   73.1845  222.6912 H   0  0  0  0  0  0  0  0  0  0  0  0
  136.1570   76.7252  221.7501 H   0  0  0  0  0  0  0  0  0  0  0  0
  134.8490   74.3678  220.8337 H   0  0  0  0  0  0  0  0  0  0  0  0
  135.2152   75.8744  219.9268 H   0  0  0  0  0  0  0  0  0  0  0  0
  136.3923   74.5175  219.9268 H   0  0  0  0  0  0  0  0  0  0  0  0
  138.0570   74.5400  221.0700 H   0  0  0  0  0  0  0  0  0  0  0  0
  140.2202   74.7743  222.6734 H   0  0  0  0  0  0  0  0  0  0  0  0
  140.8191   77.1834  223.6946 H   0  0  0  0  0  0  0  0  0  0  0  0
  142.1306   76.5938  222.7386 H   0  0  0  0  0  0  0  0  0  0  0  0
  139.8349   78.5006  221.9305 H   0  0  0  0  0  0  0  0  0  0  0  0
  142.5840   78.4870  221.3030 H   0  0  0  0  0  0  0  0  0  0  0  0
  139.5776   77.4759  219.8717 H   0  0  0  0  0  0  0  0  0  0  0  0
  141.3037   77.4054  219.5934 H   0  0  0  0  0  0  0  0  0  0  0  0
  142.1864   73.0703  219.5361 H   0  0  0  0  0  0  0  0  0  0  0  0
  142.8169   74.3750  220.5961 H   0  0  0  0  0  0  0  0  0  0  0  0
  142.2460   72.7620  222.2820 H   0  0  0  0  0  0  0  0  0  0  0  0
  138.2466   70.7144  222.1531 H   0  0  0  0  0  0  0  0  0  0  0  0
  137.7616   69.4359  224.2393 H   0  0  0  0  0  0  0  0  0  0  0  0
  138.3612   68.9737  226.5252 H   0  0  0  0  0  0  0  0  0  0  0  0
  141.6763   70.9669  228.3493 H   0  0  0  0  0  0  0  0  0  0  0  0
  142.1235   72.2117  226.2647 H   0  0  0  0  0  0  0  0  0  0  0  0
  134.0768   76.4665  225.7730 H   0  0  0  0  0  0  0  0  0  0  0  0
  1  2  1  0
  2  3  1  0
  3  4  2  0
  4  5  1  0
  5  6  2  0
  6  7  1  0
  7  8  1  0
  7  9  1  0
  9 10  1  0
 10 11  2  0
 10 12  1  0
 12 13  1  0
 13 14  1  0
 14 15  1  0
 14 16  1  0
 16 17  1  0
 17 18  1  0
 18 19  2  0
 18 20  1  0
 20 21  1  0
 21 22  1  0
 22 23  2  0
 22 24  1  0
 24 25  2  0
 25 26  1  0
 26 27  2  0
 27 28  1  0
 28 29  2  0
 29 30  1  0
 29 31  1  0
 31 32  2  0
 32 33  1  0
 33 34  2  0
  6 35  1  0
 35 36  1  0
 35 37  2  0
 37  3  1  0
 17 12  1  0
 34 24  1  0
 33 27  1  0
  1 38  1  0
  1 39  1  0
  1 40  1  0
  4 41  1  0
  5 42  1  0
  7 43  1  6
  8 44  1  0
  8 45  1  0
  8 46  1  0
  9 47  1  0
 12 48  1  1
 13 49  1  0
 13 50  1  0
 14 51  1  1
 15 52  1  0
 16 53  1  0
 16 54  1  0
 20 55  1  0
 20 56  1  0
 21 57  1  0
 25 58  1  0
 26 59  1  0
 28 60  1  0
 31 61  1  0
 32 62  1  0
 37 63  1  0
M  END
>  <smiles>  (33) 
COc1ccc([C@H](C)NC(=O)[C@@H]2C[C@@H](O)CN2C(=O)CNC(=O)c2ccc3cc(F)ccc3n2)c(Cl)c1

>  <score_type>  (33) 
oracle

>  <origin>  (33) 
autodockgpu

>  <m_score__min__energy>  (33) 
-8.7400000000000002

>  <m_primary>  (33) 
energy

>  <rmsd>  (33) 
6.695202748436495

>  <m_score__min__rmsd>  (33) 
6.695202748436495

>  <meeko>  (33) 
{"free_energy": -6.93, "intermolecular_energy": -9.62, "internal_energy": -3.34, "cluster_size": 5, "cluster_id": 2, "rank_in_cluster": 5}

>  <energy>  (33) 
-6.58

>  <cluster_rmsd>  (33) 
1.55

>  <cluster>  (33) 
9

$$$$

     RDKit          3D

 63 66  0  0  0  0  0  0  0  0999 V2000
  142.9110   80.8450  223.4850 C   0  0  0  0  0  0  0  0  0  0  0  0
  142.1350   79.7010  223.6930 O   0  0  0  0  0  0  0  0  0  0  0  0
  141.7890   78.7680  222.7360 C   0  0  0  0  0  0  0  0  0  0  0  0
  141.0490   77.6570  223.1340 C   0  0  0  0  0  0  0  0  0  0  0  0
  140.6680   76.6790  222.2190 C   0  0  0  0  0  0  0  0  0  0  0  0
  141.0140   76.7790  220.8650 C   0  0  0  0  0  0  0  0  0  0  0  0
  140.5630   75.7210  219.9790 C   0  0  2  0  0  0  0  0  0  0  0  0
  139.0680   75.5960  219.8340 C   0  0  0  0  0  0  0  0  0  0  0  0
  141.1030   74.4030  220.2750 N   0  0  0  0  0  0  0  0  0  0  0  0
  142.5010   74.1680  220.4550 C   0  0  0  0  0  0  0  0  0  0  0  0
  143.3570   75.1120  220.3640 O   0  0  0  0  0  0  0  0  0  0  0  0
  142.9050   72.7700  220.7530 C   0  0  2  0  0  0  0  0  0  0  0  0
  144.4390   72.6450  220.7400 C   0  0  0  0  0  0  0  0  0  0  0  0
  144.6930   72.9170  219.2720 C   0  0  1  0  0  0  0  0  0  0  0  0
  145.9330   72.4440  218.8620 O   0  0  0  0  0  0  0  0  0  0  0  0
  143.5400   72.2560  218.5380 C   0  0  0  0  0  0  0  0  0  0  0  0
  142.6210   71.8960  219.6270 N   0  0  0  0  0  0  0  0  0  0  0  0
  141.6210   70.8560  219.5830 C   0  0  0  0  0  0  0  0  0  0  0  0
  141.8940   69.7710  219.0090 O   0  0  0  0  0  0  0  0  0  0  0  0
  140.3050   71.1300  220.2270 C   0  0  0  0  0  0  0  0  0  0  0  0
  140.3670   70.7530  221.6260 N   0  0  0  0  0  0  0  0  0  0  0  0
  140.3440   71.6880  222.6910 C   0  0  0  0  0  0  0  0  0  0  0  0
  140.2650   72.9410  222.4690 O   0  0  0  0  0  0  0  0  0  0  0  0
  140.4130   71.2110  224.0810 C   0  0  0  0  0  0  0  0  0  0  0  0
  140.7170   72.0370  225.1360 C   0  0  0  0  0  0  0  0  0  0  0  0
  140.7780   71.5790  226.4460 C   0  0  0  0  0  0  0  0  0  0  0  0
  140.5170   70.2460  226.6520 C   0  0  0  0  0  0  0  0  0  0  0  0
  140.5590   69.7150  227.9320 C   0  0  0  0  0  0  0  0  0  0  0  0
  140.3030   68.3740  228.1830 C   0  0  0  0  0  0  0  0  0  0  0  0
  140.3400   67.8380  229.4220 F   0  0  0  0  0  0  0  0  0  0  0  0
  140.0000   67.5700  227.0950 C   0  0  0  0  0  0  0  0  0  0  0  0
  139.9460   68.0470  225.8060 C   0  0  0  0  0  0  0  0  0  0  0  0
  140.2100   69.4020  225.6000 C   0  0  0  0  0  0  0  0  0  0  0  0
  140.1710   69.9200  224.3600 N   0  0  0  0  0  0  0  0  0  0  0  0
  141.7530   77.8910  220.4740 C   0  0  0  0  0  0  0  0  0  0  0  0
  142.1970   78.0310  218.7950 Cl  0  0  0  0  0  0  0  0  0  0  0  0
  142.1270   78.8600  221.4060 C   0  0  0  0  0  0  0  0  0  0  0  0
  143.2012   81.2728  224.4560 H   0  0  0  0  0  0  0  0  0  0  0  0
  143.8145   80.5770  222.9177 H   0  0  0  0  0  0  0  0  0  0  0  0
  142.3279   81.5854  222.9177 H   0  0  0  0  0  0  0  0  0  0  0  0
  140.7604   77.5503  224.1901 H   0  0  0  0  0  0  0  0  0  0  0  0
  140.0852   75.8127  222.5652 H   0  0  0  0  0  0  0  0  0  0  0  0
  140.9770   76.0684  219.0209 H   0  0  0  0  0  0  0  0  0  0  0  0
  138.6049   75.5573  220.8310 H   0  0  0  0  0  0  0  0  0  0  0  0
  138.6792   76.4648  219.2826 H   0  0  0  0  0  0  0  0  0  0  0  0
  138.8288   74.6747  219.2826 H   0  0  0  0  0  0  0  0  0  0  0  0
  140.4220   73.5870  220.3580 H   0  0  0  0  0  0  0  0  0  0  0  0
  142.3973   72.5219  221.6968 H   0  0  0  0  0  0  0  0  0  0  0  0
  144.9184   73.3950  221.3863 H   0  0  0  0  0  0  0  0  0  0  0  0
  144.8367   71.6915  221.1177 H   0  0  0  0  0  0  0  0  0  0  0  0
  144.7318   73.9950  219.0568 H   0  0  0  0  0  0  0  0  0  0  0  0
  145.8280   71.8480  218.0850 H   0  0  0  0  0  0  0  0  0  0  0  0
  143.0653   72.9560  217.8347 H   0  0  0  0  0  0  0  0  0  0  0  0
  143.8499   71.3944  217.9284 H   0  0  0  0  0  0  0  0  0  0  0  0
  140.0724   72.2020  220.1455 H   0  0  0  0  0  0  0  0  0  0  0  0
  139.5202   70.5467  219.7231 H   0  0  0  0  0  0  0  0  0  0  0  0
  140.4350   69.7350  221.9120 H   0  0  0  0  0  0  0  0  0  0  0  0
  140.9194   73.0996  224.9360 H   0  0  0  0  0  0  0  0  0  0  0  0
  141.0240   72.2526  227.2801 H   0  0  0  0  0  0  0  0  0  0  0  0
  140.8030   70.3775  228.7756 H   0  0  0  0  0  0  0  0  0  0  0  0
  139.7937   66.5038  227.2703 H   0  0  0  0  0  0  0  0  0  0  0  0
  139.7025   67.3818  224.9644 H   0  0  0  0  0  0  0  0  0  0  0  0
  142.7121   79.7270  221.0653 H   0  0  0  0  0  0  0  0  0  0  0  0
  1  2  1  0
  2  3  1  0
  3  4  2  0
  4  5  1  0
  5  6  2  0
  6  7  1  0
  7  8  1  0
  7  9  1  0
  9 10  1  0
 10 11  2  0
 10 12  1  0
 12 13  1  0
 13 14  1  0
 14 15  1  0
 14 16  1  0
 16 17  1  0
 17 18  1  0
 18 19  2  0
 18 20  1  0
 20 21  1  0
 21 22  1  0
 22 23  2  0
 22 24  1  0
 24 25  2  0
 25 26  1  0
 26 27  2  0
 27 28  1  0
 28 29  2  0
 29 30  1  0
 29 31  1  0
 31 32  2  0
 32 33  1  0
 33 34  2  0
  6 35  1  0
 35 36  1  0
 35 37  2  0
 37  3  1  0
 17 12  1  0
 34 24  1  0
 33 27  1  0
  1 38  1  0
  1 39  1  0
  1 40  1  0
  4 41  1  0
  5 42  1  0
  7 43  1  6
  8 44  1  0
  8 45  1  0
  8 46  1  0
  9 47  1  0
 12 48  1  1
 13 49  1  0
 13 50  1  0
 14 51  1  1
 15 52  1  0
 16 53  1  0
 16 54  1  0
 20 55  1  0
 20 56  1  0
 21 57  1  0
 25 58  1  0
 26 59  1  0
 28 60  1  0
 31 61  1  0
 32 62  1  0
 37 63  1  0
M  END
>  <smiles>  (34) 
COc1ccc([C@H](C)NC(=O)[C@@H]2C[C@@H](O)CN2C(=O)CNC(=O)c2ccc3cc(F)ccc3n2)c(Cl)c1

>  <score_type>  (34) 
oracle

>  <origin>  (34) 
autodockgpu

>  <m_score__min__energy>  (34) 
-8.7400000000000002

>  <m_primary>  (34) 
energy

>  <rmsd>  (34) 
5.0660661296393625

>  <m_score__min__rmsd>  (34) 
5.0660661296393625

>  <meeko>  (34) 
{"free_energy": -8.03, "intermolecular_energy": -10.72, "internal_energy": -3.26, "cluster_size": 3, "cluster_id": 4, "rank_in_cluster": 2}

>  <energy>  (34) 
-6.48

>  <cluster_rmsd>  (34) 
1.4

>  <cluster>  (34) 
9

$$$$

     RDKit          3D

 63 66  0  0  0  0  0  0  0  0999 V2000
  141.9950   82.4770  217.9730 C   0  0  0  0  0  0  0  0  0  0  0  0
  141.2270   82.5860  219.1360 O   0  0  0  0  0  0  0  0  0  0  0  0
  141.0980   81.6230  220.1180 C   0  0  0  0  0  0  0  0  0  0  0  0
  141.8720   80.4690  220.0170 C   0  0  0  0  0  0  0  0  0  0  0  0
  141.7900   79.4600  220.9720 C   0  0  0  0  0  0  0  0  0  0  0  0
  140.9250   79.5690  222.0690 C   0  0  0  0  0  0  0  0  0  0  0  0
  140.9140   78.4750  223.0240 C   0  0  2  0  0  0  0  0  0  0  0  0
  141.8210   78.6490  224.2140 C   0  0  0  0  0  0  0  0  0  0  0  0
  141.1620   77.1610  222.4510 N   0  0  0  0  0  0  0  0  0  0  0  0
  140.1140   76.2250  222.1920 C   0  0  0  0  0  0  0  0  0  0  0  0
  138.8930   76.4960  222.4520 O   0  0  0  0  0  0  0  0  0  0  0  0
  140.5190   74.9220  221.6040 C   0  0  2  0  0  0  0  0  0  0  0  0
  141.9740   74.9910  221.1100 C   0  0  0  0  0  0  0  0  0  0  0  0
  141.8040   75.9930  219.9870 C   0  0  1  0  0  0  0  0  0  0  0  0
  142.8460   75.9320  219.0720 O   0  0  0  0  0  0  0  0  0  0  0  0
  140.4570   75.6710  219.3660 C   0  0  0  0  0  0  0  0  0  0  0  0
  139.8770   74.7120  220.3170 N   0  0  0  0  0  0  0  0  0  0  0  0
  138.8580   73.7340  220.0190 C   0  0  0  0  0  0  0  0  0  0  0  0
  138.8900   73.1380  218.9130 O   0  0  0  0  0  0  0  0  0  0  0  0
  137.8140   73.4830  221.0520 C   0  0  0  0  0  0  0  0  0  0  0  0
  138.4390   72.9470  222.2470 N   0  0  0  0  0  0  0  0  0  0  0  0
  138.7670   71.5780  222.4120 C   0  0  0  0  0  0  0  0  0  0  0  0
  138.5230   70.7250  221.4970 O   0  0  0  0  0  0  0  0  0  0  0  0
  139.3980   71.1260  223.6610 C   0  0  0  0  0  0  0  0  0  0  0  0
  140.3320   71.8760  224.3360 C   0  0  0  0  0  0  0  0  0  0  0  0
  140.9210   71.4430  225.5170 C   0  0  0  0  0  0  0  0  0  0  0  0
  140.5290   70.2160  225.9950 C   0  0  0  0  0  0  0  0  0  0  0  0
  141.0740   69.7170  227.1680 C   0  0  0  0  0  0  0  0  0  0  0  0
  140.7060   68.4820  227.6850 C   0  0  0  0  0  0  0  0  0  0  0  0
  141.2250   67.9790  228.8250 F   0  0  0  0  0  0  0  0  0  0  0  0
  139.7610   67.7530  226.9790 C   0  0  0  0  0  0  0  0  0  0  0  0
  139.1910   68.2030  225.8110 C   0  0  0  0  0  0  0  0  0  0  0  0
  139.5910   69.4500  225.3270 C   0  0  0  0  0  0  0  0  0  0  0  0
  139.0650   69.9370  224.1900 N   0  0  0  0  0  0  0  0  0  0  0  0
  140.1540   80.7230  222.1640 C   0  0  0  0  0  0  0  0  0  0  0  0
  139.0690   80.8740  223.5190 Cl  0  0  0  0  0  0  0  0  0  0  0  0
  140.2490   81.7240  221.1960 C   0  0  0  0  0  0  0  0  0  0  0  0
  143.0507   82.3272  218.2434 H   0  0  0  0  0  0  0  0  0  0  0  0
  141.6431   81.6198  217.3802 H   0  0  0  0  0  0  0  0  0  0  0  0
  141.8955   83.3983  217.3802 H   0  0  0  0  0  0  0  0  0  0  0  0
  142.5605   80.3533  219.1669 H   0  0  0  0  0  0  0  0  0  0  0  0
  142.4150   78.5613  220.8638 H   0  0  0  0  0  0  0  0  0  0  0  0
  139.8719   78.5209  223.3733 H   0  0  0  0  0  0  0  0  0  0  0  0
  141.2371   78.5370  225.1395 H   0  0  0  0  0  0  0  0  0  0  0  0
  142.6133   77.8865  224.1858 H   0  0  0  0  0  0  0  0  0  0  0  0
  142.2749   79.6506  224.1858 H   0  0  0  0  0  0  0  0  0  0  0  0
  142.1680   76.8940  222.2200 H   0  0  0  0  0  0  0  0  0  0  0  0
  140.2968   74.1765  222.3817 H   0  0  0  0  0  0  0  0  0  0  0  0
  142.6561   75.3597  221.8903 H   0  0  0  0  0  0  0  0  0  0  0  0
  142.4173   74.0277  220.8175 H   0  0  0  0  0  0  0  0  0  0  0  0
  141.8317   77.0289  220.3560 H   0  0  0  0  0  0  0  0  0  0  0  0
  143.4780   76.6710  219.2270 H   0  0  0  0  0  0  0  0  0  0  0  0
  139.8333   76.5734  219.2841 H   0  0  0  0  0  0  0  0  0  0  0  0
  140.5343   75.2749  218.3427 H   0  0  0  0  0  0  0  0  0  0  0  0
  137.3044   74.4268  221.2959 H   0  0  0  0  0  0  0  0  0  0  0  0
  137.0798   72.7609  220.6653 H   0  0  0  0  0  0  0  0  0  0  0  0
  138.6790   73.5770  223.0630 H   0  0  0  0  0  0  0  0  0  0  0  0
  140.6233   72.8543  223.9259 H   0  0  0  0  0  0  0  0  0  0  0  0
  141.6672   72.0545  226.0455 H   0  0  0  0  0  0  0  0  0  0  0  0
  141.8215   70.3184  227.7061 H   0  0  0  0  0  0  0  0  0  0  0  0
  139.4538   66.7719  227.3702 H   0  0  0  0  0  0  0  0  0  0  0  0
  138.4436   67.5995  225.2751 H   0  0  0  0  0  0  0  0  0  0  0  0
  139.6243   82.6236  221.2983 H   0  0  0  0  0  0  0  0  0  0  0  0
  1  2  1  0
  2  3  1  0
  3  4  2  0
  4  5  1  0
  5  6  2  0
  6  7  1  0
  7  8  1  0
  7  9  1  0
  9 10  1  0
 10 11  2  0
 10 12  1  0
 12 13  1  0
 13 14  1  0
 14 15  1  0
 14 16  1  0
 16 17  1  0
 17 18  1  0
 18 19  2  0
 18 20  1  0
 20 21  1  0
 21 22  1  0
 22 23  2  0
 22 24  1  0
 24 25  2  0
 25 26  1  0
 26 27  2  0
 27 28  1  0
 28 29  2  0
 29 30  1  0
 29 31  1  0
 31 32  2  0
 32 33  1  0
 33 34  2  0
  6 35  1  0
 35 36  1  0
 35 37  2  0
 37  3  1  0
 17 12  1  0
 34 24  1  0
 33 27  1  0
  1 38  1  0
  1 39  1  0
  1 40  1  0
  4 41  1  0
  5 42  1  0
  7 43  1  1
  8 44  1  0
  8 45  1  0
  8 46  1  0
  9 47  1  0
 12 48  1  1
 13 49  1  0
 13 50  1  0
 14 51  1  1
 15 52  1  0
 16 53  1  0
 16 54  1  0
 20 55  1  0
 20 56  1  0
 21 57  1  0
 25 58  1  0
 26 59  1  0
 28 60  1  0
 31 61  1  0
 32 62  1  0
 37 63  1  0
M  END
>  <smiles>  (35) 
COc1ccc([C@H](C)NC(=O)[C@@H]2C[C@@H](O)CN2C(=O)CNC(=O)c2ccc3cc(F)ccc3n2)c(Cl)c1

>  <score_type>  (35) 
oracle

>  <origin>  (35) 
autodockgpu

>  <m_score__min__energy>  (35) 
-8.7400000000000002

>  <m_primary>  (35) 
energy

>  <rmsd>  (35) 
2.816521667627189

>  <m_score__min__rmsd>  (35) 
2.816521667627189

>  <meeko>  (35) 
{"free_energy": -8.39, "intermolecular_energy": -11.08, "internal_energy": -1.97, "cluster_size": 8, "cluster_id": 3, "rank_in_cluster": 3}

>  <energy>  (35) 
-6.47

>  <cluster_rmsd>  (35) 
1.4

>  <cluster>  (35) 
9

$$$$

     RDKit          3D

 63 66  0  0  0  0  0  0  0  0999 V2000
  135.8290   78.2880  219.4850 C   0  0  0  0  0  0  0  0  0  0  0  0
  136.7780   79.1490  218.9260 O   0  0  0  0  0  0  0  0  0  0  0  0
  138.1480   78.9810  218.9590 C   0  0  0  0  0  0  0  0  0  0  0  0
  138.6770   77.7770  218.5000 C   0  0  0  0  0  0  0  0  0  0  0  0
  140.0490   77.5430  218.5060 C   0  0  0  0  0  0  0  0  0  0  0  0
  140.9470   78.5110  218.9750 C   0  0  0  0  0  0  0  0  0  0  0  0
  142.3620   78.1870  218.9320 C   0  0  2  0  0  0  0  0  0  0  0  0
  142.9050   77.8520  217.5670 C   0  0  0  0  0  0  0  0  0  0  0  0
  142.7800   77.1440  219.8560 N   0  0  0  0  0  0  0  0  0  0  0  0
  142.7580   75.7580  219.5110 C   0  0  0  0  0  0  0  0  0  0  0  0
  142.3670   75.3580  218.3620 O   0  0  0  0  0  0  0  0  0  0  0  0
  143.2150   74.8070  220.5580 C   0  0  2  0  0  0  0  0  0  0  0  0
  144.7330   74.5850  220.4490 C   0  0  0  0  0  0  0  0  0  0  0  0
  144.7820   73.8840  219.1070 C   0  0  1  0  0  0  0  0  0  0  0  0
  145.9590   73.1660  218.9370 O   0  0  0  0  0  0  0  0  0  0  0  0
  143.5460   73.0020  219.0730 C   0  0  0  0  0  0  0  0  0  0  0  0
  142.7880   73.4520  220.2490 N   0  0  0  0  0  0  0  0  0  0  0  0
  141.8030   72.6810  220.9680 C   0  0  0  0  0  0  0  0  0  0  0  0
  142.1070   71.5310  221.3740 O   0  0  0  0  0  0  0  0  0  0  0  0
  140.4660   73.3000  221.1920 C   0  0  0  0  0  0  0  0  0  0  0  0
  140.6370   74.6210  221.7650 N   0  0  0  0  0  0  0  0  0  0  0  0
  139.8130   75.7280  221.4400 C   0  0  0  0  0  0  0  0  0  0  0  0
  138.8560   75.6170  220.6060 O   0  0  0  0  0  0  0  0  0  0  0  0
  140.0640   77.0320  222.0720 C   0  0  0  0  0  0  0  0  0  0  0  0
  139.0640   77.7940  222.6280 C   0  0  0  0  0  0  0  0  0  0  0  0
  139.3100   79.0230  223.2260 C   0  0  0  0  0  0  0  0  0  0  0  0
  140.6130   79.4580  223.2430 C   0  0  0  0  0  0  0  0  0  0  0  0
  140.9360   80.6750  223.8210 C   0  0  0  0  0  0  0  0  0  0  0  0
  142.2390   81.1510  223.8580 C   0  0  0  0  0  0  0  0  0  0  0  0
  142.5740   82.3340  224.4160 F   0  0  0  0  0  0  0  0  0  0  0  0
  143.2230   80.3570  223.2880 C   0  0  0  0  0  0  0  0  0  0  0  0
  142.9550   79.1420  222.7020 C   0  0  0  0  0  0  0  0  0  0  0  0
  141.6300   78.7030  222.6870 C   0  0  0  0  0  0  0  0  0  0  0  0
  141.3130   77.5230  222.1260 N   0  0  0  0  0  0  0  0  0  0  0  0
  140.4130   79.7110  219.4320 C   0  0  0  0  0  0  0  0  0  0  0  0
  141.5140   80.9260  220.0220 Cl  0  0  0  0  0  0  0  0  0  0  0  0
  139.0350   79.9270  219.4190 C   0  0  0  0  0  0  0  0  0  0  0  0
  135.8872   78.3408  220.5822 H   0  0  0  0  0  0  0  0  0  0  0  0
  134.8230   78.5880  219.1563 H   0  0  0  0  0  0  0  0  0  0  0  0
  136.0300   77.2577  219.1563 H   0  0  0  0  0  0  0  0  0  0  0  0
  137.9979   76.9967  218.1259 H   0  0  0  0  0  0  0  0  0  0  0  0
  140.4350   76.5816  218.1362 H   0  0  0  0  0  0  0  0  0  0  0  0
  142.7984   79.1439  219.2542 H   0  0  0  0  0  0  0  0  0  0  0  0
  143.8367   77.2772  217.6740 H   0  0  0  0  0  0  0  0  0  0  0  0
  142.1658   77.2527  217.0153 H   0  0  0  0  0  0  0  0  0  0  0  0
  143.1089   78.7815  217.0153 H   0  0  0  0  0  0  0  0  0  0  0  0
  143.1130   77.4350  220.8260 H   0  0  0  0  0  0  0  0  0  0  0  0
  142.8449   75.2257  221.5055 H   0  0  0  0  0  0  0  0  0  0  0  0
  145.2877   75.5348  220.4373 H   0  0  0  0  0  0  0  0  0  0  0  0
  145.1887   74.0334  221.2845 H   0  0  0  0  0  0  0  0  0  0  0  0
  144.7807   74.5996  218.2716 H   0  0  0  0  0  0  0  0  0  0  0  0
  146.6980   73.7760  218.7090 H   0  0  0  0  0  0  0  0  0  0  0  0
  142.9722   73.1606  218.1480 H   0  0  0  0  0  0  0  0  0  0  0  0
  143.7791   71.9272  219.0921 H   0  0  0  0  0  0  0  0  0  0  0  0
  139.9342   73.3821  220.2326 H   0  0  0  0  0  0  0  0  0  0  0  0
  139.8816   72.6731  221.8816 H   0  0  0  0  0  0  0  0  0  0  0  0
  141.4060   74.8130  222.4670 H   0  0  0  0  0  0  0  0  0  0  0  0
  138.0312   77.4165  222.5981 H   0  0  0  0  0  0  0  0  0  0  0  0
  138.4984   79.6210  223.6661 H   0  0  0  0  0  0  0  0  0  0  0  0
  140.1341   81.2833  224.2647 H   0  0  0  0  0  0  0  0  0  0  0  0
  144.2631   80.7146  223.3054 H   0  0  0  0  0  0  0  0  0  0  0  0
  143.7590   78.5356  222.2593 H   0  0  0  0  0  0  0  0  0  0  0  0
  138.6441   80.8863  219.7891 H   0  0  0  0  0  0  0  0  0  0  0  0
  1  2  1  0
  2  3  1  0
  3  4  2  0
  4  5  1  0
  5  6  2  0
  6  7  1  0
  7  8  1  0
  7  9  1  0
  9 10  1  0
 10 11  2  0
 10 12  1  0
 12 13  1  0
 13 14  1  0
 14 15  1  0
 14 16  1  0
 16 17  1  0
 17 18  1  0
 18 19  2  0
 18 20  1  0
 20 21  1  0
 21 22  1  0
 22 23  2  0
 22 24  1  0
 24 25  2  0
 25 26  1  0
 26 27  2  0
 27 28  1  0
 28 29  2  0
 29 30  1  0
 29 31  1  0
 31 32  2  0
 32 33  1  0
 33 34  2  0
  6 35  1  0
 35 36  1  0
 35 37  2  0
 37  3  1  0
 17 12  1  0
 34 24  1  0
 33 27  1  0
  1 38  1  0
  1 39  1  0
  1 40  1  0
  4 41  1  0
  5 42  1  0
  7 43  1  1
  8 44  1  0
  8 45  1  0
  8 46  1  0
  9 47  1  0
 12 48  1  1
 13 49  1  0
 13 50  1  0
 14 51  1  6
 15 52  1  0
 16 53  1  0
 16 54  1  0
 20 55  1  0
 20 56  1  0
 21 57  1  0
 25 58  1  0
 26 59  1  0
 28 60  1  0
 31 61  1  0
 32 62  1  0
 37 63  1  0
M  END
>  <smiles>  (36) 
COc1ccc([C@H](C)NC(=O)[C@@H]2C[C@@H](O)CN2C(=O)CNC(=O)c2ccc3cc(F)ccc3n2)c(Cl)c1

>  <score_type>  (36) 
oracle

>  <origin>  (36) 
autodockgpu

>  <m_score__min__energy>  (36) 
-8.7400000000000002

>  <m_primary>  (36) 
energy

>  <rmsd>  (36) 
6.843830173649914

>  <m_score__min__rmsd>  (36) 
6.843830173649914

>  <meeko>  (36) 
{"free_energy": -6.6, "intermolecular_energy": -9.29, "internal_energy": -4.53, "cluster_size": 19, "cluster_id": 9, "rank_in_cluster": 8}

>  <energy>  (36) 
-6.46

>  <cluster_rmsd>  (36) 
1.51

>  <cluster>  (36) 
9

$$$$

     RDKit          3D

 63 66  0  0  0  0  0  0  0  0999 V2000
  138.9570   85.3390  221.1910 C   0  0  0  0  0  0  0  0  0  0  0  0
  138.5710   83.9960  221.1710 O   0  0  0  0  0  0  0  0  0  0  0  0
  139.3290   82.9250  221.6030 C   0  0  0  0  0  0  0  0  0  0  0  0
  140.6820   82.8990  221.2750 C   0  0  0  0  0  0  0  0  0  0  0  0
  141.5020   81.8500  221.6790 C   0  0  0  0  0  0  0  0  0  0  0  0
  140.9950   80.7820  222.4310 C   0  0  0  0  0  0  0  0  0  0  0  0
  141.9250   79.7370  222.8220 C   0  0  2  0  0  0  0  0  0  0  0  0
  143.3740   80.1490  222.8680 C   0  0  0  0  0  0  0  0  0  0  0  0
  141.8260   78.5090  222.0480 N   0  0  0  0  0  0  0  0  0  0  0  0
  141.8240   78.5000  220.6200 C   0  0  0  0  0  0  0  0  0  0  0  0
  141.9100   79.5780  219.9410 O   0  0  0  0  0  0  0  0  0  0  0  0
  141.7180   77.1690  219.9660 C   0  0  2  0  0  0  0  0  0  0  0  0
  141.3390   77.3340  218.4840 C   0  0  0  0  0  0  0  0  0  0  0  0
  139.9450   77.9020  218.6490 C   0  0  1  0  0  0  0  0  0  0  0  0
  139.1780   77.7450  217.5020 O   0  0  0  0  0  0  0  0  0  0  0  0
  139.3590   77.1790  219.8500 C   0  0  0  0  0  0  0  0  0  0  0  0
  140.5210   76.4700  220.4050 N   0  0  0  0  0  0  0  0  0  0  0  0
  140.4770   75.2880  221.2320 C   0  0  0  0  0  0  0  0  0  0  0  0
  141.4510   75.0350  221.9850 O   0  0  0  0  0  0  0  0  0  0  0  0
  139.2660   74.4240  221.1430 C   0  0  0  0  0  0  0  0  0  0  0  0
  139.2740   73.4720  222.2380 N   0  0  0  0  0  0  0  0  0  0  0  0
  140.1350   72.3460  222.2900 C   0  0  0  0  0  0  0  0  0  0  0  0
  140.9660   72.1060  221.3550 O   0  0  0  0  0  0  0  0  0  0  0  0
  140.0700   71.4340  223.4410 C   0  0  0  0  0  0  0  0  0  0  0  0
  139.5300   70.1720  223.3610 C   0  0  0  0  0  0  0  0  0  0  0  0
  139.4750   69.3150  224.4530 C   0  0  0  0  0  0  0  0  0  0  0  0
  139.9910   69.7820  225.6370 C   0  0  0  0  0  0  0  0  0  0  0  0
  139.9710   68.9850  226.7710 C   0  0  0  0  0  0  0  0  0  0  0  0
  140.4800   69.4190  227.9870 C   0  0  0  0  0  0  0  0  0  0  0  0
  140.4700   68.6580  229.1020 F   0  0  0  0  0  0  0  0  0  0  0  0
  141.0180   70.6970  228.0320 C   0  0  0  0  0  0  0  0  0  0  0  0
  141.0610   71.5270  226.9370 C   0  0  0  0  0  0  0  0  0  0  0  0
  140.5370   71.0490  225.7340 C   0  0  0  0  0  0  0  0  0  0  0  0
  140.5540   71.8210  224.6330 N   0  0  0  0  0  0  0  0  0  0  0  0
  139.6430   80.8130  222.7550 C   0  0  0  0  0  0  0  0  0  0  0  0
  138.9920   79.4920  223.6860 Cl  0  0  0  0  0  0  0  0  0  0  0  0
  138.8360   81.8740  222.3400 C   0  0  0  0  0  0  0  0  0  0  0  0
  139.0542   85.6771  222.2332 H   0  0  0  0  0  0  0  0  0  0  0  0
  139.9235   85.4504  220.6777 H   0  0  0  0  0  0  0  0  0  0  0  0
  138.1971   85.9466  220.6777 H   0  0  0  0  0  0  0  0  0  0  0  0
  141.1105   83.7230  220.6856 H   0  0  0  0  0  0  0  0  0  0  0  0
  142.5668   81.8593  221.4032 H   0  0  0  0  0  0  0  0  0  0  0  0
  141.5874   79.5385  223.8499 H   0  0  0  0  0  0  0  0  0  0  0  0
  143.6961   80.2406  223.9158 H   0  0  0  0  0  0  0  0  0  0  0  0
  143.9874   79.3897  222.3609 H   0  0  0  0  0  0  0  0  0  0  0  0
  143.4961   81.1175  222.3609 H   0  0  0  0  0  0  0  0  0  0  0  0
  141.7510   77.5860  222.5760 H   0  0  0  0  0  0  0  0  0  0  0  0
  142.6746   76.6691  220.1782 H   0  0  0  0  0  0  0  0  0  0  0  0
  142.0092   78.0341  217.9638 H   0  0  0  0  0  0  0  0  0  0  0  0
  141.4047   76.4187  217.8774 H   0  0  0  0  0  0  0  0  0  0  0  0
  139.9647   78.9897  218.8120 H   0  0  0  0  0  0  0  0  0  0  0  0
  139.4210   78.4280  216.8360 H   0  0  0  0  0  0  0  0  0  0  0  0
  138.9455   77.8921  220.5783 H   0  0  0  0  0  0  0  0  0  0  0  0
  138.5251   76.5102  219.5903 H   0  0  0  0  0  0  0  0  0  0  0  0
  138.3632   75.0492  221.2064 H   0  0  0  0  0  0  0  0  0  0  0  0
  139.2689   73.8834  220.1850 H   0  0  0  0  0  0  0  0  0  0  0  0
  138.6180   73.5860  223.0610 H   0  0  0  0  0  0  0  0  0  0  0  0
  139.1268   69.8284  222.3970 H   0  0  0  0  0  0  0  0  0  0  0  0
  139.0382   68.3086  224.3730 H   0  0  0  0  0  0  0  0  0  0  0  0
  139.5377   67.9761  226.7049 H   0  0  0  0  0  0  0  0  0  0  0  0
  141.4280   71.0620  228.9853 H   0  0  0  0  0  0  0  0  0  0  0  0
  141.4944   72.5357  227.0062 H   0  0  0  0  0  0  0  0  0  0  0  0
  137.7701   81.8690  222.6117 H   0  0  0  0  0  0  0  0  0  0  0  0
  1  2  1  0
  2  3  1  0
  3  4  2  0
  4  5  1  0
  5  6  2  0
  6  7  1  0
  7  8  1  0
  7  9  1  0
  9 10  1  0
 10 11  2  0
 10 12  1  0
 12 13  1  0
 13 14  1  0
 14 15  1  0
 14 16  1  0
 16 17  1  0
 17 18  1  0
 18 19  2  0
 18 20  1  0
 20 21  1  0
 21 22  1  0
 22 23  2  0
 22 24  1  0
 24 25  2  0
 25 26  1  0
 26 27  2  0
 27 28  1  0
 28 29  2  0
 29 30  1  0
 29 31  1  0
 31 32  2  0
 32 33  1  0
 33 34  2  0
  6 35  1  0
 35 36  1  0
 35 37  2  0
 37  3  1  0
 17 12  1  0
 34 24  1  0
 33 27  1  0
  1 38  1  0
  1 39  1  0
  1 40  1  0
  4 41  1  0
  5 42  1  0
  7 43  1  1
  8 44  1  0
  8 45  1  0
  8 46  1  0
  9 47  1  0
 12 48  1  6
 13 49  1  0
 13 50  1  0
 14 51  1  1
 15 52  1  0
 16 53  1  0
 16 54  1  0
 20 55  1  0
 20 56  1  0
 21 57  1  0
 25 58  1  0
 26 59  1  0
 28 60  1  0
 31 61  1  0
 32 62  1  0
 37 63  1  0
M  END
>  <smiles>  (37) 
COc1ccc([C@H](C)NC(=O)[C@@H]2C[C@@H](O)CN2C(=O)CNC(=O)c2ccc3cc(F)ccc3n2)c(Cl)c1

>  <score_type>  (37) 
oracle

>  <origin>  (37) 
autodockgpu

>  <m_score__min__energy>  (37) 
-8.7400000000000002

>  <m_primary>  (37) 
energy

>  <rmsd>  (37) 
1.6573278240020384

>  <m_score__min__rmsd>  (37) 
1.6573278240020384

>  <meeko>  (37) 
{"free_energy": -8.6, "intermolecular_energy": -11.28, "internal_energy": -2.2, "cluster_size": 8, "cluster_id": 3, "rank_in_cluster": 1}

>  <energy>  (37) 
-6.43

>  <cluster_rmsd>  (37) 
1.87

>  <cluster>  (37) 
9

$$$$

     RDKit          3D

 63 66  0  0  0  0  0  0  0  0999 V2000
  137.3250   81.2600  224.8300 C   0  0  0  0  0  0  0  0  0  0  0  0
  138.2110   80.1810  224.7790 O   0  0  0  0  0  0  0  0  0  0  0  0
  139.1190   79.9210  223.7710 C   0  0  0  0  0  0  0  0  0  0  0  0
  138.6400   79.4150  222.5650 C   0  0  0  0  0  0  0  0  0  0  0  0
  139.5020   79.1320  221.5090 C   0  0  0  0  0  0  0  0  0  0  0  0
  140.8820   79.3470  221.6230 C   0  0  0  0  0  0  0  0  0  0  0  0
  141.7040   79.0370  220.4660 C   0  0  2  0  0  0  0  0  0  0  0  0
  141.0790   79.3430  219.1300 C   0  0  0  0  0  0  0  0  0  0  0  0
  142.2170   77.6760  220.4270 N   0  0  0  0  0  0  0  0  0  0  0  0
  141.3770   76.5460  220.1860 C   0  0  0  0  0  0  0  0  0  0  0  0
  140.1210   76.6720  219.9900 O   0  0  0  0  0  0  0  0  0  0  0  0
  142.0420   75.2160  220.1740 C   0  0  2  0  0  0  0  0  0  0  0  0
  143.4460   75.3300  219.5540 C   0  0  0  0  0  0  0  0  0  0  0  0
  143.0580   75.6860  218.1340 C   0  0  1  0  0  0  0  0  0  0  0  0
  144.0810   75.4230  217.2330 O   0  0  0  0  0  0  0  0  0  0  0  0
  141.8030   74.8810  217.8490 C   0  0  0  0  0  0  0  0  0  0  0  0
  141.4470   74.3480  219.1720 N   0  0  0  0  0  0  0  0  0  0  0  0
  140.6550   73.1680  219.4250 C   0  0  0  0  0  0  0  0  0  0  0  0
  141.1020   72.0470  219.0750 O   0  0  0  0  0  0  0  0  0  0  0  0
  139.3360   73.3490  220.0950 C   0  0  0  0  0  0  0  0  0  0  0  0
  139.2520   72.4630  221.2400 N   0  0  0  0  0  0  0  0  0  0  0  0
  140.1270   72.5380  222.3530 C   0  0  0  0  0  0  0  0  0  0  0  0
  141.0560   73.4090  222.4060 O   0  0  0  0  0  0  0  0  0  0  0  0
  139.9670   71.5940  223.4690 C   0  0  0  0  0  0  0  0  0  0  0  0
  139.2710   70.4150  223.3520 C   0  0  0  0  0  0  0  0  0  0  0  0
  139.1260   69.5270  224.4110 C   0  0  0  0  0  0  0  0  0  0  0  0
  139.7160   69.8770  225.6010 C   0  0  0  0  0  0  0  0  0  0  0  0
  139.6140   69.0430  226.7030 C   0  0  0  0  0  0  0  0  0  0  0  0
  140.1940   69.3590  227.9230 C   0  0  0  0  0  0  0  0  0  0  0  0
  140.1060   68.5600  229.0080 F   0  0  0  0  0  0  0  0  0  0  0  0
  140.8890   70.5560  228.0070 C   0  0  0  0  0  0  0  0  0  0  0  0
  141.0190   71.4190  226.9440 C   0  0  0  0  0  0  0  0  0  0  0  0
  140.4190   71.0600  225.7350 C   0  0  0  0  0  0  0  0  0  0  0  0
  140.5150   71.8680  224.6640 N   0  0  0  0  0  0  0  0  0  0  0  0
  141.3540   79.8520  222.8290 C   0  0  0  0  0  0  0  0  0  0  0  0
  143.0680   80.1230  222.9900 Cl  0  0  0  0  0  0  0  0  0  0  0  0
  140.4750   80.1290  223.8770 C   0  0  0  0  0  0  0  0  0  0  0  0
  137.1165   81.5139  225.8798 H   0  0  0  0  0  0  0  0  0  0  0  0
  137.7746   82.1278  224.3252 H   0  0  0  0  0  0  0  0  0  0  0  0
  136.3863   80.9879  224.3252 H   0  0  0  0  0  0  0  0  0  0  0  0
  137.5614   79.2358  222.4447 H   0  0  0  0  0  0  0  0  0  0  0  0
  139.0928   78.7329  220.5692 H   0  0  0  0  0  0  0  0  0  0  0  0
  142.5434   79.7304  220.6227 H   0  0  0  0  0  0  0  0  0  0  0  0
  140.1008   79.8219  219.2839 H   0  0  0  0  0  0  0  0  0  0  0  0
  141.7348   80.0219  218.5653 H   0  0  0  0  0  0  0  0  0  0  0  0
  140.9450   78.4086  218.5653 H   0  0  0  0  0  0  0  0  0  0  0  0
  143.2600   77.5260  220.5860 H   0  0  0  0  0  0  0  0  0  0  0  0
  141.9887   74.8602  221.2135 H   0  0  0  0  0  0  0  0  0  0  0  0
  144.0420   76.1234  220.0287 H   0  0  0  0  0  0  0  0  0  0  0  0
  144.0801   74.4373  219.6585 H   0  0  0  0  0  0  0  0  0  0  0  0
  142.8703   76.7639  218.0201 H   0  0  0  0  0  0  0  0  0  0  0  0
  144.9240   75.2580  217.7150 H   0  0  0  0  0  0  0  0  0  0  0  0
  141.0026   75.5230  217.4526 H   0  0  0  0  0  0  0  0  0  0  0  0
  141.9521   74.0979  217.0910 H   0  0  0  0  0  0  0  0  0  0  0  0
  139.2344   74.3919  220.4297 H   0  0  0  0  0  0  0  0  0  0  0  0
  138.5284   73.1119  219.3868 H   0  0  0  0  0  0  0  0  0  0  0  0
  138.5140   71.7060  221.2880 H   0  0  0  0  0  0  0  0  0  0  0  0
  138.8116   70.1649  222.3843 H   0  0  0  0  0  0  0  0  0  0  0  0
  138.5648   68.5873  224.3014 H   0  0  0  0  0  0  0  0  0  0  0  0
  139.0553   68.1003  226.6074 H   0  0  0  0  0  0  0  0  0  0  0  0
  141.3565   70.8270  228.9651 H   0  0  0  0  0  0  0  0  0  0  0  0
  141.5775   72.3615  227.0429 H   0  0  0  0  0  0  0  0  0  0  0  0
  140.8798   80.5269  224.8193 H   0  0  0  0  0  0  0  0  0  0  0  0
  1  2  1  0
  2  3  1  0
  3  4  2  0
  4  5  1  0
  5  6  2  0
  6  7  1  0
  7  8  1  0
  7  9  1  0
  9 10  1  0
 10 11  2  0
 10 12  1  0
 12 13  1  0
 13 14  1  0
 14 15  1  0
 14 16  1  0
 16 17  1  0
 17 18  1  0
 18 19  2  0
 18 20  1  0
 20 21  1  0
 21 22  1  0
 22 23  2  0
 22 24  1  0
 24 25  2  0
 25 26  1  0
 26 27  2  0
 27 28  1  0
 28 29  2  0
 29 30  1  0
 29 31  1  0
 31 32  2  0
 32 33  1  0
 33 34  2  0
  6 35  1  0
 35 36  1  0
 35 37  2  0
 37  3  1  0
 17 12  1  0
 34 24  1  0
 33 27  1  0
  1 38  1  0
  1 39  1  0
  1 40  1  0
  4 41  1  0
  5 42  1  0
  7 43  1  1
  8 44  1  0
  8 45  1  0
  8 46  1  0
  9 47  1  0
 12 48  1  1
 13 49  1  0
 13 50  1  0
 14 51  1  1
 15 52  1  0
 16 53  1  0
 16 54  1  0
 20 55  1  0
 20 56  1  0
 21 57  1  0
 25 58  1  0
 26 59  1  0
 28 60  1  0
 31 61  1  0
 32 62  1  0
 37 63  1  0
M  END
>  <smiles>  (38) 
COc1ccc([C@H](C)NC(=O)[C@@H]2C[C@@H](O)CN2C(=O)CNC(=O)c2ccc3cc(F)ccc3n2)c(Cl)c1

>  <score_type>  (38) 
oracle

>  <origin>  (38) 
autodockgpu

>  <m_score__min__energy>  (38) 
-8.7400000000000002

>  <m_primary>  (38) 
energy

>  <rmsd>  (38) 
3.362874409360992

>  <m_score__min__rmsd>  (38) 
3.362874409360992

>  <meeko>  (38) 
{"free_energy": -8.74, "intermolecular_energy": -11.42, "internal_energy": -1.96, "cluster_size": 4, "cluster_id": 1, "rank_in_cluster": 1}

>  <energy>  (38) 
-6.41

>  <cluster_rmsd>  (38) 
1.55

>  <cluster>  (38) 
9

$$$$

     RDKit          3D

 63 66  0  0  0  0  0  0  0  0999 V2000
  132.3400   77.3570  227.5930 C   0  0  0  0  0  0  0  0  0  0  0  0
  133.2700   76.7740  226.7270 O   0  0  0  0  0  0  0  0  0  0  0  0
  133.4110   75.4230  226.4780 C   0  0  0  0  0  0  0  0  0  0  0  0
  134.5160   74.9990  225.7420 C   0  0  0  0  0  0  0  0  0  0  0  0
  134.7180   73.6530  225.4550 C   0  0  0  0  0  0  0  0  0  0  0  0
  133.8170   72.6750  225.8970 C   0  0  0  0  0  0  0  0  0  0  0  0
  134.1140   71.2920  225.5640 C   0  0  2  0  0  0  0  0  0  0  0  0
  134.3780   70.3890  226.7410 C   0  0  0  0  0  0  0  0  0  0  0  0
  135.1900   71.1120  224.6020 N   0  0  0  0  0  0  0  0  0  0  0  0
  135.5740   69.8270  224.1100 C   0  0  0  0  0  0  0  0  0  0  0  0
  134.9870   68.7590  224.4930 O   0  0  0  0  0  0  0  0  0  0  0  0
  136.6910   69.7980  223.1300 C   0  0  2  0  0  0  0  0  0  0  0  0
  137.5260   68.5190  223.3130 C   0  0  0  0  0  0  0  0  0  0  0  0
  138.0990   68.7970  224.6880 C   0  0  1  0  0  0  0  0  0  0  0  0
  139.2340   68.0390  224.9420 O   0  0  0  0  0  0  0  0  0  0  0  0
  138.3730   70.2900  224.7120 C   0  0  0  0  0  0  0  0  0  0  0  0
  137.7170   70.7640  223.4850 N   0  0  0  0  0  0  0  0  0  0  0  0
  138.0410   71.9700  222.7610 C   0  0  0  0  0  0  0  0  0  0  0  0
  137.1650   72.8640  222.6420 O   0  0  0  0  0  0  0  0  0  0  0  0
  139.4120   72.0890  222.1900 C   0  0  0  0  0  0  0  0  0  0  0  0
  139.7720   73.4900  222.0910 N   0  0  0  0  0  0  0  0  0  0  0  0
  140.7910   73.9790  221.2340 C   0  0  0  0  0  0  0  0  0  0  0  0
  141.4610   73.1920  220.4890 O   0  0  0  0  0  0  0  0  0  0  0  0
  141.0870   75.4190  221.2030 C   0  0  0  0  0  0  0  0  0  0  0  0
  141.9260   75.9850  220.2730 C   0  0  0  0  0  0  0  0  0  0  0  0
  142.1990   77.3470  220.2480 C   0  0  0  0  0  0  0  0  0  0  0  0
  141.5870   78.1220  221.2040 C   0  0  0  0  0  0  0  0  0  0  0  0
  141.8100   79.4890  221.2430 C   0  0  0  0  0  0  0  0  0  0  0  0
  141.2130   80.3070  222.1920 C   0  0  0  0  0  0  0  0  0  0  0  0
  141.4180   81.6400  222.2480 F   0  0  0  0  0  0  0  0  0  0  0  0
  140.3720   79.7020  223.1150 C   0  0  0  0  0  0  0  0  0  0  0  0
  140.1180   78.3510  223.1190 C   0  0  0  0  0  0  0  0  0  0  0  0
  140.7400   77.5660  222.1460 C   0  0  0  0  0  0  0  0  0  0  0  0
  140.5260   76.2400  222.1060 N   0  0  0  0  0  0  0  0  0  0  0  0
  132.7160   73.1030  226.6310 C   0  0  0  0  0  0  0  0  0  0  0  0
  131.5830   71.9020  227.1850 Cl  0  0  0  0  0  0  0  0  0  0  0  0
  132.5300   74.4580  226.9080 C   0  0  0  0  0  0  0  0  0  0  0  0
  132.6404   77.1687  228.6343 H   0  0  0  0  0  0  0  0  0  0  0  0
  132.3010   78.4415  227.4130 H   0  0  0  0  0  0  0  0  0  0  0  0
  131.3469   76.9195  227.4130 H   0  0  0  0  0  0  0  0  0  0  0  0
  135.2419   75.7426  225.3814 H   0  0  0  0  0  0  0  0  0  0  0  0
  135.6000   73.3512  224.8711 H   0  0  0  0  0  0  0  0  0  0  0  0
  133.1654   70.9868  225.0982 H   0  0  0  0  0  0  0  0  0  0  0  0
  134.2149   70.9468  227.6749 H   0  0  0  0  0  0  0  0  0  0  0  0
  133.6939   69.5284  226.7036 H   0  0  0  0  0  0  0  0  0  0  0  0
  135.4180   70.0325  226.7036 H   0  0  0  0  0  0  0  0  0  0  0  0
  135.7070   71.9780  224.2570 H   0  0  0  0  0  0  0  0  0  0  0  0
  136.2139   69.9392  222.1489 H   0  0  0  0  0  0  0  0  0  0  0  0
  136.9004   67.6143  223.3032 H   0  0  0  0  0  0  0  0  0  0  0  0
  138.2679   68.3244  222.5245 H   0  0  0  0  0  0  0  0  0  0  0  0
  137.3997   68.5105  225.4873 H   0  0  0  0  0  0  0  0  0  0  0  0
  139.6370   67.7370  224.0950 H   0  0  0  0  0  0  0  0  0  0  0  0
  137.9313   70.7591  225.6035 H   0  0  0  0  0  0  0  0  0  0  0  0
  139.4447   70.5344  224.7538 H   0  0  0  0  0  0  0  0  0  0  0  0
  140.1285   71.5712  222.8446 H   0  0  0  0  0  0  0  0  0  0  0  0
  139.4346   71.6320  221.1897 H   0  0  0  0  0  0  0  0  0  0  0  0
  139.2730   74.2220  222.6720 H   0  0  0  0  0  0  0  0  0  0  0  0
  142.3985   75.3359  219.5211 H   0  0  0  0  0  0  0  0  0  0  0  0
  142.8738   77.7849  219.4977 H   0  0  0  0  0  0  0  0  0  0  0  0
  142.4817   79.9403  220.4979 H   0  0  0  0  0  0  0  0  0  0  0  0
  139.8875   80.3307  223.8766 H   0  0  0  0  0  0  0  0  0  0  0  0
  139.4458   77.9024  223.8653 H   0  0  0  0  0  0  0  0  0  0  0  0
  131.6486   74.7650  227.4902 H   0  0  0  0  0  0  0  0  0  0  0  0
  1  2  1  0
  2  3  1  0
  3  4  2  0
  4  5  1  0
  5  6  2  0
  6  7  1  0
  7  8  1  0
  7  9  1  0
  9 10  1  0
 10 11  2  0
 10 12  1  0
 12 13  1  0
 13 14  1  0
 14 15  1  0
 14 16  1  0
 16 17  1  0
 17 18  1  0
 18 19  2  0
 18 20  1  0
 20 21  1  0
 21 22  1  0
 22 23  2  0
 22 24  1  0
 24 25  2  0
 25 26  1  0
 26 27  2  0
 27 28  1  0
 28 29  2  0
 29 30  1  0
 29 31  1  0
 31 32  2  0
 32 33  1  0
 33 34  2  0
  6 35  1  0
 35 36  1  0
 35 37  2  0
 37  3  1  0
 17 12  1  0
 34 24  1  0
 33 27  1  0
  1 38  1  0
  1 39  1  0
  1 40  1  0
  4 41  1  0
  5 42  1  0
  7 43  1  6
  8 44  1  0
  8 45  1  0
  8 46  1  0
  9 47  1  0
 12 48  1  6
 13 49  1  0
 13 50  1  0
 14 51  1  1
 15 52  1  0
 16 53  1  0
 16 54  1  0
 20 55  1  0
 20 56  1  0
 21 57  1  0
 25 58  1  0
 26 59  1  0
 28 60  1  0
 31 61  1  0
 32 62  1  0
 37 63  1  0
M  END
>  <smiles>  (39) 
COc1ccc([C@H](C)NC(=O)[C@@H]2C[C@@H](O)CN2C(=O)CNC(=O)c2ccc3cc(F)ccc3n2)c(Cl)c1

>  <score_type>  (39) 
oracle

>  <origin>  (39) 
autodockgpu

>  <m_score__min__energy>  (39) 
-8.7400000000000002

>  <m_primary>  (39) 
energy

>  <rmsd>  (39) 
10.053197029292507

>  <m_score__min__rmsd>  (39) 
10.053197029292507

>  <meeko>  (39) 
{"free_energy": -7.4, "intermolecular_energy": -10.08, "internal_energy": -2.65, "cluster_size": 1, "cluster_id": 10, "rank_in_cluster": 1}

>  <energy>  (39) 
-6.39

>  <cluster_rmsd>  (39) 
1.1

>  <cluster>  (39) 
9

$$$$

     RDKit          3D

 63 66  0  0  0  0  0  0  0  0999 V2000
  135.7160   78.4050  220.1800 C   0  0  0  0  0  0  0  0  0  0  0  0
  136.6040   79.1410  219.3900 O   0  0  0  0  0  0  0  0  0  0  0  0
  137.9760   78.9890  219.3530 C   0  0  0  0  0  0  0  0  0  0  0  0
  138.4950   77.7710  218.9200 C   0  0  0  0  0  0  0  0  0  0  0  0
  139.8680   77.5530  218.8590 C   0  0  0  0  0  0  0  0  0  0  0  0
  140.7780   78.5520  219.2310 C   0  0  0  0  0  0  0  0  0  0  0  0
  142.1930   78.2420  219.1230 C   0  0  2  0  0  0  0  0  0  0  0  0
  142.6900   77.9860  217.7230 C   0  0  0  0  0  0  0  0  0  0  0  0
  142.6480   77.1540  219.9740 N   0  0  0  0  0  0  0  0  0  0  0  0
  142.6390   75.7900  219.5470 C   0  0  0  0  0  0  0  0  0  0  0  0
  142.2260   75.4520  218.3870 O   0  0  0  0  0  0  0  0  0  0  0  0
  143.1340   74.7860  220.5260 C   0  0  2  0  0  0  0  0  0  0  0  0
  144.6370   74.5350  220.3140 C   0  0  0  0  0  0  0  0  0  0  0  0
  144.5860   73.8880  218.9450 C   0  0  1  0  0  0  0  0  0  0  0  0
  145.7320   73.1520  218.6730 O   0  0  0  0  0  0  0  0  0  0  0  0
  143.3290   73.0360  218.9520 C   0  0  0  0  0  0  0  0  0  0  0  0
  142.6560   73.4550  220.1900 N   0  0  0  0  0  0  0  0  0  0  0  0
  141.6970   72.6780  220.9390 C   0  0  0  0  0  0  0  0  0  0  0  0
  142.0150   71.5230  221.3210 O   0  0  0  0  0  0  0  0  0  0  0  0
  140.3700   73.2950  221.2190 C   0  0  0  0  0  0  0  0  0  0  0  0
  140.5640   74.6320  221.7470 N   0  0  0  0  0  0  0  0  0  0  0  0
  139.6010   75.6670  221.6320 C   0  0  0  0  0  0  0  0  0  0  0  0
  138.4880   75.4710  221.0430 O   0  0  0  0  0  0  0  0  0  0  0  0
  139.8870   76.9930  222.1990 C   0  0  0  0  0  0  0  0  0  0  0  0
  138.9070   77.8120  222.7070 C   0  0  0  0  0  0  0  0  0  0  0  0
  139.1860   79.0620  223.2430 C   0  0  0  0  0  0  0  0  0  0  0  0
  140.5020   79.4580  223.2480 C   0  0  0  0  0  0  0  0  0  0  0  0
  140.8580   80.6930  223.7660 C   0  0  0  0  0  0  0  0  0  0  0  0
  142.1750   81.1320  223.7890 C   0  0  0  0  0  0  0  0  0  0  0  0
  142.5410   82.3310  224.2880 F   0  0  0  0  0  0  0  0  0  0  0  0
  143.1380   80.2810  223.2680 C   0  0  0  0  0  0  0  0  0  0  0  0
  142.8370   79.0460  222.7420 C   0  0  0  0  0  0  0  0  0  0  0  0
  141.4990   78.6460  222.7400 C   0  0  0  0  0  0  0  0  0  0  0  0
  141.1500   77.4490  222.2370 N   0  0  0  0  0  0  0  0  0  0  0  0
  140.2540   79.7660  219.6630 C   0  0  0  0  0  0  0  0  0  0  0  0
  141.3700   81.0190  220.1330 Cl  0  0  0  0  0  0  0  0  0  0  0  0
  138.8740   79.9660  219.7180 C   0  0  0  0  0  0  0  0  0  0  0  0
  135.9343   78.5859  221.2428 H   0  0  0  0  0  0  0  0  0  0  0  0
  134.6843   78.7165  219.9594 H   0  0  0  0  0  0  0  0  0  0  0  0
  135.8306   77.3335  219.9594 H   0  0  0  0  0  0  0  0  0  0  0  0
  137.8068   76.9667  218.6208 H   0  0  0  0  0  0  0  0  0  0  0  0
  140.2458   76.5796  218.5128 H   0  0  0  0  0  0  0  0  0  0  0  0
  142.6357   79.1827  219.4824 H   0  0  0  0  0  0  0  0  0  0  0  0
  143.6671   77.4827  217.7671 H   0  0  0  0  0  0  0  0  0  0  0  0
  141.9715   77.3458  217.1902 H   0  0  0  0  0  0  0  0  0  0  0  0
  142.7940   78.9427  217.1902 H   0  0  0  0  0  0  0  0  0  0  0  0
  142.9990   77.3920  220.9510 H   0  0  0  0  0  0  0  0  0  0  0  0
  142.8319   75.1728  221.5104 H   0  0  0  0  0  0  0  0  0  0  0  0
  145.2132   75.4720  220.3048 H   0  0  0  0  0  0  0  0  0  0  0  0
  145.1296   73.9401  221.0973 H   0  0  0  0  0  0  0  0  0  0  0  0
  144.5510   74.6376  218.1407 H   0  0  0  0  0  0  0  0  0  0  0  0
  146.5040   73.7540  218.5690 H   0  0  0  0  0  0  0  0  0  0  0  0
  142.7040   73.2453  218.0713 H   0  0  0  0  0  0  0  0  0  0  0  0
  143.5355   71.9562  218.9135 H   0  0  0  0  0  0  0  0  0  0  0  0
  139.7862   73.3488  220.2883 H   0  0  0  0  0  0  0  0  0  0  0  0
  139.8276   72.6835  221.9552 H   0  0  0  0  0  0  0  0  0  0  0  0
  141.4580   74.8920  222.2520 H   0  0  0  0  0  0  0  0  0  0  0  0
  137.8635   77.4644  222.6882 H   0  0  0  0  0  0  0  0  0  0  0  0
  138.3901   79.7060  223.6453 H   0  0  0  0  0  0  0  0  0  0  0  0
  140.0719   81.3466  224.1720 H   0  0  0  0  0  0  0  0  0  0  0  0
  144.1883   80.6077  223.2757 H   0  0  0  0  0  0  0  0  0  0  0  0
  143.6249   78.3945  222.3360 H   0  0  0  0  0  0  0  0  0  0  0  0
  138.4911   80.9372  220.0647 H   0  0  0  0  0  0  0  0  0  0  0  0
  1  2  1  0
  2  3  1  0
  3  4  2  0
  4  5  1  0
  5  6  2  0
  6  7  1  0
  7  8  1  0
  7  9  1  0
  9 10  1  0
 10 11  2  0
 10 12  1  0
 12 13  1  0
 13 14  1  0
 14 15  1  0
 14 16  1  0
 16 17  1  0
 17 18  1  0
 18 19  2  0
 18 20  1  0
 20 21  1  0
 21 22  1  0
 22 23  2  0
 22 24  1  0
 24 25  2  0
 25 26  1  0
 26 27  2  0
 27 28  1  0
 28 29  2  0
 29 30  1  0
 29 31  1  0
 31 32  2  0
 32 33  1  0
 33 34  2  0
  6 35  1  0
 35 36  1  0
 35 37  2  0
 37  3  1  0
 17 12  1  0
 34 24  1  0
 33 27  1  0
  1 38  1  0
  1 39  1  0
  1 40  1  0
  4 41  1  0
  5 42  1  0
  7 43  1  1
  8 44  1  0
  8 45  1  0
  8 46  1  0
  9 47  1  0
 12 48  1  1
 13 49  1  0
 13 50  1  0
 14 51  1  6
 15 52  1  0
 16 53  1  0
 16 54  1  0
 20 55  1  0
 20 56  1  0
 21 57  1  0
 25 58  1  0
 26 59  1  0
 28 60  1  0
 31 61  1  0
 32 62  1  0
 37 63  1  0
M  END
>  <smiles>  (40) 
COc1ccc([C@H](C)NC(=O)[C@@H]2C[C@@H](O)CN2C(=O)CNC(=O)c2ccc3cc(F)ccc3n2)c(Cl)c1

>  <score_type>  (40) 
oracle

>  <origin>  (40) 
autodockgpu

>  <m_score__min__energy>  (40) 
-8.7400000000000002

>  <m_primary>  (40) 
energy

>  <rmsd>  (40) 
6.783697527339992

>  <m_score__min__rmsd>  (40) 
6.783697527339992

>  <meeko>  (40) 
{"free_energy": -6.66, "intermolecular_energy": -9.35, "internal_energy": -4.61, "cluster_size": 19, "cluster_id": 9, "rank_in_cluster": 6}

>  <energy>  (40) 
-6.39

>  <cluster_rmsd>  (40) 
1.82

>  <cluster>  (40) 
9

$$$$

     RDKit          3D

 63 66  0  0  0  0  0  0  0  0999 V2000
  137.0830   82.8390  221.3070 C   0  0  0  0  0  0  0  0  0  0  0  0
  137.9000   81.7050  221.3220 O   0  0  0  0  0  0  0  0  0  0  0  0
  139.0140   81.4950  220.5340 C   0  0  0  0  0  0  0  0  0  0  0  0
  140.2720   81.6460  221.1140 C   0  0  0  0  0  0  0  0  0  0  0  0
  141.4350   81.4500  220.3760 C   0  0  0  0  0  0  0  0  0  0  0  0
  141.3820   81.0920  219.0220 C   0  0  0  0  0  0  0  0  0  0  0  0
  142.6450   80.8930  218.3320 C   0  0  2  0  0  0  0  0  0  0  0  0
  142.9970   81.9500  217.3170 C   0  0  0  0  0  0  0  0  0  0  0  0
  142.8020   79.5900  217.7060 N   0  0  0  0  0  0  0  0  0  0  0  0
  142.5510   78.3680  218.4030 C   0  0  0  0  0  0  0  0  0  0  0  0
  142.1740   78.3550  219.6230 O   0  0  0  0  0  0  0  0  0  0  0  0
  142.7530   77.1120  217.6320 C   0  0  2  0  0  0  0  0  0  0  0  0
  141.9080   77.1350  216.3470 C   0  0  0  0  0  0  0  0  0  0  0  0
  140.5250   77.1040  216.9640 C   0  0  1  0  0  0  0  0  0  0  0  0
  139.5610   76.6740  216.0610 O   0  0  0  0  0  0  0  0  0  0  0  0
  140.6460   76.1930  218.1720 C   0  0  0  0  0  0  0  0  0  0  0  0
  142.0980   75.9920  218.2870 N   0  0  0  0  0  0  0  0  0  0  0  0
  142.7520   74.8760  218.9290 C   0  0  0  0  0  0  0  0  0  0  0  0
  143.6140   74.2240  218.2880 O   0  0  0  0  0  0  0  0  0  0  0  0
  142.3620   74.5570  220.3310 C   0  0  0  0  0  0  0  0  0  0  0  0
  141.9080   75.7660  220.9910 N   0  0  0  0  0  0  0  0  0  0  0  0
  140.7460   75.8270  221.8010 C   0  0  0  0  0  0  0  0  0  0  0  0
  140.0230   74.7960  221.9970 O   0  0  0  0  0  0  0  0  0  0  0  0
  140.3620   77.1000  222.4290 C   0  0  0  0  0  0  0  0  0  0  0  0
  141.2810   77.9720  222.9640 C   0  0  0  0  0  0  0  0  0  0  0  0
  140.9100   79.1740  223.5530 C   0  0  0  0  0  0  0  0  0  0  0  0
  139.5680   79.4660  223.5810 C   0  0  0  0  0  0  0  0  0  0  0  0
  139.1210   80.6470  224.1530 C   0  0  0  0  0  0  0  0  0  0  0  0
  137.7750   80.9790  224.2030 C   0  0  0  0  0  0  0  0  0  0  0  0
  137.3200   82.1240  224.7560 F   0  0  0  0  0  0  0  0  0  0  0  0
  136.8760   80.0770  223.6540 C   0  0  0  0  0  0  0  0  0  0  0  0
  137.2670   78.8920  223.0760 C   0  0  0  0  0  0  0  0  0  0  0  0
  138.6320   78.5990  223.0480 C   0  0  0  0  0  0  0  0  0  0  0  0
  139.0680   77.4540  222.4940 N   0  0  0  0  0  0  0  0  0  0  0  0
  140.1240   80.9420  218.4480 C   0  0  0  0  0  0  0  0  0  0  0  0
  140.0380   80.5010  216.7650 Cl  0  0  0  0  0  0  0  0  0  0  0  0
  138.9680   81.1440  219.2050 C   0  0  0  0  0  0  0  0  0  0  0  0
  136.8622   83.1455  222.3401 H   0  0  0  0  0  0  0  0  0  0  0  0
  137.6006   83.6570  220.7846 H   0  0  0  0  0  0  0  0  0  0  0  0
  136.1432   82.6070  220.7846 H   0  0  0  0  0  0  0  0  0  0  0  0
  140.3469   81.9254  222.1753 H   0  0  0  0  0  0  0  0  0  0  0  0
  142.4127   81.5782  220.8635 H   0  0  0  0  0  0  0  0  0  0  0  0
  143.3503   80.9702  219.1726 H   0  0  0  0  0  0  0  0  0  0  0  0
  143.3033   82.8698  217.8367 H   0  0  0  0  0  0  0  0  0  0  0  0
  143.8244   81.5920  216.6867 H   0  0  0  0  0  0  0  0  0  0  0  0
  142.1202   82.1596  216.6867 H   0  0  0  0  0  0  0  0  0  0  0  0
  143.1160   79.5550  216.6880 H   0  0  0  0  0  0  0  0  0  0  0  0
  143.8422   77.0269  217.5040 H   0  0  0  0  0  0  0  0  0  0  0  0
  142.0763   78.0502  215.7604 H   0  0  0  0  0  0  0  0  0  0  0  0
  142.1212   76.3292  215.6292 H   0  0  0  0  0  0  0  0  0  0  0  0
  140.1875   78.1084  217.2594 H   0  0  0  0  0  0  0  0  0  0  0  0
  139.9290   76.6730  215.1480 H   0  0  0  0  0  0  0  0  0  0  0  0
  140.2405   76.6752  219.0737 H   0  0  0  0  0  0  0  0  0  0  0  0
  140.0842   75.2533  218.0657 H   0  0  0  0  0  0  0  0  0  0  0  0
  141.5505   73.8144  220.3264 H   0  0  0  0  0  0  0  0  0  0  0  0
  143.2292   74.1474  220.8698 H   0  0  0  0  0  0  0  0  0  0  0  0
  142.4420   76.6750  220.8870 H   0  0  0  0  0  0  0  0  0  0  0  0
  142.3481   77.7081  222.9241 H   0  0  0  0  0  0  0  0  0  0  0  0
  141.6569   79.8609  223.9777 H   0  0  0  0  0  0  0  0  0  0  0  0
  139.8573   81.3432  224.5810 H   0  0  0  0  0  0  0  0  0  0  0  0
  135.8035   80.3200  223.6821 H   0  0  0  0  0  0  0  0  0  0  0  0
  136.5283   78.1974  222.6495 H   0  0  0  0  0  0  0  0  0  0  0  0
  137.9877   81.0181  218.7221 H   0  0  0  0  0  0  0  0  0  0  0  0
  1  2  1  0
  2  3  1  0
  3  4  2  0
  4  5  1  0
  5  6  2  0
  6  7  1  0
  7  8  1  0
  7  9  1  0
  9 10  1  0
 10 11  2  0
 10 12  1  0
 12 13  1  0
 13 14  1  0
 14 15  1  0
 14 16  1  0
 16 17  1  0
 17 18  1  0
 18 19  2  0
 18 20  1  0
 20 21  1  0
 21 22  1  0
 22 23  2  0
 22 24  1  0
 24 25  2  0
 25 26  1  0
 26 27  2  0
 27 28  1  0
 28 29  2  0
 29 30  1  0
 29 31  1  0
 31 32  2  0
 32 33  1  0
 33 34  2  0
  6 35  1  0
 35 36  1  0
 35 37  2  0
 37  3  1  0
 17 12  1  0
 34 24  1  0
 33 27  1  0
  1 38  1  0
  1 39  1  0
  1 40  1  0
  4 41  1  0
  5 42  1  0
  7 43  1  1
  8 44  1  0
  8 45  1  0
  8 46  1  0
  9 47  1  0
 12 48  1  6
 13 49  1  0
 13 50  1  0
 14 51  1  1
 15 52  1  0
 16 53  1  0
 16 54  1  0
 20 55  1  0
 20 56  1  0
 21 57  1  0
 25 58  1  0
 26 59  1  0
 28 60  1  0
 31 61  1  0
 32 62  1  0
 37 63  1  0
M  END
>  <smiles>  (41) 
COc1ccc([C@H](C)NC(=O)[C@@H]2C[C@@H](O)CN2C(=O)CNC(=O)c2ccc3cc(F)ccc3n2)c(Cl)c1

>  <score_type>  (41) 
oracle

>  <origin>  (41) 
autodockgpu

>  <m_score__min__energy>  (41) 
-8.7400000000000002

>  <m_primary>  (41) 
energy

>  <rmsd>  (41) 
6.514317861976915

>  <m_score__min__rmsd>  (41) 
6.514317861976915

>  <meeko>  (41) 
{"free_energy": -5.85, "intermolecular_energy": -8.54, "internal_energy": -4.28, "cluster_size": 3, "cluster_id": 14, "rank_in_cluster": 1}

>  <energy>  (41) 
-6.33

>  <cluster_rmsd>  (41) 
1.17

>  <cluster>  (41) 
9

$$$$

     RDKit          3D

 63 66  0  0  0  0  0  0  0  0999 V2000
  140.1440   85.2710  219.5670 C   0  0  0  0  0  0  0  0  0  0  0  0
  139.4460   84.1430  220.0080 O   0  0  0  0  0  0  0  0  0  0  0  0
  139.9380   83.1580  220.8420 C   0  0  0  0  0  0  0  0  0  0  0  0
  141.2500   82.7290  220.6560 C   0  0  0  0  0  0  0  0  0  0  0  0
  141.8070   81.7410  221.4620 C   0  0  0  0  0  0  0  0  0  0  0  0
  141.0660   81.1410  222.4890 C   0  0  0  0  0  0  0  0  0  0  0  0
  141.7310   80.1280  223.2900 C   0  0  2  0  0  0  0  0  0  0  0  0
  143.0750   80.5250  223.8450 C   0  0  0  0  0  0  0  0  0  0  0  0
  141.8710   78.8320  222.6440 N   0  0  0  0  0  0  0  0  0  0  0  0
  140.7660   77.9460  222.4530 C   0  0  0  0  0  0  0  0  0  0  0  0
  139.5880   78.2480  222.8430 O   0  0  0  0  0  0  0  0  0  0  0  0
  141.0610   76.6560  221.7760 C   0  0  2  0  0  0  0  0  0  0  0  0
  141.8210   76.9060  220.4620 C   0  0  0  0  0  0  0  0  0  0  0  0
  140.7360   77.6210  219.6840 C   0  0  1  0  0  0  0  0  0  0  0  0
  140.9660   77.5850  218.3150 O   0  0  0  0  0  0  0  0  0  0  0  0
  139.4410   76.9330  220.0800 C   0  0  0  0  0  0  0  0  0  0  0  0
  139.8530   76.0820  221.2060 N   0  0  0  0  0  0  0  0  0  0  0  0
  139.1790   74.8880  221.6570 C   0  0  0  0  0  0  0  0  0  0  0  0
  138.1200   75.0010  222.3250 O   0  0  0  0  0  0  0  0  0  0  0  0
  139.7840   73.5730  221.3010 C   0  0  0  0  0  0  0  0  0  0  0  0
  139.7390   72.6960  222.4550 N   0  0  0  0  0  0  0  0  0  0  0  0
  139.9070   71.2900  222.3760 C   0  0  0  0  0  0  0  0  0  0  0  0
  140.1110   70.7100  221.2600 O   0  0  0  0  0  0  0  0  0  0  0  0
  139.8440   70.4800  223.6020 C   0  0  0  0  0  0  0  0  0  0  0  0
  139.2490   69.2420  223.6460 C   0  0  0  0  0  0  0  0  0  0  0  0
  139.1960   68.4820  224.8080 C   0  0  0  0  0  0  0  0  0  0  0  0
  139.7720   69.0220  225.9320 C   0  0  0  0  0  0  0  0  0  0  0  0
  139.7590   68.3240  227.1280 C   0  0  0  0  0  0  0  0  0  0  0  0
  140.3280   68.8340  228.2870 C   0  0  0  0  0  0  0  0  0  0  0  0
  140.3250   68.1690  229.4620 F   0  0  0  0  0  0  0  0  0  0  0  0
  140.9210   70.0850  228.2070 C   0  0  0  0  0  0  0  0  0  0  0  0
  140.9610   70.8190  227.0440 C   0  0  0  0  0  0  0  0  0  0  0  0
  140.3750   70.2670  225.9040 C   0  0  0  0  0  0  0  0  0  0  0  0
  140.3860   70.9430  224.7410 N   0  0  0  0  0  0  0  0  0  0  0  0
  139.7560   81.5720  222.6700 C   0  0  0  0  0  0  0  0  0  0  0  0
  138.8180   80.8360  223.9400 Cl  0  0  0  0  0  0  0  0  0  0  0  0
  139.2150   82.5650  221.8520 C   0  0  0  0  0  0  0  0  0  0  0  0
  140.4992   85.8451  220.4355 H   0  0  0  0  0  0  0  0  0  0  0  0
  141.0048   84.9552  218.9593 H   0  0  0  0  0  0  0  0  0  0  0  0
  139.4773   85.9004  218.9593 H   0  0  0  0  0  0  0  0  0  0  0  0
  141.8571   83.1797  219.8571 H   0  0  0  0  0  0  0  0  0  0  0  0
  142.8467   81.4255  221.2901 H   0  0  0  0  0  0  0  0  0  0  0  0
  141.0236   80.0347  224.1271 H   0  0  0  0  0  0  0  0  0  0  0  0
  143.0357   80.5134  224.9442 H   0  0  0  0  0  0  0  0  0  0  0  0
  143.8395   79.8143  223.4979 H   0  0  0  0  0  0  0  0  0  0  0  0
  143.3306   81.5370  223.4979 H   0  0  0  0  0  0  0  0  0  0  0  0
  142.8380   78.5400  222.3040 H   0  0  0  0  0  0  0  0  0  0  0  0
  141.5744   76.0465  222.5343 H   0  0  0  0  0  0  0  0  0  0  0  0
  142.7056   77.5420  220.6133 H   0  0  0  0  0  0  0  0  0  0  0  0
  142.2320   76.0076  219.9784 H   0  0  0  0  0  0  0  0  0  0  0  0
  140.7027   78.6943  219.9226 H   0  0  0  0  0  0  0  0  0  0  0  0
  140.1210   77.4360  217.8330 H   0  0  0  0  0  0  0  0  0  0  0  0
  138.6834   77.6660  220.3943 H   0  0  0  0  0  0  0  0  0  0  0  0
  138.9784   76.3699  219.2561 H   0  0  0  0  0  0  0  0  0  0  0  0
  139.2182   73.1204  220.4733 H   0  0  0  0  0  0  0  0  0  0  0  0
  140.8291   73.7203  220.9910 H   0  0  0  0  0  0  0  0  0  0  0  0
  139.5740   73.0840  223.4260 H   0  0  0  0  0  0  0  0  0  0  0  0
  138.7982   68.8379  222.7276 H   0  0  0  0  0  0  0  0  0  0  0  0
  138.7147   67.4930  224.8269 H   0  0  0  0  0  0  0  0  0  0  0  0
  139.2823   67.3332  227.1607 H   0  0  0  0  0  0  0  0  0  0  0  0
  141.3793   70.5089  229.1127 H   0  0  0  0  0  0  0  0  0  0  0  0
  141.4394   71.8090  227.0137 H   0  0  0  0  0  0  0  0  0  0  0  0
  138.1759   82.8845  222.0201 H   0  0  0  0  0  0  0  0  0  0  0  0
  1  2  1  0
  2  3  1  0
  3  4  2  0
  4  5  1  0
  5  6  2  0
  6  7  1  0
  7  8  1  0
  7  9  1  0
  9 10  1  0
 10 11  2  0
 10 12  1  0
 12 13  1  0
 13 14  1  0
 14 15  1  0
 14 16  1  0
 16 17  1  0
 17 18  1  0
 18 19  2  0
 18 20  1  0
 20 21  1  0
 21 22  1  0
 22 23  2  0
 22 24  1  0
 24 25  2  0
 25 26  1  0
 26 27  2  0
 27 28  1  0
 28 29  2  0
 29 30  1  0
 29 31  1  0
 31 32  2  0
 32 33  1  0
 33 34  2  0
  6 35  1  0
 35 36  1  0
 35 37  2  0
 37  3  1  0
 17 12  1  0
 34 24  1  0
 33 27  1  0
  1 38  1  0
  1 39  1  0
  1 40  1  0
  4 41  1  0
  5 42  1  0
  7 43  1  1
  8 44  1  0
  8 45  1  0
  8 46  1  0
  9 47  1  0
 12 48  1  1
 13 49  1  0
 13 50  1  0
 14 51  1  1
 15 52  1  0
 16 53  1  0
 16 54  1  0
 20 55  1  0
 20 56  1  0
 21 57  1  0
 25 58  1  0
 26 59  1  0
 28 60  1  0
 31 61  1  0
 32 62  1  0
 37 63  1  0
M  END
>  <smiles>  (42) 
COc1ccc([C@H](C)NC(=O)[C@@H]2C[C@@H](O)CN2C(=O)CNC(=O)c2ccc3cc(F)ccc3n2)c(Cl)c1

>  <score_type>  (42) 
oracle

>  <origin>  (42) 
autodockgpu

>  <m_score__min__energy>  (42) 
-8.7400000000000002

>  <m_primary>  (42) 
energy

>  <rmsd>  (42) 
1.6868333536311677

>  <m_score__min__rmsd>  (42) 
1.6868333536311677

>  <meeko>  (42) 
{"free_energy": -8.58, "intermolecular_energy": -11.26, "internal_energy": -2.09, "cluster_size": 8, "cluster_id": 3, "rank_in_cluster": 2}

>  <energy>  (42) 
-6.31

>  <cluster_rmsd>  (42) 
1.53

>  <cluster>  (42) 
9

$$$$

     RDKit          3D

 63 66  0  0  0  0  0  0  0  0999 V2000
  136.0720   80.6440  220.8700 C   0  0  0  0  0  0  0  0  0  0  0  0
  136.8700   79.7510  220.1510 O   0  0  0  0  0  0  0  0  0  0  0  0
  138.2020   79.9280  219.8300 C   0  0  0  0  0  0  0  0  0  0  0  0
  138.7260   79.2020  218.7630 C   0  0  0  0  0  0  0  0  0  0  0  0
  140.0590   79.3340  218.3870 C   0  0  0  0  0  0  0  0  0  0  0  0
  140.9220   80.2040  219.0690 C   0  0  0  0  0  0  0  0  0  0  0  0
  142.2940   80.2890  218.5990 C   0  0  2  0  0  0  0  0  0  0  0  0
  142.5730   81.4040  217.6250 C   0  0  0  0  0  0  0  0  0  0  0  0
  142.8280   79.0550  218.0440 N   0  0  0  0  0  0  0  0  0  0  0  0
  142.7270   77.8010  218.7210 C   0  0  0  0  0  0  0  0  0  0  0  0
  142.1570   77.6960  219.8590 O   0  0  0  0  0  0  0  0  0  0  0  0
  143.3190   76.6260  218.0300 C   0  0  2  0  0  0  0  0  0  0  0  0
  142.7450   76.4990  216.6080 C   0  0  0  0  0  0  0  0  0  0  0  0
  141.3050   76.1790  216.9540 C   0  0  1  0  0  0  0  0  0  0  0  0
  140.6360   75.5780  215.8960 O   0  0  0  0  0  0  0  0  0  0  0  0
  141.3780   75.2900  218.1830 C   0  0  0  0  0  0  0  0  0  0  0  0
  142.7920   75.3850  218.5740 N   0  0  0  0  0  0  0  0  0  0  0  0
  143.5230   74.4140  219.3520 C   0  0  0  0  0  0  0  0  0  0  0  0
  144.5380   73.8680  218.8470 O   0  0  0  0  0  0  0  0  0  0  0  0
  143.0290   74.1090  220.7240 C   0  0  0  0  0  0  0  0  0  0  0  0
  142.1820   75.1940  221.1810 N   0  0  0  0  0  0  0  0  0  0  0  0
  140.9040   74.9970  221.7630 C   0  0  0  0  0  0  0  0  0  0  0  0
  140.4210   73.8280  221.9180 O   0  0  0  0  0  0  0  0  0  0  0  0
  140.1140   76.1600  222.1960 C   0  0  0  0  0  0  0  0  0  0  0  0
  138.7400   76.1580  222.2220 C   0  0  0  0  0  0  0  0  0  0  0  0
  138.0020   77.2600  222.6350 C   0  0  0  0  0  0  0  0  0  0  0  0
  138.7090   78.3720  223.0240 C   0  0  0  0  0  0  0  0  0  0  0  0
  138.0420   79.5110  223.4480 C   0  0  0  0  0  0  0  0  0  0  0  0
  138.7180   80.6550  223.8490 C   0  0  0  0  0  0  0  0  0  0  0  0
  138.0860   81.7740  224.2650 F   0  0  0  0  0  0  0  0  0  0  0  0
  140.1030   80.6220  223.8110 C   0  0  0  0  0  0  0  0  0  0  0  0
  140.8120   79.5180  223.3980 C   0  0  0  0  0  0  0  0  0  0  0  0
  140.0920   78.3900  223.0030 C   0  0  0  0  0  0  0  0  0  0  0  0
  140.7360   77.2840  222.5910 N   0  0  0  0  0  0  0  0  0  0  0  0
  140.3930   80.9260  220.1330 C   0  0  0  0  0  0  0  0  0  0  0  0
  141.4510   82.0080  220.9960 Cl  0  0  0  0  0  0  0  0  0  0  0  0
  139.0530   80.7790  220.4960 C   0  0  0  0  0  0  0  0  0  0  0  0
  136.2182   80.4804  221.9479 H   0  0  0  0  0  0  0  0  0  0  0  0
  136.3544   81.6759  220.6142 H   0  0  0  0  0  0  0  0  0  0  0  0
  135.0150   80.4790  220.6142 H   0  0  0  0  0  0  0  0  0  0  0  0
  138.0741   78.5118  218.2075 H   0  0  0  0  0  0  0  0  0  0  0  0
  140.4426   78.7459  217.5403 H   0  0  0  0  0  0  0  0  0  0  0  0
  142.8179   80.5118  219.5402 H   0  0  0  0  0  0  0  0  0  0  0  0
  142.8036   82.3258  218.1792 H   0  0  0  0  0  0  0  0  0  0  0  0
  143.4308   81.1321  216.9923 H   0  0  0  0  0  0  0  0  0  0  0  0
  141.6882   81.5682  216.9923 H   0  0  0  0  0  0  0  0  0  0  0  0
  143.3130   79.0990  217.0960 H   0  0  0  0  0  0  0  0  0  0  0  0
  144.4071   76.7656  218.1116 H   0  0  0  0  0  0  0  0  0  0  0  0
  142.8333   77.4389  216.0433 H   0  0  0  0  0  0  0  0  0  0  0  0
  143.2479   75.7648  215.9614 H   0  0  0  0  0  0  0  0  0  0  0  0
  140.7222   77.0893  217.1581 H   0  0  0  0  0  0  0  0  0  0  0  0
  140.8250   74.6120  215.8800 H   0  0  0  0  0  0  0  0  0  0  0  0
  140.7206   75.6642  218.9816 H   0  0  0  0  0  0  0  0  0  0  0  0
  141.0485   74.2579  217.9926 H   0  0  0  0  0  0  0  0  0  0  0  0
  142.4505   73.1736  220.7067 H   0  0  0  0  0  0  0  0  0  0  0  0
  143.8840   73.9965  221.4068 H   0  0  0  0  0  0  0  0  0  0  0  0
  142.4950   76.2020  221.0940 H   0  0  0  0  0  0  0  0  0  0  0  0
  138.2052   75.2508  221.9042 H   0  0  0  0  0  0  0  0  0  0  0  0
  136.9022   77.2431  222.6499 H   0  0  0  0  0  0  0  0  0  0  0  0
  136.9422   79.5080  223.4672 H   0  0  0  0  0  0  0  0  0  0  0  0
  140.6594   81.5175  224.1247 H   0  0  0  0  0  0  0  0  0  0  0  0
  141.9118   79.5242  223.3797 H   0  0  0  0  0  0  0  0  0  0  0  0
  138.6647   81.3634  221.3432 H   0  0  0  0  0  0  0  0  0  0  0  0
  1  2  1  0
  2  3  1  0
  3  4  2  0
  4  5  1  0
  5  6  2  0
  6  7  1  0
  7  8  1  0
  7  9  1  0
  9 10  1  0
 10 11  2  0
 10 12  1  0
 12 13  1  0
 13 14  1  0
 14 15  1  0
 14 16  1  0
 16 17  1  0
 17 18  1  0
 18 19  2  0
 18 20  1  0
 20 21  1  0
 21 22  1  0
 22 23  2  0
 22 24  1  0
 24 25  2  0
 25 26  1  0
 26 27  2  0
 27 28  1  0
 28 29  2  0
 29 30  1  0
 29 31  1  0
 31 32  2  0
 32 33  1  0
 33 34  2  0
  6 35  1  0
 35 36  1  0
 35 37  2  0
 37  3  1  0
 17 12  1  0
 34 24  1  0
 33 27  1  0
  1 38  1  0
  1 39  1  0
  1 40  1  0
  4 41  1  0
  5 42  1  0
  7 43  1  1
  8 44  1  0
  8 45  1  0
  8 46  1  0
  9 47  1  0
 12 48  1  6
 13 49  1  0
 13 50  1  0
 14 51  1  1
 15 52  1  0
 16 53  1  0
 16 54  1  0
 20 55  1  0
 20 56  1  0
 21 57  1  0
 25 58  1  0
 26 59  1  0
 28 60  1  0
 31 61  1  0
 32 62  1  0
 37 63  1  0
M  END
>  <smiles>  (43) 
COc1ccc([C@H](C)NC(=O)[C@@H]2C[C@@H](O)CN2C(=O)CNC(=O)c2ccc3cc(F)ccc3n2)c(Cl)c1

>  <score_type>  (43) 
oracle

>  <origin>  (43) 
autodockgpu

>  <m_score__min__energy>  (43) 
-8.7400000000000002

>  <m_primary>  (43) 
energy

>  <rmsd>  (43) 
6.172272949199363

>  <m_score__min__rmsd>  (43) 
6.172272949199363

>  <meeko>  (43) 
{"free_energy": -5.81, "intermolecular_energy": -8.49, "internal_energy": -4.85, "cluster_size": 3, "cluster_id": 14, "rank_in_cluster": 2}

>  <energy>  (43) 
-6.24

>  <cluster_rmsd>  (43) 
1.02

>  <cluster>  (43) 
9

$$$$

     RDKit          3D

 63 66  0  0  0  0  0  0  0  0999 V2000
  136.0840   78.3190  220.4550 C   0  0  0  0  0  0  0  0  0  0  0  0
  136.9310   79.0260  219.5970 O   0  0  0  0  0  0  0  0  0  0  0  0
  138.2940   78.8450  219.4690 C   0  0  0  0  0  0  0  0  0  0  0  0
  138.7550   77.6280  218.9720 C   0  0  0  0  0  0  0  0  0  0  0  0
  140.1160   77.3810  218.8180 C   0  0  0  0  0  0  0  0  0  0  0  0
  141.0710   78.3490  219.1580 C   0  0  0  0  0  0  0  0  0  0  0  0
  142.4690   78.0110  218.9520 C   0  0  2  0  0  0  0  0  0  0  0  0
  142.8570   77.7210  217.5250 C   0  0  0  0  0  0  0  0  0  0  0  0
  142.9660   76.9290  219.7880 N   0  0  0  0  0  0  0  0  0  0  0  0
  142.6990   75.5540  219.5040 C   0  0  0  0  0  0  0  0  0  0  0  0
  142.0040   75.2000  218.4930 O   0  0  0  0  0  0  0  0  0  0  0  0
  143.2740   74.5590  220.4460 C   0  0  2  0  0  0  0  0  0  0  0  0
  144.7830   74.3960  220.1930 C   0  0  0  0  0  0  0  0  0  0  0  0
  144.7330   73.7770  218.8110 C   0  0  1  0  0  0  0  0  0  0  0  0
  145.9100   73.1120  218.4950 O   0  0  0  0  0  0  0  0  0  0  0  0
  143.5250   72.8570  218.8290 C   0  0  0  0  0  0  0  0  0  0  0  0
  142.8610   73.2110  220.0920 N   0  0  0  0  0  0  0  0  0  0  0  0
  141.9660   72.3660  220.8460 C   0  0  0  0  0  0  0  0  0  0  0  0
  142.3850   71.2580  221.2680 O   0  0  0  0  0  0  0  0  0  0  0  0
  140.5800   72.8590  221.0820 C   0  0  0  0  0  0  0  0  0  0  0  0
  140.6330   74.2230  221.5740 N   0  0  0  0  0  0  0  0  0  0  0  0
  139.4870   75.0430  221.7300 C   0  0  0  0  0  0  0  0  0  0  0  0
  138.3230   74.6140  221.4400 O   0  0  0  0  0  0  0  0  0  0  0  0
  139.6390   76.4160  222.2350 C   0  0  0  0  0  0  0  0  0  0  0  0
  138.5660   77.2090  222.5660 C   0  0  0  0  0  0  0  0  0  0  0  0
  138.7190   78.5050  223.0440 C   0  0  0  0  0  0  0  0  0  0  0  0
  140.0040   78.9720  223.1780 C   0  0  0  0  0  0  0  0  0  0  0  0
  140.2350   80.2550  223.6480 C   0  0  0  0  0  0  0  0  0  0  0  0
  141.5170   80.7660  223.7970 C   0  0  0  0  0  0  0  0  0  0  0  0
  141.7630   82.0130  224.2530 F   0  0  0  0  0  0  0  0  0  0  0  0
  142.5760   79.9380  223.4540 C   0  0  0  0  0  0  0  0  0  0  0  0
  142.4000   78.6580  222.9830 C   0  0  0  0  0  0  0  0  0  0  0  0
  141.0930   78.1860  222.8480 C   0  0  0  0  0  0  0  0  0  0  0  0
  140.8650   76.9420  222.3920 N   0  0  0  0  0  0  0  0  0  0  0  0
  140.6050   79.5620  219.6540 C   0  0  0  0  0  0  0  0  0  0  0  0
  141.7770   80.7750  220.0870 Cl  0  0  0  0  0  0  0  0  0  0  0  0
  139.2360   79.7910  219.8020 C   0  0  0  0  0  0  0  0  0  0  0  0
  136.3506   78.5415  221.4988 H   0  0  0  0  0  0  0  0  0  0  0  0
  135.0419   78.6190  220.2708 H   0  0  0  0  0  0  0  0  0  0  0  0
  136.1929   77.2400  220.2708 H   0  0  0  0  0  0  0  0  0  0  0  0
  138.0301   76.8480  218.6962 H   0  0  0  0  0  0  0  0  0  0  0  0
  140.4478   76.4096  218.4227 H   0  0  0  0  0  0  0  0  0  0  0  0
  142.9534   78.9495  219.2595 H   0  0  0  0  0  0  0  0  0  0  0  0
  143.7380   77.0625  217.5112 H   0  0  0  0  0  0  0  0  0  0  0  0
  142.0204   77.2250  217.0111 H   0  0  0  0  0  0  0  0  0  0  0  0
  143.0958   78.6638  217.0111 H   0  0  0  0  0  0  0  0  0  0  0  0
  143.5500   77.1810  220.6430 H   0  0  0  0  0  0  0  0  0  0  0  0
  142.9769   74.9080  221.4459 H   0  0  0  0  0  0  0  0  0  0  0  0
  145.3067   75.3633  220.1918 H   0  0  0  0  0  0  0  0  0  0  0  0
  145.3268   73.8125  220.9505 H   0  0  0  0  0  0  0  0  0  0  0  0
  144.6367   74.5404  218.0249 H   0  0  0  0  0  0  0  0  0  0  0  0
  146.6440   73.7580  218.3800 H   0  0  0  0  0  0  0  0  0  0  0  0
  142.8675   73.0503  217.9686 H   0  0  0  0  0  0  0  0  0  0  0  0
  143.7896   71.7914  218.7612 H   0  0  0  0  0  0  0  0  0  0  0  0
  140.0143   72.8303  220.1390 H   0  0  0  0  0  0  0  0  0  0  0  0
  140.0828   72.2184  221.8253 H   0  0  0  0  0  0  0  0  0  0  0  0
  141.5560   74.6690  221.8400 H   0  0  0  0  0  0  0  0  0  0  0  0
  137.5503   76.8034  222.4483 H   0  0  0  0  0  0  0  0  0  0  0  0
  137.8506   79.1285  223.3033 H   0  0  0  0  0  0  0  0  0  0  0  0
  139.3752   80.8886  223.9113 H   0  0  0  0  0  0  0  0  0  0  0  0
  143.6010   80.3220  223.5635 H   0  0  0  0  0  0  0  0  0  0  0  0
  143.2615   78.0262  222.7210 H   0  0  0  0  0  0  0  0  0  0  0  0
  138.8990   80.7603  220.1981 H   0  0  0  0  0  0  0  0  0  0  0  0
  1  2  1  0
  2  3  1  0
  3  4  2  0
  4  5  1  0
  5  6  2  0
  6  7  1  0
  7  8  1  0
  7  9  1  0
  9 10  1  0
 10 11  2  0
 10 12  1  0
 12 13  1  0
 13 14  1  0
 14 15  1  0
 14 16  1  0
 16 17  1  0
 17 18  1  0
 18 19  2  0
 18 20  1  0
 20 21  1  0
 21 22  1  0
 22 23  2  0
 22 24  1  0
 24 25  2  0
 25 26  1  0
 26 27  2  0
 27 28  1  0
 28 29  2  0
 29 30  1  0
 29 31  1  0
 31 32  2  0
 32 33  1  0
 33 34  2  0
  6 35  1  0
 35 36  1  0
 35 37  2  0
 37  3  1  0
 17 12  1  0
 34 24  1  0
 33 27  1  0
  1 38  1  0
  1 39  1  0
  1 40  1  0
  4 41  1  0
  5 42  1  0
  7 43  1  1
  8 44  1  0
  8 45  1  0
  8 46  1  0
  9 47  1  0
 12 48  1  1
 13 49  1  0
 13 50  1  0
 14 51  1  6
 15 52  1  0
 16 53  1  0
 16 54  1  0
 20 55  1  0
 20 56  1  0
 21 57  1  0
 25 58  1  0
 26 59  1  0
 28 60  1  0
 31 61  1  0
 32 62  1  0
 37 63  1  0
M  END
>  <smiles>  (44) 
COc1ccc([C@H](C)NC(=O)[C@@H]2C[C@@H](O)CN2C(=O)CNC(=O)c2ccc3cc(F)ccc3n2)c(Cl)c1

>  <score_type>  (44) 
oracle

>  <origin>  (44) 
autodockgpu

>  <m_score__min__energy>  (44) 
-8.7400000000000002

>  <m_primary>  (44) 
energy

>  <rmsd>  (44) 
6.649571464934567

>  <m_score__min__rmsd>  (44) 
6.649571464934567

>  <meeko>  (44) 
{"free_energy": -6.41, "intermolecular_energy": -9.09, "internal_energy": -4.42, "cluster_size": 19, "cluster_id": 9, "rank_in_cluster": 14}

>  <energy>  (44) 
-7.4

>  <cluster_rmsd>  (44) 
0.0

>  <cluster>  (44) 
10

$$$$

     RDKit          3D

 63 66  0  0  0  0  0  0  0  0999 V2000
  132.6050   74.9250  227.2230 C   0  0  0  0  0  0  0  0  0  0  0  0
  133.4770   74.1530  226.4500 O   0  0  0  0  0  0  0  0  0  0  0  0
  134.2560   74.6090  225.4050 C   0  0  0  0  0  0  0  0  0  0  0  0
  135.0240   73.6840  224.7020 C   0  0  0  0  0  0  0  0  0  0  0  0
  135.8310   74.0760  223.6380 C   0  0  0  0  0  0  0  0  0  0  0  0
  135.8990   75.4170  223.2370 C   0  0  0  0  0  0  0  0  0  0  0  0
  136.7570   75.7350  222.1080 C   0  0  2  0  0  0  0  0  0  0  0  0
  136.4100   75.0350  220.8190 C   0  0  0  0  0  0  0  0  0  0  0  0
  138.1800   75.5600  222.3530 N   0  0  0  0  0  0  0  0  0  0  0  0
  139.1460   76.5570  222.0150 C   0  0  0  0  0  0  0  0  0  0  0  0
  138.8070   77.6650  221.4760 O   0  0  0  0  0  0  0  0  0  0  0  0
  140.5640   76.2390  222.3250 C   0  0  2  0  0  0  0  0  0  0  0  0
  141.2260   77.4180  223.0580 C   0  0  0  0  0  0  0  0  0  0  0  0
  141.1960   78.4460  221.9460 C   0  0  1  0  0  0  0  0  0  0  0  0
  142.1130   79.4670  222.1550 O   0  0  0  0  0  0  0  0  0  0  0  0
  141.4660   77.6640  220.6730 C   0  0  0  0  0  0  0  0  0  0  0  0
  141.3760   76.2670  221.1200 N   0  0  0  0  0  0  0  0  0  0  0  0
  141.9920   75.1300  220.4780 C   0  0  0  0  0  0  0  0  0  0  0  0
  143.2240   75.1650  220.2260 O   0  0  0  0  0  0  0  0  0  0  0  0
  141.1240   73.9660  220.1450 C   0  0  0  0  0  0  0  0  0  0  0  0
  140.9490   73.1440  221.3260 N   0  0  0  0  0  0  0  0  0  0  0  0
  139.6810   72.7500  221.8260 C   0  0  0  0  0  0  0  0  0  0  0  0
  138.6040   73.1080  221.2480 O   0  0  0  0  0  0  0  0  0  0  0  0
  139.6030   71.9150  223.0340 C   0  0  0  0  0  0  0  0  0  0  0  0
  138.7860   70.8140  223.1240 C   0  0  0  0  0  0  0  0  0  0  0  0
  138.7190   70.0290  224.2690 C   0  0  0  0  0  0  0  0  0  0  0  0
  139.5150   70.3990  225.3250 C   0  0  0  0  0  0  0  0  0  0  0  0
  139.5020   69.6660  226.5010 C   0  0  0  0  0  0  0  0  0  0  0  0
  140.2900   70.0070  227.5920 C   0  0  0  0  0  0  0  0  0  0  0  0
  140.2910   69.3050  228.7450 F   0  0  0  0  0  0  0  0  0  0  0  0
  141.1020   71.1240  227.4660 C   0  0  0  0  0  0  0  0  0  0  0  0
  141.1510   71.8860  226.3220 C   0  0  0  0  0  0  0  0  0  0  0  0
  140.3420   71.5060  225.2500 C   0  0  0  0  0  0  0  0  0  0  0  0
  140.3510   72.2160  224.1080 N   0  0  0  0  0  0  0  0  0  0  0  0
  135.1310   76.3360  223.9430 C   0  0  0  0  0  0  0  0  0  0  0  0
  135.2060   78.0090  223.4620 Cl  0  0  0  0  0  0  0  0  0  0  0  0
  134.3280   75.9240  225.0070 C   0  0  0  0  0  0  0  0  0  0  0  0
  132.8057   74.7473  228.2899 H   0  0  0  0  0  0  0  0  0  0  0  0
  132.7569   75.9901  226.9937 H   0  0  0  0  0  0  0  0  0  0  0  0
  131.5662   74.6451  226.9937 H   0  0  0  0  0  0  0  0  0  0  0  0
  134.9922   72.6237  224.9932 H   0  0  0  0  0  0  0  0  0  0  0  0
  136.4253   73.3206  223.1030 H   0  0  0  0  0  0  0  0  0  0  0  0
  136.5464   76.8079  221.9876 H   0  0  0  0  0  0  0  0  0  0  0  0
  135.9317   74.0701  221.0430 H   0  0  0  0  0  0  0  0  0  0  0  0
  135.7178   75.6609  220.2367 H   0  0  0  0  0  0  0  0  0  0  0  0
  137.3272   74.8631  220.2367 H   0  0  0  0  0  0  0  0  0  0  0  0
  138.5060   74.6490  222.8000 H   0  0  0  0  0  0  0  0  0  0  0  0
  140.5306   75.2802  222.8631 H   0  0  0  0  0  0  0  0  0  0  0  0
  140.6403   77.7401  223.9316 H   0  0  0  0  0  0  0  0  0  0  0  0
  142.2206   77.2106  223.4796 H   0  0  0  0  0  0  0  0  0  0  0  0
  140.2268   78.9635  221.8938 H   0  0  0  0  0  0  0  0  0  0  0  0
  142.9700   79.2470  221.7220 H   0  0  0  0  0  0  0  0  0  0  0  0
  140.7090   77.8835  219.9057 H   0  0  0  0  0  0  0  0  0  0  0  0
  142.4325   77.9100  220.2090 H   0  0  0  0  0  0  0  0  0  0  0  0
  140.1436   74.3259  219.7996 H   0  0  0  0  0  0  0  0  0  0  0  0
  141.5957   73.3710  219.3491 H   0  0  0  0  0  0  0  0  0  0  0  0
  141.7850   72.7970  221.8760 H   0  0  0  0  0  0  0  0  0  0  0  0
  138.1626   70.5441  222.2588 H   0  0  0  0  0  0  0  0  0  0  0  0
  138.0584   69.1513  224.3267 H   0  0  0  0  0  0  0  0  0  0  0  0
  138.8463   68.7857  226.5724 H   0  0  0  0  0  0  0  0  0  0  0  0
  141.7346   71.4133  228.3182 H   0  0  0  0  0  0  0  0  0  0  0  0
  141.8067   72.7666  226.2541 H   0  0  0  0  0  0  0  0  0  0  0  0
  133.7325   76.6758  225.5457 H   0  0  0  0  0  0  0  0  0  0  0  0
  1  2  1  0
  2  3  1  0
  3  4  2  0
  4  5  1  0
  5  6  2  0
  6  7  1  0
  7  8  1  0
  7  9  1  0
  9 10  1  0
 10 11  2  0
 10 12  1  0
 12 13  1  0
 13 14  1  0
 14 15  1  0
 14 16  1  0
 16 17  1  0
 17 18  1  0
 18 19  2  0
 18 20  1  0
 20 21  1  0
 21 22  1  0
 22 23  2  0
 22 24  1  0
 24 25  2  0
 25 26  1  0
 26 27  2  0
 27 28  1  0
 28 29  2  0
 29 30  1  0
 29 31  1  0
 31 32  2  0
 32 33  1  0
 33 34  2  0
  6 35  1  0
 35 36  1  0
 35 37  2  0
 37  3  1  0
 17 12  1  0
 34 24  1  0
 33 27  1  0
  1 38  1  0
  1 39  1  0
  1 40  1  0
  4 41  1  0
  5 42  1  0
  7 43  1  6
  8 44  1  0
  8 45  1  0
  8 46  1  0
  9 47  1  0
 12 48  1  1
 13 49  1  0
 13 50  1  0
 14 51  1  6
 15 52  1  0
 16 53  1  0
 16 54  1  0
 20 55  1  0
 20 56  1  0
 21 57  1  0
 25 58  1  0
 26 59  1  0
 28 60  1  0
 31 61  1  0
 32 62  1  0
 37 63  1  0
M  END
>  <smiles>  (45) 
COc1ccc([C@H](C)NC(=O)[C@@H]2C[C@@H](O)CN2C(=O)CNC(=O)c2ccc3cc(F)ccc3n2)c(Cl)c1

>  <score_type>  (45) 
oracle

>  <origin>  (45) 
autodockgpu

>  <m_score__min__energy>  (45) 
-8.7400000000000002

>  <m_primary>  (45) 
energy

>  <rmsd>  (45) 
6.496448060715442

>  <m_score__min__rmsd>  (45) 
6.496448060715442

>  <meeko>  (45) 
{"free_energy": -8.18, "intermolecular_energy": -10.86, "internal_energy": -2.9, "cluster_size": 5, "cluster_id": 2, "rank_in_cluster": 3}

>  <energy>  (45) 
-7.32

>  <cluster_rmsd>  (45) 
0.0

>  <cluster>  (45) 
11

$$$$

     RDKit          3D

 63 66  0  0  0  0  0  0  0  0999 V2000
  135.9870   79.6390  218.0050 C   0  0  0  0  0  0  0  0  0  0  0  0
  136.7040   79.0240  219.0340 O   0  0  0  0  0  0  0  0  0  0  0  0
  138.0760   78.8670  219.0870 C   0  0  0  0  0  0  0  0  0  0  0  0
  138.6140   77.6360  218.7200 C   0  0  0  0  0  0  0  0  0  0  0  0
  139.9870   77.4120  218.7510 C   0  0  0  0  0  0  0  0  0  0  0  0
  140.8770   78.4170  219.1530 C   0  0  0  0  0  0  0  0  0  0  0  0
  142.2940   78.1000  219.1420 C   0  0  2  0  0  0  0  0  0  0  0  0
  142.8820   77.8250  217.7820 C   0  0  0  0  0  0  0  0  0  0  0  0
  142.6870   77.0190  220.0340 N   0  0  0  0  0  0  0  0  0  0  0  0
  142.7480   75.6570  219.6080 C   0  0  0  0  0  0  0  0  0  0  0  0
  142.4580   75.3130  218.4130 O   0  0  0  0  0  0  0  0  0  0  0  0
  143.1660   74.6620  220.6310 C   0  0  2  0  0  0  0  0  0  0  0  0
  144.6530   74.3080  220.4510 C   0  0  0  0  0  0  0  0  0  0  0  0
  144.5790   73.6150  219.1070 C   0  0  1  0  0  0  0  0  0  0  0  0
  145.6790   72.7990  218.8800 O   0  0  0  0  0  0  0  0  0  0  0  0
  143.2700   72.8450  219.1260 C   0  0  0  0  0  0  0  0  0  0  0  0
  142.6090   73.3520  220.3370 N   0  0  0  0  0  0  0  0  0  0  0  0
  141.5930   72.6650  221.0990 C   0  0  0  0  0  0  0  0  0  0  0  0
  141.8540   71.5340  221.5810 O   0  0  0  0  0  0  0  0  0  0  0  0
  140.2780   73.3440  221.2730 C   0  0  0  0  0  0  0  0  0  0  0  0
  140.4930   74.6830  221.7870 N   0  0  0  0  0  0  0  0  0  0  0  0
  139.5380   75.7250  221.6780 C   0  0  0  0  0  0  0  0  0  0  0  0
  138.4140   75.5350  221.1090 O   0  0  0  0  0  0  0  0  0  0  0  0
  139.8450   77.0540  222.2290 C   0  0  0  0  0  0  0  0  0  0  0  0
  138.8790   77.8930  222.7290 C   0  0  0  0  0  0  0  0  0  0  0  0
  139.1780   79.1460  223.2500 C   0  0  0  0  0  0  0  0  0  0  0  0
  140.4990   79.5210  223.2490 C   0  0  0  0  0  0  0  0  0  0  0  0
  140.8750   80.7570  223.7520 C   0  0  0  0  0  0  0  0  0  0  0  0
  142.1990   81.1750  223.7680 C   0  0  0  0  0  0  0  0  0  0  0  0
  142.5850   82.3750  224.2530 F   0  0  0  0  0  0  0  0  0  0  0  0
  143.1480   80.3030  223.2560 C   0  0  0  0  0  0  0  0  0  0  0  0
  142.8270   79.0670  222.7450 C   0  0  0  0  0  0  0  0  0  0  0  0
  141.4830   78.6880  222.7490 C   0  0  0  0  0  0  0  0  0  0  0  0
  141.1150   77.4900  222.2610 N   0  0  0  0  0  0  0  0  0  0  0  0
  140.3330   79.6440  219.5190 C   0  0  0  0  0  0  0  0  0  0  0  0
  141.4230   80.9040  220.0270 Cl  0  0  0  0  0  0  0  0  0  0  0  0
  138.9540   79.8500  219.4820 C   0  0  0  0  0  0  0  0  0  0  0  0
  135.2189   80.2978  218.4362 H   0  0  0  0  0  0  0  0  0  0  0  0
  136.6735   80.2335  217.3842 H   0  0  0  0  0  0  0  0  0  0  0  0
  135.5040   78.8700  217.3842 H   0  0  0  0  0  0  0  0  0  0  0  0
  137.9416   76.8264  218.3999 H   0  0  0  0  0  0  0  0  0  0  0  0
  140.3808   76.4286  218.4547 H   0  0  0  0  0  0  0  0  0  0  0  0
  142.7155   79.0437  219.5186 H   0  0  0  0  0  0  0  0  0  0  0  0
  143.8729   77.3616  217.8978 H   0  0  0  0  0  0  0  0  0  0  0  0
  142.2207   77.1428  217.2277 H   0  0  0  0  0  0  0  0  0  0  0  0
  142.9817   78.7699  217.2277 H   0  0  0  0  0  0  0  0  0  0  0  0
  142.9360   77.2630  221.0410 H   0  0  0  0  0  0  0  0  0  0  0  0
  142.8769   75.1046  221.5956 H   0  0  0  0  0  0  0  0  0  0  0  0
  145.2880   75.2055  220.4164 H   0  0  0  0  0  0  0  0  0  0  0  0
  145.0960   73.7127  221.2630 H   0  0  0  0  0  0  0  0  0  0  0  0
  144.6023   74.3343  218.2751 H   0  0  0  0  0  0  0  0  0  0  0  0
  145.6890   72.0550  219.5260 H   0  0  0  0  0  0  0  0  0  0  0  0
  142.6712   73.0600  218.2287 H   0  0  0  0  0  0  0  0  0  0  0  0
  143.4078   71.7537  219.1306 H   0  0  0  0  0  0  0  0  0  0  0  0
  139.7631   73.4014  220.3026 H   0  0  0  0  0  0  0  0  0  0  0  0
  139.6598   72.7728  221.9812 H   0  0  0  0  0  0  0  0  0  0  0  0
  141.3970   74.9390  222.2760 H   0  0  0  0  0  0  0  0  0  0  0  0
  137.8304   77.5608  222.7165 H   0  0  0  0  0  0  0  0  0  0  0  0
  138.3926   79.8071  223.6451 H   0  0  0  0  0  0  0  0  0  0  0  0
  140.0999   81.4278  224.1511 H   0  0  0  0  0  0  0  0  0  0  0  0
  144.2033   80.6133  223.2586 H   0  0  0  0  0  0  0  0  0  0  0  0
  143.6041   78.3985  222.3460 H   0  0  0  0  0  0  0  0  0  0  0  0
  138.5550   80.8312  219.7785 H   0  0  0  0  0  0  0  0  0  0  0  0
  1  2  1  0
  2  3  1  0
  3  4  2  0
  4  5  1  0
  5  6  2  0
  6  7  1  0
  7  8  1  0
  7  9  1  0
  9 10  1  0
 10 11  2  0
 10 12  1  0
 12 13  1  0
 13 14  1  0
 14 15  1  0
 14 16  1  0
 16 17  1  0
 17 18  1  0
 18 19  2  0
 18 20  1  0
 20 21  1  0
 21 22  1  0
 22 23  2  0
 22 24  1  0
 24 25  2  0
 25 26  1  0
 26 27  2  0
 27 28  1  0
 28 29  2  0
 29 30  1  0
 29 31  1  0
 31 32  2  0
 32 33  1  0
 33 34  2  0
  6 35  1  0
 35 36  1  0
 35 37  2  0
 37  3  1  0
 17 12  1  0
 34 24  1  0
 33 27  1  0
  1 38  1  0
  1 39  1  0
  1 40  1  0
  4 41  1  0
  5 42  1  0
  7 43  1  1
  8 44  1  0
  8 45  1  0
  8 46  1  0
  9 47  1  0
 12 48  1  1
 13 49  1  0
 13 50  1  0
 14 51  1  6
 15 52  1  0
 16 53  1  0
 16 54  1  0
 20 55  1  0
 20 56  1  0
 21 57  1  0
 25 58  1  0
 26 59  1  0
 28 60  1  0
 31 61  1  0
 32 62  1  0
 37 63  1  0
M  END
>  <smiles>  (46) 
COc1ccc([C@H](C)NC(=O)[C@@H]2C[C@@H](O)CN2C(=O)CNC(=O)c2ccc3cc(F)ccc3n2)c(Cl)c1

>  <score_type>  (46) 
oracle

>  <origin>  (46) 
autodockgpu

>  <m_score__min__energy>  (46) 
-8.7400000000000002

>  <m_primary>  (46) 
energy

>  <rmsd>  (46) 
6.732217649159489

>  <m_score__min__rmsd>  (46) 
6.732217649159489

>  <meeko>  (46) 
{"free_energy": -6.31, "intermolecular_energy": -8.99, "internal_energy": -4.5, "cluster_size": 19, "cluster_id": 9, "rank_in_cluster": 18}

>  <energy>  (46) 
-6.45

>  <cluster_rmsd>  (46) 
0.0

>  <cluster>  (46) 
12

$$$$

     RDKit          3D

 63 66  0  0  0  0  0  0  0  0999 V2000
  140.2660   84.2620  220.7410 C   0  0  0  0  0  0  0  0  0  0  0  0
  141.0390   83.4130  221.5390 O   0  0  0  0  0  0  0  0  0  0  0  0
  141.2500   82.0650  221.3260 C   0  0  0  0  0  0  0  0  0  0  0  0
  141.4490   81.6270  220.0190 C   0  0  0  0  0  0  0  0  0  0  0  0
  141.6680   80.2830  219.7350 C   0  0  0  0  0  0  0  0  0  0  0  0
  141.6950   79.3210  220.7540 C   0  0  0  0  0  0  0  0  0  0  0  0
  141.9430   77.9430  220.3680 C   0  0  2  0  0  0  0  0  0  0  0  0
  142.4380   77.7490  218.9590 C   0  0  0  0  0  0  0  0  0  0  0  0
  140.8270   77.0360  220.5870 N   0  0  0  0  0  0  0  0  0  0  0  0
  139.5340   77.2580  220.0200 C   0  0  0  0  0  0  0  0  0  0  0  0
  139.2890   78.2730  219.2840 O   0  0  0  0  0  0  0  0  0  0  0  0
  138.4910   76.2450  220.3300 C   0  0  2  0  0  0  0  0  0  0  0  0
  137.1660   76.9390  220.6900 C   0  0  0  0  0  0  0  0  0  0  0  0
  137.5850   77.6100  221.9820 C   0  0  1  0  0  0  0  0  0  0  0  0
  136.4940   77.9480  222.7710 O   0  0  0  0  0  0  0  0  0  0  0  0
  138.5170   76.6230  222.6610 C   0  0  0  0  0  0  0  0  0  0  0  0
  138.7470   75.6150  221.6150 N   0  0  0  0  0  0  0  0  0  0  0  0
  139.1470   74.2450  221.8310 C   0  0  0  0  0  0  0  0  0  0  0  0
  140.3660   73.9840  221.9900 O   0  0  0  0  0  0  0  0  0  0  0  0
  138.0790   73.2060  221.8540 C   0  0  0  0  0  0  0  0  0  0  0  0
  138.3480   72.2640  222.9230 N   0  0  0  0  0  0  0  0  0  0  0  0
  139.3140   71.2300  222.8320 C   0  0  0  0  0  0  0  0  0  0  0  0
  140.0140   71.0710  221.7790 O   0  0  0  0  0  0  0  0  0  0  0  0
  139.5160   70.3200  223.9690 C   0  0  0  0  0  0  0  0  0  0  0  0
  139.0920   69.0130  223.9600 C   0  0  0  0  0  0  0  0  0  0  0  0
  139.2890   68.1590  225.0380 C   0  0  0  0  0  0  0  0  0  0  0  0
  139.9360   68.6780  226.1330 C   0  0  0  0  0  0  0  0  0  0  0  0
  140.1680   67.8870  227.2470 C   0  0  0  0  0  0  0  0  0  0  0  0
  140.8170   68.3730  228.3740 C   0  0  0  0  0  0  0  0  0  0  0  0
  141.0530   67.6180  229.4690 F   0  0  0  0  0  0  0  0  0  0  0  0
  141.2320   69.6950  228.3490 C   0  0  0  0  0  0  0  0  0  0  0  0
  141.0260   70.5220  227.2690 C   0  0  0  0  0  0  0  0  0  0  0  0
  140.3680   69.9920  226.1580 C   0  0  0  0  0  0  0  0  0  0  0  0
  140.1410   70.7570  225.0760 N   0  0  0  0  0  0  0  0  0  0  0  0
  141.4940   79.7650  222.0570 C   0  0  0  0  0  0  0  0  0  0  0  0
  141.5200   78.5840  223.3380 Cl  0  0  0  0  0  0  0  0  0  0  0  0
  141.2760   81.1170  222.3230 C   0  0  0  0  0  0  0  0  0  0  0  0
  139.6648   84.9223  221.3833 H   0  0  0  0  0  0  0  0  0  0  0  0
  140.9267   84.8705  220.1059 H   0  0  0  0  0  0  0  0  0  0  0  0
  139.5984   83.6611  220.1059 H   0  0  0  0  0  0  0  0  0  0  0  0
  141.4327   82.3571  219.1964 H   0  0  0  0  0  0  0  0  0  0  0  0
  141.8228   79.9696  218.6920 H   0  0  0  0  0  0  0  0  0  0  0  0
  142.7560   77.6808  221.0610 H   0  0  0  0  0  0  0  0  0  0  0  0
  143.4619   77.3477  218.9821 H   0  0  0  0  0  0  0  0  0  0  0  0
  141.7791   77.0426  218.4329 H   0  0  0  0  0  0  0  0  0  0  0  0
  142.4345   78.7150  218.4329 H   0  0  0  0  0  0  0  0  0  0  0  0
  140.9880   76.1770  221.1960 H   0  0  0  0  0  0  0  0  0  0  0  0
  138.4753   75.5746  219.4581 H   0  0  0  0  0  0  0  0  0  0  0  0
  136.8639   77.6703  219.9259 H   0  0  0  0  0  0  0  0  0  0  0  0
  136.2927   76.2746  220.7667 H   0  0  0  0  0  0  0  0  0  0  0  0
  138.0912   78.5691  221.7981 H   0  0  0  0  0  0  0  0  0  0  0  0
  136.0670   77.1350  223.1270 H   0  0  0  0  0  0  0  0  0  0  0  0
  139.4589   77.1078  222.9574 H   0  0  0  0  0  0  0  0  0  0  0  0
  138.1015   76.2003  223.5877 H   0  0  0  0  0  0  0  0  0  0  0  0
  137.1037   73.6856  222.0239 H   0  0  0  0  0  0  0  0  0  0  0  0
  138.0618   72.6746  220.8910 H   0  0  0  0  0  0  0  0  0  0  0  0
  137.8170   72.3150  223.8380 H   0  0  0  0  0  0  0  0  0  0  0  0
  138.5778   68.6288  223.0667 H   0  0  0  0  0  0  0  0  0  0  0  0
  138.9428   67.1151  225.0157 H   0  0  0  0  0  0  0  0  0  0  0  0
  139.8272   66.8412  227.2380 H   0  0  0  0  0  0  0  0  0  0  0  0
  141.7487   70.1008  229.2312 H   0  0  0  0  0  0  0  0  0  0  0  0
  141.3688   71.5672  227.2807 H   0  0  0  0  0  0  0  0  0  0  0  0
  141.1197   81.4357  223.3641 H   0  0  0  0  0  0  0  0  0  0  0  0
  1  2  1  0
  2  3  1  0
  3  4  2  0
  4  5  1  0
  5  6  2  0
  6  7  1  0
  7  8  1  0
  7  9  1  0
  9 10  1  0
 10 11  2  0
 10 12  1  0
 12 13  1  0
 13 14  1  0
 14 15  1  0
 14 16  1  0
 16 17  1  0
 17 18  1  0
 18 19  2  0
 18 20  1  0
 20 21  1  0
 21 22  1  0
 22 23  2  0
 22 24  1  0
 24 25  2  0
 25 26  1  0
 26 27  2  0
 27 28  1  0
 28 29  2  0
 29 30  1  0
 29 31  1  0
 31 32  2  0
 32 33  1  0
 33 34  2  0
  6 35  1  0
 35 36  1  0
 35 37  2  0
 37  3  1  0
 17 12  1  0
 34 24  1  0
 33 27  1  0
  1 38  1  0
  1 39  1  0
  1 40  1  0
  4 41  1  0
  5 42  1  0
  7 43  1  1
  8 44  1  0
  8 45  1  0
  8 46  1  0
  9 47  1  0
 12 48  1  6
 13 49  1  0
 13 50  1  0
 14 51  1  6
 15 52  1  0
 16 53  1  0
 16 54  1  0
 20 55  1  0
 20 56  1  0
 21 57  1  0
 25 58  1  0
 26 59  1  0
 28 60  1  0
 31 61  1  0
 32 62  1  0
 37 63  1  0
M  END
>  <smiles>  (47) 
COc1ccc([C@H](C)NC(=O)[C@@H]2C[C@@H](O)CN2C(=O)CNC(=O)c2ccc3cc(F)ccc3n2)c(Cl)c1

>  <score_type>  (47) 
oracle

>  <origin>  (47) 
autodockgpu

>  <m_score__min__energy>  (47) 
-8.7400000000000002

>  <m_primary>  (47) 
energy

>  <rmsd>  (47) 
2.8356152959686676

>  <m_score__min__rmsd>  (47) 
2.8356152959686676

>  <meeko>  (47) 
{"free_energy": -8.12, "intermolecular_energy": -10.81, "internal_energy": -2.54, "cluster_size": 8, "cluster_id": 3, "rank_in_cluster": 6}

>  <energy>  (47) 
-6.43

>  <cluster_rmsd>  (47) 
0.0

>  <cluster>  (47) 
13

$$$$

     RDKit          3D

 63 66  0  0  0  0  0  0  0  0999 V2000
  133.9740   68.3000  225.6620 C   0  0  0  0  0  0  0  0  0  0  0  0
  134.1060   69.4100  226.5000 O   0  0  0  0  0  0  0  0  0  0  0  0
  134.1690   70.7290  226.0980 C   0  0  0  0  0  0  0  0  0  0  0  0
  134.9870   71.0520  225.0170 C   0  0  0  0  0  0  0  0  0  0  0  0
  135.0950   72.3620  224.5610 C   0  0  0  0  0  0  0  0  0  0  0  0
  134.3850   73.4040  225.1730 C   0  0  0  0  0  0  0  0  0  0  0  0
  134.5480   74.7380  224.6230 C   0  0  2  0  0  0  0  0  0  0  0  0
  133.4770   75.1700  223.6540 C   0  0  0  0  0  0  0  0  0  0  0  0
  135.8440   74.9950  224.0130 N   0  0  0  0  0  0  0  0  0  0  0  0
  136.1960   76.2660  223.4650 C   0  0  0  0  0  0  0  0  0  0  0  0
  135.3840   77.2530  223.4810 O   0  0  0  0  0  0  0  0  0  0  0  0
  137.5550   76.3800  222.8750 C   0  0  2  0  0  0  0  0  0  0  0  0
  137.6360   77.6150  221.9600 C   0  0  0  0  0  0  0  0  0  0  0  0
  136.6760   77.1770  220.8730 C   0  0  1  0  0  0  0  0  0  0  0  0
  136.8700   77.8800  219.6920 O   0  0  0  0  0  0  0  0  0  0  0  0
  136.9070   75.6840  220.7140 C   0  0  0  0  0  0  0  0  0  0  0  0
  137.7680   75.3610  221.8610 N   0  0  0  0  0  0  0  0  0  0  0  0
  138.6660   74.2350  221.9560 C   0  0  0  0  0  0  0  0  0  0  0  0
  139.8910   74.4480  222.1450 O   0  0  0  0  0  0  0  0  0  0  0  0
  138.0850   72.8700  221.8230 C   0  0  0  0  0  0  0  0  0  0  0  0
  138.5960   72.0240  222.8840 N   0  0  0  0  0  0  0  0  0  0  0  0
  138.2220   70.6670  223.0530 C   0  0  0  0  0  0  0  0  0  0  0  0
  137.3970   70.1060  222.2610 O   0  0  0  0  0  0  0  0  0  0  0  0
  138.7920   69.8870  224.1620 C   0  0  0  0  0  0  0  0  0  0  0  0
  138.7220   68.5160  224.2200 C   0  0  0  0  0  0  0  0  0  0  0  0
  139.2660   67.7870  225.2700 C   0  0  0  0  0  0  0  0  0  0  0  0
  139.8890   68.4990  226.2660 C   0  0  0  0  0  0  0  0  0  0  0  0
  140.4550   67.8420  227.3460 C   0  0  0  0  0  0  0  0  0  0  0  0
  141.0930   68.5240  228.3730 C   0  0  0  0  0  0  0  0  0  0  0  0
  141.6500   67.9010  229.4340 F   0  0  0  0  0  0  0  0  0  0  0  0
  141.1460   69.9060  228.2820 C   0  0  0  0  0  0  0  0  0  0  0  0
  140.6000   70.6060  227.2320 C   0  0  0  0  0  0  0  0  0  0  0  0
  139.9680   69.8800  226.2210 C   0  0  0  0  0  0  0  0  0  0  0  0
  139.4170   70.5150  225.1720 N   0  0  0  0  0  0  0  0  0  0  0  0
  133.5710   73.0760  226.2520 C   0  0  0  0  0  0  0  0  0  0  0  0
  132.6840   74.3590  227.0290 Cl  0  0  0  0  0  0  0  0  0  0  0  0
  133.4760   71.7560  226.6960 C   0  0  0  0  0  0  0  0  0  0  0  0
  133.8659   67.3910  226.2719 H   0  0  0  0  0  0  0  0  0  0  0  0
  133.0842   68.4236  225.0272 H   0  0  0  0  0  0  0  0  0  0  0  0
  134.8679   68.2115  225.0272 H   0  0  0  0  0  0  0  0  0  0  0  0
  135.5577   70.2568  224.5151 H   0  0  0  0  0  0  0  0  0  0  0  0
  135.7492   72.5839  223.7050 H   0  0  0  0  0  0  0  0  0  0  0  0
  134.4574   75.3461  225.5351 H   0  0  0  0  0  0  0  0  0  0  0  0
  132.5983   75.5244  224.2128 H   0  0  0  0  0  0  0  0  0  0  0  0
  133.8616   75.9833  223.0211 H   0  0  0  0  0  0  0  0  0  0  0  0
  133.1896   74.3175  223.0211 H   0  0  0  0  0  0  0  0  0  0  0  0
  136.5510   74.1980  223.9780 H   0  0  0  0  0  0  0  0  0  0  0  0
  138.2416   76.3565  223.7341 H   0  0  0  0  0  0  0  0  0  0  0  0
  137.2922   78.5274  222.4692 H   0  0  0  0  0  0  0  0  0  0  0  0
  138.6467   77.8801  221.6161 H   0  0  0  0  0  0  0  0  0  0  0  0
  135.6305   77.3885  221.1418 H   0  0  0  0  0  0  0  0  0  0  0  0
  136.6510   77.3100  218.9190 H   0  0  0  0  0  0  0  0  0  0  0  0
  135.9583   75.1293  220.7627 H   0  0  0  0  0  0  0  0  0  0  0  0
  137.3539   75.4142  219.7457 H   0  0  0  0  0  0  0  0  0  0  0  0
  136.9890   72.9288  221.8961 H   0  0  0  0  0  0  0  0  0  0  0  0
  138.3641   72.4452  220.8475 H   0  0  0  0  0  0  0  0  0  0  0  0
  139.2870   72.4000  223.5930 H   0  0  0  0  0  0  0  0  0  0  0  0
  138.2169   67.9761  223.4055 H   0  0  0  0  0  0  0  0  0  0  0  0
  139.2008   66.6894  225.3024 H   0  0  0  0  0  0  0  0  0  0  0  0
  140.3971   66.7445  227.3913 H   0  0  0  0  0  0  0  0  0  0  0  0
  141.6466   70.4672  229.0847 H   0  0  0  0  0  0  0  0  0  0  0  0
  140.6594   71.7036  227.1900 H   0  0  0  0  0  0  0  0  0  0  0  0
  132.8249   71.5293  227.5531 H   0  0  0  0  0  0  0  0  0  0  0  0
  1  2  1  0
  2  3  1  0
  3  4  2  0
  4  5  1  0
  5  6  2  0
  6  7  1  0
  7  8  1  0
  7  9  1  0
  9 10  1  0
 10 11  2  0
 10 12  1  0
 12 13  1  0
 13 14  1  0
 14 15  1  0
 14 16  1  0
 16 17  1  0
 17 18  1  0
 18 19  2  0
 18 20  1  0
 20 21  1  0
 21 22  1  0
 22 23  2  0
 22 24  1  0
 24 25  2  0
 25 26  1  0
 26 27  2  0
 27 28  1  0
 28 29  2  0
 29 30  1  0
 29 31  1  0
 31 32  2  0
 32 33  1  0
 33 34  2  0
  6 35  1  0
 35 36  1  0
 35 37  2  0
 37  3  1  0
 17 12  1  0
 34 24  1  0
 33 27  1  0
  1 38  1  0
  1 39  1  0
  1 40  1  0
  4 41  1  0
  5 42  1  0
  7 43  1  1
  8 44  1  0
  8 45  1  0
  8 46  1  0
  9 47  1  0
 12 48  1  1
 13 49  1  0
 13 50  1  0
 14 51  1  1
 15 52  1  0
 16 53  1  0
 16 54  1  0
 20 55  1  0
 20 56  1  0
 21 57  1  0
 25 58  1  0
 26 59  1  0
 28 60  1  0
 31 61  1  0
 32 62  1  0
 37 63  1  0
M  END
>  <smiles>  (48) 
COc1ccc([C@H](C)NC(=O)[C@@H]2C[C@@H](O)CN2C(=O)CNC(=O)c2ccc3cc(F)ccc3n2)c(Cl)c1

>  <score_type>  (48) 
oracle

>  <origin>  (48) 
autodockgpu

>  <m_score__min__energy>  (48) 
-8.7400000000000002

>  <m_primary>  (48) 
energy

>  <rmsd>  (48) 
8.238138915685164

>  <m_score__min__rmsd>  (48) 
8.238138915685164

>  <meeko>  (48) 
{"free_energy": -8.27, "intermolecular_energy": -10.95, "internal_energy": -2.72, "cluster_size": 1, "cluster_id": 5, "rank_in_cluster": 1}

>  <energy>  (48) 
-5.85

>  <cluster_rmsd>  (48) 
0.0

>  <cluster>  (48) 
14

$$$$

     RDKit          3D

 63 66  0  0  0  0  0  0  0  0999 V2000
  135.9700   78.0460  219.8810 C   0  0  0  0  0  0  0  0  0  0  0  0
  136.9350   78.9880  219.5150 O   0  0  0  0  0  0  0  0  0  0  0  0
  138.2940   78.7630  219.4130 C   0  0  0  0  0  0  0  0  0  0  0  0
  138.7300   77.4660  219.1540 C   0  0  0  0  0  0  0  0  0  0  0  0
  140.0850   77.1710  219.0390 C   0  0  0  0  0  0  0  0  0  0  0  0
  141.0590   78.1690  219.1790 C   0  0  0  0  0  0  0  0  0  0  0  0
  142.4490   77.7740  219.0290 C   0  0  2  0  0  0  0  0  0  0  0  0
  142.9090   77.5620  217.6100 C   0  0  0  0  0  0  0  0  0  0  0  0
  142.8420   76.6130  219.8130 N   0  0  0  0  0  0  0  0  0  0  0  0
  142.5040   75.2780  219.4310 C   0  0  0  0  0  0  0  0  0  0  0  0
  141.8330   75.0320  218.3730 O   0  0  0  0  0  0  0  0  0  0  0  0
  142.9760   74.1920  220.3300 C   0  0  2  0  0  0  0  0  0  0  0  0
  144.5130   74.1820  220.3910 C   0  0  0  0  0  0  0  0  0  0  0  0
  144.8120   73.7860  218.9600 C   0  0  1  0  0  0  0  0  0  0  0  0
  146.0920   73.2670  218.8190 O   0  0  0  0  0  0  0  0  0  0  0  0
  143.7290   72.7880  218.5880 C   0  0  0  0  0  0  0  0  0  0  0  0
  142.7880   72.8900  219.7130 N   0  0  0  0  0  0  0  0  0  0  0  0
  141.8520   71.8740  220.1300 C   0  0  0  0  0  0  0  0  0  0  0  0
  142.2940   70.7690  220.5380 O   0  0  0  0  0  0  0  0  0  0  0  0
  140.3990   72.1940  220.0520 C   0  0  0  0  0  0  0  0  0  0  0  0
  140.1880   73.5690  220.4610 N   0  0  0  0  0  0  0  0  0  0  0  0
  139.9100   73.9550  221.7960 C   0  0  0  0  0  0  0  0  0  0  0  0
  139.8290   73.0920  222.7300 O   0  0  0  0  0  0  0  0  0  0  0  0
  139.7080   75.3770  222.1160 C   0  0  0  0  0  0  0  0  0  0  0  0
  138.4630   75.9250  222.3140 C   0  0  0  0  0  0  0  0  0  0  0  0
  138.2820   77.2680  222.6190 C   0  0  0  0  0  0  0  0  0  0  0  0
  139.4120   78.0420  222.7180 C   0  0  0  0  0  0  0  0  0  0  0  0
  139.3110   79.3910  223.0170 C   0  0  0  0  0  0  0  0  0  0  0  0
  140.4280   80.2090  223.1250 C   0  0  0  0  0  0  0  0  0  0  0  0
  140.3500   81.5250  223.4160 F   0  0  0  0  0  0  0  0  0  0  0  0
  141.6670   79.6230  222.9200 C   0  0  0  0  0  0  0  0  0  0  0  0
  141.8220   78.2900  222.6190 C   0  0  0  0  0  0  0  0  0  0  0  0
  140.6720   77.5050  222.5200 C   0  0  0  0  0  0  0  0  0  0  0  0
  140.7670   76.1960  222.2290 N   0  0  0  0  0  0  0  0  0  0  0  0
  140.6170   79.4620  219.4370 C   0  0  0  0  0  0  0  0  0  0  0  0
  141.8130   80.7160  219.6180 Cl  0  0  0  0  0  0  0  0  0  0  0  0
  139.2540   79.7390  219.5500 C   0  0  0  0  0  0  0  0  0  0  0  0
  135.9112   77.9886  220.9779 H   0  0  0  0  0  0  0  0  0  0  0  0
  134.9922   78.3466  219.4766 H   0  0  0  0  0  0  0  0  0  0  0  0
  136.2470   77.0612  219.4766 H   0  0  0  0  0  0  0  0  0  0  0  0
  137.9900   76.6604  219.0383 H   0  0  0  0  0  0  0  0  0  0  0  0
  140.3972   76.1362  218.8346 H   0  0  0  0  0  0  0  0  0  0  0  0
  142.9578   78.6635  219.4289 H   0  0  0  0  0  0  0  0  0  0  0  0
  143.9080   77.1016  217.6133 H   0  0  0  0  0  0  0  0  0  0  0  0
  142.2015   76.8991  217.0904 H   0  0  0  0  0  0  0  0  0  0  0  0
  142.9534   78.5305  217.0904 H   0  0  0  0  0  0  0  0  0  0  0  0
  143.4040   76.7740  220.7040 H   0  0  0  0  0  0  0  0  0  0  0  0
  142.4460   74.3572  221.2796 H   0  0  0  0  0  0  0  0  0  0  0  0
  144.9212   75.1733  220.6372 H   0  0  0  0  0  0  0  0  0  0  0  0
  144.9488   73.5281  221.1607 H   0  0  0  0  0  0  0  0  0  0  0  0
  144.7990   74.6543  218.2848 H   0  0  0  0  0  0  0  0  0  0  0  0
  146.7390   73.9950  218.6760 H   0  0  0  0  0  0  0  0  0  0  0  0
  143.2442   73.0650  217.6402 H   0  0  0  0  0  0  0  0  0  0  0  0
  144.1123   71.7686  218.4333 H   0  0  0  0  0  0  0  0  0  0  0  0
  140.0484   72.0604  219.0180 H   0  0  0  0  0  0  0  0  0  0  0  0
  139.8376   71.5216  220.7173 H   0  0  0  0  0  0  0  0  0  0  0  0
  140.2340   74.3590  219.7560 H   0  0  0  0  0  0  0  0  0  0  0  0
  137.5784   75.2768  222.2278 H   0  0  0  0  0  0  0  0  0  0  0  0
  137.2790   77.6923  222.7742 H   0  0  0  0  0  0  0  0  0  0  0  0
  138.3139   79.8282  223.1739 H   0  0  0  0  0  0  0  0  0  0  0  0
  142.5660   80.2516  223.0016 H   0  0  0  0  0  0  0  0  0  0  0  0
  142.8205   77.8562  222.4613 H   0  0  0  0  0  0  0  0  0  0  0  0
  138.9366   80.7720  219.7554 H   0  0  0  0  0  0  0  0  0  0  0  0
  1  2  1  0
  2  3  1  0
  3  4  2  0
  4  5  1  0
  5  6  2  0
  6  7  1  0
  7  8  1  0
  7  9  1  0
  9 10  1  0
 10 11  2  0
 10 12  1  0
 12 13  1  0
 13 14  1  0
 14 15  1  0
 14 16  1  0
 16 17  1  0
 17 18  1  0
 18 19  2  0
 18 20  1  0
 20 21  1  0
 21 22  1  0
 22 23  2  0
 22 24  1  0
 24 25  2  0
 25 26  1  0
 26 27  2  0
 27 28  1  0
 28 29  2  0
 29 30  1  0
 29 31  1  0
 31 32  2  0
 32 33  1  0
 33 34  2  0
  6 35  1  0
 35 36  1  0
 35 37  2  0
 37  3  1  0
 17 12  1  0
 34 24  1  0
 33 27  1  0
  1 38  1  0
  1 39  1  0
  1 40  1  0
  4 41  1  0
  5 42  1  0
  7 43  1  1
  8 44  1  0
  8 45  1  0
  8 46  1  0
  9 47  1  0
 12 48  1  1
 13 49  1  0
 13 50  1  0
 14 51  1  6
 15 52  1  0
 16 53  1  0
 16 54  1  0
 20 55  1  0
 20 56  1  0
 21 57  1  0
 25 58  1  0
 26 59  1  0
 28 60  1  0
 31 61  1  0
 32 62  1  0
 37 63  1  0
M  END
>  <smiles>  (49) 
COc1ccc([C@H](C)NC(=O)[C@@H]2C[C@@H](O)CN2C(=O)CNC(=O)c2ccc3cc(F)ccc3n2)c(Cl)c1

>  <score_type>  (49) 
oracle

>  <origin>  (49) 
autodockgpu

>  <m_score__min__energy>  (49) 
-8.7400000000000002

>  <m_primary>  (49) 
energy

>  <rmsd>  (49) 
6.468476795208726

>  <m_score__min__rmsd>  (49) 
6.468476795208726

>  <meeko>  (49) 
{"free_energy": -6.39, "intermolecular_energy": -9.07, "internal_energy": -4.85, "cluster_size": 19, "cluster_id": 9, "rank_in_cluster": 16}

>  <energy>  (49) 
-5.81

>  <cluster_rmsd>  (49) 
1.44

>  <cluster>  (49) 
14

$$$$

     RDKit          3D

 63 66  0  0  0  0  0  0  0  0999 V2000
  140.9840   70.6220  228.0780 C   0  0  0  0  0  0  0  0  0  0  0  0
  140.6280   69.8510  226.9680 O   0  0  0  0  0  0  0  0  0  0  0  0
  140.2550   70.3350  225.7290 C   0  0  0  0  0  0  0  0  0  0  0  0
  141.0170   71.3520  225.1600 C   0  0  0  0  0  0  0  0  0  0  0  0
  140.6960   71.8840  223.9150 C   0  0  0  0  0  0  0  0  0  0  0  0
  139.5930   71.4140  223.1890 C   0  0  0  0  0  0  0  0  0  0  0  0
  139.3390   72.0170  221.8920 C   0  0  2  0  0  0  0  0  0  0  0  0
  140.5620   72.2660  221.0480 C   0  0  0  0  0  0  0  0  0  0  0  0
  138.5550   73.2420  221.9290 N   0  0  0  0  0  0  0  0  0  0  0  0
  139.1470   74.5270  222.1250 C   0  0  0  0  0  0  0  0  0  0  0  0
  140.4070   74.6700  222.2790 O   0  0  0  0  0  0  0  0  0  0  0  0
  138.2200   75.6890  222.1390 C   0  0  2  0  0  0  0  0  0  0  0  0
  137.1100   75.4960  221.0910 C   0  0  0  0  0  0  0  0  0  0  0  0
  137.9480   75.5650  219.8320 C   0  0  1  0  0  0  0  0  0  0  0  0
  137.1830   75.8640  218.7120 O   0  0  0  0  0  0  0  0  0  0  0  0
  139.0090   76.6140  220.1150 C   0  0  0  0  0  0  0  0  0  0  0  0
  138.8490   76.8620  221.5550 N   0  0  0  0  0  0  0  0  0  0  0  0
  139.2420   78.0600  222.2570 C   0  0  0  0  0  0  0  0  0  0  0  0
  138.3500   78.8090  222.7310 O   0  0  0  0  0  0  0  0  0  0  0  0
  140.6990   78.3450  222.3820 C   0  0  0  0  0  0  0  0  0  0  0  0
  141.4510   77.3240  221.6780 N   0  0  0  0  0  0  0  0  0  0  0  0
  141.9020   77.4660  220.3410 C   0  0  0  0  0  0  0  0  0  0  0  0
  141.6640   78.5240  219.6730 O   0  0  0  0  0  0  0  0  0  0  0  0
  142.6570   76.3740  219.7080 C   0  0  0  0  0  0  0  0  0  0  0  0
  142.9780   76.3700  218.3710 C   0  0  0  0  0  0  0  0  0  0  0  0
  143.6940   75.3360  217.7810 C   0  0  0  0  0  0  0  0  0  0  0  0
  144.0770   74.2990  218.5970 C   0  0  0  0  0  0  0  0  0  0  0  0
  144.7930   73.2310  218.0810 C   0  0  0  0  0  0  0  0  0  0  0  0
  145.1990   72.1640  218.8700 C   0  0  0  0  0  0  0  0  0  0  0  0
  145.8960   71.1150  218.3850 F   0  0  0  0  0  0  0  0  0  0  0  0
  144.8580   72.2010  220.2140 C   0  0  0  0  0  0  0  0  0  0  0  0
  144.1480   73.2360  220.7750 C   0  0  0  0  0  0  0  0  0  0  0  0
  143.7610   74.2890  219.9440 C   0  0  0  0  0  0  0  0  0  0  0  0
  143.0650   75.3260  220.4420 N   0  0  0  0  0  0  0  0  0  0  0  0
  138.8340   70.3990  223.7630 C   0  0  0  0  0  0  0  0  0  0  0  0
  137.4560   69.8050  222.8770 Cl  0  0  0  0  0  0  0  0  0  0  0  0
  139.1720   69.8790  225.0130 C   0  0  0  0  0  0  0  0  0  0  0  0
  140.7321   70.0765  228.9994 H   0  0  0  0  0  0  0  0  0  0  0  0
  142.0655   70.8217  228.0541 H   0  0  0  0  0  0  0  0  0  0  0  0
  140.4346   71.5747  228.0541 H   0  0  0  0  0  0  0  0  0  0  0  0
  141.8892   71.7422  225.7050 H   0  0  0  0  0  0  0  0  0  0  0  0
  141.3184   72.6870  223.4934 H   0  0  0  0  0  0  0  0  0  0  0  0
  138.7415   71.2267  221.4141 H   0  0  0  0  0  0  0  0  0  0  0  0
  141.4289   72.4425  221.7017 H   0  0  0  0  0  0  0  0  0  0  0  0
  140.7542   71.3886  220.4131 H   0  0  0  0  0  0  0  0  0  0  0  0
  140.3958   73.1487  220.4131 H   0  0  0  0  0  0  0  0  0  0  0  0
  137.4990   73.1680  221.8060 H   0  0  0  0  0  0  0  0  0  0  0  0
  137.8987   75.7850  223.1867 H   0  0  0  0  0  0  0  0  0  0  0  0
  136.6080   74.5231  221.1981 H   0  0  0  0  0  0  0  0  0  0  0  0
  136.2818   76.2179  221.1448 H   0  0  0  0  0  0  0  0  0  0  0  0
  138.4059   74.5938  219.5932 H   0  0  0  0  0  0  0  0  0  0  0  0
  136.4900   76.5250  218.9410 H   0  0  0  0  0  0  0  0  0  0  0  0
  140.0149   76.2307  219.8887 H   0  0  0  0  0  0  0  0  0  0  0  0
  138.8976   77.5211  219.5028 H   0  0  0  0  0  0  0  0  0  0  0  0
  140.9192   79.3301  221.9449 H   0  0  0  0  0  0  0  0  0  0  0  0
  140.9840   78.3447  223.4445 H   0  0  0  0  0  0  0  0  0  0  0  0
  141.6970   76.4080  222.1490 H   0  0  0  0  0  0  0  0  0  0  0  0
  142.6562   77.2161  217.7460 H   0  0  0  0  0  0  0  0  0  0  0  0
  143.9429   75.3470  216.7096 H   0  0  0  0  0  0  0  0  0  0  0  0
  145.0480   73.2287  217.0110 H   0  0  0  0  0  0  0  0  0  0  0  0
  145.1692   71.3660  220.8590 H   0  0  0  0  0  0  0  0  0  0  0  0
  143.8928   73.2345  221.8450 H   0  0  0  0  0  0  0  0  0  0  0  0
  138.5517   69.0774  225.4405 H   0  0  0  0  0  0  0  0  0  0  0  0
  1  2  1  0
  2  3  1  0
  3  4  2  0
  4  5  1  0
  5  6  2  0
  6  7  1  0
  7  8  1  0
  7  9  1  0
  9 10  1  0
 10 11  2  0
 10 12  1  0
 12 13  1  0
 13 14  1  0
 14 15  1  0
 14 16  1  0
 16 17  1  0
 17 18  1  0
 18 19  2  0
 18 20  1  0
 20 21  1  0
 21 22  1  0
 22 23  2  0
 22 24  1  0
 24 25  2  0
 25 26  1  0
 26 27  2  0
 27 28  1  0
 28 29  2  0
 29 30  1  0
 29 31  1  0
 31 32  2  0
 32 33  1  0
 33 34  2  0
  6 35  1  0
 35 36  1  0
 35 37  2  0
 37  3  1  0
 17 12  1  0
 34 24  1  0
 33 27  1  0
  1 38  1  0
  1 39  1  0
  1 40  1  0
  4 41  1  0
  5 42  1  0
  7 43  1  6
  8 44  1  0
  8 45  1  0
  8 46  1  0
  9 47  1  0
 12 48  1  1
 13 49  1  0
 13 50  1  0
 14 51  1  6
 15 52  1  0
 16 53  1  0
 16 54  1  0
 20 55  1  0
 20 56  1  0
 21 57  1  0
 25 58  1  0
 26 59  1  0
 28 60  1  0
 31 61  1  0
 32 62  1  0
 37 63  1  0
M  END
>  <smiles>  (50) 
COc1ccc([C@H](C)NC(=O)[C@@H]2C[C@@H](O)CN2C(=O)CNC(=O)c2ccc3cc(F)ccc3n2)c(Cl)c1

>  <score_type>  (50) 
oracle

>  <origin>  (50) 
autodockgpu

>  <m_score__min__energy>  (50) 
-8.7400000000000002

>  <m_primary>  (50) 
energy

>  <rmsd>  (50) 
9.27544720622335

>  <m_score__min__rmsd>  (50) 
9.27544720622335

>  <meeko>  (50) 
{"free_energy": -6.43, "intermolecular_energy": -9.11, "internal_energy": -3.44, "cluster_size": 1, "cluster_id": 13, "rank_in_cluster": 1}

>  <energy>  (50) 
-5.8

>  <cluster_rmsd>  (50) 
1.51

>  <cluster>  (50) 
14

$$$$
