
 66 70  0  0  0  0  0  0  0  0999 V2000
  142.1930   81.0020  223.4100 C   0  0  0  0  0  0  0  0  0  0  0  0
  142.7180   79.8830  222.7920 C   0  0  0  0  0  0  0  0  0  0  0  0
  141.9380   78.7560  222.5690 C   0  0  0  0  0  0  0  0  0  0  0  0
  140.5970   78.7260  222.9660 C   0  0  0  0  0  0  0  0  0  0  0  0
  139.8030   77.5100  222.7120 C   0  0  0  0  0  0  0  0  0  0  0  0
  138.6060   77.7480  221.8090 C   0  0  0  0  0  0  0  0  0  0  0  0
  137.6210   76.6420  222.0520 C   0  0  0  0  0  0  0  0  0  0  0  0
  137.8760   75.4400  221.3290 N   0  0  0  0  0  0  0  0  0  0  0  0
  139.0410   74.6790  221.5820 C   0  0  0  0  0  0  0  0  0  0  0  0
  140.2470   75.0500  221.1130 N   0  0  0  0  0  0  0  0  0  0  0  0
  141.3750   74.3520  221.3330 C   0  0  0  0  0  0  0  0  0  0  0  0
  142.6320   74.7830  220.8170 N   0  0  0  0  0  0  0  0  0  0  0  0
  143.5260   73.8400  220.2130 C   0  0  0  0  0  0  0  0  0  0  0  0
  144.8340   73.7670  220.9890 C   0  0  0  0  0  0  0  0  0  0  0  0
  145.9800   73.2990  220.1310 C   0  0  0  0  0  0  0  0  0  0  0  0
  145.5720   72.5180  218.9890 N   0  0  0  0  0  0  0  0  0  0  0  0
  144.7060   73.2530  218.1050 C   0  0  0  0  0  0  0  0  0  0  0  0
  143.8780   74.2860  218.8080 C   0  0  0  0  0  0  0  0  0  0  0  0
  141.2670   73.2290  222.0640 N   0  0  0  0  0  0  0  0  0  0  0  0
  140.0750   72.7950  222.5690 C   0  0  0  0  0  0  0  0  0  0  0  0
  140.0030   71.6000  223.3370 N   0  0  0  0  0  0  0  0  0  0  0  0
  138.7750   70.8310  223.2900 C   0  0  0  0  0  0  0  0  0  0  0  0
  138.8380   69.5930  224.1270 C   0  0  0  0  0  0  0  0  0  0  0  0
  139.4130   69.9810  225.4610 C   0  0  0  0  0  0  0  0  0  0  0  0
  138.8210   69.5680  226.6380 C   0  0  0  0  0  0  0  0  0  0  0  0
  139.3890   69.9520  227.8470 C   0  0  0  0  0  0  0  0  0  0  0  0
  140.5430   70.7440  227.8450 C   0  0  0  0  0  0  0  0  0  0  0  0
  141.1340   71.1560  226.6630 C   0  0  0  0  0  0  0  0  0  0  0  0
  140.5530   70.7630  225.4920 C   0  0  0  0  0  0  0  0  0  0  0  0
  141.1040   71.1490  224.1440 C   0  0  0  0  0  0  0  0  0  0  0  0
  139.0110   73.5370  222.3080 N   0  0  0  0  0  0  0  0  0  0  0  0
  140.1040   79.8580  223.5800 C   0  0  0  0  0  0  0  0  0  0  0  0
  140.8710   80.9830  223.8060 C   0  0  0  0  0  0  0  0  0  0  0  0
  142.8170   81.8912  223.5831 H   0  0  0  0  0  0  0  0  0  0  0  0
  143.7703   79.8851  222.4717 H   0  0  0  0  0  0  0  0  0  0  0  0
  142.3792   77.8777  222.0750 H   0  0  0  0  0  0  0  0  0  0  0  0
  140.4543   76.7614  222.2373 H   0  0  0  0  0  0  0  0  0  0  0  0
  139.4142   77.1680  223.6825 H   0  0  0  0  0  0  0  0  0  0  0  0
  138.1453   78.7183  222.0463 H   0  0  0  0  0  0  0  0  0  0  0  0
  138.9171   77.7606  220.7540 H   0  0  0  0  0  0  0  0  0  0  0  0
  137.6332   76.4037  223.1258 H   0  0  0  0  0  0  0  0  0  0  0  0
  136.6477   77.0133  221.6987 H   0  0  0  0  0  0  0  0  0  0  0  0
  137.2140   75.0850  220.5930 H   0  0  0  0  0  0  0  0  0  0  0  0
  142.8770   75.7880  220.8890 H   0  0  0  0  0  0  0  0  0  0  0  0
  143.0210   72.8628  220.2086 H   0  0  0  0  0  0  0  0  0  0  0  0
  145.0700   74.7677  221.3801 H   0  0  0  0  0  0  0  0  0  0  0  0
  144.7030   73.0392  221.8033 H   0  0  0  0  0  0  0  0  0  0  0  0
  146.5258   74.1829  219.7694 H   0  0  0  0  0  0  0  0  0  0  0  0
  146.6041   72.6461  220.7588 H   0  0  0  0  0  0  0  0  0  0  0  0
  145.2860   71.5530  219.1910 H   0  0  0  0  0  0  0  0  0  0  0  0
  145.3258   73.7577  217.3493 H   0  0  0  0  0  0  0  0  0  0  0  0
  144.0103   72.5294  217.6552 H   0  0  0  0  0  0  0  0  0  0  0  0
  144.4463   75.2263  218.8614 H   0  0  0  0  0  0  0  0  0  0  0  0
  142.9451   74.4294  218.2431 H   0  0  0  0  0  0  0  0  0  0  0  0
  137.9507   71.4613  223.6550 H   0  0  0  0  0  0  0  0  0  0  0  0
  138.6171   70.5197  222.2468 H   0  0  0  0  0  0  0  0  0  0  0  0
  137.8284   69.1769  224.2594 H   0  0  0  0  0  0  0  0  0  0  0  0
  139.4625   68.8280  223.6425 H   0  0  0  0  0  0  0  0  0  0  0  0
  137.9145   68.9452  226.6192 H   0  0  0  0  0  0  0  0  0  0  0  0
  138.9352   69.6360  228.7979 H   0  0  0  0  0  0  0  0  0  0  0  0
  140.9901   71.0457  228.8037 H   0  0  0  0  0  0  0  0  0  0  0  0
  142.0407   71.7787  226.6672 H   0  0  0  0  0  0  0  0  0  0  0  0
  141.8414   71.9572  224.2577 H   0  0  0  0  0  0  0  0  0  0  0  0
  141.6036   70.2908  223.6708 H   0  0  0  0  0  0  0  0  0  0  0  0
  139.0528   79.8647  223.9041 H   0  0  0  0  0  0  0  0  0  0  0  0
  140.4302   81.8614  224.3000 H   0  0  0  0  0  0  0  0  0  0  0  0
  1  2  2  0
  2  3  1  0
  3  4  2  0
  4  5  1  0
  5  6  1  0
  6  7  1  0
  7  8  1  0
  8  9  1  0
  9 10  2  0
 10 11  1  0
 11 12  1  0
 12 13  1  0
 13 14  1  0
 14 15  1  0
 15 16  1  0
 16 17  1  0
 17 18  1  0
 11 19  2  0
 19 20  1  0
 20 21  1  0
 21 22  1  0
 22 23  1  0
 23 24  1  0
 24 25  2  0
 25 26  1  0
 26 27  2  0
 27 28  1  0
 28 29  2  0
 29 30  1  0
 20 31  2  0
  4 32  1  0
 32 33  2  0
 33  1  1  0
 31  9  1  0
 18 13  1  0
 30 21  1  0
 29 24  1  0
  1 34  1  0
  2 35  1  0
  3 36  1  0
  5 37  1  0
  5 38  1  0
  6 39  1  0
  6 40  1  0
  7 41  1  0
  7 42  1  0
  8 43  1  0
 12 44  1  0
 13 45  1  0
 14 46  1  0
 14 47  1  0
 15 48  1  0
 15 49  1  0
 16 50  1  0
 17 51  1  0
 17 52  1  0
 18 53  1  0
 18 54  1  0
 22 55  1  0
 22 56  1  0
 23 57  1  0
 23 58  1  0
 25 59  1  0
 26 60  1  0
 27 61  1  0
 28 62  1  0
 30 63  1  0
 30 64  1  0
 32 65  1  0
 33 66  1  0
M  END
