
     RDKit          3D

 61 64  0  0  1  0  0  0  0  0999 V2000
  142.5520   79.7640  223.6740 C   0  0  0  0  0  0  0  0  0  0  0  0
  142.2300   79.9640  222.2130 C   0  0  1  0  0  0  0  0  0  0  0  0
  141.7750   78.7050  221.6650 N   0  0  0  0  0  0  0  0  0  0  0  0
  141.3940   78.5520  220.3020 C   0  0  0  0  0  0  0  0  0  0  0  0
  141.4630   79.5730  219.5570 O   0  0  0  0  0  0  0  0  0  0  0  0
  140.9340   77.2800  219.7420 C   0  0  1  0  0  0  0  0  0  0  0  0
  141.1750   77.1360  218.2600 C   0  0  0  0  0  0  0  0  0  0  0  0
  142.5750   76.8490  217.8860 C   0  0  0  0  0  0  0  0  0  0  0  0
  143.4240   76.2050  218.9240 C   0  0  0  0  0  0  0  0  0  0  0  0
  142.7340   75.5650  220.0620 C   0  0  0  0  0  0  0  0  0  0  0  0
  141.4180   76.0910  220.3660 N   0  0  0  0  0  0  0  0  0  0  0  0
  140.6460   75.3510  221.3200 C   0  0  0  0  0  0  0  0  0  0  0  0
  140.6150   75.8250  222.5030 O   0  0  0  0  0  0  0  0  0  0  0  0
  139.9310   74.1120  220.9410 C   0  0  0  0  0  0  0  0  0  0  0  0
  139.8430   73.2960  222.1450 N   0  0  0  0  0  0  0  0  0  0  0  0
  140.0490   71.8890  222.1250 C   0  0  0  0  0  0  0  0  0  0  0  0
  140.3220   71.2750  221.0380 O   0  0  0  0  0  0  0  0  0  0  0  0
  139.9450   71.1340  223.3750 C   0  0  0  0  0  0  0  0  0  0  0  0
  139.3550   69.8870  223.3850 C   0  0  0  0  0  0  0  0  0  0  0  0
  139.2360   69.1380  224.5470 C   0  0  0  0  0  0  0  0  0  0  0  0
  139.7260   69.6720  225.7110 C   0  0  0  0  0  0  0  0  0  0  0  0
  139.6220   68.9560  226.8750 C   0  0  0  0  0  0  0  0  0  0  0  0
  140.1190   69.4950  228.0590 C   0  0  0  0  0  0  0  0  0  0  0  0
  139.9850   68.7410  229.1650 F   0  0  0  0  0  0  0  0  0  0  0  0
  140.6990   70.7320  228.0280 C   0  0  0  0  0  0  0  0  0  0  0  0
  140.8240   71.4920  226.8680 C   0  0  0  0  0  0  0  0  0  0  0  0
  140.3200   70.9240  225.7120 C   0  0  0  0  0  0  0  0  0  0  0  0
  140.4060   71.6060  224.5490 N   0  0  0  0  0  0  0  0  0  0  0  0
  141.2380   81.0510  222.0100 C   0  0  0  0  0  0  0  0  0  0  0  0
  139.9360   80.9740  222.4810 C   0  0  0  0  0  0  0  0  0  0  0  0
  139.0130   81.9820  222.2930 C   0  0  0  0  0  0  0  0  0  0  0  0
  139.3740   83.1210  221.6140 C   0  0  0  0  0  0  0  0  0  0  0  0
  140.6780   83.2350  221.1230 C   0  0  0  0  0  0  0  0  0  0  0  0
  141.6020   82.2080  221.3210 C   0  0  0  0  0  0  0  0  0  0  0  0
  141.7775   80.2451  224.2894 H   0  0  0  0  0  0  0  0  0  0  0  0
  142.5827   78.6876  223.8987 H   0  0  0  0  0  0  0  0  0  0  0  0
  143.5305   80.2136  223.8987 H   0  0  0  0  0  0  0  0  0  0  0  0
  143.1371   80.2838  221.6793 H   0  0  0  0  0  0  0  0  0  0  0  0
  141.7390   77.8950  222.3240 H   0  0  0  0  0  0  0  0  0  0  0  0
  139.8582   77.3589  219.9575 H   0  0  0  0  0  0  0  0  0  0  0  0
  140.5460   76.3133  217.8892 H   0  0  0  0  0  0  0  0  0  0  0  0
  140.9268   78.1084  217.8096 H   0  0  0  0  0  0  0  0  0  0  0  0
  142.5566   76.1837  217.0102 H   0  0  0  0  0  0  0  0  0  0  0  0
  143.0340   77.8323  217.7056 H   0  0  0  0  0  0  0  0  0  0  0  0
  144.0260   75.4312  218.4251 H   0  0  0  0  0  0  0  0  0  0  0  0
  143.9990   77.0298  219.3701 H   0  0  0  0  0  0  0  0  0  0  0  0
  142.6274   74.4939  219.8355 H   0  0  0  0  0  0  0  0  0  0  0  0
  143.3544   75.7698  220.9470 H   0  0  0  0  0  0  0  0  0  0  0  0
  138.9233   74.3534  220.5718 H   0  0  0  0  0  0  0  0  0  0  0  0
  140.4612   73.5783  220.1385 H   0  0  0  0  0  0  0  0  0  0  0  0
  139.6210   73.7350  223.0870 H   0  0  0  0  0  0  0  0  0  0  0  0
  138.9668   69.4736  222.4424 H   0  0  0  0  0  0  0  0  0  0  0  0
  138.7625   68.1452  224.5347 H   0  0  0  0  0  0  0  0  0  0  0  0
  139.1493   67.9627  226.8740 H   0  0  0  0  0  0  0  0  0  0  0  0
  141.0875   71.1492  228.9688 H   0  0  0  0  0  0  0  0  0  0  0  0
  141.2958   72.4857  226.8708 H   0  0  0  0  0  0  0  0  0  0  0  0
  139.6261   80.0711  223.0276 H   0  0  0  0  0  0  0  0  0  0  0  0
  137.9910   81.8743  222.6855 H   0  0  0  0  0  0  0  0  0  0  0  0
  138.6469   83.9318  221.4590 H   0  0  0  0  0  0  0  0  0  0  0  0
  140.9780   84.1412  220.5764 H   0  0  0  0  0  0  0  0  0  0  0  0
  142.6252   82.3117  220.9307 H   0  0  0  0  0  0  0  0  0  0  0  0
  1  2  1  0
  2  3  1  0
  3  4  1  0
  4  5  2  0
  4  6  1  0
  6  7  1  0
  7  8  1  0
  8  9  1  0
  9 10  1  0
 10 11  1  0
 11 12  1  0
 12 13  2  0
 12 14  1  0
 14 15  1  0
 15 16  1  0
 16 17  2  0
 16 18  1  0
 18 19  2  0
 19 20  1  0
 20 21  2  0
 21 22  1  0
 22 23  2  0
 23 24  1  0
 23 25  1  0
 25 26  2  0
 26 27  1  0
 27 28  2  0
  2 29  1  0
 29 30  2  0
 30 31  1  0
 31 32  2  0
 32 33  1  0
 33 34  2  0
 11  6  1  0
 28 18  1  0
 34 29  1  0
 27 21  1  0
  1 35  1  0
  1 36  1  0
  1 37  1  0
  2 38  1  6
  3 39  1  0
  6 40  1  6
  7 41  1  0
  7 42  1  0
  8 43  1  0
  8 44  1  0
  9 45  1  0
  9 46  1  0
 10 47  1  0
 10 48  1  0
 14 49  1  0
 14 50  1  0
 15 51  1  0
 19 52  1  0
 20 53  1  0
 22 54  1  0
 25 55  1  0
 26 56  1  0
 30 57  1  0
 31 58  1  0
 32 59  1  0
 33 60  1  0
 34 61  1  0
M  END
