@<TRIPOS>MOLECULE
*****
 64 68 0 0 0
SMALL
GASTEIGER

@<TRIPOS>ATOM
      1 O         140.5330   71.8090  221.1600 O.2     1  UNL1       -0.2685
      2 C         140.0580   72.2700  222.2370 C.2     1  UNL1        0.2628
      3 N         139.6000   73.6230  222.2870 N.am    1  UNL1       -0.3015
      4 C         139.7160   74.3960  221.0670 C.3     1  UNL1        0.0887
      5 C         140.7850   75.4110  221.2360 C.2     1  UNL1        0.2331
      6 O         141.0250   76.0020  222.3180 O.2     1  UNL1       -0.2739
      7 N         141.6020   75.7510  220.1240 N.am    1  UNL1       -0.2934
      8 C         141.8500   74.9640  218.9200 C.3     1  UNL1        0.0411
      9 C         143.2440   75.3750  218.5260 C.3     1  UNL1        0.0727
     10 O         144.0420   74.2330  218.5600 O.3     1  UNL1       -0.3902
     11 C         143.6930   76.3780  219.5850 C.3     1  UNL1       -0.0055
     12 C         142.3830   77.0230  219.9730 C.3     1  UNL1        0.0412
     13 C         141.7670   77.7610  218.8480 C.3     1  UNL1        0.0176
     14 N         140.9940   78.9230  219.1030 N.3     1  UNL1       -0.3000
     15 C         141.9230   80.0120  219.3820 C.3     1  UNL1       -0.0004
     16 C         141.4360   80.7260  220.5990 C.3     1  UNL1       -0.0322
     17 C         139.9760   80.3400  220.6110 C.3     1  UNL1       -0.0019
     18 C         139.3370   80.5310  221.9120 C.ar    1  UNL1       -0.0430
     19 C         139.6940   79.6720  222.9490 C.ar    1  UNL1       -0.0583
     20 C         139.1230   79.8020  224.2010 C.ar    1  UNL1       -0.0615
     21 C         138.1940   80.8050  224.3860 C.ar    1  UNL1       -0.0617
     22 C         137.8430   81.6520  223.3670 C.ar    1  UNL1       -0.0615
     23 C         138.4180   81.5150  222.1190 C.ar    1  UNL1       -0.0583
     24 C         140.0860   78.8610  220.2040 C.3     1  UNL1        0.0058
     25 C         139.9720   71.4220  223.4390 C.ar    1  UNL1        0.1260
     26 C         139.4370   70.1580  223.3160 C.ar    1  UNL1       -0.0306
     27 C         139.3440   69.3430  224.4240 C.ar    1  UNL1       -0.0503
     28 C         139.7950   69.8240  225.6400 C.ar    1  UNL1        0.0031
     29 C         139.6920   68.9880  226.7390 C.ar    1  UNL1       -0.0173
     30 C         140.1570   69.5110  227.9450 C.ar    1  UNL1        0.1241
     31 F         140.1070   68.7870  229.0840 F       1  UNL1       -0.2055
     32 C         140.6820   70.7850  228.0050 C.ar    1  UNL1       -0.0244
     33 C         140.7660   71.5870  226.8750 C.ar    1  UNL1       -0.0330
     34 C         140.3130   71.0860  225.6900 C.ar    1  UNL1        0.0720
     35 N         140.4080   71.8940  224.6030 N.ar    1  UNL1       -0.2421
     36 H         139.2100   73.9910  223.1770 H       1  UNL1        0.1496
     37 H         139.9706   73.7284  220.2306 H       1  UNL1        0.0558
     38 H         138.7601   74.8963  220.8526 H       1  UNL1        0.0558
     39 H         141.8019   73.8864  219.1355 H       1  UNL1        0.0490
     40 H         141.1070   75.1388  218.1279 H       1  UNL1        0.0490
     41 H         143.3044   75.8208  217.5222 H       1  UNL1        0.0609
     42 H         144.9670   74.5240  218.3340 H       1  UNL1        0.2098
     43 H         144.1605   75.8726  220.4430 H       1  UNL1        0.0309
     44 H         144.4531   77.0900  219.2311 H       1  UNL1        0.0309
     45 H         142.4468   77.7327  220.8110 H       1  UNL1        0.0514
     46 H         142.5866   78.0646  218.1801 H       1  UNL1        0.0445
     47 H         141.0299   77.0481  218.4501 H       1  UNL1        0.0445
     48 H         142.9299   79.6079  219.5630 H       1  UNL1        0.0427
     49 H         141.9749   80.7017  218.5266 H       1  UNL1        0.0427
     50 H         141.9520   80.3743  221.5046 H       1  UNL1        0.0284
     51 H         141.6126   81.8116  220.5826 H       1  UNL1        0.0284
     52 H         139.3378   80.9509  219.9557 H       1  UNL1        0.0362
     53 H         140.4381   78.8820  222.7696 H       1  UNL1        0.0620
     54 H         139.4006   79.1270  225.0240 H       1  UNL1        0.0618
     55 H         137.7245   80.9278  225.3732 H       1  UNL1        0.0618
     56 H         137.1004   82.4439  223.5441 H       1  UNL1        0.0618
     57 H         138.1368   82.1936  221.3002 H       1  UNL1        0.0620
     58 H         140.4925   78.2501  221.0235 H       1  UNL1        0.0432
     59 H         139.1203   78.3959  219.9569 H       1  UNL1        0.0432
     60 H         139.0853   69.8005  222.3370 H       1  UNL1        0.0641
     61 H         138.9200   68.3313  224.3428 H       1  UNL1        0.0625
     62 H         139.2699   67.9749  226.6653 H       1  UNL1        0.0653
     63 H         141.0419   71.1739  228.9690 H       1  UNL1        0.0647
     64 H         141.1874   72.6014  226.9338 H       1  UNL1        0.0640
@<TRIPOS>BOND
     1     1     2    2
     2     2     3   am
     3     3     4    1
     4     4     5    1
     5     5     6    2
     6     5     7   am
     7     7     8    1
     8     8     9    1
     9     9    10    1
    10     9    11    1
    11    11    12    1
    12    12    13    1
    13    13    14    1
    14    14    15    1
    15    15    16    1
    16    16    17    1
    17    17    18    1
    18    18    19   ar
    19    19    20   ar
    20    20    21   ar
    21    21    22   ar
    22    22    23   ar
    23    17    24    1
    24     2    25    1
    25    25    26   ar
    26    26    27   ar
    27    27    28   ar
    28    28    29   ar
    29    29    30   ar
    30    30    31    1
    31    30    32   ar
    32    32    33   ar
    33    33    34   ar
    34    34    35   ar
    35    12     7    1
    36    24    14    1
    37    35    25   ar
    38    23    18   ar
    39    34    28   ar
    40     3    36    1
    41     4    37    1
    42     4    38    1
    43     8    39    1
    44     8    40    1
    45     9    41    1
    46    10    42    1
    47    11    43    1
    48    11    44    1
    49    12    45    1
    50    13    46    1
    51    13    47    1
    52    15    48    1
    53    15    49    1
    54    16    50    1
    55    16    51    1
    56    17    52    1
    57    19    53    1
    58    20    54    1
    59    21    55    1
    60    22    56    1
    61    23    57    1
    62    24    58    1
    63    24    59    1
    64    26    60    1
    65    27    61    1
    66    29    62    1
    67    32    63    1
    68    33    64    1
