
     RDKit          3D

 77 83  0  0  0  0  0  0  0  0999 V2000
  139.5820   69.2380  228.2090 C   0  0  0  0  0  0  0  0  0  0  0  0
  140.7360   69.9900  228.3400 C   0  0  0  0  0  0  0  0  0  0  0  0
  141.1210   70.7230  227.2360 C   0  0  0  0  0  0  0  0  0  0  0  0
  140.4150   70.7250  226.0550 C   0  0  0  0  0  0  0  0  0  0  0  0
  139.2810   69.9820  225.9340 C   0  0  0  0  0  0  0  0  0  0  0  0
  138.8760   69.2410  227.0250 C   0  0  0  0  0  0  0  0  0  0  0  0
  138.5500   70.0110  224.6470 C   0  0  0  0  0  0  0  0  0  0  0  0
  139.6370   69.9430  223.5640 C   0  0  0  0  0  0  0  0  0  0  0  0
  140.3470   71.2020  223.6660 N   0  0  0  0  0  0  0  0  0  0  0  0
  140.4850   72.0750  222.5660 C   0  0  0  0  0  0  0  0  0  0  0  0
  140.8840   71.6670  221.3520 N   0  0  0  0  0  0  0  0  0  0  0  0
  141.0110   72.4860  220.3140 C   0  0  0  0  0  0  0  0  0  0  0  0
  141.4350   72.0560  219.0330 N   0  0  0  0  0  0  0  0  0  0  0  0
  142.7580   72.2290  218.5040 C   0  0  1  0  0  0  0  0  0  0  0  0
  143.8080   72.3340  219.5860 C   0  0  0  0  0  0  0  0  0  0  0  0
  144.8880   71.2830  219.4190 C   0  0  0  0  0  0  0  0  0  0  0  0
  144.2220   69.9480  219.5570 C   0  0  2  0  0  0  0  0  0  0  0  0
  145.0230   68.8400  219.8640 N   0  0  0  0  0  0  0  0  0  0  0  0
  144.5350   67.5300  219.7230 C   0  0  0  0  0  0  0  0  0  0  0  0
  144.9150   67.1230  218.3440 C   0  0  0  0  0  0  0  0  0  0  0  0
  146.2230   67.8610  218.1360 C   0  0  0  0  0  0  0  0  0  0  0  0
  146.3230   68.7860  219.3090 C   0  0  0  0  0  0  0  0  0  0  0  0
  143.3160   69.7840  218.3680 C   0  0  0  0  0  0  0  0  0  0  0  0
  143.1190   71.0860  217.5930 C   0  0  0  0  0  0  0  0  0  0  0  0
  140.7200   73.7900  220.5090 N   0  0  0  0  0  0  0  0  0  0  0  0
  140.3190   74.2550  221.6890 C   0  0  0  0  0  0  0  0  0  0  0  0
  139.9990   75.6240  221.9420 N   0  0  0  0  0  0  0  0  0  0  0  0
  138.6660   76.0170  222.3730 C   0  0  0  0  0  0  0  0  0  0  0  0
  138.4240   77.4690  221.9600 C   0  0  0  0  0  0  0  0  0  0  0  0
  139.4640   78.3130  222.6100 C   0  0  0  0  0  0  0  0  0  0  0  0
  139.1380   79.4640  223.2810 C   0  0  0  0  0  0  0  0  0  0  0  0
  140.1650   80.1850  223.8530 C   0  0  0  0  0  0  0  0  0  0  0  0
  141.4740   79.7560  223.7500 C   0  0  0  0  0  0  0  0  0  0  0  0
  141.8150   78.5840  223.0680 C   0  0  0  0  0  0  0  0  0  0  0  0
  140.7740   77.8590  222.4910 C   0  0  0  0  0  0  0  0  0  0  0  0
  141.0700   76.6010  221.7490 C   0  0  0  0  0  0  0  0  0  0  0  0
  140.2070   73.3850  222.7030 N   0  0  0  0  0  0  0  0  0  0  0  0
  140.9280   71.5520  224.9460 C   0  0  0  0  0  0  0  0  0  0  0  0
  139.2253   68.6333  229.0558 H   0  0  0  0  0  0  0  0  0  0  0  0
  141.3158   70.0029  229.2747 H   0  0  0  0  0  0  0  0  0  0  0  0
  142.0337   71.3333  227.3032 H   0  0  0  0  0  0  0  0  0  0  0  0
  137.9619   68.6341  226.9477 H   0  0  0  0  0  0  0  0  0  0  0  0
  137.8730   69.1476  224.5686 H   0  0  0  0  0  0  0  0  0  0  0  0
  137.9276   70.9126  224.5483 H   0  0  0  0  0  0  0  0  0  0  0  0
  140.3173   69.0992  223.7514 H   0  0  0  0  0  0  0  0  0  0  0  0
  139.2122   69.7882  222.5612 H   0  0  0  0  0  0  0  0  0  0  0  0
  140.7410   71.5640  218.4000 H   0  0  0  0  0  0  0  0  0  0  0  0
  142.7431   73.1756  217.9439 H   0  0  0  0  0  0  0  0  0  0  0  0
  143.3262   72.1983  220.5655 H   0  0  0  0  0  0  0  0  0  0  0  0
  144.2786   73.3256  219.5139 H   0  0  0  0  0  0  0  0  0  0  0  0
  145.6570   71.4041  220.1962 H   0  0  0  0  0  0  0  0  0  0  0  0
  145.3810   71.3775  218.4402 H   0  0  0  0  0  0  0  0  0  0  0  0
  143.6402   69.9603  220.4905 H   0  0  0  0  0  0  0  0  0  0  0  0
  144.9989   66.8629  220.4645 H   0  0  0  0  0  0  0  0  0  0  0  0
  143.4484   67.4746  219.8851 H   0  0  0  0  0  0  0  0  0  0  0  0
  145.0569   66.0344  218.2751 H   0  0  0  0  0  0  0  0  0  0  0  0
  144.1511   67.3609  217.5891 H   0  0  0  0  0  0  0  0  0  0  0  0
  147.0684   67.1574  218.1227 H   0  0  0  0  0  0  0  0  0  0  0  0
  146.2519   68.3981  217.1765 H   0  0  0  0  0  0  0  0  0  0  0  0
  147.0392   68.3946  220.0465 H   0  0  0  0  0  0  0  0  0  0  0  0
  146.6798   69.7831  219.0113 H   0  0  0  0  0  0  0  0  0  0  0  0
  142.3349   69.4315  218.7190 H   0  0  0  0  0  0  0  0  0  0  0  0
  143.7885   69.0604  217.6874 H   0  0  0  0  0  0  0  0  0  0  0  0
  142.3107   70.9455  216.8603 H   0  0  0  0  0  0  0  0  0  0  0  0
  144.0670   71.3333  217.0928 H   0  0  0  0  0  0  0  0  0  0  0  0
  137.9168   75.3673  221.8970 H   0  0  0  0  0  0  0  0  0  0  0  0
  138.5821   75.9197  223.4655 H   0  0  0  0  0  0  0  0  0  0  0  0
  138.4972   77.5630  220.8665 H   0  0  0  0  0  0  0  0  0  0  0  0
  137.4201   77.7923  222.2725 H   0  0  0  0  0  0  0  0  0  0  0  0
  138.0937   79.8003  223.3601 H   0  0  0  0  0  0  0  0  0  0  0  0
  139.9390   81.1133  224.3981 H   0  0  0  0  0  0  0  0  0  0  0  0
  142.2706   80.3532  224.2177 H   0  0  0  0  0  0  0  0  0  0  0  0
  142.8598   78.2487  222.9902 H   0  0  0  0  0  0  0  0  0  0  0  0
  141.1635   76.8275  220.6766 H   0  0  0  0  0  0  0  0  0  0  0  0
  142.0097   76.1766  222.1322 H   0  0  0  0  0  0  0  0  0  0  0  0
  142.0182   71.4194  224.8846 H   0  0  0  0  0  0  0  0  0  0  0  0
  140.6538   72.5959  225.1585 H   0  0  0  0  0  0  0  0  0  0  0  0
  1  2  2  0
  2  3  1  0
  3  4  2  0
  4  5  1  0
  5  6  2  0
  5  7  1  0
  7  8  1  0
  8  9  1  0
  9 10  1  0
 10 11  2  0
 11 12  1  0
 12 13  1  0
 13 14  1  0
 14 15  1  0
 15 16  1  0
 16 17  1  0
 17 18  1  0
 18 19  1  0
 19 20  1  0
 20 21  1  0
 21 22  1  0
 17 23  1  0
 23 24  1  0
 12 25  2  0
 25 26  1  0
 26 27  1  0
 27 28  1  0
 28 29  1  0
 29 30  1  0
 30 31  2  0
 31 32  1  0
 32 33  2  0
 33 34  1  0
 34 35  2  0
 35 36  1  0
 26 37  2  0
  9 38  1  0
  6  1  1  0
 37 10  1  0
 38  4  1  0
 24 14  1  0
 36 27  1  0
 22 18  1  0
 35 30  1  0
  1 39  1  0
  2 40  1  0
  3 41  1  0
  6 42  1  0
  7 43  1  0
  7 44  1  0
  8 45  1  0
  8 46  1  0
 13 47  1  0
 14 48  1  6
 15 49  1  0
 15 50  1  0
 16 51  1  0
 16 52  1  0
 17 53  1  1
 19 54  1  0
 19 55  1  0
 20 56  1  0
 20 57  1  0
 21 58  1  0
 21 59  1  0
 22 60  1  0
 22 61  1  0
 23 62  1  0
 23 63  1  0
 24 64  1  0
 24 65  1  0
 28 66  1  0
 28 67  1  0
 29 68  1  0
 29 69  1  0
 31 70  1  0
 32 71  1  0
 33 72  1  0
 34 73  1  0
 36 74  1  0
 36 75  1  0
 38 76  1  0
 38 77  1  0
M  END
