
     RDKit          3D

 79 85  0  0  1  0  0  0  0  0999 V2000
  135.7160   73.8090  223.3820 N   0  0  0  0  0  0  0  0  0  0  0  0
  135.2060   75.0660  222.8870 C   0  0  2  0  0  0  0  0  0  0  0  0
  135.4460   75.0590  221.3940 C   0  0  0  0  0  0  0  0  0  0  0  0
  136.1730   73.8600  220.9650 N   0  0  0  0  0  0  0  0  0  0  0  0
  137.5250   73.7710  221.4500 C   0  0  0  0  0  0  0  0  0  0  0  0
  137.9900   72.6750  222.0760 N   0  0  0  0  0  0  0  0  0  0  0  0
  139.2740   72.6170  222.5330 C   0  0  0  0  0  0  0  0  0  0  0  0
  139.7880   71.4670  223.1920 N   0  0  0  0  0  0  0  0  0  0  0  0
  139.2080   70.1720  223.0140 C   0  0  0  0  0  0  0  0  0  0  0  0
  138.8080   69.5210  224.2920 C   0  0  0  0  0  0  0  0  0  0  0  0
  139.5250   70.0810  225.4480 C   0  0  0  0  0  0  0  0  0  0  0  0
  139.1930   69.6010  226.7020 C   0  0  0  0  0  0  0  0  0  0  0  0
  139.8040   70.0550  227.8620 C   0  0  0  0  0  0  0  0  0  0  0  0
  140.7760   71.0170  227.7640 C   0  0  0  0  0  0  0  0  0  0  0  0
  141.1380   71.5240  226.5400 C   0  0  0  0  0  0  0  0  0  0  0  0
  140.5020   71.0430  225.3920 C   0  0  0  0  0  0  0  0  0  0  0  0
  140.9310   71.6330  224.0730 C   0  0  0  0  0  0  0  0  0  0  0  0
  140.0810   73.6660  222.3560 N   0  0  0  0  0  0  0  0  0  0  0  0
  139.6460   74.7770  221.7330 C   0  0  0  0  0  0  0  0  0  0  0  0
  140.5530   75.8630  221.5740 N   0  0  0  0  0  0  0  0  0  0  0  0
  140.9850   76.2090  220.2340 C   0  0  0  0  0  0  0  0  0  0  0  0
  140.4170   77.6070  219.9690 C   0  0  0  0  0  0  0  0  0  0  0  0
  141.1390   78.4860  220.9580 C   0  0  0  0  0  0  0  0  0  0  0  0
  141.4930   79.7720  220.5570 C   0  0  0  0  0  0  0  0  0  0  0  0
  142.1610   80.5940  221.4660 C   0  0  0  0  0  0  0  0  0  0  0  0
  142.4570   80.1180  222.7340 C   0  0  0  0  0  0  0  0  0  0  0  0
  142.0970   78.8260  223.1270 C   0  0  0  0  0  0  0  0  0  0  0  0
  141.4350   78.0180  222.2230 C   0  0  0  0  0  0  0  0  0  0  0  0
  141.0620   76.6370  222.6680 C   0  0  0  0  0  0  0  0  0  0  0  0
  138.3800   74.8250  221.2860 N   0  0  0  0  0  0  0  0  0  0  0  0
  135.9450   76.2490  223.4600 C   0  0  0  0  0  0  0  0  0  0  0  0
  136.5870   77.0670  222.4810 N   0  0  0  0  0  0  0  0  0  0  0  0
  135.7670   78.0230  221.8430 C   0  0  0  0  0  0  0  0  0  0  0  0
  136.6120   78.9600  221.0070 C   0  0  0  0  0  0  0  0  0  0  0  0
  137.4800   79.6850  221.9750 C   0  0  0  0  0  0  0  0  0  0  0  0
  137.6190   81.0420  222.0140 C   0  0  0  0  0  0  0  0  0  0  0  0
  138.4610   81.6030  222.9620 C   0  0  0  0  0  0  0  0  0  0  0  0
  139.1560   80.7900  223.8630 C   0  0  0  0  0  0  0  0  0  0  0  0
  139.0210   79.4060  223.8330 C   0  0  0  0  0  0  0  0  0  0  0  0
  138.1770   78.8740  222.8790 C   0  0  0  0  0  0  0  0  0  0  0  0
  137.9410   77.4120  222.7380 C   0  0  0  0  0  0  0  0  0  0  0  0
  135.2970   72.9860  222.9450 H   0  0  0  0  0  0  0  0  0  0  0  0
  136.7490   73.8100  223.4950 H   0  0  0  0  0  0  0  0  0  0  0  0
  134.1465   75.1618  223.1667 H   0  0  0  0  0  0  0  0  0  0  0  0
  134.4755   75.0909  220.8772 H   0  0  0  0  0  0  0  0  0  0  0  0
  136.0573   75.9381  221.1418 H   0  0  0  0  0  0  0  0  0  0  0  0
  135.7450   73.1300  220.3580 H   0  0  0  0  0  0  0  0  0  0  0  0
  138.3145   70.2745  222.3806 H   0  0  0  0  0  0  0  0  0  0  0  0
  139.9754   69.5339  222.5515 H   0  0  0  0  0  0  0  0  0  0  0  0
  137.7278   69.6660  224.4407 H   0  0  0  0  0  0  0  0  0  0  0  0
  139.0621   68.4531  224.2215 H   0  0  0  0  0  0  0  0  0  0  0  0
  138.4138   68.8288  226.7828 H   0  0  0  0  0  0  0  0  0  0  0  0
  139.5138   69.6503  228.8428 H   0  0  0  0  0  0  0  0  0  0  0  0
  141.2707   71.3863  228.6745 H   0  0  0  0  0  0  0  0  0  0  0  0
  141.9168   72.2971  226.4642 H   0  0  0  0  0  0  0  0  0  0  0  0
  141.1771   72.6988  224.1890 H   0  0  0  0  0  0  0  0  0  0  0  0
  141.8312   71.1411  223.6758 H   0  0  0  0  0  0  0  0  0  0  0  0
  142.0834   76.2229  220.1758 H   0  0  0  0  0  0  0  0  0  0  0  0
  140.6339   75.4782  219.4906 H   0  0  0  0  0  0  0  0  0  0  0  0
  140.6264   77.9252  218.9371 H   0  0  0  0  0  0  0  0  0  0  0  0
  139.3238   77.6491  220.0836 H   0  0  0  0  0  0  0  0  0  0  0  0
  141.2514   80.1320  219.5460 H   0  0  0  0  0  0  0  0  0  0  0  0
  142.4513   81.6150  221.1776 H   0  0  0  0  0  0  0  0  0  0  0  0
  142.9857   80.7701  223.4448 H   0  0  0  0  0  0  0  0  0  0  0  0
  142.3361   78.4597  224.1363 H   0  0  0  0  0  0  0  0  0  0  0  0
  141.9530   76.1383  223.0772 H   0  0  0  0  0  0  0  0  0  0  0  0
  140.2775   76.7166  223.4350 H   0  0  0  0  0  0  0  0  0  0  0  0
  135.2252   76.8715  224.0117 H   0  0  0  0  0  0  0  0  0  0  0  0
  136.7392   75.8443  224.1045 H   0  0  0  0  0  0  0  0  0  0  0  0
  135.0450   77.5069  221.1931 H   0  0  0  0  0  0  0  0  0  0  0  0
  135.2330   78.6062  222.6077 H   0  0  0  0  0  0  0  0  0  0  0  0
  137.2250   78.3907  220.2928 H   0  0  0  0  0  0  0  0  0  0  0  0
  135.9921   79.6518  220.4178 H   0  0  0  0  0  0  0  0  0  0  0  0
  137.0719   81.6805  221.3048 H   0  0  0  0  0  0  0  0  0  0  0  0
  138.5832   82.6953  223.0057 H   0  0  0  0  0  0  0  0  0  0  0  0
  139.8204   81.2527  224.6077 H   0  0  0  0  0  0  0  0  0  0  0  0
  139.5643   78.7620  224.5402 H   0  0  0  0  0  0  0  0  0  0  0  0
  138.5564   77.0411  221.9051 H   0  0  0  0  0  0  0  0  0  0  0  0
  138.2092   76.9522  223.7007 H   0  0  0  0  0  0  0  0  0  0  0  0
  1  2  1  0
  2  3  1  0
  3  4  1  0
  4  5  1  0
  5  6  2  0
  6  7  1  0
  7  8  1  0
  8  9  1  0
  9 10  1  0
 10 11  1  0
 11 12  2  0
 12 13  1  0
 13 14  2  0
 14 15  1  0
 15 16  2  0
 16 17  1  0
  7 18  2  0
 18 19  1  0
 19 20  1  0
 20 21  1  0
 21 22  1  0
 22 23  1  0
 23 24  2  0
 24 25  1  0
 25 26  2  0
 26 27  1  0
 27 28  2  0
 28 29  1  0
 19 30  2  0
  2 31  1  0
 31 32  1  0
 32 33  1  0
 33 34  1  0
 34 35  1  0
 35 36  2  0
 36 37  1  0
 37 38  2  0
 38 39  1  0
 39 40  2  0
 40 41  1  0
 30  5  1  0
 41 32  1  0
 17  8  1  0
 29 20  1  0
 40 35  1  0
 16 11  1  0
 28 23  1  0
  1 42  1  0
  1 43  1  0
  2 44  1  6
  3 45  1  0
  3 46  1  0
  4 47  1  0
  9 48  1  0
  9 49  1  0
 10 50  1  0
 10 51  1  0
 12 52  1  0
 13 53  1  0
 14 54  1  0
 15 55  1  0
 17 56  1  0
 17 57  1  0
 21 58  1  0
 21 59  1  0
 22 60  1  0
 22 61  1  0
 24 62  1  0
 25 63  1  0
 26 64  1  0
 27 65  1  0
 29 66  1  0
 29 67  1  0
 31 68  1  0
 31 69  1  0
 33 70  1  0
 33 71  1  0
 34 72  1  0
 34 73  1  0
 36 74  1  0
 37 75  1  0
 38 76  1  0
 39 77  1  0
 41 78  1  0
 41 79  1  0
M  END
