@<TRIPOS>MOLECULE
*****
 67 72 0 0 0
SMALL
GASTEIGER

@<TRIPOS>ATOM
      1 C         140.0500   69.3130  226.6710 C.ar    1  UNL1       -0.0615
      2 C         141.0510   70.2620  226.6960 C.ar    1  UNL1       -0.0614
      3 C         141.1930   71.1930  225.7040 C.ar    1  UNL1       -0.0568
      4 C         140.2910   71.1570  224.6610 C.ar    1  UNL1       -0.0269
      5 C         139.2810   70.2200  224.6110 C.ar    1  UNL1       -0.0412
      6 C         139.1550   69.2890  225.6210 C.ar    1  UNL1       -0.0582
      7 C         138.2910   70.1480  223.5040 C.3     1  UNL1       -0.0115
      8 C         138.9610   70.7020  222.2650 C.3     1  UNL1        0.0192
      9 N         139.3880   72.0430  222.5970 N.pl3   1  UNL1       -0.2948
     10 C         138.8260   73.2140  222.0160 C.ar    1  UNL1        0.2240
     11 N         137.8330   73.1360  221.1140 N.ar    1  UNL1       -0.1809
     12 C         137.2780   74.2230  220.5460 C.ar    1  UNL1        0.2211
     13 N         136.2190   74.0780  219.5870 N.pl3   1  UNL1       -0.3133
     14 C         134.9990   74.8040  219.8720 C.3     1  UNL1        0.0132
     15 C         135.0370   75.2640  221.2970 C.3     1  UNL1       -0.0219
     16 C         134.5910   74.1290  222.1870 C.3     1  UNL1        0.0091
     17 C         133.7140   74.7530  223.2660 C.3     1  UNL1       -0.0363
     18 C         134.7650   75.0060  224.3520 C.3     1  UNL1       -0.0390
     19 C         135.5200   73.6770  224.2700 C.3     1  UNL1       -0.0038
     20 N         135.7540   73.5870  222.8540 N.3     1  UNL1       -0.3132
     21 N         137.7540   75.4300  220.9080 N.ar    1  UNL1       -0.1809
     22 C         138.7580   75.5590  221.8170 C.ar    1  UNL1        0.2240
     23 N         139.2280   76.8550  222.1680 N.pl3   1  UNL1       -0.2948
     24 C         138.2930   77.7730  222.7930 C.3     1  UNL1        0.0192
     25 C         138.6260   79.1440  222.1940 C.3     1  UNL1       -0.0115
     26 C         139.9930   79.4650  222.7240 C.ar    1  UNL1       -0.0412
     27 C         140.2450   80.6690  223.3290 C.ar    1  UNL1       -0.0582
     28 C         141.5290   80.9290  223.8090 C.ar    1  UNL1       -0.0615
     29 C         142.5180   79.9750  223.6680 C.ar    1  UNL1       -0.0614
     30 C         142.2220   78.7610  223.0470 C.ar    1  UNL1       -0.0568
     31 C         140.9510   78.4940  222.5670 C.ar    1  UNL1       -0.0269
     32 C         140.5950   77.2140  221.8990 C.3     1  UNL1        0.0402
     33 N         139.2710   74.4380  222.3500 N.ar    1  UNL1       -0.1807
     34 C         140.4480   72.1790  223.5740 C.3     1  UNL1        0.0402
     35 H         139.9656   68.5781  227.4851 H       1  UNL1        0.0618
     36 H         141.7567   70.2702  227.5397 H       1  UNL1        0.0618
     37 H         141.9970   71.9430  225.7368 H       1  UNL1        0.0621
     38 H         138.3521   68.5378  225.5898 H       1  UNL1        0.0620
     39 H         137.9909   69.1034  223.3346 H       1  UNL1        0.0328
     40 H         137.3882   70.7262  223.7504 H       1  UNL1        0.0328
     41 H         139.8285   70.0830  221.9925 H       1  UNL1        0.0468
     42 H         138.2733   70.7035  221.4065 H       1  UNL1        0.0468
     43 H         136.3610   73.4750  218.7480 H       1  UNL1        0.1489
     44 H         134.9213   75.6743  219.2038 H       1  UNL1        0.0462
     45 H         134.1279   74.1518  219.7113 H       1  UNL1        0.0462
     46 H         136.0624   75.5608  221.5624 H       1  UNL1        0.0295
     47 H         134.3681   76.1272  221.4289 H       1  UNL1        0.0295
     48 H         134.0709   73.3488  221.6119 H       1  UNL1        0.0461
     49 H         133.2486   75.6887  222.9228 H       1  UNL1        0.0281
     50 H         132.8605   74.1356  223.5829 H       1  UNL1        0.0281
     51 H         135.4108   75.8627  224.1092 H       1  UNL1        0.0278
     52 H         134.3667   75.2630  225.3446 H       1  UNL1        0.0278
     53 H         136.4633   73.7118  224.8348 H       1  UNL1        0.0424
     54 H         134.9802   72.8194  224.6978 H       1  UNL1        0.0424
     55 H         136.6100   74.1210  222.6340 H       1  UNL1        0.1222
     56 H         137.2565   77.4894  222.5579 H       1  UNL1        0.0468
     57 H         138.3788   77.7684  223.8896 H       1  UNL1        0.0468
     58 H         138.6367   79.0957  221.0951 H       1  UNL1        0.0328
     59 H         137.8831   79.9092  222.4634 H       1  UNL1        0.0328
     60 H         139.4470   81.4188  223.4344 H       1  UNL1        0.0620
     61 H         141.7527   81.8890  224.2973 H       1  UNL1        0.0618
     62 H         143.5333   80.1712  224.0432 H       1  UNL1        0.0618
     63 H         143.0118   78.0033  222.9369 H       1  UNL1        0.0621
     64 H         140.7308   77.3250  220.8131 H       1  UNL1        0.0514
     65 H         141.2492   76.4208  222.2900 H       1  UNL1        0.0514
     66 H         141.4191   72.0343  223.0779 H       1  UNL1        0.0514
     67 H         140.3969   73.1838  224.0186 H       1  UNL1        0.0514
@<TRIPOS>BOND
     1     1     2   ar
     2     2     3   ar
     3     3     4   ar
     4     4     5   ar
     5     5     6   ar
     6     5     7    1
     7     7     8    1
     8     8     9    1
     9     9    10    1
    10    10    11   ar
    11    11    12   ar
    12    12    13    1
    13    13    14    1
    14    14    15    1
    15    15    16    1
    16    16    17    1
    17    17    18    1
    18    18    19    1
    19    19    20    1
    20    12    21   ar
    21    21    22   ar
    22    22    23    1
    23    23    24    1
    24    24    25    1
    25    25    26    1
    26    26    27   ar
    27    27    28   ar
    28    28    29   ar
    29    29    30   ar
    30    30    31   ar
    31    31    32    1
    32    22    33   ar
    33     9    34    1
    34     6     1   ar
    35    33    10   ar
    36    34     4    1
    37    20    16    1
    38    32    23    1
    39    31    26   ar
    40     1    35    1
    41     2    36    1
    42     3    37    1
    43     6    38    1
    44     7    39    1
    45     7    40    1
    46     8    41    1
    47     8    42    1
    48    13    43    1
    49    14    44    1
    50    14    45    1
    51    15    46    1
    52    15    47    1
    53    16    48    1
    54    17    49    1
    55    17    50    1
    56    18    51    1
    57    18    52    1
    58    19    53    1
    59    19    54    1
    60    20    55    1
    61    24    56    1
    62    24    57    1
    63    25    58    1
    64    25    59    1
    65    27    60    1
    66    28    61    1
    67    29    62    1
    68    30    63    1
    69    32    64    1
    70    32    65    1
    71    34    66    1
    72    34    67    1
