
     RDKit          3D

 67 72  0  0  0  0  0  0  0  0999 V2000
  140.9480   81.9380  221.4770 C   0  0  0  0  0  0  0  0  0  0  0  0
  141.2840   81.4960  222.7390 C   0  0  0  0  0  0  0  0  0  0  0  0
  141.4380   80.1450  222.9580 C   0  0  0  0  0  0  0  0  0  0  0  0
  141.2570   79.2400  221.9230 C   0  0  0  0  0  0  0  0  0  0  0  0
  140.9220   79.7130  220.6770 C   0  0  0  0  0  0  0  0  0  0  0  0
  140.7590   81.0650  220.4180 C   0  0  0  0  0  0  0  0  0  0  0  0
  140.7390   78.7020  219.5980 C   0  0  0  0  0  0  0  0  0  0  0  0
  141.8180   77.6230  219.7330 C   0  0  0  0  0  0  0  0  0  0  0  0
  141.6440   76.9980  221.0500 N   0  0  0  0  0  0  0  0  0  0  0  0
  141.6770   75.5940  221.1970 C   0  0  0  0  0  0  0  0  0  0  0  0
  140.7030   74.9200  221.8170 N   0  0  0  0  0  0  0  0  0  0  0  0
  140.7110   73.5700  221.9720 C   0  0  0  0  0  0  0  0  0  0  0  0
  139.6530   72.9060  222.6400 N   0  0  0  0  0  0  0  0  0  0  0  0
  138.6800   72.0650  221.9920 C   0  0  0  0  0  0  0  0  0  0  0  0
  138.3350   70.8930  222.8820 C   0  0  0  0  0  0  0  0  0  0  0  0
  139.5970   70.1590  223.2300 C   0  0  0  0  0  0  0  0  0  0  0  0
  139.5850   69.7320  224.6020 N   0  0  0  0  0  0  0  0  0  0  0  0
  139.0930   68.6000  225.1520 C   0  0  0  0  0  0  0  0  0  0  0  0
  139.2950   68.6040  226.5100 C   0  0  0  0  0  0  0  0  0  0  0  0
  139.9350   69.7830  226.8180 C   0  0  0  0  0  0  0  0  0  0  0  0
  140.3620   70.2790  228.0300 C   0  0  0  0  0  0  0  0  0  0  0  0
  140.9890   71.5070  228.0760 C   0  0  0  0  0  0  0  0  0  0  0  0
  141.1690   72.2040  226.9000 C   0  0  0  0  0  0  0  0  0  0  0  0
  140.7370   71.6960  225.7000 C   0  0  0  0  0  0  0  0  0  0  0  0
  140.1070   70.4680  225.6240 C   0  0  0  0  0  0  0  0  0  0  0  0
  141.7670   72.9250  221.4630 N   0  0  0  0  0  0  0  0  0  0  0  0
  142.7630   73.5740  220.8350 C   0  0  0  0  0  0  0  0  0  0  0  0
  143.8490   72.8120  220.3230 N   0  0  0  0  0  0  0  0  0  0  0  0
  145.0720   72.6800  221.0780 C   0  0  0  0  0  0  0  0  0  0  0  0
  146.2700   73.1610  220.2920 C   0  0  0  0  0  0  0  0  0  0  0  0
  145.8270   73.3790  218.9340 N   0  0  0  0  0  0  0  0  0  0  0  0
  145.1450   72.2440  218.3740 C   0  0  0  0  0  0  0  0  0  0  0  0
  143.7810   72.1450  219.0380 C   0  0  0  0  0  0  0  0  0  0  0  0
  142.7400   74.9100  220.6880 N   0  0  0  0  0  0  0  0  0  0  0  0
  141.4350   77.8150  222.2190 C   0  0  0  0  0  0  0  0  0  0  0  0
  140.8262   83.0177  221.3056 H   0  0  0  0  0  0  0  0  0  0  0  0
  141.4273   82.2133  223.5606 H   0  0  0  0  0  0  0  0  0  0  0  0
  141.7064   79.7813  223.9608 H   0  0  0  0  0  0  0  0  0  0  0  0
  140.4912   81.4289  219.4151 H   0  0  0  0  0  0  0  0  0  0  0  0
  139.7442   78.2415  219.6897 H   0  0  0  0  0  0  0  0  0  0  0  0
  140.8236   79.1895  218.6156 H   0  0  0  0  0  0  0  0  0  0  0  0
  141.6995   76.8701  218.9398 H   0  0  0  0  0  0  0  0  0  0  0  0
  142.8225   78.0611  219.6381 H   0  0  0  0  0  0  0  0  0  0  0  0
  139.5680   73.0330  223.6790 H   0  0  0  0  0  0  0  0  0  0  0  0
  137.7702   72.6494  221.7902 H   0  0  0  0  0  0  0  0  0  0  0  0
  139.0995   71.6895  221.0470 H   0  0  0  0  0  0  0  0  0  0  0  0
  137.8538   71.2569  223.8018 H   0  0  0  0  0  0  0  0  0  0  0  0
  137.6434   70.2174  222.3573 H   0  0  0  0  0  0  0  0  0  0  0  0
  139.6904   69.2766  222.5798 H   0  0  0  0  0  0  0  0  0  0  0  0
  140.4489   70.8392  223.0830 H   0  0  0  0  0  0  0  0  0  0  0  0
  138.6011   67.7911  224.5919 H   0  0  0  0  0  0  0  0  0  0  0  0
  139.0011   67.8147  227.2176 H   0  0  0  0  0  0  0  0  0  0  0  0
  140.2045   69.7013  228.9527 H   0  0  0  0  0  0  0  0  0  0  0  0
  141.3387   71.9222  229.0327 H   0  0  0  0  0  0  0  0  0  0  0  0
  141.6675   73.1843  226.9237 H   0  0  0  0  0  0  0  0  0  0  0  0
  140.8954   72.2781  224.7802 H   0  0  0  0  0  0  0  0  0  0  0  0
  144.9880   73.2751  221.9993 H   0  0  0  0  0  0  0  0  0  0  0  0
  145.2189   71.6145  221.3084 H   0  0  0  0  0  0  0  0  0  0  0  0
  146.6501   74.1002  220.7204 H   0  0  0  0  0  0  0  0  0  0  0  0
  147.0829   72.4207  220.3248 H   0  0  0  0  0  0  0  0  0  0  0  0
  146.5080   73.8410  218.3250 H   0  0  0  0  0  0  0  0  0  0  0  0
  145.0238   72.3786  217.2890 H   0  0  0  0  0  0  0  0  0  0  0  0
  145.7237   71.3248  218.5477 H   0  0  0  0  0  0  0  0  0  0  0  0
  143.0238   72.6321  218.4060 H   0  0  0  0  0  0  0  0  0  0  0  0
  143.5022   71.0896  219.1739 H   0  0  0  0  0  0  0  0  0  0  0  0
  140.5347   77.4538  222.7377 H   0  0  0  0  0  0  0  0  0  0  0  0
  142.3413   77.7276  222.8362 H   0  0  0  0  0  0  0  0  0  0  0  0
  1  2  2  0
  2  3  1  0
  3  4  2  0
  4  5  1  0
  5  6  2  0
  5  7  1  0
  7  8  1  0
  8  9  1  0
  9 10  1  0
 10 11  2  0
 11 12  1  0
 12 13  1  0
 13 14  1  0
 14 15  1  0
 15 16  1  0
 16 17  1  0
 17 18  1  0
 18 19  2  0
 19 20  1  0
 20 21  2  0
 21 22  1  0
 22 23  2  0
 23 24  1  0
 24 25  2  0
 12 26  2  0
 26 27  1  0
 27 28  1  0
 28 29  1  0
 29 30  1  0
 30 31  1  0
 31 32  1  0
 32 33  1  0
 27 34  2  0
  9 35  1  0
  6  1  1  0
 34 10  1  0
 35  4  1  0
 25 17  1  0
 33 28  1  0
 25 20  1  0
  1 36  1  0
  2 37  1  0
  3 38  1  0
  6 39  1  0
  7 40  1  0
  7 41  1  0
  8 42  1  0
  8 43  1  0
 13 44  1  0
 14 45  1  0
 14 46  1  0
 15 47  1  0
 15 48  1  0
 16 49  1  0
 16 50  1  0
 18 51  1  0
 19 52  1  0
 21 53  1  0
 22 54  1  0
 23 55  1  0
 24 56  1  0
 29 57  1  0
 29 58  1  0
 30 59  1  0
 30 60  1  0
 31 61  1  0
 32 62  1  0
 32 63  1  0
 33 64  1  0
 33 65  1  0
 35 66  1  0
 35 67  1  0
M  END
