@<TRIPOS>MOLECULE
*****
 74 79 0 0 0
SMALL
GASTEIGER

@<TRIPOS>ATOM
      1 C         131.9270   73.2680  225.6480 C.3     1  UNL1        0.0707
      2 S         133.4860   73.6630  226.3960 S.O2    1  UNL1        0.0290
      3 O         133.3150   74.9100  227.2130 O.2     1  UNL1       -0.1583
      4 O         133.8630   72.5140  227.2980 O.2     1  UNL1       -0.1583
      5 N         134.6700   73.8750  225.1570 N.3     1  UNL1       -0.1813
      6 C         134.3090   75.0230  224.3650 C.3     1  UNL1        0.0218
      7 C         135.3590   75.3680  223.3410 C.3     1  UNL1       -0.0200
      8 C         136.0730   74.1160  222.9270 C.3     1  UNL1        0.0257
      9 N         136.7220   74.1900  221.6570 N.pl3   1  UNL1       -0.3104
     10 C         138.0680   74.6700  221.5880 C.ar    1  UNL1        0.2213
     11 N         139.0940   73.8260  221.3530 N.ar    1  UNL1       -0.1809
     12 C         140.3750   74.2580  221.2830 C.ar    1  UNL1        0.2238
     13 N         141.4260   73.3290  221.0330 N.pl3   1  UNL1       -0.2965
     14 C         142.6810   73.8300  220.5220 C.3     1  UNL1        0.0307
     15 C         143.7780   72.8440  220.8380 C.3     1  UNL1        0.0294
     16 N         143.3830   71.5530  220.3090 N.pl3   1  UNL1       -0.3122
     17 C         144.3190   70.7400  219.5810 C.ar    1  UNL1        0.1213
     18 C         145.0510   71.2100  218.5280 C.ar    1  UNL1       -0.0217
     19 C         145.9540   70.4490  217.8140 C.ar    1  UNL1       -0.0571
     20 C         146.1040   69.1270  218.2180 C.ar    1  UNL1       -0.0435
     21 C         145.3480   68.6880  219.2870 C.ar    1  UNL1        0.0297
     22 N         144.4820   69.4630  219.9490 N.ar    1  UNL1       -0.2403
     23 C         142.0430   71.0170  220.4800 C.3     1  UNL1        0.0294
     24 C         141.1860   71.9240  221.3020 C.3     1  UNL1        0.0307
     25 N         140.6270   75.5750  221.4560 N.ar    1  UNL1       -0.1807
     26 C         139.6260   76.4680  221.6950 C.ar    1  UNL1        0.2240
     27 N         139.9030   77.8520  221.8750 N.pl3   1  UNL1       -0.2948
     28 C         138.8480   78.6590  222.4570 C.3     1  UNL1        0.0192
     29 C         139.2530   80.0730  222.7180 C.3     1  UNL1       -0.0115
     30 C         140.7040   80.2050  222.9990 C.ar    1  UNL1       -0.0412
     31 C         141.1170   81.1920  223.8890 C.ar    1  UNL1       -0.0582
     32 C         142.4780   81.3370  224.1700 C.ar    1  UNL1       -0.0615
     33 C         143.4320   80.5280  223.5910 C.ar    1  UNL1       -0.0614
     34 C         143.0190   79.5480  222.7070 C.ar    1  UNL1       -0.0568
     35 C         141.6640   79.4040  222.4270 C.ar    1  UNL1       -0.0269
     36 C         141.1850   78.3570  221.4780 C.3     1  UNL1        0.0402
     37 N         138.3790   75.9670  221.7500 N.ar    1  UNL1       -0.1809
     38 C         135.0830   72.9760  222.9190 C.3     1  UNL1       -0.0200
     39 C         134.7070   72.6650  224.3640 C.3     1  UNL1        0.0218
     40 H         131.1808   73.0789  226.4337 H       1  UNL1        0.0479
     41 H         131.5961   74.1107  225.0232 H       1  UNL1        0.0479
     42 H         132.0373   72.3694  225.0232 H       1  UNL1        0.0479
     43 H         133.3641   74.8096  223.8439 H       1  UNL1        0.0444
     44 H         134.2093   75.8816  225.0453 H       1  UNL1        0.0444
     45 H         134.8803   75.8262  222.4630 H       1  UNL1        0.0296
     46 H         136.0787   76.0783  223.7740 H       1  UNL1        0.0296
     47 H         136.8771   73.9597  223.6612 H       1  UNL1        0.0499
     48 H         136.2690   73.9090  220.7590 H       1  UNL1        0.1492
     49 H         142.6078   73.9612  219.4323 H       1  UNL1        0.0480
     50 H         142.9096   74.7981  220.9916 H       1  UNL1        0.0480
     51 H         144.7185   73.1683  220.3687 H       1  UNL1        0.0480
     52 H         143.9350   72.7809  221.9249 H       1  UNL1        0.0480
     53 H         144.9122   72.2599  218.2308 H       1  UNL1        0.0652
     54 H         146.5243   70.8657  216.9708 H       1  UNL1        0.0619
     55 H         146.8029   68.4520  217.7023 H       1  UNL1        0.0633
     56 H         145.4645   67.6436  219.6119 H       1  UNL1        0.0830
     57 H         141.5807   70.8901  219.4899 H       1  UNL1        0.0480
     58 H         142.1234   70.0531  221.0038 H       1  UNL1        0.0480
     59 H         140.1309   71.7009  221.0852 H       1  UNL1        0.0480
     60 H         141.4354   71.7441  222.3582 H       1  UNL1        0.0480
     61 H         137.9923   78.6641  221.7658 H       1  UNL1        0.0468
     62 H         138.5970   78.2101  223.4294 H       1  UNL1        0.0468
     63 H         139.0083   80.6792  221.8334 H       1  UNL1        0.0328
     64 H         138.7070   80.4185  223.6082 H       1  UNL1        0.0328
     65 H         140.3784   81.8522  224.3671 H       1  UNL1        0.0620
     66 H         142.7974   82.1196  224.8739 H       1  UNL1        0.0618
     67 H         144.4984   80.6590  223.8269 H       1  UNL1        0.0618
     68 H         143.7567   78.8870  222.2286 H       1  UNL1        0.0621
     69 H         141.1038   78.7936  220.4716 H       1  UNL1        0.0514
     70 H         141.9054   77.5257  221.4802 H       1  UNL1        0.0514
     71 H         134.1848   73.2661  222.3542 H       1  UNL1        0.0296
     72 H         135.5261   72.0897  222.4413 H       1  UNL1        0.0296
     73 H         133.7151   72.1900  224.3843 H       1  UNL1        0.0444
     74 H         135.4641   71.9887  224.7877 H       1  UNL1        0.0444
@<TRIPOS>BOND
     1     1     2    1
     2     2     3    2
     3     2     4    2
     4     2     5    1
     5     5     6    1
     6     6     7    1
     7     7     8    1
     8     8     9    1
     9     9    10    1
    10    10    11   ar
    11    11    12   ar
    12    12    13    1
    13    13    14    1
    14    14    15    1
    15    15    16    1
    16    16    17    1
    17    17    18   ar
    18    18    19   ar
    19    19    20   ar
    20    20    21   ar
    21    21    22   ar
    22    16    23    1
    23    23    24    1
    24    12    25   ar
    25    25    26   ar
    26    26    27    1
    27    27    28    1
    28    28    29    1
    29    29    30    1
    30    30    31   ar
    31    31    32   ar
    32    32    33   ar
    33    33    34   ar
    34    34    35   ar
    35    35    36    1
    36    26    37   ar
    37     8    38    1
    38    38    39    1
    39    39     5    1
    40    37    10   ar
    41    24    13    1
    42    36    27    1
    43    22    17   ar
    44    35    30   ar
    45     1    40    1
    46     1    41    1
    47     1    42    1
    48     6    43    1
    49     6    44    1
    50     7    45    1
    51     7    46    1
    52     8    47    1
    53     9    48    1
    54    14    49    1
    55    14    50    1
    56    15    51    1
    57    15    52    1
    58    18    53    1
    59    19    54    1
    60    20    55    1
    61    21    56    1
    62    23    57    1
    63    23    58    1
    64    24    59    1
    65    24    60    1
    66    28    61    1
    67    28    62    1
    68    29    63    1
    69    29    64    1
    70    31    65    1
    71    32    66    1
    72    33    67    1
    73    34    68    1
    74    36    69    1
    75    36    70    1
    76    38    71    1
    77    38    72    1
    78    39    73    1
    79    39    74    1
