
     RDKit          3D

 79 85  0  0  0  0  0  0  0  0999 V2000
  143.9690   74.0070  219.6200 C   0  0  0  0  0  0  0  0  0  0  0  0
  144.1740   72.7540  220.4230 C   0  0  2  0  0  0  0  0  0  0  0  0
  145.2290   71.8840  219.7710 C   0  0  0  0  0  0  0  0  0  0  0  0
  144.6950   71.2210  218.5830 N   0  0  0  0  0  0  0  0  0  0  0  0
  145.5870   71.0790  217.5010 C   0  0  0  0  0  0  0  0  0  0  0  0
  145.9610   72.2010  216.9770 O   0  0  0  0  0  0  0  0  0  0  0  0
  146.1040   69.9080  216.9390 N   0  0  0  0  0  0  0  0  0  0  0  0
  145.8130   68.5500  217.3390 C   0  0  0  0  0  0  0  0  0  0  0  0
  146.3420   67.6570  216.2220 C   0  0  0  0  0  0  0  0  0  0  0  0
  145.9500   68.0790  214.9580 O   0  0  0  0  0  0  0  0  0  0  0  0
  146.4250   69.3420  214.6430 C   0  0  0  0  0  0  0  0  0  0  0  0
  147.0600   70.0320  215.8180 C   0  0  0  0  0  0  0  0  0  0  0  0
  143.3290   70.7740  218.6330 C   0  0  0  0  0  0  0  0  0  0  0  0
  142.9230   70.6530  220.0930 C   0  0  0  0  0  0  0  0  0  0  0  0
  142.9500   72.0020  220.6460 N   0  0  0  0  0  0  0  0  0  0  0  0
  141.8580   72.5530  221.3620 C   0  0  0  0  0  0  0  0  0  0  0  0
  141.5560   73.8790  221.2570 N   0  0  0  0  0  0  0  0  0  0  0  0
  140.5170   74.3710  221.9540 C   0  0  0  0  0  0  0  0  0  0  0  0
  140.1310   75.7390  221.9050 N   0  0  0  0  0  0  0  0  0  0  0  0
  138.7970   76.1470  221.4390 C   0  0  0  0  0  0  0  0  0  0  0  0
  138.1540   76.8870  222.6220 C   0  0  0  0  0  0  0  0  0  0  0  0
  138.9710   78.1200  222.7930 C   0  0  0  0  0  0  0  0  0  0  0  0
  138.4010   79.3510  223.0990 C   0  0  0  0  0  0  0  0  0  0  0  0
  139.2060   80.4670  223.2480 C   0  0  0  0  0  0  0  0  0  0  0  0
  140.5840   80.4040  223.1010 C   0  0  0  0  0  0  0  0  0  0  0  0
  141.1510   79.1740  222.7950 C   0  0  0  0  0  0  0  0  0  0  0  0
  140.3400   78.0460  222.6440 C   0  0  0  0  0  0  0  0  0  0  0  0
  141.0540   76.7800  222.3150 C   0  0  0  0  0  0  0  0  0  0  0  0
  139.8360   73.5030  222.7200 N   0  0  0  0  0  0  0  0  0  0  0  0
  140.1080   72.2020  222.8410 C   0  0  0  0  0  0  0  0  0  0  0  0
  139.3920   71.2840  223.6520 N   0  0  0  0  0  0  0  0  0  0  0  0
  138.1040   70.7290  223.2290 C   0  0  0  0  0  0  0  0  0  0  0  0
  137.7410   69.5270  224.0630 C   0  0  0  0  0  0  0  0  0  0  0  0
  139.0000   68.7310  224.3600 C   0  0  0  0  0  0  0  0  0  0  0  0
  139.7800   69.5880  225.3230 C   0  0  0  0  0  0  0  0  0  0  0  0
  140.2770   69.1290  226.5030 C   0  0  0  0  0  0  0  0  0  0  0  0
  140.9770   70.0470  227.2910 C   0  0  0  0  0  0  0  0  0  0  0  0
  141.1470   71.3670  226.8700 C   0  0  0  0  0  0  0  0  0  0  0  0
  140.6380   71.8200  225.6730 C   0  0  0  0  0  0  0  0  0  0  0  0
  139.9500   70.9100  224.9020 C   0  0  0  0  0  0  0  0  0  0  0  0
  141.1490   71.7200  222.1390 N   0  0  0  0  0  0  0  0  0  0  0  0
  143.8295   74.8599  220.3005 H   0  0  0  0  0  0  0  0  0  0  0  0
  144.8501   74.1843  218.9858 H   0  0  0  0  0  0  0  0  0  0  0  0
  143.0774   73.8943  218.9858 H   0  0  0  0  0  0  0  0  0  0  0  0
  144.5199   73.0698  221.4183 H   0  0  0  0  0  0  0  0  0  0  0  0
  146.0841   72.5117  219.4797 H   0  0  0  0  0  0  0  0  0  0  0  0
  145.5454   71.1150  220.4911 H   0  0  0  0  0  0  0  0  0  0  0  0
  146.3184   68.3149  218.2873 H   0  0  0  0  0  0  0  0  0  0  0  0
  144.7347   68.4000  217.4965 H   0  0  0  0  0  0  0  0  0  0  0  0
  147.4411   67.6550  216.2657 H   0  0  0  0  0  0  0  0  0  0  0  0
  145.9230   66.6520  216.3779 H   0  0  0  0  0  0  0  0  0  0  0  0
  147.1744   69.2470  213.8434 H   0  0  0  0  0  0  0  0  0  0  0  0
  145.5658   69.9506  214.3245 H   0  0  0  0  0  0  0  0  0  0  0  0
  148.0132   69.5468  216.0750 H   0  0  0  0  0  0  0  0  0  0  0  0
  147.2770   71.0866  215.5927 H   0  0  0  0  0  0  0  0  0  0  0  0
  142.6798   71.5023  218.1249 H   0  0  0  0  0  0  0  0  0  0  0  0
  143.2282   69.8018  218.1283 H   0  0  0  0  0  0  0  0  0  0  0  0
  141.9103   70.2308  220.1716 H   0  0  0  0  0  0  0  0  0  0  0  0
  143.6052   69.9861  220.6405 H   0  0  0  0  0  0  0  0  0  0  0  0
  138.8819   76.8147  220.5689 H   0  0  0  0  0  0  0  0  0  0  0  0
  138.1942   75.2826  221.1237 H   0  0  0  0  0  0  0  0  0  0  0  0
  137.1086   77.1438  222.3957 H   0  0  0  0  0  0  0  0  0  0  0  0
  138.1361   76.2725  223.5342 H   0  0  0  0  0  0  0  0  0  0  0  0
  137.3114   79.4377  223.2225 H   0  0  0  0  0  0  0  0  0  0  0  0
  138.7390   81.4330  223.4903 H   0  0  0  0  0  0  0  0  0  0  0  0
  141.2085   81.3012  223.2231 H   0  0  0  0  0  0  0  0  0  0  0  0
  142.2406   79.0873  222.6712 H   0  0  0  0  0  0  0  0  0  0  0  0
  141.7626   76.9720  221.4959 H   0  0  0  0  0  0  0  0  0  0  0  0
  141.5813   76.4372  223.2175 H   0  0  0  0  0  0  0  0  0  0  0  0
  137.3248   71.4968  223.3442 H   0  0  0  0  0  0  0  0  0  0  0  0
  138.1817   70.4183  222.1767 H   0  0  0  0  0  0  0  0  0  0  0  0
  137.2830   69.8580  225.0068 H   0  0  0  0  0  0  0  0  0  0  0  0
  137.0247   68.8975  223.5146 H   0  0  0  0  0  0  0  0  0  0  0  0
  138.7475   67.7638  224.8192 H   0  0  0  0  0  0  0  0  0  0  0  0
  139.5726   68.5048  223.4484 H   0  0  0  0  0  0  0  0  0  0  0  0
  140.1349   68.0858  226.8217 H   0  0  0  0  0  0  0  0  0  0  0  0
  141.3990   69.7254  228.2546 H   0  0  0  0  0  0  0  0  0  0  0  0
  141.7033   72.0653  227.5125 H   0  0  0  0  0  0  0  0  0  0  0  0
  140.7750   72.8618  225.3477 H   0  0  0  0  0  0  0  0  0  0  0  0
  1  2  1  0
  2  3  1  0
  3  4  1  0
  4  5  1  0
  5  6  2  0
  5  7  1  0
  7  8  1  0
  8  9  1  0
  9 10  1  0
 10 11  1  0
 11 12  1  0
  4 13  1  0
 13 14  1  0
 14 15  1  0
 15 16  1  0
 16 17  2  0
 17 18  1  0
 18 19  1  0
 19 20  1  0
 20 21  1  0
 21 22  1  0
 22 23  2  0
 23 24  1  0
 24 25  2  0
 25 26  1  0
 26 27  2  0
 27 28  1  0
 18 29  2  0
 29 30  1  0
 30 31  1  0
 31 32  1  0
 32 33  1  0
 33 34  1  0
 34 35  1  0
 35 36  2  0
 36 37  1  0
 37 38  2  0
 38 39  1  0
 39 40  2  0
 30 41  2  0
 15  2  1  0
 41 16  1  0
 12  7  1  0
 28 19  1  0
 40 31  1  0
 27 22  1  0
 40 35  1  0
  1 42  1  0
  1 43  1  0
  1 44  1  0
  2 45  1  1
  3 46  1  0
  3 47  1  0
  8 48  1  0
  8 49  1  0
  9 50  1  0
  9 51  1  0
 11 52  1  0
 11 53  1  0
 12 54  1  0
 12 55  1  0
 13 56  1  0
 13 57  1  0
 14 58  1  0
 14 59  1  0
 20 60  1  0
 20 61  1  0
 21 62  1  0
 21 63  1  0
 23 64  1  0
 24 65  1  0
 25 66  1  0
 26 67  1  0
 28 68  1  0
 28 69  1  0
 32 70  1  0
 32 71  1  0
 33 72  1  0
 33 73  1  0
 34 74  1  0
 34 75  1  0
 36 76  1  0
 37 77  1  0
 38 78  1  0
 39 79  1  0
M  END
