
     RDKit          3D

 44 46  0  0  0  0  0  0  0  0999 V2000
  139.5520   68.0360  225.3880 C   0  0  0  0  0  0  0  0  0  0  0  0
  140.3100   69.2510  224.9910 C   0  0  1  0  0  0  0  0  0  0  0  0
  139.6730   69.9960  223.9260 N   0  0  0  0  0  0  0  0  0  0  0  0
  138.3110   70.3740  223.9870 C   0  0  0  0  0  0  0  0  0  0  0  0
  137.6620   70.0400  225.0200 O   0  0  0  0  0  0  0  0  0  0  0  0
  137.5870   71.1240  222.9510 C   0  0  0  0  0  0  0  0  0  0  0  0
  138.2640   72.3460  222.6170 N   0  0  0  0  0  0  0  0  0  0  0  0
  139.4530   72.3000  221.8190 C   0  0  0  0  0  0  0  0  0  0  0  0
  139.9370   71.2180  221.3810 O   0  0  0  0  0  0  0  0  0  0  0  0
  140.1460   73.5410  221.4870 C   0  0  0  0  0  0  0  0  0  0  0  0
  141.1190   73.5930  220.5430 C   0  0  0  0  0  0  0  0  0  0  0  0
  141.8190   74.7160  220.1700 C   0  0  0  0  0  0  0  0  0  0  0  0
  141.4730   75.8960  220.8400 C   0  0  0  0  0  0  0  0  0  0  0  0
  142.1630   77.0260  220.4740 C   0  0  0  0  0  0  0  0  0  0  0  0
  141.8270   78.1990  221.1310 C   0  0  0  0  0  0  0  0  0  0  0  0
  140.8410   78.1820  222.0960 C   0  0  0  0  0  0  0  0  0  0  0  0
  140.1640   77.0260  222.4420 C   0  0  0  0  0  0  0  0  0  0  0  0
  140.4940   75.8480  221.7900 C   0  0  0  0  0  0  0  0  0  0  0  0
  139.8380   74.7120  222.1190 N   0  0  0  0  0  0  0  0  0  0  0  0
  140.4300   70.1580  226.1590 C   0  0  0  0  0  0  0  0  0  0  0  0
  141.2090   71.3160  226.0590 C   0  0  0  0  0  0  0  0  0  0  0  0
  141.3320   72.1660  227.1360 C   0  0  0  0  0  0  0  0  0  0  0  0
  140.6890   71.8790  228.3210 C   0  0  0  0  0  0  0  0  0  0  0  0
  139.9060   70.7320  228.4540 C   0  0  0  0  0  0  0  0  0  0  0  0
  139.8000   69.9020  227.3600 C   0  0  0  0  0  0  0  0  0  0  0  0
  139.5116   67.9713  226.4854 H   0  0  0  0  0  0  0  0  0  0  0  0
  138.5296   68.0941  224.9863 H   0  0  0  0  0  0  0  0  0  0  0  0
  140.0537   67.1433  224.9863 H   0  0  0  0  0  0  0  0  0  0  0  0
  141.2899   68.9033  224.6319 H   0  0  0  0  0  0  0  0  0  0  0  0
  140.2680   70.2570  223.1150 H   0  0  0  0  0  0  0  0  0  0  0  0
  137.5076   70.5008  222.0480 H   0  0  0  0  0  0  0  0  0  0  0  0
  136.5899   71.3768  223.3407 H   0  0  0  0  0  0  0  0  0  0  0  0
  137.9360   73.2900  222.9270 H   0  0  0  0  0  0  0  0  0  0  0  0
  141.3703   72.6528  220.0303 H   0  0  0  0  0  0  0  0  0  0  0  0
  142.5999   74.6893  219.3958 H   0  0  0  0  0  0  0  0  0  0  0  0
  142.9428   77.0011  219.6986 H   0  0  0  0  0  0  0  0  0  0  0  0
  142.3435   79.1384  220.8845 H   0  0  0  0  0  0  0  0  0  0  0  0
  140.5840   79.1208  222.6084 H   0  0  0  0  0  0  0  0  0  0  0  0
  139.3825   77.0413  223.2160 H   0  0  0  0  0  0  0  0  0  0  0  0
  141.7255   71.5487  225.1161 H   0  0  0  0  0  0  0  0  0  0  0  0
  141.9446   73.0756  227.0502 H   0  0  0  0  0  0  0  0  0  0  0  0
  140.7948   72.5646  229.1746 H   0  0  0  0  0  0  0  0  0  0  0  0
  139.3920   70.4990  229.3982 H   0  0  0  0  0  0  0  0  0  0  0  0
  139.1854   68.9939  227.4474 H   0  0  0  0  0  0  0  0  0  0  0  0
  1  2  1  0
  2  3  1  0
  3  4  1  0
  4  5  2  0
  4  6  1  0
  6  7  1  0
  7  8  1  0
  8  9  2  0
  8 10  1  0
 10 11  2  0
 11 12  1  0
 12 13  2  0
 13 14  1  0
 14 15  2  0
 15 16  1  0
 16 17  2  0
 17 18  1  0
 18 19  2  0
  2 20  1  0
 20 21  2  0
 21 22  1  0
 22 23  2  0
 23 24  1  0
 24 25  2  0
 19 10  1  0
 25 20  1  0
 18 13  1  0
  1 26  1  0
  1 27  1  0
  1 28  1  0
  2 29  1  6
  3 30  1  0
  6 31  1  0
  6 32  1  0
  7 33  1  0
 11 34  1  0
 12 35  1  0
 14 36  1  0
 15 37  1  0
 16 38  1  0
 17 39  1  0
 21 40  1  0
 22 41  1  0
 23 42  1  0
 24 43  1  0
 25 44  1  0
M  END
