
     RDKit          3D

 67 72  0  0  0  0  0  0  0  0999 V2000
  139.0070   66.9980  226.1830 O   0  0  0  0  0  0  0  0  0  0  0  0
  139.7080   68.1620  226.5380 C   0  0  0  0  0  0  0  0  0  0  0  0
  140.4680   68.2380  227.6860 C   0  0  0  0  0  0  0  0  0  0  0  0
  141.1250   69.4150  227.9670 C   0  0  0  0  0  0  0  0  0  0  0  0
  141.8800   69.4340  229.1430 O   0  0  0  0  0  0  0  0  0  0  0  0
  141.0740   70.5340  227.1710 C   0  0  0  0  0  0  0  0  0  0  0  0
  140.3170   70.4610  226.0240 C   0  0  0  0  0  0  0  0  0  0  0  0
  140.1420   71.5760  225.0720 C   0  0  0  0  0  0  0  0  0  0  0  0
  139.6250   71.1150  223.7330 C   0  0  0  0  0  0  0  0  0  0  0  0
  139.0690   72.2680  223.0250 N   0  0  0  0  0  0  0  0  0  0  0  0
  139.9920   73.0810  222.3330 C   0  0  0  0  0  0  0  0  0  0  0  0
  140.9680   72.4080  221.6500 N   0  0  0  0  0  0  0  0  0  0  0  0
  141.8890   73.0580  220.9580 C   0  0  0  0  0  0  0  0  0  0  0  0
  142.8780   72.3000  220.2690 N   0  0  0  0  0  0  0  0  0  0  0  0
  143.9230   72.9810  219.5340 C   0  0  0  0  0  0  0  0  0  0  0  0
  145.2610   72.2890  219.8300 C   0  0  0  0  0  0  0  0  0  0  0  0
  145.1370   70.8700  219.4420 C   0  0  0  0  0  0  0  0  0  0  0  0
  146.2070   70.2640  218.8500 C   0  0  0  0  0  0  0  0  0  0  0  0
  146.0660   68.9220  218.4820 C   0  0  0  0  0  0  0  0  0  0  0  0
  144.8740   68.2350  218.7140 C   0  0  0  0  0  0  0  0  0  0  0  0
  143.7890   68.8620  219.3190 C   0  0  0  0  0  0  0  0  0  0  0  0
  143.9470   70.1980  219.6790 C   0  0  0  0  0  0  0  0  0  0  0  0
  142.8060   70.8560  220.3210 C   0  0  0  0  0  0  0  0  0  0  0  0
  141.8650   74.4170  220.9250 N   0  0  0  0  0  0  0  0  0  0  0  0
  140.9200   75.1060  221.5860 C   0  0  0  0  0  0  0  0  0  0  0  0
  140.9540   76.5170  221.5050 N   0  0  0  0  0  0  0  0  0  0  0  0
  141.7810   77.0990  220.4590 C   0  0  0  0  0  0  0  0  0  0  0  0
  141.4510   78.5510  220.1980 C   0  0  0  0  0  0  0  0  0  0  0  0
  141.5190   79.2760  221.4930 C   0  0  0  0  0  0  0  0  0  0  0  0
  142.1830   80.4790  221.5670 C   0  0  0  0  0  0  0  0  0  0  0  0
  142.2460   81.1610  222.7600 C   0  0  0  0  0  0  0  0  0  0  0  0
  141.6210   80.5820  223.8440 C   0  0  0  0  0  0  0  0  0  0  0  0
  140.9510   79.3700  223.7710 C   0  0  0  0  0  0  0  0  0  0  0  0
  140.8920   78.6910  222.5710 C   0  0  0  0  0  0  0  0  0  0  0  0
  140.2050   77.3860  222.4020 C   0  0  0  0  0  0  0  0  0  0  0  0
  139.9820   74.4200  222.2910 N   0  0  0  0  0  0  0  0  0  0  0  0
  139.6600   69.2820  225.7440 C   0  0  0  0  0  0  0  0  0  0  0  0
  138.9230   66.2410  226.8780 H   0  0  0  0  0  0  0  0  0  0  0  0
  140.5479   67.3754  228.3639 H   0  0  0  0  0  0  0  0  0  0  0  0
  142.3870   70.2530  229.4030 H   0  0  0  0  0  0  0  0  0  0  0  0
  141.6169   71.4521  227.4401 H   0  0  0  0  0  0  0  0  0  0  0  0
  139.4266   72.2948  225.4981 H   0  0  0  0  0  0  0  0  0  0  0  0
  141.1282   72.0354  224.9098 H   0  0  0  0  0  0  0  0  0  0  0  0
  140.4490   70.6822  223.1467 H   0  0  0  0  0  0  0  0  0  0  0  0
  138.8474   70.3498  223.8737 H   0  0  0  0  0  0  0  0  0  0  0  0
  138.0670   72.5140  223.0190 H   0  0  0  0  0  0  0  0  0  0  0  0
  143.7106   72.9311  218.4559 H   0  0  0  0  0  0  0  0  0  0  0  0
  143.9704   74.0367  219.8394 H   0  0  0  0  0  0  0  0  0  0  0  0
  146.0643   72.7659  219.2492 H   0  0  0  0  0  0  0  0  0  0  0  0
  145.5059   72.3726  220.8991 H   0  0  0  0  0  0  0  0  0  0  0  0
  147.1446   70.8102  218.6692 H   0  0  0  0  0  0  0  0  0  0  0  0
  146.9074   68.4004  218.0025 H   0  0  0  0  0  0  0  0  0  0  0  0
  144.7905   67.1801  218.4137 H   0  0  0  0  0  0  0  0  0  0  0  0
  142.8469   68.3254  219.5049 H   0  0  0  0  0  0  0  0  0  0  0  0
  141.8851   70.5333  219.8132 H   0  0  0  0  0  0  0  0  0  0  0  0
  142.8158   70.5661  221.3821 H   0  0  0  0  0  0  0  0  0  0  0  0
  142.8358   77.0264  220.7624 H   0  0  0  0  0  0  0  0  0  0  0  0
  141.5867   76.5410  219.5312 H   0  0  0  0  0  0  0  0  0  0  0  0
  142.1784   78.9783  219.4921 H   0  0  0  0  0  0  0  0  0  0  0  0
  140.4458   78.6423  219.7607 H   0  0  0  0  0  0  0  0  0  0  0  0
  142.6644   80.8962  220.6703 H   0  0  0  0  0  0  0  0  0  0  0  0
  142.7709   82.1240  222.8452 H   0  0  0  0  0  0  0  0  0  0  0  0
  141.6554   81.1053  224.8109 H   0  0  0  0  0  0  0  0  0  0  0  0
  140.4683   78.9513  224.6664 H   0  0  0  0  0  0  0  0  0  0  0  0
  140.1132   76.8975  223.3833 H   0  0  0  0  0  0  0  0  0  0  0  0
  139.2104   77.5659  221.9679 H   0  0  0  0  0  0  0  0  0  0  0  0
  139.0579   69.2349  224.8246 H   0  0  0  0  0  0  0  0  0  0  0  0
  1  2  1  0
  2  3  2  0
  3  4  1  0
  4  5  1  0
  4  6  2  0
  6  7  1  0
  7  8  1  0
  8  9  1  0
  9 10  1  0
 10 11  1  0
 11 12  2  0
 12 13  1  0
 13 14  1  0
 14 15  1  0
 15 16  1  0
 16 17  1  0
 17 18  2  0
 18 19  1  0
 19 20  2  0
 20 21  1  0
 21 22  2  0
 22 23  1  0
 13 24  2  0
 24 25  1  0
 25 26  1  0
 26 27  1  0
 27 28  1  0
 28 29  1  0
 29 30  2  0
 30 31  1  0
 31 32  2  0
 32 33  1  0
 33 34  2  0
 34 35  1  0
 25 36  2  0
  7 37  2  0
 37  2  1  0
 36 11  1  0
 23 14  1  0
 35 26  1  0
 22 17  1  0
 34 29  1  0
  1 38  1  0
  3 39  1  0
  5 40  1  0
  6 41  1  0
  8 42  1  0
  8 43  1  0
  9 44  1  0
  9 45  1  0
 10 46  1  0
 15 47  1  0
 15 48  1  0
 16 49  1  0
 16 50  1  0
 18 51  1  0
 19 52  1  0
 20 53  1  0
 21 54  1  0
 23 55  1  0
 23 56  1  0
 27 57  1  0
 27 58  1  0
 28 59  1  0
 28 60  1  0
 30 61  1  0
 31 62  1  0
 32 63  1  0
 33 64  1  0
 35 65  1  0
 35 66  1  0
 37 67  1  0
M  END
