
     RDKit          3D

 66 69  0  0  0  0  0  0  0  0999 V2000
  138.5110   78.7170  222.1640 C   0  0  0  0  0  0  0  0  0  0  0  0
  139.9100   78.4160  222.2430 N   0  0  0  0  0  0  0  0  0  0  0  0
  140.8330   79.5040  221.8930 C   0  0  0  0  0  0  0  0  0  0  0  0
  141.3980   79.2560  220.5040 C   0  0  0  0  0  0  0  0  0  0  0  0
  142.0770   77.9670  220.5560 N   0  0  0  0  0  0  0  0  0  0  0  0
  142.4090   77.3770  219.3040 C   0  0  0  0  0  0  0  0  0  0  0  0
  142.0690   78.0580  218.2760 O   0  0  0  0  0  0  0  0  0  0  0  0
  143.0870   76.0950  219.1950 C   0  0  0  0  0  0  0  0  0  0  0  0
  142.8330   75.3370  218.0600 C   0  0  0  0  0  0  0  0  0  0  0  0
  143.4470   74.0990  217.8960 C   0  0  0  0  0  0  0  0  0  0  0  0
  144.2870   73.6880  218.8880 C   0  0  0  0  0  0  0  0  0  0  0  0
  144.9050   72.4470  218.7300 C   0  0  0  0  0  0  0  0  0  0  0  0
  145.7720   72.0010  219.7340 C   0  0  0  0  0  0  0  0  0  0  0  0
  146.3850   70.7990  219.6020 F   0  0  0  0  0  0  0  0  0  0  0  0
  146.0080   72.7790  220.8600 C   0  0  0  0  0  0  0  0  0  0  0  0
  145.3940   74.0060  221.0110 C   0  0  0  0  0  0  0  0  0  0  0  0
  144.5420   74.4380  220.0190 C   0  0  0  0  0  0  0  0  0  0  0  0
  143.9270   75.6300  220.1380 N   0  0  0  0  0  0  0  0  0  0  0  0
  140.4830   77.1900  222.6190 C   0  0  0  0  0  0  0  0  0  0  0  0
  141.4660   77.2650  223.4600 O   0  0  0  0  0  0  0  0  0  0  0  0
  140.1200   75.8480  222.1890 C   0  0  1  0  0  0  0  0  0  0  0  0
  138.9120   75.7510  221.2840 C   0  0  0  0  0  0  0  0  0  0  0  0
  138.3950   74.3360  221.4500 C   0  0  0  0  0  0  0  0  0  0  0  0
  139.4320   73.2940  221.1930 C   0  0  2  0  0  0  0  0  0  0  0  0
  139.0210   72.0540  221.9040 C   0  0  0  0  0  0  0  0  0  0  0  0
  138.4280   71.1030  221.3140 O   0  0  0  0  0  0  0  0  0  0  0  0
  139.3270   71.9790  223.2910 N   0  0  0  0  0  0  0  0  0  0  0  0
  138.9580   70.7870  224.0710 C   0  0  0  0  0  0  0  0  0  0  0  0
  139.6760   70.8360  225.3860 C   0  0  0  0  0  0  0  0  0  0  0  0
  139.4830   69.8250  226.3320 C   0  0  0  0  0  0  0  0  0  0  0  0
  140.1750   69.9290  227.5260 C   0  0  0  0  0  0  0  0  0  0  0  0
  141.0110   71.0050  227.7320 C   0  0  0  0  0  0  0  0  0  0  0  0
  141.1930   71.9950  226.7880 C   0  0  0  0  0  0  0  0  0  0  0  0
  140.5060   71.8770  225.6230 N   0  0  0  0  0  0  0  0  0  0  0  0
  140.8290   73.6100  221.6070 C   0  0  0  0  0  0  0  0  0  0  0  0
  141.1930   75.0690  221.4710 C   0  0  0  0  0  0  0  0  0  0  0  0
  138.0972   78.8060  223.1793 H   0  0  0  0  0  0  0  0  0  0  0  0
  138.3699   79.6661  221.6260 H   0  0  0  0  0  0  0  0  0  0  0  0
  137.9921   77.9099  221.6260 H   0  0  0  0  0  0  0  0  0  0  0  0
  140.2927   80.4621  221.9043 H   0  0  0  0  0  0  0  0  0  0  0  0
  141.6543   79.5400  222.6239 H   0  0  0  0  0  0  0  0  0  0  0  0
  140.5855   79.2276  219.7630 H   0  0  0  0  0  0  0  0  0  0  0  0
  142.0902   80.0579  220.2077 H   0  0  0  0  0  0  0  0  0  0  0  0
  142.3180   77.4830  221.4490 H   0  0  0  0  0  0  0  0  0  0  0  0
  142.1454   75.7155  217.2893 H   0  0  0  0  0  0  0  0  0  0  0  0
  143.2628   73.4797  217.0057 H   0  0  0  0  0  0  0  0  0  0  0  0
  144.7151   71.8334  217.8370 H   0  0  0  0  0  0  0  0  0  0  0  0
  146.6918   72.4133  221.6402 H   0  0  0  0  0  0  0  0  0  0  0  0
  145.5806   74.6236  221.9019 H   0  0  0  0  0  0  0  0  0  0  0  0
  139.9137   75.4142  223.1786 H   0  0  0  0  0  0  0  0  0  0  0  0
  139.1992   75.9353  220.2383 H   0  0  0  0  0  0  0  0  0  0  0  0
  138.1471   76.4981  221.5424 H   0  0  0  0  0  0  0  0  0  0  0  0
  137.5643   74.1830  220.7453 H   0  0  0  0  0  0  0  0  0  0  0  0
  138.0762   74.2267  222.4971 H   0  0  0  0  0  0  0  0  0  0  0  0
  139.4724   73.2037  220.0974 H   0  0  0  0  0  0  0  0  0  0  0  0
  139.8200   72.7730  223.7780 H   0  0  0  0  0  0  0  0  0  0  0  0
  137.8714   70.7776  224.2420 H   0  0  0  0  0  0  0  0  0  0  0  0
  139.2398   69.8763  223.5222 H   0  0  0  0  0  0  0  0  0  0  0  0
  138.8073   68.9796  226.1350 H   0  0  0  0  0  0  0  0  0  0  0  0
  140.0588   69.1597  228.3036 H   0  0  0  0  0  0  0  0  0  0  0  0
  141.5542   71.0775  228.6857 H   0  0  0  0  0  0  0  0  0  0  0  0
  141.8669   72.8447  226.9719 H   0  0  0  0  0  0  0  0  0  0  0  0
  141.5168   73.0218  220.9817 H   0  0  0  0  0  0  0  0  0  0  0  0
  140.9096   73.3594  222.6750 H   0  0  0  0  0  0  0  0  0  0  0  0
  141.2242   75.3553  220.4094 H   0  0  0  0  0  0  0  0  0  0  0  0
  142.1856   75.2724  221.8993 H   0  0  0  0  0  0  0  0  0  0  0  0
  1  2  1  0
  2  3  1  0
  3  4  1  0
  4  5  1  0
  5  6  1  0
  6  7  2  0
  6  8  1  0
  8  9  2  0
  9 10  1  0
 10 11  2  0
 11 12  1  0
 12 13  2  0
 13 14  1  0
 13 15  1  0
 15 16  2  0
 16 17  1  0
 17 18  2  0
  2 19  1  0
 19 20  2  0
 19 21  1  0
 21 22  1  0
 22 23  1  0
 23 24  1  0
 24 25  1  0
 25 26  2  0
 25 27  1  0
 27 28  1  0
 28 29  1  0
 29 30  2  0
 30 31  1  0
 31 32  2  0
 32 33  1  0
 33 34  2  0
 24 35  1  0
 35 36  1  0
 18  8  1  0
 36 21  1  0
 17 11  1  0
 34 29  1  0
  1 37  1  0
  1 38  1  0
  1 39  1  0
  3 40  1  0
  3 41  1  0
  4 42  1  0
  4 43  1  0
  5 44  1  0
  9 45  1  0
 10 46  1  0
 12 47  1  0
 15 48  1  0
 16 49  1  0
 21 50  1  1
 22 51  1  0
 22 52  1  0
 23 53  1  0
 23 54  1  0
 24 55  1  6
 27 56  1  0
 28 57  1  0
 28 58  1  0
 30 59  1  0
 31 60  1  0
 32 61  1  0
 33 62  1  0
 35 63  1  0
 35 64  1  0
 36 65  1  0
 36 66  1  0
M  END
>  <smiles>  (1) 
CN(CCNC(=O)c1ccc2cc(F)ccc2n1)C(=O)[C@H]1CC[C@H](C(=O)NCc2ccccn2)CC1

>  <score_type>  (1) 
oracle

>  <origin>  (1) 
autodockgpu

>  <m_score__min__energy>  (1) 
-8.8699999999999992

>  <m_primary>  (1) 
energy

>  <rmsd>  (1) 
7.39962085836014

>  <m_score__min__rmsd>  (1) 
7.39962085836014

>  <meeko>  (1) 
{"free_energy": -7.98, "intermolecular_energy": -10.67, "internal_energy": -3.57, "cluster_size": 6, "cluster_id": 5, "rank_in_cluster": 4}

>  <energy>  (1) 
-8.87

>  <cluster_rmsd>  (1) 
0.0

>  <cluster>  (1) 
1

$$$$

     RDKit          3D

 66 69  0  0  0  0  0  0  0  0999 V2000
  139.8880   76.8410  219.6070 C   0  0  0  0  0  0  0  0  0  0  0  0
  139.0940   76.3730  220.7050 N   0  0  0  0  0  0  0  0  0  0  0  0
  137.7540   76.9580  220.8380 C   0  0  0  0  0  0  0  0  0  0  0  0
  137.5530   77.4320  222.2680 C   0  0  0  0  0  0  0  0  0  0  0  0
  137.2520   76.2460  223.0600 N   0  0  0  0  0  0  0  0  0  0  0  0
  135.8740   75.9520  223.2580 C   0  0  0  0  0  0  0  0  0  0  0  0
  135.0590   76.7710  222.7090 O   0  0  0  0  0  0  0  0  0  0  0  0
  135.4190   74.8030  224.0260 C   0  0  0  0  0  0  0  0  0  0  0  0
  134.5260   75.0450  225.0620 C   0  0  0  0  0  0  0  0  0  0  0  0
  134.0550   73.9910  225.8370 C   0  0  0  0  0  0  0  0  0  0  0  0
  134.5090   72.7430  225.5270 C   0  0  0  0  0  0  0  0  0  0  0  0
  134.0400   71.6810  226.3020 C   0  0  0  0  0  0  0  0  0  0  0  0
  134.4890   70.3900  226.0050 C   0  0  0  0  0  0  0  0  0  0  0  0
  134.0470   69.3430  226.7430 F   0  0  0  0  0  0  0  0  0  0  0  0
  135.3830   70.1750  224.9630 C   0  0  0  0  0  0  0  0  0  0  0  0
  135.8430   71.2290  224.2000 C   0  0  0  0  0  0  0  0  0  0  0  0
  135.3960   72.4980  224.4980 C   0  0  0  0  0  0  0  0  0  0  0  0
  135.8270   73.5460  223.7730 N   0  0  0  0  0  0  0  0  0  0  0  0
  139.4700   75.4150  221.6610 C   0  0  0  0  0  0  0  0  0  0  0  0
  140.0640   75.8790  222.7160 O   0  0  0  0  0  0  0  0  0  0  0  0
  139.2830   73.9730  221.6240 C   0  0  1  0  0  0  0  0  0  0  0  0
  137.9860   73.4930  221.0100 C   0  0  0  0  0  0  0  0  0  0  0  0
  137.7520   72.1120  221.5890 C   0  0  0  0  0  0  0  0  0  0  0  0
  138.9010   71.1830  221.3840 C   0  0  2  0  0  0  0  0  0  0  0  0
  138.8220   70.1210  222.4220 C   0  0  0  0  0  0  0  0  0  0  0  0
  138.4300   68.9470  222.1590 O   0  0  0  0  0  0  0  0  0  0  0  0
  139.2140   70.4840  223.7410 N   0  0  0  0  0  0  0  0  0  0  0  0
  139.1690   69.4960  224.8290 C   0  0  0  0  0  0  0  0  0  0  0  0
  139.8240   70.0890  226.0410 C   0  0  0  0  0  0  0  0  0  0  0  0
  139.8230   69.3930  227.2540 C   0  0  0  0  0  0  0  0  0  0  0  0
  140.4440   69.9960  228.3340 C   0  0  0  0  0  0  0  0  0  0  0  0
  141.0260   71.2340  228.1750 C   0  0  0  0  0  0  0  0  0  0  0  0
  141.0190   71.9090  226.9710 C   0  0  0  0  0  0  0  0  0  0  0  0
  140.4060   71.3030  225.9220 N   0  0  0  0  0  0  0  0  0  0  0  0
  140.2690   71.7720  221.4430 C   0  0  0  0  0  0  0  0  0  0  0  0
  140.3520   73.1830  220.9120 C   0  0  0  0  0  0  0  0  0  0  0  0
  140.7754   77.3641  219.9929 H   0  0  0  0  0  0  0  0  0  0  0  0
  140.2050   75.9853  218.9928 H   0  0  0  0  0  0  0  0  0  0  0  0
  139.2929   77.5328  218.9928 H   0  0  0  0  0  0  0  0  0  0  0  0
  137.6556   77.8112  220.1507 H   0  0  0  0  0  0  0  0  0  0  0  0
  136.9951   76.2012  220.5903 H   0  0  0  0  0  0  0  0  0  0  0  0
  138.4685   77.9150  222.6403 H   0  0  0  0  0  0  0  0  0  0  0  0
  136.7390   78.1692  222.3315 H   0  0  0  0  0  0  0  0  0  0  0  0
  137.9890   75.6300  223.4710 H   0  0  0  0  0  0  0  0  0  0  0  0
  134.1909   76.0719  225.2696 H   0  0  0  0  0  0  0  0  0  0  0  0
  133.3478   74.1564  226.6632 H   0  0  0  0  0  0  0  0  0  0  0  0
  133.3337   71.8553  227.1271 H   0  0  0  0  0  0  0  0  0  0  0  0
  135.7277   69.1536  224.7440 H   0  0  0  0  0  0  0  0  0  0  0  0
  136.5494   71.0602  223.3739 H   0  0  0  0  0  0  0  0  0  0  0  0
  139.3080   73.7821  222.7070 H   0  0  0  0  0  0  0  0  0  0  0  0
  138.0750   73.4409  219.9148 H   0  0  0  0  0  0  0  0  0  0  0  0
  137.1521   74.1754  221.2311 H   0  0  0  0  0  0  0  0  0  0  0  0
  136.8625   71.6783  221.1087 H   0  0  0  0  0  0  0  0  0  0  0  0
  137.6203   72.2322  222.6745 H   0  0  0  0  0  0  0  0  0  0  0  0
  138.7895   70.8241  220.3502 H   0  0  0  0  0  0  0  0  0  0  0  0
  139.5390   71.4630  223.9570 H   0  0  0  0  0  0  0  0  0  0  0  0
  138.1229   69.2449  225.0585 H   0  0  0  0  0  0  0  0  0  0  0  0
  139.6972   68.5797  224.5267 H   0  0  0  0  0  0  0  0  0  0  0  0
  139.3475   68.4054  227.3461 H   0  0  0  0  0  0  0  0  0  0  0  0
  140.4724   69.4909  229.3107 H   0  0  0  0  0  0  0  0  0  0  0  0
  141.5155   71.7032  229.0412 H   0  0  0  0  0  0  0  0  0  0  0  0
  141.4906   72.8972  226.8657 H   0  0  0  0  0  0  0  0  0  0  0  0
  140.9445   71.1385  220.8495 H   0  0  0  0  0  0  0  0  0  0  0  0
  140.5527   71.8137  222.5050 H   0  0  0  0  0  0  0  0  0  0  0  0
  140.1716   73.1917  219.8269 H   0  0  0  0  0  0  0  0  0  0  0  0
  141.3483   73.6153  221.0866 H   0  0  0  0  0  0  0  0  0  0  0  0
  1  2  1  0
  2  3  1  0
  3  4  1  0
  4  5  1  0
  5  6  1  0
  6  7  2  0
  6  8  1  0
  8  9  2  0
  9 10  1  0
 10 11  2  0
 11 12  1  0
 12 13  2  0
 13 14  1  0
 13 15  1  0
 15 16  2  0
 16 17  1  0
 17 18  2  0
  2 19  1  0
 19 20  2  0
 19 21  1  0
 21 22  1  0
 22 23  1  0
 23 24  1  0
 24 25  1  0
 25 26  2  0
 25 27  1  0
 27 28  1  0
 28 29  1  0
 29 30  2  0
 30 31  1  0
 31 32  2  0
 32 33  1  0
 33 34  2  0
 24 35  1  0
 35 36  1  0
 18  8  1  0
 36 21  1  0
 17 11  1  0
 34 29  1  0
  1 37  1  0
  1 38  1  0
  1 39  1  0
  3 40  1  0
  3 41  1  0
  4 42  1  0
  4 43  1  0
  5 44  1  0
  9 45  1  0
 10 46  1  0
 12 47  1  0
 15 48  1  0
 16 49  1  0
 21 50  1  1
 22 51  1  0
 22 52  1  0
 23 53  1  0
 23 54  1  0
 24 55  1  6
 27 56  1  0
 28 57  1  0
 28 58  1  0
 30 59  1  0
 31 60  1  0
 32 61  1  0
 33 62  1  0
 35 63  1  0
 35 64  1  0
 36 65  1  0
 36 66  1  0
M  END
>  <smiles>  (2) 
CN(CCNC(=O)c1ccc2cc(F)ccc2n1)C(=O)[C@H]1CC[C@H](C(=O)NCc2ccccn2)CC1

>  <score_type>  (2) 
oracle

>  <origin>  (2) 
autodockgpu

>  <m_score__min__energy>  (2) 
-8.8699999999999992

>  <m_primary>  (2) 
energy

>  <rmsd>  (2) 
7.809974217283996

>  <m_score__min__rmsd>  (2) 
7.809974217283996

>  <meeko>  (2) 
{"free_energy": -6.38, "intermolecular_energy": -9.06, "internal_energy": -3.96, "cluster_size": 1, "cluster_id": 15, "rank_in_cluster": 1}

>  <energy>  (2) 
-8.65

>  <cluster_rmsd>  (2) 
1.14

>  <cluster>  (2) 
1

$$$$

     RDKit          3D

 66 69  0  0  0  0  0  0  0  0999 V2000
  143.7140   77.1480  216.0270 C   0  0  0  0  0  0  0  0  0  0  0  0
  142.7600   76.0790  216.0350 N   0  0  0  0  0  0  0  0  0  0  0  0
  141.5530   76.2740  215.2210 C   0  0  0  0  0  0  0  0  0  0  0  0
  140.3780   76.5890  216.1330 C   0  0  0  0  0  0  0  0  0  0  0  0
  140.8370   77.6140  217.0610 N   0  0  0  0  0  0  0  0  0  0  0  0
  140.6300   77.3520  218.4450 C   0  0  0  0  0  0  0  0  0  0  0  0
  140.0640   76.2350  218.7070 O   0  0  0  0  0  0  0  0  0  0  0  0
  141.0340   78.2810  219.4890 C   0  0  0  0  0  0  0  0  0  0  0  0
  141.3870   79.5640  219.0940 C   0  0  0  0  0  0  0  0  0  0  0  0
  141.7860   80.5010  220.0430 C   0  0  0  0  0  0  0  0  0  0  0  0
  141.8070   80.0940  221.3440 C   0  0  0  0  0  0  0  0  0  0  0  0
  142.2060   81.0280  222.3010 C   0  0  0  0  0  0  0  0  0  0  0  0
  142.2370   80.6370  223.6430 C   0  0  0  0  0  0  0  0  0  0  0  0
  142.6200   81.5280  224.5900 F   0  0  0  0  0  0  0  0  0  0  0  0
  141.8780   79.3470  224.0120 C   0  0  0  0  0  0  0  0  0  0  0  0
  141.4840   78.4260  223.0610 C   0  0  0  0  0  0  0  0  0  0  0  0
  141.4560   78.8190  221.7410 C   0  0  0  0  0  0  0  0  0  0  0  0
  141.0770   77.9440  220.7910 N   0  0  0  0  0  0  0  0  0  0  0  0
  142.8650   74.8680  216.7390 C   0  0  0  0  0  0  0  0  0  0  0  0
  143.3740   73.8760  216.0780 O   0  0  0  0  0  0  0  0  0  0  0  0
  142.4760   74.5790  218.1110 C   0  0  1  0  0  0  0  0  0  0  0  0
  142.4780   73.1170  218.5020 C   0  0  0  0  0  0  0  0  0  0  0  0
  141.5300   73.0130  219.6790 C   0  0  0  0  0  0  0  0  0  0  0  0
  141.8710   73.9400  220.7970 C   0  0  2  0  0  0  0  0  0  0  0  0
  140.6360   74.1690  221.5940 C   0  0  0  0  0  0  0  0  0  0  0  0
  140.2520   73.3620  222.4900 O   0  0  0  0  0  0  0  0  0  0  0  0
  139.8960   75.3500  221.3060 N   0  0  0  0  0  0  0  0  0  0  0  0
  138.6640   75.6560  222.0480 C   0  0  0  0  0  0  0  0  0  0  0  0
  138.3590   77.1140  221.8860 C   0  0  0  0  0  0  0  0  0  0  0  0
  138.2420   77.9390  223.0090 C   0  0  0  0  0  0  0  0  0  0  0  0
  137.9580   79.2760  222.7910 C   0  0  0  0  0  0  0  0  0  0  0  0
  137.8040   79.7330  221.5010 C   0  0  0  0  0  0  0  0  0  0  0  0
  137.9230   78.9080  220.4020 C   0  0  0  0  0  0  0  0  0  0  0  0
  138.2010   77.5990  220.6340 N   0  0  0  0  0  0  0  0  0  0  0  0
  142.4230   75.2740  220.4260 C   0  0  0  0  0  0  0  0  0  0  0  0
  143.2850   75.2580  219.1870 C   0  0  0  0  0  0  0  0  0  0  0  0
  143.9620   77.4259  217.0620 H   0  0  0  0  0  0  0  0  0  0  0  0
  144.6263   76.8214  215.5064 H   0  0  0  0  0  0  0  0  0  0  0  0
  143.2861   78.0174  215.5064 H   0  0  0  0  0  0  0  0  0  0  0  0
  141.7112   77.1097  214.5234 H   0  0  0  0  0  0  0  0  0  0  0  0
  141.3413   75.3579  214.6500 H   0  0  0  0  0  0  0  0  0  0  0  0
  139.5288   76.9637  215.5428 H   0  0  0  0  0  0  0  0  0  0  0  0
  140.0389   75.6904  216.6692 H   0  0  0  0  0  0  0  0  0  0  0  0
  141.2940   78.5020  216.7540 H   0  0  0  0  0  0  0  0  0  0  0  0
  141.3514   79.8406  218.0299 H   0  0  0  0  0  0  0  0  0  0  0  0
  142.0715   81.5238  219.7561 H   0  0  0  0  0  0  0  0  0  0  0  0
  142.4898   82.0490  222.0061 H   0  0  0  0  0  0  0  0  0  0  0  0
  141.9078   79.0559  225.0723 H   0  0  0  0  0  0  0  0  0  0  0  0
  141.1995   77.4037  223.3506 H   0  0  0  0  0  0  0  0  0  0  0  0
  141.4531   74.9818  218.0740 H   0  0  0  0  0  0  0  0  0  0  0  0
  143.4896   72.7981  218.7935 H   0  0  0  0  0  0  0  0  0  0  0  0
  142.1667   72.4706  217.6682 H   0  0  0  0  0  0  0  0  0  0  0  0
  141.5588   71.9815  220.0600 H   0  0  0  0  0  0  0  0  0  0  0  0
  140.5301   73.2943  219.3169 H   0  0  0  0  0  0  0  0  0  0  0  0
  142.6826   73.4361  221.3423 H   0  0  0  0  0  0  0  0  0  0  0  0
  140.2200   76.0190  220.5580 H   0  0  0  0  0  0  0  0  0  0  0  0
  137.8324   75.0567  221.6490 H   0  0  0  0  0  0  0  0  0  0  0  0
  138.7969   75.4156  223.1132 H   0  0  0  0  0  0  0  0  0  0  0  0
  138.3707   77.5408  224.0263 H   0  0  0  0  0  0  0  0  0  0  0  0
  137.8562   79.9674  223.6405 H   0  0  0  0  0  0  0  0  0  0  0  0
  137.5773   80.7974  221.3408 H   0  0  0  0  0  0  0  0  0  0  0  0
  137.7979   79.2944  219.3797 H   0  0  0  0  0  0  0  0  0  0  0  0
  143.0307   75.6427  221.2655 H   0  0  0  0  0  0  0  0  0  0  0  0
  141.5635   75.9249  220.2077 H   0  0  0  0  0  0  0  0  0  0  0  0
  144.2121   74.6971  219.3763 H   0  0  0  0  0  0  0  0  0  0  0  0
  143.5693   76.2775  218.8872 H   0  0  0  0  0  0  0  0  0  0  0  0
  1  2  1  0
  2  3  1  0
  3  4  1  0
  4  5  1  0
  5  6  1  0
  6  7  2  0
  6  8  1  0
  8  9  2  0
  9 10  1  0
 10 11  2  0
 11 12  1  0
 12 13  2  0
 13 14  1  0
 13 15  1  0
 15 16  2  0
 16 17  1  0
 17 18  2  0
  2 19  1  0
 19 20  2  0
 19 21  1  0
 21 22  1  0
 22 23  1  0
 23 24  1  0
 24 25  1  0
 25 26  2  0
 25 27  1  0
 27 28  1  0
 28 29  1  0
 29 30  2  0
 30 31  1  0
 31 32  2  0
 32 33  1  0
 33 34  2  0
 24 35  1  0
 35 36  1  0
 18  8  1  0
 36 21  1  0
 17 11  1  0
 34 29  1  0
  1 37  1  0
  1 38  1  0
  1 39  1  0
  3 40  1  0
  3 41  1  0
  4 42  1  0
  4 43  1  0
  5 44  1  0
  9 45  1  0
 10 46  1  0
 12 47  1  0
 15 48  1  0
 16 49  1  0
 21 50  1  6
 22 51  1  0
 22 52  1  0
 23 53  1  0
 23 54  1  0
 24 55  1  1
 27 56  1  0
 28 57  1  0
 28 58  1  0
 30 59  1  0
 31 60  1  0
 32 61  1  0
 33 62  1  0
 35 63  1  0
 35 64  1  0
 36 65  1  0
 36 66  1  0
M  END
>  <smiles>  (3) 
CN(CCNC(=O)c1ccc2cc(F)ccc2n1)C(=O)[C@H]1CC[C@H](C(=O)NCc2ccccn2)CC1

>  <score_type>  (3) 
oracle

>  <origin>  (3) 
autodockgpu

>  <m_score__min__energy>  (3) 
-8.8699999999999992

>  <m_primary>  (3) 
energy

>  <rmsd>  (3) 
6.2220083871442045

>  <m_score__min__rmsd>  (3) 
6.2220083871442045

>  <meeko>  (3) 
{"free_energy": -4.95, "intermolecular_energy": -7.63, "internal_energy": -5.65, "cluster_size": 4, "cluster_id": 14, "rank_in_cluster": 4}

>  <energy>  (3) 
-8.58

>  <cluster_rmsd>  (3) 
0.98

>  <cluster>  (3) 
1

$$$$

     RDKit          3D

 66 69  0  0  0  0  0  0  0  0999 V2000
  138.0570   75.2160  220.3980 C   0  0  0  0  0  0  0  0  0  0  0  0
  138.9570   74.1060  220.2880 N   0  0  0  0  0  0  0  0  0  0  0  0
  139.4170   73.7700  218.9340 C   0  0  0  0  0  0  0  0  0  0  0  0
  140.9210   73.9780  218.8480 C   0  0  0  0  0  0  0  0  0  0  0  0
  141.2420   75.0590  219.7700 N   0  0  0  0  0  0  0  0  0  0  0  0
  141.0960   76.3830  219.2670 C   0  0  0  0  0  0  0  0  0  0  0  0
  140.6930   76.4610  218.0550 O   0  0  0  0  0  0  0  0  0  0  0  0
  141.3800   77.5640  220.0680 C   0  0  0  0  0  0  0  0  0  0  0  0
  141.5680   78.7610  219.3900 C   0  0  0  0  0  0  0  0  0  0  0  0
  141.8460   79.9260  220.0970 C   0  0  0  0  0  0  0  0  0  0  0  0
  141.9200   79.8240  221.4540 C   0  0  0  0  0  0  0  0  0  0  0  0
  142.2000   80.9900  222.1690 C   0  0  0  0  0  0  0  0  0  0  0  0
  142.2820   80.9140  223.5630 C   0  0  0  0  0  0  0  0  0  0  0  0
  142.5510   82.0330  224.2790 F   0  0  0  0  0  0  0  0  0  0  0  0
  142.0900   79.7040  224.2170 C   0  0  0  0  0  0  0  0  0  0  0  0
  141.8140   78.5540  223.5050 C   0  0  0  0  0  0  0  0  0  0  0  0
  141.7340   78.6360  222.1320 C   0  0  0  0  0  0  0  0  0  0  0  0
  141.4670   77.5320  221.4100 N   0  0  0  0  0  0  0  0  0  0  0  0
  139.4410   73.3120  221.3400 C   0  0  0  0  0  0  0  0  0  0  0  0
  140.2650   73.8980  222.1510 O   0  0  0  0  0  0  0  0  0  0  0  0
  139.1420   71.9210  221.6400 C   0  0  1  0  0  0  0  0  0  0  0  0
  137.6730   71.5730  221.7520 C   0  0  0  0  0  0  0  0  0  0  0  0
  137.6190   70.3210  222.6050 C   0  0  0  0  0  0  0  0  0  0  0  0
  138.4670   69.2110  222.0810 C   0  0  2  0  0  0  0  0  0  0  0  0
  138.7860   68.3040  223.2150 C   0  0  0  0  0  0  0  0  0  0  0  0
  138.8100   67.0450  223.0860 O   0  0  0  0  0  0  0  0  0  0  0  0
  139.0700   68.9170  224.4670 N   0  0  0  0  0  0  0  0  0  0  0  0
  139.3970   68.0950  225.6410 C   0  0  0  0  0  0  0  0  0  0  0  0
  140.1120   68.9530  226.6410 C   0  0  0  0  0  0  0  0  0  0  0  0
  140.7100   68.3760  227.7660 C   0  0  0  0  0  0  0  0  0  0  0  0
  141.3530   69.2240  228.6510 C   0  0  0  0  0  0  0  0  0  0  0  0
  141.3780   70.5770  228.3950 C   0  0  0  0  0  0  0  0  0  0  0  0
  140.7840   71.1320  227.2800 C   0  0  0  0  0  0  0  0  0  0  0  0
  140.1570   70.2860  226.4230 N   0  0  0  0  0  0  0  0  0  0  0  0
  139.7540   69.5900  221.4300 C   0  0  0  0  0  0  0  0  0  0  0  0
  139.6990   70.9000  220.6810 C   0  0  0  0  0  0  0  0  0  0  0  0
  137.8769   75.4381  221.4602 H   0  0  0  0  0  0  0  0  0  0  0  0
  138.4993   76.0965  219.9091 H   0  0  0  0  0  0  0  0  0  0  0  0
  137.1041   74.9652  219.9091 H   0  0  0  0  0  0  0  0  0  0  0  0
  139.1784   72.7187  218.7152 H   0  0  0  0  0  0  0  0  0  0  0  0
  138.9129   74.4183  218.2021 H   0  0  0  0  0  0  0  0  0  0  0  0
  141.4492   73.0588  219.1414 H   0  0  0  0  0  0  0  0  0  0  0  0
  141.2305   74.2251  217.8218 H   0  0  0  0  0  0  0  0  0  0  0  0
  141.5650   74.8990  220.7500 H   0  0  0  0  0  0  0  0  0  0  0  0
  141.4970   78.7879  218.2926 H   0  0  0  0  0  0  0  0  0  0  0  0
  141.9993   80.8868  219.5838 H   0  0  0  0  0  0  0  0  0  0  0  0
  142.3526   81.9466  221.6478 H   0  0  0  0  0  0  0  0  0  0  0  0
  142.1586   79.6615  225.3140 H   0  0  0  0  0  0  0  0  0  0  0  0
  141.6616   77.5949  224.0216 H   0  0  0  0  0  0  0  0  0  0  0  0
  139.6443   71.8582  222.6166 H   0  0  0  0  0  0  0  0  0  0  0  0
  137.2466   71.3791  220.7567 H   0  0  0  0  0  0  0  0  0  0  0  0
  137.0909   72.3947  222.1947 H   0  0  0  0  0  0  0  0  0  0  0  0
  136.5764   69.9730  222.6481 H   0  0  0  0  0  0  0  0  0  0  0  0
  138.0094   70.5873  223.5983 H   0  0  0  0  0  0  0  0  0  0  0  0
  137.8661   68.7530  221.2815 H   0  0  0  0  0  0  0  0  0  0  0  0
  139.0480   69.9660  224.5710 H   0  0  0  0  0  0  0  0  0  0  0  0
  138.4719   67.6997  226.0860 H   0  0  0  0  0  0  0  0  0  0  0  0
  140.0375   67.2518  225.3430 H   0  0  0  0  0  0  0  0  0  0  0  0
  140.6709   67.2907  227.9406 H   0  0  0  0  0  0  0  0  0  0  0  0
  141.8399   68.8207  229.5512 H   0  0  0  0  0  0  0  0  0  0  0  0
  141.8911   71.2406  229.1066 H   0  0  0  0  0  0  0  0  0  0  0  0
  140.8171   72.2155  227.0932 H   0  0  0  0  0  0  0  0  0  0  0  0
  140.0296   68.7965  220.7198 H   0  0  0  0  0  0  0  0  0  0  0  0
  140.4942   69.7132  222.2343 H   0  0  0  0  0  0  0  0  0  0  0  0
  139.0439   70.8076  219.8022 H   0  0  0  0  0  0  0  0  0  0  0  0
  140.6965   71.1946  220.3230 H   0  0  0  0  0  0  0  0  0  0  0  0
  1  2  1  0
  2  3  1  0
  3  4  1  0
  4  5  1  0
  5  6  1  0
  6  7  2  0
  6  8  1  0
  8  9  2  0
  9 10  1  0
 10 11  2  0
 11 12  1  0
 12 13  2  0
 13 14  1  0
 13 15  1  0
 15 16  2  0
 16 17  1  0
 17 18  2  0
  2 19  1  0
 19 20  2  0
 19 21  1  0
 21 22  1  0
 22 23  1  0
 23 24  1  0
 24 25  1  0
 25 26  2  0
 25 27  1  0
 27 28  1  0
 28 29  1  0
 29 30  2  0
 30 31  1  0
 31 32  2  0
 32 33  1  0
 33 34  2  0
 24 35  1  0
 35 36  1  0
 18  8  1  0
 36 21  1  0
 17 11  1  0
 34 29  1  0
  1 37  1  0
  1 38  1  0
  1 39  1  0
  3 40  1  0
  3 41  1  0
  4 42  1  0
  4 43  1  0
  5 44  1  0
  9 45  1  0
 10 46  1  0
 12 47  1  0
 15 48  1  0
 16 49  1  0
 21 50  1  1
 22 51  1  0
 22 52  1  0
 23 53  1  0
 23 54  1  0
 24 55  1  6
 27 56  1  0
 28 57  1  0
 28 58  1  0
 30 59  1  0
 31 60  1  0
 32 61  1  0
 33 62  1  0
 35 63  1  0
 35 64  1  0
 36 65  1  0
 36 66  1  0
M  END
>  <smiles>  (4) 
CN(CCNC(=O)c1ccc2cc(F)ccc2n1)C(=O)[C@H]1CC[C@H](C(=O)NCc2ccccn2)CC1

>  <score_type>  (4) 
oracle

>  <origin>  (4) 
autodockgpu

>  <m_score__min__energy>  (4) 
-8.8699999999999992

>  <m_primary>  (4) 
energy

>  <rmsd>  (4) 
3.6021246744451676

>  <m_score__min__rmsd>  (4) 
3.6021246744451676

>  <meeko>  (4) 
{"free_energy": -7.22, "intermolecular_energy": -9.91, "internal_energy": -3.27, "cluster_size": 1, "cluster_id": 10, "rank_in_cluster": 1}

>  <energy>  (4) 
-8.24

>  <cluster_rmsd>  (4) 
0.76

>  <cluster>  (4) 
1

$$$$

     RDKit          3D

 66 69  0  0  0  0  0  0  0  0999 V2000
  138.7910   75.8120  220.9330 C   0  0  0  0  0  0  0  0  0  0  0  0
  139.2910   74.4870  220.7130 N   0  0  0  0  0  0  0  0  0  0  0  0
  138.3890   73.5550  220.0240 C   0  0  0  0  0  0  0  0  0  0  0  0
  137.3930   72.9890  221.0230 C   0  0  0  0  0  0  0  0  0  0  0  0
  138.1420   72.7090  222.2420 N   0  0  0  0  0  0  0  0  0  0  0  0
  138.2720   71.3380  222.6030 C   0  0  0  0  0  0  0  0  0  0  0  0
  137.7110   70.5110  221.8040 O   0  0  0  0  0  0  0  0  0  0  0  0
  138.9890   70.9040  223.7910 C   0  0  0  0  0  0  0  0  0  0  0  0
  139.9650   71.7560  224.2900 C   0  0  0  0  0  0  0  0  0  0  0  0
  140.6900   71.3990  225.4230 C   0  0  0  0  0  0  0  0  0  0  0  0
  140.3930   70.1980  225.9950 C   0  0  0  0  0  0  0  0  0  0  0  0
  141.1170   69.8340  227.1310 C   0  0  0  0  0  0  0  0  0  0  0  0
  140.8330   68.6060  227.7380 C   0  0  0  0  0  0  0  0  0  0  0  0
  141.5230   68.2310  228.8430 F   0  0  0  0  0  0  0  0  0  0  0  0
  139.8520   67.7710  227.2180 C   0  0  0  0  0  0  0  0  0  0  0  0
  139.1380   68.1370  226.0940 C   0  0  0  0  0  0  0  0  0  0  0  0
  139.4240   69.3470  225.5020 C   0  0  0  0  0  0  0  0  0  0  0  0
  138.7460   69.7310  224.4050 N   0  0  0  0  0  0  0  0  0  0  0  0
  140.5510   73.9950  221.0890 C   0  0  0  0  0  0  0  0  0  0  0  0
  140.6760   73.6690  222.3370 O   0  0  0  0  0  0  0  0  0  0  0  0
  141.7340   73.8040  220.2640 C   0  0  1  0  0  0  0  0  0  0  0  0
  141.4780   73.3930  218.8310 C   0  0  0  0  0  0  0  0  0  0  0  0
  142.7510   72.7090  218.3730 C   0  0  0  0  0  0  0  0  0  0  0  0
  143.9710   73.5490  218.5550 C   0  0  2  0  0  0  0  0  0  0  0  0
  145.1470   72.6400  218.6240 C   0  0  0  0  0  0  0  0  0  0  0  0
  146.3210   73.0360  218.3680 O   0  0  0  0  0  0  0  0  0  0  0  0
  144.8930   71.2910  218.9970 N   0  0  0  0  0  0  0  0  0  0  0  0
  145.9980   70.3250  219.0920 C   0  0  0  0  0  0  0  0  0  0  0  0
  145.4230   68.9410  219.1170 C   0  0  0  0  0  0  0  0  0  0  0  0
  146.2630   67.8260  219.0400 C   0  0  0  0  0  0  0  0  0  0  0  0
  145.6690   66.5770  219.0670 C   0  0  0  0  0  0  0  0  0  0  0  0
  144.2980   66.4820  219.1660 C   0  0  0  0  0  0  0  0  0  0  0  0
  143.4810   67.5910  219.2420 C   0  0  0  0  0  0  0  0  0  0  0  0
  144.0810   68.8090  219.2140 N   0  0  0  0  0  0  0  0  0  0  0  0
  144.0130   74.4330  219.7550 C   0  0  0  0  0  0  0  0  0  0  0  0
  142.6670   74.9840  220.1570 C   0  0  0  0  0  0  0  0  0  0  0  0
  138.7193   76.0020  222.0141 H   0  0  0  0  0  0  0  0  0  0  0  0
  139.4753   76.5426  220.4769 H   0  0  0  0  0  0  0  0  0  0  0  0
  137.7947   75.9084  220.4769 H   0  0  0  0  0  0  0  0  0  0  0  0
  137.8484   74.0877  219.2278 H   0  0  0  0  0  0  0  0  0  0  0  0
  138.9739   72.7350  219.5819 H   0  0  0  0  0  0  0  0  0  0  0  0
  136.5990   73.7229  221.2251 H   0  0  0  0  0  0  0  0  0  0  0  0
  136.9129   72.0791  220.6336 H   0  0  0  0  0  0  0  0  0  0  0  0
  138.5690   73.4550  222.8350 H   0  0  0  0  0  0  0  0  0  0  0  0
  140.1655   72.7146  223.7891 H   0  0  0  0  0  0  0  0  0  0  0  0
  141.4679   72.0566  225.8383 H   0  0  0  0  0  0  0  0  0  0  0  0
  141.8933   70.4975  227.5399 H   0  0  0  0  0  0  0  0  0  0  0  0
  139.6418   66.8082  227.7067 H   0  0  0  0  0  0  0  0  0  0  0  0
  138.3598   67.4780  225.6816 H   0  0  0  0  0  0  0  0  0  0  0  0
  142.1966   72.9875  220.8379 H   0  0  0  0  0  0  0  0  0  0  0  0
  141.2707   74.2761  218.2088 H   0  0  0  0  0  0  0  0  0  0  0  0
  140.6047   72.7295  218.7462 H   0  0  0  0  0  0  0  0  0  0  0  0
  142.6514   72.4649  217.3051 H   0  0  0  0  0  0  0  0  0  0  0  0
  142.8791   71.8099  218.9936 H   0  0  0  0  0  0  0  0  0  0  0  0
  143.9698   74.2344  217.6946 H   0  0  0  0  0  0  0  0  0  0  0  0
  143.9140   70.9650  219.2090 H   0  0  0  0  0  0  0  0  0  0  0  0
  146.6619   70.4347  218.2218 H   0  0  0  0  0  0  0  0  0  0  0  0
  146.5784   70.5072  220.0084 H   0  0  0  0  0  0  0  0  0  0  0  0
  147.3545   67.9377  218.9610 H   0  0  0  0  0  0  0  0  0  0  0  0
  146.2856   65.6679  219.0100 H   0  0  0  0  0  0  0  0  0  0  0  0
  143.8372   65.4834  219.1852 H   0  0  0  0  0  0  0  0  0  0  0  0
  142.3883   67.4927  219.3220 H   0  0  0  0  0  0  0  0  0  0  0  0
  144.6826   75.2785  219.5389 H   0  0  0  0  0  0  0  0  0  0  0  0
  144.3683   73.8159  220.5934 H   0  0  0  0  0  0  0  0  0  0  0  0
  142.3022   75.6886  219.3951 H   0  0  0  0  0  0  0  0  0  0  0  0
  142.7296   75.5285  221.1107 H   0  0  0  0  0  0  0  0  0  0  0  0
  1  2  1  0
  2  3  1  0
  3  4  1  0
  4  5  1  0
  5  6  1  0
  6  7  2  0
  6  8  1  0
  8  9  2  0
  9 10  1  0
 10 11  2  0
 11 12  1  0
 12 13  2  0
 13 14  1  0
 13 15  1  0
 15 16  2  0
 16 17  1  0
 17 18  2  0
  2 19  1  0
 19 20  2  0
 19 21  1  0
 21 22  1  0
 22 23  1  0
 23 24  1  0
 24 25  1  0
 25 26  2  0
 25 27  1  0
 27 28  1  0
 28 29  1  0
 29 30  2  0
 30 31  1  0
 31 32  2  0
 32 33  1  0
 33 34  2  0
 24 35  1  0
 35 36  1  0
 18  8  1  0
 36 21  1  0
 17 11  1  0
 34 29  1  0
  1 37  1  0
  1 38  1  0
  1 39  1  0
  3 40  1  0
  3 41  1  0
  4 42  1  0
  4 43  1  0
  5 44  1  0
  9 45  1  0
 10 46  1  0
 12 47  1  0
 15 48  1  0
 16 49  1  0
 21 50  1  1
 22 51  1  0
 22 52  1  0
 23 53  1  0
 23 54  1  0
 24 55  1  6
 27 56  1  0
 28 57  1  0
 28 58  1  0
 30 59  1  0
 31 60  1  0
 32 61  1  0
 33 62  1  0
 35 63  1  0
 35 64  1  0
 36 65  1  0
 36 66  1  0
M  END
>  <smiles>  (5) 
CN(CCNC(=O)c1ccc2cc(F)ccc2n1)C(=O)[C@H]1CC[C@H](C(=O)NCc2ccccn2)CC1

>  <score_type>  (5) 
oracle

>  <origin>  (5) 
autodockgpu

>  <m_score__min__energy>  (5) 
-8.8699999999999992

>  <m_primary>  (5) 
energy

>  <rmsd>  (5) 
9.384195045169115

>  <m_score__min__rmsd>  (5) 
9.384195045169115

>  <meeko>  (5) 
{"free_energy": -8.58, "intermolecular_energy": -11.27, "internal_energy": -3.0, "cluster_size": 4, "cluster_id": 1, "rank_in_cluster": 3}

>  <energy>  (5) 
-8.28

>  <cluster_rmsd>  (5) 
0.0

>  <cluster>  (5) 
2

$$$$

     RDKit          3D

 66 69  0  0  0  0  0  0  0  0999 V2000
  138.8240   75.7760  219.1360 C   0  0  0  0  0  0  0  0  0  0  0  0
  139.3400   74.9850  220.2140 N   0  0  0  0  0  0  0  0  0  0  0  0
  139.2930   73.5280  220.0360 C   0  0  0  0  0  0  0  0  0  0  0  0
  138.1300   72.9620  220.8330 C   0  0  0  0  0  0  0  0  0  0  0  0
  138.6380   72.6920  222.1720 N   0  0  0  0  0  0  0  0  0  0  0  0
  139.0010   71.3430  222.4500 C   0  0  0  0  0  0  0  0  0  0  0  0
  138.8370   70.5260  221.4790 O   0  0  0  0  0  0  0  0  0  0  0  0
  139.5220   70.9200  223.7400 C   0  0  0  0  0  0  0  0  0  0  0  0
  140.3310   71.8180  224.4230 C   0  0  0  0  0  0  0  0  0  0  0  0
  140.8640   71.4740  225.6620 C   0  0  0  0  0  0  0  0  0  0  0  0
  140.5530   70.2400  226.1480 C   0  0  0  0  0  0  0  0  0  0  0  0
  141.0850   69.8890  227.3900 C   0  0  0  0  0  0  0  0  0  0  0  0
  140.7820   68.6270  227.9130 C   0  0  0  0  0  0  0  0  0  0  0  0
  141.2870   68.2650  229.1180 F   0  0  0  0  0  0  0  0  0  0  0  0
  139.9690   67.7470  227.2090 C   0  0  0  0  0  0  0  0  0  0  0  0
  139.4450   68.1000  225.9820 C   0  0  0  0  0  0  0  0  0  0  0  0
  139.7490   69.3440  225.4730 C   0  0  0  0  0  0  0  0  0  0  0  0
  139.2540   69.7160  224.2780 N   0  0  0  0  0  0  0  0  0  0  0  0
  139.8830   75.4630  221.4180 C   0  0  0  0  0  0  0  0  0  0  0  0
  140.4270   74.5690  222.1820 O   0  0  0  0  0  0  0  0  0  0  0  0
  139.9160   76.8280  221.9210 C   0  0  1  0  0  0  0  0  0  0  0  0
  138.6950   77.2720  222.6960 C   0  0  0  0  0  0  0  0  0  0  0  0
  138.6830   78.7840  222.5990 C   0  0  0  0  0  0  0  0  0  0  0  0
  139.9550   79.4160  223.0560 C   0  0  2  0  0  0  0  0  0  0  0  0
  140.0580   80.7550  222.4160 C   0  0  0  0  0  0  0  0  0  0  0  0
  139.2170   81.6750  222.6370 O   0  0  0  0  0  0  0  0  0  0  0  0
  141.1550   80.9610  221.5340 N   0  0  0  0  0  0  0  0  0  0  0  0
  141.3340   82.2560  220.8600 C   0  0  0  0  0  0  0  0  0  0  0  0
  141.7930   82.0040  219.4550 C   0  0  0  0  0  0  0  0  0  0  0  0
  142.1400   80.7120  219.0480 C   0  0  0  0  0  0  0  0  0  0  0  0
  142.5560   80.5470  217.7380 C   0  0  0  0  0  0  0  0  0  0  0  0
  142.6110   81.6400  216.9030 C   0  0  0  0  0  0  0  0  0  0  0  0
  142.2630   82.9100  217.3180 C   0  0  0  0  0  0  0  0  0  0  0  0
  141.8580   83.0540  218.6060 N   0  0  0  0  0  0  0  0  0  0  0  0
  141.2190   78.6800  222.7680 C   0  0  0  0  0  0  0  0  0  0  0  0
  141.0780   77.1780  222.8160 C   0  0  0  0  0  0  0  0  0  0  0  0
  138.2658   76.6317  219.5436 H   0  0  0  0  0  0  0  0  0  0  0  0
  139.6573   76.1424  218.5185 H   0  0  0  0  0  0  0  0  0  0  0  0
  138.1528   75.1610  218.5185 H   0  0  0  0  0  0  0  0  0  0  0  0
  139.1573   73.2922  218.9702 H   0  0  0  0  0  0  0  0  0  0  0  0
  140.2342   73.0829  220.3909 H   0  0  0  0  0  0  0  0  0  0  0  0
  137.3091   73.6928  220.8783 H   0  0  0  0  0  0  0  0  0  0  0  0
  137.7352   72.0478  220.3657 H   0  0  0  0  0  0  0  0  0  0  0  0
  138.7390   73.4280  222.9060 H   0  0  0  0  0  0  0  0  0  0  0  0
  140.5510   72.8025  223.9845 H   0  0  0  0  0  0  0  0  0  0  0  0
  141.5074   72.1674  226.2234 H   0  0  0  0  0  0  0  0  0  0  0  0
  141.7277   70.5884  227.9448 H   0  0  0  0  0  0  0  0  0  0  0  0
  139.7406   66.7585  227.6342 H   0  0  0  0  0  0  0  0  0  0  0  0
  138.8003   67.4052  225.4238 H   0  0  0  0  0  0  0  0  0  0  0  0
  139.9911   77.3514  220.9564 H   0  0  0  0  0  0  0  0  0  0  0  0
  138.7699   76.9546  223.7465 H   0  0  0  0  0  0  0  0  0  0  0  0
  137.7721   76.8295  222.2930 H   0  0  0  0  0  0  0  0  0  0  0  0
  137.8601   79.1670  223.2205 H   0  0  0  0  0  0  0  0  0  0  0  0
  138.5554   79.0408  221.5370 H   0  0  0  0  0  0  0  0  0  0  0  0
  139.8787   79.4363  224.1532 H   0  0  0  0  0  0  0  0  0  0  0  0
  141.8520   80.1920  221.3520 H   0  0  0  0  0  0  0  0  0  0  0  0
  140.3789   82.8016  220.8457 H   0  0  0  0  0  0  0  0  0  0  0  0
  142.0807   82.8594  221.3970 H   0  0  0  0  0  0  0  0  0  0  0  0
  142.0846   79.8601  219.7416 H   0  0  0  0  0  0  0  0  0  0  0  0
  142.8402   79.5510  217.3675 H   0  0  0  0  0  0  0  0  0  0  0  0
  142.9451   81.4960  215.8649 H   0  0  0  0  0  0  0  0  0  0  0  0
  142.3118   83.7697  216.6335 H   0  0  0  0  0  0  0  0  0  0  0  0
  141.9718   78.9809  223.5115 H   0  0  0  0  0  0  0  0  0  0  0  0
  141.5121   78.9400  221.7402 H   0  0  0  0  0  0  0  0  0  0  0  0
  140.8772   76.8479  223.8459 H   0  0  0  0  0  0  0  0  0  0  0  0
  142.0008   76.6811  222.4822 H   0  0  0  0  0  0  0  0  0  0  0  0
  1  2  1  0
  2  3  1  0
  3  4  1  0
  4  5  1  0
  5  6  1  0
  6  7  2  0
  6  8  1  0
  8  9  2  0
  9 10  1  0
 10 11  2  0
 11 12  1  0
 12 13  2  0
 13 14  1  0
 13 15  1  0
 15 16  2  0
 16 17  1  0
 17 18  2  0
  2 19  1  0
 19 20  2  0
 19 21  1  0
 21 22  1  0
 22 23  1  0
 23 24  1  0
 24 25  1  0
 25 26  2  0
 25 27  1  0
 27 28  1  0
 28 29  1  0
 29 30  2  0
 30 31  1  0
 31 32  2  0
 32 33  1  0
 33 34  2  0
 24 35  1  0
 35 36  1  0
 18  8  1  0
 36 21  1  0
 17 11  1  0
 34 29  1  0
  1 37  1  0
  1 38  1  0
  1 39  1  0
  3 40  1  0
  3 41  1  0
  4 42  1  0
  4 43  1  0
  5 44  1  0
  9 45  1  0
 10 46  1  0
 12 47  1  0
 15 48  1  0
 16 49  1  0
 21 50  1  6
 22 51  1  0
 22 52  1  0
 23 53  1  0
 23 54  1  0
 24 55  1  1
 27 56  1  0
 28 57  1  0
 28 58  1  0
 30 59  1  0
 31 60  1  0
 32 61  1  0
 33 62  1  0
 35 63  1  0
 35 64  1  0
 36 65  1  0
 36 66  1  0
M  END
>  <smiles>  (6) 
CN(CCNC(=O)c1ccc2cc(F)ccc2n1)C(=O)[C@H]1CC[C@H](C(=O)NCc2ccccn2)CC1

>  <score_type>  (6) 
oracle

>  <origin>  (6) 
autodockgpu

>  <m_score__min__energy>  (6) 
-8.8699999999999992

>  <m_primary>  (6) 
energy

>  <rmsd>  (6) 
9.8646943446278

>  <m_score__min__rmsd>  (6) 
9.8646943446278

>  <meeko>  (6) 
{"free_energy": -8.28, "intermolecular_energy": -10.97, "internal_energy": -2.18, "cluster_size": 4, "cluster_id": 2, "rank_in_cluster": 1}

>  <energy>  (6) 
-8.18

>  <cluster_rmsd>  (6) 
1.38

>  <cluster>  (6) 
2

$$$$

     RDKit          3D

 66 69  0  0  0  0  0  0  0  0999 V2000
  140.7990   71.3960  219.5450 C   0  0  0  0  0  0  0  0  0  0  0  0
  140.9660   72.4600  220.4910 N   0  0  0  0  0  0  0  0  0  0  0  0
  140.0030   72.5060  221.5990 C   0  0  0  0  0  0  0  0  0  0  0  0
  138.9730   73.5900  221.3250 C   0  0  0  0  0  0  0  0  0  0  0  0
  139.3790   74.7530  222.1050 N   0  0  0  0  0  0  0  0  0  0  0  0
  139.5360   75.9710  221.3860 C   0  0  0  0  0  0  0  0  0  0  0  0
  139.2980   75.8960  220.1320 O   0  0  0  0  0  0  0  0  0  0  0  0
  139.9370   77.2140  222.0270 C   0  0  0  0  0  0  0  0  0  0  0  0
  138.9550   77.9260  222.7020 C   0  0  0  0  0  0  0  0  0  0  0  0
  139.2710   79.1250  223.3340 C   0  0  0  0  0  0  0  0  0  0  0  0
  140.5650   79.5450  223.2520 C   0  0  0  0  0  0  0  0  0  0  0  0
  140.8900   80.7460  223.8830 C   0  0  0  0  0  0  0  0  0  0  0  0
  142.2100   81.2010  223.8140 C   0  0  0  0  0  0  0  0  0  0  0  0
  142.5490   82.3650  224.4200 F   0  0  0  0  0  0  0  0  0  0  0  0
  143.1750   80.4700  223.1320 C   0  0  0  0  0  0  0  0  0  0  0  0
  142.8490   79.2810  222.5090 C   0  0  0  0  0  0  0  0  0  0  0  0
  141.5460   78.8400  222.5810 C   0  0  0  0  0  0  0  0  0  0  0  0
  141.1970   77.6860  221.9840 N   0  0  0  0  0  0  0  0  0  0  0  0
  141.9540   73.4580  220.4630 C   0  0  0  0  0  0  0  0  0  0  0  0
  142.9850   73.2470  221.2190 O   0  0  0  0  0  0  0  0  0  0  0  0
  141.9720   74.6960  219.7000 C   0  0  1  0  0  0  0  0  0  0  0  0
  143.1120   75.6420  220.0090 C   0  0  0  0  0  0  0  0  0  0  0  0
  142.6260   77.0130  219.5820 C   0  0  0  0  0  0  0  0  0  0  0  0
  142.1640   77.0610  218.1640 C   0  0  2  0  0  0  0  0  0  0  0  0
  141.2270   78.2070  218.0260 C   0  0  0  0  0  0  0  0  0  0  0  0
  141.2220   78.9560  217.0050 O   0  0  0  0  0  0  0  0  0  0  0  0
  140.3230   78.4300  219.1020 N   0  0  0  0  0  0  0  0  0  0  0  0
  139.3600   79.5400  219.0470 C   0  0  0  0  0  0  0  0  0  0  0  0
  139.9170   80.6940  219.8240 C   0  0  0  0  0  0  0  0  0  0  0  0
  139.0770   81.4810  220.6180 C   0  0  0  0  0  0  0  0  0  0  0  0
  139.6550   82.5320  221.3100 C   0  0  0  0  0  0  0  0  0  0  0  0
  141.0080   82.7580  221.1910 C   0  0  0  0  0  0  0  0  0  0  0  0
  141.8250   81.9720  220.4040 C   0  0  0  0  0  0  0  0  0  0  0  0
  141.2430   80.9460  219.7320 N   0  0  0  0  0  0  0  0  0  0  0  0
  141.4770   75.8490  217.6330 C   0  0  0  0  0  0  0  0  0  0  0  0
  141.9990   74.5510  218.1990 C   0  0  0  0  0  0  0  0  0  0  0  0
  140.6502   70.4477  220.0822 H   0  0  0  0  0  0  0  0  0  0  0  0
  139.9221   71.6012  218.9134 H   0  0  0  0  0  0  0  0  0  0  0  0
  141.6966   71.3226  218.9134 H   0  0  0  0  0  0  0  0  0  0  0  0
  139.4977   71.5329  221.6873 H   0  0  0  0  0  0  0  0  0  0  0  0
  140.5316   72.7289  222.5376 H   0  0  0  0  0  0  0  0  0  0  0  0
  138.9577   73.8376  220.2533 H   0  0  0  0  0  0  0  0  0  0  0  0
  137.9619   73.2576  221.6030 H   0  0  0  0  0  0  0  0  0  0  0  0
  139.5510   74.7200  223.1350 H   0  0  0  0  0  0  0  0  0  0  0  0
  137.9249   77.5417  222.7374 H   0  0  0  0  0  0  0  0  0  0  0  0
  138.5108   79.7074  223.8752 H   0  0  0  0  0  0  0  0  0  0  0  0
  140.1243   81.3223  224.4230 H   0  0  0  0  0  0  0  0  0  0  0  0
  144.2093   80.8420  223.0878 H   0  0  0  0  0  0  0  0  0  0  0  0
  143.6113   78.7005  221.9686 H   0  0  0  0  0  0  0  0  0  0  0  0
  141.0085   75.1051  220.0382 H   0  0  0  0  0  0  0  0  0  0  0  0
  144.0112   75.3589  219.4422 H   0  0  0  0  0  0  0  0  0  0  0  0
  143.3849   75.6187  221.0744 H   0  0  0  0  0  0  0  0  0  0  0  0
  143.4514   77.7297  219.7046 H   0  0  0  0  0  0  0  0  0  0  0  0
  141.7617   77.2635  220.2146 H   0  0  0  0  0  0  0  0  0  0  0  0
  143.0869   77.1487  217.5719 H   0  0  0  0  0  0  0  0  0  0  0  0
  140.3310   77.8040  219.9500 H   0  0  0  0  0  0  0  0  0  0  0  0
  139.1997   79.8402  218.0010 H   0  0  0  0  0  0  0  0  0  0  0  0
  138.3983   79.2253  219.4783 H   0  0  0  0  0  0  0  0  0  0  0  0
  137.9992   81.2733  220.6901 H   0  0  0  0  0  0  0  0  0  0  0  0
  139.0384   83.1809  221.9494 H   0  0  0  0  0  0  0  0  0  0  0  0
  141.4548   83.5971  221.7444 H   0  0  0  0  0  0  0  0  0  0  0  0
  142.9043   82.1689  220.3245 H   0  0  0  0  0  0  0  0  0  0  0  0
  141.6076   75.8277  216.5410 H   0  0  0  0  0  0  0  0  0  0  0  0
  140.4210   75.9249  217.9314 H   0  0  0  0  0  0  0  0  0  0  0  0
  143.0277   74.3722  217.8531 H   0  0  0  0  0  0  0  0  0  0  0  0
  141.3855   73.6990  217.8708 H   0  0  0  0  0  0  0  0  0  0  0  0
  1  2  1  0
  2  3  1  0
  3  4  1  0
  4  5  1  0
  5  6  1  0
  6  7  2  0
  6  8  1  0
  8  9  2  0
  9 10  1  0
 10 11  2  0
 11 12  1  0
 12 13  2  0
 13 14  1  0
 13 15  1  0
 15 16  2  0
 16 17  1  0
 17 18  2  0
  2 19  1  0
 19 20  2  0
 19 21  1  0
 21 22  1  0
 22 23  1  0
 23 24  1  0
 24 25  1  0
 25 26  2  0
 25 27  1  0
 27 28  1  0
 28 29  1  0
 29 30  2  0
 30 31  1  0
 31 32  2  0
 32 33  1  0
 33 34  2  0
 24 35  1  0
 35 36  1  0
 18  8  1  0
 36 21  1  0
 17 11  1  0
 34 29  1  0
  1 37  1  0
  1 38  1  0
  1 39  1  0
  3 40  1  0
  3 41  1  0
  4 42  1  0
  4 43  1  0
  5 44  1  0
  9 45  1  0
 10 46  1  0
 12 47  1  0
 15 48  1  0
 16 49  1  0
 21 50  1  6
 22 51  1  0
 22 52  1  0
 23 53  1  0
 23 54  1  0
 24 55  1  6
 27 56  1  0
 28 57  1  0
 28 58  1  0
 30 59  1  0
 31 60  1  0
 32 61  1  0
 33 62  1  0
 35 63  1  0
 35 64  1  0
 36 65  1  0
 36 66  1  0
M  END
>  <smiles>  (7) 
CN(CCNC(=O)c1ccc2cc(F)ccc2n1)C(=O)[C@H]1CC[C@H](C(=O)NCc2ccccn2)CC1

>  <score_type>  (7) 
oracle

>  <origin>  (7) 
autodockgpu

>  <m_score__min__energy>  (7) 
-8.8699999999999992

>  <m_primary>  (7) 
energy

>  <rmsd>  (7) 
6.809703579602828

>  <m_score__min__rmsd>  (7) 
6.809703579602828

>  <meeko>  (7) 
{"free_energy": -5.3, "intermolecular_energy": -7.98, "internal_energy": -5.53, "cluster_size": 10, "cluster_id": 13, "rank_in_cluster": 8}

>  <energy>  (7) 
-8.16

>  <cluster_rmsd>  (7) 
1.11

>  <cluster>  (7) 
2

$$$$

     RDKit          3D

 66 69  0  0  0  0  0  0  0  0999 V2000
  140.3940   67.5750  219.8010 C   0  0  0  0  0  0  0  0  0  0  0  0
  140.2980   68.9160  219.3050 N   0  0  0  0  0  0  0  0  0  0  0  0
  138.9620   69.3670  218.8950 C   0  0  0  0  0  0  0  0  0  0  0  0
  138.0050   69.2380  220.0690 C   0  0  0  0  0  0  0  0  0  0  0  0
  138.5830   70.0130  221.1600 N   0  0  0  0  0  0  0  0  0  0  0  0
  138.8610   69.3010  222.3620 C   0  0  0  0  0  0  0  0  0  0  0  0
  138.5700   68.0560  222.3350 O   0  0  0  0  0  0  0  0  0  0  0  0
  139.4370   69.9380  223.5360 C   0  0  0  0  0  0  0  0  0  0  0  0
  140.0100   71.1900  223.3620 C   0  0  0  0  0  0  0  0  0  0  0  0
  140.5810   71.8520  224.4440 C   0  0  0  0  0  0  0  0  0  0  0  0
  140.5440   71.2160  225.6490 C   0  0  0  0  0  0  0  0  0  0  0  0
  141.1150   71.8750  226.7390 C   0  0  0  0  0  0  0  0  0  0  0  0
  141.0910   71.2440  227.9870 C   0  0  0  0  0  0  0  0  0  0  0  0
  141.6390   71.8650  229.0600 F   0  0  0  0  0  0  0  0  0  0  0  0
  140.5110   69.9900  228.1340 C   0  0  0  0  0  0  0  0  0  0  0  0
  139.9470   69.3430  227.0530 C   0  0  0  0  0  0  0  0  0  0  0  0
  139.9750   69.9700  225.8270 C   0  0  0  0  0  0  0  0  0  0  0  0
  139.4340   69.3650  224.7540 N   0  0  0  0  0  0  0  0  0  0  0  0
  141.3490   69.8380  219.1750 C   0  0  0  0  0  0  0  0  0  0  0  0
  142.3940   69.4120  218.5370 O   0  0  0  0  0  0  0  0  0  0  0  0
  141.4220   71.2070  219.6620 C   0  0  1  0  0  0  0  0  0  0  0  0
  142.7240   71.6020  220.3250 C   0  0  0  0  0  0  0  0  0  0  0  0
  142.3800   72.7710  221.2260 C   0  0  0  0  0  0  0  0  0  0  0  0
  141.7010   73.8890  220.5100 C   0  0  2  0  0  0  0  0  0  0  0  0
  140.9320   74.6750  221.5110 C   0  0  0  0  0  0  0  0  0  0  0  0
  139.9460   74.1890  222.1380 O   0  0  0  0  0  0  0  0  0  0  0  0
  141.3570   76.0140  221.7390 N   0  0  0  0  0  0  0  0  0  0  0  0
  140.6540   76.8620  222.7140 C   0  0  0  0  0  0  0  0  0  0  0  0
  141.2950   78.2170  222.7180 C   0  0  0  0  0  0  0  0  0  0  0  0
  141.5550   78.8700  223.9270 C   0  0  0  0  0  0  0  0  0  0  0  0
  142.1480   80.1190  223.8620 C   0  0  0  0  0  0  0  0  0  0  0  0
  142.4530   80.6590  222.6330 C   0  0  0  0  0  0  0  0  0  0  0  0
  142.1920   80.0030  221.4470 C   0  0  0  0  0  0  0  0  0  0  0  0
  141.6090   78.7790  221.5300 N   0  0  0  0  0  0  0  0  0  0  0  0
  140.7650   73.5210  219.4090 C   0  0  0  0  0  0  0  0  0  0  0  0
  141.1770   72.2890  218.6400 C   0  0  0  0  0  0  0  0  0  0  0  0
  140.3929   67.5899  220.9009 H   0  0  0  0  0  0  0  0  0  0  0  0
  139.5355   66.9887  219.4414 H   0  0  0  0  0  0  0  0  0  0  0  0
  141.3272   67.1170  219.4414 H   0  0  0  0  0  0  0  0  0  0  0  0
  139.0113   70.4183  218.5752 H   0  0  0  0  0  0  0  0  0  0  0  0
  138.6048   68.7476  218.0591 H   0  0  0  0  0  0  0  0  0  0  0  0
  137.0167   69.6390  219.7997 H   0  0  0  0  0  0  0  0  0  0  0  0
  137.8681   68.1853  220.3573 H   0  0  0  0  0  0  0  0  0  0  0  0
  138.7890   71.0340  221.0910 H   0  0  0  0  0  0  0  0  0  0  0  0
  140.0126   71.6594  222.3672 H   0  0  0  0  0  0  0  0  0  0  0  0
  141.0418   72.8445  224.3321 H   0  0  0  0  0  0  0  0  0  0  0  0
  141.5733   72.8678  226.6192 H   0  0  0  0  0  0  0  0  0  0  0  0
  140.5012   69.5076  229.1225 H   0  0  0  0  0  0  0  0  0  0  0  0
  139.4864   68.3507  227.1679 H   0  0  0  0  0  0  0  0  0  0  0  0
  140.5997   71.1596  220.3911 H   0  0  0  0  0  0  0  0  0  0  0  0
  143.4644   71.9036  219.5694 H   0  0  0  0  0  0  0  0  0  0  0  0
  143.1648   70.7671  220.8895 H   0  0  0  0  0  0  0  0  0  0  0  0
  143.3103   73.1549  221.6700 H   0  0  0  0  0  0  0  0  0  0  0  0
  141.6791   72.3993  221.9879 H   0  0  0  0  0  0  0  0  0  0  0  0
  142.5157   74.4419  220.0196 H   0  0  0  0  0  0  0  0  0  0  0  0
  142.1780   76.4160  221.2140 H   0  0  0  0  0  0  0  0  0  0  0  0
  139.5952   76.9536  222.4302 H   0  0  0  0  0  0  0  0  0  0  0  0
  140.7163   76.4135  223.7165 H   0  0  0  0  0  0  0  0  0  0  0  0
  141.2982   78.4090  224.8921 H   0  0  0  0  0  0  0  0  0  0  0  0
  142.3735   80.6750  224.7840 H   0  0  0  0  0  0  0  0  0  0  0  0
  142.9234   81.6526  222.5946 H   0  0  0  0  0  0  0  0  0  0  0  0
  142.4454   80.4525  220.4755 H   0  0  0  0  0  0  0  0  0  0  0  0
  140.7088   74.3651  218.7059 H   0  0  0  0  0  0  0  0  0  0  0  0
  139.7956   73.2950  219.8771 H   0  0  0  0  0  0  0  0  0  0  0  0
  142.0961   72.4873  218.0690 H   0  0  0  0  0  0  0  0  0  0  0  0
  140.3986   71.9894  217.9229 H   0  0  0  0  0  0  0  0  0  0  0  0
  1  2  1  0
  2  3  1  0
  3  4  1  0
  4  5  1  0
  5  6  1  0
  6  7  2  0
  6  8  1  0
  8  9  2  0
  9 10  1  0
 10 11  2  0
 11 12  1  0
 12 13  2  0
 13 14  1  0
 13 15  1  0
 15 16  2  0
 16 17  1  0
 17 18  2  0
  2 19  1  0
 19 20  2  0
 19 21  1  0
 21 22  1  0
 22 23  1  0
 23 24  1  0
 24 25  1  0
 25 26  2  0
 25 27  1  0
 27 28  1  0
 28 29  1  0
 29 30  2  0
 30 31  1  0
 31 32  2  0
 32 33  1  0
 33 34  2  0
 24 35  1  0
 35 36  1  0
 18  8  1  0
 36 21  1  0
 17 11  1  0
 34 29  1  0
  1 37  1  0
  1 38  1  0
  1 39  1  0
  3 40  1  0
  3 41  1  0
  4 42  1  0
  4 43  1  0
  5 44  1  0
  9 45  1  0
 10 46  1  0
 12 47  1  0
 15 48  1  0
 16 49  1  0
 21 50  1  1
 22 51  1  0
 22 52  1  0
 23 53  1  0
 23 54  1  0
 24 55  1  6
 27 56  1  0
 28 57  1  0
 28 58  1  0
 30 59  1  0
 31 60  1  0
 32 61  1  0
 33 62  1  0
 35 63  1  0
 35 64  1  0
 36 65  1  0
 36 66  1  0
M  END
>  <smiles>  (8) 
CN(CCNC(=O)c1ccc2cc(F)ccc2n1)C(=O)[C@H]1CC[C@H](C(=O)NCc2ccccn2)CC1

>  <score_type>  (8) 
oracle

>  <origin>  (8) 
autodockgpu

>  <m_score__min__energy>  (8) 
-8.8699999999999992

>  <m_primary>  (8) 
energy

>  <rmsd>  (8) 
8.80303543814372

>  <m_score__min__rmsd>  (8) 
8.80303543814372

>  <meeko>  (8) 
{"free_energy": -7.96, "intermolecular_energy": -10.65, "internal_energy": -2.78, "cluster_size": 5, "cluster_id": 6, "rank_in_cluster": 3}

>  <energy>  (8) 
-7.95

>  <cluster_rmsd>  (8) 
1.25

>  <cluster>  (8) 
2

$$$$

     RDKit          3D

 66 69  0  0  0  0  0  0  0  0999 V2000
  138.7490   70.5960  218.2710 C   0  0  0  0  0  0  0  0  0  0  0  0
  139.7030   69.9960  219.1560 N   0  0  0  0  0  0  0  0  0  0  0  0
  139.6270   68.5370  219.3050 C   0  0  0  0  0  0  0  0  0  0  0  0
  138.7390   68.1990  220.4930 C   0  0  0  0  0  0  0  0  0  0  0  0
  139.4030   68.7380  221.6730 N   0  0  0  0  0  0  0  0  0  0  0  0
  138.7620   68.5000  222.9220 C   0  0  0  0  0  0  0  0  0  0  0  0
  137.6720   67.8340  222.8540 O   0  0  0  0  0  0  0  0  0  0  0  0
  139.3030   68.9760  224.1850 C   0  0  0  0  0  0  0  0  0  0  0  0
  139.1940   68.1320  225.2810 C   0  0  0  0  0  0  0  0  0  0  0  0
  139.6880   68.5290  226.5200 C   0  0  0  0  0  0  0  0  0  0  0  0
  140.2700   69.7590  226.5890 C   0  0  0  0  0  0  0  0  0  0  0  0
  140.7680   70.1630  227.8290 C   0  0  0  0  0  0  0  0  0  0  0  0
  141.3700   71.4220  227.9280 C   0  0  0  0  0  0  0  0  0  0  0  0
  141.8610   71.8350  229.1210 F   0  0  0  0  0  0  0  0  0  0  0  0
  141.4670   72.2480  226.8150 C   0  0  0  0  0  0  0  0  0  0  0  0
  140.9730   71.8430  225.5910 C   0  0  0  0  0  0  0  0  0  0  0  0
  140.3820   70.6030  225.5010 C   0  0  0  0  0  0  0  0  0  0  0  0
  139.8900   70.1800  224.3220 N   0  0  0  0  0  0  0  0  0  0  0  0
  140.6980   70.6610  219.8910 C   0  0  0  0  0  0  0  0  0  0  0  0
  141.7660   69.9710  220.1410 O   0  0  0  0  0  0  0  0  0  0  0  0
  140.6880   72.0200  220.4100 C   0  0  1  0  0  0  0  0  0  0  0  0
  139.8120   72.2570  221.6210 C   0  0  0  0  0  0  0  0  0  0  0  0
  139.5020   73.7400  221.6110 C   0  0  0  0  0  0  0  0  0  0  0  0
  140.7200   74.5990  221.5670 C   0  0  2  0  0  0  0  0  0  0  0  0
  140.3300   75.9200  221.0050 C   0  0  0  0  0  0  0  0  0  0  0  0
  139.3320   76.0590  220.2380 O   0  0  0  0  0  0  0  0  0  0  0  0
  141.1330   77.0350  221.3720 N   0  0  0  0  0  0  0  0  0  0  0  0
  140.8170   78.3790  220.8630 C   0  0  0  0  0  0  0  0  0  0  0  0
  141.3360   79.3930  221.8380 C   0  0  0  0  0  0  0  0  0  0  0  0
  141.0640   80.7520  221.6530 C   0  0  0  0  0  0  0  0  0  0  0  0
  141.5720   81.6360  222.5880 C   0  0  0  0  0  0  0  0  0  0  0  0
  142.3120   81.1530  223.6450 C   0  0  0  0  0  0  0  0  0  0  0  0
  142.5710   79.8080  223.8150 C   0  0  0  0  0  0  0  0  0  0  0  0
  142.0660   78.9550  222.8880 N   0  0  0  0  0  0  0  0  0  0  0  0
  141.8770   74.0950  220.7730 C   0  0  0  0  0  0  0  0  0  0  0  0
  142.0280   72.5930  220.7960 C   0  0  0  0  0  0  0  0  0  0  0  0
  137.9627   71.0905  218.8602 H   0  0  0  0  0  0  0  0  0  0  0  0
  139.2541   71.3393  217.6367 H   0  0  0  0  0  0  0  0  0  0  0  0
  138.2978   69.8187  217.6367 H   0  0  0  0  0  0  0  0  0  0  0  0
  139.2021   68.0959  218.3913 H   0  0  0  0  0  0  0  0  0  0  0  0
  140.6355   68.1303  219.4710 H   0  0  0  0  0  0  0  0  0  0  0  0
  137.7482   68.6608  220.3703 H   0  0  0  0  0  0  0  0  0  0  0  0
  138.5902   67.1127  220.5818 H   0  0  0  0  0  0  0  0  0  0  0  0
  140.2990   69.2730  221.6320 H   0  0  0  0  0  0  0  0  0  0  0  0
  138.7163   67.1474  225.1703 H   0  0  0  0  0  0  0  0  0  0  0  0
  139.6120   67.8789  227.4041 H   0  0  0  0  0  0  0  0  0  0  0  0
  140.6889   69.5065  228.7081 H   0  0  0  0  0  0  0  0  0  0  0  0
  141.9425   73.2353  226.9101 H   0  0  0  0  0  0  0  0  0  0  0  0
  141.0499   72.4956  224.7088 H   0  0  0  0  0  0  0  0  0  0  0  0
  140.2850   72.5257  219.5201 H   0  0  0  0  0  0  0  0  0  0  0  0
  140.3466   71.9820  222.5422 H   0  0  0  0  0  0  0  0  0  0  0  0
  138.8965   71.6481  221.5884 H   0  0  0  0  0  0  0  0  0  0  0  0
  138.9358   73.9841  222.5220 H   0  0  0  0  0  0  0  0  0  0  0  0
  138.9264   73.9454  220.6964 H   0  0  0  0  0  0  0  0  0  0  0  0
  141.0777   74.6298  222.6068 H   0  0  0  0  0  0  0  0  0  0  0  0
  141.9630   76.9150  222.0100 H   0  0  0  0  0  0  0  0  0  0  0  0
  141.2963   78.5268  219.8840 H   0  0  0  0  0  0  0  0  0  0  0  0
  139.7289   78.4911  220.7471 H   0  0  0  0  0  0  0  0  0  0  0  0
  140.4693   81.1045  220.7974 H   0  0  0  0  0  0  0  0  0  0  0  0
  141.3867   82.7157  222.4883 H   0  0  0  0  0  0  0  0  0  0  0  0
  142.7114   81.8661  224.3811 H   0  0  0  0  0  0  0  0  0  0  0  0
  143.1627   79.4423  224.6672 H   0  0  0  0  0  0  0  0  0  0  0  0
  142.7965   74.5416  221.1793 H   0  0  0  0  0  0  0  0  0  0  0  0
  141.6945   74.3812  219.7267 H   0  0  0  0  0  0  0  0  0  0  0  0
  142.3091   72.2551  221.8044 H   0  0  0  0  0  0  0  0  0  0  0  0
  142.8156   72.2626  220.1028 H   0  0  0  0  0  0  0  0  0  0  0  0
  1  2  1  0
  2  3  1  0
  3  4  1  0
  4  5  1  0
  5  6  1  0
  6  7  2  0
  6  8  1  0
  8  9  2  0
  9 10  1  0
 10 11  2  0
 11 12  1  0
 12 13  2  0
 13 14  1  0
 13 15  1  0
 15 16  2  0
 16 17  1  0
 17 18  2  0
  2 19  1  0
 19 20  2  0
 19 21  1  0
 21 22  1  0
 22 23  1  0
 23 24  1  0
 24 25  1  0
 25 26  2  0
 25 27  1  0
 27 28  1  0
 28 29  1  0
 29 30  2  0
 30 31  1  0
 31 32  2  0
 32 33  1  0
 33 34  2  0
 24 35  1  0
 35 36  1  0
 18  8  1  0
 36 21  1  0
 17 11  1  0
 34 29  1  0
  1 37  1  0
  1 38  1  0
  1 39  1  0
  3 40  1  0
  3 41  1  0
  4 42  1  0
  4 43  1  0
  5 44  1  0
  9 45  1  0
 10 46  1  0
 12 47  1  0
 15 48  1  0
 16 49  1  0
 21 50  1  6
 22 51  1  0
 22 52  1  0
 23 53  1  0
 23 54  1  0
 24 55  1  1
 27 56  1  0
 28 57  1  0
 28 58  1  0
 30 59  1  0
 31 60  1  0
 32 61  1  0
 33 62  1  0
 35 63  1  0
 35 64  1  0
 36 65  1  0
 36 66  1  0
M  END
>  <smiles>  (9) 
CN(CCNC(=O)c1ccc2cc(F)ccc2n1)C(=O)[C@H]1CC[C@H](C(=O)NCc2ccccn2)CC1

>  <score_type>  (9) 
oracle

>  <origin>  (9) 
autodockgpu

>  <m_score__min__energy>  (9) 
-8.8699999999999992

>  <m_primary>  (9) 
energy

>  <rmsd>  (9) 
8.73672178752228

>  <m_score__min__rmsd>  (9) 
8.73672178752228

>  <meeko>  (9) 
{"free_energy": -7.86, "intermolecular_energy": -10.55, "internal_energy": -3.32, "cluster_size": 5, "cluster_id": 6, "rank_in_cluster": 4}

>  <energy>  (9) 
-8.2

>  <cluster_rmsd>  (9) 
0.0

>  <cluster>  (9) 
3

$$$$

     RDKit          3D

 66 69  0  0  0  0  0  0  0  0999 V2000
  139.0460   79.1680  223.1280 C   0  0  0  0  0  0  0  0  0  0  0  0
  139.7780   78.3050  222.2480 N   0  0  0  0  0  0  0  0  0  0  0  0
  139.8880   78.7390  220.8500 C   0  0  0  0  0  0  0  0  0  0  0  0
  141.3240   79.1480  220.5620 C   0  0  0  0  0  0  0  0  0  0  0  0
  142.1120   77.9220  220.5630 N   0  0  0  0  0  0  0  0  0  0  0  0
  142.2860   77.2840  219.3020 C   0  0  0  0  0  0  0  0  0  0  0  0
  141.7260   77.8710  218.3140 O   0  0  0  0  0  0  0  0  0  0  0  0
  143.0460   76.0530  219.1440 C   0  0  0  0  0  0  0  0  0  0  0  0
  142.9900   75.4270  217.9070 C   0  0  0  0  0  0  0  0  0  0  0  0
  143.6910   74.2450  217.6910 C   0  0  0  0  0  0  0  0  0  0  0  0
  144.4150   73.7550  218.7360 C   0  0  0  0  0  0  0  0  0  0  0  0
  145.1210   72.5690  218.5260 C   0  0  0  0  0  0  0  0  0  0  0  0
  145.8710   72.0430  219.5820 C   0  0  0  0  0  0  0  0  0  0  0  0
  146.5650   70.8930  219.4020 F   0  0  0  0  0  0  0  0  0  0  0  0
  145.9110   72.6900  220.8120 C   0  0  0  0  0  0  0  0  0  0  0  0
  145.2110   73.8630  221.0140 C   0  0  0  0  0  0  0  0  0  0  0  0
  144.4740   74.3740  219.9690 C   0  0  0  0  0  0  0  0  0  0  0  0
  143.7810   75.5150  220.1350 N   0  0  0  0  0  0  0  0  0  0  0  0
  140.3980   77.0920  222.5900 C   0  0  0  0  0  0  0  0  0  0  0  0
  141.4690   77.1940  223.3130 O   0  0  0  0  0  0  0  0  0  0  0  0
  140.0000   75.7380  222.2390 C   0  0  1  0  0  0  0  0  0  0  0  0
  138.6340   75.5980  221.6020 C   0  0  0  0  0  0  0  0  0  0  0  0
  138.2110   74.1670  221.8660 C   0  0  0  0  0  0  0  0  0  0  0  0
  139.2050   73.1600  221.3960 C   0  0  2  0  0  0  0  0  0  0  0  0
  138.9920   71.9080  222.1710 C   0  0  0  0  0  0  0  0  0  0  0  0
  138.3020   70.9460  221.7230 O   0  0  0  0  0  0  0  0  0  0  0  0
  139.6040   71.8360  223.4530 N   0  0  0  0  0  0  0  0  0  0  0  0
  139.4460   70.6340  224.2870 C   0  0  0  0  0  0  0  0  0  0  0  0
  140.0350   70.9090  225.6370 C   0  0  0  0  0  0  0  0  0  0  0  0
  139.7160   70.0900  226.7250 C   0  0  0  0  0  0  0  0  0  0  0  0
  140.2930   70.3970  227.9450 C   0  0  0  0  0  0  0  0  0  0  0  0
  141.1420   71.4780  228.0380 C   0  0  0  0  0  0  0  0  0  0  0  0
  141.4480   72.2770  226.9560 C   0  0  0  0  0  0  0  0  0  0  0  0
  140.8730   71.9620  225.7670 N   0  0  0  0  0  0  0  0  0  0  0  0
  140.6470   73.5230  221.5140 C   0  0  0  0  0  0  0  0  0  0  0  0
  140.9260   74.9930  221.3120 C   0  0  0  0  0  0  0  0  0  0  0  0
  139.2706   78.9032  224.1718 H   0  0  0  0  0  0  0  0  0  0  0  0
  139.3378   80.2125  222.9438 H   0  0  0  0  0  0  0  0  0  0  0  0
  137.9679   79.0505  222.9438 H   0  0  0  0  0  0  0  0  0  0  0  0
  139.6013   77.9113  220.1847 H   0  0  0  0  0  0  0  0  0  0  0  0
  139.2193   79.5949  220.6763 H   0  0  0  0  0  0  0  0  0  0  0  0
  141.3892   79.6407  219.5807 H   0  0  0  0  0  0  0  0  0  0  0  0
  141.6937   79.8589  221.3156 H   0  0  0  0  0  0  0  0  0  0  0  0
  142.5350   77.5140  221.4260 H   0  0  0  0  0  0  0  0  0  0  0  0
  142.3904   75.8660  217.0959 H   0  0  0  0  0  0  0  0  0  0  0  0
  143.6621   73.7290  216.7199 H   0  0  0  0  0  0  0  0  0  0  0  0
  145.0879   72.0599  217.5515 H   0  0  0  0  0  0  0  0  0  0  0  0
  146.5063   72.2631  221.6326 H   0  0  0  0  0  0  0  0  0  0  0  0
  145.2413   74.3768  221.9862 H   0  0  0  0  0  0  0  0  0  0  0  0
  140.0183   75.3007  223.2482 H   0  0  0  0  0  0  0  0  0  0  0  0
  138.6926   75.7886  220.5202 H   0  0  0  0  0  0  0  0  0  0  0  0
  137.9143   76.3199  222.0152 H   0  0  0  0  0  0  0  0  0  0  0  0
  137.2577   73.9840  221.3485 H   0  0  0  0  0  0  0  0  0  0  0  0
  138.1210   74.0506  222.9561 H   0  0  0  0  0  0  0  0  0  0  0  0
  139.0198   73.0688  220.3155 H   0  0  0  0  0  0  0  0  0  0  0  0
  140.1770   72.6390  223.8230 H   0  0  0  0  0  0  0  0  0  0  0  0
  138.3778   70.3926  224.3908 H   0  0  0  0  0  0  0  0  0  0  0  0
  139.9598   69.7813  223.8191 H   0  0  0  0  0  0  0  0  0  0  0  0
  139.0329   69.2348  226.6153 H   0  0  0  0  0  0  0  0  0  0  0  0
  140.0758   69.7837  228.8320 H   0  0  0  0  0  0  0  0  0  0  0  0
  141.5935   71.7131  229.0131 H   0  0  0  0  0  0  0  0  0  0  0  0
  142.1301   73.1345  227.0525 H   0  0  0  0  0  0  0  0  0  0  0  0
  141.2099   72.9564  220.7576 H   0  0  0  0  0  0  0  0  0  0  0  0
  140.9552   73.2776  222.5410 H   0  0  0  0  0  0  0  0  0  0  0  0
  140.7274   75.2771  220.2680 H   0  0  0  0  0  0  0  0  0  0  0  0
  141.9783   75.2304  221.5271 H   0  0  0  0  0  0  0  0  0  0  0  0
  1  2  1  0
  2  3  1  0
  3  4  1  0
  4  5  1  0
  5  6  1  0
  6  7  2  0
  6  8  1  0
  8  9  2  0
  9 10  1  0
 10 11  2  0
 11 12  1  0
 12 13  2  0
 13 14  1  0
 13 15  1  0
 15 16  2  0
 16 17  1  0
 17 18  2  0
  2 19  1  0
 19 20  2  0
 19 21  1  0
 21 22  1  0
 22 23  1  0
 23 24  1  0
 24 25  1  0
 25 26  2  0
 25 27  1  0
 27 28  1  0
 28 29  1  0
 29 30  2  0
 30 31  1  0
 31 32  2  0
 32 33  1  0
 33 34  2  0
 24 35  1  0
 35 36  1  0
 18  8  1  0
 36 21  1  0
 17 11  1  0
 34 29  1  0
  1 37  1  0
  1 38  1  0
  1 39  1  0
  3 40  1  0
  3 41  1  0
  4 42  1  0
  4 43  1  0
  5 44  1  0
  9 45  1  0
 10 46  1  0
 12 47  1  0
 15 48  1  0
 16 49  1  0
 21 50  1  1
 22 51  1  0
 22 52  1  0
 23 53  1  0
 23 54  1  0
 24 55  1  6
 27 56  1  0
 28 57  1  0
 28 58  1  0
 30 59  1  0
 31 60  1  0
 32 61  1  0
 33 62  1  0
 35 63  1  0
 35 64  1  0
 36 65  1  0
 36 66  1  0
M  END
>  <smiles>  (10) 
CN(CCNC(=O)c1ccc2cc(F)ccc2n1)C(=O)[C@H]1CC[C@H](C(=O)NCc2ccccn2)CC1

>  <score_type>  (10) 
oracle

>  <origin>  (10) 
autodockgpu

>  <m_score__min__energy>  (10) 
-8.8699999999999992

>  <m_primary>  (10) 
energy

>  <rmsd>  (10) 
7.210391424252923

>  <m_score__min__rmsd>  (10) 
7.210391424252923

>  <meeko>  (10) 
{"free_energy": -8.05, "intermolecular_energy": -10.73, "internal_energy": -3.71, "cluster_size": 6, "cluster_id": 5, "rank_in_cluster": 2}

>  <energy>  (10) 
-7.98

>  <cluster_rmsd>  (10) 
1.63

>  <cluster>  (10) 
3

$$$$

     RDKit          3D

 66 69  0  0  0  0  0  0  0  0999 V2000
  137.8650   72.8990  219.5580 C   0  0  0  0  0  0  0  0  0  0  0  0
  138.2580   73.2580  220.8880 N   0  0  0  0  0  0  0  0  0  0  0  0
  137.2600   73.0460  221.9440 C   0  0  0  0  0  0  0  0  0  0  0  0
  136.5340   74.3540  222.2180 C   0  0  0  0  0  0  0  0  0  0  0  0
  137.5500   75.3120  222.6350 N   0  0  0  0  0  0  0  0  0  0  0  0
  137.2620   76.6840  222.3870 C   0  0  0  0  0  0  0  0  0  0  0  0
  136.1360   76.9100  221.8250 O   0  0  0  0  0  0  0  0  0  0  0  0
  138.1790   77.7550  222.7450 C   0  0  0  0  0  0  0  0  0  0  0  0
  137.6220   78.9800  223.0880 C   0  0  0  0  0  0  0  0  0  0  0  0
  138.4430   80.0470  223.4380 C   0  0  0  0  0  0  0  0  0  0  0  0
  139.7880   79.8230  223.4250 C   0  0  0  0  0  0  0  0  0  0  0  0
  140.6180   80.8890  223.7740 C   0  0  0  0  0  0  0  0  0  0  0  0
  142.0020   80.6880  223.7690 C   0  0  0  0  0  0  0  0  0  0  0  0
  142.8270   81.7080  224.1060 F   0  0  0  0  0  0  0  0  0  0  0  0
  142.5340   79.4520  223.4220 C   0  0  0  0  0  0  0  0  0  0  0  0
  141.7090   78.4000  223.0770 C   0  0  0  0  0  0  0  0  0  0  0  0
  140.3470   78.6070  223.0850 C   0  0  0  0  0  0  0  0  0  0  0  0
  139.5160   77.6010  222.7530 N   0  0  0  0  0  0  0  0  0  0  0  0
  139.4980   73.7900  221.2800 C   0  0  0  0  0  0  0  0  0  0  0  0
  139.8790   73.4950  222.4830 O   0  0  0  0  0  0  0  0  0  0  0  0
  140.4090   74.6280  220.5160 C   0  0  1  0  0  0  0  0  0  0  0  0
  141.4330   75.3940  221.3240 C   0  0  0  0  0  0  0  0  0  0  0  0
  141.8340   76.5700  220.4570 C   0  0  0  0  0  0  0  0  0  0  0  0
  142.3080   76.1700  219.1010 C   0  0  2  0  0  0  0  0  0  0  0  0
  142.1300   77.3330  218.1910 C   0  0  0  0  0  0  0  0  0  0  0  0
  141.4930   77.2460  217.1010 O   0  0  0  0  0  0  0  0  0  0  0  0
  142.7110   78.5650  218.6040 N   0  0  0  0  0  0  0  0  0  0  0  0
  142.5820   79.7660  217.7650 C   0  0  0  0  0  0  0  0  0  0  0  0
  142.0270   80.8770  218.6050 C   0  0  0  0  0  0  0  0  0  0  0  0
  141.7120   80.6550  219.9500 C   0  0  0  0  0  0  0  0  0  0  0  0
  141.2030   81.7220  220.6690 C   0  0  0  0  0  0  0  0  0  0  0  0
  141.0300   82.9380  220.0460 C   0  0  0  0  0  0  0  0  0  0  0  0
  141.3460   83.1420  218.7180 C   0  0  0  0  0  0  0  0  0  0  0  0
  141.8430   82.0850  218.0270 N   0  0  0  0  0  0  0  0  0  0  0  0
  141.6410   74.9960  218.4680 C   0  0  0  0  0  0  0  0  0  0  0  0
  141.2150   73.9310  219.4490 C   0  0  0  0  0  0  0  0  0  0  0  0
  137.0535   72.1577  219.6029 H   0  0  0  0  0  0  0  0  0  0  0  0
  137.5141   73.7949  219.0249 H   0  0  0  0  0  0  0  0  0  0  0  0
  138.7256   72.4687  219.0249 H   0  0  0  0  0  0  0  0  0  0  0  0
  136.5358   72.2849  221.6180 H   0  0  0  0  0  0  0  0  0  0  0  0
  137.7608   72.7028  222.8613 H   0  0  0  0  0  0  0  0  0  0  0  0
  136.0302   74.7072  221.3062 H   0  0  0  0  0  0  0  0  0  0  0  0
  135.7649   74.2269  222.9941 H   0  0  0  0  0  0  0  0  0  0  0  0
  138.4470   75.0330  223.0910 H   0  0  0  0  0  0  0  0  0  0  0  0
  136.5293   79.1068  223.0829 H   0  0  0  0  0  0  0  0  0  0  0  0
  138.0261   81.0271  223.7128 H   0  0  0  0  0  0  0  0  0  0  0  0
  140.1930   81.8661  224.0471 H   0  0  0  0  0  0  0  0  0  0  0  0
  143.6248   79.3101  223.4222 H   0  0  0  0  0  0  0  0  0  0  0  0
  142.1288   77.4210  222.8026 H   0  0  0  0  0  0  0  0  0  0  0  0
  139.6653   75.3040  220.0689 H   0  0  0  0  0  0  0  0  0  0  0  0
  142.3056   74.7598  221.5394 H   0  0  0  0  0  0  0  0  0  0  0  0
  141.0276   75.7204  222.2931 H   0  0  0  0  0  0  0  0  0  0  0  0
  142.6439   77.1162  220.9627 H   0  0  0  0  0  0  0  0  0  0  0  0
  140.9376   77.1921  220.3178 H   0  0  0  0  0  0  0  0  0  0  0  0
  143.3526   75.8596  219.2508 H   0  0  0  0  0  0  0  0  0  0  0  0
  143.2410   78.6330  219.5120 H   0  0  0  0  0  0  0  0  0  0  0  0
  143.5695   80.0537  217.3749 H   0  0  0  0  0  0  0  0  0  0  0  0
  141.9104   79.5630  216.9178 H   0  0  0  0  0  0  0  0  0  0  0  0
  141.8631   79.6708  220.4175 H   0  0  0  0  0  0  0  0  0  0  0  0
  140.9386   81.6000  221.7298 H   0  0  0  0  0  0  0  0  0  0  0  0
  140.6247   83.7783  220.6287 H   0  0  0  0  0  0  0  0  0  0  0  0
  141.2009   84.1216  218.2391 H   0  0  0  0  0  0  0  0  0  0  0  0
  142.3420   74.5450  217.7503 H   0  0  0  0  0  0  0  0  0  0  0  0
  140.7256   75.3706  217.9866 H   0  0  0  0  0  0  0  0  0  0  0  0
  142.0982   73.4493  219.8940 H   0  0  0  0  0  0  0  0  0  0  0  0
  140.6238   73.1473  218.9528 H   0  0  0  0  0  0  0  0  0  0  0  0
  1  2  1  0
  2  3  1  0
  3  4  1  0
  4  5  1  0
  5  6  1  0
  6  7  2  0
  6  8  1  0
  8  9  2  0
  9 10  1  0
 10 11  2  0
 11 12  1  0
 12 13  2  0
 13 14  1  0
 13 15  1  0
 15 16  2  0
 16 17  1  0
 17 18  2  0
  2 19  1  0
 19 20  2  0
 19 21  1  0
 21 22  1  0
 22 23  1  0
 23 24  1  0
 24 25  1  0
 25 26  2  0
 25 27  1  0
 27 28  1  0
 28 29  1  0
 29 30  2  0
 30 31  1  0
 31 32  2  0
 32 33  1  0
 33 34  2  0
 24 35  1  0
 35 36  1  0
 18  8  1  0
 36 21  1  0
 17 11  1  0
 34 29  1  0
  1 37  1  0
  1 38  1  0
  1 39  1  0
  3 40  1  0
  3 41  1  0
  4 42  1  0
  4 43  1  0
  5 44  1  0
  9 45  1  0
 10 46  1  0
 12 47  1  0
 15 48  1  0
 16 49  1  0
 21 50  1  6
 22 51  1  0
 22 52  1  0
 23 53  1  0
 23 54  1  0
 24 55  1  1
 27 56  1  0
 28 57  1  0
 28 58  1  0
 30 59  1  0
 31 60  1  0
 32 61  1  0
 33 62  1  0
 35 63  1  0
 35 64  1  0
 36 65  1  0
 36 66  1  0
M  END
>  <smiles>  (11) 
CN(CCNC(=O)c1ccc2cc(F)ccc2n1)C(=O)[C@H]1CC[C@H](C(=O)NCc2ccccn2)CC1

>  <score_type>  (11) 
oracle

>  <origin>  (11) 
autodockgpu

>  <m_score__min__energy>  (11) 
-8.8699999999999992

>  <m_primary>  (11) 
energy

>  <rmsd>  (11) 
6.309244319502824

>  <m_score__min__rmsd>  (11) 
6.309244319502824

>  <meeko>  (11) 
{"free_energy": -6.8, "intermolecular_energy": -9.49, "internal_energy": -3.73, "cluster_size": 10, "cluster_id": 13, "rank_in_cluster": 1}

>  <energy>  (11) 
-8.16

>  <cluster_rmsd>  (11) 
0.0

>  <cluster>  (11) 
4

$$$$

     RDKit          3D

 66 69  0  0  0  0  0  0  0  0999 V2000
  136.8140   74.1980  220.9890 C   0  0  0  0  0  0  0  0  0  0  0  0
  137.0050   72.7960  220.7580 N   0  0  0  0  0  0  0  0  0  0  0  0
  138.3270   72.3910  220.2610 C   0  0  0  0  0  0  0  0  0  0  0  0
  139.3960   73.2400  220.9290 C   0  0  0  0  0  0  0  0  0  0  0  0
  139.4310   72.8360  222.3290 N   0  0  0  0  0  0  0  0  0  0  0  0
  140.0960   71.6100  222.6170 C   0  0  0  0  0  0  0  0  0  0  0  0
  140.5880   71.0090  221.6010 O   0  0  0  0  0  0  0  0  0  0  0  0
  140.2110   71.0770  223.9650 C   0  0  0  0  0  0  0  0  0  0  0  0
  140.7530   71.9110  224.9330 C   0  0  0  0  0  0  0  0  0  0  0  0
  140.8940   71.4610  226.2420 C   0  0  0  0  0  0  0  0  0  0  0  0
  140.4790   70.1900  226.5080 C   0  0  0  0  0  0  0  0  0  0  0  0
  140.6180   69.7330  227.8190 C   0  0  0  0  0  0  0  0  0  0  0  0
  140.2010   68.4320  228.1200 C   0  0  0  0  0  0  0  0  0  0  0  0
  140.3260   67.9660  229.3860 F   0  0  0  0  0  0  0  0  0  0  0  0
  139.6620   67.6170  227.1320 C   0  0  0  0  0  0  0  0  0  0  0  0
  139.5270   68.0750  225.8360 C   0  0  0  0  0  0  0  0  0  0  0  0
  139.9400   69.3570  225.5480 C   0  0  0  0  0  0  0  0  0  0  0  0
  139.8210   69.8320  224.2950 N   0  0  0  0  0  0  0  0  0  0  0  0
  136.0590   71.7780  220.9580 C   0  0  0  0  0  0  0  0  0  0  0  0
  135.3900   71.4190  219.9080 O   0  0  0  0  0  0  0  0  0  0  0  0
  135.7300   71.0730  222.1880 C   0  0  1  0  0  0  0  0  0  0  0  0
  135.0750   69.7200  222.0160 C   0  0  0  0  0  0  0  0  0  0  0  0
  134.3250   69.4670  223.3080 C   0  0  0  0  0  0  0  0  0  0  0  0
  135.1850   69.5750  224.5220 C   0  0  2  0  0  0  0  0  0  0  0  0
  134.3050   69.8740  225.6830 C   0  0  0  0  0  0  0  0  0  0  0  0
  133.9710   68.9870  226.5220 O   0  0  0  0  0  0  0  0  0  0  0  0
  133.8480   71.2150  225.8140 N   0  0  0  0  0  0  0  0  0  0  0  0
  132.9750   71.5980  226.9340 C   0  0  0  0  0  0  0  0  0  0  0  0
  132.8550   73.0920  226.9570 C   0  0  0  0  0  0  0  0  0  0  0  0
  131.7760   73.7030  227.6020 C   0  0  0  0  0  0  0  0  0  0  0  0
  131.7230   75.0850  227.5870 C   0  0  0  0  0  0  0  0  0  0  0  0
  132.7180   75.7930  226.9480 C   0  0  0  0  0  0  0  0  0  0  0  0
  133.7790   75.1760  226.3160 C   0  0  0  0  0  0  0  0  0  0  0  0
  133.8140   73.8190  226.3410 N   0  0  0  0  0  0  0  0  0  0  0  0
  136.2650   70.6040  224.4990 C   0  0  0  0  0  0  0  0  0  0  0  0
  136.8750   70.8210  223.1360 C   0  0  0  0  0  0  0  0  0  0  0  0
  136.7877   74.3910  222.0716 H   0  0  0  0  0  0  0  0  0  0  0  0
  137.6438   74.7606  220.5363 H   0  0  0  0  0  0  0  0  0  0  0  0
  135.8639   74.5181  220.5363 H   0  0  0  0  0  0  0  0  0  0  0  0
  138.4993   71.3305  220.4970 H   0  0  0  0  0  0  0  0  0  0  0  0
  138.3707   72.5336  219.1712 H   0  0  0  0  0  0  0  0  0  0  0  0
  140.3734   73.0606  220.4573 H   0  0  0  0  0  0  0  0  0  0  0  0
  139.1715   74.3123  220.8301 H   0  0  0  0  0  0  0  0  0  0  0  0
  138.9990   73.3960  223.0980 H   0  0  0  0  0  0  0  0  0  0  0  0
  141.0715   72.9292  224.6649 H   0  0  0  0  0  0  0  0  0  0  0  0
  141.3212   72.1021  227.0271 H   0  0  0  0  0  0  0  0  0  0  0  0
  141.0457   70.3810  228.5982 H   0  0  0  0  0  0  0  0  0  0  0  0
  139.3394   66.5962  227.3848 H   0  0  0  0  0  0  0  0  0  0  0  0
  139.0999   67.4314  225.0528 H   0  0  0  0  0  0  0  0  0  0  0  0
  135.0268   71.8072  222.6080 H   0  0  0  0  0  0  0  0  0  0  0  0
  135.8358   68.9422  221.8544 H   0  0  0  0  0  0  0  0  0  0  0  0
  134.4049   69.6986  221.1439 H   0  0  0  0  0  0  0  0  0  0  0  0
  133.8989   68.4535  223.2713 H   0  0  0  0  0  0  0  0  0  0  0  0
  133.5481   70.2414  223.3900 H   0  0  0  0  0  0  0  0  0  0  0  0
  135.7092   68.6096  224.5794 H   0  0  0  0  0  0  0  0  0  0  0  0
  134.1280   71.9500  225.1130 H   0  0  0  0  0  0  0  0  0  0  0  0
  131.9802   71.1483  226.7992 H   0  0  0  0  0  0  0  0  0  0  0  0
  133.4018   71.2404  227.8827 H   0  0  0  0  0  0  0  0  0  0  0  0
  130.9985   73.1073  228.1026 H   0  0  0  0  0  0  0  0  0  0  0  0
  130.8945   75.6141  228.0805 H   0  0  0  0  0  0  0  0  0  0  0  0
  132.6647   76.8917  226.9413 H   0  0  0  0  0  0  0  0  0  0  0  0
  134.5638   75.7598  225.8128 H   0  0  0  0  0  0  0  0  0  0  0  0
  137.0613   70.2856  225.1879 H   0  0  0  0  0  0  0  0  0  0  0  0
  135.8039   71.5570  224.7974 H   0  0  0  0  0  0  0  0  0  0  0  0
  137.4363   69.9277  222.8246 H   0  0  0  0  0  0  0  0  0  0  0  0
  137.5767   71.6681  223.1452 H   0  0  0  0  0  0  0  0  0  0  0  0
  1  2  1  0
  2  3  1  0
  3  4  1  0
  4  5  1  0
  5  6  1  0
  6  7  2  0
  6  8  1  0
  8  9  2  0
  9 10  1  0
 10 11  2  0
 11 12  1  0
 12 13  2  0
 13 14  1  0
 13 15  1  0
 15 16  2  0
 16 17  1  0
 17 18  2  0
  2 19  1  0
 19 20  2  0
 19 21  1  0
 21 22  1  0
 22 23  1  0
 23 24  1  0
 24 25  1  0
 25 26  2  0
 25 27  1  0
 27 28  1  0
 28 29  1  0
 29 30  2  0
 30 31  1  0
 31 32  2  0
 32 33  1  0
 33 34  2  0
 24 35  1  0
 35 36  1  0
 18  8  1  0
 36 21  1  0
 17 11  1  0
 34 29  1  0
  1 37  1  0
  1 38  1  0
  1 39  1  0
  3 40  1  0
  3 41  1  0
  4 42  1  0
  4 43  1  0
  5 44  1  0
  9 45  1  0
 10 46  1  0
 12 47  1  0
 15 48  1  0
 16 49  1  0
 21 50  1  1
 22 51  1  0
 22 52  1  0
 23 53  1  0
 23 54  1  0
 24 55  1  1
 27 56  1  0
 28 57  1  0
 28 58  1  0
 30 59  1  0
 31 60  1  0
 32 61  1  0
 33 62  1  0
 35 63  1  0
 35 64  1  0
 36 65  1  0
 36 66  1  0
M  END
>  <smiles>  (12) 
CN(CCNC(=O)c1ccc2cc(F)ccc2n1)C(=O)[C@H]1CC[C@H](C(=O)NCc2ccccn2)CC1

>  <score_type>  (12) 
oracle

>  <origin>  (12) 
autodockgpu

>  <m_score__min__energy>  (12) 
-8.8699999999999992

>  <m_primary>  (12) 
energy

>  <rmsd>  (12) 
8.36633064040878

>  <m_score__min__rmsd>  (12) 
8.36633064040878

>  <meeko>  (12) 
{"free_energy": -7.91, "intermolecular_energy": -10.59, "internal_energy": -2.94, "cluster_size": 3, "cluster_id": 7, "rank_in_cluster": 2}

>  <energy>  (12) 
-7.7

>  <cluster_rmsd>  (12) 
1.24

>  <cluster>  (12) 
4

$$$$

     RDKit          3D

 66 69  0  0  0  0  0  0  0  0999 V2000
  137.7580   70.1190  218.9480 C   0  0  0  0  0  0  0  0  0  0  0  0
  138.7200   69.4540  219.7750 N   0  0  0  0  0  0  0  0  0  0  0  0
  138.6280   67.9890  219.8360 C   0  0  0  0  0  0  0  0  0  0  0  0
  137.8990   67.5840  221.1070 C   0  0  0  0  0  0  0  0  0  0  0  0
  138.7570   67.9740  222.2190 N   0  0  0  0  0  0  0  0  0  0  0  0
  138.1120   68.5900  223.3280 C   0  0  0  0  0  0  0  0  0  0  0  0
  136.8450   68.7260  223.2120 O   0  0  0  0  0  0  0  0  0  0  0  0
  138.8350   69.0340  224.5100 C   0  0  0  0  0  0  0  0  0  0  0  0
  138.8970   68.1550  225.5820 C   0  0  0  0  0  0  0  0  0  0  0  0
  139.5710   68.5190  226.7440 C   0  0  0  0  0  0  0  0  0  0  0  0
  140.1490   69.7540  226.7630 C   0  0  0  0  0  0  0  0  0  0  0  0
  140.8260   70.1250  227.9260 C   0  0  0  0  0  0  0  0  0  0  0  0
  141.4280   71.3870  227.9730 C   0  0  0  0  0  0  0  0  0  0  0  0
  142.0920   71.7700  229.0910 F   0  0  0  0  0  0  0  0  0  0  0  0
  141.3500   72.2480  226.8850 C   0  0  0  0  0  0  0  0  0  0  0  0
  140.6800   71.8750  225.7380 C   0  0  0  0  0  0  0  0  0  0  0  0
  140.0890   70.6310  225.6990 C   0  0  0  0  0  0  0  0  0  0  0  0
  139.4270   70.2390  224.5940 N   0  0  0  0  0  0  0  0  0  0  0  0
  139.7380   70.0610  220.5290 C   0  0  0  0  0  0  0  0  0  0  0  0
  140.6940   69.2750  220.9160 O   0  0  0  0  0  0  0  0  0  0  0  0
  139.8610   71.4520  220.9350 C   0  0  1  0  0  0  0  0  0  0  0  0
  138.7900   71.9610  221.8760 C   0  0  0  0  0  0  0  0  0  0  0  0
  138.7700   73.4640  221.6890 C   0  0  0  0  0  0  0  0  0  0  0  0
  140.1030   74.1030  221.8860 C   0  0  2  0  0  0  0  0  0  0  0  0
  140.1030   75.3990  221.1560 C   0  0  0  0  0  0  0  0  0  0  0  0
  139.2820   75.6500  220.2260 O   0  0  0  0  0  0  0  0  0  0  0  0
  141.0750   76.3590  221.5540 N   0  0  0  0  0  0  0  0  0  0  0  0
  141.1450   77.6680  220.8870 C   0  0  0  0  0  0  0  0  0  0  0  0
  141.5240   78.7020  221.9030 C   0  0  0  0  0  0  0  0  0  0  0  0
  141.8280   80.0070  221.5020 C   0  0  0  0  0  0  0  0  0  0  0  0
  142.1710   80.9140  222.4890 C   0  0  0  0  0  0  0  0  0  0  0  0
  142.1990   80.5040  223.8040 C   0  0  0  0  0  0  0  0  0  0  0  0
  141.8960   79.2130  224.1860 C   0  0  0  0  0  0  0  0  0  0  0  0
  141.5620   78.3360  223.2040 N   0  0  0  0  0  0  0  0  0  0  0  0
  141.2980   73.3320  221.4360 C   0  0  0  0  0  0  0  0  0  0  0  0
  141.1590   71.8380  221.5980 C   0  0  0  0  0  0  0  0  0  0  0  0
  137.0192   70.6297  219.5831 H   0  0  0  0  0  0  0  0  0  0  0  0
  138.2687   70.8578  218.3129 H   0  0  0  0  0  0  0  0  0  0  0  0
  137.2473   69.3802  218.3129 H   0  0  0  0  0  0  0  0  0  0  0  0
  138.0740   67.6188  218.9608 H   0  0  0  0  0  0  0  0  0  0  0  0
  139.6392   67.5560  219.8372 H   0  0  0  0  0  0  0  0  0  0  0  0
  136.9321   68.1043  221.1726 H   0  0  0  0  0  0  0  0  0  0  0  0
  137.6960   66.5030  221.1216 H   0  0  0  0  0  0  0  0  0  0  0  0
  139.7900   67.8210  222.2260 H   0  0  0  0  0  0  0  0  0  0  0  0
  138.4130   67.1696  225.5133 H   0  0  0  0  0  0  0  0  0  0  0  0
  139.6346   67.8412  227.6080 H   0  0  0  0  0  0  0  0  0  0  0  0
  140.8848   69.4410  228.7855 H   0  0  0  0  0  0  0  0  0  0  0  0
  141.8275   73.2375  226.9388 H   0  0  0  0  0  0  0  0  0  0  0  0
  140.6191   72.5546  224.8752 H   0  0  0  0  0  0  0  0  0  0  0  0
  139.7735   71.9149  219.9410 H   0  0  0  0  0  0  0  0  0  0  0  0
  139.0394   71.7061  222.9166 H   0  0  0  0  0  0  0  0  0  0  0  0
  137.8100   71.5095  221.6622 H   0  0  0  0  0  0  0  0  0  0  0  0
  138.0654   73.8963  222.4147 H   0  0  0  0  0  0  0  0  0  0  0  0
  138.4673   73.6579  220.6494 H   0  0  0  0  0  0  0  0  0  0  0  0
  140.2124   74.1904  222.9771 H   0  0  0  0  0  0  0  0  0  0  0  0
  141.7570   76.1460  222.3280 H   0  0  0  0  0  0  0  0  0  0  0  0
  141.9017   77.6375  220.0892 H   0  0  0  0  0  0  0  0  0  0  0  0
  140.1696   77.9166  220.4433 H   0  0  0  0  0  0  0  0  0  0  0  0
  141.7956   80.3010  220.4425 H   0  0  0  0  0  0  0  0  0  0  0  0
  142.4191   81.9529  222.2261 H   0  0  0  0  0  0  0  0  0  0  0  0
  142.4736   81.2341  224.5796 H   0  0  0  0  0  0  0  0  0  0  0  0
  141.9238   78.9068  225.2422 H   0  0  0  0  0  0  0  0  0  0  0  0
  142.1662   73.6647  222.0238 H   0  0  0  0  0  0  0  0  0  0  0  0
  141.4166   73.5266  220.3599 H   0  0  0  0  0  0  0  0  0  0  0  0
  141.1337   71.5726  222.6652 H   0  0  0  0  0  0  0  0  0  0  0  0
  142.0095   71.3087  221.1435 H   0  0  0  0  0  0  0  0  0  0  0  0
  1  2  1  0
  2  3  1  0
  3  4  1  0
  4  5  1  0
  5  6  1  0
  6  7  2  0
  6  8  1  0
  8  9  2  0
  9 10  1  0
 10 11  2  0
 11 12  1  0
 12 13  2  0
 13 14  1  0
 13 15  1  0
 15 16  2  0
 16 17  1  0
 17 18  2  0
  2 19  1  0
 19 20  2  0
 19 21  1  0
 21 22  1  0
 22 23  1  0
 23 24  1  0
 24 25  1  0
 25 26  2  0
 25 27  1  0
 27 28  1  0
 28 29  1  0
 29 30  2  0
 30 31  1  0
 31 32  2  0
 32 33  1  0
 33 34  2  0
 24 35  1  0
 35 36  1  0
 18  8  1  0
 36 21  1  0
 17 11  1  0
 34 29  1  0
  1 37  1  0
  1 38  1  0
  1 39  1  0
  3 40  1  0
  3 41  1  0
  4 42  1  0
  4 43  1  0
  5 44  1  0
  9 45  1  0
 10 46  1  0
 12 47  1  0
 15 48  1  0
 16 49  1  0
 21 50  1  6
 22 51  1  0
 22 52  1  0
 23 53  1  0
 23 54  1  0
 24 55  1  1
 27 56  1  0
 28 57  1  0
 28 58  1  0
 30 59  1  0
 31 60  1  0
 32 61  1  0
 33 62  1  0
 35 63  1  0
 35 64  1  0
 36 65  1  0
 36 66  1  0
M  END
>  <smiles>  (13) 
CN(CCNC(=O)c1ccc2cc(F)ccc2n1)C(=O)[C@H]1CC[C@H](C(=O)NCc2ccccn2)CC1

>  <score_type>  (13) 
oracle

>  <origin>  (13) 
autodockgpu

>  <m_score__min__energy>  (13) 
-8.8699999999999992

>  <m_primary>  (13) 
energy

>  <rmsd>  (13) 
8.64245688295681

>  <m_score__min__rmsd>  (13) 
8.64245688295681

>  <meeko>  (13) 
{"free_energy": -7.96, "intermolecular_energy": -10.65, "internal_energy": -3.41, "cluster_size": 5, "cluster_id": 6, "rank_in_cluster": 2}

>  <energy>  (13) 
-8.15

>  <cluster_rmsd>  (13) 
0.0

>  <cluster>  (13) 
5

$$$$

     RDKit          3D

 66 69  0  0  0  0  0  0  0  0999 V2000
  137.3890   75.9990  223.1030 C   0  0  0  0  0  0  0  0  0  0  0  0
  138.4420   75.9610  222.1310 N   0  0  0  0  0  0  0  0  0  0  0  0
  138.1270   75.3100  220.8530 C   0  0  0  0  0  0  0  0  0  0  0  0
  139.0290   74.0990  220.6710 C   0  0  0  0  0  0  0  0  0  0  0  0
  139.1940   73.5040  221.9910 N   0  0  0  0  0  0  0  0  0  0  0  0
  139.3390   72.0880  222.0300 C   0  0  0  0  0  0  0  0  0  0  0  0
  139.3090   71.5070  220.8910 O   0  0  0  0  0  0  0  0  0  0  0  0
  139.5100   71.3510  223.2730 C   0  0  0  0  0  0  0  0  0  0  0  0
  139.0170   70.0540  223.3140 C   0  0  0  0  0  0  0  0  0  0  0  0
  139.1450   69.2960  224.4740 C   0  0  0  0  0  0  0  0  0  0  0  0
  139.7670   69.8860  225.5340 C   0  0  0  0  0  0  0  0  0  0  0  0
  139.8990   69.1310  226.7000 C   0  0  0  0  0  0  0  0  0  0  0  0
  140.5320   69.7120  227.8030 C   0  0  0  0  0  0  0  0  0  0  0  0
  140.6730   68.9980  228.9470 F   0  0  0  0  0  0  0  0  0  0  0  0
  141.0180   71.0120  227.7350 C   0  0  0  0  0  0  0  0  0  0  0  0
  140.8850   71.7550  226.5790 C   0  0  0  0  0  0  0  0  0  0  0  0
  140.2590   71.1750  225.4970 C   0  0  0  0  0  0  0  0  0  0  0  0
  140.1140   71.8740  224.3560 N   0  0  0  0  0  0  0  0  0  0  0  0
  139.7370   76.4840  222.2780 C   0  0  0  0  0  0  0  0  0  0  0  0
  140.6890   75.6080  222.3560 O   0  0  0  0  0  0  0  0  0  0  0  0
  140.1510   77.8760  222.3570 C   0  0  1  0  0  0  0  0  0  0  0  0
  139.1630   78.8220  223.0020 C   0  0  0  0  0  0  0  0  0  0  0  0
  139.5080   80.1960  222.4640 C   0  0  0  0  0  0  0  0  0  0  0  0
  140.9360   80.5730  222.6770 C   0  0  2  0  0  0  0  0  0  0  0  0
  141.2920   81.6060  221.6690 C   0  0  0  0  0  0  0  0  0  0  0  0
  141.4450   82.8240  221.9760 O   0  0  0  0  0  0  0  0  0  0  0  0
  141.4590   81.1620  220.3270 N   0  0  0  0  0  0  0  0  0  0  0  0
  141.8130   82.1170  219.2660 C   0  0  0  0  0  0  0  0  0  0  0  0
  141.9280   81.3710  217.9710 C   0  0  0  0  0  0  0  0  0  0  0  0
  142.0710   82.0670  216.7670 C   0  0  0  0  0  0  0  0  0  0  0  0
  142.1720   81.3190  215.6070 C   0  0  0  0  0  0  0  0  0  0  0  0
  142.1280   79.9440  215.6820 C   0  0  0  0  0  0  0  0  0  0  0  0
  141.9870   79.2710  216.8780 C   0  0  0  0  0  0  0  0  0  0  0  0
  141.8890   80.0200  218.0060 N   0  0  0  0  0  0  0  0  0  0  0  0
  141.9470   79.4810  222.5820 C   0  0  0  0  0  0  0  0  0  0  0  0
  141.4510   78.1420  223.0740 C   0  0  0  0  0  0  0  0  0  0  0  0
  137.8224   75.9834  224.1139 H   0  0  0  0  0  0  0  0  0  0  0  0
  136.8007   76.9190  222.9705 H   0  0  0  0  0  0  0  0  0  0  0  0
  136.7359   75.1238  222.9705 H   0  0  0  0  0  0  0  0  0  0  0  0
  137.0752   74.9881  220.8538 H   0  0  0  0  0  0  0  0  0  0  0  0
  138.2902   76.0189  220.0278 H   0  0  0  0  0  0  0  0  0  0  0  0
  138.5623   73.3773  219.9845 H   0  0  0  0  0  0  0  0  0  0  0  0
  139.9994   74.3868  220.2403 H   0  0  0  0  0  0  0  0  0  0  0  0
  139.2070   74.0610  222.8730 H   0  0  0  0  0  0  0  0  0  0  0  0
  138.5247   69.6250  222.4288 H   0  0  0  0  0  0  0  0  0  0  0  0
  138.7614   68.2667  224.5330 H   0  0  0  0  0  0  0  0  0  0  0  0
  139.5137   68.1019  226.7503 H   0  0  0  0  0  0  0  0  0  0  0  0
  141.5141   71.4539  228.6117 H   0  0  0  0  0  0  0  0  0  0  0  0
  141.2691   72.7842  226.5230 H   0  0  0  0  0  0  0  0  0  0  0  0
  140.2477   78.0734  221.2792 H   0  0  0  0  0  0  0  0  0  0  0  0
  139.2683   78.8002  224.0967 H   0  0  0  0  0  0  0  0  0  0  0  0
  138.1233   78.5438  222.7745 H   0  0  0  0  0  0  0  0  0  0  0  0
  138.8721   80.9382  222.9689 H   0  0  0  0  0  0  0  0  0  0  0  0
  139.3363   80.1726  221.3777 H   0  0  0  0  0  0  0  0  0  0  0  0
  140.9826   80.9155  223.7213 H   0  0  0  0  0  0  0  0  0  0  0  0
  141.3300   80.1470  220.0750 H   0  0  0  0  0  0  0  0  0  0  0  0
  141.0305   82.8856  219.1829 H   0  0  0  0  0  0  0  0  0  0  0  0
  142.7688   82.6065  219.5042 H   0  0  0  0  0  0  0  0  0  0  0  0
  142.1020   83.1663  216.7426 H   0  0  0  0  0  0  0  0  0  0  0  0
  142.2864   81.8180  214.6334 H   0  0  0  0  0  0  0  0  0  0  0  0
  142.2084   79.3606  214.7529 H   0  0  0  0  0  0  0  0  0  0  0  0
  141.9553   78.1721  216.9161 H   0  0  0  0  0  0  0  0  0  0  0  0
  142.8233   79.7674  223.1821 H   0  0  0  0  0  0  0  0  0  0  0  0
  142.1864   79.3600  221.5152 H   0  0  0  0  0  0  0  0  0  0  0  0
  141.2856   78.1743  224.1610 H   0  0  0  0  0  0  0  0  0  0  0  0
  142.1853   77.3480  222.8732 H   0  0  0  0  0  0  0  0  0  0  0  0
  1  2  1  0
  2  3  1  0
  3  4  1  0
  4  5  1  0
  5  6  1  0
  6  7  2  0
  6  8  1  0
  8  9  2  0
  9 10  1  0
 10 11  2  0
 11 12  1  0
 12 13  2  0
 13 14  1  0
 13 15  1  0
 15 16  2  0
 16 17  1  0
 17 18  2  0
  2 19  1  0
 19 20  2  0
 19 21  1  0
 21 22  1  0
 22 23  1  0
 23 24  1  0
 24 25  1  0
 25 26  2  0
 25 27  1  0
 27 28  1  0
 28 29  1  0
 29 30  2  0
 30 31  1  0
 31 32  2  0
 32 33  1  0
 33 34  2  0
 24 35  1  0
 35 36  1  0
 18  8  1  0
 36 21  1  0
 17 11  1  0
 34 29  1  0
  1 37  1  0
  1 38  1  0
  1 39  1  0
  3 40  1  0
  3 41  1  0
  4 42  1  0
  4 43  1  0
  5 44  1  0
  9 45  1  0
 10 46  1  0
 12 47  1  0
 15 48  1  0
 16 49  1  0
 21 50  1  6
 22 51  1  0
 22 52  1  0
 23 53  1  0
 23 54  1  0
 24 55  1  1
 27 56  1  0
 28 57  1  0
 28 58  1  0
 30 59  1  0
 31 60  1  0
 32 61  1  0
 33 62  1  0
 35 63  1  0
 35 64  1  0
 36 65  1  0
 36 66  1  0
M  END
>  <smiles>  (14) 
CN(CCNC(=O)c1ccc2cc(F)ccc2n1)C(=O)[C@H]1CC[C@H](C(=O)NCc2ccccn2)CC1

>  <score_type>  (14) 
oracle

>  <origin>  (14) 
autodockgpu

>  <m_score__min__energy>  (14) 
-8.8699999999999992

>  <m_primary>  (14) 
energy

>  <rmsd>  (14) 
9.88000310969798

>  <m_score__min__rmsd>  (14) 
9.88000310969798

>  <meeko>  (14) 
{"free_energy": -8.18, "intermolecular_energy": -10.86, "internal_energy": -2.89, "cluster_size": 4, "cluster_id": 2, "rank_in_cluster": 2}

>  <energy>  (14) 
-8.05

>  <cluster_rmsd>  (14) 
0.44

>  <cluster>  (14) 
5

$$$$

     RDKit          3D

 66 69  0  0  0  0  0  0  0  0999 V2000
  137.4890   70.5800  218.6910 C   0  0  0  0  0  0  0  0  0  0  0  0
  138.4520   69.8680  219.4780 N   0  0  0  0  0  0  0  0  0  0  0  0
  138.3420   68.4030  219.4760 C   0  0  0  0  0  0  0  0  0  0  0  0
  137.6700   67.9470  220.7610 C   0  0  0  0  0  0  0  0  0  0  0  0
  138.5960   68.2550  221.8440 N   0  0  0  0  0  0  0  0  0  0  0  0
  138.0330   68.8630  223.0020 C   0  0  0  0  0  0  0  0  0  0  0  0
  136.7710   69.0640  222.9500 O   0  0  0  0  0  0  0  0  0  0  0  0
  138.8300   69.2280  224.1620 C   0  0  0  0  0  0  0  0  0  0  0  0
  139.2160   70.5570  224.2740 C   0  0  0  0  0  0  0  0  0  0  0  0
  139.9830   70.9720  225.3580 C   0  0  0  0  0  0  0  0  0  0  0  0
  140.3210   70.0230  226.2770 C   0  0  0  0  0  0  0  0  0  0  0  0
  141.0900   70.4330  227.3670 C   0  0  0  0  0  0  0  0  0  0  0  0
  141.4520   69.4800  228.3240 C   0  0  0  0  0  0  0  0  0  0  0  0
  142.1970   69.8540  229.3920 F   0  0  0  0  0  0  0  0  0  0  0  0
  141.0520   68.1560  228.1890 C   0  0  0  0  0  0  0  0  0  0  0  0
  140.2910   67.7560  227.1090 C   0  0  0  0  0  0  0  0  0  0  0  0
  139.9390   68.7010  226.1700 C   0  0  0  0  0  0  0  0  0  0  0  0
  139.1980   68.3420  225.1050 N   0  0  0  0  0  0  0  0  0  0  0  0
  139.4850   70.4280  220.2470 C   0  0  0  0  0  0  0  0  0  0  0  0
  140.4570   69.6260  220.5500 O   0  0  0  0  0  0  0  0  0  0  0  0
  139.6080   71.7880  220.7490 C   0  0  1  0  0  0  0  0  0  0  0  0
  138.4730   72.2720  221.6250 C   0  0  0  0  0  0  0  0  0  0  0  0
  138.5070   73.7840  221.5320 C   0  0  0  0  0  0  0  0  0  0  0  0
  139.8340   74.3680  221.8820 C   0  0  2  0  0  0  0  0  0  0  0  0
  139.9310   75.7050  221.2380 C   0  0  0  0  0  0  0  0  0  0  0  0
  138.9880   76.1920  220.5490 O   0  0  0  0  0  0  0  0  0  0  0  0
  141.1430   76.4250  221.4330 N   0  0  0  0  0  0  0  0  0  0  0  0
  141.3230   77.7550  220.8340 C   0  0  0  0  0  0  0  0  0  0  0  0
  141.6710   78.7260  221.9210 C   0  0  0  0  0  0  0  0  0  0  0  0
  141.4820   78.3790  223.2630 C   0  0  0  0  0  0  0  0  0  0  0  0
  141.8230   79.3210  224.2180 C   0  0  0  0  0  0  0  0  0  0  0  0
  142.3240   80.5400  223.8190 C   0  0  0  0  0  0  0  0  0  0  0  0
  142.5050   80.8680  222.4900 C   0  0  0  0  0  0  0  0  0  0  0  0
  142.1660   79.9330  221.5670 N   0  0  0  0  0  0  0  0  0  0  0  0
  141.0430   73.5890  221.4870 C   0  0  0  0  0  0  0  0  0  0  0  0
  140.8530   72.0920  221.5430 C   0  0  0  0  0  0  0  0  0  0  0  0
  136.7846   71.1008  219.3563 H   0  0  0  0  0  0  0  0  0  0  0  0
  138.0055   71.3151  218.0563 H   0  0  0  0  0  0  0  0  0  0  0  0
  136.9376   69.8707  218.0563 H   0  0  0  0  0  0  0  0  0  0  0  0
  137.7409   68.0810  218.6129 H   0  0  0  0  0  0  0  0  0  0  0  0
  139.3459   67.9586  219.4078 H   0  0  0  0  0  0  0  0  0  0  0  0
  136.7223   68.4863  220.9064 H   0  0  0  0  0  0  0  0  0  0  0  0
  137.4384   66.8721  220.7291 H   0  0  0  0  0  0  0  0  0  0  0  0
  139.6190   68.0510  221.7970 H   0  0  0  0  0  0  0  0  0  0  0  0
  138.9149   71.2830  223.5044 H   0  0  0  0  0  0  0  0  0  0  0  0
  140.3025   72.0187  225.4688 H   0  0  0  0  0  0  0  0  0  0  0  0
  141.4042   71.4820  227.4709 H   0  0  0  0  0  0  0  0  0  0  0  0
  141.3450   67.4188  228.9510 H   0  0  0  0  0  0  0  0  0  0  0  0
  139.9734   66.7084  227.0006 H   0  0  0  0  0  0  0  0  0  0  0  0
  139.6192   72.3132  219.7825 H   0  0  0  0  0  0  0  0  0  0  0  0
  138.6245   71.9472  222.6650 H   0  0  0  0  0  0  0  0  0  0  0  0
  137.5042   71.8646  221.3002 H   0  0  0  0  0  0  0  0  0  0  0  0
  137.7532   74.1930  222.2208 H   0  0  0  0  0  0  0  0  0  0  0  0
  138.3004   74.0502  220.4849 H   0  0  0  0  0  0  0  0  0  0  0  0
  139.8504   74.3855  222.9817 H   0  0  0  0  0  0  0  0  0  0  0  0
  141.9270   76.0150  222.0070 H   0  0  0  0  0  0  0  0  0  0  0  0
  142.1356   77.7210  220.0934 H   0  0  0  0  0  0  0  0  0  0  0  0
  140.3962   78.0695  220.3319 H   0  0  0  0  0  0  0  0  0  0  0  0
  141.0783   77.3962  223.5480 H   0  0  0  0  0  0  0  0  0  0  0  0
  141.6948   79.0976  225.2874 H   0  0  0  0  0  0  0  0  0  0  0  0
  142.5900   81.2803  224.5879 H   0  0  0  0  0  0  0  0  0  0  0  0
  142.9076   81.8473  222.1917 H   0  0  0  0  0  0  0  0  0  0  0  0
  141.8657   73.8591  222.1654 H   0  0  0  0  0  0  0  0  0  0  0  0
  141.2581   73.8440  220.4388 H   0  0  0  0  0  0  0  0  0  0  0  0
  140.7284   71.7636  222.5854 H   0  0  0  0  0  0  0  0  0  0  0  0
  141.7260   71.5647  221.1309 H   0  0  0  0  0  0  0  0  0  0  0  0
  1  2  1  0
  2  3  1  0
  3  4  1  0
  4  5  1  0
  5  6  1  0
  6  7  2  0
  6  8  1  0
  8  9  2  0
  9 10  1  0
 10 11  2  0
 11 12  1  0
 12 13  2  0
 13 14  1  0
 13 15  1  0
 15 16  2  0
 16 17  1  0
 17 18  2  0
  2 19  1  0
 19 20  2  0
 19 21  1  0
 21 22  1  0
 22 23  1  0
 23 24  1  0
 24 25  1  0
 25 26  2  0
 25 27  1  0
 27 28  1  0
 28 29  1  0
 29 30  2  0
 30 31  1  0
 31 32  2  0
 32 33  1  0
 33 34  2  0
 24 35  1  0
 35 36  1  0
 18  8  1  0
 36 21  1  0
 17 11  1  0
 34 29  1  0
  1 37  1  0
  1 38  1  0
  1 39  1  0
  3 40  1  0
  3 41  1  0
  4 42  1  0
  4 43  1  0
  5 44  1  0
  9 45  1  0
 10 46  1  0
 12 47  1  0
 15 48  1  0
 16 49  1  0
 21 50  1  6
 22 51  1  0
 22 52  1  0
 23 53  1  0
 23 54  1  0
 24 55  1  1
 27 56  1  0
 28 57  1  0
 28 58  1  0
 30 59  1  0
 31 60  1  0
 32 61  1  0
 33 62  1  0
 35 63  1  0
 35 64  1  0
 36 65  1  0
 36 66  1  0
M  END
>  <smiles>  (15) 
CN(CCNC(=O)c1ccc2cc(F)ccc2n1)C(=O)[C@H]1CC[C@H](C(=O)NCc2ccccn2)CC1

>  <score_type>  (15) 
oracle

>  <origin>  (15) 
autodockgpu

>  <m_score__min__energy>  (15) 
-8.8699999999999992

>  <m_primary>  (15) 
energy

>  <rmsd>  (15) 
9.231931419576927

>  <m_score__min__rmsd>  (15) 
9.231931419576927

>  <meeko>  (15) 
{"free_energy": -7.75, "intermolecular_energy": -10.43, "internal_energy": -2.81, "cluster_size": 5, "cluster_id": 6, "rank_in_cluster": 5}

>  <energy>  (15) 
-8.01

>  <cluster_rmsd>  (15) 
0.91

>  <cluster>  (15) 
5

$$$$

     RDKit          3D

 66 69  0  0  0  0  0  0  0  0999 V2000
  141.3820   70.1770  219.4510 C   0  0  0  0  0  0  0  0  0  0  0  0
  140.3090   71.1190  219.5630 N   0  0  0  0  0  0  0  0  0  0  0  0
  140.6300   72.5170  219.2480 C   0  0  0  0  0  0  0  0  0  0  0  0
  141.2850   73.1670  220.4560 C   0  0  0  0  0  0  0  0  0  0  0  0
  141.2680   72.1720  221.5210 N   0  0  0  0  0  0  0  0  0  0  0  0
  140.4160   72.4470  222.6280 C   0  0  0  0  0  0  0  0  0  0  0  0
  139.7620   73.5440  222.5500 O   0  0  0  0  0  0  0  0  0  0  0  0
  140.2930   71.5500  223.7660 C   0  0  0  0  0  0  0  0  0  0  0  0
  139.7330   70.3010  223.5330 C   0  0  0  0  0  0  0  0  0  0  0  0
  139.5840   69.3970  224.5800 C   0  0  0  0  0  0  0  0  0  0  0  0
  140.0090   69.7990  225.8100 C   0  0  0  0  0  0  0  0  0  0  0  0
  139.8620   68.8960  226.8650 C   0  0  0  0  0  0  0  0  0  0  0  0
  140.2890   69.2830  228.1390 C   0  0  0  0  0  0  0  0  0  0  0  0
  140.1580   68.4230  229.1780 F   0  0  0  0  0  0  0  0  0  0  0  0
  140.8470   70.5390  228.3460 C   0  0  0  0  0  0  0  0  0  0  0  0
  140.9900   71.4280  227.3000 C   0  0  0  0  0  0  0  0  0  0  0  0
  140.5660   71.0400  226.0480 C   0  0  0  0  0  0  0  0  0  0  0  0
  140.6920   71.8840  225.0070 N   0  0  0  0  0  0  0  0  0  0  0  0
  138.9860   70.8400  219.9430 C   0  0  0  0  0  0  0  0  0  0  0  0
  138.5950   69.6180  219.7580 O   0  0  0  0  0  0  0  0  0  0  0  0
  137.9960   71.7390  220.5160 C   0  0  1  0  0  0  0  0  0  0  0  0
  136.8260   72.0870  219.6210 C   0  0  0  0  0  0  0  0  0  0  0  0
  136.2930   73.4040  220.1470 C   0  0  0  0  0  0  0  0  0  0  0  0
  135.9550   73.3670  221.5990 C   0  0  2  0  0  0  0  0  0  0  0  0
  135.9980   74.7620  222.1150 C   0  0  0  0  0  0  0  0  0  0  0  0
  134.9580   75.4780  222.2110 O   0  0  0  0  0  0  0  0  0  0  0  0
  137.2710   75.2640  222.5020 N   0  0  0  0  0  0  0  0  0  0  0  0
  137.4040   76.6320  223.0250 C   0  0  0  0  0  0  0  0  0  0  0  0
  138.7950   77.1170  222.7470 C   0  0  0  0  0  0  0  0  0  0  0  0
  139.1350   78.4540  222.9750 C   0  0  0  0  0  0  0  0  0  0  0  0
  140.4360   78.8370  222.6980 C   0  0  0  0  0  0  0  0  0  0  0  0
  141.3280   77.9050  222.2180 C   0  0  0  0  0  0  0  0  0  0  0  0
  140.9790   76.5870  221.9980 C   0  0  0  0  0  0  0  0  0  0  0  0
  139.6990   76.2290  222.2740 N   0  0  0  0  0  0  0  0  0  0  0  0
  136.8260   72.5350  222.4770 C   0  0  0  0  0  0  0  0  0  0  0  0
  137.3610   71.2920  221.8090 C   0  0  0  0  0  0  0  0  0  0  0  0
  141.7176   69.8823  220.4562 H   0  0  0  0  0  0  0  0  0  0  0  0
  141.0337   69.2876  218.9054 H   0  0  0  0  0  0  0  0  0  0  0  0
  142.2188   70.6375  218.9054 H   0  0  0  0  0  0  0  0  0  0  0  0
  141.3207   72.5516  218.3926 H   0  0  0  0  0  0  0  0  0  0  0  0
  139.7069   73.0585  218.9937 H   0  0  0  0  0  0  0  0  0  0  0  0
  142.3206   73.4525  220.2191 H   0  0  0  0  0  0  0  0  0  0  0  0
  140.7496   74.0799  220.7558 H   0  0  0  0  0  0  0  0  0  0  0  0
  141.8400   71.2990  221.4990 H   0  0  0  0  0  0  0  0  0  0  0  0
  139.4067   70.0259  222.5192 H   0  0  0  0  0  0  0  0  0  0  0  0
  139.1426   68.4020  224.4215 H   0  0  0  0  0  0  0  0  0  0  0  0
  139.4202   67.9026  226.6976 H   0  0  0  0  0  0  0  0  0  0  0  0
  141.1782   70.8277  229.3544 H   0  0  0  0  0  0  0  0  0  0  0  0
  141.4318   72.4222  227.4621 H   0  0  0  0  0  0  0  0  0  0  0  0
  138.6490   72.6092  220.6786 H   0  0  0  0  0  0  0  0  0  0  0  0
  136.0518   71.3078  219.6797 H   0  0  0  0  0  0  0  0  0  0  0  0
  137.1268   72.1604  218.5655 H   0  0  0  0  0  0  0  0  0  0  0  0
  135.3843   73.6626  219.5837 H   0  0  0  0  0  0  0  0  0  0  0  0
  137.0888   74.1522  220.0172 H   0  0  0  0  0  0  0  0  0  0  0  0
  134.9646   72.8904  221.6436 H   0  0  0  0  0  0  0  0  0  0  0  0
  138.1340   74.6650  222.4200 H   0  0  0  0  0  0  0  0  0  0  0  0
  136.6758   77.2907  222.5292 H   0  0  0  0  0  0  0  0  0  0  0  0
  137.2124   76.6406  224.1081 H   0  0  0  0  0  0  0  0  0  0  0  0
  138.3972   79.1735  223.3596 H   0  0  0  0  0  0  0  0  0  0  0  0
  140.7544   79.8774  222.8601 H   0  0  0  0  0  0  0  0  0  0  0  0
  142.3587   78.2223  222.0013 H   0  0  0  0  0  0  0  0  0  0  0  0
  141.7080   75.8576  221.6150 H   0  0  0  0  0  0  0  0  0  0  0  0
  136.2403   72.2302  223.3568 H   0  0  0  0  0  0  0  0  0  0  0  0
  137.6959   73.1541  222.7416 H   0  0  0  0  0  0  0  0  0  0  0  0
  136.5412   70.5872  221.6058 H   0  0  0  0  0  0  0  0  0  0  0  0
  138.0897   70.7774  222.4525 H   0  0  0  0  0  0  0  0  0  0  0  0
  1  2  1  0
  2  3  1  0
  3  4  1  0
  4  5  1  0
  5  6  1  0
  6  7  2  0
  6  8  1  0
  8  9  2  0
  9 10  1  0
 10 11  2  0
 11 12  1  0
 12 13  2  0
 13 14  1  0
 13 15  1  0
 15 16  2  0
 16 17  1  0
 17 18  2  0
  2 19  1  0
 19 20  2  0
 19 21  1  0
 21 22  1  0
 22 23  1  0
 23 24  1  0
 24 25  1  0
 25 26  2  0
 25 27  1  0
 27 28  1  0
 28 29  1  0
 29 30  2  0
 30 31  1  0
 31 32  2  0
 32 33  1  0
 33 34  2  0
 24 35  1  0
 35 36  1  0
 18  8  1  0
 36 21  1  0
 17 11  1  0
 34 29  1  0
  1 37  1  0
  1 38  1  0
  1 39  1  0
  3 40  1  0
  3 41  1  0
  4 42  1  0
  4 43  1  0
  5 44  1  0
  9 45  1  0
 10 46  1  0
 12 47  1  0
 15 48  1  0
 16 49  1  0
 21 50  1  1
 22 51  1  0
 22 52  1  0
 23 53  1  0
 23 54  1  0
 24 55  1  6
 27 56  1  0
 28 57  1  0
 28 58  1  0
 30 59  1  0
 31 60  1  0
 32 61  1  0
 33 62  1  0
 35 63  1  0
 35 64  1  0
 36 65  1  0
 36 66  1  0
M  END
>  <smiles>  (16) 
CN(CCNC(=O)c1ccc2cc(F)ccc2n1)C(=O)[C@H]1CC[C@H](C(=O)NCc2ccccn2)CC1

>  <score_type>  (16) 
oracle

>  <origin>  (16) 
autodockgpu

>  <m_score__min__energy>  (16) 
-8.8699999999999992

>  <m_primary>  (16) 
energy

>  <rmsd>  (16) 
8.314123250051525

>  <m_score__min__rmsd>  (16) 
8.314123250051525

>  <meeko>  (16) 
{"free_energy": -6.37, "intermolecular_energy": -9.05, "internal_energy": -4.14, "cluster_size": 1, "cluster_id": 16, "rank_in_cluster": 1}

>  <energy>  (16) 
-7.98

>  <cluster_rmsd>  (16) 
0.4

>  <cluster>  (16) 
5

$$$$

     RDKit          3D

 66 69  0  0  0  0  0  0  0  0999 V2000
  138.3830   79.4810  220.6630 C   0  0  0  0  0  0  0  0  0  0  0  0
  139.2410   78.6710  221.4760 N   0  0  0  0  0  0  0  0  0  0  0  0
  140.6010   79.1800  221.6990 C   0  0  0  0  0  0  0  0  0  0  0  0
  141.3750   79.1340  220.3910 C   0  0  0  0  0  0  0  0  0  0  0  0
  142.1990   77.9340  220.4390 N   0  0  0  0  0  0  0  0  0  0  0  0
  142.1440   77.0840  219.2980 C   0  0  0  0  0  0  0  0  0  0  0  0
  141.3710   77.4840  218.3600 O   0  0  0  0  0  0  0  0  0  0  0  0
  142.9090   75.8510  219.1990 C   0  0  0  0  0  0  0  0  0  0  0  0
  142.6620   75.0360  218.1030 C   0  0  0  0  0  0  0  0  0  0  0  0
  143.3570   73.8410  217.9510 C   0  0  0  0  0  0  0  0  0  0  0  0
  144.2690   73.5290  218.9150 C   0  0  0  0  0  0  0  0  0  0  0  0
  144.9710   72.3310  218.7680 C   0  0  0  0  0  0  0  0  0  0  0  0
  145.9120   71.9850  219.7430 C   0  0  0  0  0  0  0  0  0  0  0  0
  146.6060   70.8270  219.6220 F   0  0  0  0  0  0  0  0  0  0  0  0
  146.1420   72.8190  220.8310 C   0  0  0  0  0  0  0  0  0  0  0  0
  145.4460   74.0030  220.9700 C   0  0  0  0  0  0  0  0  0  0  0  0
  144.5190   74.3360  220.0070 C   0  0  0  0  0  0  0  0  0  0  0  0
  143.8240   75.4830  220.1150 N   0  0  0  0  0  0  0  0  0  0  0  0
  138.9130   77.4450  222.0780 C   0  0  0  0  0  0  0  0  0  0  0  0
  138.1060   77.5160  223.0900 O   0  0  0  0  0  0  0  0  0  0  0  0
  139.3590   76.1080  221.7180 C   0  0  1  0  0  0  0  0  0  0  0  0
  139.0090   75.6520  220.3190 C   0  0  0  0  0  0  0  0  0  0  0  0
  139.0270   74.1370  220.3720 C   0  0  0  0  0  0  0  0  0  0  0  0
  140.3100   73.5790  220.8890 C   0  0  2  0  0  0  0  0  0  0  0  0
  140.0360   72.2170  221.4200 C   0  0  0  0  0  0  0  0  0  0  0  0
  139.9960   71.1970  220.6730 O   0  0  0  0  0  0  0  0  0  0  0  0
  139.8210   72.1080  222.8220 N   0  0  0  0  0  0  0  0  0  0  0  0
  139.5450   70.7980  223.4330 C   0  0  0  0  0  0  0  0  0  0  0  0
  140.0210   70.8240  224.8540 C   0  0  0  0  0  0  0  0  0  0  0  0
  139.7570   69.7470  225.7060 C   0  0  0  0  0  0  0  0  0  0  0  0
  140.2230   69.8330  227.0060 C   0  0  0  0  0  0  0  0  0  0  0  0
  140.9160   70.9560  227.4030 C   0  0  0  0  0  0  0  0  0  0  0  0
  141.1700   72.0120  226.5510 C   0  0  0  0  0  0  0  0  0  0  0  0
  140.7050   71.9100  225.2790 N   0  0  0  0  0  0  0  0  0  0  0  0
  141.0030   74.3510  221.9600 C   0  0  0  0  0  0  0  0  0  0  0  0
  140.8390   75.8470  221.8410 C   0  0  0  0  0  0  0  0  0  0  0  0
  137.7356   80.0922  221.3090 H   0  0  0  0  0  0  0  0  0  0  0  0
  138.9939   80.1394  220.0280 H   0  0  0  0  0  0  0  0  0  0  0  0
  137.7608   78.8332  220.0280 H   0  0  0  0  0  0  0  0  0  0  0  0
  140.5504   80.2179  222.0598 H   0  0  0  0  0  0  0  0  0  0  0  0
  141.1091   78.5575  222.4502 H   0  0  0  0  0  0  0  0  0  0  0  0
  140.6799   79.0837  219.5399 H   0  0  0  0  0  0  0  0  0  0  0  0
  141.9925   80.0352  220.2628 H   0  0  0  0  0  0  0  0  0  0  0  0
  142.8050   77.6870  221.2530 H   0  0  0  0  0  0  0  0  0  0  0  0
  141.9151   75.3359  217.3532 H   0  0  0  0  0  0  0  0  0  0  0  0
  143.1789   73.1776  217.0918 H   0  0  0  0  0  0  0  0  0  0  0  0
  144.7880   71.6742  217.9048 H   0  0  0  0  0  0  0  0  0  0  0  0
  146.8861   72.5326  221.5888 H   0  0  0  0  0  0  0  0  0  0  0  0
  145.6274   74.6650  221.8296 H   0  0  0  0  0  0  0  0  0  0  0  0
  138.7954   75.5432  222.4752 H   0  0  0  0  0  0  0  0  0  0  0  0
  139.7526   76.0205  219.5970 H   0  0  0  0  0  0  0  0  0  0  0  0
  138.0309   76.0380  219.9960 H   0  0  0  0  0  0  0  0  0  0  0  0
  138.8628   73.7503  219.3554 H   0  0  0  0  0  0  0  0  0  0  0  0
  138.2334   73.8263  221.0674 H   0  0  0  0  0  0  0  0  0  0  0  0
  140.9946   73.6072  220.0284 H   0  0  0  0  0  0  0  0  0  0  0  0
  139.8550   72.9600  223.4410 H   0  0  0  0  0  0  0  0  0  0  0  0
  138.4637   70.5977  223.4079 H   0  0  0  0  0  0  0  0  0  0  0  0
  140.0668   70.0058  222.8760 H   0  0  0  0  0  0  0  0  0  0  0  0
  139.2002   68.8652  225.3561 H   0  0  0  0  0  0  0  0  0  0  0  0
  140.0420   69.0126  227.7160 H   0  0  0  0  0  0  0  0  0  0  0  0
  141.2810   71.0132  228.4391 H   0  0  0  0  0  0  0  0  0  0  0  0
  141.7259   72.8992  226.8883 H   0  0  0  0  0  0  0  0  0  0  0  0
  142.0767   74.1160  221.9165 H   0  0  0  0  0  0  0  0  0  0  0  0
  140.5435   74.0549  222.9146 H   0  0  0  0  0  0  0  0  0  0  0  0
  141.3654   76.2170  220.9488 H   0  0  0  0  0  0  0  0  0  0  0  0
  141.2624   76.3639  222.7148 H   0  0  0  0  0  0  0  0  0  0  0  0
  1  2  1  0
  2  3  1  0
  3  4  1  0
  4  5  1  0
  5  6  1  0
  6  7  2  0
  6  8  1  0
  8  9  2  0
  9 10  1  0
 10 11  2  0
 11 12  1  0
 12 13  2  0
 13 14  1  0
 13 15  1  0
 15 16  2  0
 16 17  1  0
 17 18  2  0
  2 19  1  0
 19 20  2  0
 19 21  1  0
 21 22  1  0
 22 23  1  0
 23 24  1  0
 24 25  1  0
 25 26  2  0
 25 27  1  0
 27 28  1  0
 28 29  1  0
 29 30  2  0
 30 31  1  0
 31 32  2  0
 32 33  1  0
 33 34  2  0
 24 35  1  0
 35 36  1  0
 18  8  1  0
 36 21  1  0
 17 11  1  0
 34 29  1  0
  1 37  1  0
  1 38  1  0
  1 39  1  0
  3 40  1  0
  3 41  1  0
  4 42  1  0
  4 43  1  0
  5 44  1  0
  9 45  1  0
 10 46  1  0
 12 47  1  0
 15 48  1  0
 16 49  1  0
 21 50  1  1
 22 51  1  0
 22 52  1  0
 23 53  1  0
 23 54  1  0
 24 55  1  6
 27 56  1  0
 28 57  1  0
 28 58  1  0
 30 59  1  0
 31 60  1  0
 32 61  1  0
 33 62  1  0
 35 63  1  0
 35 64  1  0
 36 65  1  0
 36 66  1  0
M  END
>  <smiles>  (17) 
CN(CCNC(=O)c1ccc2cc(F)ccc2n1)C(=O)[C@H]1CC[C@H](C(=O)NCc2ccccn2)CC1

>  <score_type>  (17) 
oracle

>  <origin>  (17) 
autodockgpu

>  <m_score__min__energy>  (17) 
-8.8699999999999992

>  <m_primary>  (17) 
energy

>  <rmsd>  (17) 
7.485529765722489

>  <m_score__min__rmsd>  (17) 
7.485529765722489

>  <meeko>  (17) 
{"free_energy": -7.29, "intermolecular_energy": -9.98, "internal_energy": -3.39, "cluster_size": 6, "cluster_id": 5, "rank_in_cluster": 6}

>  <energy>  (17) 
-7.68

>  <cluster_rmsd>  (17) 
1.04

>  <cluster>  (17) 
5

$$$$

     RDKit          3D

 66 69  0  0  0  0  0  0  0  0999 V2000
  137.1530   70.2900  219.8110 C   0  0  0  0  0  0  0  0  0  0  0  0
  138.4770   69.8020  220.0600 N   0  0  0  0  0  0  0  0  0  0  0  0
  138.7360   68.4020  219.7000 C   0  0  0  0  0  0  0  0  0  0  0  0
  138.4020   67.5090  220.8840 C   0  0  0  0  0  0  0  0  0  0  0  0
  139.1920   67.9980  222.0070 N   0  0  0  0  0  0  0  0  0  0  0  0
  138.4690   68.3490  223.1830 C   0  0  0  0  0  0  0  0  0  0  0  0
  137.2020   68.1880  223.1080 O   0  0  0  0  0  0  0  0  0  0  0  0
  139.1180   68.8530  224.3830 C   0  0  0  0  0  0  0  0  0  0  0  0
  139.2120   67.9870  225.4640 C   0  0  0  0  0  0  0  0  0  0  0  0
  139.8190   68.4080  226.6430 C   0  0  0  0  0  0  0  0  0  0  0  0
  140.3010   69.6820  226.6710 C   0  0  0  0  0  0  0  0  0  0  0  0
  140.9110   70.1100  227.8520 C   0  0  0  0  0  0  0  0  0  0  0  0
  141.4140   71.4140  227.9080 C   0  0  0  0  0  0  0  0  0  0  0  0
  142.0100   71.8520  229.0430 F   0  0  0  0  0  0  0  0  0  0  0  0
  141.3060   72.2610  226.8110 C   0  0  0  0  0  0  0  0  0  0  0  0
  140.7030   71.8320  225.6460 C   0  0  0  0  0  0  0  0  0  0  0  0
  140.2090   70.5470  225.5980 C   0  0  0  0  0  0  0  0  0  0  0  0
  139.6150   70.1000  224.4770 N   0  0  0  0  0  0  0  0  0  0  0  0
  139.5470   70.5270  220.6100 C   0  0  0  0  0  0  0  0  0  0  0  0
  140.6490   69.8650  220.7730 O   0  0  0  0  0  0  0  0  0  0  0  0
  139.5810   71.9220  221.0230 C   0  0  1  0  0  0  0  0  0  0  0  0
  138.3160   72.4510  221.6620 C   0  0  0  0  0  0  0  0  0  0  0  0
  138.3610   73.9520  221.4640 C   0  0  0  0  0  0  0  0  0  0  0  0
  139.6110   74.5800  221.9830 C   0  0  2  0  0  0  0  0  0  0  0  0
  139.8090   75.8680  221.2660 C   0  0  0  0  0  0  0  0  0  0  0  0
  138.8980   76.3960  220.5630 O   0  0  0  0  0  0  0  0  0  0  0  0
  141.0800   76.4920  221.4060 N   0  0  0  0  0  0  0  0  0  0  0  0
  141.3600   77.7690  220.7330 C   0  0  0  0  0  0  0  0  0  0  0  0
  141.6210   78.8120  221.7780 C   0  0  0  0  0  0  0  0  0  0  0  0
  141.8800   80.1350  221.4040 C   0  0  0  0  0  0  0  0  0  0  0  0
  142.1140   81.0490  222.4170 C   0  0  0  0  0  0  0  0  0  0  0  0
  142.0830   80.6290  223.7280 C   0  0  0  0  0  0  0  0  0  0  0  0
  141.8250   79.3200  224.0820 C   0  0  0  0  0  0  0  0  0  0  0  0
  141.5980   78.4370  223.0760 N   0  0  0  0  0  0  0  0  0  0  0  0
  140.8710   73.7930  221.8510 C   0  0  0  0  0  0  0  0  0  0  0  0
  140.6780   72.3020  221.9860 C   0  0  0  0  0  0  0  0  0  0  0  0
  136.6451   70.4772  220.7686 H   0  0  0  0  0  0  0  0  0  0  0  0
  137.2093   71.2264  219.2366 H   0  0  0  0  0  0  0  0  0  0  0  0
  136.5881   69.5410  219.2366 H   0  0  0  0  0  0  0  0  0  0  0  0
  138.1098   68.1218  218.8402 H   0  0  0  0  0  0  0  0  0  0  0  0
  139.7963   68.2800  219.4338 H   0  0  0  0  0  0  0  0  0  0  0  0
  137.3290   67.5732  221.1177 H   0  0  0  0  0  0  0  0  0  0  0  0
  138.6314   66.4557  220.6650 H   0  0  0  0  0  0  0  0  0  0  0  0
  140.2310   68.0960  221.9770 H   0  0  0  0  0  0  0  0  0  0  0  0
  138.8063   66.9673  225.3883 H   0  0  0  0  0  0  0  0  0  0  0  0
  139.9059   67.7418  227.5140 H   0  0  0  0  0  0  0  0  0  0  0  0
  140.9940   69.4372  228.7183 H   0  0  0  0  0  0  0  0  0  0  0  0
  141.7054   73.2841  226.8721 H   0  0  0  0  0  0  0  0  0  0  0  0
  140.6189   72.5004  224.7764 H   0  0  0  0  0  0  0  0  0  0  0  0
  139.7492   72.3758  220.0352 H   0  0  0  0  0  0  0  0  0  0  0  0
  138.2946   72.2049  222.7339 H   0  0  0  0  0  0  0  0  0  0  0  0
  137.4152   72.0066  221.2136 H   0  0  0  0  0  0  0  0  0  0  0  0
  137.5028   74.3988  221.9874 H   0  0  0  0  0  0  0  0  0  0  0  0
  138.3293   74.1381  220.3803 H   0  0  0  0  0  0  0  0  0  0  0  0
  139.4457   74.6774  223.0661 H   0  0  0  0  0  0  0  0  0  0  0  0
  141.8360   76.0490  221.9920 H   0  0  0  0  0  0  0  0  0  0  0  0
  142.2440   77.6618  220.0872 H   0  0  0  0  0  0  0  0  0  0  0  0
  140.5004   78.0641  220.1133 H   0  0  0  0  0  0  0  0  0  0  0  0
  141.8970   80.4371  220.3464 H   0  0  0  0  0  0  0  0  0  0  0  0
  142.3229   82.1019  222.1767 H   0  0  0  0  0  0  0  0  0  0  0  0
  142.2710   81.3649  224.5237 H   0  0  0  0  0  0  0  0  0  0  0  0
  141.8042   79.0052  225.1358 H   0  0  0  0  0  0  0  0  0  0  0  0
  141.5697   74.1240  222.6335 H   0  0  0  0  0  0  0  0  0  0  0  0
  141.2560   73.9745  220.8367 H   0  0  0  0  0  0  0  0  0  0  0  0
  140.3843   72.0487  223.0154 H   0  0  0  0  0  0  0  0  0  0  0  0
  141.6083   71.7591  221.7627 H   0  0  0  0  0  0  0  0  0  0  0  0
  1  2  1  0
  2  3  1  0
  3  4  1  0
  4  5  1  0
  5  6  1  0
  6  7  2  0
  6  8  1  0
  8  9  2  0
  9 10  1  0
 10 11  2  0
 11 12  1  0
 12 13  2  0
 13 14  1  0
 13 15  1  0
 15 16  2  0
 16 17  1  0
 17 18  2  0
  2 19  1  0
 19 20  2  0
 19 21  1  0
 21 22  1  0
 22 23  1  0
 23 24  1  0
 24 25  1  0
 25 26  2  0
 25 27  1  0
 27 28  1  0
 28 29  1  0
 29 30  2  0
 30 31  1  0
 31 32  2  0
 32 33  1  0
 33 34  2  0
 24 35  1  0
 35 36  1  0
 18  8  1  0
 36 21  1  0
 17 11  1  0
 34 29  1  0
  1 37  1  0
  1 38  1  0
  1 39  1  0
  3 40  1  0
  3 41  1  0
  4 42  1  0
  4 43  1  0
  5 44  1  0
  9 45  1  0
 10 46  1  0
 12 47  1  0
 15 48  1  0
 16 49  1  0
 21 50  1  6
 22 51  1  0
 22 52  1  0
 23 53  1  0
 23 54  1  0
 24 55  1  1
 27 56  1  0
 28 57  1  0
 28 58  1  0
 30 59  1  0
 31 60  1  0
 32 61  1  0
 33 62  1  0
 35 63  1  0
 35 64  1  0
 36 65  1  0
 36 66  1  0
M  END
>  <smiles>  (18) 
CN(CCNC(=O)c1ccc2cc(F)ccc2n1)C(=O)[C@H]1CC[C@H](C(=O)NCc2ccccn2)CC1

>  <score_type>  (18) 
oracle

>  <origin>  (18) 
autodockgpu

>  <m_score__min__energy>  (18) 
-8.8699999999999992

>  <m_primary>  (18) 
energy

>  <rmsd>  (18) 
8.65389566889358

>  <m_score__min__rmsd>  (18) 
8.65389566889358

>  <meeko>  (18) 
{"free_energy": -8.03, "intermolecular_energy": -10.72, "internal_energy": -3.1, "cluster_size": 5, "cluster_id": 6, "rank_in_cluster": 1}

>  <energy>  (18) 
-7.29

>  <cluster_rmsd>  (18) 
0.96

>  <cluster>  (18) 
5

$$$$

     RDKit          3D

 66 69  0  0  0  0  0  0  0  0999 V2000
  141.4800   71.2030  220.3200 C   0  0  0  0  0  0  0  0  0  0  0  0
  140.1300   71.3370  219.8580 N   0  0  0  0  0  0  0  0  0  0  0  0
  139.6540   72.7060  219.6220 C   0  0  0  0  0  0  0  0  0  0  0  0
  138.9060   73.1970  220.8510 C   0  0  0  0  0  0  0  0  0  0  0  0
  139.6050   72.6500  222.0070 N   0  0  0  0  0  0  0  0  0  0  0  0
  138.8440   71.8040  222.8630 C   0  0  0  0  0  0  0  0  0  0  0  0
  137.6290   71.6240  222.5070 O   0  0  0  0  0  0  0  0  0  0  0  0
  139.4030   71.1860  224.0550 C   0  0  0  0  0  0  0  0  0  0  0  0
  140.4160   71.8730  224.7100 C   0  0  0  0  0  0  0  0  0  0  0  0
  140.9960   71.3350  225.8550 C   0  0  0  0  0  0  0  0  0  0  0  0
  140.5240   70.1300  226.2800 C   0  0  0  0  0  0  0  0  0  0  0  0
  141.1020   69.5850  227.4280 C   0  0  0  0  0  0  0  0  0  0  0  0
  140.6360   68.3480  227.8870 C   0  0  0  0  0  0  0  0  0  0  0  0
  141.1820   67.8000  229.0000 F   0  0  0  0  0  0  0  0  0  0  0  0
  139.6210   67.6810  227.2120 C   0  0  0  0  0  0  0  0  0  0  0  0
  139.0530   68.2250  226.0780 C   0  0  0  0  0  0  0  0  0  0  0  0
  139.5170   69.4430  225.6320 C   0  0  0  0  0  0  0  0  0  0  0  0
  138.9830   69.9990  224.5280 N   0  0  0  0  0  0  0  0  0  0  0  0
  139.2230   70.2940  219.6110 C   0  0  0  0  0  0  0  0  0  0  0  0
  139.2910   69.7590  218.4330 O   0  0  0  0  0  0  0  0  0  0  0  0
  138.2150   69.7370  220.5000 C   0  0  1  0  0  0  0  0  0  0  0  0
  136.8540   69.4970  219.8840 C   0  0  0  0  0  0  0  0  0  0  0  0
  135.8800   69.4960  221.0450 C   0  0  0  0  0  0  0  0  0  0  0  0
  136.2400   68.5250  222.1190 C   0  0  2  0  0  0  0  0  0  0  0  0
  135.6060   68.9850  223.3830 C   0  0  0  0  0  0  0  0  0  0  0  0
  135.0440   68.1840  224.1860 O   0  0  0  0  0  0  0  0  0  0  0  0
  135.6590   70.3800  223.6580 N   0  0  0  0  0  0  0  0  0  0  0  0
  135.0590   70.9200  224.8870 C   0  0  0  0  0  0  0  0  0  0  0  0
  135.0410   72.4160  224.7930 C   0  0  0  0  0  0  0  0  0  0  0  0
  134.3090   73.1720  225.7140 C   0  0  0  0  0  0  0  0  0  0  0  0
  134.3340   74.5480  225.5710 C   0  0  0  0  0  0  0  0  0  0  0  0
  135.0650   75.1090  224.5470 C   0  0  0  0  0  0  0  0  0  0  0  0
  135.7840   74.3500  223.6460 C   0  0  0  0  0  0  0  0  0  0  0  0
  135.7480   73.0020  223.8000 N   0  0  0  0  0  0  0  0  0  0  0  0
  137.6920   68.3220  222.3900 C   0  0  0  0  0  0  0  0  0  0  0  0
  138.5650   68.4290  221.1630 C   0  0  0  0  0  0  0  0  0  0  0  0
  141.4927   71.2017  221.4199 H   0  0  0  0  0  0  0  0  0  0  0  0
  141.9030   70.2585  219.9473 H   0  0  0  0  0  0  0  0  0  0  0  0
  142.0805   72.0460  219.9473 H   0  0  0  0  0  0  0  0  0  0  0  0
  140.5128   73.3651  219.4269 H   0  0  0  0  0  0  0  0  0  0  0  0
  138.9808   72.7171  218.7521 H   0  0  0  0  0  0  0  0  0  0  0  0
  138.9145   74.2964  220.8870 H   0  0  0  0  0  0  0  0  0  0  0  0
  137.8547   72.8738  220.8323 H   0  0  0  0  0  0  0  0  0  0  0  0
  140.6070   72.8530  222.2190 H   0  0  0  0  0  0  0  0  0  0  0  0
  140.7606   72.8436  224.3236 H   0  0  0  0  0  0  0  0  0  0  0  0
  141.7996   71.8594  226.3927 H   0  0  0  0  0  0  0  0  0  0  0  0
  141.9055   70.1159  227.9596 H   0  0  0  0  0  0  0  0  0  0  0  0
  139.2664   66.7090  227.5855 H   0  0  0  0  0  0  0  0  0  0  0  0
  138.2489   67.6986  225.5430 H   0  0  0  0  0  0  0  0  0  0  0  0
  138.1826   70.5547  221.2351 H   0  0  0  0  0  0  0  0  0  0  0  0
  136.8329   68.5283  219.3633 H   0  0  0  0  0  0  0  0  0  0  0  0
  136.6012   70.2660  219.1392 H   0  0  0  0  0  0  0  0  0  0  0  0
  134.8814   69.2384  220.6623 H   0  0  0  0  0  0  0  0  0  0  0  0
  135.9070   70.5004  221.4927 H   0  0  0  0  0  0  0  0  0  0  0  0
  135.8789   67.5533  221.7512 H   0  0  0  0  0  0  0  0  0  0  0  0
  136.1280   71.0430  222.9860 H   0  0  0  0  0  0  0  0  0  0  0  0
  134.0312   70.5430  224.9942 H   0  0  0  0  0  0  0  0  0  0  0  0
  135.6469   70.6055  225.7619 H   0  0  0  0  0  0  0  0  0  0  0  0
  133.7358   72.6915  226.5206 H   0  0  0  0  0  0  0  0  0  0  0  0
  133.7749   75.1885  226.2690 H   0  0  0  0  0  0  0  0  0  0  0  0
  135.0761   76.2041  224.4434 H   0  0  0  0  0  0  0  0  0  0  0  0
  136.3626   74.8184  222.8362 H   0  0  0  0  0  0  0  0  0  0  0  0
  137.8264   67.3203  222.8242 H   0  0  0  0  0  0  0  0  0  0  0  0
  138.0040   69.1247  223.0743 H   0  0  0  0  0  0  0  0  0  0  0  0
  138.3639   67.5909  220.4795 H   0  0  0  0  0  0  0  0  0  0  0  0
  139.6315   68.3916  221.4297 H   0  0  0  0  0  0  0  0  0  0  0  0
  1  2  1  0
  2  3  1  0
  3  4  1  0
  4  5  1  0
  5  6  1  0
  6  7  2  0
  6  8  1  0
  8  9  2  0
  9 10  1  0
 10 11  2  0
 11 12  1  0
 12 13  2  0
 13 14  1  0
 13 15  1  0
 15 16  2  0
 16 17  1  0
 17 18  2  0
  2 19  1  0
 19 20  2  0
 19 21  1  0
 21 22  1  0
 22 23  1  0
 23 24  1  0
 24 25  1  0
 25 26  2  0
 25 27  1  0
 27 28  1  0
 28 29  1  0
 29 30  2  0
 30 31  1  0
 31 32  2  0
 32 33  1  0
 33 34  2  0
 24 35  1  0
 35 36  1  0
 18  8  1  0
 36 21  1  0
 17 11  1  0
 34 29  1  0
  1 37  1  0
  1 38  1  0
  1 39  1  0
  3 40  1  0
  3 41  1  0
  4 42  1  0
  4 43  1  0
  5 44  1  0
  9 45  1  0
 10 46  1  0
 12 47  1  0
 15 48  1  0
 16 49  1  0
 21 50  1  1
 22 51  1  0
 22 52  1  0
 23 53  1  0
 23 54  1  0
 24 55  1  6
 27 56  1  0
 28 57  1  0
 28 58  1  0
 30 59  1  0
 31 60  1  0
 32 61  1  0
 33 62  1  0
 35 63  1  0
 35 64  1  0
 36 65  1  0
 36 66  1  0
M  END
>  <smiles>  (19) 
CN(CCNC(=O)c1ccc2cc(F)ccc2n1)C(=O)[C@H]1CC[C@H](C(=O)NCc2ccccn2)CC1

>  <score_type>  (19) 
oracle

>  <origin>  (19) 
autodockgpu

>  <m_score__min__energy>  (19) 
-8.8699999999999992

>  <m_primary>  (19) 
energy

>  <rmsd>  (19) 
8.348308044814114

>  <m_score__min__rmsd>  (19) 
8.348308044814114

>  <meeko>  (19) 
{"free_energy": -5.5, "intermolecular_energy": -8.19, "internal_energy": -4.68, "cluster_size": 3, "cluster_id": 7, "rank_in_cluster": 3}

>  <energy>  (19) 
-8.03

>  <cluster_rmsd>  (19) 
0.0

>  <cluster>  (19) 
6

$$$$

     RDKit          3D

 66 69  0  0  0  0  0  0  0  0999 V2000
  138.7500   75.0810  218.9470 C   0  0  0  0  0  0  0  0  0  0  0  0
  139.1350   74.0600  219.8760 N   0  0  0  0  0  0  0  0  0  0  0  0
  138.3490   72.8190  219.8450 C   0  0  0  0  0  0  0  0  0  0  0  0
  137.3250   72.8460  220.9680 C   0  0  0  0  0  0  0  0  0  0  0  0
  138.0580   72.6050  222.2040 N   0  0  0  0  0  0  0  0  0  0  0  0
  138.2930   71.2420  222.5430 C   0  0  0  0  0  0  0  0  0  0  0  0
  137.8280   70.3880  221.7120 O   0  0  0  0  0  0  0  0  0  0  0  0
  139.0090   70.8450  223.7450 C   0  0  0  0  0  0  0  0  0  0  0  0
  139.9640   71.7250  224.2350 C   0  0  0  0  0  0  0  0  0  0  0  0
  140.6870   71.4030  225.3800 C   0  0  0  0  0  0  0  0  0  0  0  0
  140.4080   70.2090  225.9730 C   0  0  0  0  0  0  0  0  0  0  0  0
  141.1300   69.8800  227.1220 C   0  0  0  0  0  0  0  0  0  0  0  0
  140.8640   68.6600  227.7510 C   0  0  0  0  0  0  0  0  0  0  0  0
  141.5520   68.3200  228.8680 F   0  0  0  0  0  0  0  0  0  0  0  0
  139.9020   67.7970  227.2410 C   0  0  0  0  0  0  0  0  0  0  0  0
  139.1900   68.1270  226.1040 C   0  0  0  0  0  0  0  0  0  0  0  0
  139.4580   69.3300  225.4900 C   0  0  0  0  0  0  0  0  0  0  0  0
  138.7820   69.6800  224.3800 N   0  0  0  0  0  0  0  0  0  0  0  0
  140.1830   74.1280  220.8080 C   0  0  0  0  0  0  0  0  0  0  0  0
  139.8720   74.6170  221.9680 O   0  0  0  0  0  0  0  0  0  0  0  0
  141.5710   73.7240  220.6460 C   0  0  1  0  0  0  0  0  0  0  0  0
  142.6000   74.8190  220.8250 C   0  0  0  0  0  0  0  0  0  0  0  0
  143.8250   74.3490  220.0670 C   0  0  0  0  0  0  0  0  0  0  0  0
  144.2980   72.9970  220.4860 C   0  0  2  0  0  0  0  0  0  0  0  0
  145.0830   72.4180  219.3640 C   0  0  0  0  0  0  0  0  0  0  0  0
  145.9360   73.0940  218.7170 O   0  0  0  0  0  0  0  0  0  0  0  0
  144.8350   71.0540  219.0440 N   0  0  0  0  0  0  0  0  0  0  0  0
  145.5690   70.4000  217.9500 C   0  0  0  0  0  0  0  0  0  0  0  0
  145.7150   68.9440  218.2760 C   0  0  0  0  0  0  0  0  0  0  0  0
  146.1290   68.0400  217.2930 C   0  0  0  0  0  0  0  0  0  0  0  0
  146.2440   66.7100  217.6580 C   0  0  0  0  0  0  0  0  0  0  0  0
  145.9510   66.3360  218.9510 C   0  0  0  0  0  0  0  0  0  0  0  0
  145.5440   67.2400  219.9110 C   0  0  0  0  0  0  0  0  0  0  0  0
  145.4370   68.5400  219.5360 N   0  0  0  0  0  0  0  0  0  0  0  0
  143.2550   72.0030  220.8680 C   0  0  0  0  0  0  0  0  0  0  0  0
  142.0470   72.6080  221.5410 C   0  0  0  0  0  0  0  0  0  0  0  0
  138.4143   75.9713  219.4990 H   0  0  0  0  0  0  0  0  0  0  0  0
  139.6105   75.3446  218.3145 H   0  0  0  0  0  0  0  0  0  0  0  0
  137.9297   74.7108  218.3145 H   0  0  0  0  0  0  0  0  0  0  0  0
  137.8318   72.7355  218.8778 H   0  0  0  0  0  0  0  0  0  0  0  0
  139.0176   71.9554  219.9761 H   0  0  0  0  0  0  0  0  0  0  0  0
  136.8287   73.8270  221.0059 H   0  0  0  0  0  0  0  0  0  0  0  0
  136.5458   72.0851  220.8135 H   0  0  0  0  0  0  0  0  0  0  0  0
  138.4020   73.3710  222.8240 H   0  0  0  0  0  0  0  0  0  0  0  0
  140.1497   72.6779  223.7179 H   0  0  0  0  0  0  0  0  0  0  0  0
  141.4498   72.0826  225.7878 H   0  0  0  0  0  0  0  0  0  0  0  0
  141.8911   70.5654  227.5233 H   0  0  0  0  0  0  0  0  0  0  0  0
  139.7052   66.8408  227.7479 H   0  0  0  0  0  0  0  0  0  0  0  0
  138.4276   67.4453  225.6991 H   0  0  0  0  0  0  0  0  0  0  0  0
  141.5182   73.3918  219.5987 H   0  0  0  0  0  0  0  0  0  0  0  0
  142.8358   74.9549  221.8908 H   0  0  0  0  0  0  0  0  0  0  0  0
  142.2353   75.7875  220.4522 H   0  0  0  0  0  0  0  0  0  0  0  0
  144.6378   75.0707  220.2358 H   0  0  0  0  0  0  0  0  0  0  0  0
  143.5440   74.2805  219.0057 H   0  0  0  0  0  0  0  0  0  0  0  0
  144.8748   73.1745  221.4057 H   0  0  0  0  0  0  0  0  0  0  0  0
  144.1230   70.4950  219.5850 H   0  0  0  0  0  0  0  0  0  0  0  0
  145.0114   70.5150  217.0088 H   0  0  0  0  0  0  0  0  0  0  0  0
  146.5611   70.8608  217.8347 H   0  0  0  0  0  0  0  0  0  0  0  0
  146.3546   68.3730  216.2692 H   0  0  0  0  0  0  0  0  0  0  0  0
  146.5664   65.9584  216.9224 H   0  0  0  0  0  0  0  0  0  0  0  0
  146.0451   65.2759  219.2290 H   0  0  0  0  0  0  0  0  0  0  0  0
  145.3156   66.9200  220.9383 H   0  0  0  0  0  0  0  0  0  0  0  0
  143.7070   71.2753  221.5580 H   0  0  0  0  0  0  0  0  0  0  0  0
  142.9007   71.5394  219.9355 H   0  0  0  0  0  0  0  0  0  0  0  0
  142.3218   73.0048  222.5294 H   0  0  0  0  0  0  0  0  0  0  0  0
  141.2584   71.8562  221.6923 H   0  0  0  0  0  0  0  0  0  0  0  0
  1  2  1  0
  2  3  1  0
  3  4  1  0
  4  5  1  0
  5  6  1  0
  6  7  2  0
  6  8  1  0
  8  9  2  0
  9 10  1  0
 10 11  2  0
 11 12  1  0
 12 13  2  0
 13 14  1  0
 13 15  1  0
 15 16  2  0
 16 17  1  0
 17 18  2  0
  2 19  1  0
 19 20  2  0
 19 21  1  0
 21 22  1  0
 22 23  1  0
 23 24  1  0
 24 25  1  0
 25 26  2  0
 25 27  1  0
 27 28  1  0
 28 29  1  0
 29 30  2  0
 30 31  1  0
 31 32  2  0
 32 33  1  0
 33 34  2  0
 24 35  1  0
 35 36  1  0
 18  8  1  0
 36 21  1  0
 17 11  1  0
 34 29  1  0
  1 37  1  0
  1 38  1  0
  1 39  1  0
  3 40  1  0
  3 41  1  0
  4 42  1  0
  4 43  1  0
  5 44  1  0
  9 45  1  0
 10 46  1  0
 12 47  1  0
 15 48  1  0
 16 49  1  0
 21 50  1  6
 22 51  1  0
 22 52  1  0
 23 53  1  0
 23 54  1  0
 24 55  1  1
 27 56  1  0
 28 57  1  0
 28 58  1  0
 30 59  1  0
 31 60  1  0
 32 61  1  0
 33 62  1  0
 35 63  1  0
 35 64  1  0
 36 65  1  0
 36 66  1  0
M  END
>  <smiles>  (20) 
CN(CCNC(=O)c1ccc2cc(F)ccc2n1)C(=O)[C@H]1CC[C@H](C(=O)NCc2ccccn2)CC1

>  <score_type>  (20) 
oracle

>  <origin>  (20) 
autodockgpu

>  <m_score__min__energy>  (20) 
-8.8699999999999992

>  <m_primary>  (20) 
energy

>  <rmsd>  (20) 
9.098791109134023

>  <m_score__min__rmsd>  (20) 
9.098791109134023

>  <meeko>  (20) 
{"free_energy": -8.87, "intermolecular_energy": -11.56, "internal_energy": -2.96, "cluster_size": 4, "cluster_id": 1, "rank_in_cluster": 1}

>  <energy>  (20) 
-7.96

>  <cluster_rmsd>  (20) 
0.48

>  <cluster>  (20) 
6

$$$$

     RDKit          3D

 66 69  0  0  0  0  0  0  0  0999 V2000
  139.6100   72.1970  219.6330 C   0  0  0  0  0  0  0  0  0  0  0  0
  139.4910   73.1050  220.7350 N   0  0  0  0  0  0  0  0  0  0  0  0
  138.2950   72.9600  221.5740 C   0  0  0  0  0  0  0  0  0  0  0  0
  137.4840   74.2450  221.5190 C   0  0  0  0  0  0  0  0  0  0  0  0
  138.2570   75.2540  222.2320 N   0  0  0  0  0  0  0  0  0  0  0  0
  138.3220   76.5420  221.6300 C   0  0  0  0  0  0  0  0  0  0  0  0
  137.6850   76.6580  220.5260 O   0  0  0  0  0  0  0  0  0  0  0  0
  139.0550   77.6500  222.2220 C   0  0  0  0  0  0  0  0  0  0  0  0
  138.3350   78.5430  223.0040 C   0  0  0  0  0  0  0  0  0  0  0  0
  138.9760   79.6260  223.5960 C   0  0  0  0  0  0  0  0  0  0  0  0
  140.3140   79.7520  223.3710 C   0  0  0  0  0  0  0  0  0  0  0  0
  140.9640   80.8370  223.9630 C   0  0  0  0  0  0  0  0  0  0  0  0
  142.3370   80.9910  223.7470 C   0  0  0  0  0  0  0  0  0  0  0  0
  142.9890   82.0360  224.3130 F   0  0  0  0  0  0  0  0  0  0  0  0
  143.0350   80.0820  222.9610 C   0  0  0  0  0  0  0  0  0  0  0  0
  142.3880   79.0110  222.3780 C   0  0  0  0  0  0  0  0  0  0  0  0
  141.0350   78.8660  222.5950 C   0  0  0  0  0  0  0  0  0  0  0  0
  140.3760   77.8330  222.0400 N   0  0  0  0  0  0  0  0  0  0  0  0
  140.4010   74.1140  221.0900 C   0  0  0  0  0  0  0  0  0  0  0  0
  140.7300   74.1570  222.3430 O   0  0  0  0  0  0  0  0  0  0  0  0
  141.0210   75.1180  220.2400 C   0  0  1  0  0  0  0  0  0  0  0  0
  142.5100   74.9640  220.0170 C   0  0  0  0  0  0  0  0  0  0  0  0
  143.0080   76.3450  219.6430 C   0  0  0  0  0  0  0  0  0  0  0  0
  142.2800   76.9440  218.4870 C   0  0  2  0  0  0  0  0  0  0  0  0
  142.4280   78.4210  218.5670 C   0  0  0  0  0  0  0  0  0  0  0  0
  143.2820   79.0530  217.8800 O   0  0  0  0  0  0  0  0  0  0  0  0
  141.5560   79.1060  219.4600 N   0  0  0  0  0  0  0  0  0  0  0  0
  141.6320   80.5680  219.6000 C   0  0  0  0  0  0  0  0  0  0  0  0
  140.3380   81.0610  220.1720 C   0  0  0  0  0  0  0  0  0  0  0  0
  140.2680   82.3220  220.7740 C   0  0  0  0  0  0  0  0  0  0  0  0
  139.0430   82.7170  221.2830 C   0  0  0  0  0  0  0  0  0  0  0  0
  137.9620   81.8710  221.1800 C   0  0  0  0  0  0  0  0  0  0  0  0
  138.0460   80.6290  220.5820 C   0  0  0  0  0  0  0  0  0  0  0  0
  139.2540   80.2570  220.0890 N   0  0  0  0  0  0  0  0  0  0  0  0
  140.8240   76.6410  218.3720 C   0  0  0  0  0  0  0  0  0  0  0  0
  140.4450   75.2620  218.8540 C   0  0  0  0  0  0  0  0  0  0  0  0
  139.7441   71.1738  220.0138 H   0  0  0  0  0  0  0  0  0  0  0  0
  138.6981   72.2434  219.0196 H   0  0  0  0  0  0  0  0  0  0  0  0
  140.4792   72.4768  219.0196 H   0  0  0  0  0  0  0  0  0  0  0  0
  137.6845   72.1239  221.2022 H   0  0  0  0  0  0  0  0  0  0  0  0
  138.5957   72.7581  222.6127 H   0  0  0  0  0  0  0  0  0  0  0  0
  137.3300   74.5526  220.4742 H   0  0  0  0  0  0  0  0  0  0  0  0
  136.4921   74.1088  221.9747 H   0  0  0  0  0  0  0  0  0  0  0  0
  138.7460   75.0670  223.1360 H   0  0  0  0  0  0  0  0  0  0  0  0
  137.2558   78.3937  223.1556 H   0  0  0  0  0  0  0  0  0  0  0  0
  138.4274   80.3486  224.2180 H   0  0  0  0  0  0  0  0  0  0  0  0
  140.4086   81.5542  224.5851 H   0  0  0  0  0  0  0  0  0  0  0  0
  144.1149   80.2174  222.8017 H   0  0  0  0  0  0  0  0  0  0  0  0
  142.9391   78.2908  221.7554 H   0  0  0  0  0  0  0  0  0  0  0  0
  140.7979   76.0037  220.8529 H   0  0  0  0  0  0  0  0  0  0  0  0
  142.7050   74.2512  219.2022 H   0  0  0  0  0  0  0  0  0  0  0  0
  143.0186   74.5751  220.9114 H   0  0  0  0  0  0  0  0  0  0  0  0
  144.0746   76.2728  219.3839 H   0  0  0  0  0  0  0  0  0  0  0  0
  142.8344   76.9989  220.5104 H   0  0  0  0  0  0  0  0  0  0  0  0
  142.7389   76.4846  217.5991 H   0  0  0  0  0  0  0  0  0  0  0  0
  140.8460   78.5760  220.0310 H   0  0  0  0  0  0  0  0  0  0  0  0
  142.4600   80.8333  220.2738 H   0  0  0  0  0  0  0  0  0  0  0  0
  141.8096   81.0309  218.6181 H   0  0  0  0  0  0  0  0  0  0  0  0
  141.1516   82.9738  220.8402 H   0  0  0  0  0  0  0  0  0  0  0  0
  138.9341   83.6993  221.7661 H   0  0  0  0  0  0  0  0  0  0  0  0
  136.9944   82.1966  221.5896 H   0  0  0  0  0  0  0  0  0  0  0  0
  137.1695   79.9685  220.5084 H   0  0  0  0  0  0  0  0  0  0  0  0
  140.5345   76.7297  217.3145 H   0  0  0  0  0  0  0  0  0  0  0  0
  140.2970   77.3599  219.0166 H   0  0  0  0  0  0  0  0  0  0  0  0
  140.8672   74.4969  218.1859 H   0  0  0  0  0  0  0  0  0  0  0  0
  139.3530   75.1303  218.8621 H   0  0  0  0  0  0  0  0  0  0  0  0
  1  2  1  0
  2  3  1  0
  3  4  1  0
  4  5  1  0
  5  6  1  0
  6  7  2  0
  6  8  1  0
  8  9  2  0
  9 10  1  0
 10 11  2  0
 11 12  1  0
 12 13  2  0
 13 14  1  0
 13 15  1  0
 15 16  2  0
 16 17  1  0
 17 18  2  0
  2 19  1  0
 19 20  2  0
 19 21  1  0
 21 22  1  0
 22 23  1  0
 23 24  1  0
 24 25  1  0
 25 26  2  0
 25 27  1  0
 27 28  1  0
 28 29  1  0
 29 30  2  0
 30 31  1  0
 31 32  2  0
 32 33  1  0
 33 34  2  0
 24 35  1  0
 35 36  1  0
 18  8  1  0
 36 21  1  0
 17 11  1  0
 34 29  1  0
  1 37  1  0
  1 38  1  0
  1 39  1  0
  3 40  1  0
  3 41  1  0
  4 42  1  0
  4 43  1  0
  5 44  1  0
  9 45  1  0
 10 46  1  0
 12 47  1  0
 15 48  1  0
 16 49  1  0
 21 50  1  1
 22 51  1  0
 22 52  1  0
 23 53  1  0
 23 54  1  0
 24 55  1  6
 27 56  1  0
 28 57  1  0
 28 58  1  0
 30 59  1  0
 31 60  1  0
 32 61  1  0
 33 62  1  0
 35 63  1  0
 35 64  1  0
 36 65  1  0
 36 66  1  0
M  END
>  <smiles>  (21) 
CN(CCNC(=O)c1ccc2cc(F)ccc2n1)C(=O)[C@H]1CC[C@H](C(=O)NCc2ccccn2)CC1

>  <score_type>  (21) 
oracle

>  <origin>  (21) 
autodockgpu

>  <m_score__min__energy>  (21) 
-8.8699999999999992

>  <m_primary>  (21) 
energy

>  <rmsd>  (21) 
6.593548420213114

>  <m_score__min__rmsd>  (21) 
6.593548420213114

>  <meeko>  (21) 
{"free_energy": -5.8, "intermolecular_energy": -8.49, "internal_energy": -5.69, "cluster_size": 10, "cluster_id": 13, "rank_in_cluster": 5}

>  <energy>  (21) 
-7.96

>  <cluster_rmsd>  (21) 
1.67

>  <cluster>  (21) 
6

$$$$

     RDKit          3D

 66 69  0  0  0  0  0  0  0  0999 V2000
  143.9580   76.7740  214.6090 C   0  0  0  0  0  0  0  0  0  0  0  0
  143.0940   76.3800  215.6820 N   0  0  0  0  0  0  0  0  0  0  0  0
  141.7840   77.0410  215.7420 C   0  0  0  0  0  0  0  0  0  0  0  0
  141.9550   78.5230  215.4480 C   0  0  0  0  0  0  0  0  0  0  0  0
  142.2750   79.1630  216.7180 N   0  0  0  0  0  0  0  0  0  0  0  0
  141.1950   79.3310  217.6300 C   0  0  0  0  0  0  0  0  0  0  0  0
  140.0650   78.8930  217.2200 O   0  0  0  0  0  0  0  0  0  0  0  0
  141.3590   79.9520  218.9350 C   0  0  0  0  0  0  0  0  0  0  0  0
  141.1840   81.3270  219.0090 C   0  0  0  0  0  0  0  0  0  0  0  0
  141.3300   81.9840  220.2270 C   0  0  0  0  0  0  0  0  0  0  0  0
  141.6460   81.2180  221.3100 C   0  0  0  0  0  0  0  0  0  0  0  0
  141.7940   81.8710  222.5350 C   0  0  0  0  0  0  0  0  0  0  0  0
  142.1180   81.1100  223.6620 C   0  0  0  0  0  0  0  0  0  0  0  0
  142.2660   81.7220  224.8620 F   0  0  0  0  0  0  0  0  0  0  0  0
  142.2880   79.7340  223.5600 C   0  0  0  0  0  0  0  0  0  0  0  0
  142.1400   79.0940  222.3470 C   0  0  0  0  0  0  0  0  0  0  0  0
  141.8210   79.8510  221.2410 C   0  0  0  0  0  0  0  0  0  0  0  0
  141.6700   79.2550  220.0430 N   0  0  0  0  0  0  0  0  0  0  0  0
  143.3750   75.4300  216.6770 C   0  0  0  0  0  0  0  0  0  0  0  0
  144.1590   74.4610  216.3220 O   0  0  0  0  0  0  0  0  0  0  0  0
  142.9010   75.3870  218.0520 C   0  0  1  0  0  0  0  0  0  0  0  0
  143.1020   74.0750  218.7770 C   0  0  0  0  0  0  0  0  0  0  0  0
  142.0700   74.0640  219.8850 C   0  0  0  0  0  0  0  0  0  0  0  0
  142.1390   75.2620  220.7710 C   0  0  2  0  0  0  0  0  0  0  0  0
  140.8090   75.4350  221.4140 C   0  0  0  0  0  0  0  0  0  0  0  0
  140.2200   74.4860  222.0100 O   0  0  0  0  0  0  0  0  0  0  0  0
  140.2200   76.7270  221.3330 N   0  0  0  0  0  0  0  0  0  0  0  0
  138.9080   76.9860  221.9440 C   0  0  0  0  0  0  0  0  0  0  0  0
  138.7750   78.4600  222.1850 C   0  0  0  0  0  0  0  0  0  0  0  0
  138.9120   78.9790  223.4760 C   0  0  0  0  0  0  0  0  0  0  0  0
  138.7780   80.3480  223.6300 C   0  0  0  0  0  0  0  0  0  0  0  0
  138.5190   81.1310  222.5270 C   0  0  0  0  0  0  0  0  0  0  0  0
  138.3880   80.6050  221.2570 C   0  0  0  0  0  0  0  0  0  0  0  0
  138.5220   79.2600  221.1250 N   0  0  0  0  0  0  0  0  0  0  0  0
  142.5010   76.5590  220.1290 C   0  0  0  0  0  0  0  0  0  0  0  0
  143.4750   76.4250  218.9840 C   0  0  0  0  0  0  0  0  0  0  0  0
  144.8857   77.1971  215.0217 H   0  0  0  0  0  0  0  0  0  0  0  0
  144.1984   75.8965  213.9908 H   0  0  0  0  0  0  0  0  0  0  0  0
  143.4531   77.5309  213.9908 H   0  0  0  0  0  0  0  0  0  0  0  0
  141.1120   76.5933  214.9950 H   0  0  0  0  0  0  0  0  0  0  0  0
  141.3517   76.9118  216.7452 H   0  0  0  0  0  0  0  0  0  0  0  0
  142.7732   78.6757  214.7288 H   0  0  0  0  0  0  0  0  0  0  0  0
  141.0417   78.9489  215.0071 H   0  0  0  0  0  0  0  0  0  0  0  0
  143.2350   79.4890  216.9690 H   0  0  0  0  0  0  0  0  0  0  0  0
  140.9296   81.8980  218.1038 H   0  0  0  0  0  0  0  0  0  0  0  0
  141.1965   83.0725  220.3124 H   0  0  0  0  0  0  0  0  0  0  0  0
  141.6587   82.9600  222.6117 H   0  0  0  0  0  0  0  0  0  0  0  0
  142.5432   79.1494  224.4561 H   0  0  0  0  0  0  0  0  0  0  0  0
  142.2735   78.0052  222.2648 H   0  0  0  0  0  0  0  0  0  0  0  0
  141.8350   75.5773  217.8587 H   0  0  0  0  0  0  0  0  0  0  0  0
  144.1173   74.0190  219.1965 H   0  0  0  0  0  0  0  0  0  0  0  0
  142.9865   73.2137  218.1026 H   0  0  0  0  0  0  0  0  0  0  0  0
  142.2284   73.1659  220.5001 H   0  0  0  0  0  0  0  0  0  0  0  0
  141.0797   74.0709  219.4063 H   0  0  0  0  0  0  0  0  0  0  0  0
  142.9616   75.0468  221.4689 H   0  0  0  0  0  0  0  0  0  0  0  0
  140.7140   77.5140  220.8360 H   0  0  0  0  0  0  0  0  0  0  0  0
  138.1103   76.6479  221.2662 H   0  0  0  0  0  0  0  0  0  0  0  0
  138.8223   76.4405  222.8953 H   0  0  0  0  0  0  0  0  0  0  0  0
  139.1183   78.3248  224.3359 H   0  0  0  0  0  0  0  0  0  0  0  0
  138.8775   80.8067  224.6249 H   0  0  0  0  0  0  0  0  0  0  0  0
  138.4124   82.2173  222.6630 H   0  0  0  0  0  0  0  0  0  0  0  0
  138.1837   81.2485  220.3886 H   0  0  0  0  0  0  0  0  0  0  0  0
  142.9522   77.2093  220.8929 H   0  0  0  0  0  0  0  0  0  0  0  0
  141.5736   76.9778  219.7113 H   0  0  0  0  0  0  0  0  0  0  0  0
  144.4572   76.0992  219.3569 H   0  0  0  0  0  0  0  0  0  0  0  0
  143.6177   77.3864  218.4689 H   0  0  0  0  0  0  0  0  0  0  0  0
  1  2  1  0
  2  3  1  0
  3  4  1  0
  4  5  1  0
  5  6  1  0
  6  7  2  0
  6  8  1  0
  8  9  2  0
  9 10  1  0
 10 11  2  0
 11 12  1  0
 12 13  2  0
 13 14  1  0
 13 15  1  0
 15 16  2  0
 16 17  1  0
 17 18  2  0
  2 19  1  0
 19 20  2  0
 19 21  1  0
 21 22  1  0
 22 23  1  0
 23 24  1  0
 24 25  1  0
 25 26  2  0
 25 27  1  0
 27 28  1  0
 28 29  1  0
 29 30  2  0
 30 31  1  0
 31 32  2  0
 32 33  1  0
 33 34  2  0
 24 35  1  0
 35 36  1  0
 18  8  1  0
 36 21  1  0
 17 11  1  0
 34 29  1  0
  1 37  1  0
  1 38  1  0
  1 39  1  0
  3 40  1  0
  3 41  1  0
  4 42  1  0
  4 43  1  0
  5 44  1  0
  9 45  1  0
 10 46  1  0
 12 47  1  0
 15 48  1  0
 16 49  1  0
 21 50  1  6
 22 51  1  0
 22 52  1  0
 23 53  1  0
 23 54  1  0
 24 55  1  1
 27 56  1  0
 28 57  1  0
 28 58  1  0
 30 59  1  0
 31 60  1  0
 32 61  1  0
 33 62  1  0
 35 63  1  0
 35 64  1  0
 36 65  1  0
 36 66  1  0
M  END
>  <smiles>  (22) 
CN(CCNC(=O)c1ccc2cc(F)ccc2n1)C(=O)[C@H]1CC[C@H](C(=O)NCc2ccccn2)CC1

>  <score_type>  (22) 
oracle

>  <origin>  (22) 
autodockgpu

>  <m_score__min__energy>  (22) 
-8.8699999999999992

>  <m_primary>  (22) 
energy

>  <rmsd>  (22) 
6.754367564854394

>  <m_score__min__rmsd>  (22) 
6.754367564854394

>  <meeko>  (22) 
{"free_energy": -6.42, "intermolecular_energy": -9.1, "internal_energy": -4.46, "cluster_size": 4, "cluster_id": 14, "rank_in_cluster": 1}

>  <energy>  (22) 
-7.86

>  <cluster_rmsd>  (22) 
0.91

>  <cluster>  (22) 
6

$$$$

     RDKit          3D

 66 69  0  0  0  0  0  0  0  0999 V2000
  139.3760   71.8430  220.7190 C   0  0  0  0  0  0  0  0  0  0  0  0
  139.2420   73.2680  220.7840 N   0  0  0  0  0  0  0  0  0  0  0  0
  137.9220   73.8170  220.4500 C   0  0  0  0  0  0  0  0  0  0  0  0
  137.2310   74.2760  221.7240 C   0  0  0  0  0  0  0  0  0  0  0  0
  138.1030   75.2750  222.3300 N   0  0  0  0  0  0  0  0  0  0  0  0
  137.9370   76.6150  221.8780 C   0  0  0  0  0  0  0  0  0  0  0  0
  137.0320   76.7790  220.9880 O   0  0  0  0  0  0  0  0  0  0  0  0
  138.7330   77.7200  222.3880 C   0  0  0  0  0  0  0  0  0  0  0  0
  138.0580   78.7360  223.0520 C   0  0  0  0  0  0  0  0  0  0  0  0
  138.7610   79.8230  223.5610 C   0  0  0  0  0  0  0  0  0  0  0  0
  140.1110   79.8300  223.3760 C   0  0  0  0  0  0  0  0  0  0  0  0
  140.8220   80.9180  223.8840 C   0  0  0  0  0  0  0  0  0  0  0  0
  142.2090   80.9500  223.7070 C   0  0  0  0  0  0  0  0  0  0  0  0
  142.9200   81.9970  224.1930 F   0  0  0  0  0  0  0  0  0  0  0  0
  142.8610   79.9210  223.0400 C   0  0  0  0  0  0  0  0  0  0  0  0
  142.1530   78.8460  222.5390 C   0  0  0  0  0  0  0  0  0  0  0  0
  140.7870   78.8220  222.7170 C   0  0  0  0  0  0  0  0  0  0  0  0
  140.0690   77.7880  222.2390 N   0  0  0  0  0  0  0  0  0  0  0  0
  140.2440   74.1870  221.1350 C   0  0  0  0  0  0  0  0  0  0  0  0
  140.6990   74.0880  222.3450 O   0  0  0  0  0  0  0  0  0  0  0  0
  140.8390   75.2370  220.3220 C   0  0  1  0  0  0  0  0  0  0  0  0
  142.3220   75.1050  220.0580 C   0  0  0  0  0  0  0  0  0  0  0  0
  142.8030   76.5070  219.7430 C   0  0  0  0  0  0  0  0  0  0  0  0
  142.0450   77.1570  218.6340 C   0  0  2  0  0  0  0  0  0  0  0  0
  142.1860   78.6300  218.7850 C   0  0  0  0  0  0  0  0  0  0  0  0
  143.0280   79.2990  218.1180 O   0  0  0  0  0  0  0  0  0  0  0  0
  141.3220   79.2640  219.7210 N   0  0  0  0  0  0  0  0  0  0  0  0
  141.3920   80.7180  219.9320 C   0  0  0  0  0  0  0  0  0  0  0  0
  140.0400   81.2050  220.3590 C   0  0  0  0  0  0  0  0  0  0  0  0
  139.8900   82.4870  220.8950 C   0  0  0  0  0  0  0  0  0  0  0  0
  138.6150   82.8750  221.2700 C   0  0  0  0  0  0  0  0  0  0  0  0
  137.5650   82.0000  221.1040 C   0  0  0  0  0  0  0  0  0  0  0  0
  137.7290   80.7370  220.5730 C   0  0  0  0  0  0  0  0  0  0  0  0
  138.9850   80.3720  220.2110 N   0  0  0  0  0  0  0  0  0  0  0  0
  140.5890   76.8500  218.5370 C   0  0  0  0  0  0  0  0  0  0  0  0
  140.2300   75.4460  218.9590 C   0  0  0  0  0  0  0  0  0  0  0  0
  139.4147   71.4315  221.7384 H   0  0  0  0  0  0  0  0  0  0  0  0
  138.5139   71.4177  220.1843 H   0  0  0  0  0  0  0  0  0  0  0  0
  140.3023   71.5858  220.1843 H   0  0  0  0  0  0  0  0  0  0  0  0
  138.0415   74.6721  219.7684 H   0  0  0  0  0  0  0  0  0  0  0  0
  137.3141   73.0421  219.9601 H   0  0  0  0  0  0  0  0  0  0  0  0
  136.2524   74.7190  221.4873 H   0  0  0  0  0  0  0  0  0  0  0  0
  137.0561   73.4326  222.4081 H   0  0  0  0  0  0  0  0  0  0  0  0
  138.8170   75.0470  223.0560 H   0  0  0  0  0  0  0  0  0  0  0  0
  136.9663   78.6811  223.1755 H   0  0  0  0  0  0  0  0  0  0  0  0
  138.2496   80.6410  224.0896 H   0  0  0  0  0  0  0  0  0  0  0  0
  140.3034   81.7320  224.4117 H   0  0  0  0  0  0  0  0  0  0  0  0
  143.9524   79.9625  222.9093 H   0  0  0  0  0  0  0  0  0  0  0  0
  142.6670   78.0293  222.0110 H   0  0  0  0  0  0  0  0  0  0  0  0
  140.6255   76.0895  220.9836 H   0  0  0  0  0  0  0  0  0  0  0  0
  142.5025   74.4356  219.2040 H   0  0  0  0  0  0  0  0  0  0  0  0
  142.8535   74.6750  220.9198 H   0  0  0  0  0  0  0  0  0  0  0  0
  143.8640   76.4560  219.4574 H   0  0  0  0  0  0  0  0  0  0  0  0
  142.6449   77.1156  220.6455 H   0  0  0  0  0  0  0  0  0  0  0  0
  142.4859   76.7454  217.7141 H   0  0  0  0  0  0  0  0  0  0  0  0
  140.6230   78.7030  220.2750 H   0  0  0  0  0  0  0  0  0  0  0  0
  142.1313   80.9437  220.7146 H   0  0  0  0  0  0  0  0  0  0  0  0
  141.6949   81.2187  219.0006 H   0  0  0  0  0  0  0  0  0  0  0  0
  140.7510   83.1611  221.0142 H   0  0  0  0  0  0  0  0  0  0  0  0
  138.4423   83.8739  221.6970 H   0  0  0  0  0  0  0  0  0  0  0  0
  136.5569   82.3200  221.4062 H   0  0  0  0  0  0  0  0  0  0  0  0
  136.8761   80.0536  220.4481 H   0  0  0  0  0  0  0  0  0  0  0  0
  140.2748   76.9884  217.4920 H   0  0  0  0  0  0  0  0  0  0  0  0
  140.0723   77.5327  219.2276 H   0  0  0  0  0  0  0  0  0  0  0  0
  140.6409   74.7180  218.2440 H   0  0  0  0  0  0  0  0  0  0  0  0
  139.1392   75.3066  218.9863 H   0  0  0  0  0  0  0  0  0  0  0  0
  1  2  1  0
  2  3  1  0
  3  4  1  0
  4  5  1  0
  5  6  1  0
  6  7  2  0
  6  8  1  0
  8  9  2  0
  9 10  1  0
 10 11  2  0
 11 12  1  0
 12 13  2  0
 13 14  1  0
 13 15  1  0
 15 16  2  0
 16 17  1  0
 17 18  2  0
  2 19  1  0
 19 20  2  0
 19 21  1  0
 21 22  1  0
 22 23  1  0
 23 24  1  0
 24 25  1  0
 25 26  2  0
 25 27  1  0
 27 28  1  0
 28 29  1  0
 29 30  2  0
 30 31  1  0
 31 32  2  0
 32 33  1  0
 33 34  2  0
 24 35  1  0
 35 36  1  0
 18  8  1  0
 36 21  1  0
 17 11  1  0
 34 29  1  0
  1 37  1  0
  1 38  1  0
  1 39  1  0
  3 40  1  0
  3 41  1  0
  4 42  1  0
  4 43  1  0
  5 44  1  0
  9 45  1  0
 10 46  1  0
 12 47  1  0
 15 48  1  0
 16 49  1  0
 21 50  1  1
 22 51  1  0
 22 52  1  0
 23 53  1  0
 23 54  1  0
 24 55  1  6
 27 56  1  0
 28 57  1  0
 28 58  1  0
 30 59  1  0
 31 60  1  0
 32 61  1  0
 33 62  1  0
 35 63  1  0
 35 64  1  0
 36 65  1  0
 36 66  1  0
M  END
>  <smiles>  (23) 
CN(CCNC(=O)c1ccc2cc(F)ccc2n1)C(=O)[C@H]1CC[C@H](C(=O)NCc2ccccn2)CC1

>  <score_type>  (23) 
oracle

>  <origin>  (23) 
autodockgpu

>  <m_score__min__energy>  (23) 
-8.8699999999999992

>  <m_primary>  (23) 
energy

>  <rmsd>  (23) 
6.612939748423384

>  <m_score__min__rmsd>  (23) 
6.612939748423384

>  <meeko>  (23) 
{"free_energy": -5.77, "intermolecular_energy": -8.46, "internal_energy": -5.75, "cluster_size": 10, "cluster_id": 13, "rank_in_cluster": 6}

>  <energy>  (23) 
-7.75

>  <cluster_rmsd>  (23) 
0.9

>  <cluster>  (23) 
6

$$$$

     RDKit          3D

 66 69  0  0  0  0  0  0  0  0999 V2000
  137.6130   73.9050  219.2910 C   0  0  0  0  0  0  0  0  0  0  0  0
  138.0780   73.8000  220.6420 N   0  0  0  0  0  0  0  0  0  0  0  0
  137.1100   73.3080  221.6310 C   0  0  0  0  0  0  0  0  0  0  0  0
  136.3810   74.4900  222.2500 C   0  0  0  0  0  0  0  0  0  0  0  0
  137.4080   75.4240  222.6940 N   0  0  0  0  0  0  0  0  0  0  0  0
  137.2160   76.7890  222.3400 C   0  0  0  0  0  0  0  0  0  0  0  0
  136.1530   77.0320  221.6710 O   0  0  0  0  0  0  0  0  0  0  0  0
  138.1550   77.8360  222.7120 C   0  0  0  0  0  0  0  0  0  0  0  0
  137.6240   79.0700  223.0620 C   0  0  0  0  0  0  0  0  0  0  0  0
  138.4680   80.1150  223.4250 C   0  0  0  0  0  0  0  0  0  0  0  0
  139.8070   79.8610  223.4160 C   0  0  0  0  0  0  0  0  0  0  0  0
  140.6590   80.9050  223.7780 C   0  0  0  0  0  0  0  0  0  0  0  0
  142.0380   80.6720  223.7770 C   0  0  0  0  0  0  0  0  0  0  0  0
  142.8850   81.6700  224.1260 F   0  0  0  0  0  0  0  0  0  0  0  0
  142.5440   79.4270  223.4230 C   0  0  0  0  0  0  0  0  0  0  0  0
  141.6970   78.3970  223.0650 C   0  0  0  0  0  0  0  0  0  0  0  0
  140.3400   78.6350  223.0680 C   0  0  0  0  0  0  0  0  0  0  0  0
  139.4880   77.6520  222.7240 N   0  0  0  0  0  0  0  0  0  0  0  0
  139.3630   74.1180  221.1120 C   0  0  0  0  0  0  0  0  0  0  0  0
  139.6260   73.7430  222.3240 O   0  0  0  0  0  0  0  0  0  0  0  0
  140.4370   74.8140  220.4200 C   0  0  1  0  0  0  0  0  0  0  0  0
  141.4540   75.5010  221.3050 C   0  0  0  0  0  0  0  0  0  0  0  0
  142.0730   76.5840  220.4440 C   0  0  0  0  0  0  0  0  0  0  0  0
  142.6340   76.0700  219.1600 C   0  0  2  0  0  0  0  0  0  0  0  0
  142.6830   77.2010  218.1960 C   0  0  0  0  0  0  0  0  0  0  0  0
  142.7700   77.0200  216.9460 O   0  0  0  0  0  0  0  0  0  0  0  0
  142.6250   78.5130  218.7430 N   0  0  0  0  0  0  0  0  0  0  0  0
  142.6660   79.6900  217.8610 C   0  0  0  0  0  0  0  0  0  0  0  0
  142.1000   80.8630  218.6030 C   0  0  0  0  0  0  0  0  0  0  0  0
  141.9490   82.0960  217.9620 C   0  0  0  0  0  0  0  0  0  0  0  0
  141.4210   83.1390  218.7030 C   0  0  0  0  0  0  0  0  0  0  0  0
  141.0720   82.9260  220.0180 C   0  0  0  0  0  0  0  0  0  0  0  0
  141.2260   81.7020  220.6380 C   0  0  0  0  0  0  0  0  0  0  0  0
  141.7450   80.6900  219.8970 N   0  0  0  0  0  0  0  0  0  0  0  0
  141.9050   74.9480  218.5030 C   0  0  0  0  0  0  0  0  0  0  0  0
  141.2630   73.9830  219.4700 C   0  0  0  0  0  0  0  0  0  0  0  0
  136.5400   74.1473  219.2903 H   0  0  0  0  0  0  0  0  0  0  0  0
  138.1688   74.7003  218.7727 H   0  0  0  0  0  0  0  0  0  0  0  0
  137.7732   72.9481  218.7727 H   0  0  0  0  0  0  0  0  0  0  0  0
  136.3837   72.6459  221.1368 H   0  0  0  0  0  0  0  0  0  0  0  0
  137.6378   72.7474  222.4166 H   0  0  0  0  0  0  0  0  0  0  0  0
  135.7299   74.9681  221.5034 H   0  0  0  0  0  0  0  0  0  0  0  0
  135.7453   74.1700  223.0887 H   0  0  0  0  0  0  0  0  0  0  0  0
  138.2480   75.1320  223.2420 H   0  0  0  0  0  0  0  0  0  0  0  0
  136.5346   79.2219  223.0523 H   0  0  0  0  0  0  0  0  0  0  0  0
  138.0722   81.1019  223.7066 H   0  0  0  0  0  0  0  0  0  0  0  0
  140.2551   81.8892  224.0579 H   0  0  0  0  0  0  0  0  0  0  0  0
  143.6313   79.2603  223.4281 H   0  0  0  0  0  0  0  0  0  0  0  0
  142.0958   77.4110  222.7844 H   0  0  0  0  0  0  0  0  0  0  0  0
  139.8247   75.5455  219.8723 H   0  0  0  0  0  0  0  0  0  0  0  0
  142.2221   74.7860  221.6349 H   0  0  0  0  0  0  0  0  0  0  0  0
  140.9915   75.9155  222.2129 H   0  0  0  0  0  0  0  0  0  0  0  0
  142.8844   77.0611  221.0132 H   0  0  0  0  0  0  0  0  0  0  0  0
  141.2724   77.2938  220.1884 H   0  0  0  0  0  0  0  0  0  0  0  0
  143.6159   75.6542  219.4300 H   0  0  0  0  0  0  0  0  0  0  0  0
  142.5530   78.6600  219.7840 H   0  0  0  0  0  0  0  0  0  0  0  0
  143.7063   79.9009  217.5724 H   0  0  0  0  0  0  0  0  0  0  0  0
  142.0760   79.4997  216.9523 H   0  0  0  0  0  0  0  0  0  0  0  0
  142.2386   82.2321  216.9096 H   0  0  0  0  0  0  0  0  0  0  0  0
  141.2814   84.1295  218.2454 H   0  0  0  0  0  0  0  0  0  0  0  0
  140.6545   83.7632  220.5967 H   0  0  0  0  0  0  0  0  0  0  0  0
  140.9398   81.5530  221.6896 H   0  0  0  0  0  0  0  0  0  0  0  0
  142.6190   74.3895  217.8798 H   0  0  0  0  0  0  0  0  0  0  0  0
  141.0913   75.3981  217.9153 H   0  0  0  0  0  0  0  0  0  0  0  0
  142.0357   73.4290  220.0232 H   0  0  0  0  0  0  0  0  0  0  0  0
  140.6402   73.2460  218.9418 H   0  0  0  0  0  0  0  0  0  0  0  0
  1  2  1  0
  2  3  1  0
  3  4  1  0
  4  5  1  0
  5  6  1  0
  6  7  2  0
  6  8  1  0
  8  9  2  0
  9 10  1  0
 10 11  2  0
 11 12  1  0
 12 13  2  0
 13 14  1  0
 13 15  1  0
 15 16  2  0
 16 17  1  0
 17 18  2  0
  2 19  1  0
 19 20  2  0
 19 21  1  0
 21 22  1  0
 22 23  1  0
 23 24  1  0
 24 25  1  0
 25 26  2  0
 25 27  1  0
 27 28  1  0
 28 29  1  0
 29 30  2  0
 30 31  1  0
 31 32  2  0
 32 33  1  0
 33 34  2  0
 24 35  1  0
 35 36  1  0
 18  8  1  0
 36 21  1  0
 17 11  1  0
 34 29  1  0
  1 37  1  0
  1 38  1  0
  1 39  1  0
  3 40  1  0
  3 41  1  0
  4 42  1  0
  4 43  1  0
  5 44  1  0
  9 45  1  0
 10 46  1  0
 12 47  1  0
 15 48  1  0
 16 49  1  0
 21 50  1  6
 22 51  1  0
 22 52  1  0
 23 53  1  0
 23 54  1  0
 24 55  1  1
 27 56  1  0
 28 57  1  0
 28 58  1  0
 30 59  1  0
 31 60  1  0
 32 61  1  0
 33 62  1  0
 35 63  1  0
 35 64  1  0
 36 65  1  0
 36 66  1  0
M  END
>  <smiles>  (24) 
CN(CCNC(=O)c1ccc2cc(F)ccc2n1)C(=O)[C@H]1CC[C@H](C(=O)NCc2ccccn2)CC1

>  <score_type>  (24) 
oracle

>  <origin>  (24) 
autodockgpu

>  <m_score__min__energy>  (24) 
-8.8699999999999992

>  <m_primary>  (24) 
energy

>  <rmsd>  (24) 
6.316015528914009

>  <m_score__min__rmsd>  (24) 
6.316015528914009

>  <meeko>  (24) 
{"free_energy": -6.75, "intermolecular_energy": -9.44, "internal_energy": -4.34, "cluster_size": 10, "cluster_id": 13, "rank_in_cluster": 2}

>  <energy>  (24) 
-7.93

>  <cluster_rmsd>  (24) 
0.0

>  <cluster>  (24) 
7

$$$$

     RDKit          3D

 66 69  0  0  0  0  0  0  0  0999 V2000
  138.9200   71.6430  220.1140 C   0  0  0  0  0  0  0  0  0  0  0  0
  139.1880   72.6580  221.0890 N   0  0  0  0  0  0  0  0  0  0  0  0
  138.0760   73.0210  221.9770 C   0  0  0  0  0  0  0  0  0  0  0  0
  137.4270   74.3000  221.4730 C   0  0  0  0  0  0  0  0  0  0  0  0
  138.0180   75.3920  222.2370 N   0  0  0  0  0  0  0  0  0  0  0  0
  138.6890   76.3970  221.4850 C   0  0  0  0  0  0  0  0  0  0  0  0
  138.6900   76.2180  220.2180 O   0  0  0  0  0  0  0  0  0  0  0  0
  139.3280   77.5470  222.1060 C   0  0  0  0  0  0  0  0  0  0  0  0
  138.5190   78.4020  222.8410 C   0  0  0  0  0  0  0  0  0  0  0  0
  139.0670   79.5230  223.4580 C   0  0  0  0  0  0  0  0  0  0  0  0
  140.4060   79.7220  223.3020 C   0  0  0  0  0  0  0  0  0  0  0  0
  140.9630   80.8440  223.9180 C   0  0  0  0  0  0  0  0  0  0  0  0
  142.3350   81.0740  223.7740 C   0  0  0  0  0  0  0  0  0  0  0  0
  142.8970   82.1560  224.3640 F   0  0  0  0  0  0  0  0  0  0  0  0
  143.1230   80.2020  223.0320 C   0  0  0  0  0  0  0  0  0  0  0  0
  142.5670   79.0930  222.4250 C   0  0  0  0  0  0  0  0  0  0  0  0
  141.2150   78.8740  222.5720 C   0  0  0  0  0  0  0  0  0  0  0  0
  140.6450   77.8030  221.9910 N   0  0  0  0  0  0  0  0  0  0  0  0
  140.4020   73.3380  221.2780 C   0  0  0  0  0  0  0  0  0  0  0  0
  141.0690   73.0100  222.3410 O   0  0  0  0  0  0  0  0  0  0  0  0
  141.0110   74.3610  220.4420 C   0  0  1  0  0  0  0  0  0  0  0  0
  142.5190   74.4620  220.5180 C   0  0  0  0  0  0  0  0  0  0  0  0
  142.8510   75.8740  220.0790 C   0  0  0  0  0  0  0  0  0  0  0  0
  142.2860   76.2270  218.7440 C   0  0  2  0  0  0  0  0  0  0  0  0
  142.1720   77.7080  218.6710 C   0  0  0  0  0  0  0  0  0  0  0  0
  143.0180   78.4200  218.0550 O   0  0  0  0  0  0  0  0  0  0  0  0
  141.0570   78.2990  219.3290 N   0  0  0  0  0  0  0  0  0  0  0  0
  140.8670   79.7570  219.3050 C   0  0  0  0  0  0  0  0  0  0  0  0
  139.4730   80.0640  219.7640 C   0  0  0  0  0  0  0  0  0  0  0  0
  139.1720   81.3110  220.3200 C   0  0  0  0  0  0  0  0  0  0  0  0
  137.8670   81.5310  220.7240 C   0  0  0  0  0  0  0  0  0  0  0  0
  136.9330   80.5310  220.5660 C   0  0  0  0  0  0  0  0  0  0  0  0
  137.2440   79.3040  220.0150 C   0  0  0  0  0  0  0  0  0  0  0  0
  138.5290   79.1060  219.6250 N   0  0  0  0  0  0  0  0  0  0  0  0
  140.9530   75.6540  218.3990 C   0  0  0  0  0  0  0  0  0  0  0  0
  140.7130   74.2760  218.9660 C   0  0  0  0  0  0  0  0  0  0  0  0
  138.6712   70.7009  220.6244 H   0  0  0  0  0  0  0  0  0  0  0  0
  138.0731   71.9537  219.4845 H   0  0  0  0  0  0  0  0  0  0  0  0
  139.8099   71.4951  219.4845 H   0  0  0  0  0  0  0  0  0  0  0  0
  137.3326   72.2103  221.9851 H   0  0  0  0  0  0  0  0  0  0  0  0
  138.4556   73.1780  222.9974 H   0  0  0  0  0  0  0  0  0  0  0  0
  137.6310   74.4326  220.4002 H   0  0  0  0  0  0  0  0  0  0  0  0
  136.3349   74.2697  221.6014 H   0  0  0  0  0  0  0  0  0  0  0  0
  137.9660   75.4560  223.2780 H   0  0  0  0  0  0  0  0  0  0  0  0
  137.4431   78.1936  222.9362 H   0  0  0  0  0  0  0  0  0  0  0  0
  138.4472   80.2168  224.0449 H   0  0  0  0  0  0  0  0  0  0  0  0
  140.3363   81.5324  224.5040 H   0  0  0  0  0  0  0  0  0  0  0  0
  144.2005   80.3972  222.9271 H   0  0  0  0  0  0  0  0  0  0  0  0
  143.1890   78.4011  221.8382 H   0  0  0  0  0  0  0  0  0  0  0  0
  140.5279   75.2411  220.8914 H   0  0  0  0  0  0  0  0  0  0  0  0
  142.9881   73.7294  219.8447 H   0  0  0  0  0  0  0  0  0  0  0  0
  142.8924   74.2503  221.5308 H   0  0  0  0  0  0  0  0  0  0  0  0
  143.9452   75.9768  220.0329 H   0  0  0  0  0  0  0  0  0  0  0  0
  142.4002   76.5573  220.8137 H   0  0  0  0  0  0  0  0  0  0  0  0
  142.9846   75.7843  218.0188 H   0  0  0  0  0  0  0  0  0  0  0  0
  140.3560   77.7020  219.8420 H   0  0  0  0  0  0  0  0  0  0  0  0
  141.5931   80.2367  219.9778 H   0  0  0  0  0  0  0  0  0  0  0  0
  141.0203   80.1398  218.2852 H   0  0  0  0  0  0  0  0  0  0  0  0
  139.9431   82.0875  220.4320 H   0  0  0  0  0  0  0  0  0  0  0  0
  137.5782   82.4954  221.1672 H   0  0  0  0  0  0  0  0  0  0  0  0
  135.8989   80.7174  220.8916 H   0  0  0  0  0  0  0  0  0  0  0  0
  136.4821   78.5194  219.8969 H   0  0  0  0  0  0  0  0  0  0  0  0
  140.8743   75.5960  217.3034 H   0  0  0  0  0  0  0  0  0  0  0  0
  140.1963   76.3176  218.8429 H   0  0  0  0  0  0  0  0  0  0  0  0
  141.3807   73.5459  218.4852 H   0  0  0  0  0  0  0  0  0  0  0  0
  139.6783   73.9478  218.7879 H   0  0  0  0  0  0  0  0  0  0  0  0
  1  2  1  0
  2  3  1  0
  3  4  1  0
  4  5  1  0
  5  6  1  0
  6  7  2  0
  6  8  1  0
  8  9  2  0
  9 10  1  0
 10 11  2  0
 11 12  1  0
 12 13  2  0
 13 14  1  0
 13 15  1  0
 15 16  2  0
 16 17  1  0
 17 18  2  0
  2 19  1  0
 19 20  2  0
 19 21  1  0
 21 22  1  0
 22 23  1  0
 23 24  1  0
 24 25  1  0
 25 26  2  0
 25 27  1  0
 27 28  1  0
 28 29  1  0
 29 30  2  0
 30 31  1  0
 31 32  2  0
 32 33  1  0
 33 34  2  0
 24 35  1  0
 35 36  1  0
 18  8  1  0
 36 21  1  0
 17 11  1  0
 34 29  1  0
  1 37  1  0
  1 38  1  0
  1 39  1  0
  3 40  1  0
  3 41  1  0
  4 42  1  0
  4 43  1  0
  5 44  1  0
  9 45  1  0
 10 46  1  0
 12 47  1  0
 15 48  1  0
 16 49  1  0
 21 50  1  1
 22 51  1  0
 22 52  1  0
 23 53  1  0
 23 54  1  0
 24 55  1  6
 27 56  1  0
 28 57  1  0
 28 58  1  0
 30 59  1  0
 31 60  1  0
 32 61  1  0
 33 62  1  0
 35 63  1  0
 35 64  1  0
 36 65  1  0
 36 66  1  0
M  END
>  <smiles>  (25) 
CN(CCNC(=O)c1ccc2cc(F)ccc2n1)C(=O)[C@H]1CC[C@H](C(=O)NCc2ccccn2)CC1

>  <score_type>  (25) 
oracle

>  <origin>  (25) 
autodockgpu

>  <m_score__min__energy>  (25) 
-8.8699999999999992

>  <m_primary>  (25) 
energy

>  <rmsd>  (25) 
6.228128960437469

>  <m_score__min__rmsd>  (25) 
6.228128960437469

>  <meeko>  (25) 
{"free_energy": -5.0, "intermolecular_energy": -7.68, "internal_energy": -5.95, "cluster_size": 10, "cluster_id": 13, "rank_in_cluster": 10}

>  <energy>  (25) 
-7.91

>  <cluster_rmsd>  (25) 
1.33

>  <cluster>  (25) 
7

$$$$

     RDKit          3D

 66 69  0  0  0  0  0  0  0  0999 V2000
  138.1750   75.7670  219.4100 C   0  0  0  0  0  0  0  0  0  0  0  0
  139.0250   74.9980  220.2700 N   0  0  0  0  0  0  0  0  0  0  0  0
  138.9300   73.5370  220.1470 C   0  0  0  0  0  0  0  0  0  0  0  0
  137.8310   73.0270  221.0640 C   0  0  0  0  0  0  0  0  0  0  0  0
  138.4600   72.7470  222.3490 N   0  0  0  0  0  0  0  0  0  0  0  0
  138.6890   71.3750  222.6530 C   0  0  0  0  0  0  0  0  0  0  0  0
  138.3130   70.5490  221.7520 O   0  0  0  0  0  0  0  0  0  0  0  0
  139.3070   70.9400  223.8960 C   0  0  0  0  0  0  0  0  0  0  0  0
  140.2090   71.8090  224.4950 C   0  0  0  0  0  0  0  0  0  0  0  0
  140.8370   71.4520  225.6840 C   0  0  0  0  0  0  0  0  0  0  0  0
  140.5230   70.2340  226.2090 C   0  0  0  0  0  0  0  0  0  0  0  0
  141.1500   69.8700  227.4020 C   0  0  0  0  0  0  0  0  0  0  0  0
  140.8460   68.6250  227.9620 C   0  0  0  0  0  0  0  0  0  0  0  0
  141.4420   68.2500  229.1200 F   0  0  0  0  0  0  0  0  0  0  0  0
  139.9400   67.7730  227.3420 C   0  0  0  0  0  0  0  0  0  0  0  0
  139.3220   68.1390  226.1630 C   0  0  0  0  0  0  0  0  0  0  0  0
  139.6270   69.3660  225.6170 C   0  0  0  0  0  0  0  0  0  0  0  0
  139.0410   69.7510  224.4680 N   0  0  0  0  0  0  0  0  0  0  0  0
  139.9360   75.5000  221.2140 C   0  0  0  0  0  0  0  0  0  0  0  0
  140.3180   74.6620  222.1260 O   0  0  0  0  0  0  0  0  0  0  0  0
  140.5060   76.8350  221.3060 C   0  0  1  0  0  0  0  0  0  0  0  0
  140.8630   77.3050  222.6990 C   0  0  0  0  0  0  0  0  0  0  0  0
  140.8610   78.8180  222.6280 C   0  0  0  0  0  0  0  0  0  0  0  0
  141.7490   79.3610  221.5590 C   0  0  2  0  0  0  0  0  0  0  0  0
  141.2620   80.7220  221.2070 C   0  0  0  0  0  0  0  0  0  0  0  0
  140.5990   81.4320  222.0170 O   0  0  0  0  0  0  0  0  0  0  0  0
  141.5790   81.1990  219.9040 N   0  0  0  0  0  0  0  0  0  0  0  0
  141.1390   82.5340  219.4730 C   0  0  0  0  0  0  0  0  0  0  0  0
  142.0210   82.9890  218.3500 C   0  0  0  0  0  0  0  0  0  0  0  0
  141.9230   84.2950  217.8600 C   0  0  0  0  0  0  0  0  0  0  0  0
  142.7650   84.6510  216.8220 C   0  0  0  0  0  0  0  0  0  0  0  0
  143.6520   83.7240  216.3210 C   0  0  0  0  0  0  0  0  0  0  0  0
  143.7390   82.4380  216.8160 C   0  0  0  0  0  0  0  0  0  0  0  0
  142.9050   82.1050  217.8340 N   0  0  0  0  0  0  0  0  0  0  0  0
  141.8470   78.5760  220.2960 C   0  0  0  0  0  0  0  0  0  0  0  0
  141.7520   77.0820  220.4930 C   0  0  0  0  0  0  0  0  0  0  0  0
  137.4960   76.3813  220.0195 H   0  0  0  0  0  0  0  0  0  0  0  0
  138.7908   76.4210  218.7752 H   0  0  0  0  0  0  0  0  0  0  0  0
  137.5857   75.0890  218.7752 H   0  0  0  0  0  0  0  0  0  0  0  0
  138.6936   73.2703  219.1063 H   0  0  0  0  0  0  0  0  0  0  0  0
  139.8892   73.0798  220.4313 H   0  0  0  0  0  0  0  0  0  0  0  0
  137.0494   73.7920  221.1823 H   0  0  0  0  0  0  0  0  0  0  0  0
  137.3541   72.1263  220.6502 H   0  0  0  0  0  0  0  0  0  0  0  0
  138.7360   73.4920  223.0260 H   0  0  0  0  0  0  0  0  0  0  0  0
  140.4274   72.7811  224.0288 H   0  0  0  0  0  0  0  0  0  0  0  0
  141.5550   72.1229  226.1784 H   0  0  0  0  0  0  0  0  0  0  0  0
  141.8666   70.5468  227.8903 H   0  0  0  0  0  0  0  0  0  0  0  0
  139.7129   66.7968  227.7953 H   0  0  0  0  0  0  0  0  0  0  0  0
  138.6033   67.4668  225.6715 H   0  0  0  0  0  0  0  0  0  0  0  0
  139.6531   77.3992  220.9008 H   0  0  0  0  0  0  0  0  0  0  0  0
  141.8582   76.9349  222.9864 H   0  0  0  0  0  0  0  0  0  0  0  0
  140.1526   76.9306  223.4508 H   0  0  0  0  0  0  0  0  0  0  0  0
  141.1997   79.2132  223.5971 H   0  0  0  0  0  0  0  0  0  0  0  0
  139.8341   79.1310  222.3880 H   0  0  0  0  0  0  0  0  0  0  0  0
  142.7595   79.3325  221.9926 H   0  0  0  0  0  0  0  0  0  0  0  0
  142.1310   80.6040  219.2320 H   0  0  0  0  0  0  0  0  0  0  0  0
  140.0953   82.4869  219.1287 H   0  0  0  0  0  0  0  0  0  0  0  0
  141.2057   83.2409  220.3131 H   0  0  0  0  0  0  0  0  0  0  0  0
  141.2040   85.0116  218.2837 H   0  0  0  0  0  0  0  0  0  0  0  0
  142.7266   85.6661  216.4001 H   0  0  0  0  0  0  0  0  0  0  0  0
  144.3161   84.0194  215.4954 H   0  0  0  0  0  0  0  0  0  0  0  0
  144.4551   81.7127  216.4022 H   0  0  0  0  0  0  0  0  0  0  0  0
  142.8139   78.8017  219.8225 H   0  0  0  0  0  0  0  0  0  0  0  0
  140.9907   78.8699  219.6712 H   0  0  0  0  0  0  0  0  0  0  0  0
  142.6369   76.7129  221.0323 H   0  0  0  0  0  0  0  0  0  0  0  0
  141.7078   76.5558  219.5280 H   0  0  0  0  0  0  0  0  0  0  0  0
  1  2  1  0
  2  3  1  0
  3  4  1  0
  4  5  1  0
  5  6  1  0
  6  7  2  0
  6  8  1  0
  8  9  2  0
  9 10  1  0
 10 11  2  0
 11 12  1  0
 12 13  2  0
 13 14  1  0
 13 15  1  0
 15 16  2  0
 16 17  1  0
 17 18  2  0
  2 19  1  0
 19 20  2  0
 19 21  1  0
 21 22  1  0
 22 23  1  0
 23 24  1  0
 24 25  1  0
 25 26  2  0
 25 27  1  0
 27 28  1  0
 28 29  1  0
 29 30  2  0
 30 31  1  0
 31 32  2  0
 32 33  1  0
 33 34  2  0
 24 35  1  0
 35 36  1  0
 18  8  1  0
 36 21  1  0
 17 11  1  0
 34 29  1  0
  1 37  1  0
  1 38  1  0
  1 39  1  0
  3 40  1  0
  3 41  1  0
  4 42  1  0
  4 43  1  0
  5 44  1  0
  9 45  1  0
 10 46  1  0
 12 47  1  0
 15 48  1  0
 16 49  1  0
 21 50  1  6
 22 51  1  0
 22 52  1  0
 23 53  1  0
 23 54  1  0
 24 55  1  1
 27 56  1  0
 28 57  1  0
 28 58  1  0
 30 59  1  0
 31 60  1  0
 32 61  1  0
 33 62  1  0
 35 63  1  0
 35 64  1  0
 36 65  1  0
 36 66  1  0
M  END
>  <smiles>  (26) 
CN(CCNC(=O)c1ccc2cc(F)ccc2n1)C(=O)[C@H]1CC[C@H](C(=O)NCc2ccccn2)CC1

>  <score_type>  (26) 
oracle

>  <origin>  (26) 
autodockgpu

>  <m_score__min__energy>  (26) 
-8.8699999999999992

>  <m_primary>  (26) 
energy

>  <rmsd>  (26) 
10.136046701850551

>  <m_score__min__rmsd>  (26) 
10.136046701850551

>  <meeko>  (26) 
{"free_energy": -8.16, "intermolecular_energy": -10.84, "internal_energy": -2.76, "cluster_size": 4, "cluster_id": 2, "rank_in_cluster": 3}

>  <energy>  (26) 
-5.5

>  <cluster_rmsd>  (26) 
1.87

>  <cluster>  (26) 
7

$$$$

     RDKit          3D

 66 69  0  0  0  0  0  0  0  0999 V2000
  141.2710   83.0350  218.3230 C   0  0  0  0  0  0  0  0  0  0  0  0
  141.7330   81.9810  219.1770 N   0  0  0  0  0  0  0  0  0  0  0  0
  142.6150   80.9810  218.5610 C   0  0  0  0  0  0  0  0  0  0  0  0
  141.7790   80.0130  217.7400 C   0  0  0  0  0  0  0  0  0  0  0  0
  142.5720   78.7980  217.5980 N   0  0  0  0  0  0  0  0  0  0  0  0
  142.3990   77.8100  218.6080 C   0  0  0  0  0  0  0  0  0  0  0  0
  141.5600   78.1120  219.5250 O   0  0  0  0  0  0  0  0  0  0  0  0
  143.1220   76.5470  218.6030 C   0  0  0  0  0  0  0  0  0  0  0  0
  143.3220   75.9360  217.3730 C   0  0  0  0  0  0  0  0  0  0  0  0
  144.0020   74.7250  217.2980 C   0  0  0  0  0  0  0  0  0  0  0  0
  144.4480   74.1920  218.4710 C   0  0  0  0  0  0  0  0  0  0  0  0
  145.1320   72.9770  218.4030 C   0  0  0  0  0  0  0  0  0  0  0  0
  145.5990   72.4070  219.5920 C   0  0  0  0  0  0  0  0  0  0  0  0
  146.2660   71.2280  219.5510 F   0  0  0  0  0  0  0  0  0  0  0  0
  145.3860   73.0400  220.8110 C   0  0  0  0  0  0  0  0  0  0  0  0
  144.7100   74.2420  220.8720 C   0  0  0  0  0  0  0  0  0  0  0  0
  144.2520   74.7960  219.6970 C   0  0  0  0  0  0  0  0  0  0  0  0
  143.5880   75.9670  219.7240 N   0  0  0  0  0  0  0  0  0  0  0  0
  141.4280   81.8110  220.5380 C   0  0  0  0  0  0  0  0  0  0  0  0
  141.4160   82.8940  221.2490 O   0  0  0  0  0  0  0  0  0  0  0  0
  141.1260   80.5810  221.2540 C   0  0  1  0  0  0  0  0  0  0  0  0
  142.1490   80.1500  222.2810 C   0  0  0  0  0  0  0  0  0  0  0  0
  141.9510   78.6560  222.4450 C   0  0  0  0  0  0  0  0  0  0  0  0
  140.5490   78.2800  222.7900 C   0  0  2  0  0  0  0  0  0  0  0  0
  140.3390   76.8660  222.3790 C   0  0  0  0  0  0  0  0  0  0  0  0
  139.3350   76.1950  222.7570 O   0  0  0  0  0  0  0  0  0  0  0  0
  141.3270   76.2920  221.5310 N   0  0  0  0  0  0  0  0  0  0  0  0
  141.1970   74.9000  221.0740 C   0  0  0  0  0  0  0  0  0  0  0  0
  140.5700   74.9000  219.7130 C   0  0  0  0  0  0  0  0  0  0  0  0
  139.5790   75.8320  219.3930 C   0  0  0  0  0  0  0  0  0  0  0  0
  139.0410   75.7780  218.1190 C   0  0  0  0  0  0  0  0  0  0  0  0
  139.4940   74.8260  217.2330 C   0  0  0  0  0  0  0  0  0  0  0  0
  140.4740   73.9120  217.5620 C   0  0  0  0  0  0  0  0  0  0  0  0
  140.9900   73.9790  218.8160 N   0  0  0  0  0  0  0  0  0  0  0  0
  139.4590   79.0940  222.1800 C   0  0  0  0  0  0  0  0  0  0  0  0
  139.8120   80.5500  221.9930 C   0  0  0  0  0  0  0  0  0  0  0  0
  140.9047   83.8707  218.9373 H   0  0  0  0  0  0  0  0  0  0  0  0
  142.0994   83.3822  217.6881 H   0  0  0  0  0  0  0  0  0  0  0  0
  140.4543   82.6611  217.6881 H   0  0  0  0  0  0  0  0  0  0  0  0
  143.3419   81.4850  217.9071 H   0  0  0  0  0  0  0  0  0  0  0  0
  143.1527   80.4297  219.3464 H   0  0  0  0  0  0  0  0  0  0  0  0
  140.8347   79.7919  218.2590 H   0  0  0  0  0  0  0  0  0  0  0  0
  141.5262   80.4398  216.7582 H   0  0  0  0  0  0  0  0  0  0  0  0
  143.2360   78.6370  216.8090 H   0  0  0  0  0  0  0  0  0  0  0  0
  142.9422   76.4102  216.4560 H   0  0  0  0  0  0  0  0  0  0  0  0
  144.1723   74.2200  216.3357 H   0  0  0  0  0  0  0  0  0  0  0  0
  145.2999   72.4792  217.4365 H   0  0  0  0  0  0  0  0  0  0  0  0
  145.7600   72.5783  221.7367 H   0  0  0  0  0  0  0  0  0  0  0  0
  144.5412   74.7452  221.8355 H   0  0  0  0  0  0  0  0  0  0  0  0
  141.1100   79.8953  220.3940 H   0  0  0  0  0  0  0  0  0  0  0  0
  141.9772   80.6680  223.2361 H   0  0  0  0  0  0  0  0  0  0  0  0
  143.1738   80.3943  221.9647 H   0  0  0  0  0  0  0  0  0  0  0  0
  142.6148   78.3020  223.2476 H   0  0  0  0  0  0  0  0  0  0  0  0
  142.1845   78.1886  221.4770 H   0  0  0  0  0  0  0  0  0  0  0  0
  140.4694   78.4602  223.8722 H   0  0  0  0  0  0  0  0  0  0  0  0
  142.1620   76.8540  221.2190 H   0  0  0  0  0  0  0  0  0  0  0  0
  142.1913   74.4321  221.0239 H   0  0  0  0  0  0  0  0  0  0  0  0
  140.5703   74.3309  221.7764 H   0  0  0  0  0  0  0  0  0  0  0  0
  139.2397   76.5795  220.1253 H   0  0  0  0  0  0  0  0  0  0  0  0
  138.2583   76.4894  217.8167 H   0  0  0  0  0  0  0  0  0  0  0  0
  139.0576   74.7929  216.2238 H   0  0  0  0  0  0  0  0  0  0  0  0
  140.8226   73.1604  216.8384 H   0  0  0  0  0  0  0  0  0  0  0  0
  138.5753   79.0332  222.8322 H   0  0  0  0  0  0  0  0  0  0  0  0
  139.2747   78.6796  221.1778 H   0  0  0  0  0  0  0  0  0  0  0  0
  139.9139   81.0448  222.9702 H   0  0  0  0  0  0  0  0  0  0  0  0
  139.0280   81.0804  221.4325 H   0  0  0  0  0  0  0  0  0  0  0  0
  1  2  1  0
  2  3  1  0
  3  4  1  0
  4  5  1  0
  5  6  1  0
  6  7  2  0
  6  8  1  0
  8  9  2  0
  9 10  1  0
 10 11  2  0
 11 12  1  0
 12 13  2  0
 13 14  1  0
 13 15  1  0
 15 16  2  0
 16 17  1  0
 17 18  2  0
  2 19  1  0
 19 20  2  0
 19 21  1  0
 21 22  1  0
 22 23  1  0
 23 24  1  0
 24 25  1  0
 25 26  2  0
 25 27  1  0
 27 28  1  0
 28 29  1  0
 29 30  2  0
 30 31  1  0
 31 32  2  0
 32 33  1  0
 33 34  2  0
 24 35  1  0
 35 36  1  0
 18  8  1  0
 36 21  1  0
 17 11  1  0
 34 29  1  0
  1 37  1  0
  1 38  1  0
  1 39  1  0
  3 40  1  0
  3 41  1  0
  4 42  1  0
  4 43  1  0
  5 44  1  0
  9 45  1  0
 10 46  1  0
 12 47  1  0
 15 48  1  0
 16 49  1  0
 21 50  1  6
 22 51  1  0
 22 52  1  0
 23 53  1  0
 23 54  1  0
 24 55  1  1
 27 56  1  0
 28 57  1  0
 28 58  1  0
 30 59  1  0
 31 60  1  0
 32 61  1  0
 33 62  1  0
 35 63  1  0
 35 64  1  0
 36 65  1  0
 36 66  1  0
M  END
>  <smiles>  (27) 
CN(CCNC(=O)c1ccc2cc(F)ccc2n1)C(=O)[C@H]1CC[C@H](C(=O)NCc2ccccn2)CC1

>  <score_type>  (27) 
oracle

>  <origin>  (27) 
autodockgpu

>  <m_score__min__energy>  (27) 
-8.8699999999999992

>  <m_primary>  (27) 
energy

>  <rmsd>  (27) 
9.502053864749184

>  <m_score__min__rmsd>  (27) 
9.502053864749184

>  <meeko>  (27) 
{"free_energy": -6.21, "intermolecular_energy": -8.89, "internal_energy": -4.81, "cluster_size": 1, "cluster_id": 17, "rank_in_cluster": 1}

>  <energy>  (27) 
-7.66

>  <cluster_rmsd>  (27) 
0.0

>  <cluster>  (27) 
8

$$$$

     RDKit          3D

 66 69  0  0  0  0  0  0  0  0999 V2000
  144.3480   73.6340  214.9410 C   0  0  0  0  0  0  0  0  0  0  0  0
  144.6310   74.3280  216.1620 N   0  0  0  0  0  0  0  0  0  0  0  0
  144.7730   75.7870  216.0660 C   0  0  0  0  0  0  0  0  0  0  0  0
  143.4170   76.4060  215.7690 C   0  0  0  0  0  0  0  0  0  0  0  0
  143.2340   77.4850  216.7310 N   0  0  0  0  0  0  0  0  0  0  0  0
  142.5510   77.1480  217.9350 C   0  0  0  0  0  0  0  0  0  0  0  0
  142.1800   75.9270  218.0250 O   0  0  0  0  0  0  0  0  0  0  0  0
  142.2920   78.1170  218.9880 C   0  0  0  0  0  0  0  0  0  0  0  0
  142.3030   79.4590  218.6320 C   0  0  0  0  0  0  0  0  0  0  0  0
  142.0660   80.4380  219.5930 C   0  0  0  0  0  0  0  0  0  0  0  0
  141.8300   80.0110  220.8650 C   0  0  0  0  0  0  0  0  0  0  0  0
  141.5920   80.9880  221.8340 C   0  0  0  0  0  0  0  0  0  0  0  0
  141.3470   80.5780  223.1480 C   0  0  0  0  0  0  0  0  0  0  0  0
  141.1130   81.5080  224.1060 F   0  0  0  0  0  0  0  0  0  0  0  0
  141.3420   79.2280  223.4790 C   0  0  0  0  0  0  0  0  0  0  0  0
  141.5770   78.2660  222.5160 C   0  0  0  0  0  0  0  0  0  0  0  0
  141.8180   78.6780  221.2240 C   0  0  0  0  0  0  0  0  0  0  0  0
  142.0520   77.7640  220.2640 N   0  0  0  0  0  0  0  0  0  0  0  0
  144.7850   73.7560  217.4350 C   0  0  0  0  0  0  0  0  0  0  0  0
  145.9450   73.2300  217.6770 O   0  0  0  0  0  0  0  0  0  0  0  0
  143.8160   73.6720  218.5160 C   0  0  1  0  0  0  0  0  0  0  0  0
  142.8430   72.5160  218.4400 C   0  0  0  0  0  0  0  0  0  0  0  0
  141.6420   72.9450  219.2590 C   0  0  0  0  0  0  0  0  0  0  0  0
  141.9910   73.3530  220.6510 C   0  0  2  0  0  0  0  0  0  0  0  0
  140.9140   74.2500  221.1490 C   0  0  0  0  0  0  0  0  0  0  0  0
  140.3980   74.1130  222.2970 O   0  0  0  0  0  0  0  0  0  0  0  0
  140.4840   75.2840  220.2720 N   0  0  0  0  0  0  0  0  0  0  0  0
  139.4250   76.2180  220.6840 C   0  0  0  0  0  0  0  0  0  0  0  0
  139.1620   77.1710  219.5580 C   0  0  0  0  0  0  0  0  0  0  0  0
  138.5920   78.4220  219.8110 C   0  0  0  0  0  0  0  0  0  0  0  0
  138.3750   79.2550  218.7270 C   0  0  0  0  0  0  0  0  0  0  0  0
  138.7220   78.8270  217.4650 C   0  0  0  0  0  0  0  0  0  0  0  0
  139.2850   77.5890  217.2300 C   0  0  0  0  0  0  0  0  0  0  0  0
  139.4900   76.7850  218.3040 N   0  0  0  0  0  0  0  0  0  0  0  0
  143.2910   74.0580  220.8450 C   0  0  0  0  0  0  0  0  0  0  0  0
  144.3830   73.5960  219.9120 C   0  0  0  0  0  0  0  0  0  0  0  0
  143.9419   72.6380  215.1710 H   0  0  0  0  0  0  0  0  0  0  0  0
  143.6108   74.2047  214.3572 H   0  0  0  0  0  0  0  0  0  0  0  0
  145.2741   73.5265  214.3572 H   0  0  0  0  0  0  0  0  0  0  0  0
  145.1565   76.1822  217.0182 H   0  0  0  0  0  0  0  0  0  0  0  0
  145.4764   76.0360  215.2578 H   0  0  0  0  0  0  0  0  0  0  0  0
  143.3975   76.8039  214.7437 H   0  0  0  0  0  0  0  0  0  0  0  0
  142.6130   75.6598  215.8511 H   0  0  0  0  0  0  0  0  0  0  0  0
  143.5740   78.4590  216.5710 H   0  0  0  0  0  0  0  0  0  0  0  0
  142.4992   79.7490  217.5892 H   0  0  0  0  0  0  0  0  0  0  0  0
  142.0691   81.5078  219.3369 H   0  0  0  0  0  0  0  0  0  0  0  0
  141.5972   82.0557  221.5695 H   0  0  0  0  0  0  0  0  0  0  0  0
  141.1490   78.9227  224.5180 H   0  0  0  0  0  0  0  0  0  0  0  0
  141.5718   77.1969  222.7747 H   0  0  0  0  0  0  0  0  0  0  0  0
  143.3089   74.6337  218.3486 H   0  0  0  0  0  0  0  0  0  0  0  0
  143.2927   71.6061  218.8642 H   0  0  0  0  0  0  0  0  0  0  0  0
  142.5668   72.2819  217.4013 H   0  0  0  0  0  0  0  0  0  0  0  0
  140.9351   72.1037  219.3088 H   0  0  0  0  0  0  0  0  0  0  0  0
  141.2064   73.8242  218.7618 H   0  0  0  0  0  0  0  0  0  0  0  0
  142.0929   72.4070  221.2030 H   0  0  0  0  0  0  0  0  0  0  0  0
  140.9150   75.3950  219.3170 H   0  0  0  0  0  0  0  0  0  0  0  0
  138.5074   75.6580  220.9173 H   0  0  0  0  0  0  0  0  0  0  0  0
  139.7416   76.7731  221.5794 H   0  0  0  0  0  0  0  0  0  0  0  0
  138.3261   78.7325  220.8322 H   0  0  0  0  0  0  0  0  0  0  0  0
  137.9293   80.2501  218.8724 H   0  0  0  0  0  0  0  0  0  0  0  0
  138.5436   79.4975  216.6114 H   0  0  0  0  0  0  0  0  0  0  0  0
  139.5565   77.2671  216.2138 H   0  0  0  0  0  0  0  0  0  0  0  0
  143.6252   73.8896  221.8794 H   0  0  0  0  0  0  0  0  0  0  0  0
  143.1131   75.1212  220.6261 H   0  0  0  0  0  0  0  0  0  0  0  0
  144.6722   72.5614  220.1487 H   0  0  0  0  0  0  0  0  0  0  0  0
  145.2814   74.2230  220.0106 H   0  0  0  0  0  0  0  0  0  0  0  0
  1  2  1  0
  2  3  1  0
  3  4  1  0
  4  5  1  0
  5  6  1  0
  6  7  2  0
  6  8  1  0
  8  9  2  0
  9 10  1  0
 10 11  2  0
 11 12  1  0
 12 13  2  0
 13 14  1  0
 13 15  1  0
 15 16  2  0
 16 17  1  0
 17 18  2  0
  2 19  1  0
 19 20  2  0
 19 21  1  0
 21 22  1  0
 22 23  1  0
 23 24  1  0
 24 25  1  0
 25 26  2  0
 25 27  1  0
 27 28  1  0
 28 29  1  0
 29 30  2  0
 30 31  1  0
 31 32  2  0
 32 33  1  0
 33 34  2  0
 24 35  1  0
 35 36  1  0
 18  8  1  0
 36 21  1  0
 17 11  1  0
 34 29  1  0
  1 37  1  0
  1 38  1  0
  1 39  1  0
  3 40  1  0
  3 41  1  0
  4 42  1  0
  4 43  1  0
  5 44  1  0
  9 45  1  0
 10 46  1  0
 12 47  1  0
 15 48  1  0
 16 49  1  0
 21 50  1  1
 22 51  1  0
 22 52  1  0
 23 53  1  0
 23 54  1  0
 24 55  1  1
 27 56  1  0
 28 57  1  0
 28 58  1  0
 30 59  1  0
 31 60  1  0
 32 61  1  0
 33 62  1  0
 35 63  1  0
 35 64  1  0
 36 65  1  0
 36 66  1  0
M  END
>  <smiles>  (28) 
CN(CCNC(=O)c1ccc2cc(F)ccc2n1)C(=O)[C@H]1CC[C@H](C(=O)NCc2ccccn2)CC1

>  <score_type>  (28) 
oracle

>  <origin>  (28) 
autodockgpu

>  <m_score__min__energy>  (28) 
-8.8699999999999992

>  <m_primary>  (28) 
energy

>  <rmsd>  (28) 
6.374377623773812

>  <m_score__min__rmsd>  (28) 
6.374377623773812

>  <meeko>  (28) 
{"free_energy": -5.62, "intermolecular_energy": -8.3, "internal_energy": -5.28, "cluster_size": 4, "cluster_id": 14, "rank_in_cluster": 2}

>  <energy>  (28) 
-7.26

>  <cluster_rmsd>  (28) 
0.0

>  <cluster>  (28) 
9

$$$$

     RDKit          3D

 66 69  0  0  0  0  0  0  0  0999 V2000
  135.8870   76.5840  220.0430 C   0  0  0  0  0  0  0  0  0  0  0  0
  136.3940   76.6260  221.3820 N   0  0  0  0  0  0  0  0  0  0  0  0
  137.3040   77.7340  221.7020 C   0  0  0  0  0  0  0  0  0  0  0  0
  138.3380   77.2600  222.7100 C   0  0  0  0  0  0  0  0  0  0  0  0
  139.5310   76.9130  221.9480 N   0  0  0  0  0  0  0  0  0  0  0  0
  139.9420   75.5510  222.0040 C   0  0  0  0  0  0  0  0  0  0  0  0
  139.2040   74.7910  222.7220 O   0  0  0  0  0  0  0  0  0  0  0  0
  141.1120   75.0550  221.2980 C   0  0  0  0  0  0  0  0  0  0  0  0
  141.8090   75.9600  220.5100 C   0  0  0  0  0  0  0  0  0  0  0  0
  142.9360   75.5490  219.8050 C   0  0  0  0  0  0  0  0  0  0  0  0
  143.3040   74.2420  219.9330 C   0  0  0  0  0  0  0  0  0  0  0  0
  144.4340   73.8230  219.2290 C   0  0  0  0  0  0  0  0  0  0  0  0
  144.8330   72.4880  219.3420 C   0  0  0  0  0  0  0  0  0  0  0  0
  145.9270   72.0580  218.6680 F   0  0  0  0  0  0  0  0  0  0  0  0
  144.1180   71.6010  220.1380 C   0  0  0  0  0  0  0  0  0  0  0  0
  143.0010   72.0210  220.8330 C   0  0  0  0  0  0  0  0  0  0  0  0
  142.6140   73.3380  220.7160 C   0  0  0  0  0  0  0  0  0  0  0  0
  141.5290   73.7780  221.3810 N   0  0  0  0  0  0  0  0  0  0  0  0
  136.1100   75.7170  222.4140 C   0  0  0  0  0  0  0  0  0  0  0  0
  135.3800   76.1780  223.3810 O   0  0  0  0  0  0  0  0  0  0  0  0
  136.5260   74.3290  222.5430 C   0  0  1  0  0  0  0  0  0  0  0  0
  135.6110   73.4400  223.3560 C   0  0  0  0  0  0  0  0  0  0  0  0
  136.4800   72.2940  223.8340 C   0  0  0  0  0  0  0  0  0  0  0  0
  137.1860   71.5870  222.7260 C   0  0  2  0  0  0  0  0  0  0  0  0
  138.3810   70.9130  223.3010 C   0  0  0  0  0  0  0  0  0  0  0  0
  138.4220   69.6630  223.4950 O   0  0  0  0  0  0  0  0  0  0  0  0
  139.4910   71.7410  223.6270 N   0  0  0  0  0  0  0  0  0  0  0  0
  140.7130   71.1570  224.1980 C   0  0  0  0  0  0  0  0  0  0  0  0
  140.5110   70.9730  225.6720 C   0  0  0  0  0  0  0  0  0  0  0  0
  141.0430   71.8950  226.5770 C   0  0  0  0  0  0  0  0  0  0  0  0
  140.8210   71.6670  227.9240 C   0  0  0  0  0  0  0  0  0  0  0  0
  140.0990   70.5600  228.3130 C   0  0  0  0  0  0  0  0  0  0  0  0
  139.5790   69.6580  227.4070 C   0  0  0  0  0  0  0  0  0  0  0  0
  139.8070   69.8970  226.0900 N   0  0  0  0  0  0  0  0  0  0  0  0
  137.6460   72.4170  221.5760 C   0  0  0  0  0  0  0  0  0  0  0  0
  136.7350   73.5760  221.2540 C   0  0  0  0  0  0  0  0  0  0  0  0
  134.7910   76.4932  220.0686 H   0  0  0  0  0  0  0  0  0  0  0  0
  136.1661   77.5083  219.5161 H   0  0  0  0  0  0  0  0  0  0  0  0
  136.3144   75.7182  219.5161 H   0  0  0  0  0  0  0  0  0  0  0  0
  137.8113   78.0692  220.7853 H   0  0  0  0  0  0  0  0  0  0  0  0
  136.7305   78.5704  222.1281 H   0  0  0  0  0  0  0  0  0  0  0  0
  138.5653   78.0626  223.4270 H   0  0  0  0  0  0  0  0  0  0  0  0
  137.9678   76.3974  223.2835 H   0  0  0  0  0  0  0  0  0  0  0  0
  140.0730   77.6060  221.3860 H   0  0  0  0  0  0  0  0  0  0  0  0
  141.4699   77.0043  220.4426 H   0  0  0  0  0  0  0  0  0  0  0  0
  143.5046   76.2469  219.1728 H   0  0  0  0  0  0  0  0  0  0  0  0
  144.9978   74.5272  218.5996 H   0  0  0  0  0  0  0  0  0  0  0  0
  144.4452   70.5536  220.2152 H   0  0  0  0  0  0  0  0  0  0  0  0
  142.4342   71.3211  221.4645 H   0  0  0  0  0  0  0  0  0  0  0  0
  137.4823   74.4982  223.0597 H   0  0  0  0  0  0  0  0  0  0  0  0
  134.7870   73.0634  222.7322 H   0  0  0  0  0  0  0  0  0  0  0  0
  135.1542   73.9838  224.1960 H   0  0  0  0  0  0  0  0  0  0  0  0
  135.8426   71.5686  224.3609 H   0  0  0  0  0  0  0  0  0  0  0  0
  137.2513   72.7220  224.4912 H   0  0  0  0  0  0  0  0  0  0  0  0
  136.4326   70.9057  222.3038 H   0  0  0  0  0  0  0  0  0  0  0  0
  139.4520   72.7820  223.4640 H   0  0  0  0  0  0  0  0  0  0  0  0
  140.9136   70.1834  223.7270 H   0  0  0  0  0  0  0  0  0  0  0  0
  141.5688   71.8237  224.0161 H   0  0  0  0  0  0  0  0  0  0  0  0
  141.6161   72.7683  226.2323 H   0  0  0  0  0  0  0  0  0  0  0  0
  141.2176   72.3636  228.6773 H   0  0  0  0  0  0  0  0  0  0  0  0
  139.9306   70.3885  229.3864 H   0  0  0  0  0  0  0  0  0  0  0  0
  139.0033   68.7812  227.7384 H   0  0  0  0  0  0  0  0  0  0  0  0
  137.7120   71.7715  220.6878 H   0  0  0  0  0  0  0  0  0  0  0  0
  138.6183   72.8453  221.8608 H   0  0  0  0  0  0  0  0  0  0  0  0
  135.7727   73.2072  220.8694 H   0  0  0  0  0  0  0  0  0  0  0  0
  137.1750   74.2245  220.4821 H   0  0  0  0  0  0  0  0  0  0  0  0
  1  2  1  0
  2  3  1  0
  3  4  1  0
  4  5  1  0
  5  6  1  0
  6  7  2  0
  6  8  1  0
  8  9  2  0
  9 10  1  0
 10 11  2  0
 11 12  1  0
 12 13  2  0
 13 14  1  0
 13 15  1  0
 15 16  2  0
 16 17  1  0
 17 18  2  0
  2 19  1  0
 19 20  2  0
 19 21  1  0
 21 22  1  0
 22 23  1  0
 23 24  1  0
 24 25  1  0
 25 26  2  0
 25 27  1  0
 27 28  1  0
 28 29  1  0
 29 30  2  0
 30 31  1  0
 31 32  2  0
 32 33  1  0
 33 34  2  0
 24 35  1  0
 35 36  1  0
 18  8  1  0
 36 21  1  0
 17 11  1  0
 34 29  1  0
  1 37  1  0
  1 38  1  0
  1 39  1  0
  3 40  1  0
  3 41  1  0
  4 42  1  0
  4 43  1  0
  5 44  1  0
  9 45  1  0
 10 46  1  0
 12 47  1  0
 15 48  1  0
 16 49  1  0
 21 50  1  1
 22 51  1  0
 22 52  1  0
 23 53  1  0
 23 54  1  0
 24 55  1  6
 27 56  1  0
 28 57  1  0
 28 58  1  0
 30 59  1  0
 31 60  1  0
 32 61  1  0
 33 62  1  0
 35 63  1  0
 35 64  1  0
 36 65  1  0
 36 66  1  0
M  END
>  <smiles>  (29) 
CN(CCNC(=O)c1ccc2cc(F)ccc2n1)C(=O)[C@H]1CC[C@H](C(=O)NCc2ccccn2)CC1

>  <score_type>  (29) 
oracle

>  <origin>  (29) 
autodockgpu

>  <m_score__min__energy>  (29) 
-8.8699999999999992

>  <m_primary>  (29) 
energy

>  <rmsd>  (29) 
6.600434928058619

>  <m_score__min__rmsd>  (29) 
6.600434928058619

>  <meeko>  (29) 
{"free_energy": -6.92, "intermolecular_energy": -9.61, "internal_energy": -3.25, "cluster_size": 1, "cluster_id": 11, "rank_in_cluster": 1}

>  <energy>  (29) 
-6.75

>  <cluster_rmsd>  (29) 
2.0

>  <cluster>  (29) 
9

$$$$

     RDKit          3D

 66 69  0  0  0  0  0  0  0  0999 V2000
  140.3970   69.8790  217.8650 C   0  0  0  0  0  0  0  0  0  0  0  0
  140.2240   70.7470  218.9920 N   0  0  0  0  0  0  0  0  0  0  0  0
  138.8410   71.0910  219.3470 C   0  0  0  0  0  0  0  0  0  0  0  0
  138.8470   72.0250  220.5470 C   0  0  0  0  0  0  0  0  0  0  0  0
  139.1470   71.2010  221.7110 N   0  0  0  0  0  0  0  0  0  0  0  0
  139.6650   71.8820  222.8490 C   0  0  0  0  0  0  0  0  0  0  0  0
  139.8030   73.1460  222.7090 O   0  0  0  0  0  0  0  0  0  0  0  0
  140.0130   71.1960  224.0840 C   0  0  0  0  0  0  0  0  0  0  0  0
  140.7330   71.9140  225.0280 C   0  0  0  0  0  0  0  0  0  0  0  0
  141.1000   71.3150  226.2290 C   0  0  0  0  0  0  0  0  0  0  0  0
  140.7200   70.0200  226.4160 C   0  0  0  0  0  0  0  0  0  0  0  0
  141.0850   69.4130  227.6190 C   0  0  0  0  0  0  0  0  0  0  0  0
  140.7090   68.0840  227.8370 C   0  0  0  0  0  0  0  0  0  0  0  0
  141.0520   67.4740  228.9980 F   0  0  0  0  0  0  0  0  0  0  0  0
  139.9880   67.3870  226.8750 C   0  0  0  0  0  0  0  0  0  0  0  0
  139.6290   67.9920  225.6880 C   0  0  0  0  0  0  0  0  0  0  0  0
  140.0040   69.3010  225.4800 C   0  0  0  0  0  0  0  0  0  0  0  0
  139.6690   69.9190  224.3320 N   0  0  0  0  0  0  0  0  0  0  0  0
  141.2420   71.3000  219.7870 C   0  0  0  0  0  0  0  0  0  0  0  0
  141.6510   70.5590  220.7690 O   0  0  0  0  0  0  0  0  0  0  0  0
  141.8970   72.5920  219.6560 C   0  0  1  0  0  0  0  0  0  0  0  0
  142.6840   73.0570  220.8620 C   0  0  0  0  0  0  0  0  0  0  0  0
  142.7570   74.5650  220.7390 C   0  0  0  0  0  0  0  0  0  0  0  0
  143.3160   75.0270  219.4350 C   0  0  2  0  0  0  0  0  0  0  0  0
  142.8330   76.4130  219.1940 C   0  0  0  0  0  0  0  0  0  0  0  0
  142.9340   76.9760  218.0650 O   0  0  0  0  0  0  0  0  0  0  0  0
  142.2450   77.0880  220.2990 N   0  0  0  0  0  0  0  0  0  0  0  0
  141.7390   78.4610  220.1490 C   0  0  0  0  0  0  0  0  0  0  0  0
  141.7930   79.1390  221.4850 C   0  0  0  0  0  0  0  0  0  0  0  0
  141.9350   80.5280  221.5660 C   0  0  0  0  0  0  0  0  0  0  0  0
  141.9780   81.0920  222.8290 C   0  0  0  0  0  0  0  0  0  0  0  0
  141.8810   80.2790  223.9360 C   0  0  0  0  0  0  0  0  0  0  0  0
  141.7400   78.9090  223.8410 C   0  0  0  0  0  0  0  0  0  0  0  0
  141.7000   78.3730  222.5950 N   0  0  0  0  0  0  0  0  0  0  0  0
  142.9810   74.2160  218.2290 C   0  0  0  0  0  0  0  0  0  0  0  0
  142.8550   72.7370  218.5010 C   0  0  0  0  0  0  0  0  0  0  0  0
  140.6007   68.8570  218.2172 H   0  0  0  0  0  0  0  0  0  0  0  0
  139.4807   69.8813  217.2564 H   0  0  0  0  0  0  0  0  0  0  0  0
  141.2424   70.2324  217.2564 H   0  0  0  0  0  0  0  0  0  0  0  0
  138.3565   71.5905  218.4951 H   0  0  0  0  0  0  0  0  0  0  0  0
  138.2860   70.1746  219.5964 H   0  0  0  0  0  0  0  0  0  0  0  0
  139.6173   72.8002  220.4214 H   0  0  0  0  0  0  0  0  0  0  0  0
  137.8787   72.5347  220.6593 H   0  0  0  0  0  0  0  0  0  0  0  0
  139.0000   70.1680  221.7350 H   0  0  0  0  0  0  0  0  0  0  0  0
  141.0141   72.9582  224.8266 H   0  0  0  0  0  0  0  0  0  0  0  0
  141.6713   71.8624  226.9932 H   0  0  0  0  0  0  0  0  0  0  0  0
  141.6556   69.9678  228.3784 H   0  0  0  0  0  0  0  0  0  0  0  0
  139.7004   66.3418  227.0618 H   0  0  0  0  0  0  0  0  0  0  0  0
  139.0570   67.4421  224.9261 H   0  0  0  0  0  0  0  0  0  0  0  0
  140.9995   73.2091  219.5022 H   0  0  0  0  0  0  0  0  0  0  0  0
  143.6939   72.6210  220.8538 H   0  0  0  0  0  0  0  0  0  0  0  0
  142.2092   72.7464  221.8044 H   0  0  0  0  0  0  0  0  0  0  0  0
  143.3951   74.9503  221.5480 H   0  0  0  0  0  0  0  0  0  0  0  0
  141.7272   74.9463  220.8041 H   0  0  0  0  0  0  0  0  0  0  0  0
  144.4061   74.9345  219.5491 H   0  0  0  0  0  0  0  0  0  0  0  0
  142.1630   76.6170  221.2380 H   0  0  0  0  0  0  0  0  0  0  0  0
  142.3642   79.0098  219.4293 H   0  0  0  0  0  0  0  0  0  0  0  0
  140.7033   78.4416  219.7789 H   0  0  0  0  0  0  0  0  0  0  0  0
  142.0096   81.1483  220.6606 H   0  0  0  0  0  0  0  0  0  0  0  0
  142.0887   82.1800  222.9475 H   0  0  0  0  0  0  0  0  0  0  0  0
  141.9172   80.7389  224.9346 H   0  0  0  0  0  0  0  0  0  0  0  0
  141.6632   78.2777  224.7386 H   0  0  0  0  0  0  0  0  0  0  0  0
  143.7739   74.3641  217.4811 H   0  0  0  0  0  0  0  0  0  0  0  0
  141.9975   74.5602  217.8765 H   0  0  0  0  0  0  0  0  0  0  0  0
  143.8356   72.3148  218.7659 H   0  0  0  0  0  0  0  0  0  0  0  0
  142.4903   72.1998  217.6131 H   0  0  0  0  0  0  0  0  0  0  0  0
  1  2  1  0
  2  3  1  0
  3  4  1  0
  4  5  1  0
  5  6  1  0
  6  7  2  0
  6  8  1  0
  8  9  2  0
  9 10  1  0
 10 11  2  0
 11 12  1  0
 12 13  2  0
 13 14  1  0
 13 15  1  0
 15 16  2  0
 16 17  1  0
 17 18  2  0
  2 19  1  0
 19 20  2  0
 19 21  1  0
 21 22  1  0
 22 23  1  0
 23 24  1  0
 24 25  1  0
 25 26  2  0
 25 27  1  0
 27 28  1  0
 28 29  1  0
 29 30  2  0
 30 31  1  0
 31 32  2  0
 32 33  1  0
 33 34  2  0
 24 35  1  0
 35 36  1  0
 18  8  1  0
 36 21  1  0
 17 11  1  0
 34 29  1  0
  1 37  1  0
  1 38  1  0
  1 39  1  0
  3 40  1  0
  3 41  1  0
  4 42  1  0
  4 43  1  0
  5 44  1  0
  9 45  1  0
 10 46  1  0
 12 47  1  0
 15 48  1  0
 16 49  1  0
 21 50  1  6
 22 51  1  0
 22 52  1  0
 23 53  1  0
 23 54  1  0
 24 55  1  1
 27 56  1  0
 28 57  1  0
 28 58  1  0
 30 59  1  0
 31 60  1  0
 32 61  1  0
 33 62  1  0
 35 63  1  0
 35 64  1  0
 36 65  1  0
 36 66  1  0
M  END
>  <smiles>  (30) 
CN(CCNC(=O)c1ccc2cc(F)ccc2n1)C(=O)[C@H]1CC[C@H](C(=O)NCc2ccccn2)CC1

>  <score_type>  (30) 
oracle

>  <origin>  (30) 
autodockgpu

>  <m_score__min__energy>  (30) 
-8.8699999999999992

>  <m_primary>  (30) 
energy

>  <rmsd>  (30) 
9.523000019994457

>  <m_score__min__rmsd>  (30) 
9.523000019994457

>  <meeko>  (30) 
{"free_energy": -7.98, "intermolecular_energy": -10.67, "internal_energy": -2.65, "cluster_size": 2, "cluster_id": 3, "rank_in_cluster": 2}

>  <energy>  (30) 
-7.22

>  <cluster_rmsd>  (30) 
0.0

>  <cluster>  (30) 
10

$$$$

     RDKit          3D

 66 69  0  0  0  0  0  0  0  0999 V2000
  141.4400   77.9100  223.4070 C   0  0  0  0  0  0  0  0  0  0  0  0
  140.3150   77.9700  222.5220 N   0  0  0  0  0  0  0  0  0  0  0  0
  140.1520   79.2140  221.7570 C   0  0  0  0  0  0  0  0  0  0  0  0
  141.4740   79.5770  221.1010 C   0  0  0  0  0  0  0  0  0  0  0  0
  142.1900   78.3250  220.8900 N   0  0  0  0  0  0  0  0  0  0  0  0
  142.0210   77.7080  219.6190 C   0  0  0  0  0  0  0  0  0  0  0  0
  141.2560   78.3350  218.8080 O   0  0  0  0  0  0  0  0  0  0  0  0
  142.6700   76.4560  219.2620 C   0  0  0  0  0  0  0  0  0  0  0  0
  142.3620   75.9120  218.0220 C   0  0  0  0  0  0  0  0  0  0  0  0
  142.9460   74.7150  217.6210 C   0  0  0  0  0  0  0  0  0  0  0  0
  143.8130   74.1270  218.4930 C   0  0  0  0  0  0  0  0  0  0  0  0
  144.4020   72.9250  218.0960 C   0  0  0  0  0  0  0  0  0  0  0  0
  145.2960   72.2990  218.9720 C   0  0  0  0  0  0  0  0  0  0  0  0
  145.8810   71.1320  218.6080 F   0  0  0  0  0  0  0  0  0  0  0  0
  145.5880   72.8650  220.2070 C   0  0  0  0  0  0  0  0  0  0  0  0
  145.0020   74.0540  220.5940 C   0  0  0  0  0  0  0  0  0  0  0  0
  144.1230   74.6640  219.7260 C   0  0  0  0  0  0  0  0  0  0  0  0
  143.5360   75.8230  220.0750 N   0  0  0  0  0  0  0  0  0  0  0  0
  139.3580   76.9640  222.3140 C   0  0  0  0  0  0  0  0  0  0  0  0
  138.1210   77.3330  222.4280 O   0  0  0  0  0  0  0  0  0  0  0  0
  139.5710   75.5620  221.9890 C   0  0  1  0  0  0  0  0  0  0  0  0
  138.7420   75.0170  220.8460 C   0  0  0  0  0  0  0  0  0  0  0  0
  138.6810   73.5200  221.0700 C   0  0  0  0  0  0  0  0  0  0  0  0
  140.0240   72.8850  221.2010 C   0  0  2  0  0  0  0  0  0  0  0  0
  139.8590   71.6120  221.9500 C   0  0  0  0  0  0  0  0  0  0  0  0
  139.7060   70.4990  221.3660 O   0  0  0  0  0  0  0  0  0  0  0  0
  139.8820   71.6960  223.3710 N   0  0  0  0  0  0  0  0  0  0  0  0
  139.7270   70.4850  224.1900 C   0  0  0  0  0  0  0  0  0  0  0  0
  140.1910   70.7880  225.5830 C   0  0  0  0  0  0  0  0  0  0  0  0
  139.8690   69.9270  226.6370 C   0  0  0  0  0  0  0  0  0  0  0  0
  140.3280   70.2640  227.8980 C   0  0  0  0  0  0  0  0  0  0  0  0
  141.0690   71.4130  228.0640 C   0  0  0  0  0  0  0  0  0  0  0  0
  141.3800   72.2540  227.0140 C   0  0  0  0  0  0  0  0  0  0  0  0
  140.9220   71.9080  225.7840 N   0  0  0  0  0  0  0  0  0  0  0  0
  141.0850   73.6780  221.8860 C   0  0  0  0  0  0  0  0  0  0  0  0
  140.9860   75.1660  221.6500 C   0  0  0  0  0  0  0  0  0  0  0  0
  141.0882   77.9288  224.4491 H   0  0  0  0  0  0  0  0  0  0  0  0
  142.0000   76.9807  223.2257 H   0  0  0  0  0  0  0  0  0  0  0  0
  142.0956   78.7745  223.2257 H   0  0  0  0  0  0  0  0  0  0  0  0
  139.3843   79.0710  220.9822 H   0  0  0  0  0  0  0  0  0  0  0  0
  139.8412   80.0243  222.4329 H   0  0  0  0  0  0  0  0  0  0  0  0
  141.2953   80.0792  220.1388 H   0  0  0  0  0  0  0  0  0  0  0  0
  142.0550   80.2655  221.7322 H   0  0  0  0  0  0  0  0  0  0  0  0
  142.7980   77.8850  221.6160 H   0  0  0  0  0  0  0  0  0  0  0  0
  141.6552   76.4285  217.3559 H   0  0  0  0  0  0  0  0  0  0  0  0
  142.7184   74.2633  216.6442 H   0  0  0  0  0  0  0  0  0  0  0  0
  144.1687   72.4803  217.1173 H   0  0  0  0  0  0  0  0  0  0  0  0
  146.2935   72.3605  220.8836 H   0  0  0  0  0  0  0  0  0  0  0  0
  145.2314   74.5032  221.5715 H   0  0  0  0  0  0  0  0  0  0  0  0
  139.2605   75.1284  222.9511 H   0  0  0  0  0  0  0  0  0  0  0  0
  139.2209   75.2425  219.8817 H   0  0  0  0  0  0  0  0  0  0  0  0
  137.7388   75.4672  220.8178 H   0  0  0  0  0  0  0  0  0  0  0  0
  138.1600   73.0608  220.2169 H   0  0  0  0  0  0  0  0  0  0  0  0
  138.1502   73.3553  222.0193 H   0  0  0  0  0  0  0  0  0  0  0  0
  140.3786   72.7657  220.1666 H   0  0  0  0  0  0  0  0  0  0  0  0
  140.0080   72.6240  223.8530 H   0  0  0  0  0  0  0  0  0  0  0  0
  138.6694   70.1831  224.2090 H   0  0  0  0  0  0  0  0  0  0  0  0
  140.3238   69.6645  223.7649 H   0  0  0  0  0  0  0  0  0  0  0  0
  139.2739   69.0171  226.4699 H   0  0  0  0  0  0  0  0  0  0  0  0
  140.1030   69.6197  228.7607 H   0  0  0  0  0  0  0  0  0  0  0  0
  141.4268   71.6706  229.0718 H   0  0  0  0  0  0  0  0  0  0  0  0
  141.9744   73.1667  227.1680 H   0  0  0  0  0  0  0  0  0  0  0  0
  142.0641   73.3340  221.5213 H   0  0  0  0  0  0  0  0  0  0  0  0
  140.9560   73.5171  222.9665 H   0  0  0  0  0  0  0  0  0  0  0  0
  141.2035   75.3987  220.5971 H   0  0  0  0  0  0  0  0  0  0  0  0
  141.7110   75.7152  222.2687 H   0  0  0  0  0  0  0  0  0  0  0  0
  1  2  1  0
  2  3  1  0
  3  4  1  0
  4  5  1  0
  5  6  1  0
  6  7  2  0
  6  8  1  0
  8  9  2  0
  9 10  1  0
 10 11  2  0
 11 12  1  0
 12 13  2  0
 13 14  1  0
 13 15  1  0
 15 16  2  0
 16 17  1  0
 17 18  2  0
  2 19  1  0
 19 20  2  0
 19 21  1  0
 21 22  1  0
 22 23  1  0
 23 24  1  0
 24 25  1  0
 25 26  2  0
 25 27  1  0
 27 28  1  0
 28 29  1  0
 29 30  2  0
 30 31  1  0
 31 32  2  0
 32 33  1  0
 33 34  2  0
 24 35  1  0
 35 36  1  0
 18  8  1  0
 36 21  1  0
 17 11  1  0
 34 29  1  0
  1 37  1  0
  1 38  1  0
  1 39  1  0
  3 40  1  0
  3 41  1  0
  4 42  1  0
  4 43  1  0
  5 44  1  0
  9 45  1  0
 10 46  1  0
 12 47  1  0
 15 48  1  0
 16 49  1  0
 21 50  1  1
 22 51  1  0
 22 52  1  0
 23 53  1  0
 23 54  1  0
 24 55  1  6
 27 56  1  0
 28 57  1  0
 28 58  1  0
 30 59  1  0
 31 60  1  0
 32 61  1  0
 33 62  1  0
 35 63  1  0
 35 64  1  0
 36 65  1  0
 36 66  1  0
M  END
>  <smiles>  (31) 
CN(CCNC(=O)c1ccc2cc(F)ccc2n1)C(=O)[C@H]1CC[C@H](C(=O)NCc2ccccn2)CC1

>  <score_type>  (31) 
oracle

>  <origin>  (31) 
autodockgpu

>  <m_score__min__energy>  (31) 
-8.8699999999999992

>  <m_primary>  (31) 
energy

>  <rmsd>  (31) 
7.038490842428876

>  <m_score__min__rmsd>  (31) 
7.038490842428876

>  <meeko>  (31) 
{"free_energy": -8.01, "intermolecular_energy": -10.69, "internal_energy": -3.14, "cluster_size": 6, "cluster_id": 5, "rank_in_cluster": 3}

>  <energy>  (31) 
-6.92

>  <cluster_rmsd>  (31) 
0.0

>  <cluster>  (31) 
11

$$$$

     RDKit          3D

 66 69  0  0  0  0  0  0  0  0999 V2000
  138.4970   75.0740  220.9640 C   0  0  0  0  0  0  0  0  0  0  0  0
  139.0920   73.7720  221.0130 N   0  0  0  0  0  0  0  0  0  0  0  0
  138.2560   72.6540  220.5550 C   0  0  0  0  0  0  0  0  0  0  0  0
  137.2380   72.3150  221.6320 C   0  0  0  0  0  0  0  0  0  0  0  0
  137.9970   71.8800  222.7980 N   0  0  0  0  0  0  0  0  0  0  0  0
  137.9670   70.4860  223.0860 C   0  0  0  0  0  0  0  0  0  0  0  0
  137.2730   69.7790  222.2760 O   0  0  0  0  0  0  0  0  0  0  0  0
  138.6740   69.9030  224.2150 C   0  0  0  0  0  0  0  0  0  0  0  0
  138.7450   68.5180  224.2730 C   0  0  0  0  0  0  0  0  0  0  0  0
  139.4040   67.8970  225.3300 C   0  0  0  0  0  0  0  0  0  0  0  0
  139.9590   68.7070  226.2750 C   0  0  0  0  0  0  0  0  0  0  0  0
  140.6210   68.0900  227.3370 C   0  0  0  0  0  0  0  0  0  0  0  0
  141.2000   68.8970  228.3220 C   0  0  0  0  0  0  0  0  0  0  0  0
  141.8490   68.3210  229.3630 F   0  0  0  0  0  0  0  0  0  0  0  0
  141.1150   70.2820  228.2400 C   0  0  0  0  0  0  0  0  0  0  0  0
  140.4590   70.8870  227.1870 C   0  0  0  0  0  0  0  0  0  0  0  0
  139.8910   70.0850  226.2210 C   0  0  0  0  0  0  0  0  0  0  0  0
  139.2450   70.6450  225.1830 N   0  0  0  0  0  0  0  0  0  0  0  0
  140.3890   73.4600  221.4520 C   0  0  0  0  0  0  0  0  0  0  0  0
  140.5010   73.1700  222.7100 O   0  0  0  0  0  0  0  0  0  0  0  0
  141.6240   73.4200  220.6830 C   0  0  1  0  0  0  0  0  0  0  0  0
  141.4630   73.2450  219.1890 C   0  0  0  0  0  0  0  0  0  0  0  0
  142.7760   72.6610  218.7070 C   0  0  0  0  0  0  0  0  0  0  0  0
  143.9640   73.4730  219.0990 C   0  0  2  0  0  0  0  0  0  0  0  0
  145.1520   72.5800  219.0930 C   0  0  0  0  0  0  0  0  0  0  0  0
  146.3290   73.0220  218.9410 O   0  0  0  0  0  0  0  0  0  0  0  0
  144.9100   71.1890  219.2700 N   0  0  0  0  0  0  0  0  0  0  0  0
  146.0280   70.2340  219.2790 C   0  0  0  0  0  0  0  0  0  0  0  0
  145.4700   68.8440  219.2320 C   0  0  0  0  0  0  0  0  0  0  0  0
  146.3230   67.7460  219.0820 C   0  0  0  0  0  0  0  0  0  0  0  0
  145.7440   66.4890  219.0470 C   0  0  0  0  0  0  0  0  0  0  0  0
  144.3760   66.3710  219.1570 C   0  0  0  0  0  0  0  0  0  0  0  0
  143.5460   67.4640  219.3060 C   0  0  0  0  0  0  0  0  0  0  0  0
  144.1310   68.6890  219.3390 N   0  0  0  0  0  0  0  0  0  0  0  0
  143.9150   74.1500  220.4260 C   0  0  0  0  0  0  0  0  0  0  0  0
  142.5350   74.6120  220.8280 C   0  0  0  0  0  0  0  0  0  0  0  0
  138.3299   75.4396  221.9879 H   0  0  0  0  0  0  0  0  0  0  0  0
  139.1689   75.7645  220.4332 H   0  0  0  0  0  0  0  0  0  0  0  0
  137.5352   75.0179  220.4332 H   0  0  0  0  0  0  0  0  0  0  0  0
  137.7322   72.9410  219.6313 H   0  0  0  0  0  0  0  0  0  0  0  0
  138.8894   71.7768  220.3568 H   0  0  0  0  0  0  0  0  0  0  0  0
  136.6370   73.2025  221.8794 H   0  0  0  0  0  0  0  0  0  0  0  0
  136.5466   71.5298  221.2923 H   0  0  0  0  0  0  0  0  0  0  0  0
  138.5390   72.5340  223.4040 H   0  0  0  0  0  0  0  0  0  0  0  0
  138.2799   67.9105  223.4827 H   0  0  0  0  0  0  0  0  0  0  0  0
  139.4737   66.8014  225.3995 H   0  0  0  0  0  0  0  0  0  0  0  0
  140.6861   66.9936  227.3983 H   0  0  0  0  0  0  0  0  0  0  0  0
  141.5755   70.9026  229.0228 H   0  0  0  0  0  0  0  0  0  0  0  0
  140.3912   71.9829  227.1205 H   0  0  0  0  0  0  0  0  0  0  0  0
  142.0698   72.5265  221.1446 H   0  0  0  0  0  0  0  0  0  0  0  0
  141.2733   74.2151  218.7063 H   0  0  0  0  0  0  0  0  0  0  0  0
  140.6114   72.5935  218.9434 H   0  0  0  0  0  0  0  0  0  0  0  0
  142.7460   72.5941  217.6094 H   0  0  0  0  0  0  0  0  0  0  0  0
  142.8861   71.6743  219.1805 H   0  0  0  0  0  0  0  0  0  0  0  0
  143.9996   74.2894  218.3626 H   0  0  0  0  0  0  0  0  0  0  0  0
  143.9290   70.8250  219.3950 H   0  0  0  0  0  0  0  0  0  0  0  0
  146.6691   70.4058  218.4018 H   0  0  0  0  0  0  0  0  0  0  0  0
  146.6286   70.3671  220.1909 H   0  0  0  0  0  0  0  0  0  0  0  0
  147.4118   67.8761  218.9952 H   0  0  0  0  0  0  0  0  0  0  0  0
  146.3708   65.5924  218.9324 H   0  0  0  0  0  0  0  0  0  0  0  0
  143.9276   65.3671  219.1249 H   0  0  0  0  0  0  0  0  0  0  0  0
  142.4558   67.3474  219.3943 H   0  0  0  0  0  0  0  0  0  0  0  0
  144.5774   75.0275  220.3915 H   0  0  0  0  0  0  0  0  0  0  0  0
  144.2334   73.4088  221.1738 H   0  0  0  0  0  0  0  0  0  0  0  0
  142.2009   75.4276  220.1699 H   0  0  0  0  0  0  0  0  0  0  0  0
  142.5287   74.9936  221.8597 H   0  0  0  0  0  0  0  0  0  0  0  0
  1  2  1  0
  2  3  1  0
  3  4  1  0
  4  5  1  0
  5  6  1  0
  6  7  2  0
  6  8  1  0
  8  9  2  0
  9 10  1  0
 10 11  2  0
 11 12  1  0
 12 13  2  0
 13 14  1  0
 13 15  1  0
 15 16  2  0
 16 17  1  0
 17 18  2  0
  2 19  1  0
 19 20  2  0
 19 21  1  0
 21 22  1  0
 22 23  1  0
 23 24  1  0
 24 25  1  0
 25 26  2  0
 25 27  1  0
 27 28  1  0
 28 29  1  0
 29 30  2  0
 30 31  1  0
 31 32  2  0
 32 33  1  0
 33 34  2  0
 24 35  1  0
 35 36  1  0
 18  8  1  0
 36 21  1  0
 17 11  1  0
 34 29  1  0
  1 37  1  0
  1 38  1  0
  1 39  1  0
  3 40  1  0
  3 41  1  0
  4 42  1  0
  4 43  1  0
  5 44  1  0
  9 45  1  0
 10 46  1  0
 12 47  1  0
 15 48  1  0
 16 49  1  0
 21 50  1  1
 22 51  1  0
 22 52  1  0
 23 53  1  0
 23 54  1  0
 24 55  1  6
 27 56  1  0
 28 57  1  0
 28 58  1  0
 30 59  1  0
 31 60  1  0
 32 61  1  0
 33 62  1  0
 35 63  1  0
 35 64  1  0
 36 65  1  0
 36 66  1  0
M  END
>  <smiles>  (32) 
CN(CCNC(=O)c1ccc2cc(F)ccc2n1)C(=O)[C@H]1CC[C@H](C(=O)NCc2ccccn2)CC1

>  <score_type>  (32) 
oracle

>  <origin>  (32) 
autodockgpu

>  <m_score__min__energy>  (32) 
-8.8699999999999992

>  <m_primary>  (32) 
energy

>  <rmsd>  (32) 
9.394233394232446

>  <m_score__min__rmsd>  (32) 
9.394233394232446

>  <meeko>  (32) 
{"free_energy": -8.65, "intermolecular_energy": -11.33, "internal_energy": -3.12, "cluster_size": 4, "cluster_id": 1, "rank_in_cluster": 2}

>  <energy>  (32) 
-6.81

>  <cluster_rmsd>  (32) 
0.0

>  <cluster>  (32) 
12

$$$$

     RDKit          3D

 66 69  0  0  0  0  0  0  0  0999 V2000
  138.7490   74.0890  218.8010 C   0  0  0  0  0  0  0  0  0  0  0  0
  138.7180   74.0720  220.2330 N   0  0  0  0  0  0  0  0  0  0  0  0
  137.3890   74.0220  220.8570 C   0  0  0  0  0  0  0  0  0  0  0  0
  137.0330   72.5760  221.1670 C   0  0  0  0  0  0  0  0  0  0  0  0
  137.7770   72.2150  222.3670 N   0  0  0  0  0  0  0  0  0  0  0  0
  137.8430   70.8260  222.6750 C   0  0  0  0  0  0  0  0  0  0  0  0
  137.2360   70.0590  221.8500 O   0  0  0  0  0  0  0  0  0  0  0  0
  138.5470   70.3130  223.8390 C   0  0  0  0  0  0  0  0  0  0  0  0
  138.5340   68.9390  224.0340 C   0  0  0  0  0  0  0  0  0  0  0  0
  139.1860   68.3830  225.1310 C   0  0  0  0  0  0  0  0  0  0  0  0
  139.8200   69.2450  225.9750 C   0  0  0  0  0  0  0  0  0  0  0  0
  140.4760   68.6940  227.0770 C   0  0  0  0  0  0  0  0  0  0  0  0
  141.1340   69.5550  227.9610 C   0  0  0  0  0  0  0  0  0  0  0  0
  141.7790   69.0430  229.0380 F   0  0  0  0  0  0  0  0  0  0  0  0
  141.1330   70.9270  227.7430 C   0  0  0  0  0  0  0  0  0  0  0  0
  140.4830   71.4670  226.6510 C   0  0  0  0  0  0  0  0  0  0  0  0
  139.8360   70.6120  225.7850 C   0  0  0  0  0  0  0  0  0  0  0  0
  139.1930   71.1080  224.7120 N   0  0  0  0  0  0  0  0  0  0  0  0
  139.8260   74.0980  221.0960 C   0  0  0  0  0  0  0  0  0  0  0  0
  139.5840   74.4860  222.3080 O   0  0  0  0  0  0  0  0  0  0  0  0
  141.2080   73.7480  220.8090 C   0  0  1  0  0  0  0  0  0  0  0  0
  142.2130   74.8710  220.9450 C   0  0  0  0  0  0  0  0  0  0  0  0
  143.3880   74.4690  220.0750 C   0  0  0  0  0  0  0  0  0  0  0  0
  143.9350   73.1210  220.4070 C   0  0  2  0  0  0  0  0  0  0  0  0
  144.6460   72.6070  219.2070 C   0  0  0  0  0  0  0  0  0  0  0  0
  144.9310   73.3490  218.2220 O   0  0  0  0  0  0  0  0  0  0  0  0
  144.9980   71.2280  219.2110 N   0  0  0  0  0  0  0  0  0  0  0  0
  145.7040   70.6360  218.0650 C   0  0  0  0  0  0  0  0  0  0  0  0
  145.9070   69.1750  218.3310 C   0  0  0  0  0  0  0  0  0  0  0  0
  146.2420   68.3080  217.2870 C   0  0  0  0  0  0  0  0  0  0  0  0
  146.4140   66.9710  217.5990 C   0  0  0  0  0  0  0  0  0  0  0  0
  146.2530   66.5540  218.9020 C   0  0  0  0  0  0  0  0  0  0  0  0
  145.9230   67.4220  219.9230 C   0  0  0  0  0  0  0  0  0  0  0  0
  145.7570   68.7300  219.5990 N   0  0  0  0  0  0  0  0  0  0  0  0
  142.9580   72.0790  220.8350 C   0  0  0  0  0  0  0  0  0  0  0  0
  141.7910   72.6200  221.6230 C   0  0  0  0  0  0  0  0  0  0  0  0
  139.6659   74.5919  218.4600 H   0  0  0  0  0  0  0  0  0  0  0  0
  138.7343   73.0566  218.4216 H   0  0  0  0  0  0  0  0  0  0  0  0
  137.8705   74.6315  218.4216 H   0  0  0  0  0  0  0  0  0  0  0  0
  137.3986   74.6060  221.7891 H   0  0  0  0  0  0  0  0  0  0  0  0
  136.6428   74.4457  220.1688 H   0  0  0  0  0  0  0  0  0  0  0  0
  135.9520   72.4810  221.3471 H   0  0  0  0  0  0  0  0  0  0  0  0
  137.2886   71.9143  220.3263 H   0  0  0  0  0  0  0  0  0  0  0  0
  138.2440   72.9160  222.9840 H   0  0  0  0  0  0  0  0  0  0  0  0
  138.0075   68.2882  223.3204 H   0  0  0  0  0  0  0  0  0  0  0  0
  139.1894   67.2974  225.3085 H   0  0  0  0  0  0  0  0  0  0  0  0
  140.4754   67.6071  227.2463 H   0  0  0  0  0  0  0  0  0  0  0  0
  141.6556   71.5903  228.4479 H   0  0  0  0  0  0  0  0  0  0  0  0
  140.4816   72.5531  226.4765 H   0  0  0  0  0  0  0  0  0  0  0  0
  141.0804   73.4494  219.7580 H   0  0  0  0  0  0  0  0  0  0  0  0
  142.5295   74.9791  221.9929 H   0  0  0  0  0  0  0  0  0  0  0  0
  141.7890   75.8383  220.6375 H   0  0  0  0  0  0  0  0  0  0  0  0
  144.1886   75.2121  220.2046 H   0  0  0  0  0  0  0  0  0  0  0  0
  143.0253   74.4266  219.0374 H   0  0  0  0  0  0  0  0  0  0  0  0
  144.5771   73.2878  221.2844 H   0  0  0  0  0  0  0  0  0  0  0  0
  144.7570   70.6130  220.0330 H   0  0  0  0  0  0  0  0  0  0  0  0
  145.1039   70.7666  217.1524 H   0  0  0  0  0  0  0  0  0  0  0  0
  146.6763   71.1313  217.9261 H   0  0  0  0  0  0  0  0  0  0  0  0
  146.3642   68.6745  216.2571 H   0  0  0  0  0  0  0  0  0  0  0  0
  146.6770   66.2474  216.8134 H   0  0  0  0  0  0  0  0  0  0  0  0
  146.3928   65.4887  219.1377 H   0  0  0  0  0  0  0  0  0  0  0  0
  145.7995   67.0684  220.9573 H   0  0  0  0  0  0  0  0  0  0  0  0
  143.4870   71.3446  221.4602 H   0  0  0  0  0  0  0  0  0  0  0  0
  142.5444   71.6342  219.9179 H   0  0  0  0  0  0  0  0  0  0  0  0
  142.1329   72.9937  222.5995 H   0  0  0  0  0  0  0  0  0  0  0  0
  141.0414   71.8370  221.8103 H   0  0  0  0  0  0  0  0  0  0  0  0
  1  2  1  0
  2  3  1  0
  3  4  1  0
  4  5  1  0
  5  6  1  0
  6  7  2  0
  6  8  1  0
  8  9  2  0
  9 10  1  0
 10 11  2  0
 11 12  1  0
 12 13  2  0
 13 14  1  0
 13 15  1  0
 15 16  2  0
 16 17  1  0
 17 18  2  0
  2 19  1  0
 19 20  2  0
 19 21  1  0
 21 22  1  0
 22 23  1  0
 23 24  1  0
 24 25  1  0
 25 26  2  0
 25 27  1  0
 27 28  1  0
 28 29  1  0
 29 30  2  0
 30 31  1  0
 31 32  2  0
 32 33  1  0
 33 34  2  0
 24 35  1  0
 35 36  1  0
 18  8  1  0
 36 21  1  0
 17 11  1  0
 34 29  1  0
  1 37  1  0
  1 38  1  0
  1 39  1  0
  3 40  1  0
  3 41  1  0
  4 42  1  0
  4 43  1  0
  5 44  1  0
  9 45  1  0
 10 46  1  0
 12 47  1  0
 15 48  1  0
 16 49  1  0
 21 50  1  6
 22 51  1  0
 22 52  1  0
 23 53  1  0
 23 54  1  0
 24 55  1  1
 27 56  1  0
 28 57  1  0
 28 58  1  0
 30 59  1  0
 31 60  1  0
 32 61  1  0
 33 62  1  0
 35 63  1  0
 35 64  1  0
 36 65  1  0
 36 66  1  0
M  END
>  <smiles>  (33) 
CN(CCNC(=O)c1ccc2cc(F)ccc2n1)C(=O)[C@H]1CC[C@H](C(=O)NCc2ccccn2)CC1

>  <score_type>  (33) 
oracle

>  <origin>  (33) 
autodockgpu

>  <m_score__min__energy>  (33) 
-8.8699999999999992

>  <m_primary>  (33) 
energy

>  <rmsd>  (33) 
8.884816669002364

>  <m_score__min__rmsd>  (33) 
8.884816669002364

>  <meeko>  (33) 
{"free_energy": -8.24, "intermolecular_energy": -10.93, "internal_energy": -3.24, "cluster_size": 4, "cluster_id": 1, "rank_in_cluster": 4}

>  <energy>  (33) 
-6.8

>  <cluster_rmsd>  (33) 
0.0

>  <cluster>  (33) 
13

$$$$

     RDKit          3D

 66 69  0  0  0  0  0  0  0  0999 V2000
  140.7290   70.9720  220.7040 C   0  0  0  0  0  0  0  0  0  0  0  0
  140.1120   72.2650  220.7170 N   0  0  0  0  0  0  0  0  0  0  0  0
  138.6940   72.3150  220.3350 C   0  0  0  0  0  0  0  0  0  0  0  0
  137.8700   72.7780  221.5250 C   0  0  0  0  0  0  0  0  0  0  0  0
  138.5150   72.2330  222.7130 N   0  0  0  0  0  0  0  0  0  0  0  0
  138.2690   70.8570  222.9890 C   0  0  0  0  0  0  0  0  0  0  0  0
  137.5070   70.2630  222.1520 O   0  0  0  0  0  0  0  0  0  0  0  0
  138.8430   70.1740  224.1380 C   0  0  0  0  0  0  0  0  0  0  0  0
  138.7390   68.7890  224.1690 C   0  0  0  0  0  0  0  0  0  0  0  0
  139.2640   68.0750  225.2420 C   0  0  0  0  0  0  0  0  0  0  0  0
  139.8670   68.7950  226.2290 C   0  0  0  0  0  0  0  0  0  0  0  0
  140.3960   68.0840  227.3080 C   0  0  0  0  0  0  0  0  0  0  0  0
  141.0210   68.7970  228.3360 C   0  0  0  0  0  0  0  0  0  0  0  0
  141.5420   68.1280  229.3930 F   0  0  0  0  0  0  0  0  0  0  0  0
  141.1110   70.1830  228.2800 C   0  0  0  0  0  0  0  0  0  0  0  0
  140.5870   70.8810  227.2110 C   0  0  0  0  0  0  0  0  0  0  0  0
  139.9730   70.1710  226.2020 C   0  0  0  0  0  0  0  0  0  0  0  0
  139.4520   70.8230  225.1470 N   0  0  0  0  0  0  0  0  0  0  0  0
  140.7240   73.4820  221.0570 C   0  0  0  0  0  0  0  0  0  0  0  0
  140.7370   73.7700  222.3200 O   0  0  0  0  0  0  0  0  0  0  0  0
  141.3440   74.4630  220.1790 C   0  0  1  0  0  0  0  0  0  0  0  0
  142.8530   74.5470  220.2470 C   0  0  0  0  0  0  0  0  0  0  0  0
  143.2030   75.9350  219.7520 C   0  0  0  0  0  0  0  0  0  0  0  0
  142.6390   76.2430  218.4060 C   0  0  2  0  0  0  0  0  0  0  0  0
  142.5450   77.7220  218.2750 C   0  0  0  0  0  0  0  0  0  0  0  0
  142.7690   78.3180  217.1810 O   0  0  0  0  0  0  0  0  0  0  0  0
  142.1880   78.4480  219.4460 N   0  0  0  0  0  0  0  0  0  0  0  0
  142.0710   79.9130  219.4050 C   0  0  0  0  0  0  0  0  0  0  0  0
  141.9410   80.4210  220.8100 C   0  0  0  0  0  0  0  0  0  0  0  0
  141.5670   81.7470  221.0480 C   0  0  0  0  0  0  0  0  0  0  0  0
  141.4650   82.1530  222.3670 C   0  0  0  0  0  0  0  0  0  0  0  0
  141.7310   81.2530  223.3750 C   0  0  0  0  0  0  0  0  0  0  0  0
  142.0990   79.9460  223.1240 C   0  0  0  0  0  0  0  0  0  0  0  0
  142.1940   79.5650  221.8250 N   0  0  0  0  0  0  0  0  0  0  0  0
  141.2970   75.6760  218.0880 C   0  0  0  0  0  0  0  0  0  0  0  0
  141.0390   74.3250  218.7090 C   0  0  0  0  0  0  0  0  0  0  0  0
  140.8910   70.6326  221.7377 H   0  0  0  0  0  0  0  0  0  0  0  0
  140.0743   70.2585  220.1821 H   0  0  0  0  0  0  0  0  0  0  0  0
  141.6955   71.0321  220.1821 H   0  0  0  0  0  0  0  0  0  0  0  0
  138.5627   73.0196  219.5006 H   0  0  0  0  0  0  0  0  0  0  0  0
  138.3607   71.3143  220.0226 H   0  0  0  0  0  0  0  0  0  0  0  0
  137.8542   73.8769  221.5716 H   0  0  0  0  0  0  0  0  0  0  0  0
  136.8282   72.4340  221.4451 H   0  0  0  0  0  0  0  0  0  0  0  0
  139.1260   72.7980  223.3430 H   0  0  0  0  0  0  0  0  0  0  0  0
  138.2414   68.2565  223.3451 H   0  0  0  0  0  0  0  0  0  0  0  0
  139.1952   66.9782  225.2910 H   0  0  0  0  0  0  0  0  0  0  0  0
  140.3228   66.9872  227.3486 H   0  0  0  0  0  0  0  0  0  0  0  0
  141.6053   70.7294  229.0967 H   0  0  0  0  0  0  0  0  0  0  0  0
  140.6577   71.9778  227.1654 H   0  0  0  0  0  0  0  0  0  0  0  0
  140.8743   75.3666  220.5948 H   0  0  0  0  0  0  0  0  0  0  0  0
  143.3102   73.7821  219.6021 H   0  0  0  0  0  0  0  0  0  0  0  0
  143.2263   74.3709  221.2666 H   0  0  0  0  0  0  0  0  0  0  0  0
  144.2984   76.0205  219.6991 H   0  0  0  0  0  0  0  0  0  0  0  0
  142.7640   76.6529  220.4604 H   0  0  0  0  0  0  0  0  0  0  0  0
  143.3291   75.7624  217.6969 H   0  0  0  0  0  0  0  0  0  0  0  0
  142.0040   77.9480  220.3550 H   0  0  0  0  0  0  0  0  0  0  0  0
  142.9683   80.3437  218.9366 H   0  0  0  0  0  0  0  0  0  0  0  0
  141.1882   80.2036  218.8166 H   0  0  0  0  0  0  0  0  0  0  0  0
  141.3618   82.4405  220.2191 H   0  0  0  0  0  0  0  0  0  0  0  0
  141.1739   83.1860  222.6084 H   0  0  0  0  0  0  0  0  0  0  0  0
  141.6471   81.5880  224.4194 H   0  0  0  0  0  0  0  0  0  0  0  0
  142.3067   79.2423  223.9436 H   0  0  0  0  0  0  0  0  0  0  0  0
  141.2135   75.5763  216.9957 H   0  0  0  0  0  0  0  0  0  0  0  0
  140.5516   76.3672  218.5083 H   0  0  0  0  0  0  0  0  0  0  0  0
  141.6939   73.5669  218.2548 H   0  0  0  0  0  0  0  0  0  0  0  0
  139.9989   74.0055  218.5473 H   0  0  0  0  0  0  0  0  0  0  0  0
  1  2  1  0
  2  3  1  0
  3  4  1  0
  4  5  1  0
  5  6  1  0
  6  7  2  0
  6  8  1  0
  8  9  2  0
  9 10  1  0
 10 11  2  0
 11 12  1  0
 12 13  2  0
 13 14  1  0
 13 15  1  0
 15 16  2  0
 16 17  1  0
 17 18  2  0
  2 19  1  0
 19 20  2  0
 19 21  1  0
 21 22  1  0
 22 23  1  0
 23 24  1  0
 24 25  1  0
 25 26  2  0
 25 27  1  0
 27 28  1  0
 28 29  1  0
 29 30  2  0
 30 31  1  0
 31 32  2  0
 32 33  1  0
 33 34  2  0
 24 35  1  0
 35 36  1  0
 18  8  1  0
 36 21  1  0
 17 11  1  0
 34 29  1  0
  1 37  1  0
  1 38  1  0
  1 39  1  0
  3 40  1  0
  3 41  1  0
  4 42  1  0
  4 43  1  0
  5 44  1  0
  9 45  1  0
 10 46  1  0
 12 47  1  0
 15 48  1  0
 16 49  1  0
 21 50  1  1
 22 51  1  0
 22 52  1  0
 23 53  1  0
 23 54  1  0
 24 55  1  6
 27 56  1  0
 28 57  1  0
 28 58  1  0
 30 59  1  0
 31 60  1  0
 32 61  1  0
 33 62  1  0
 35 63  1  0
 35 64  1  0
 36 65  1  0
 36 66  1  0
M  END
>  <smiles>  (34) 
CN(CCNC(=O)c1ccc2cc(F)ccc2n1)C(=O)[C@H]1CC[C@H](C(=O)NCc2ccccn2)CC1

>  <score_type>  (34) 
oracle

>  <origin>  (34) 
autodockgpu

>  <m_score__min__energy>  (34) 
-8.8699999999999992

>  <m_primary>  (34) 
energy

>  <rmsd>  (34) 
9.864365844325457

>  <m_score__min__rmsd>  (34) 
9.864365844325457

>  <meeko>  (34) 
{"free_energy": -8.2, "intermolecular_energy": -10.88, "internal_energy": -3.19, "cluster_size": 2, "cluster_id": 3, "rank_in_cluster": 1}

>  <energy>  (34) 
-6.75

>  <cluster_rmsd>  (34) 
0.58

>  <cluster>  (34) 
13

$$$$

     RDKit          3D

 66 69  0  0  0  0  0  0  0  0999 V2000
  137.0360   75.6630  222.7600 C   0  0  0  0  0  0  0  0  0  0  0  0
  138.1890   75.5180  221.9220 N   0  0  0  0  0  0  0  0  0  0  0  0
  138.0000   74.7660  220.6750 C   0  0  0  0  0  0  0  0  0  0  0  0
  137.6230   73.3310  221.0070 C   0  0  0  0  0  0  0  0  0  0  0  0
  138.3580   72.9780  222.2150 N   0  0  0  0  0  0  0  0  0  0  0  0
  138.3520   71.6010  222.5780 C   0  0  0  0  0  0  0  0  0  0  0  0
  137.6980   70.8350  221.7890 O   0  0  0  0  0  0  0  0  0  0  0  0
  139.0400   71.0980  223.7560 C   0  0  0  0  0  0  0  0  0  0  0  0
  140.0520   71.8870  224.2860 C   0  0  0  0  0  0  0  0  0  0  0  0
  140.7510   71.4610  225.4120 C   0  0  0  0  0  0  0  0  0  0  0  0
  140.3930   70.2600  225.9450 C   0  0  0  0  0  0  0  0  0  0  0  0
  141.0910   69.8270  227.0740 C   0  0  0  0  0  0  0  0  0  0  0  0
  140.7440   68.5970  227.6420 C   0  0  0  0  0  0  0  0  0  0  0  0
  141.4070   68.1560  228.7390 F   0  0  0  0  0  0  0  0  0  0  0  0
  139.7270   67.8260  227.0920 C   0  0  0  0  0  0  0  0  0  0  0  0
  139.0390   68.2590  225.9760 C   0  0  0  0  0  0  0  0  0  0  0  0
  139.3870   69.4710  225.4220 C   0  0  0  0  0  0  0  0  0  0  0  0
  138.7360   69.9200  224.3330 N   0  0  0  0  0  0  0  0  0  0  0  0
  139.4750   76.0230  222.1720 C   0  0  0  0  0  0  0  0  0  0  0  0
  140.4090   75.1350  222.3140 O   0  0  0  0  0  0  0  0  0  0  0  0
  139.8990   77.4090  222.2960 C   0  0  1  0  0  0  0  0  0  0  0  0
  138.8830   78.3580  222.8930 C   0  0  0  0  0  0  0  0  0  0  0  0
  139.2750   79.7350  222.3970 C   0  0  0  0  0  0  0  0  0  0  0  0
  140.6910   80.0920  222.7020 C   0  0  2  0  0  0  0  0  0  0  0  0
  141.1200   81.1350  221.7320 C   0  0  0  0  0  0  0  0  0  0  0  0
  141.2510   82.3500  222.0610 O   0  0  0  0  0  0  0  0  0  0  0  0
  141.3830   80.7040  220.4020 N   0  0  0  0  0  0  0  0  0  0  0  0
  141.8140   81.6680  219.3790 C   0  0  0  0  0  0  0  0  0  0  0  0
  141.9350   80.9520  218.0680 C   0  0  0  0  0  0  0  0  0  0  0  0
  142.0560   81.6750  216.8770 C   0  0  0  0  0  0  0  0  0  0  0  0
  142.1640   80.9540  215.7010 C   0  0  0  0  0  0  0  0  0  0  0  0
  142.1490   79.5770  215.7480 C   0  0  0  0  0  0  0  0  0  0  0  0
  142.0290   78.8760  216.9310 C   0  0  0  0  0  0  0  0  0  0  0  0
  141.9240   79.6000  218.0750 N   0  0  0  0  0  0  0  0  0  0  0  0
  141.6940   78.9900  222.6540 C   0  0  0  0  0  0  0  0  0  0  0  0
  141.1550   77.6510  223.0950 C   0  0  0  0  0  0  0  0  0  0  0  0
  137.3428   75.6244  223.8156 H   0  0  0  0  0  0  0  0  0  0  0  0
  136.5521   76.6291  222.5539 H   0  0  0  0  0  0  0  0  0  0  0  0
  136.3279   74.8468  222.5539 H   0  0  0  0  0  0  0  0  0  0  0  0
  137.1965   75.2299  220.0841 H   0  0  0  0  0  0  0  0  0  0  0  0
  138.9331   74.7770  220.0926 H   0  0  0  0  0  0  0  0  0  0  0  0
  136.5402   73.2542  221.1851 H   0  0  0  0  0  0  0  0  0  0  0  0
  137.8722   72.6526  220.1777 H   0  0  0  0  0  0  0  0  0  0  0  0
  138.8670   73.6770  222.8000 H   0  0  0  0  0  0  0  0  0  0  0  0
  140.3017   72.8496  223.8158 H   0  0  0  0  0  0  0  0  0  0  0  0
  141.5566   72.0674  225.8516 H   0  0  0  0  0  0  0  0  0  0  0  0
  141.8957   70.4394  227.5070 H   0  0  0  0  0  0  0  0  0  0  0  0
  139.4674   66.8605  227.5506 H   0  0  0  0  0  0  0  0  0  0  0  0
  138.2327   67.6509  225.5400 H   0  0  0  0  0  0  0  0  0  0  0  0
  140.0645   77.6189  221.2290 H   0  0  0  0  0  0  0  0  0  0  0  0
  138.9206   78.3200  223.9917 H   0  0  0  0  0  0  0  0  0  0  0  0
  137.8564   78.0950  222.5982 H   0  0  0  0  0  0  0  0  0  0  0  0
  138.6176   80.4776  222.8729 H   0  0  0  0  0  0  0  0  0  0  0  0
  139.1696   79.7287  221.3021 H   0  0  0  0  0  0  0  0  0  0  0  0
  140.6768   80.4196  223.7520 H   0  0  0  0  0  0  0  0  0  0  0  0
  141.2720   79.6910  220.1320 H   0  0  0  0  0  0  0  0  0  0  0  0
  141.0710   82.4746  219.2935 H   0  0  0  0  0  0  0  0  0  0  0  0
  142.7837   82.1050  219.6594 H   0  0  0  0  0  0  0  0  0  0  0  0
  142.0650   82.7750  216.8752 H   0  0  0  0  0  0  0  0  0  0  0  0
  142.2610   81.4754  214.7373 H   0  0  0  0  0  0  0  0  0  0  0  0
  142.2360   79.0147  214.8066 H   0  0  0  0  0  0  0  0  0  0  0  0
  142.0189   77.7762  216.9464 H   0  0  0  0  0  0  0  0  0  0  0  0
  142.5345   79.2582  223.3110 H   0  0  0  0  0  0  0  0  0  0  0  0
  141.9973   78.8807  221.6023 H   0  0  0  0  0  0  0  0  0  0  0  0
  140.9233   77.6703  224.1701 H   0  0  0  0  0  0  0  0  0  0  0  0
  141.8921   76.8517  222.9281 H   0  0  0  0  0  0  0  0  0  0  0  0
  1  2  1  0
  2  3  1  0
  3  4  1  0
  4  5  1  0
  5  6  1  0
  6  7  2  0
  6  8  1  0
  8  9  2  0
  9 10  1  0
 10 11  2  0
 11 12  1  0
 12 13  2  0
 13 14  1  0
 13 15  1  0
 15 16  2  0
 16 17  1  0
 17 18  2  0
  2 19  1  0
 19 20  2  0
 19 21  1  0
 21 22  1  0
 22 23  1  0
 23 24  1  0
 24 25  1  0
 25 26  2  0
 25 27  1  0
 27 28  1  0
 28 29  1  0
 29 30  2  0
 30 31  1  0
 31 32  2  0
 32 33  1  0
 33 34  2  0
 24 35  1  0
 35 36  1  0
 18  8  1  0
 36 21  1  0
 17 11  1  0
 34 29  1  0
  1 37  1  0
  1 38  1  0
  1 39  1  0
  3 40  1  0
  3 41  1  0
  4 42  1  0
  4 43  1  0
  5 44  1  0
  9 45  1  0
 10 46  1  0
 12 47  1  0
 15 48  1  0
 16 49  1  0
 21 50  1  6
 22 51  1  0
 22 52  1  0
 23 53  1  0
 23 54  1  0
 24 55  1  1
 27 56  1  0
 28 57  1  0
 28 58  1  0
 30 59  1  0
 31 60  1  0
 32 61  1  0
 33 62  1  0
 35 63  1  0
 35 64  1  0
 36 65  1  0
 36 66  1  0
M  END
>  <smiles>  (35) 
CN(CCNC(=O)c1ccc2cc(F)ccc2n1)C(=O)[C@H]1CC[C@H](C(=O)NCc2ccccn2)CC1

>  <score_type>  (35) 
oracle

>  <origin>  (35) 
autodockgpu

>  <m_score__min__energy>  (35) 
-8.8699999999999992

>  <m_primary>  (35) 
energy

>  <rmsd>  (35) 
10.093692513276048

>  <m_score__min__rmsd>  (35) 
10.093692513276048

>  <meeko>  (35) 
{"free_energy": -7.95, "intermolecular_energy": -10.64, "internal_energy": -2.93, "cluster_size": 4, "cluster_id": 2, "rank_in_cluster": 4}

>  <energy>  (35) 
-6.35

>  <cluster_rmsd>  (35) 
0.68

>  <cluster>  (35) 
13

$$$$

     RDKit          3D

 66 69  0  0  0  0  0  0  0  0999 V2000
  145.4480   75.4500  215.7150 C   0  0  0  0  0  0  0  0  0  0  0  0
  144.0660   75.8070  215.8440 N   0  0  0  0  0  0  0  0  0  0  0  0
  143.6890   77.1410  215.3600 C   0  0  0  0  0  0  0  0  0  0  0  0
  142.2900   77.4770  215.8530 C   0  0  0  0  0  0  0  0  0  0  0  0
  142.4520   78.4460  216.9300 N   0  0  0  0  0  0  0  0  0  0  0  0
  141.7540   78.1670  218.1400 C   0  0  0  0  0  0  0  0  0  0  0  0
  141.0660   77.0900  218.1330 O   0  0  0  0  0  0  0  0  0  0  0  0
  141.8180   79.0410  219.3010 C   0  0  0  0  0  0  0  0  0  0  0  0
  141.7680   80.4090  219.0700 C   0  0  0  0  0  0  0  0  0  0  0  0
  141.8270   81.3000  220.1370 C   0  0  0  0  0  0  0  0  0  0  0  0
  141.9330   80.7630  221.3860 C   0  0  0  0  0  0  0  0  0  0  0  0
  141.9930   81.6510  222.4610 C   0  0  0  0  0  0  0  0  0  0  0  0
  142.1030   81.1280  223.7530 C   0  0  0  0  0  0  0  0  0  0  0  0
  142.1620   81.9710  224.8130 F   0  0  0  0  0  0  0  0  0  0  0  0
  142.1510   79.7540  223.9580 C   0  0  0  0  0  0  0  0  0  0  0  0
  142.0900   78.8810  222.8910 C   0  0  0  0  0  0  0  0  0  0  0  0
  141.9830   79.4040  221.6210 C   0  0  0  0  0  0  0  0  0  0  0  0
  141.9230   78.5770  220.5600 N   0  0  0  0  0  0  0  0  0  0  0  0
  143.0430   75.0110  216.3840 C   0  0  0  0  0  0  0  0  0  0  0  0
  142.3200   74.3660  215.5230 O   0  0  0  0  0  0  0  0  0  0  0  0
  142.6840   74.8170  217.7800 C   0  0  1  0  0  0  0  0  0  0  0  0
  142.4010   73.3890  218.1950 C   0  0  0  0  0  0  0  0  0  0  0  0
  141.5250   73.4930  219.4260 C   0  0  0  0  0  0  0  0  0  0  0  0
  142.1190   74.3320  220.5070 C   0  0  2  0  0  0  0  0  0  0  0  0
  141.0110   74.8200  221.3700 C   0  0  0  0  0  0  0  0  0  0  0  0
  140.5490   74.1340  222.3280 O   0  0  0  0  0  0  0  0  0  0  0  0
  140.4860   76.1090  221.0720 N   0  0  0  0  0  0  0  0  0  0  0  0
  139.3900   76.6700  221.8760 C   0  0  0  0  0  0  0  0  0  0  0  0
  138.9340   77.9470  221.2370 C   0  0  0  0  0  0  0  0  0  0  0  0
  138.5100   79.0190  222.0290 C   0  0  0  0  0  0  0  0  0  0  0  0
  138.1020   80.1700  221.3770 C   0  0  0  0  0  0  0  0  0  0  0  0
  138.1280   80.2130  220.0010 C   0  0  0  0  0  0  0  0  0  0  0  0
  138.5500   79.1480  219.2320 C   0  0  0  0  0  0  0  0  0  0  0  0
  138.9470   78.0270  219.8880 N   0  0  0  0  0  0  0  0  0  0  0  0
  142.9180   75.5170  220.0830 C   0  0  0  0  0  0  0  0  0  0  0  0
  143.6810   75.3140  218.7970 C   0  0  0  0  0  0  0  0  0  0  0  0
  145.8919   75.3353  216.7149 H   0  0  0  0  0  0  0  0  0  0  0  0
  145.5317   74.5007  215.1656 H   0  0  0  0  0  0  0  0  0  0  0  0
  145.9810   76.2399  215.1656 H   0  0  0  0  0  0  0  0  0  0  0  0
  144.4023   77.8859  215.7425 H   0  0  0  0  0  0  0  0  0  0  0  0
  143.7051   77.1524  214.2602 H   0  0  0  0  0  0  0  0  0  0  0  0
  141.6939   77.9118  215.0372 H   0  0  0  0  0  0  0  0  0  0  0  0
  141.7650   76.5763  216.2040 H   0  0  0  0  0  0  0  0  0  0  0  0
  143.0410   79.3040  216.8450 H   0  0  0  0  0  0  0  0  0  0  0  0
  141.6816   80.7892  218.0414 H   0  0  0  0  0  0  0  0  0  0  0  0
  141.7898   82.3881  219.9802 H   0  0  0  0  0  0  0  0  0  0  0  0
  141.9546   82.7378  222.2956 H   0  0  0  0  0  0  0  0  0  0  0  0
  142.2385   79.3587  224.9808 H   0  0  0  0  0  0  0  0  0  0  0  0
  142.1259   77.7933  223.0508 H   0  0  0  0  0  0  0  0  0  0  0  0
  141.7688   75.4270  217.7945 H   0  0  0  0  0  0  0  0  0  0  0  0
  143.3382   72.8646  218.4330 H   0  0  0  0  0  0  0  0  0  0  0  0
  141.9110   72.8194  217.3916 H   0  0  0  0  0  0  0  0  0  0  0  0
  141.3588   72.4804  219.8222 H   0  0  0  0  0  0  0  0  0  0  0  0
  140.5872   73.9779  219.1170 H   0  0  0  0  0  0  0  0  0  0  0  0
  142.8366   73.6697  221.0134 H   0  0  0  0  0  0  0  0  0  0  0  0
  140.8730   76.6760  220.2730 H   0  0  0  0  0  0  0  0  0  0  0  0
  138.5546   75.9554  221.9137 H   0  0  0  0  0  0  0  0  0  0  0  0
  139.7376   76.8657  222.9011 H   0  0  0  0  0  0  0  0  0  0  0  0
  138.5011   78.9502  223.1268 H   0  0  0  0  0  0  0  0  0  0  0  0
  137.7601   81.0425  221.9531 H   0  0  0  0  0  0  0  0  0  0  0  0
  137.7994   81.1327  219.4949 H   0  0  0  0  0  0  0  0  0  0  0  0
  138.5643   79.2045  218.1335 H   0  0  0  0  0  0  0  0  0  0  0  0
  143.6392   75.7511  220.8799 H   0  0  0  0  0  0  0  0  0  0  0  0
  142.2044   76.3348  219.9042 H   0  0  0  0  0  0  0  0  0  0  0  0
  144.4785   74.5704  218.9419 H   0  0  0  0  0  0  0  0  0  0  0  0
  144.1551   76.2492  218.4645 H   0  0  0  0  0  0  0  0  0  0  0  0
  1  2  1  0
  2  3  1  0
  3  4  1  0
  4  5  1  0
  5  6  1  0
  6  7  2  0
  6  8  1  0
  8  9  2  0
  9 10  1  0
 10 11  2  0
 11 12  1  0
 12 13  2  0
 13 14  1  0
 13 15  1  0
 15 16  2  0
 16 17  1  0
 17 18  2  0
  2 19  1  0
 19 20  2  0
 19 21  1  0
 21 22  1  0
 22 23  1  0
 23 24  1  0
 24 25  1  0
 25 26  2  0
 25 27  1  0
 27 28  1  0
 28 29  1  0
 29 30  2  0
 30 31  1  0
 31 32  2  0
 32 33  1  0
 33 34  2  0
 24 35  1  0
 35 36  1  0
 18  8  1  0
 36 21  1  0
 17 11  1  0
 34 29  1  0
  1 37  1  0
  1 38  1  0
  1 39  1  0
  3 40  1  0
  3 41  1  0
  4 42  1  0
  4 43  1  0
  5 44  1  0
  9 45  1  0
 10 46  1  0
 12 47  1  0
 15 48  1  0
 16 49  1  0
 21 50  1  1
 22 51  1  0
 22 52  1  0
 23 53  1  0
 23 54  1  0
 24 55  1  1
 27 56  1  0
 28 57  1  0
 28 58  1  0
 30 59  1  0
 31 60  1  0
 32 61  1  0
 33 62  1  0
 35 63  1  0
 35 64  1  0
 36 65  1  0
 36 66  1  0
M  END
>  <smiles>  (36) 
CN(CCNC(=O)c1ccc2cc(F)ccc2n1)C(=O)[C@H]1CC[C@H](C(=O)NCc2ccccn2)CC1

>  <score_type>  (36) 
oracle

>  <origin>  (36) 
autodockgpu

>  <m_score__min__energy>  (36) 
-8.8699999999999992

>  <m_primary>  (36) 
energy

>  <rmsd>  (36) 
6.723411950974421

>  <m_score__min__rmsd>  (36) 
6.723411950974421

>  <meeko>  (36) 
{"free_energy": -5.6, "intermolecular_energy": -8.29, "internal_energy": -5.7, "cluster_size": 4, "cluster_id": 14, "rank_in_cluster": 3}

>  <energy>  (36) 
-6.32

>  <cluster_rmsd>  (36) 
1.85

>  <cluster>  (36) 
13

$$$$

     RDKit          3D

 66 69  0  0  0  0  0  0  0  0999 V2000
  139.1510   71.5820  220.0350 C   0  0  0  0  0  0  0  0  0  0  0  0
  139.2810   72.6290  221.0040 N   0  0  0  0  0  0  0  0  0  0  0  0
  138.0970   72.9090  221.8280 C   0  0  0  0  0  0  0  0  0  0  0  0
  137.4650   74.2140  221.3730 C   0  0  0  0  0  0  0  0  0  0  0  0
  138.1070   75.2750  222.1400 N   0  0  0  0  0  0  0  0  0  0  0  0
  138.5750   76.3960  221.3970 C   0  0  0  0  0  0  0  0  0  0  0  0
  138.3710   76.3350  220.1360 O   0  0  0  0  0  0  0  0  0  0  0  0
  139.2360   77.5300  222.0230 C   0  0  0  0  0  0  0  0  0  0  0  0
  138.4450   78.3950  222.7670 C   0  0  0  0  0  0  0  0  0  0  0  0
  139.0150   79.5020  223.3890 C   0  0  0  0  0  0  0  0  0  0  0  0
  140.3560   79.6790  223.2280 C   0  0  0  0  0  0  0  0  0  0  0  0
  140.9340   80.7880  223.8490 C   0  0  0  0  0  0  0  0  0  0  0  0
  142.3090   80.9950  223.6990 C   0  0  0  0  0  0  0  0  0  0  0  0
  142.8930   82.0640  224.2940 F   0  0  0  0  0  0  0  0  0  0  0  0
  143.0790   80.1150  222.9490 C   0  0  0  0  0  0  0  0  0  0  0  0
  142.5020   79.0190  222.3370 C   0  0  0  0  0  0  0  0  0  0  0  0
  141.1470   78.8230  222.4880 C   0  0  0  0  0  0  0  0  0  0  0  0
  140.5560   77.7640  221.9040 N   0  0  0  0  0  0  0  0  0  0  0  0
  140.4230   73.4110  221.2440 C   0  0  0  0  0  0  0  0  0  0  0  0
  141.0580   73.1550  222.3440 O   0  0  0  0  0  0  0  0  0  0  0  0
  140.9870   74.4710  220.4220 C   0  0  1  0  0  0  0  0  0  0  0  0
  142.4960   74.5780  220.4300 C   0  0  0  0  0  0  0  0  0  0  0  0
  142.8020   76.0080  220.0330 C   0  0  0  0  0  0  0  0  0  0  0  0
  142.1720   76.4110  218.7420 C   0  0  2  0  0  0  0  0  0  0  0  0
  142.0500   77.8930  218.7350 C   0  0  0  0  0  0  0  0  0  0  0  0
  142.9370   78.6410  218.2290 O   0  0  0  0  0  0  0  0  0  0  0  0
  140.8780   78.4430  219.3260 N   0  0  0  0  0  0  0  0  0  0  0  0
  140.6750   79.8990  219.3600 C   0  0  0  0  0  0  0  0  0  0  0  0
  139.2670   80.1750  219.7950 C   0  0  0  0  0  0  0  0  0  0  0  0
  138.9360   81.4030  220.3750 C   0  0  0  0  0  0  0  0  0  0  0  0
  137.6190   81.5950  220.7540 C   0  0  0  0  0  0  0  0  0  0  0  0
  136.7030   80.5860  220.5510 C   0  0  0  0  0  0  0  0  0  0  0  0
  137.0440   79.3790  219.9760 C   0  0  0  0  0  0  0  0  0  0  0  0
  138.3400   79.2080  219.6100 N   0  0  0  0  0  0  0  0  0  0  0  0
  140.8270   75.8450  218.4380 C   0  0  0  0  0  0  0  0  0  0  0  0
  140.6190   74.4440  218.9600 C   0  0  0  0  0  0  0  0  0  0  0  0
  139.0313   70.6178  220.5508 H   0  0  0  0  0  0  0  0  0  0  0  0
  138.2696   71.7728  219.4051 H   0  0  0  0  0  0  0  0  0  0  0  0
  140.0522   71.5514  219.4051 H   0  0  0  0  0  0  0  0  0  0  0  0
  137.3704   72.0906  221.7171 H   0  0  0  0  0  0  0  0  0  0  0  0
  138.3944   72.9923  222.8838 H   0  0  0  0  0  0  0  0  0  0  0  0
  137.6378   74.3650  220.2972 H   0  0  0  0  0  0  0  0  0  0  0  0
  136.3773   74.2073  221.5368 H   0  0  0  0  0  0  0  0  0  0  0  0
  138.2290   75.2380  223.1760 H   0  0  0  0  0  0  0  0  0  0  0  0
  137.3660   78.2052  222.8651 H   0  0  0  0  0  0  0  0  0  0  0  0
  138.4100   80.2022  223.9837 H   0  0  0  0  0  0  0  0  0  0  0  0
  140.3219   81.4830  224.4426 H   0  0  0  0  0  0  0  0  0  0  0  0
  144.1592   80.2926  222.8413 H   0  0  0  0  0  0  0  0  0  0  0  0
  143.1098   78.3200  221.7437 H   0  0  0  0  0  0  0  0  0  0  0  0
  140.5223   75.3293  220.9294 H   0  0  0  0  0  0  0  0  0  0  0  0
  142.9351   73.8756  219.7062 H   0  0  0  0  0  0  0  0  0  0  0  0
  142.9178   74.3285  221.4148 H   0  0  0  0  0  0  0  0  0  0  0  0
  143.8924   76.1182  219.9385 H   0  0  0  0  0  0  0  0  0  0  0  0
  142.3852   76.6591  220.8155 H   0  0  0  0  0  0  0  0  0  0  0  0
  142.8359   76.0014  217.9665 H   0  0  0  0  0  0  0  0  0  0  0  0
  140.1420   77.8160  219.7460 H   0  0  0  0  0  0  0  0  0  0  0  0
  141.3790   80.3549  220.0717 H   0  0  0  0  0  0  0  0  0  0  0  0
  140.8509   80.3266  218.3619 H   0  0  0  0  0  0  0  0  0  0  0  0
  139.6933   82.1867  220.5244 H   0  0  0  0  0  0  0  0  0  0  0  0
  137.3063   82.5444  221.2131 H   0  0  0  0  0  0  0  0  0  0  0  0
  135.6597   80.7490  220.8592 H   0  0  0  0  0  0  0  0  0  0  0  0
  136.2961   78.5875  219.8205 H   0  0  0  0  0  0  0  0  0  0  0  0
  140.6965   75.8303  217.3459 H   0  0  0  0  0  0  0  0  0  0  0  0
  140.0899   76.4861  218.9436 H   0  0  0  0  0  0  0  0  0  0  0  0
  141.2652   73.7373  218.4188 H   0  0  0  0  0  0  0  0  0  0  0  0
  139.5780   74.1180  218.8185 H   0  0  0  0  0  0  0  0  0  0  0  0
  1  2  1  0
  2  3  1  0
  3  4  1  0
  4  5  1  0
  5  6  1  0
  6  7  2  0
  6  8  1  0
  8  9  2  0
  9 10  1  0
 10 11  2  0
 11 12  1  0
 12 13  2  0
 13 14  1  0
 13 15  1  0
 15 16  2  0
 16 17  1  0
 17 18  2  0
  2 19  1  0
 19 20  2  0
 19 21  1  0
 21 22  1  0
 22 23  1  0
 23 24  1  0
 24 25  1  0
 25 26  2  0
 25 27  1  0
 27 28  1  0
 28 29  1  0
 29 30  2  0
 30 31  1  0
 31 32  2  0
 32 33  1  0
 33 34  2  0
 24 35  1  0
 35 36  1  0
 18  8  1  0
 36 21  1  0
 17 11  1  0
 34 29  1  0
  1 37  1  0
  1 38  1  0
  1 39  1  0
  3 40  1  0
  3 41  1  0
  4 42  1  0
  4 43  1  0
  5 44  1  0
  9 45  1  0
 10 46  1  0
 12 47  1  0
 15 48  1  0
 16 49  1  0
 21 50  1  1
 22 51  1  0
 22 52  1  0
 23 53  1  0
 23 54  1  0
 24 55  1  6
 27 56  1  0
 28 57  1  0
 28 58  1  0
 30 59  1  0
 31 60  1  0
 32 61  1  0
 33 62  1  0
 35 63  1  0
 35 64  1  0
 36 65  1  0
 36 66  1  0
M  END
>  <smiles>  (37) 
CN(CCNC(=O)c1ccc2cc(F)ccc2n1)C(=O)[C@H]1CC[C@H](C(=O)NCc2ccccn2)CC1

>  <score_type>  (37) 
oracle

>  <origin>  (37) 
autodockgpu

>  <m_score__min__energy>  (37) 
-8.8699999999999992

>  <m_primary>  (37) 
energy

>  <rmsd>  (37) 
6.27544190757019

>  <m_score__min__rmsd>  (37) 
6.27544190757019

>  <meeko>  (37) 
{"free_energy": -5.07, "intermolecular_energy": -7.76, "internal_energy": -5.95, "cluster_size": 10, "cluster_id": 13, "rank_in_cluster": 9}

>  <energy>  (37) 
-5.8

>  <cluster_rmsd>  (37) 
1.56

>  <cluster>  (37) 
13

$$$$

     RDKit          3D

 66 69  0  0  0  0  0  0  0  0999 V2000
  138.1550   76.3890  223.0660 C   0  0  0  0  0  0  0  0  0  0  0  0
  138.7110   75.6260  221.9880 N   0  0  0  0  0  0  0  0  0  0  0  0
  137.7550   74.9150  221.1300 C   0  0  0  0  0  0  0  0  0  0  0  0
  138.2560   73.5000  220.8850 C   0  0  0  0  0  0  0  0  0  0  0  0
  138.6680   72.9760  222.1810 N   0  0  0  0  0  0  0  0  0  0  0  0
  138.7500   71.5590  222.2910 C   0  0  0  0  0  0  0  0  0  0  0  0
  138.4520   70.9140  221.2280 O   0  0  0  0  0  0  0  0  0  0  0  0
  139.1450   70.8890  223.5210 C   0  0  0  0  0  0  0  0  0  0  0  0
  138.8750   69.5310  223.6190 C   0  0  0  0  0  0  0  0  0  0  0  0
  139.2240   68.8320  224.7700 C   0  0  0  0  0  0  0  0  0  0  0  0
  139.8310   69.5400  225.7640 C   0  0  0  0  0  0  0  0  0  0  0  0
  140.1840   68.8440  226.9210 C   0  0  0  0  0  0  0  0  0  0  0  0
  140.8070   69.5460  227.9580 C   0  0  0  0  0  0  0  0  0  0  0  0
  141.1600   68.8910  229.0910 F   0  0  0  0  0  0  0  0  0  0  0  0
  141.0680   70.9050  227.8340 C   0  0  0  0  0  0  0  0  0  0  0  0
  140.7160   71.5890  226.6870 C   0  0  0  0  0  0  0  0  0  0  0  0
  140.1020   70.8900  225.6710 C   0  0  0  0  0  0  0  0  0  0  0  0
  139.7480   71.5290  224.5400 N   0  0  0  0  0  0  0  0  0  0  0  0
  140.0730   75.4930  221.6710 C   0  0  0  0  0  0  0  0  0  0  0  0
  140.7040   74.5470  222.2950 O   0  0  0  0  0  0  0  0  0  0  0  0
  140.8700   76.2750  220.7390 C   0  0  1  0  0  0  0  0  0  0  0  0
  141.3250   77.6290  221.2370 C   0  0  0  0  0  0  0  0  0  0  0  0
  141.5880   78.4500  219.9900 C   0  0  0  0  0  0  0  0  0  0  0  0
  142.5410   77.8000  219.0440 C   0  0  2  0  0  0  0  0  0  0  0  0
  142.2960   78.3610  217.6890 C   0  0  0  0  0  0  0  0  0  0  0  0
  142.1420   77.6240  216.6710 O   0  0  0  0  0  0  0  0  0  0  0  0
  142.2400   79.7780  217.5820 N   0  0  0  0  0  0  0  0  0  0  0  0
  142.0000   80.4170  216.2790 C   0  0  0  0  0  0  0  0  0  0  0  0
  142.7550   81.7120  216.2350 C   0  0  0  0  0  0  0  0  0  0  0  0
  143.0020   82.3430  215.0120 C   0  0  0  0  0  0  0  0  0  0  0  0
  143.7040   83.5350  215.0410 C   0  0  0  0  0  0  0  0  0  0  0  0
  144.1250   84.0430  216.2500 C   0  0  0  0  0  0  0  0  0  0  0  0
  143.8730   83.4090  217.4500 C   0  0  0  0  0  0  0  0  0  0  0  0
  143.1840   82.2410  217.4030 N   0  0  0  0  0  0  0  0  0  0  0  0
  142.4810   76.3140  218.9360 C   0  0  0  0  0  0  0  0  0  0  0  0
  142.1280   75.6190  220.2280 C   0  0  0  0  0  0  0  0  0  0  0  0
  138.4722   75.9537  224.0251 H   0  0  0  0  0  0  0  0  0  0  0  0
  138.5089   77.4284  223.0002 H   0  0  0  0  0  0  0  0  0  0  0  0
  137.0571   76.3706  223.0002 H   0  0  0  0  0  0  0  0  0  0  0  0
  136.7739   74.8768  221.6259 H   0  0  0  0  0  0  0  0  0  0  0  0
  137.6577   75.4431  220.1700 H   0  0  0  0  0  0  0  0  0  0  0  0
  137.4515   72.8799  220.4628 H   0  0  0  0  0  0  0  0  0  0  0  0
  139.0913   73.4924  220.1694 H   0  0  0  0  0  0  0  0  0  0  0  0
  138.8940   73.5850  222.9990 H   0  0  0  0  0  0  0  0  0  0  0  0
  138.3845   69.0069  222.7855 H   0  0  0  0  0  0  0  0  0  0  0  0
  139.0193   67.7562  224.8733 H   0  0  0  0  0  0  0  0  0  0  0  0
  139.9770   67.7678  227.0153 H   0  0  0  0  0  0  0  0  0  0  0  0
  141.5603   71.4419  228.6582 H   0  0  0  0  0  0  0  0  0  0  0  0
  140.9208   72.6651  226.5872 H   0  0  0  0  0  0  0  0  0  0  0  0
  140.1239   76.3737  219.9368 H   0  0  0  0  0  0  0  0  0  0  0  0
  142.2438   77.5306  221.8337 H   0  0  0  0  0  0  0  0  0  0  0  0
  140.5717   78.1003  221.8853 H   0  0  0  0  0  0  0  0  0  0  0  0
  142.0056   79.4213  220.2935 H   0  0  0  0  0  0  0  0  0  0  0  0
  140.6285   78.5570  219.4628 H   0  0  0  0  0  0  0  0  0  0  0  0
  143.5373   78.0167  219.4568 H   0  0  0  0  0  0  0  0  0  0  0  0
  142.3700   80.3880  218.4310 H   0  0  0  0  0  0  0  0  0  0  0  0
  142.3500   79.7563  215.4722 H   0  0  0  0  0  0  0  0  0  0  0  0
  140.9244   80.6043  216.1447 H   0  0  0  0  0  0  0  0  0  0  0  0
  142.6519   81.9088  214.0639 H   0  0  0  0  0  0  0  0  0  0  0  0
  143.9239   84.0722  214.1066 H   0  0  0  0  0  0  0  0  0  0  0  0
  144.6836   84.9905  216.2597 H   0  0  0  0  0  0  0  0  0  0  0  0
  144.2166   83.8332  218.4050 H   0  0  0  0  0  0  0  0  0  0  0  0
  143.4655   75.9511  218.6057 H   0  0  0  0  0  0  0  0  0  0  0  0
  141.6807   76.0789  218.2189 H   0  0  0  0  0  0  0  0  0  0  0  0
  142.9420   75.7384  220.9581 H   0  0  0  0  0  0  0  0  0  0  0  0
  141.9779   74.5407  220.0708 H   0  0  0  0  0  0  0  0  0  0  0  0
  1  2  1  0
  2  3  1  0
  3  4  1  0
  4  5  1  0
  5  6  1  0
  6  7  2  0
  6  8  1  0
  8  9  2  0
  9 10  1  0
 10 11  2  0
 11 12  1  0
 12 13  2  0
 13 14  1  0
 13 15  1  0
 15 16  2  0
 16 17  1  0
 17 18  2  0
  2 19  1  0
 19 20  2  0
 19 21  1  0
 21 22  1  0
 22 23  1  0
 23 24  1  0
 24 25  1  0
 25 26  2  0
 25 27  1  0
 27 28  1  0
 28 29  1  0
 29 30  2  0
 30 31  1  0
 31 32  2  0
 32 33  1  0
 33 34  2  0
 24 35  1  0
 35 36  1  0
 18  8  1  0
 36 21  1  0
 17 11  1  0
 34 29  1  0
  1 37  1  0
  1 38  1  0
  1 39  1  0
  3 40  1  0
  3 41  1  0
  4 42  1  0
  4 43  1  0
  5 44  1  0
  9 45  1  0
 10 46  1  0
 12 47  1  0
 15 48  1  0
 16 49  1  0
 21 50  1  6
 22 51  1  0
 22 52  1  0
 23 53  1  0
 23 54  1  0
 24 55  1  1
 27 56  1  0
 28 57  1  0
 28 58  1  0
 30 59  1  0
 31 60  1  0
 32 61  1  0
 33 62  1  0
 35 63  1  0
 35 64  1  0
 36 65  1  0
 36 66  1  0
M  END
>  <smiles>  (38) 
CN(CCNC(=O)c1ccc2cc(F)ccc2n1)C(=O)[C@H]1CC[C@H](C(=O)NCc2ccccn2)CC1

>  <score_type>  (38) 
oracle

>  <origin>  (38) 
autodockgpu

>  <m_score__min__energy>  (38) 
-8.8699999999999992

>  <m_primary>  (38) 
energy

>  <rmsd>  (38) 
9.806056537680723

>  <m_score__min__rmsd>  (38) 
9.806056537680723

>  <meeko>  (38) 
{"free_energy": -7.7, "intermolecular_energy": -10.38, "internal_energy": -2.83, "cluster_size": 2, "cluster_id": 4, "rank_in_cluster": 2}

>  <energy>  (38) 
-5.77

>  <cluster_rmsd>  (38) 
1.6

>  <cluster>  (38) 
13

$$$$

     RDKit          3D

 66 69  0  0  0  0  0  0  0  0999 V2000
  138.1590   72.7650  219.4110 C   0  0  0  0  0  0  0  0  0  0  0  0
  138.4530   73.1540  220.7590 N   0  0  0  0  0  0  0  0  0  0  0  0
  137.3690   72.9910  221.7370 C   0  0  0  0  0  0  0  0  0  0  0  0
  136.6370   74.3130  221.9010 C   0  0  0  0  0  0  0  0  0  0  0  0
  137.6150   75.2670  222.4090 N   0  0  0  0  0  0  0  0  0  0  0  0
  137.3710   76.6390  222.1130 C   0  0  0  0  0  0  0  0  0  0  0  0
  136.3120   76.8670  221.4330 O   0  0  0  0  0  0  0  0  0  0  0  0
  138.2570   77.7060  222.5520 C   0  0  0  0  0  0  0  0  0  0  0  0
  137.6660   78.8880  222.9770 C   0  0  0  0  0  0  0  0  0  0  0  0
  138.4570   79.9490  223.4050 C   0  0  0  0  0  0  0  0  0  0  0  0
  139.8070   79.7620  223.3840 C   0  0  0  0  0  0  0  0  0  0  0  0
  140.6060   80.8230  223.8130 C   0  0  0  0  0  0  0  0  0  0  0  0
  141.9950   80.6590  223.8010 C   0  0  0  0  0  0  0  0  0  0  0  0
  142.7920   81.6750  224.2130 F   0  0  0  0  0  0  0  0  0  0  0  0
  142.5620   79.4650  223.3710 C   0  0  0  0  0  0  0  0  0  0  0  0
  141.7670   78.4190  222.9480 C   0  0  0  0  0  0  0  0  0  0  0  0
  140.4000   78.5880  222.9620 C   0  0  0  0  0  0  0  0  0  0  0  0
  139.5970   77.5870  222.5560 N   0  0  0  0  0  0  0  0  0  0  0  0
  139.6680   73.6730  221.2350 C   0  0  0  0  0  0  0  0  0  0  0  0
  139.9120   73.4680  222.4910 O   0  0  0  0  0  0  0  0  0  0  0  0
  140.6880   74.4110  220.5050 C   0  0  1  0  0  0  0  0  0  0  0  0
  141.6570   75.2070  221.3530 C   0  0  0  0  0  0  0  0  0  0  0  0
  142.1950   76.2900  220.4400 C   0  0  0  0  0  0  0  0  0  0  0  0
  142.7870   75.7600  219.1780 C   0  0  2  0  0  0  0  0  0  0  0  0
  142.7540   76.8470  218.1630 C   0  0  0  0  0  0  0  0  0  0  0  0
  143.1900   76.6850  216.9860 O   0  0  0  0  0  0  0  0  0  0  0  0
  142.2020   78.0920  218.5760 N   0  0  0  0  0  0  0  0  0  0  0  0
  142.1280   79.2210  217.6360 C   0  0  0  0  0  0  0  0  0  0  0  0
  141.8530   80.4720  218.4130 C   0  0  0  0  0  0  0  0  0  0  0  0
  141.9420   81.7220  217.7920 C   0  0  0  0  0  0  0  0  0  0  0  0
  141.6760   82.8380  218.5660 C   0  0  0  0  0  0  0  0  0  0  0  0
  141.3420   82.6780  219.8920 C   0  0  0  0  0  0  0  0  0  0  0  0
  141.2570   81.4380  220.4920 C   0  0  0  0  0  0  0  0  0  0  0  0
  141.5210   80.3540  219.7190 N   0  0  0  0  0  0  0  0  0  0  0  0
  142.1370   74.5600  218.5750 C   0  0  0  0  0  0  0  0  0  0  0  0
  141.5680   73.5980  219.5890 C   0  0  0  0  0  0  0  0  0  0  0  0
  137.4958   71.8875  219.4190 H   0  0  0  0  0  0  0  0  0  0  0  0
  137.6613   73.5961  218.8898 H   0  0  0  0  0  0  0  0  0  0  0  0
  139.0943   72.5130  218.8898 H   0  0  0  0  0  0  0  0  0  0  0  0
  136.6659   72.2233  221.3816 H   0  0  0  0  0  0  0  0  0  0  0  0
  137.7896   72.6803  222.7048 H   0  0  0  0  0  0  0  0  0  0  0  0
  136.2432   74.6522  220.9315 H   0  0  0  0  0  0  0  0  0  0  0  0
  135.7843   74.2131  222.5886 H   0  0  0  0  0  0  0  0  0  0  0  0
  138.4560   74.9870  222.9600 H   0  0  0  0  0  0  0  0  0  0  0  0
  136.5703   78.9857  222.9753 H   0  0  0  0  0  0  0  0  0  0  0  0
  138.0131   80.8963  223.7451 H   0  0  0  0  0  0  0  0  0  0  0  0
  140.1537   81.7664  224.1527 H   0  0  0  0  0  0  0  0  0  0  0  0
  143.6562   79.3525  223.3678 H   0  0  0  0  0  0  0  0  0  0  0  0
  142.2142   77.4733  222.6079 H   0  0  0  0  0  0  0  0  0  0  0  0
  140.0243   75.0717  219.9280 H   0  0  0  0  0  0  0  0  0  0  0  0
  142.4745   74.5634  221.7100 H   0  0  0  0  0  0  0  0  0  0  0  0
  141.1696   75.6284  222.2446 H   0  0  0  0  0  0  0  0  0  0  0  0
  142.9722   76.8488  220.9820 H   0  0  0  0  0  0  0  0  0  0  0  0
  141.3450   76.9284  220.1572 H   0  0  0  0  0  0  0  0  0  0  0  0
  143.7964   75.4272  219.4617 H   0  0  0  0  0  0  0  0  0  0  0  0
  141.8400   78.2220  219.5570 H   0  0  0  0  0  0  0  0  0  0  0  0
  143.0834   79.3201  217.0998 H   0  0  0  0  0  0  0  0  0  0  0  0
  141.3251   79.0488  216.9041 H   0  0  0  0  0  0  0  0  0  0  0  0
  142.2129   81.8145  216.7299 H   0  0  0  0  0  0  0  0  0  0  0  0
  141.7310   83.8444  218.1254 H   0  0  0  0  0  0  0  0  0  0  0  0
  141.1348   83.5732  220.4967 H   0  0  0  0  0  0  0  0  0  0  0  0
  140.9865   81.3326  221.5530 H   0  0  0  0  0  0  0  0  0  0  0  0
  142.8869   74.0255  217.9734 H   0  0  0  0  0  0  0  0  0  0  0  0
  141.2925   74.9239  217.9714 H   0  0  0  0  0  0  0  0  0  0  0  0
  142.3797   73.1261  220.1622 H   0  0  0  0  0  0  0  0  0  0  0  0
  140.9974   72.7954  219.0989 H   0  0  0  0  0  0  0  0  0  0  0  0
  1  2  1  0
  2  3  1  0
  3  4  1  0
  4  5  1  0
  5  6  1  0
  6  7  2  0
  6  8  1  0
  8  9  2  0
  9 10  1  0
 10 11  2  0
 11 12  1  0
 12 13  2  0
 13 14  1  0
 13 15  1  0
 15 16  2  0
 16 17  1  0
 17 18  2  0
  2 19  1  0
 19 20  2  0
 19 21  1  0
 21 22  1  0
 22 23  1  0
 23 24  1  0
 24 25  1  0
 25 26  2  0
 25 27  1  0
 27 28  1  0
 28 29  1  0
 29 30  2  0
 30 31  1  0
 31 32  2  0
 32 33  1  0
 33 34  2  0
 24 35  1  0
 35 36  1  0
 18  8  1  0
 36 21  1  0
 17 11  1  0
 34 29  1  0
  1 37  1  0
  1 38  1  0
  1 39  1  0
  3 40  1  0
  3 41  1  0
  4 42  1  0
  4 43  1  0
  5 44  1  0
  9 45  1  0
 10 46  1  0
 12 47  1  0
 15 48  1  0
 16 49  1  0
 21 50  1  6
 22 51  1  0
 22 52  1  0
 23 53  1  0
 23 54  1  0
 24 55  1  1
 27 56  1  0
 28 57  1  0
 28 58  1  0
 30 59  1  0
 31 60  1  0
 32 61  1  0
 33 62  1  0
 35 63  1  0
 35 64  1  0
 36 65  1  0
 36 66  1  0
M  END
>  <smiles>  (39) 
CN(CCNC(=O)c1ccc2cc(F)ccc2n1)C(=O)[C@H]1CC[C@H](C(=O)NCc2ccccn2)CC1

>  <score_type>  (39) 
oracle

>  <origin>  (39) 
autodockgpu

>  <m_score__min__energy>  (39) 
-8.8699999999999992

>  <m_primary>  (39) 
energy

>  <rmsd>  (39) 
6.171122943638251

>  <m_score__min__rmsd>  (39) 
6.171122943638251

>  <meeko>  (39) 
{"free_energy": -6.35, "intermolecular_energy": -9.04, "internal_energy": -4.29, "cluster_size": 10, "cluster_id": 13, "rank_in_cluster": 3}

>  <energy>  (39) 
-5.77

>  <cluster_rmsd>  (39) 
1.56

>  <cluster>  (39) 
13

$$$$

     RDKit          3D

 66 69  0  0  0  0  0  0  0  0999 V2000
  141.0880   70.6570  220.1380 C   0  0  0  0  0  0  0  0  0  0  0  0
  140.4430   71.6000  221.0040 N   0  0  0  0  0  0  0  0  0  0  0  0
  139.1540   71.1870  221.5750 C   0  0  0  0  0  0  0  0  0  0  0  0
  138.0830   72.1870  221.1720 C   0  0  0  0  0  0  0  0  0  0  0  0
  138.3570   73.4100  221.9170 N   0  0  0  0  0  0  0  0  0  0  0  0
  138.0890   74.6340  221.2410 C   0  0  0  0  0  0  0  0  0  0  0  0
  137.6340   74.5100  220.0530 O   0  0  0  0  0  0  0  0  0  0  0  0
  138.3130   75.9340  221.8540 C   0  0  0  0  0  0  0  0  0  0  0  0
  139.6290   76.2990  222.1040 C   0  0  0  0  0  0  0  0  0  0  0  0
  139.9120   77.5290  222.6920 C   0  0  0  0  0  0  0  0  0  0  0  0
  138.8510   78.3280  222.9970 C   0  0  0  0  0  0  0  0  0  0  0  0
  139.1280   79.5620  223.5870 C   0  0  0  0  0  0  0  0  0  0  0  0
  138.0580   80.4020  223.9110 C   0  0  0  0  0  0  0  0  0  0  0  0
  138.3030   81.6060  224.4840 F   0  0  0  0  0  0  0  0  0  0  0  0
  136.7500   80.0120  223.6500 C   0  0  0  0  0  0  0  0  0  0  0  0
  136.4810   78.7900  223.0670 C   0  0  0  0  0  0  0  0  0  0  0  0
  137.5410   77.9690  222.7500 C   0  0  0  0  0  0  0  0  0  0  0  0
  137.3110   76.7710  222.1810 N   0  0  0  0  0  0  0  0  0  0  0  0
  140.9190   72.8730  221.3590 C   0  0  0  0  0  0  0  0  0  0  0  0
  140.8870   73.1500  222.6240 O   0  0  0  0  0  0  0  0  0  0  0  0
  141.4420   73.9200  220.4960 C   0  0  1  0  0  0  0  0  0  0  0  0
  142.9410   74.1170  220.5330 C   0  0  0  0  0  0  0  0  0  0  0  0
  143.1730   75.5410  220.0680 C   0  0  0  0  0  0  0  0  0  0  0  0
  142.5550   75.8390  218.7440 C   0  0  2  0  0  0  0  0  0  0  0  0
  142.3470   77.3090  218.6560 C   0  0  0  0  0  0  0  0  0  0  0  0
  142.4300   77.9380  217.5600 O   0  0  0  0  0  0  0  0  0  0  0  0
  142.0440   77.9880  219.8690 N   0  0  0  0  0  0  0  0  0  0  0  0
  141.8210   79.4410  219.8720 C   0  0  0  0  0  0  0  0  0  0  0  0
  141.9680   79.9440  221.2770 C   0  0  0  0  0  0  0  0  0  0  0  0
  141.6570   81.2710  221.5870 C   0  0  0  0  0  0  0  0  0  0  0  0
  141.8140   81.6720  222.9020 C   0  0  0  0  0  0  0  0  0  0  0  0
  142.2620   80.7650  223.8370 C   0  0  0  0  0  0  0  0  0  0  0  0
  142.5640   79.4570  223.5170 C   0  0  0  0  0  0  0  0  0  0  0  0
  142.4050   79.0810  222.2220 N   0  0  0  0  0  0  0  0  0  0  0  0
  141.2530   75.1790  218.4390 C   0  0  0  0  0  0  0  0  0  0  0  0
  141.1140   73.7970  219.0290 C   0  0  0  0  0  0  0  0  0  0  0  0
  141.6066   69.8987  220.7430 H   0  0  0  0  0  0  0  0  0  0  0  0
  140.3348   70.1673  219.5033 H   0  0  0  0  0  0  0  0  0  0  0  0
  141.8174   71.1814  219.5033 H   0  0  0  0  0  0  0  0  0  0  0  0
  138.8868   70.1896  221.1959 H   0  0  0  0  0  0  0  0  0  0  0  0
  139.2311   71.1514  222.6717 H   0  0  0  0  0  0  0  0  0  0  0  0
  138.1325   72.3817  220.0905 H   0  0  0  0  0  0  0  0  0  0  0  0
  137.0764   71.8030  221.3942 H   0  0  0  0  0  0  0  0  0  0  0  0
  138.7300   73.4150  222.8920 H   0  0  0  0  0  0  0  0  0  0  0  0
  140.4488   75.6158  221.8373 H   0  0  0  0  0  0  0  0  0  0  0  0
  140.9457   77.8418  222.9010 H   0  0  0  0  0  0  0  0  0  0  0  0
  140.1647   79.8670  223.7926 H   0  0  0  0  0  0  0  0  0  0  0  0
  135.9196   80.6846  223.9109 H   0  0  0  0  0  0  0  0  0  0  0  0
  135.4461   78.4795  222.8607 H   0  0  0  0  0  0  0  0  0  0  0  0
  140.9154   74.7739  220.9472 H   0  0  0  0  0  0  0  0  0  0  0  0
  143.4391   73.4059  219.8576 H   0  0  0  0  0  0  0  0  0  0  0  0
  143.3510   73.9439  221.5389 H   0  0  0  0  0  0  0  0  0  0  0  0
  144.2572   75.7112  219.9931 H   0  0  0  0  0  0  0  0  0  0  0  0
  142.6982   76.2051  220.8052 H   0  0  0  0  0  0  0  0  0  0  0  0
  143.2618   75.4304  218.0068 H   0  0  0  0  0  0  0  0  0  0  0  0
  141.9770   77.4610  220.7790 H   0  0  0  0  0  0  0  0  0  0  0  0
  142.5620   79.9311  219.2234 H   0  0  0  0  0  0  0  0  0  0  0  0
  140.8127   79.6675  219.4950 H   0  0  0  0  0  0  0  0  0  0  0  0
  141.3012   81.9696  220.8154 H   0  0  0  0  0  0  0  0  0  0  0  0
  141.5831   82.7059  223.1981 H   0  0  0  0  0  0  0  0  0  0  0  0
  142.3837   81.0961  224.8789 H   0  0  0  0  0  0  0  0  0  0  0  0
  142.9189   78.7482  224.2796 H   0  0  0  0  0  0  0  0  0  0  0  0
  141.1521   75.1007  217.3464 H   0  0  0  0  0  0  0  0  0  0  0  0
  140.4666   75.8001  218.8928 H   0  0  0  0  0  0  0  0  0  0  0  0
  141.8142   73.1035  218.5404 H   0  0  0  0  0  0  0  0  0  0  0  0
  140.0977   73.4029  218.8814 H   0  0  0  0  0  0  0  0  0  0  0  0
  1  2  1  0
  2  3  1  0
  3  4  1  0
  4  5  1  0
  5  6  1  0
  6  7  2  0
  6  8  1  0
  8  9  2  0
  9 10  1  0
 10 11  2  0
 11 12  1  0
 12 13  2  0
 13 14  1  0
 13 15  1  0
 15 16  2  0
 16 17  1  0
 17 18  2  0
  2 19  1  0
 19 20  2  0
 19 21  1  0
 21 22  1  0
 22 23  1  0
 23 24  1  0
 24 25  1  0
 25 26  2  0
 25 27  1  0
 27 28  1  0
 28 29  1  0
 29 30  2  0
 30 31  1  0
 31 32  2  0
 32 33  1  0
 33 34  2  0
 24 35  1  0
 35 36  1  0
 18  8  1  0
 36 21  1  0
 17 11  1  0
 34 29  1  0
  1 37  1  0
  1 38  1  0
  1 39  1  0
  3 40  1  0
  3 41  1  0
  4 42  1  0
  4 43  1  0
  5 44  1  0
  9 45  1  0
 10 46  1  0
 12 47  1  0
 15 48  1  0
 16 49  1  0
 21 50  1  1
 22 51  1  0
 22 52  1  0
 23 53  1  0
 23 54  1  0
 24 55  1  6
 27 56  1  0
 28 57  1  0
 28 58  1  0
 30 59  1  0
 31 60  1  0
 32 61  1  0
 33 62  1  0
 35 63  1  0
 35 64  1  0
 36 65  1  0
 36 66  1  0
M  END
>  <smiles>  (40) 
CN(CCNC(=O)c1ccc2cc(F)ccc2n1)C(=O)[C@H]1CC[C@H](C(=O)NCc2ccccn2)CC1

>  <score_type>  (40) 
oracle

>  <origin>  (40) 
autodockgpu

>  <m_score__min__energy>  (40) 
-8.8699999999999992

>  <m_primary>  (40) 
energy

>  <rmsd>  (40) 
6.371989461333771

>  <m_score__min__rmsd>  (40) 
6.371989461333771

>  <meeko>  (40) 
{"free_energy": -6.32, "intermolecular_energy": -9.0, "internal_energy": -4.35, "cluster_size": 10, "cluster_id": 13, "rank_in_cluster": 4}

>  <energy>  (40) 
-5.3

>  <cluster_rmsd>  (40) 
1.77

>  <cluster>  (40) 
13

$$$$

     RDKit          3D

 66 69  0  0  0  0  0  0  0  0999 V2000
  141.6060   72.7700  220.9640 C   0  0  0  0  0  0  0  0  0  0  0  0
  140.6200   73.7750  220.6930 N   0  0  0  0  0  0  0  0  0  0  0  0
  139.4910   73.3700  219.8450 C   0  0  0  0  0  0  0  0  0  0  0  0
  138.2980   73.0330  220.7260 C   0  0  0  0  0  0  0  0  0  0  0  0
  138.8290   72.7610  222.0560 N   0  0  0  0  0  0  0  0  0  0  0  0
  138.9840   71.3890  222.4050 C   0  0  0  0  0  0  0  0  0  0  0  0
  138.6370   70.5560  221.4990 O   0  0  0  0  0  0  0  0  0  0  0  0
  139.5000   70.9620  223.6960 C   0  0  0  0  0  0  0  0  0  0  0  0
  140.3130   71.8540  224.3820 C   0  0  0  0  0  0  0  0  0  0  0  0
  140.8420   71.5050  225.6210 C   0  0  0  0  0  0  0  0  0  0  0  0
  140.5230   70.2720  226.1050 C   0  0  0  0  0  0  0  0  0  0  0  0
  141.0500   69.9170  227.3480 C   0  0  0  0  0  0  0  0  0  0  0  0
  140.7390   68.6570  227.8690 C   0  0  0  0  0  0  0  0  0  0  0  0
  141.2390   68.2890  229.0740 F   0  0  0  0  0  0  0  0  0  0  0  0
  139.9220   67.7820  227.1620 C   0  0  0  0  0  0  0  0  0  0  0  0
  139.4030   68.1390  225.9340 C   0  0  0  0  0  0  0  0  0  0  0  0
  139.7140   69.3820  225.4270 C   0  0  0  0  0  0  0  0  0  0  0  0
  139.2240   69.7590  224.2320 N   0  0  0  0  0  0  0  0  0  0  0  0
  140.6270   75.1010  221.1550 C   0  0  0  0  0  0  0  0  0  0  0  0
  140.1540   75.2810  222.3480 O   0  0  0  0  0  0  0  0  0  0  0  0
  141.0940   76.2980  220.4730 C   0  0  1  0  0  0  0  0  0  0  0  0
  141.2350   77.5340  221.3350 C   0  0  0  0  0  0  0  0  0  0  0  0
  141.1460   78.7050  220.3780 C   0  0  0  0  0  0  0  0  0  0  0  0
  142.1300   78.6310  219.2590 C   0  0  2  0  0  0  0  0  0  0  0  0
  141.6080   79.4520  218.1340 C   0  0  0  0  0  0  0  0  0  0  0  0
  140.3700   79.5580  217.8930 O   0  0  0  0  0  0  0  0  0  0  0  0
  142.5710   80.1250  217.3310 N   0  0  0  0  0  0  0  0  0  0  0  0
  142.1420   80.9610  216.1990 C   0  0  0  0  0  0  0  0  0  0  0  0
  142.8180   82.2940  216.3070 C   0  0  0  0  0  0  0  0  0  0  0  0
  142.4850   83.3270  215.4250 C   0  0  0  0  0  0  0  0  0  0  0  0
  143.1460   84.5330  215.5770 C   0  0  0  0  0  0  0  0  0  0  0  0
  144.0880   84.6670  216.5730 C   0  0  0  0  0  0  0  0  0  0  0  0
  144.4060   83.6390  217.4370 C   0  0  0  0  0  0  0  0  0  0  0  0
  143.7490   82.4630  217.2730 N   0  0  0  0  0  0  0  0  0  0  0  0
  142.4430   77.2760  218.7200 C   0  0  0  0  0  0  0  0  0  0  0  0
  142.4180   76.1830  219.7600 C   0  0  0  0  0  0  0  0  0  0  0  0
  141.7209   72.6529  222.0517 H   0  0  0  0  0  0  0  0  0  0  0  0
  141.2857   71.8140  220.5241 H   0  0  0  0  0  0  0  0  0  0  0  0
  142.5679   73.0720  220.5241 H   0  0  0  0  0  0  0  0  0  0  0  0
  139.2261   74.1947  219.1669 H   0  0  0  0  0  0  0  0  0  0  0  0
  139.7728   72.4875  219.2519 H   0  0  0  0  0  0  0  0  0  0  0  0
  137.6002   73.8825  220.7619 H   0  0  0  0  0  0  0  0  0  0  0  0
  137.7459   72.1664  220.3334 H   0  0  0  0  0  0  0  0  0  0  0  0
  139.0880   73.5120  222.7330 H   0  0  0  0  0  0  0  0  0  0  0  0
  140.5394   72.8380  223.9456 H   0  0  0  0  0  0  0  0  0  0  0  0
  141.4887   72.1938  226.1843 H   0  0  0  0  0  0  0  0  0  0  0  0
  141.6951   70.6124  227.9049 H   0  0  0  0  0  0  0  0  0  0  0  0
  139.6867   66.7946  227.5859 H   0  0  0  0  0  0  0  0  0  0  0  0
  138.7565   67.4478  225.3734 H   0  0  0  0  0  0  0  0  0  0  0  0
  140.2679   76.4028  219.7542 H   0  0  0  0  0  0  0  0  0  0  0  0
  142.2055   77.5332  221.8529 H   0  0  0  0  0  0  0  0  0  0  0  0
  140.4580   77.5812  222.1122 H   0  0  0  0  0  0  0  0  0  0  0  0
  141.3286   79.6314  220.9424 H   0  0  0  0  0  0  0  0  0  0  0  0
  140.1417   78.6828  219.9297 H   0  0  0  0  0  0  0  0  0  0  0  0
  143.0740   78.9928  219.6926 H   0  0  0  0  0  0  0  0  0  0  0  0
  143.6010   80.0340  217.5340 H   0  0  0  0  0  0  0  0  0  0  0  0
  142.4253   80.4773  215.2526 H   0  0  0  0  0  0  0  0  0  0  0  0
  141.0498   81.0904  216.2196 H   0  0  0  0  0  0  0  0  0  0  0  0
  141.7268   83.1861  214.6406 H   0  0  0  0  0  0  0  0  0  0  0  0
  142.9213   85.3771  214.9085 H   0  0  0  0  0  0  0  0  0  0  0  0
  144.6068   85.6306  216.6840 H   0  0  0  0  0  0  0  0  0  0  0  0
  145.1612   83.7676  218.2264 H   0  0  0  0  0  0  0  0  0  0  0  0
  143.4473   77.3050  218.2722 H   0  0  0  0  0  0  0  0  0  0  0  0
  141.6598   77.0359  217.9859 H   0  0  0  0  0  0  0  0  0  0  0  0
  143.2456   76.3174  220.4720 H   0  0  0  0  0  0  0  0  0  0  0  0
  142.5350   75.1919  219.2973 H   0  0  0  0  0  0  0  0  0  0  0  0
  1  2  1  0
  2  3  1  0
  3  4  1  0
  4  5  1  0
  5  6  1  0
  6  7  2  0
  6  8  1  0
  8  9  2  0
  9 10  1  0
 10 11  2  0
 11 12  1  0
 12 13  2  0
 13 14  1  0
 13 15  1  0
 15 16  2  0
 16 17  1  0
 17 18  2  0
  2 19  1  0
 19 20  2  0
 19 21  1  0
 21 22  1  0
 22 23  1  0
 23 24  1  0
 24 25  1  0
 25 26  2  0
 25 27  1  0
 27 28  1  0
 28 29  1  0
 29 30  2  0
 30 31  1  0
 31 32  2  0
 32 33  1  0
 33 34  2  0
 24 35  1  0
 35 36  1  0
 18  8  1  0
 36 21  1  0
 17 11  1  0
 34 29  1  0
  1 37  1  0
  1 38  1  0
  1 39  1  0
  3 40  1  0
  3 41  1  0
  4 42  1  0
  4 43  1  0
  5 44  1  0
  9 45  1  0
 10 46  1  0
 12 47  1  0
 15 48  1  0
 16 49  1  0
 21 50  1  6
 22 51  1  0
 22 52  1  0
 23 53  1  0
 23 54  1  0
 24 55  1  1
 27 56  1  0
 28 57  1  0
 28 58  1  0
 30 59  1  0
 31 60  1  0
 32 61  1  0
 33 62  1  0
 35 63  1  0
 35 64  1  0
 36 65  1  0
 36 66  1  0
M  END
>  <smiles>  (41) 
CN(CCNC(=O)c1ccc2cc(F)ccc2n1)C(=O)[C@H]1CC[C@H](C(=O)NCc2ccccn2)CC1

>  <score_type>  (41) 
oracle

>  <origin>  (41) 
autodockgpu

>  <m_score__min__energy>  (41) 
-8.8699999999999992

>  <m_primary>  (41) 
energy

>  <rmsd>  (41) 
10.240717944033477

>  <m_score__min__rmsd>  (41) 
10.240717944033477

>  <meeko>  (41) 
{"free_energy": -8.16, "intermolecular_energy": -10.85, "internal_energy": -2.69, "cluster_size": 2, "cluster_id": 4, "rank_in_cluster": 1}

>  <energy>  (41) 
-5.07

>  <cluster_rmsd>  (41) 
1.77

>  <cluster>  (41) 
13

$$$$

     RDKit          3D

 66 69  0  0  0  0  0  0  0  0999 V2000
  138.5750   78.3900  220.3710 C   0  0  0  0  0  0  0  0  0  0  0  0
  138.9910   77.8560  221.6340 N   0  0  0  0  0  0  0  0  0  0  0  0
  139.9580   78.6580  222.3960 C   0  0  0  0  0  0  0  0  0  0  0  0
  141.1270   79.0230  221.4950 C   0  0  0  0  0  0  0  0  0  0  0  0
  141.8500   77.7850  221.2310 N   0  0  0  0  0  0  0  0  0  0  0  0
  142.1050   77.4810  219.8640 C   0  0  0  0  0  0  0  0  0  0  0  0
  141.6660   78.3430  219.0260 O   0  0  0  0  0  0  0  0  0  0  0  0
  142.8130   76.2820  219.4440 C   0  0  0  0  0  0  0  0  0  0  0  0
  142.9620   76.0770  218.0790 C   0  0  0  0  0  0  0  0  0  0  0  0
  143.6270   74.9480  217.6120 C   0  0  0  0  0  0  0  0  0  0  0  0
  144.1080   74.0820  218.5480 C   0  0  0  0  0  0  0  0  0  0  0  0
  144.7760   72.9460  218.0850 C   0  0  0  0  0  0  0  0  0  0  0  0
  145.2800   72.0400  219.0240 C   0  0  0  0  0  0  0  0  0  0  0  0
  145.9330   70.9310  218.5980 F   0  0  0  0  0  0  0  0  0  0  0  0
  145.1180   72.2690  220.3850 C   0  0  0  0  0  0  0  0  0  0  0  0
  144.4570   73.3930  220.8360 C   0  0  0  0  0  0  0  0  0  0  0  0
  143.9630   74.2810  219.9060 C   0  0  0  0  0  0  0  0  0  0  0  0
  143.3130   75.3860  220.3150 N   0  0  0  0  0  0  0  0  0  0  0  0
  138.5680   76.6490  222.2140 C   0  0  0  0  0  0  0  0  0  0  0  0
  137.6570   76.7560  223.1300 O   0  0  0  0  0  0  0  0  0  0  0  0
  139.0160   75.2960  221.9250 C   0  0  1  0  0  0  0  0  0  0  0  0
  138.3640   74.6260  220.7350 C   0  0  0  0  0  0  0  0  0  0  0  0
  138.5180   73.1380  220.9740 C   0  0  0  0  0  0  0  0  0  0  0  0
  139.9310   72.7190  221.2070 C   0  0  2  0  0  0  0  0  0  0  0  0
  139.9110   71.4380  221.9610 C   0  0  0  0  0  0  0  0  0  0  0  0
  140.0110   70.3150  221.3850 O   0  0  0  0  0  0  0  0  0  0  0  0
  139.7750   71.5270  223.3740 N   0  0  0  0  0  0  0  0  0  0  0  0
  139.7480   70.3090  224.1980 C   0  0  0  0  0  0  0  0  0  0  0  0
  140.1830   70.6630  225.5880 C   0  0  0  0  0  0  0  0  0  0  0  0
  140.0240   69.7450  226.6310 C   0  0  0  0  0  0  0  0  0  0  0  0
  140.4450   70.1330  227.8910 C   0  0  0  0  0  0  0  0  0  0  0  0
  140.9930   71.3850  228.0650 C   0  0  0  0  0  0  0  0  0  0  0  0
  141.1440   72.2810  227.0260 C   0  0  0  0  0  0  0  0  0  0  0  0
  140.7250   71.8830  225.7970 N   0  0  0  0  0  0  0  0  0  0  0  0
  140.8050   73.6690  221.9530 C   0  0  0  0  0  0  0  0  0  0  0  0
  140.4960   75.1230  221.6900 C   0  0  0  0  0  0  0  0  0  0  0  0
  137.9068   79.2477  220.5377 H   0  0  0  0  0  0  0  0  0  0  0  0
  139.4580   78.7181  219.8029 H   0  0  0  0  0  0  0  0  0  0  0  0
  138.0409   77.6141  219.8029 H   0  0  0  0  0  0  0  0  0  0  0  0
  139.4711   79.5761  222.7566 H   0  0  0  0  0  0  0  0  0  0  0  0
  140.3224   78.0773  223.2562 H   0  0  0  0  0  0  0  0  0  0  0  0
  140.7596   79.4565  220.5531 H   0  0  0  0  0  0  0  0  0  0  0  0
  141.7787   79.7695  221.9725 H   0  0  0  0  0  0  0  0  0  0  0  0
  142.1720   77.1380  221.9850 H   0  0  0  0  0  0  0  0  0  0  0  0
  142.5537   76.8083  217.3659 H   0  0  0  0  0  0  0  0  0  0  0  0
  143.7587   74.7625  216.5358 H   0  0  0  0  0  0  0  0  0  0  0  0
  144.9028   72.7680  217.0069 H   0  0  0  0  0  0  0  0  0  0  0  0
  145.5209   71.5467  221.1103 H   0  0  0  0  0  0  0  0  0  0  0  0
  144.3275   73.5757  221.9130 H   0  0  0  0  0  0  0  0  0  0  0  0
  138.7085   74.8224  222.8690 H   0  0  0  0  0  0  0  0  0  0  0  0
  138.8696   74.9201  219.8034 H   0  0  0  0  0  0  0  0  0  0  0  0
  137.3079   74.9156  220.6315 H   0  0  0  0  0  0  0  0  0  0  0  0
  138.1360   72.6018  220.0928 H   0  0  0  0  0  0  0  0  0  0  0  0
  137.9524   72.8950  221.8856 H   0  0  0  0  0  0  0  0  0  0  0  0
  140.3728   72.6526  220.2018 H   0  0  0  0  0  0  0  0  0  0  0  0
  139.6920   72.4640  223.8490 H   0  0  0  0  0  0  0  0  0  0  0  0
  138.7271   69.9002  224.2219 H   0  0  0  0  0  0  0  0  0  0  0  0
  140.4245   69.5527  223.7734 H   0  0  0  0  0  0  0  0  0  0  0  0
  139.5815   68.7531  226.4567 H   0  0  0  0  0  0  0  0  0  0  0  0
  140.3430   69.4481  228.7457 H   0  0  0  0  0  0  0  0  0  0  0  0
  141.3231   71.6822  229.0713 H   0  0  0  0  0  0  0  0  0  0  0  0
  141.5852   73.2757  227.1867 H   0  0  0  0  0  0  0  0  0  0  0  0
  141.8490   73.4792  221.6630 H   0  0  0  0  0  0  0  0  0  0  0  0
  140.6245   73.4938  223.0239 H   0  0  0  0  0  0  0  0  0  0  0  0
  140.7488   75.3834  220.6516 H   0  0  0  0  0  0  0  0  0  0  0  0
  141.0827   75.7798  222.3491 H   0  0  0  0  0  0  0  0  0  0  0  0
  1  2  1  0
  2  3  1  0
  3  4  1  0
  4  5  1  0
  5  6  1  0
  6  7  2  0
  6  8  1  0
  8  9  2  0
  9 10  1  0
 10 11  2  0
 11 12  1  0
 12 13  2  0
 13 14  1  0
 13 15  1  0
 15 16  2  0
 16 17  1  0
 17 18  2  0
  2 19  1  0
 19 20  2  0
 19 21  1  0
 21 22  1  0
 22 23  1  0
 23 24  1  0
 24 25  1  0
 25 26  2  0
 25 27  1  0
 27 28  1  0
 28 29  1  0
 29 30  2  0
 30 31  1  0
 31 32  2  0
 32 33  1  0
 33 34  2  0
 24 35  1  0
 35 36  1  0
 18  8  1  0
 36 21  1  0
 17 11  1  0
 34 29  1  0
  1 37  1  0
  1 38  1  0
  1 39  1  0
  3 40  1  0
  3 41  1  0
  4 42  1  0
  4 43  1  0
  5 44  1  0
  9 45  1  0
 10 46  1  0
 12 47  1  0
 15 48  1  0
 16 49  1  0
 21 50  1  1
 22 51  1  0
 22 52  1  0
 23 53  1  0
 23 54  1  0
 24 55  1  6
 27 56  1  0
 28 57  1  0
 28 58  1  0
 30 59  1  0
 31 60  1  0
 32 61  1  0
 33 62  1  0
 35 63  1  0
 35 64  1  0
 36 65  1  0
 36 66  1  0
M  END
>  <smiles>  (42) 
CN(CCNC(=O)c1ccc2cc(F)ccc2n1)C(=O)[C@H]1CC[C@H](C(=O)NCc2ccccn2)CC1

>  <score_type>  (42) 
oracle

>  <origin>  (42) 
autodockgpu

>  <m_score__min__energy>  (42) 
-8.8699999999999992

>  <m_primary>  (42) 
energy

>  <rmsd>  (42) 
7.009674563399879

>  <m_score__min__rmsd>  (42) 
7.009674563399879

>  <meeko>  (42) 
{"free_energy": -7.68, "intermolecular_energy": -10.37, "internal_energy": -3.27, "cluster_size": 6, "cluster_id": 5, "rank_in_cluster": 5}

>  <energy>  (42) 
-5.0

>  <cluster_rmsd>  (42) 
1.72

>  <cluster>  (42) 
13

$$$$

     RDKit          3D

 66 69  0  0  0  0  0  0  0  0999 V2000
  139.2690   72.3130  219.6340 C   0  0  0  0  0  0  0  0  0  0  0  0
  139.3080   73.1670  220.7840 N   0  0  0  0  0  0  0  0  0  0  0  0
  138.1720   73.0680  221.7100 C   0  0  0  0  0  0  0  0  0  0  0  0
  137.3380   74.3360  221.6190 C   0  0  0  0  0  0  0  0  0  0  0  0
  138.0730   75.3680  222.3380 N   0  0  0  0  0  0  0  0  0  0  0  0
  138.3200   76.5780  221.6290 C   0  0  0  0  0  0  0  0  0  0  0  0
  137.8600   76.6110  220.4360 O   0  0  0  0  0  0  0  0  0  0  0  0
  139.0410   77.6970  222.2140 C   0  0  0  0  0  0  0  0  0  0  0  0
  138.2990   78.6250  222.9320 C   0  0  0  0  0  0  0  0  0  0  0  0
  138.9280   79.7210  223.5140 C   0  0  0  0  0  0  0  0  0  0  0  0
  140.2760   79.8250  223.3420 C   0  0  0  0  0  0  0  0  0  0  0  0
  140.9130   80.9230  223.9240 C   0  0  0  0  0  0  0  0  0  0  0  0
  142.2960   81.0540  223.7620 C   0  0  0  0  0  0  0  0  0  0  0  0
  142.9360   82.1110  224.3190 F   0  0  0  0  0  0  0  0  0  0  0  0
  143.0160   80.1120  223.0380 C   0  0  0  0  0  0  0  0  0  0  0  0
  142.3810   79.0280  222.4660 C   0  0  0  0  0  0  0  0  0  0  0  0
  141.0180   78.9050  222.6290 C   0  0  0  0  0  0  0  0  0  0  0  0
  140.3710   77.8600  222.0820 N   0  0  0  0  0  0  0  0  0  0  0  0
  140.3190   74.0850  221.1120 C   0  0  0  0  0  0  0  0  0  0  0  0
  140.7490   74.0330  222.3330 O   0  0  0  0  0  0  0  0  0  0  0  0
  140.9470   75.0860  220.2640 C   0  0  1  0  0  0  0  0  0  0  0  0
  142.4290   74.9040  220.0170 C   0  0  0  0  0  0  0  0  0  0  0  0
  142.9490   76.2790  219.6520 C   0  0  0  0  0  0  0  0  0  0  0  0
  142.2170   76.9050  218.5130 C   0  0  2  0  0  0  0  0  0  0  0  0
  142.3960   78.3790  218.6070 C   0  0  0  0  0  0  0  0  0  0  0  0
  143.2670   78.9980  217.9290 O   0  0  0  0  0  0  0  0  0  0  0  0
  141.5350   79.0730  219.5020 N   0  0  0  0  0  0  0  0  0  0  0  0
  141.6410   80.5320  219.6550 C   0  0  0  0  0  0  0  0  0  0  0  0
  140.3290   81.0570  220.1560 C   0  0  0  0  0  0  0  0  0  0  0  0
  140.2470   82.3400  220.7050 C   0  0  0  0  0  0  0  0  0  0  0  0
  139.0060   82.7640  221.1490 C   0  0  0  0  0  0  0  0  0  0  0  0
  137.9230   81.9220  221.0350 C   0  0  0  0  0  0  0  0  0  0  0  0
  138.0190   80.6580  220.4890 C   0  0  0  0  0  0  0  0  0  0  0  0
  139.2430   80.2580  220.0590 N   0  0  0  0  0  0  0  0  0  0  0  0
  140.7550   76.6330  218.4150 C   0  0  0  0  0  0  0  0  0  0  0  0
  140.3540   75.2570  218.8880 C   0  0  0  0  0  0  0  0  0  0  0  0
  139.2210   71.2630  219.9585 H   0  0  0  0  0  0  0  0  0  0  0  0
  138.3808   72.5512  219.0304 H   0  0  0  0  0  0  0  0  0  0  0  0
  140.1752   72.4692  219.0304 H   0  0  0  0  0  0  0  0  0  0  0  0
  137.5522   72.2003  221.4399 H   0  0  0  0  0  0  0  0  0  0  0  0
  138.5439   72.9444  222.7378 H   0  0  0  0  0  0  0  0  0  0  0  0
  137.2043   74.6280  220.5669 H   0  0  0  0  0  0  0  0  0  0  0  0
  136.3379   74.1858  222.0517 H   0  0  0  0  0  0  0  0  0  0  0  0
  138.4120   75.2520  223.3190 H   0  0  0  0  0  0  0  0  0  0  0  0
  137.2123   78.4936  223.0409 H   0  0  0  0  0  0  0  0  0  0  0  0
  138.3625   80.4703  224.0875 H   0  0  0  0  0  0  0  0  0  0  0  0
  140.3404   81.6675  224.4965 H   0  0  0  0  0  0  0  0  0  0  0  0
  144.1031   80.2311  222.9193 H   0  0  0  0  0  0  0  0  0  0  0  0
  142.9494   78.2801  221.8937 H   0  0  0  0  0  0  0  0  0  0  0  0
  140.7510   75.9691  220.8899 H   0  0  0  0  0  0  0  0  0  0  0  0
  142.5974   74.1973  219.1910 H   0  0  0  0  0  0  0  0  0  0  0  0
  142.9428   74.4937  220.8988 H   0  0  0  0  0  0  0  0  0  0  0  0
  144.0103   76.1890  219.3773 H   0  0  0  0  0  0  0  0  0  0  0  0
  142.8005   76.9262  220.5290 H   0  0  0  0  0  0  0  0  0  0  0  0
  142.6541   76.4460  217.6140 H   0  0  0  0  0  0  0  0  0  0  0  0
  140.8110   78.5540  220.0650 H   0  0  0  0  0  0  0  0  0  0  0  0
  142.4360   80.7722  220.3763 H   0  0  0  0  0  0  0  0  0  0  0  0
  141.8861   80.9945  218.6875 H   0  0  0  0  0  0  0  0  0  0  0  0
  141.1333   82.9870  220.7812 H   0  0  0  0  0  0  0  0  0  0  0  0
  138.8865   83.7650  221.5890 H   0  0  0  0  0  0  0  0  0  0  0  0
  136.9429   82.2701  221.3930 H   0  0  0  0  0  0  0  0  0  0  0  0
  137.1401   80.0018  220.4057 H   0  0  0  0  0  0  0  0  0  0  0  0
  140.4532   76.7386  217.3625 H   0  0  0  0  0  0  0  0  0  0  0  0
  140.2518   77.3556  219.0742 H   0  0  0  0  0  0  0  0  0  0  0  0
  140.7502   74.4905  218.2058 H   0  0  0  0  0  0  0  0  0  0  0  0
  139.2596   75.1481  218.9107 H   0  0  0  0  0  0  0  0  0  0  0  0
  1  2  1  0
  2  3  1  0
  3  4  1  0
  4  5  1  0
  5  6  1  0
  6  7  2  0
  6  8  1  0
  8  9  2  0
  9 10  1  0
 10 11  2  0
 11 12  1  0
 12 13  2  0
 13 14  1  0
 13 15  1  0
 15 16  2  0
 16 17  1  0
 17 18  2  0
  2 19  1  0
 19 20  2  0
 19 21  1  0
 21 22  1  0
 22 23  1  0
 23 24  1  0
 24 25  1  0
 25 26  2  0
 25 27  1  0
 27 28  1  0
 28 29  1  0
 29 30  2  0
 30 31  1  0
 31 32  2  0
 32 33  1  0
 33 34  2  0
 24 35  1  0
 35 36  1  0
 18  8  1  0
 36 21  1  0
 17 11  1  0
 34 29  1  0
  1 37  1  0
  1 38  1  0
  1 39  1  0
  3 40  1  0
  3 41  1  0
  4 42  1  0
  4 43  1  0
  5 44  1  0
  9 45  1  0
 10 46  1  0
 12 47  1  0
 15 48  1  0
 16 49  1  0
 21 50  1  1
 22 51  1  0
 22 52  1  0
 23 53  1  0
 23 54  1  0
 24 55  1  6
 27 56  1  0
 28 57  1  0
 28 58  1  0
 30 59  1  0
 31 60  1  0
 32 61  1  0
 33 62  1  0
 35 63  1  0
 35 64  1  0
 36 65  1  0
 36 66  1  0
M  END
>  <smiles>  (43) 
CN(CCNC(=O)c1ccc2cc(F)ccc2n1)C(=O)[C@H]1CC[C@H](C(=O)NCc2ccccn2)CC1

>  <score_type>  (43) 
oracle

>  <origin>  (43) 
autodockgpu

>  <m_score__min__energy>  (43) 
-8.8699999999999992

>  <m_primary>  (43) 
energy

>  <rmsd>  (43) 
6.560826425800313

>  <m_score__min__rmsd>  (43) 
6.560826425800313

>  <meeko>  (43) 
{"free_energy": -5.77, "intermolecular_energy": -8.45, "internal_energy": -5.51, "cluster_size": 10, "cluster_id": 13, "rank_in_cluster": 7}

>  <energy>  (43) 
-6.42

>  <cluster_rmsd>  (43) 
0.0

>  <cluster>  (43) 
14

$$$$

     RDKit          3D

 66 69  0  0  0  0  0  0  0  0999 V2000
  142.5070   82.0050  214.3480 C   0  0  0  0  0  0  0  0  0  0  0  0
  141.7480   81.6510  215.5100 N   0  0  0  0  0  0  0  0  0  0  0  0
  141.7320   82.6320  216.6040 C   0  0  0  0  0  0  0  0  0  0  0  0
  142.9580   82.4280  217.4790 C   0  0  0  0  0  0  0  0  0  0  0  0
  143.0390   80.9990  217.7530 N   0  0  0  0  0  0  0  0  0  0  0  0
  142.1910   80.5050  218.7840 C   0  0  0  0  0  0  0  0  0  0  0  0
  141.4530   81.3850  219.3480 O   0  0  0  0  0  0  0  0  0  0  0  0
  142.1610   79.1030  219.1710 C   0  0  0  0  0  0  0  0  0  0  0  0
  142.9040   78.2170  218.4030 C   0  0  0  0  0  0  0  0  0  0  0  0
  142.9150   76.8610  218.7180 C   0  0  0  0  0  0  0  0  0  0  0  0
  142.1760   76.4690  219.7940 C   0  0  0  0  0  0  0  0  0  0  0  0
  142.1830   75.1110  220.1150 C   0  0  0  0  0  0  0  0  0  0  0  0
  141.4320   74.6810  221.2140 C   0  0  0  0  0  0  0  0  0  0  0  0
  141.4250   73.3670  221.5450 F   0  0  0  0  0  0  0  0  0  0  0  0
  140.6970   75.5890  221.9670 C   0  0  0  0  0  0  0  0  0  0  0  0
  140.6940   76.9320  221.6450 C   0  0  0  0  0  0  0  0  0  0  0  0
  141.4360   77.3470  220.5610 C   0  0  0  0  0  0  0  0  0  0  0  0
  141.4520   78.6500  220.2220 N   0  0  0  0  0  0  0  0  0  0  0  0
  141.0220   80.4650  215.7070 C   0  0  0  0  0  0  0  0  0  0  0  0
  141.3150   79.4880  214.9070 O   0  0  0  0  0  0  0  0  0  0  0  0
  139.9830   80.1890  216.6870 C   0  0  1  0  0  0  0  0  0  0  0  0
  138.6580   80.8810  216.4560 C   0  0  0  0  0  0  0  0  0  0  0  0
  137.9860   80.9320  217.8130 C   0  0  0  0  0  0  0  0  0  0  0  0
  137.8670   79.5960  218.4650 C   0  0  2  0  0  0  0  0  0  0  0  0
  137.7420   79.8100  219.9310 C   0  0  0  0  0  0  0  0  0  0  0  0
  136.6300   79.7450  220.5310 O   0  0  0  0  0  0  0  0  0  0  0  0
  138.9420   80.0950  220.6420 N   0  0  0  0  0  0  0  0  0  0  0  0
  138.9100   80.3190  222.0950 C   0  0  0  0  0  0  0  0  0  0  0  0
  140.3100   80.2240  222.6230 C   0  0  0  0  0  0  0  0  0  0  0  0
  140.5820   79.4650  223.7660 C   0  0  0  0  0  0  0  0  0  0  0  0
  141.8940   79.4190  224.2030 C   0  0  0  0  0  0  0  0  0  0  0  0
  142.8630   80.1080  223.5080 C   0  0  0  0  0  0  0  0  0  0  0  0
  142.5800   80.8520  222.3800 C   0  0  0  0  0  0  0  0  0  0  0  0
  141.2880   80.8870  221.9670 N   0  0  0  0  0  0  0  0  0  0  0  0
  138.9810   78.6310  218.2430 C   0  0  0  0  0  0  0  0  0  0  0  0
  139.6220   78.7370  216.8800 C   0  0  0  0  0  0  0  0  0  0  0  0
  143.4638   82.4512  214.6569 H   0  0  0  0  0  0  0  0  0  0  0  0
  142.6997   81.1038  213.7474 H   0  0  0  0  0  0  0  0  0  0  0  0
  141.9404   82.7318  213.7474 H   0  0  0  0  0  0  0  0  0  0  0  0
  141.7442   83.6493  216.1857 H   0  0  0  0  0  0  0  0  0  0  0  0
  140.8220   82.4969  217.2071 H   0  0  0  0  0  0  0  0  0  0  0  0
  143.8620   82.7653  216.9508 H   0  0  0  0  0  0  0  0  0  0  0  0
  142.8820   83.0076  218.4109 H   0  0  0  0  0  0  0  0  0  0  0  0
  143.6760   80.3520  217.2360 H   0  0  0  0  0  0  0  0  0  0  0  0
  143.4845   78.5866  217.5449 H   0  0  0  0  0  0  0  0  0  0  0  0
  143.4943   76.1381  218.1249 H   0  0  0  0  0  0  0  0  0  0  0  0
  142.7659   74.3948  219.5173 H   0  0  0  0  0  0  0  0  0  0  0  0
  140.1117   75.2343  222.8282 H   0  0  0  0  0  0  0  0  0  0  0  0
  140.1133   77.6527  222.2395 H   0  0  0  0  0  0  0  0  0  0  0  0
  140.4931   80.5899  217.5753 H   0  0  0  0  0  0  0  0  0  0  0  0
  138.0445   80.3090  215.7444 H   0  0  0  0  0  0  0  0  0  0  0  0
  138.7914   81.8858  216.0286 H   0  0  0  0  0  0  0  0  0  0  0  0
  136.9762   81.3496  217.6867 H   0  0  0  0  0  0  0  0  0  0  0  0
  138.6154   81.5564  218.4641 H   0  0  0  0  0  0  0  0  0  0  0  0
  136.9886   79.1323  217.9923 H   0  0  0  0  0  0  0  0  0  0  0  0
  139.8660   80.1500  220.1390 H   0  0  0  0  0  0  0  0  0  0  0  0
  138.5005   81.3176  222.3074 H   0  0  0  0  0  0  0  0  0  0  0  0
  138.2733   79.5634  222.5784 H   0  0  0  0  0  0  0  0  0  0  0  0
  139.7838   78.9256  224.2969 H   0  0  0  0  0  0  0  0  0  0  0  0
  142.1607   78.8372  225.0977 H   0  0  0  0  0  0  0  0  0  0  0  0
  143.9024   80.0638  223.8654 H   0  0  0  0  0  0  0  0  0  0  0  0
  143.3693   81.3940  221.8385 H   0  0  0  0  0  0  0  0  0  0  0  0
  138.5844   77.6117  218.3606 H   0  0  0  0  0  0  0  0  0  0  0  0
  139.7609   78.8695  218.9812 H   0  0  0  0  0  0  0  0  0  0  0  0
  138.9148   78.4147  216.1016 H   0  0  0  0  0  0  0  0  0  0  0  0
  140.5112   78.0935  216.8080 H   0  0  0  0  0  0  0  0  0  0  0  0
  1  2  1  0
  2  3  1  0
  3  4  1  0
  4  5  1  0
  5  6  1  0
  6  7  2  0
  6  8  1  0
  8  9  2  0
  9 10  1  0
 10 11  2  0
 11 12  1  0
 12 13  2  0
 13 14  1  0
 13 15  1  0
 15 16  2  0
 16 17  1  0
 17 18  2  0
  2 19  1  0
 19 20  2  0
 19 21  1  0
 21 22  1  0
 22 23  1  0
 23 24  1  0
 24 25  1  0
 25 26  2  0
 25 27  1  0
 27 28  1  0
 28 29  1  0
 29 30  2  0
 30 31  1  0
 31 32  2  0
 32 33  1  0
 33 34  2  0
 24 35  1  0
 35 36  1  0
 18  8  1  0
 36 21  1  0
 17 11  1  0
 34 29  1  0
  1 37  1  0
  1 38  1  0
  1 39  1  0
  3 40  1  0
  3 41  1  0
  4 42  1  0
  4 43  1  0
  5 44  1  0
  9 45  1  0
 10 46  1  0
 12 47  1  0
 15 48  1  0
 16 49  1  0
 21 50  1  1
 22 51  1  0
 22 52  1  0
 23 53  1  0
 23 54  1  0
 24 55  1  6
 27 56  1  0
 28 57  1  0
 28 58  1  0
 30 59  1  0
 31 60  1  0
 32 61  1  0
 33 62  1  0
 35 63  1  0
 35 64  1  0
 36 65  1  0
 36 66  1  0
M  END
>  <smiles>  (44) 
CN(CCNC(=O)c1ccc2cc(F)ccc2n1)C(=O)[C@H]1CC[C@H](C(=O)NCc2ccccn2)CC1

>  <score_type>  (44) 
oracle

>  <origin>  (44) 
autodockgpu

>  <m_score__min__energy>  (44) 
-8.8699999999999992

>  <m_primary>  (44) 
energy

>  <rmsd>  (44) 
9.962680529019272

>  <m_score__min__rmsd>  (44) 
9.962680529019272

>  <meeko>  (44) 
{"free_energy": -4.91, "intermolecular_energy": -7.59, "internal_energy": -5.75, "cluster_size": 1, "cluster_id": 18, "rank_in_cluster": 1}

>  <energy>  (44) 
-5.62

>  <cluster_rmsd>  (44) 
1.96

>  <cluster>  (44) 
14

$$$$

     RDKit          3D

 66 69  0  0  0  0  0  0  0  0999 V2000
  138.0260   69.0110  220.5140 C   0  0  0  0  0  0  0  0  0  0  0  0
  137.9450   70.4160  220.7870 N   0  0  0  0  0  0  0  0  0  0  0  0
  138.6590   71.3040  219.8600 C   0  0  0  0  0  0  0  0  0  0  0  0
  139.9920   71.7010  220.4720 C   0  0  0  0  0  0  0  0  0  0  0  0
  140.1120   70.9610  221.7220 N   0  0  0  0  0  0  0  0  0  0  0  0
  140.2310   71.7400  222.9080 C   0  0  0  0  0  0  0  0  0  0  0  0
  140.2170   73.0070  222.7290 O   0  0  0  0  0  0  0  0  0  0  0  0
  140.3590   71.1440  224.2280 C   0  0  0  0  0  0  0  0  0  0  0  0
  140.7010   71.9890  225.2750 C   0  0  0  0  0  0  0  0  0  0  0  0
  140.8430   71.4820  226.5630 C   0  0  0  0  0  0  0  0  0  0  0  0
  140.6300   70.1460  226.7290 C   0  0  0  0  0  0  0  0  0  0  0  0
  140.7710   69.6310  228.0190 C   0  0  0  0  0  0  0  0  0  0  0  0
  140.5590   68.2630  228.2180 C   0  0  0  0  0  0  0  0  0  0  0  0
  140.6900   67.7400  229.4610 F   0  0  0  0  0  0  0  0  0  0  0  0
  140.2180   67.4390  227.1530 C   0  0  0  0  0  0  0  0  0  0  0  0
  140.0790   67.9530  225.8790 C   0  0  0  0  0  0  0  0  0  0  0  0
  140.2900   69.3020  225.6910 C   0  0  0  0  0  0  0  0  0  0  0  0
  140.1630   69.8330  224.4610 N   0  0  0  0  0  0  0  0  0  0  0  0
  137.2540   71.0240  221.8480 C   0  0  0  0  0  0  0  0  0  0  0  0
  137.3340   72.3170  221.9010 O   0  0  0  0  0  0  0  0  0  0  0  0
  136.4620   70.3970  222.8940 C   0  0  1  0  0  0  0  0  0  0  0  0
  135.4720   69.3490  222.4330 C   0  0  0  0  0  0  0  0  0  0  0  0
  134.4190   69.2830  223.5200 C   0  0  0  0  0  0  0  0  0  0  0  0
  134.9840   69.0270  224.8770 C   0  0  2  0  0  0  0  0  0  0  0  0
  134.0100   69.5300  225.8810 C   0  0  0  0  0  0  0  0  0  0  0  0
  133.1910   68.7650  226.4700 O   0  0  0  0  0  0  0  0  0  0  0  0
  134.0380   70.9250  226.1590 N   0  0  0  0  0  0  0  0  0  0  0  0
  133.1110   71.5070  227.1410 C   0  0  0  0  0  0  0  0  0  0  0  0
  133.1270   72.9980  226.9880 C   0  0  0  0  0  0  0  0  0  0  0  0
  132.1300   73.7790  227.5820 C   0  0  0  0  0  0  0  0  0  0  0  0
  132.2020   75.1490  227.4030 C   0  0  0  0  0  0  0  0  0  0  0  0
  133.2330   75.6810  226.6590 C   0  0  0  0  0  0  0  0  0  0  0  0
  134.2100   74.8980  226.0790 C   0  0  0  0  0  0  0  0  0  0  0  0
  134.1240   73.5560  226.2650 N   0  0  0  0  0  0  0  0  0  0  0  0
  136.3080   69.6390  225.1860 C   0  0  0  0  0  0  0  0  0  0  0  0
  137.2370   69.7220  223.9990 C   0  0  0  0  0  0  0  0  0  0  0  0
  138.0581   68.4545  221.4623 H   0  0  0  0  0  0  0  0  0  0  0  0
  137.1444   68.6985  219.9351 H   0  0  0  0  0  0  0  0  0  0  0  0
  138.9377   68.8019  219.9351 H   0  0  0  0  0  0  0  0  0  0  0  0
  138.8329   70.7793  218.9090 H   0  0  0  0  0  0  0  0  0  0  0  0
  138.0558   72.2049  219.6741 H   0  0  0  0  0  0  0  0  0  0  0  0
  140.8157   71.4355  219.7930 H   0  0  0  0  0  0  0  0  0  0  0  0
  140.0415   72.7859  220.6464 H   0  0  0  0  0  0  0  0  0  0  0  0
  140.1130   69.9180  221.7720 H   0  0  0  0  0  0  0  0  0  0  0  0
  140.8600   73.0609  225.0861 H   0  0  0  0  0  0  0  0  0  0  0  0
  141.1149   72.1302  227.4091 H   0  0  0  0  0  0  0  0  0  0  0  0
  141.0426   70.2863  228.8597 H   0  0  0  0  0  0  0  0  0  0  0  0
  140.0569   66.3648  227.3265 H   0  0  0  0  0  0  0  0  0  0  0  0
  139.8066   67.3021  225.0351 H   0  0  0  0  0  0  0  0  0  0  0  0
  135.9488   71.2967  223.2644 H   0  0  0  0  0  0  0  0  0  0  0  0
  135.9688   68.3742  222.3190 H   0  0  0  0  0  0  0  0  0  0  0  0
  135.0351   69.6015  221.4556 H   0  0  0  0  0  0  0  0  0  0  0  0
  133.7164   68.4725  223.2762 H   0  0  0  0  0  0  0  0  0  0  0  0
  133.9249   70.2652  223.5538 H   0  0  0  0  0  0  0  0  0  0  0  0
  135.1561   67.9410  224.9087 H   0  0  0  0  0  0  0  0  0  0  0  0
  134.7210   71.5590  225.6670 H   0  0  0  0  0  0  0  0  0  0  0  0
  132.0944   71.1269  226.9617 H   0  0  0  0  0  0  0  0  0  0  0  0
  133.4201   71.2303  228.1598 H   0  0  0  0  0  0  0  0  0  0  0  0
  131.3199   73.3215  228.1689 H   0  0  0  0  0  0  0  0  0  0  0  0
  131.4432   75.8077  227.8505 H   0  0  0  0  0  0  0  0  0  0  0  0
  133.2788   76.7715  226.5223 H   0  0  0  0  0  0  0  0  0  0  0  0
  135.0254   75.3431  225.4899 H   0  0  0  0  0  0  0  0  0  0  0  0
  136.7953   69.0345  225.9652 H   0  0  0  0  0  0  0  0  0  0  0  0
  136.1136   70.6716  225.5114 H   0  0  0  0  0  0  0  0  0  0  0  0
  137.5445   68.7133  223.6860 H   0  0  0  0  0  0  0  0  0  0  0  0
  138.1489   70.2853  224.2464 H   0  0  0  0  0  0  0  0  0  0  0  0
  1  2  1  0
  2  3  1  0
  3  4  1  0
  4  5  1  0
  5  6  1  0
  6  7  2  0
  6  8  1  0
  8  9  2  0
  9 10  1  0
 10 11  2  0
 11 12  1  0
 12 13  2  0
 13 14  1  0
 13 15  1  0
 15 16  2  0
 16 17  1  0
 17 18  2  0
  2 19  1  0
 19 20  2  0
 19 21  1  0
 21 22  1  0
 22 23  1  0
 23 24  1  0
 24 25  1  0
 25 26  2  0
 25 27  1  0
 27 28  1  0
 28 29  1  0
 29 30  2  0
 30 31  1  0
 31 32  2  0
 32 33  1  0
 33 34  2  0
 24 35  1  0
 35 36  1  0
 18  8  1  0
 36 21  1  0
 17 11  1  0
 34 29  1  0
  1 37  1  0
  1 38  1  0
  1 39  1  0
  3 40  1  0
  3 41  1  0
  4 42  1  0
  4 43  1  0
  5 44  1  0
  9 45  1  0
 10 46  1  0
 12 47  1  0
 15 48  1  0
 16 49  1  0
 21 50  1  1
 22 51  1  0
 22 52  1  0
 23 53  1  0
 23 54  1  0
 24 55  1  1
 27 56  1  0
 28 57  1  0
 28 58  1  0
 30 59  1  0
 31 60  1  0
 32 61  1  0
 33 62  1  0
 35 63  1  0
 35 64  1  0
 36 65  1  0
 36 66  1  0
M  END
>  <smiles>  (45) 
CN(CCNC(=O)c1ccc2cc(F)ccc2n1)C(=O)[C@H]1CC[C@H](C(=O)NCc2ccccn2)CC1

>  <score_type>  (45) 
oracle

>  <origin>  (45) 
autodockgpu

>  <m_score__min__energy>  (45) 
-8.8699999999999992

>  <m_primary>  (45) 
energy

>  <rmsd>  (45) 
8.40698735548214

>  <m_score__min__rmsd>  (45) 
8.40698735548214

>  <meeko>  (45) 
{"free_energy": -7.93, "intermolecular_energy": -10.61, "internal_energy": -3.24, "cluster_size": 3, "cluster_id": 7, "rank_in_cluster": 1}

>  <energy>  (45) 
-5.6

>  <cluster_rmsd>  (45) 
1.09

>  <cluster>  (45) 
14

$$$$

     RDKit          3D

 66 69  0  0  0  0  0  0  0  0999 V2000
  134.9710   77.5510  222.6450 C   0  0  0  0  0  0  0  0  0  0  0  0
  134.6730   76.3460  223.3600 N   0  0  0  0  0  0  0  0  0  0  0  0
  134.4090   75.1520  222.5460 C   0  0  0  0  0  0  0  0  0  0  0  0
  135.7100   74.3970  222.3240 C   0  0  0  0  0  0  0  0  0  0  0  0
  136.7720   75.2350  222.8660 N   0  0  0  0  0  0  0  0  0  0  0  0
  137.6000   75.8980  221.9170 C   0  0  0  0  0  0  0  0  0  0  0  0
  137.3060   75.6770  220.6920 O   0  0  0  0  0  0  0  0  0  0  0  0
  138.7010   76.7660  222.3060 C   0  0  0  0  0  0  0  0  0  0  0  0
  139.9810   76.2300  222.2530 C   0  0  0  0  0  0  0  0  0  0  0  0
  141.0770   77.0060  222.6160 C   0  0  0  0  0  0  0  0  0  0  0  0
  140.8260   78.2860  223.0120 C   0  0  0  0  0  0  0  0  0  0  0  0
  141.9220   79.0690  223.3770 C   0  0  0  0  0  0  0  0  0  0  0  0
  141.6930   80.3860  223.7880 C   0  0  0  0  0  0  0  0  0  0  0  0
  142.7410   81.1670  224.1470 F   0  0  0  0  0  0  0  0  0  0  0  0
  140.4020   80.8990  223.8310 C   0  0  0  0  0  0  0  0  0  0  0  0
  139.3220   80.1190  223.4690 C   0  0  0  0  0  0  0  0  0  0  0  0
  139.5550   78.8230  223.0650 C   0  0  0  0  0  0  0  0  0  0  0  0
  138.5230   78.0380  222.7070 N   0  0  0  0  0  0  0  0  0  0  0  0
  134.6110   76.1930  224.7550 C   0  0  0  0  0  0  0  0  0  0  0  0
  135.3820   75.2780  225.2540 O   0  0  0  0  0  0  0  0  0  0  0  0
  133.7950   76.9230  225.7130 C   0  0  1  0  0  0  0  0  0  0  0  0
  132.5490   77.5760  225.1540 C   0  0  0  0  0  0  0  0  0  0  0  0
  132.2150   78.6970  226.1160 C   0  0  0  0  0  0  0  0  0  0  0  0
  132.0790   78.2420  227.5310 C   0  0  2  0  0  0  0  0  0  0  0  0
  132.3180   79.4140  228.4140 C   0  0  0  0  0  0  0  0  0  0  0  0
  131.4470   79.8320  229.2320 O   0  0  0  0  0  0  0  0  0  0  0  0
  133.5840   80.0550  228.3020 N   0  0  0  0  0  0  0  0  0  0  0  0
  133.9050   81.2200  229.1390 C   0  0  0  0  0  0  0  0  0  0  0  0
  134.8540   82.1030  228.3860 C   0  0  0  0  0  0  0  0  0  0  0  0
  134.9250   83.4700  228.6740 C   0  0  0  0  0  0  0  0  0  0  0  0
  135.8210   84.2290  227.9420 C   0  0  0  0  0  0  0  0  0  0  0  0
  136.5930   83.6210  226.9770 C   0  0  0  0  0  0  0  0  0  0  0  0
  136.5130   82.2710  226.7040 C   0  0  0  0  0  0  0  0  0  0  0  0
  135.6280   81.5410  227.4310 N   0  0  0  0  0  0  0  0  0  0  0  0
  132.9840   77.1460  227.9800 C   0  0  0  0  0  0  0  0  0  0  0  0
  133.3070   76.1380  226.9040 C   0  0  0  0  0  0  0  0  0  0  0  0
  135.1715   78.3619  223.3607 H   0  0  0  0  0  0  0  0  0  0  0  0
  135.8570   77.3926  222.0127 H   0  0  0  0  0  0  0  0  0  0  0  0
  134.1133   77.8238  222.0127 H   0  0  0  0  0  0  0  0  0  0  0  0
  133.6917   74.5022  223.0688 H   0  0  0  0  0  0  0  0  0  0  0  0
  133.9879   75.4535  221.5756 H   0  0  0  0  0  0  0  0  0  0  0  0
  135.6830   73.4307  222.8489 H   0  0  0  0  0  0  0  0  0  0  0  0
  135.8725   74.1897  221.2560 H   0  0  0  0  0  0  0  0  0  0  0  0
  136.9390   75.3570  223.8900 H   0  0  0  0  0  0  0  0  0  0  0  0
  140.1284   75.1909  221.9237 H   0  0  0  0  0  0  0  0  0  0  0  0
  142.1007   76.6046  222.5849 H   0  0  0  0  0  0  0  0  0  0  0  0
  142.9424   78.6598  223.3422 H   0  0  0  0  0  0  0  0  0  0  0  0
  140.2391   81.9370  224.1567 H   0  0  0  0  0  0  0  0  0  0  0  0
  138.2994   80.5230  223.5024 H   0  0  0  0  0  0  0  0  0  0  0  0
  134.5396   77.6742  226.0152 H   0  0  0  0  0  0  0  0  0  0  0  0
  131.7231   76.8510  225.1065 H   0  0  0  0  0  0  0  0  0  0  0  0
  132.7068   77.9487  224.1312 H   0  0  0  0  0  0  0  0  0  0  0  0
  131.2642   79.1532  225.8034 H   0  0  0  0  0  0  0  0  0  0  0  0
  133.0497   79.4127  226.0835 H   0  0  0  0  0  0  0  0  0  0  0  0
  131.0652   77.8197  227.5934 H   0  0  0  0  0  0  0  0  0  0  0  0
  134.3060   79.7050  227.6190 H   0  0  0  0  0  0  0  0  0  0  0  0
  132.9842   81.7763  229.3687 H   0  0  0  0  0  0  0  0  0  0  0  0
  134.3663   80.8899  230.0815 H   0  0  0  0  0  0  0  0  0  0  0  0
  134.2933   83.9238  229.4519 H   0  0  0  0  0  0  0  0  0  0  0  0
  135.9159   85.3088  228.1292 H   0  0  0  0  0  0  0  0  0  0  0  0
  137.3009   84.2357  226.4016 H   0  0  0  0  0  0  0  0  0  0  0  0
  137.1400   81.8051  225.9295 H   0  0  0  0  0  0  0  0  0  0  0  0
  132.5002   76.6179  228.8149 H   0  0  0  0  0  0  0  0  0  0  0  0
  133.9345   77.6169  228.2711 H   0  0  0  0  0  0  0  0  0  0  0  0
  132.4067   75.5647  226.6380 H   0  0  0  0  0  0  0  0  0  0  0  0
  134.0681   75.4214  227.2465 H   0  0  0  0  0  0  0  0  0  0  0  0
  1  2  1  0
  2  3  1  0
  3  4  1  0
  4  5  1  0
  5  6  1  0
  6  7  2  0
  6  8  1  0
  8  9  2  0
  9 10  1  0
 10 11  2  0
 11 12  1  0
 12 13  2  0
 13 14  1  0
 13 15  1  0
 15 16  2  0
 16 17  1  0
 17 18  2  0
  2 19  1  0
 19 20  2  0
 19 21  1  0
 21 22  1  0
 22 23  1  0
 23 24  1  0
 24 25  1  0
 25 26  2  0
 25 27  1  0
 27 28  1  0
 28 29  1  0
 29 30  2  0
 30 31  1  0
 31 32  2  0
 32 33  1  0
 33 34  2  0
 24 35  1  0
 35 36  1  0
 18  8  1  0
 36 21  1  0
 17 11  1  0
 34 29  1  0
  1 37  1  0
  1 38  1  0
  1 39  1  0
  3 40  1  0
  3 41  1  0
  4 42  1  0
  4 43  1  0
  5 44  1  0
  9 45  1  0
 10 46  1  0
 12 47  1  0
 15 48  1  0
 16 49  1  0
 21 50  1  1
 22 51  1  0
 22 52  1  0
 23 53  1  0
 23 54  1  0
 24 55  1  6
 27 56  1  0
 28 57  1  0
 28 58  1  0
 30 59  1  0
 31 60  1  0
 32 61  1  0
 33 62  1  0
 35 63  1  0
 35 64  1  0
 36 65  1  0
 36 66  1  0
M  END
>  <smiles>  (46) 
CN(CCNC(=O)c1ccc2cc(F)ccc2n1)C(=O)[C@H]1CC[C@H](C(=O)NCc2ccccn2)CC1

>  <score_type>  (46) 
oracle

>  <origin>  (46) 
autodockgpu

>  <m_score__min__energy>  (46) 
-8.8699999999999992

>  <m_primary>  (46) 
energy

>  <rmsd>  (46) 
7.771112131249839

>  <m_score__min__rmsd>  (46) 
7.771112131249839

>  <meeko>  (46) 
{"free_energy": -7.26, "intermolecular_energy": -9.95, "internal_energy": -3.0, "cluster_size": 2, "cluster_id": 9, "rank_in_cluster": 1}

>  <energy>  (46) 
-4.95

>  <cluster_rmsd>  (46) 
1.37

>  <cluster>  (46) 
14

$$$$

     RDKit          3D

 66 69  0  0  0  0  0  0  0  0999 V2000
  133.8740   69.1850  223.1770 C   0  0  0  0  0  0  0  0  0  0  0  0
  134.5970   70.3860  222.8800 N   0  0  0  0  0  0  0  0  0  0  0  0
  134.9330   70.6150  221.4690 C   0  0  0  0  0  0  0  0  0  0  0  0
  136.1540   69.7850  221.1020 C   0  0  0  0  0  0  0  0  0  0  0  0
  136.8890   69.5620  222.3400 N   0  0  0  0  0  0  0  0  0  0  0  0
  137.8910   70.5210  222.6610 C   0  0  0  0  0  0  0  0  0  0  0  0
  138.0220   71.4730  221.8170 O   0  0  0  0  0  0  0  0  0  0  0  0
  138.7070   70.4320  223.8620 C   0  0  0  0  0  0  0  0  0  0  0  0
  139.5220   71.5170  224.1580 C   0  0  0  0  0  0  0  0  0  0  0  0
  140.3300   71.4940  225.2900 C   0  0  0  0  0  0  0  0  0  0  0  0
  140.2750   70.3750  226.0670 C   0  0  0  0  0  0  0  0  0  0  0  0
  141.0840   70.3460  227.2050 C   0  0  0  0  0  0  0  0  0  0  0  0
  141.0470   69.2100  228.0200 C   0  0  0  0  0  0  0  0  0  0  0  0
  141.8230   69.1590  229.1300 F   0  0  0  0  0  0  0  0  0  0  0  0
  140.2230   68.1380  227.7010 C   0  0  0  0  0  0  0  0  0  0  0  0
  139.4250   68.1720  226.5750 C   0  0  0  0  0  0  0  0  0  0  0  0
  139.4670   69.2940  225.7770 C   0  0  0  0  0  0  0  0  0  0  0  0
  138.7010   69.3580  224.6720 N   0  0  0  0  0  0  0  0  0  0  0  0
  135.0140   71.3620  223.8010 C   0  0  0  0  0  0  0  0  0  0  0  0
  135.2130   70.9420  225.0110 O   0  0  0  0  0  0  0  0  0  0  0  0
  135.2510   72.7790  223.5770 C   0  0  1  0  0  0  0  0  0  0  0  0
  134.5100   73.3940  222.4100 C   0  0  0  0  0  0  0  0  0  0  0  0
  135.3130   74.6190  222.0220 C   0  0  0  0  0  0  0  0  0  0  0  0
  135.5440   75.5590  223.1570 C   0  0  2  0  0  0  0  0  0  0  0  0
  136.7490   76.3710  222.8420 C   0  0  0  0  0  0  0  0  0  0  0  0
  136.7090   77.6340  222.7580 O   0  0  0  0  0  0  0  0  0  0  0  0
  137.9650   75.6620  222.6370 N   0  0  0  0  0  0  0  0  0  0  0  0
  139.2060   76.3860  222.3230 C   0  0  0  0  0  0  0  0  0  0  0  0
  140.2030   75.4110  221.7750 C   0  0  0  0  0  0  0  0  0  0  0  0
  141.3060   75.8650  221.0450 C   0  0  0  0  0  0  0  0  0  0  0  0
  142.1890   74.9130  220.5670 C   0  0  0  0  0  0  0  0  0  0  0  0
  141.9520   73.5800  220.8240 C   0  0  0  0  0  0  0  0  0  0  0  0
  140.8600   73.1470  221.5470 C   0  0  0  0  0  0  0  0  0  0  0  0
  140.0030   74.0940  222.0080 N   0  0  0  0  0  0  0  0  0  0  0  0
  135.7450   74.9570  224.5060 C   0  0  0  0  0  0  0  0  0  0  0  0
  134.9520   73.6940  224.7380 C   0  0  0  0  0  0  0  0  0  0  0  0
  133.7999   69.0618  224.2676 H   0  0  0  0  0  0  0  0  0  0  0  0
  132.8641   69.2488  222.7457 H   0  0  0  0  0  0  0  0  0  0  0  0
  134.4030   68.3224  222.7457 H   0  0  0  0  0  0  0  0  0  0  0  0
  134.0835   70.3186  220.8362 H   0  0  0  0  0  0  0  0  0  0  0  0
  135.1510   71.6814  221.3104 H   0  0  0  0  0  0  0  0  0  0  0  0
  135.8434   68.8241  220.6660 H   0  0  0  0  0  0  0  0  0  0  0  0
  136.7769   70.3012  220.3567 H   0  0  0  0  0  0  0  0  0  0  0  0
  136.7120   68.7500  222.9730 H   0  0  0  0  0  0  0  0  0  0  0  0
  139.5285   72.3957  223.4963 H   0  0  0  0  0  0  0  0  0  0  0  0
  140.9839   72.3405  225.5467 H   0  0  0  0  0  0  0  0  0  0  0  0
  141.7351   71.1968  227.4545 H   0  0  0  0  0  0  0  0  0  0  0  0
  140.2062   67.2522  228.3529 H   0  0  0  0  0  0  0  0  0  0  0  0
  138.7718   67.3241  226.3213 H   0  0  0  0  0  0  0  0  0  0  0  0
  136.3327   72.7299  223.3831 H   0  0  0  0  0  0  0  0  0  0  0  0
  133.4912   73.6810  222.7095 H   0  0  0  0  0  0  0  0  0  0  0  0
  134.4104   72.6886  221.5719 H   0  0  0  0  0  0  0  0  0  0  0  0
  134.7701   75.1554  221.2298 H   0  0  0  0  0  0  0  0  0  0  0  0
  136.2994   74.2677  221.6850 H   0  0  0  0  0  0  0  0  0  0  0  0
  134.6104   76.1352  223.2372 H   0  0  0  0  0  0  0  0  0  0  0  0
  137.9940   74.6110  222.7070 H   0  0  0  0  0  0  0  0  0  0  0  0
  139.0008   77.1660  221.5750 H   0  0  0  0  0  0  0  0  0  0  0  0
  139.6047   76.8600  223.2321 H   0  0  0  0  0  0  0  0  0  0  0  0
  141.4654   76.9372  220.8581 H   0  0  0  0  0  0  0  0  0  0  0  0
  143.0725   75.2176  219.9868 H   0  0  0  0  0  0  0  0  0  0  0  0
  142.6608   72.8327  220.4378 H   0  0  0  0  0  0  0  0  0  0  0  0
  140.6903   72.0778  221.7422 H   0  0  0  0  0  0  0  0  0  0  0  0
  135.4465   75.6970  225.2631 H   0  0  0  0  0  0  0  0  0  0  0  0
  136.8080   74.6835  224.5777 H   0  0  0  0  0  0  0  0  0  0  0  0
  133.8765   73.9222  224.7744 H   0  0  0  0  0  0  0  0  0  0  0  0
  135.2248   73.2240  225.6944 H   0  0  0  0  0  0  0  0  0  0  0  0
  1  2  1  0
  2  3  1  0
  3  4  1  0
  4  5  1  0
  5  6  1  0
  6  7  2  0
  6  8  1  0
  8  9  2  0
  9 10  1  0
 10 11  2  0
 11 12  1  0
 12 13  2  0
 13 14  1  0
 13 15  1  0
 15 16  2  0
 16 17  1  0
 17 18  2  0
  2 19  1  0
 19 20  2  0
 19 21  1  0
 21 22  1  0
 22 23  1  0
 23 24  1  0
 24 25  1  0
 25 26  2  0
 25 27  1  0
 27 28  1  0
 28 29  1  0
 29 30  2  0
 30 31  1  0
 31 32  2  0
 32 33  1  0
 33 34  2  0
 24 35  1  0
 35 36  1  0
 18  8  1  0
 36 21  1  0
 17 11  1  0
 34 29  1  0
  1 37  1  0
  1 38  1  0
  1 39  1  0
  3 40  1  0
  3 41  1  0
  4 42  1  0
  4 43  1  0
  5 44  1  0
  9 45  1  0
 10 46  1  0
 12 47  1  0
 15 48  1  0
 16 49  1  0
 21 50  1  6
 22 51  1  0
 22 52  1  0
 23 53  1  0
 23 54  1  0
 24 55  1  1
 27 56  1  0
 28 57  1  0
 28 58  1  0
 30 59  1  0
 31 60  1  0
 32 61  1  0
 33 62  1  0
 35 63  1  0
 35 64  1  0
 36 65  1  0
 36 66  1  0
M  END
>  <smiles>  (47) 
CN(CCNC(=O)c1ccc2cc(F)ccc2n1)C(=O)[C@H]1CC[C@H](C(=O)NCc2ccccn2)CC1

>  <score_type>  (47) 
oracle

>  <origin>  (47) 
autodockgpu

>  <m_score__min__energy>  (47) 
-8.8699999999999992

>  <m_primary>  (47) 
energy

>  <rmsd>  (47) 
9.283178835648496

>  <m_score__min__rmsd>  (47) 
9.283178835648496

>  <meeko>  (47) 
{"free_energy": -6.81, "intermolecular_energy": -9.49, "internal_energy": -3.53, "cluster_size": 1, "cluster_id": 12, "rank_in_cluster": 1}

>  <energy>  (47) 
-6.38

>  <cluster_rmsd>  (47) 
0.0

>  <cluster>  (47) 
15

$$$$

     RDKit          3D

 66 69  0  0  0  0  0  0  0  0999 V2000
  133.2760   72.7540  223.9400 C   0  0  0  0  0  0  0  0  0  0  0  0
  134.2890   73.7030  224.2960 N   0  0  0  0  0  0  0  0  0  0  0  0
  135.5930   73.5440  223.6400 C   0  0  0  0  0  0  0  0  0  0  0  0
  135.7580   74.6220  222.5810 C   0  0  0  0  0  0  0  0  0  0  0  0
  137.1060   75.1530  222.7370 N   0  0  0  0  0  0  0  0  0  0  0  0
  137.2510   76.5620  222.5910 C   0  0  0  0  0  0  0  0  0  0  0  0
  136.1680   77.1950  222.3410 O   0  0  0  0  0  0  0  0  0  0  0  0
  138.5330   77.2370  222.7170 C   0  0  0  0  0  0  0  0  0  0  0  0
  139.6660   76.5180  222.3610 C   0  0  0  0  0  0  0  0  0  0  0  0
  140.9240   77.1040  222.4610 C   0  0  0  0  0  0  0  0  0  0  0  0
  140.9740   78.3880  222.9160 C   0  0  0  0  0  0  0  0  0  0  0  0
  142.2330   78.9820  223.0190 C   0  0  0  0  0  0  0  0  0  0  0  0
  142.3140   80.2990  223.4830 C   0  0  0  0  0  0  0  0  0  0  0  0
  143.5250   80.8970  223.5910 F   0  0  0  0  0  0  0  0  0  0  0  0
  141.1640   80.9960  223.8330 C   0  0  0  0  0  0  0  0  0  0  0  0
  139.9210   80.4040  223.7290 C   0  0  0  0  0  0  0  0  0  0  0  0
  139.8500   79.1070  223.2710 C   0  0  0  0  0  0  0  0  0  0  0  0
  138.6530   78.5020  223.1590 N   0  0  0  0  0  0  0  0  0  0  0  0
  134.1580   74.7660  225.2050 C   0  0  0  0  0  0  0  0  0  0  0  0
  134.2330   74.4450  226.4580 O   0  0  0  0  0  0  0  0  0  0  0  0
  133.9480   76.1790  224.9270 C   0  0  1  0  0  0  0  0  0  0  0  0
  133.1930   76.4940  223.6540 C   0  0  0  0  0  0  0  0  0  0  0  0
  133.5970   77.9070  223.2840 C   0  0  0  0  0  0  0  0  0  0  0  0
  133.3730   78.8920  224.3820 C   0  0  2  0  0  0  0  0  0  0  0  0
  134.2790   80.0480  224.1510 C   0  0  0  0  0  0  0  0  0  0  0  0
  133.8740   81.2460  224.2100 O   0  0  0  0  0  0  0  0  0  0  0  0
  135.6400   79.7490  223.8600 N   0  0  0  0  0  0  0  0  0  0  0  0
  136.6050   80.8330  223.6200 C   0  0  0  0  0  0  0  0  0  0  0  0
  136.6040   81.7450  224.8100 C   0  0  0  0  0  0  0  0  0  0  0  0
  136.8520   81.2370  226.0890 C   0  0  0  0  0  0  0  0  0  0  0  0
  136.8360   82.1310  227.1440 C   0  0  0  0  0  0  0  0  0  0  0  0
  136.5820   83.4630  226.8990 C   0  0  0  0  0  0  0  0  0  0  0  0
  136.3390   83.9510  225.6310 C   0  0  0  0  0  0  0  0  0  0  0  0
  136.3580   83.0590  224.6070 N   0  0  0  0  0  0  0  0  0  0  0  0
  133.5950   78.4150  225.7770 C   0  0  0  0  0  0  0  0  0  0  0  0
  133.2320   76.9660  225.9940 C   0  0  0  0  0  0  0  0  0  0  0  0
  132.8288   72.3350  224.8535 H   0  0  0  0  0  0  0  0  0  0  0  0
  132.4968   73.2547  223.3466 H   0  0  0  0  0  0  0  0  0  0  0  0
  133.7249   71.9438  223.3466 H   0  0  0  0  0  0  0  0  0  0  0  0
  136.3943   73.6379  224.3878 H   0  0  0  0  0  0  0  0  0  0  0  0
  135.6491   72.5521  223.1677 H   0  0  0  0  0  0  0  0  0  0  0  0
  135.6335   74.1904  221.5769 H   0  0  0  0  0  0  0  0  0  0  0  0
  135.0029   75.4133  222.6981 H   0  0  0  0  0  0  0  0  0  0  0  0
  137.9370   74.5550  222.9430 H   0  0  0  0  0  0  0  0  0  0  0  0
  139.5690   75.4837  221.9994 H   0  0  0  0  0  0  0  0  0  0  0  0
  141.8370   76.5559  222.1853 H   0  0  0  0  0  0  0  0  0  0  0  0
  143.1411   78.4268  222.7415 H   0  0  0  0  0  0  0  0  0  0  0  0
  141.2448   82.0309  224.1969 H   0  0  0  0  0  0  0  0  0  0  0  0
  139.0097   80.9547  224.0052 H   0  0  0  0  0  0  0  0  0  0  0  0
  135.0022   76.4845  224.8535 H   0  0  0  0  0  0  0  0  0  0  0  0
  132.1081   76.4368  223.8261 H   0  0  0  0  0  0  0  0  0  0  0  0
  133.4279   75.7787  222.8521 H   0  0  0  0  0  0  0  0  0  0  0  0
  133.0090   78.2203  222.4087 H   0  0  0  0  0  0  0  0  0  0  0  0
  134.6768   77.8927  223.0747 H   0  0  0  0  0  0  0  0  0  0  0  0
  132.3006   79.1312  224.3296 H   0  0  0  0  0  0  0  0  0  0  0  0
  135.9730   78.7510  223.8110 H   0  0  0  0  0  0  0  0  0  0  0  0
  137.6103   80.4097  223.4781 H   0  0  0  0  0  0  0  0  0  0  0  0
  136.3241   81.3935  222.7162 H   0  0  0  0  0  0  0  0  0  0  0  0
  137.0521   80.1674  226.2498 H   0  0  0  0  0  0  0  0  0  0  0  0
  137.0244   81.7818  228.1699 H   0  0  0  0  0  0  0  0  0  0  0  0
  136.5725   84.1642  227.7464 H   0  0  0  0  0  0  0  0  0  0  0  0
  136.1382   85.0184  225.4570 H   0  0  0  0  0  0  0  0  0  0  0  0
  132.9844   79.0300  226.4544 H   0  0  0  0  0  0  0  0  0  0  0  0
  134.6726   78.5073  225.9779 H   0  0  0  0  0  0  0  0  0  0  0  0
  132.1445   76.8291  225.9014 H   0  0  0  0  0  0  0  0  0  0  0  0
  133.5252   76.6296  226.9994 H   0  0  0  0  0  0  0  0  0  0  0  0
  1  2  1  0
  2  3  1  0
  3  4  1  0
  4  5  1  0
  5  6  1  0
  6  7  2  0
  6  8  1  0
  8  9  2  0
  9 10  1  0
 10 11  2  0
 11 12  1  0
 12 13  2  0
 13 14  1  0
 13 15  1  0
 15 16  2  0
 16 17  1  0
 17 18  2  0
  2 19  1  0
 19 20  2  0
 19 21  1  0
 21 22  1  0
 22 23  1  0
 23 24  1  0
 24 25  1  0
 25 26  2  0
 25 27  1  0
 27 28  1  0
 28 29  1  0
 29 30  2  0
 30 31  1  0
 31 32  2  0
 32 33  1  0
 33 34  2  0
 24 35  1  0
 35 36  1  0
 18  8  1  0
 36 21  1  0
 17 11  1  0
 34 29  1  0
  1 37  1  0
  1 38  1  0
  1 39  1  0
  3 40  1  0
  3 41  1  0
  4 42  1  0
  4 43  1  0
  5 44  1  0
  9 45  1  0
 10 46  1  0
 12 47  1  0
 15 48  1  0
 16 49  1  0
 21 50  1  6
 22 51  1  0
 22 52  1  0
 23 53  1  0
 23 54  1  0
 24 55  1  1
 27 56  1  0
 28 57  1  0
 28 58  1  0
 30 59  1  0
 31 60  1  0
 32 61  1  0
 33 62  1  0
 35 63  1  0
 35 64  1  0
 36 65  1  0
 36 66  1  0
M  END
>  <smiles>  (48) 
CN(CCNC(=O)c1ccc2cc(F)ccc2n1)C(=O)[C@H]1CC[C@H](C(=O)NCc2ccccn2)CC1

>  <score_type>  (48) 
oracle

>  <origin>  (48) 
autodockgpu

>  <m_score__min__energy>  (48) 
-8.8699999999999992

>  <m_primary>  (48) 
energy

>  <rmsd>  (48) 
7.460671975030074

>  <m_score__min__rmsd>  (48) 
7.460671975030074

>  <meeko>  (48) 
{"free_energy": -6.75, "intermolecular_energy": -9.44, "internal_energy": -3.45, "cluster_size": 2, "cluster_id": 9, "rank_in_cluster": 2}

>  <energy>  (48) 
-6.37

>  <cluster_rmsd>  (48) 
0.0

>  <cluster>  (48) 
16

$$$$

     RDKit          3D

 66 69  0  0  0  0  0  0  0  0999 V2000
  138.4620   78.3490  221.6050 C   0  0  0  0  0  0  0  0  0  0  0  0
  139.8480   78.1810  221.9300 N   0  0  0  0  0  0  0  0  0  0  0  0
  140.7120   79.3520  221.7340 C   0  0  0  0  0  0  0  0  0  0  0  0
  141.4460   79.2180  220.4090 C   0  0  0  0  0  0  0  0  0  0  0  0
  142.1780   77.9580  220.4670 N   0  0  0  0  0  0  0  0  0  0  0  0
  142.4250   77.3140  219.2220 C   0  0  0  0  0  0  0  0  0  0  0  0
  141.9720   77.9270  218.1950 O   0  0  0  0  0  0  0  0  0  0  0  0
  143.1410   76.0520  219.1200 C   0  0  0  0  0  0  0  0  0  0  0  0
  143.0160   75.3460  217.9310 C   0  0  0  0  0  0  0  0  0  0  0  0
  143.6730   74.1300  217.7700 C   0  0  0  0  0  0  0  0  0  0  0  0
  144.4230   73.6880  218.8180 C   0  0  0  0  0  0  0  0  0  0  0  0
  145.0850   72.4690  218.6630 C   0  0  0  0  0  0  0  0  0  0  0  0
  145.8610   71.9910  219.7240 C   0  0  0  0  0  0  0  0  0  0  0  0
  146.5130   70.8100  219.5960 F   0  0  0  0  0  0  0  0  0  0  0  0
  145.9700   72.7170  220.9030 C   0  0  0  0  0  0  0  0  0  0  0  0
  145.3140   73.9230  221.0510 C   0  0  0  0  0  0  0  0  0  0  0  0
  144.5500   74.3870  220.0030 C   0  0  0  0  0  0  0  0  0  0  0  0
  143.8980   75.5580  220.1170 N   0  0  0  0  0  0  0  0  0  0  0  0
  140.4580   77.0130  222.4170 C   0  0  0  0  0  0  0  0  0  0  0  0
  141.4430   77.1960  223.2390 O   0  0  0  0  0  0  0  0  0  0  0  0
  140.1330   75.6270  222.1190 C   0  0  1  0  0  0  0  0  0  0  0  0
  138.8920   75.4070  221.2810 C   0  0  0  0  0  0  0  0  0  0  0  0
  138.4420   73.9940  221.5900 C   0  0  0  0  0  0  0  0  0  0  0  0
  139.5070   72.9720  221.3750 C   0  0  2  0  0  0  0  0  0  0  0  0
  139.1780   71.7840  222.2060 C   0  0  0  0  0  0  0  0  0  0  0  0
  138.2840   70.9530  221.8720 O   0  0  0  0  0  0  0  0  0  0  0  0
  139.9200   71.6170  223.4090 N   0  0  0  0  0  0  0  0  0  0  0  0
  139.6610   70.4680  224.2900 C   0  0  0  0  0  0  0  0  0  0  0  0
  140.1410   70.8050  225.6690 C   0  0  0  0  0  0  0  0  0  0  0  0
  139.7870   69.9990  226.7560 C   0  0  0  0  0  0  0  0  0  0  0  0
  140.2630   70.3660  228.0020 C   0  0  0  0  0  0  0  0  0  0  0  0
  141.0500   71.4900  228.1230 C   0  0  0  0  0  0  0  0  0  0  0  0
  141.3920   72.2760  227.0410 C   0  0  0  0  0  0  0  0  0  0  0  0
  140.9170   71.9010  225.8250 N   0  0  0  0  0  0  0  0  0  0  0  0
  140.9070   73.3750  221.6970 C   0  0  0  0  0  0  0  0  0  0  0  0
  141.2050   74.8280  221.4210 C   0  0  0  0  0  0  0  0  0  0  0  0
  137.8741   78.4203  222.5320 H   0  0  0  0  0  0  0  0  0  0  0  0
  138.3323   79.2694  221.0168 H   0  0  0  0  0  0  0  0  0  0  0  0
  138.1161   77.4862  221.0168 H   0  0  0  0  0  0  0  0  0  0  0  0
  140.0977   80.2644  221.7232 H   0  0  0  0  0  0  0  0  0  0  0  0
  141.4414   79.4137  222.5550 H   0  0  0  0  0  0  0  0  0  0  0  0
  140.7274   79.2021  219.5763 H   0  0  0  0  0  0  0  0  0  0  0  0
  142.1265   80.0663  220.2435 H   0  0  0  0  0  0  0  0  0  0  0  0
  142.5120   77.5310  221.3600 H   0  0  0  0  0  0  0  0  0  0  0  0
  142.3970   75.7483  217.1155 H   0  0  0  0  0  0  0  0  0  0  0  0
  143.5905   73.5514  216.8381 H   0  0  0  0  0  0  0  0  0  0  0  0
  144.9984   71.8971  217.7274 H   0  0  0  0  0  0  0  0  0  0  0  0
  146.5853   72.3273  221.7274 H   0  0  0  0  0  0  0  0  0  0  0  0
  145.3995   74.4996  221.9839 H   0  0  0  0  0  0  0  0  0  0  0  0
  139.9877   75.2739  223.1506 H   0  0  0  0  0  0  0  0  0  0  0  0
  139.1267   75.5107  220.2114 H   0  0  0  0  0  0  0  0  0  0  0  0
  138.1086   76.1446  221.5095 H   0  0  0  0  0  0  0  0  0  0  0  0
  137.5886   73.7501  220.9403 H   0  0  0  0  0  0  0  0  0  0  0  0
  138.1747   73.9646  222.6566 H   0  0  0  0  0  0  0  0  0  0  0  0
  139.5034   72.7877  220.2906 H   0  0  0  0  0  0  0  0  0  0  0  0
  140.6630   72.3110  223.6850 H   0  0  0  0  0  0  0  0  0  0  0  0
  138.5819   70.2559  224.3148 H   0  0  0  0  0  0  0  0  0  0  0  0
  140.1902   69.5798  223.9145 H   0  0  0  0  0  0  0  0  0  0  0  0
  139.1549   69.1083  226.6252 H   0  0  0  0  0  0  0  0  0  0  0  0
  140.0149   69.7649  228.8892 H   0  0  0  0  0  0  0  0  0  0  0  0
  141.4200   71.7720  229.1198 H   0  0  0  0  0  0  0  0  0  0  0  0
  142.0232   73.1692  227.1587 H   0  0  0  0  0  0  0  0  0  0  0  0
  141.5915   72.7606  221.0937 H   0  0  0  0  0  0  0  0  0  0  0  0
  141.0423   73.2216  222.7778 H   0  0  0  0  0  0  0  0  0  0  0  0
  141.1790   75.0220  220.3386 H   0  0  0  0  0  0  0  0  0  0  0  0
  142.2059   75.1040  221.7844 H   0  0  0  0  0  0  0  0  0  0  0  0
  1  2  1  0
  2  3  1  0
  3  4  1  0
  4  5  1  0
  5  6  1  0
  6  7  2  0
  6  8  1  0
  8  9  2  0
  9 10  1  0
 10 11  2  0
 11 12  1  0
 12 13  2  0
 13 14  1  0
 13 15  1  0
 15 16  2  0
 16 17  1  0
 17 18  2  0
  2 19  1  0
 19 20  2  0
 19 21  1  0
 21 22  1  0
 22 23  1  0
 23 24  1  0
 24 25  1  0
 25 26  2  0
 25 27  1  0
 27 28  1  0
 28 29  1  0
 29 30  2  0
 30 31  1  0
 31 32  2  0
 32 33  1  0
 33 34  2  0
 24 35  1  0
 35 36  1  0
 18  8  1  0
 36 21  1  0
 17 11  1  0
 34 29  1  0
  1 37  1  0
  1 38  1  0
  1 39  1  0
  3 40  1  0
  3 41  1  0
  4 42  1  0
  4 43  1  0
  5 44  1  0
  9 45  1  0
 10 46  1  0
 12 47  1  0
 15 48  1  0
 16 49  1  0
 21 50  1  1
 22 51  1  0
 22 52  1  0
 23 53  1  0
 23 54  1  0
 24 55  1  6
 27 56  1  0
 28 57  1  0
 28 58  1  0
 30 59  1  0
 31 60  1  0
 32 61  1  0
 33 62  1  0
 35 63  1  0
 35 64  1  0
 36 65  1  0
 36 66  1  0
M  END
>  <smiles>  (49) 
CN(CCNC(=O)c1ccc2cc(F)ccc2n1)C(=O)[C@H]1CC[C@H](C(=O)NCc2ccccn2)CC1

>  <score_type>  (49) 
oracle

>  <origin>  (49) 
autodockgpu

>  <m_score__min__energy>  (49) 
-8.8699999999999992

>  <m_primary>  (49) 
energy

>  <rmsd>  (49) 
7.297305780850997

>  <m_score__min__rmsd>  (49) 
7.297305780850997

>  <meeko>  (49) 
{"free_energy": -8.15, "intermolecular_energy": -10.84, "internal_energy": -3.6, "cluster_size": 6, "cluster_id": 5, "rank_in_cluster": 1}

>  <energy>  (49) 
-6.21

>  <cluster_rmsd>  (49) 
0.0

>  <cluster>  (49) 
17

$$$$

     RDKit          3D

 66 69  0  0  0  0  0  0  0  0999 V2000
  145.5170   73.0700  218.3370 C   0  0  0  0  0  0  0  0  0  0  0  0
  144.2050   73.6290  218.4720 N   0  0  0  0  0  0  0  0  0  0  0  0
  143.4790   73.9000  217.2240 C   0  0  0  0  0  0  0  0  0  0  0  0
  143.8410   75.2890  216.7230 C   0  0  0  0  0  0  0  0  0  0  0  0
  143.7020   76.1890  217.8610 N   0  0  0  0  0  0  0  0  0  0  0  0
  142.5680   77.0500  217.8500 C   0  0  0  0  0  0  0  0  0  0  0  0
  141.8030   76.9250  216.8330 O   0  0  0  0  0  0  0  0  0  0  0  0
  142.2960   78.0020  218.9150 C   0  0  0  0  0  0  0  0  0  0  0  0
  142.3660   79.3510  218.5930 C   0  0  0  0  0  0  0  0  0  0  0  0
  142.1190   80.3140  219.5670 C   0  0  0  0  0  0  0  0  0  0  0  0
  141.8130   79.8660  220.8170 C   0  0  0  0  0  0  0  0  0  0  0  0
  141.5650   80.8270  221.7980 C   0  0  0  0  0  0  0  0  0  0  0  0
  141.2490   80.3950  223.0910 C   0  0  0  0  0  0  0  0  0  0  0  0
  141.0030   81.3100  224.0600 F   0  0  0  0  0  0  0  0  0  0  0  0
  141.1840   79.0390  223.3860 C   0  0  0  0  0  0  0  0  0  0  0  0
  141.4310   78.0930  222.4120 C   0  0  0  0  0  0  0  0  0  0  0  0
  141.7420   78.5260  221.1410 C   0  0  0  0  0  0  0  0  0  0  0  0
  141.9880   77.6280  220.1700 N   0  0  0  0  0  0  0  0  0  0  0  0
  143.5470   73.9410  219.6720 C   0  0  0  0  0  0  0  0  0  0  0  0
  144.0640   74.9100  220.3600 O   0  0  0  0  0  0  0  0  0  0  0  0
  142.3630   73.3210  220.2470 C   0  0  1  0  0  0  0  0  0  0  0  0
  141.5040   74.2180  221.1120 C   0  0  0  0  0  0  0  0  0  0  0  0
  140.7350   73.2830  222.0240 C   0  0  0  0  0  0  0  0  0  0  0  0
  139.9690   72.2360  221.2880 C   0  0  2  0  0  0  0  0  0  0  0  0
  139.7440   71.0960  222.2150 C   0  0  0  0  0  0  0  0  0  0  0  0
  139.2720   69.9890  221.8220 O   0  0  0  0  0  0  0  0  0  0  0  0
  140.0860   71.3020  223.5810 N   0  0  0  0  0  0  0  0  0  0  0  0
  139.8970   70.2270  224.5660 C   0  0  0  0  0  0  0  0  0  0  0  0
  140.3080   70.7370  225.9140 C   0  0  0  0  0  0  0  0  0  0  0  0
  139.9510   70.0380  227.0720 C   0  0  0  0  0  0  0  0  0  0  0  0
  140.3610   70.5620  228.2850 C   0  0  0  0  0  0  0  0  0  0  0  0
  141.0910   71.7290  228.3050 C   0  0  0  0  0  0  0  0  0  0  0  0
  141.4370   72.4090  227.1550 C   0  0  0  0  0  0  0  0  0  0  0  0
  141.0260   71.8810  225.9730 N   0  0  0  0  0  0  0  0  0  0  0  0
  140.5880   71.6910  220.0450 C   0  0  0  0  0  0  0  0  0  0  0  0
  141.3960   72.7030  219.2690 C   0  0  0  0  0  0  0  0  0  0  0  0
  145.9427   72.8886  219.3349 H   0  0  0  0  0  0  0  0  0  0  0  0
  145.4558   72.1198  217.7862 H   0  0  0  0  0  0  0  0  0  0  0  0
  146.1599   73.7723  217.7862 H   0  0  0  0  0  0  0  0  0  0  0  0
  143.7578   73.1522  216.4670 H   0  0  0  0  0  0  0  0  0  0  0  0
  142.3960   73.8458  217.4088 H   0  0  0  0  0  0  0  0  0  0  0  0
  144.8768   75.3015  216.3530 H   0  0  0  0  0  0  0  0  0  0  0  0
  143.1881   75.5947  215.8922 H   0  0  0  0  0  0  0  0  0  0  0  0
  144.3820   76.2200  218.6530 H   0  0  0  0  0  0  0  0  0  0  0  0
  142.6169   79.6588  217.5672 H   0  0  0  0  0  0  0  0  0  0  0  0
  142.1686   81.3888  219.3380 H   0  0  0  0  0  0  0  0  0  0  0  0
  141.6167   81.8998  221.5603 H   0  0  0  0  0  0  0  0  0  0  0  0
  140.9329   78.7158  224.4070 H   0  0  0  0  0  0  0  0  0  0  0  0
  141.3809   77.0190  222.6445 H   0  0  0  0  0  0  0  0  0  0  0  0
  142.8649   72.5475  220.8469 H   0  0  0  0  0  0  0  0  0  0  0  0
  140.8117   74.8041  220.4898 H   0  0  0  0  0  0  0  0  0  0  0  0
  142.1097   74.9381  221.6818 H   0  0  0  0  0  0  0  0  0  0  0  0
  140.0275   73.8795  222.6187 H   0  0  0  0  0  0  0  0  0  0  0  0
  141.4725   72.7638  222.6538 H   0  0  0  0  0  0  0  0  0  0  0  0
  139.0523   72.7436  220.9532 H   0  0  0  0  0  0  0  0  0  0  0  0
  140.4780   72.2250  223.9040 H   0  0  0  0  0  0  0  0  0  0  0  0
  138.8388   69.9278  224.5897 H   0  0  0  0  0  0  0  0  0  0  0  0
  140.5077   69.3541  224.2919 H   0  0  0  0  0  0  0  0  0  0  0  0
  139.3667   69.1074  227.0201 H   0  0  0  0  0  0  0  0  0  0  0  0
  140.1060   70.0508  229.2250 H   0  0  0  0  0  0  0  0  0  0  0  0
  141.4111   72.1354  229.2757 H   0  0  0  0  0  0  0  0  0  0  0  0
  142.0214   73.3401  227.1940 H   0  0  0  0  0  0  0  0  0  0  0  0
  139.7846   71.3164  219.3936 H   0  0  0  0  0  0  0  0  0  0  0  0
  141.2839   70.8980  220.3563 H   0  0  0  0  0  0  0  0  0  0  0  0
  140.7349   73.4754  218.8490 H   0  0  0  0  0  0  0  0  0  0  0  0
  141.9273   72.2288  218.4307 H   0  0  0  0  0  0  0  0  0  0  0  0
  1  2  1  0
  2  3  1  0
  3  4  1  0
  4  5  1  0
  5  6  1  0
  6  7  2  0
  6  8  1  0
  8  9  2  0
  9 10  1  0
 10 11  2  0
 11 12  1  0
 12 13  2  0
 13 14  1  0
 13 15  1  0
 15 16  2  0
 16 17  1  0
 17 18  2  0
  2 19  1  0
 19 20  2  0
 19 21  1  0
 21 22  1  0
 22 23  1  0
 23 24  1  0
 24 25  1  0
 25 26  2  0
 25 27  1  0
 27 28  1  0
 28 29  1  0
 29 30  2  0
 30 31  1  0
 31 32  2  0
 32 33  1  0
 33 34  2  0
 24 35  1  0
 35 36  1  0
 18  8  1  0
 36 21  1  0
 17 11  1  0
 34 29  1  0
  1 37  1  0
  1 38  1  0
  1 39  1  0
  3 40  1  0
  3 41  1  0
  4 42  1  0
  4 43  1  0
  5 44  1  0
  9 45  1  0
 10 46  1  0
 12 47  1  0
 15 48  1  0
 16 49  1  0
 21 50  1  1
 22 51  1  0
 22 52  1  0
 23 53  1  0
 23 54  1  0
 24 55  1  6
 27 56  1  0
 28 57  1  0
 28 58  1  0
 30 59  1  0
 31 60  1  0
 32 61  1  0
 33 62  1  0
 35 63  1  0
 35 64  1  0
 36 65  1  0
 36 66  1  0
M  END
>  <smiles>  (50) 
CN(CCNC(=O)c1ccc2cc(F)ccc2n1)C(=O)[C@H]1CC[C@H](C(=O)NCc2ccccn2)CC1

>  <score_type>  (50) 
oracle

>  <origin>  (50) 
autodockgpu

>  <m_score__min__energy>  (50) 
-8.8699999999999992

>  <m_primary>  (50) 
energy

>  <rmsd>  (50) 
5.30645195491859

>  <m_score__min__rmsd>  (50) 
5.30645195491859

>  <meeko>  (50) 
{"free_energy": -7.66, "intermolecular_energy": -10.34, "internal_energy": -3.34, "cluster_size": 1, "cluster_id": 8, "rank_in_cluster": 1}

>  <energy>  (50) 
-4.91

>  <cluster_rmsd>  (50) 
0.0

>  <cluster>  (50) 
18

$$$$
