@<TRIPOS>MOLECULE
*****
 60 64 0 0 0
SMALL
GASTEIGER

@<TRIPOS>ATOM
      1 O         142.6610   77.2440  217.5110 O.2     1  UNL1       -0.2685
      2 C         142.5910   77.7780  218.6520 C.2     1  UNL1        0.2628
      3 N         142.8260   77.0610  219.8610 N.am    1  UNL1       -0.3015
      4 C         143.1710   75.6230  219.7830 C.3     1  UNL1        0.0887
      5 C         141.9990   74.8390  219.3960 C.2     1  UNL1        0.2331
      6 O         141.7190   74.8190  218.1440 O.2     1  UNL1       -0.2739
      7 N         141.1390   74.1010  220.2240 N.am    1  UNL1       -0.2943
      8 C         141.6750   73.0620  221.1340 C.3     1  UNL1        0.0175
      9 C         140.7510   73.0060  222.3030 C.3     1  UNL1       -0.0092
     10 C         139.5220   73.8090  221.9380 C.3     1  UNL1        0.0755
     11 O         138.4150   72.9880  222.1530 O.3     1  UNL1       -0.3899
     12 C         139.7260   74.0810  220.4600 C.3     1  UNL1        0.0559
     13 C         138.9720   75.2710  219.9870 C.3     1  UNL1       -0.0065
     14 C         138.7110   76.2600  221.0780 C.ar    1  UNL1       -0.0449
     15 C         137.4810   76.3820  221.6900 C.ar    1  UNL1       -0.0585
     16 C         137.2330   77.2920  222.6970 C.ar    1  UNL1       -0.0609
     17 C         138.2810   78.1010  223.0870 C.ar    1  UNL1       -0.0525
     18 C         139.5230   78.0350  222.5250 C.ar    1  UNL1        0.0021
     19 C         140.6510   78.8730  222.9130 C.ar    1  UNL1        0.0890
     20 C         140.5320   79.9410  223.7780 C.ar    1  UNL1        0.0535
     21 N         141.5800   80.7170  224.1360 N.ar    1  UNL1       -0.2596
     22 C         142.8020   80.4680  223.6480 C.ar    1  UNL1        0.0457
     23 C         142.9560   79.4100  222.7820 C.ar    1  UNL1        0.0464
     24 N         141.9060   78.6450  222.4340 N.ar    1  UNL1       -0.2520
     25 C         139.7230   77.1080  221.5220 C.ar    1  UNL1       -0.0493
     26 C         142.2480   79.2130  218.7560 C.ar    1  UNL1        0.1260
     27 C         142.5670   80.0700  217.7210 C.ar    1  UNL1       -0.0306
     28 C         142.2830   81.4180  217.7390 C.ar    1  UNL1       -0.0503
     29 C         141.6470   81.9060  218.8670 C.ar    1  UNL1        0.0031
     30 C         141.3460   83.2560  218.9200 C.ar    1  UNL1       -0.0173
     31 C         140.7130   83.7830  220.0260 C.ar    1  UNL1        0.1241
     32 F         140.4270   85.1060  220.0590 F       1  UNL1       -0.2055
     33 C         140.3970   82.9170  221.0580 C.ar    1  UNL1       -0.0244
     34 C         140.6990   81.5700  221.0030 C.ar    1  UNL1       -0.0330
     35 C         141.3400   81.0280  219.8870 C.ar    1  UNL1        0.0720
     36 N         141.6300   79.7160  219.8410 N.ar    1  UNL1       -0.2421
     37 H         142.7550   77.5520  220.7750 H       1  UNL1        0.1496
     38 H         143.9655   75.4807  219.0356 H       1  UNL1        0.0558
     39 H         143.5170   75.2845  220.7708 H       1  UNL1        0.0558
     40 H         141.7024   72.0877  220.6242 H       1  UNL1        0.0465
     41 H         142.7016   73.3003  221.4492 H       1  UNL1        0.0465
     42 H         140.4715   71.9631  222.5133 H       1  UNL1        0.0306
     43 H         141.2331   73.4157  223.2028 H       1  UNL1        0.0306
     44 H         139.3707   74.7366  222.5095 H       1  UNL1        0.0612
     45 H         137.9580   73.1750  223.0110 H       1  UNL1        0.2099
     46 H         139.2926   73.2813  219.8414 H       1  UNL1        0.0529
     47 H         139.5549   75.7654  219.1959 H       1  UNL1        0.0332
     48 H         137.9975   74.9209  219.6158 H       1  UNL1        0.0332
     49 H         136.6622   75.7253  221.3610 H       1  UNL1        0.0620
     50 H         136.2424   77.3694  223.1689 H       1  UNL1        0.0618
     51 H         138.1070   78.8337  223.8888 H       1  UNL1        0.0624
     52 H         139.5406   80.1716  224.1951 H       1  UNL1        0.0851
     53 H         143.6610   81.0936  223.9323 H       1  UNL1        0.0845
     54 H         143.9508   79.1869  222.3689 H       1  UNL1        0.0845
     55 H         140.7172   77.0363  221.0567 H       1  UNL1        0.0627
     56 H         143.0737   79.6551  216.8372 H       1  UNL1        0.0641
     57 H         142.5489   82.0746  216.8975 H       1  UNL1        0.0625
     58 H         141.6126   83.9106  218.0771 H       1  UNL1        0.0653
     59 H         139.8896   83.3134  221.9498 H       1  UNL1        0.0647
     60 H         140.4317   80.9175  221.8473 H       1  UNL1        0.0640
@<TRIPOS>BOND
     1     1     2    2
     2     2     3   am
     3     3     4    1
     4     4     5    1
     5     5     6    2
     6     5     7   am
     7     7     8    1
     8     8     9    1
     9     9    10    1
    10    10    11    1
    11    10    12    1
    12    12    13    1
    13    13    14    1
    14    14    15   ar
    15    15    16   ar
    16    16    17   ar
    17    17    18   ar
    18    18    19    1
    19    19    20   ar
    20    20    21   ar
    21    21    22   ar
    22    22    23   ar
    23    23    24   ar
    24    18    25   ar
    25     2    26    1
    26    26    27   ar
    27    27    28   ar
    28    28    29   ar
    29    29    30   ar
    30    30    31   ar
    31    31    32    1
    32    31    33   ar
    33    33    34   ar
    34    34    35   ar
    35    35    36   ar
    36    12     7    1
    37    25    14   ar
    38    36    26   ar
    39    24    19   ar
    40    35    29   ar
    41     3    37    1
    42     4    38    1
    43     4    39    1
    44     8    40    1
    45     8    41    1
    46     9    42    1
    47     9    43    1
    48    10    44    1
    49    11    45    1
    50    12    46    1
    51    13    47    1
    52    13    48    1
    53    15    49    1
    54    16    50    1
    55    17    51    1
    56    20    52    1
    57    22    53    1
    58    23    54    1
    59    25    55    1
    60    27    56    1
    61    28    57    1
    62    30    58    1
    63    33    59    1
    64    34    60    1
