
     RDKit          3D

 77 82  0  0  0  0  0  0  0  0999 V2000
  142.4550   74.0990  217.5170 C   0  0  0  0  0  0  0  0  0  0  0  0
  143.4190   73.2360  218.2680 C   0  0  1  0  0  0  0  0  0  0  0  0
  144.8650   73.4840  217.8180 C   0  0  0  0  0  0  0  0  0  0  0  0
  145.6640   72.4120  218.3390 N   0  0  0  0  0  0  0  0  0  0  0  0
  145.6210   71.2660  217.4800 C   0  0  0  0  0  0  0  0  0  0  0  0
  145.3500   70.0540  218.2760 C   0  0  0  0  0  0  0  0  0  0  0  0
  144.0090   69.6990  218.4360 C   0  0  0  0  0  0  0  0  0  0  0  0
  143.7210   68.5540  219.1620 C   0  0  0  0  0  0  0  0  0  0  0  0
  144.6940   67.7580  219.7260 C   0  0  0  0  0  0  0  0  0  0  0  0
  146.0210   68.1130  219.5630 C   0  0  0  0  0  0  0  0  0  0  0  0
  146.3150   69.2530  218.8410 C   0  0  0  0  0  0  0  0  0  0  0  0
  145.4200   72.1070  219.7150 C   0  0  0  0  0  0  0  0  0  0  0  0
  144.6690   73.2110  220.4240 C   0  0  0  0  0  0  0  0  0  0  0  0
  143.4310   73.4370  219.6960 N   0  0  0  0  0  0  0  0  0  0  0  0
  142.2990   73.8190  220.4640 C   0  0  0  0  0  0  0  0  0  0  0  0
  141.9100   75.0850  220.6380 N   0  0  0  0  0  0  0  0  0  0  0  0
  140.8290   75.4130  221.3360 C   0  0  0  0  0  0  0  0  0  0  0  0
  140.4930   76.7790  221.4830 N   0  0  0  0  0  0  0  0  0  0  0  0
  139.8860   77.3300  222.6850 C   0  0  0  0  0  0  0  0  0  0  0  0
  140.8890   78.3640  223.1800 C   0  0  0  0  0  0  0  0  0  0  0  0
  141.1590   79.3700  222.2190 N   0  0  0  0  0  0  0  0  0  0  0  0
  142.0930   80.6670  222.7830 S   0  0  0  0  0  0  0  0  0  0  0  0
  143.7100   80.1920  223.0660 N   0  0  0  0  0  0  0  0  0  0  0  0
  141.4480   81.1530  224.0740 O   0  0  0  0  0  0  0  0  0  0  0  0
  142.0470   81.8160  221.8250 O   0  0  0  0  0  0  0  0  0  0  0  0
  141.4250   78.9660  220.8880 C   0  0  0  0  0  0  0  0  0  0  0  0
  140.7600   77.7230  220.4110 C   0  0  0  0  0  0  0  0  0  0  0  0
  140.0720   74.4340  221.9050 N   0  0  0  0  0  0  0  0  0  0  0  0
  140.4250   73.1370  221.7560 C   0  0  0  0  0  0  0  0  0  0  0  0
  139.6370   72.0730  222.3330 N   0  0  0  0  0  0  0  0  0  0  0  0
  138.2180   72.2650  222.5900 C   0  0  0  0  0  0  0  0  0  0  0  0
  137.6330   70.8770  222.7560 C   0  0  0  0  0  0  0  0  0  0  0  0
  138.2970   70.2690  223.9350 C   0  0  0  0  0  0  0  0  0  0  0  0
  137.6370   69.7620  225.0250 C   0  0  0  0  0  0  0  0  0  0  0  0
  138.3700   69.1990  226.0780 C   0  0  0  0  0  0  0  0  0  0  0  0
  139.7560   69.1440  226.0360 C   0  0  0  0  0  0  0  0  0  0  0  0
  140.3790   69.6640  224.9240 C   0  0  0  0  0  0  0  0  0  0  0  0
  139.6960   70.2210  223.8780 C   0  0  0  0  0  0  0  0  0  0  0  0
  140.3110   70.8010  222.6600 C   0  0  0  0  0  0  0  0  0  0  0  0
  141.5200   72.8510  221.0470 N   0  0  0  0  0  0  0  0  0  0  0  0
  141.8308   74.6578  218.2299 H   0  0  0  0  0  0  0  0  0  0  0  0
  143.0117   74.8061  216.8845 H   0  0  0  0  0  0  0  0  0  0  0  0
  141.8136   73.4677  216.8845 H   0  0  0  0  0  0  0  0  0  0  0  0
  143.0644   72.2195  218.0423 H   0  0  0  0  0  0  0  0  0  0  0  0
  144.9206   73.4954  216.7195 H   0  0  0  0  0  0  0  0  0  0  0  0
  145.2269   74.4547  218.1879 H   0  0  0  0  0  0  0  0  0  0  0  0
  144.8236   71.3987  216.7340 H   0  0  0  0  0  0  0  0  0  0  0  0
  146.5903   71.1570  216.9715 H   0  0  0  0  0  0  0  0  0  0  0  0
  143.2053   70.3098  217.9990 H   0  0  0  0  0  0  0  0  0  0  0  0
  142.6672   68.2676  219.2940 H   0  0  0  0  0  0  0  0  0  0  0  0
  144.4207   66.8572  220.2951 H   0  0  0  0  0  0  0  0  0  0  0  0
  146.8243   67.5008  219.9988 H   0  0  0  0  0  0  0  0  0  0  0  0
  147.3707   69.5337  218.7117 H   0  0  0  0  0  0  0  0  0  0  0  0
  144.8268   71.1825  219.7724 H   0  0  0  0  0  0  0  0  0  0  0  0
  146.3947   71.9910  220.2115 H   0  0  0  0  0  0  0  0  0  0  0  0
  144.4465   72.9094  221.4582 H   0  0  0  0  0  0  0  0  0  0  0  0
  145.2722   74.1303  220.4560 H   0  0  0  0  0  0  0  0  0  0  0  0
  138.9218   77.8048  222.4509 H   0  0  0  0  0  0  0  0  0  0  0  0
  139.6757   76.5572  223.4390 H   0  0  0  0  0  0  0  0  0  0  0  0
  140.4844   78.8414  224.0846 H   0  0  0  0  0  0  0  0  0  0  0  0
  141.8335   77.8385  223.3842 H   0  0  0  0  0  0  0  0  0  0  0  0
  144.3530   81.0300  223.0580 H   0  0  0  0  0  0  0  0  0  0  0  0
  144.0030   79.5300  222.3170 H   0  0  0  0  0  0  0  0  0  0  0  0
  141.1115   79.7852  220.2242 H   0  0  0  0  0  0  0  0  0  0  0  0
  142.5010   78.7381  220.8695 H   0  0  0  0  0  0  0  0  0  0  0  0
  139.8055   77.9951  219.9368 H   0  0  0  0  0  0  0  0  0  0  0  0
  141.4437   77.2334  219.7019 H   0  0  0  0  0  0  0  0  0  0  0  0
  138.0718   72.8538  223.5076 H   0  0  0  0  0  0  0  0  0  0  0  0
  137.7302   72.8128  221.7703 H   0  0  0  0  0  0  0  0  0  0  0  0
  136.5478   70.9413  222.9241 H   0  0  0  0  0  0  0  0  0  0  0  0
  137.7975   70.2694  221.8539 H   0  0  0  0  0  0  0  0  0  0  0  0
  136.5386   69.7971  225.0723 H   0  0  0  0  0  0  0  0  0  0  0  0
  137.8384   68.7942  226.9518 H   0  0  0  0  0  0  0  0  0  0  0  0
  140.3349   68.7016  226.8601 H   0  0  0  0  0  0  0  0  0  0  0  0
  141.4773   69.6300  224.8743 H   0  0  0  0  0  0  0  0  0  0  0  0
  141.3799   70.9872  222.8409 H   0  0  0  0  0  0  0  0  0  0  0  0
  140.2008   70.0986  221.8207 H   0  0  0  0  0  0  0  0  0  0  0  0
  1  2  1  0
  2  3  1  0
  3  4  1  0
  4  5  1  0
  5  6  1  0
  6  7  2  0
  7  8  1  0
  8  9  2  0
  9 10  1  0
 10 11  2  0
  4 12  1  0
 12 13  1  0
 13 14  1  0
 14 15  1  0
 15 16  2  0
 16 17  1  0
 17 18  1  0
 18 19  1  0
 19 20  1  0
 20 21  1  0
 21 22  1  0
 22 23  1  0
 22 24  2  0
 22 25  2  0
 21 26  1  0
 26 27  1  0
 17 28  2  0
 28 29  1  0
 29 30  1  0
 30 31  1  0
 31 32  1  0
 32 33  1  0
 33 34  2  0
 34 35  1  0
 35 36  2  0
 36 37  1  0
 37 38  2  0
 38 39  1  0
 29 40  2  0
 14  2  1  0
 40 15  1  0
 11  6  1  0
 27 18  1  0
 39 30  1  0
 38 33  1  0
  1 41  1  0
  1 42  1  0
  1 43  1  0
  2 44  1  1
  3 45  1  0
  3 46  1  0
  5 47  1  0
  5 48  1  0
  7 49  1  0
  8 50  1  0
  9 51  1  0
 10 52  1  0
 11 53  1  0
 12 54  1  0
 12 55  1  0
 13 56  1  0
 13 57  1  0
 19 58  1  0
 19 59  1  0
 20 60  1  0
 20 61  1  0
 23 62  1  0
 23 63  1  0
 26 64  1  0
 26 65  1  0
 27 66  1  0
 27 67  1  0
 31 68  1  0
 31 69  1  0
 32 70  1  0
 32 71  1  0
 34 72  1  0
 35 73  1  0
 36 74  1  0
 37 75  1  0
 39 76  1  0
 39 77  1  0
M  END
