
     RDKit          3D

 59 62  0  0  0  0  0  0  0  0999 V2000
  142.9020   77.5120  215.9190 C   0  0  0  0  0  0  0  0  0  0  0  0
  143.8170   76.8350  216.6410 O   0  0  0  0  0  0  0  0  0  0  0  0
  143.4110   76.0850  217.6590 C   0  0  0  0  0  0  0  0  0  0  0  0
  142.8260   76.6730  218.9030 C   0  0  1  0  0  0  0  0  0  0  0  0
  141.3530   76.8670  218.7800 C   0  0  0  0  0  0  0  0  0  0  0  0
  140.8450   76.4350  220.1640 C   0  0  2  0  0  0  0  0  0  0  0  0
  140.9900   77.4920  221.1750 C   0  0  0  0  0  0  0  0  0  0  0  0
  140.3170   77.5560  222.2400 O   0  0  0  0  0  0  0  0  0  0  0  0
  141.9480   78.5560  221.0030 N   0  0  0  0  0  0  0  0  0  0  0  0
  142.0580   79.5900  222.0080 C   0  0  0  0  0  0  0  0  0  0  0  0
  142.9140   79.4290  223.0650 C   0  0  0  0  0  0  0  0  0  0  0  0
  142.9540   80.4900  223.9810 C   0  0  0  0  0  0  0  0  0  0  0  0
  142.1740   81.6130  223.8110 C   0  0  0  0  0  0  0  0  0  0  0  0
  141.3200   81.7400  222.7290 C   0  0  0  0  0  0  0  0  0  0  0  0
  141.2620   80.6930  221.7990 C   0  0  0  0  0  0  0  0  0  0  0  0
  141.6330   75.2740  220.4120 N   0  0  0  0  0  0  0  0  0  0  0  0
  141.2960   73.9750  220.8770 C   0  0  0  0  0  0  0  0  0  0  0  0
  142.1250   73.0550  220.9630 O   0  0  0  0  0  0  0  0  0  0  0  0
  139.8620   73.7460  221.2740 C   0  0  0  0  0  0  0  0  0  0  0  0
  139.8120   72.9850  222.5210 N   0  0  0  0  0  0  0  0  0  0  0  0
  140.0320   71.5620  222.4410 C   0  0  0  0  0  0  0  0  0  0  0  0
  140.2630   70.9770  221.3570 O   0  0  0  0  0  0  0  0  0  0  0  0
  139.9680   70.8300  223.7230 C   0  0  0  0  0  0  0  0  0  0  0  0
  139.2790   69.6210  223.7780 C   0  0  0  0  0  0  0  0  0  0  0  0
  139.1800   68.8840  224.9380 C   0  0  0  0  0  0  0  0  0  0  0  0
  139.7920   69.3870  226.0640 C   0  0  0  0  0  0  0  0  0  0  0  0
  139.7440   68.7140  227.2790 C   0  0  0  0  0  0  0  0  0  0  0  0
  140.3660   69.2450  228.3900 C   0  0  0  0  0  0  0  0  0  0  0  0
  141.0600   70.4630  228.3420 C   0  0  0  0  0  0  0  0  0  0  0  0
  141.0620   71.0740  227.0970 C   0  0  0  0  0  0  0  0  0  0  0  0
  140.4590   70.5720  225.9870 C   0  0  0  0  0  0  0  0  0  0  0  0
  140.5640   71.3090  224.8430 N   0  0  0  0  0  0  0  0  0  0  0  0
  142.9920   75.6670  220.0600 C   0  0  0  0  0  0  0  0  0  0  0  0
  142.2065   78.0266  216.5984 H   0  0  0  0  0  0  0  0  0  0  0  0
  143.4106   78.2530  215.2847 H   0  0  0  0  0  0  0  0  0  0  0  0
  142.3422   76.8090  215.2847 H   0  0  0  0  0  0  0  0  0  0  0  0
  142.6472   75.4055  217.2531 H   0  0  0  0  0  0  0  0  0  0  0  0
  144.3606   75.6707  218.0286 H   0  0  0  0  0  0  0  0  0  0  0  0
  143.3380   77.6313  219.0750 H   0  0  0  0  0  0  0  0  0  0  0  0
  141.1061   77.9194  218.5765 H   0  0  0  0  0  0  0  0  0  0  0  0
  140.9034   76.3007  217.9510 H   0  0  0  0  0  0  0  0  0  0  0  0
  139.7649   76.2310  220.2069 H   0  0  0  0  0  0  0  0  0  0  0  0
  142.5790   78.6140  220.1770 H   0  0  0  0  0  0  0  0  0  0  0  0
  143.5301   78.5260  223.1874 H   0  0  0  0  0  0  0  0  0  0  0  0
  143.6215   80.4244  224.8528 H   0  0  0  0  0  0  0  0  0  0  0  0
  142.2311   82.4254  224.5504 H   0  0  0  0  0  0  0  0  0  0  0  0
  140.7018   82.6409  222.6021 H   0  0  0  0  0  0  0  0  0  0  0  0
  140.5973   80.7514  220.9245 H   0  0  0  0  0  0  0  0  0  0  0  0
  139.3628   74.7157  221.4171 H   0  0  0  0  0  0  0  0  0  0  0  0
  139.3502   73.1807  220.4813 H   0  0  0  0  0  0  0  0  0  0  0  0
  139.6220   73.4680  223.4270 H   0  0  0  0  0  0  0  0  0  0  0  0
  138.7976   69.2416  222.8646 H   0  0  0  0  0  0  0  0  0  0  0  0
  138.6328   67.9301  224.9634 H   0  0  0  0  0  0  0  0  0  0  0  0
  139.2089   67.7559  227.3550 H   0  0  0  0  0  0  0  0  0  0  0  0
  140.3162   68.6967  229.3423 H   0  0  0  0  0  0  0  0  0  0  0  0
  141.5613   70.8977  229.2194 H   0  0  0  0  0  0  0  0  0  0  0  0
  141.5897   72.0343  227.0008 H   0  0  0  0  0  0  0  0  0  0  0  0
  143.4921   76.1417  220.9171 H   0  0  0  0  0  0  0  0  0  0  0  0
  143.6119   74.8046  219.7736 H   0  0  0  0  0  0  0  0  0  0  0  0
  1  2  1  0
  2  3  1  0
  3  4  1  0
  4  5  1  0
  5  6  1  0
  6  7  1  0
  7  8  2  0
  7  9  1  0
  9 10  1  0
 10 11  2  0
 11 12  1  0
 12 13  2  0
 13 14  1  0
 14 15  2  0
  6 16  1  0
 16 17  1  0
 17 18  2  0
 17 19  1  0
 19 20  1  0
 20 21  1  0
 21 22  2  0
 21 23  1  0
 23 24  2  0
 24 25  1  0
 25 26  2  0
 26 27  1  0
 27 28  2  0
 28 29  1  0
 29 30  2  0
 30 31  1  0
 31 32  2  0
 16 33  1  0
 33  4  1  0
 15 10  1  0
 32 23  1  0
 31 26  1  0
  1 34  1  0
  1 35  1  0
  1 36  1  0
  3 37  1  0
  3 38  1  0
  4 39  1  1
  5 40  1  0
  5 41  1  0
  6 42  1  6
  9 43  1  0
 11 44  1  0
 12 45  1  0
 13 46  1  0
 14 47  1  0
 15 48  1  0
 19 49  1  0
 19 50  1  0
 20 51  1  0
 24 52  1  0
 25 53  1  0
 27 54  1  0
 28 55  1  0
 29 56  1  0
 30 57  1  0
 33 58  1  0
 33 59  1  0
M  END
