
     RDKit          3D

 66 71  0  0  0  0  0  0  0  0999 V2000
  146.5380   71.9950  219.9260 O   0  0  0  0  0  0  0  0  0  0  0  0
  145.4610   72.7220  219.4670 C   0  0  0  0  0  0  0  0  0  0  0  0
  145.5110   73.3060  218.2120 C   0  0  0  0  0  0  0  0  0  0  0  0
  144.4650   74.0400  217.7110 C   0  0  0  0  0  0  0  0  0  0  0  0
  143.3250   74.2060  218.4720 C   0  0  0  0  0  0  0  0  0  0  0  0
  143.2600   73.6300  219.7240 C   0  0  0  0  0  0  0  0  0  0  0  0
  142.0400   73.8210  220.5130 C   0  0  0  0  0  0  0  0  0  0  0  0
  141.2690   72.7560  220.8790 N   0  0  0  0  0  0  0  0  0  0  0  0
  140.1470   72.9360  221.6050 C   0  0  0  0  0  0  0  0  0  0  0  0
  139.3280   71.8430  221.9990 N   0  0  0  0  0  0  0  0  0  0  0  0
  139.7510   70.5030  221.6450 C   0  0  0  0  0  0  0  0  0  0  0  0
  139.5150   69.5430  222.7630 C   0  0  0  0  0  0  0  0  0  0  0  0
  138.8950   70.1880  223.8750 N   0  0  0  0  0  0  0  0  0  0  0  0
  138.6990   69.3590  225.0230 C   0  0  0  0  0  0  0  0  0  0  0  0
  139.5180   69.8890  226.1420 C   0  0  0  0  0  0  0  0  0  0  0  0
  140.0940   71.1410  226.0110 C   0  0  0  0  0  0  0  0  0  0  0  0
  140.8610   71.6580  227.0340 C   0  0  0  0  0  0  0  0  0  0  0  0
  141.0980   70.9830  228.2170 C   0  0  0  0  0  0  0  0  0  0  0  0
  140.5140   69.7190  228.3450 C   0  0  0  0  0  0  0  0  0  0  0  0
  139.7430   69.2020  227.3140 C   0  0  0  0  0  0  0  0  0  0  0  0
  137.7020   70.9270  223.5100 C   0  0  0  0  0  0  0  0  0  0  0  0
  138.1120   72.1310  222.7310 C   0  0  0  0  0  0  0  0  0  0  0  0
  139.8460   74.2080  221.9360 N   0  0  0  0  0  0  0  0  0  0  0  0
  140.5590   75.2810  221.6070 C   0  0  0  0  0  0  0  0  0  0  0  0
  140.1260   76.5750  222.0250 N   0  0  0  0  0  0  0  0  0  0  0  0
  138.7680   76.9450  221.7090 C   0  0  0  0  0  0  0  0  0  0  0  0
  138.2040   77.6860  222.9020 C   0  0  0  0  0  0  0  0  0  0  0  0
  139.0580   78.8910  223.1040 C   0  0  0  0  0  0  0  0  0  0  0  0
  138.4520   80.0970  223.3690 C   0  0  0  0  0  0  0  0  0  0  0  0
  139.2560   81.2190  223.5550 C   0  0  0  0  0  0  0  0  0  0  0  0
  140.6170   81.0420  223.4590 C   0  0  0  0  0  0  0  0  0  0  0  0
  141.2130   79.8300  223.1940 C   0  0  0  0  0  0  0  0  0  0  0  0
  140.4140   78.7100  223.0080 C   0  0  0  0  0  0  0  0  0  0  0  0
  141.0670   77.4120  222.7260 C   0  0  0  0  0  0  0  0  0  0  0  0
  141.6800   75.0850  220.8810 N   0  0  0  0  0  0  0  0  0  0  0  0
  144.3160   72.8940  220.2220 C   0  0  0  0  0  0  0  0  0  0  0  0
  146.5100   71.5300  220.8410 H   0  0  0  0  0  0  0  0  0  0  0  0
  146.4153   73.1778  217.5990 H   0  0  0  0  0  0  0  0  0  0  0  0
  144.5344   74.4925  216.7108 H   0  0  0  0  0  0  0  0  0  0  0  0
  142.4779   74.7910  218.0844 H   0  0  0  0  0  0  0  0  0  0  0  0
  139.1847   70.1706  220.7626 H   0  0  0  0  0  0  0  0  0  0  0  0
  140.8298   70.5262  221.4313 H   0  0  0  0  0  0  0  0  0  0  0  0
  138.8613   68.7326  222.4081 H   0  0  0  0  0  0  0  0  0  0  0  0
  140.4863   69.1430  223.0895 H   0  0  0  0  0  0  0  0  0  0  0  0
  137.6363   69.3662  225.3070 H   0  0  0  0  0  0  0  0  0  0  0  0
  139.0024   68.3267  224.7944 H   0  0  0  0  0  0  0  0  0  0  0  0
  139.9399   71.7236  225.0908 H   0  0  0  0  0  0  0  0  0  0  0  0
  141.3056   72.6555  226.9023 H   0  0  0  0  0  0  0  0  0  0  0  0
  141.7148   71.4183  229.0171 H   0  0  0  0  0  0  0  0  0  0  0  0
  140.6660   69.1340  229.2640 H   0  0  0  0  0  0  0  0  0  0  0  0
  139.2943   68.2053  227.4375 H   0  0  0  0  0  0  0  0  0  0  0  0
  137.0460   70.2929  222.8955 H   0  0  0  0  0  0  0  0  0  0  0  0
  137.1551   71.2312  224.4146 H   0  0  0  0  0  0  0  0  0  0  0  0
  137.3134   72.3992  222.0237 H   0  0  0  0  0  0  0  0  0  0  0  0
  138.2895   72.9699  223.4201 H   0  0  0  0  0  0  0  0  0  0  0  0
  138.7536   77.5960  220.8225 H   0  0  0  0  0  0  0  0  0  0  0  0
  138.1657   76.0508  221.4907 H   0  0  0  0  0  0  0  0  0  0  0  0
  137.1648   77.9873  222.7039 H   0  0  0  0  0  0  0  0  0  0  0  0
  138.2031   77.0482  223.7982 H   0  0  0  0  0  0  0  0  0  0  0  0
  137.3565   80.1737  223.4326 H   0  0  0  0  0  0  0  0  0  0  0  0
  138.8207   82.2061  223.7698 H   0  0  0  0  0  0  0  0  0  0  0  0
  141.2656   81.9188  223.6022 H   0  0  0  0  0  0  0  0  0  0  0  0
  142.3082   79.7498  223.1304 H   0  0  0  0  0  0  0  0  0  0  0  0
  141.9589   77.5720  222.1024 H   0  0  0  0  0  0  0  0  0  0  0  0
  141.3755   76.9308  223.6658 H   0  0  0  0  0  0  0  0  0  0  0  0
  144.2462   72.4429  221.2228 H   0  0  0  0  0  0  0  0  0  0  0  0
  1  2  1  0
  2  3  2  0
  3  4  1  0
  4  5  2  0
  5  6  1  0
  6  7  1  0
  7  8  2  0
  8  9  1  0
  9 10  1  0
 10 11  1  0
 11 12  1  0
 12 13  1  0
 13 14  1  0
 14 15  1  0
 15 16  2  0
 16 17  1  0
 17 18  2  0
 18 19  1  0
 19 20  2  0
 13 21  1  0
 21 22  1  0
  9 23  2  0
 23 24  1  0
 24 25  1  0
 25 26  1  0
 26 27  1  0
 27 28  1  0
 28 29  2  0
 29 30  1  0
 30 31  2  0
 31 32  1  0
 32 33  2  0
 33 34  1  0
 24 35  2  0
  6 36  2  0
 36  2  1  0
 35  7  1  0
 22 10  1  0
 34 25  1  0
 20 15  1  0
 33 28  1  0
  1 37  1  0
  3 38  1  0
  4 39  1  0
  5 40  1  0
 11 41  1  0
 11 42  1  0
 12 43  1  0
 12 44  1  0
 14 45  1  0
 14 46  1  0
 16 47  1  0
 17 48  1  0
 18 49  1  0
 19 50  1  0
 20 51  1  0
 21 52  1  0
 21 53  1  0
 22 54  1  0
 22 55  1  0
 26 56  1  0
 26 57  1  0
 27 58  1  0
 27 59  1  0
 29 60  1  0
 30 61  1  0
 31 62  1  0
 32 63  1  0
 34 64  1  0
 34 65  1  0
 36 66  1  0
M  END
