@<TRIPOS>MOLECULE
*****
 58 63 0 0 0
SMALL
GASTEIGER

@<TRIPOS>ATOM
      1 O         137.6560   81.7480  222.5150 O.2     1  UNL1       -0.2680
      2 C         138.1240   81.1510  223.5700 C.2     1  UNL1        0.2672
      3 C         137.4660   81.5630  224.7910 C.ar    1  UNL1        0.1034
      4 C         136.7560   82.7520  224.8820 C.ar    1  UNL1       -0.0214
      5 C         136.2090   82.8960  226.1360 C.ar    1  UNL1        0.0356
      6 C         135.4360   83.8910  226.6990 C.ar    1  UNL1        0.1325
      7 F         135.0560   85.0030  225.9840 F       1  UNL1       -0.2048
      8 C         135.0290   83.7370  228.0330 C.ar    1  UNL1       -0.0257
      9 C         135.4210   82.6020  228.7150 C.ar    1  UNL1       -0.0571
     10 C         136.1930   81.6230  228.1310 C.ar    1  UNL1       -0.0376
     11 C         136.5980   81.7590  226.8260 C.ar    1  UNL1        0.0498
     12 N         137.3420   80.9940  225.9960 N.ar    1  UNL1       -0.3505
     13 N         139.1500   80.2460  223.3670 N.am    1  UNL1       -0.2651
     14 C         138.8820   78.8010  223.0880 C.3     1  UNL1        0.0310
     15 C         140.0010   78.4050  222.1860 C.3     1  UNL1        0.0275
     16 C         139.7090   78.6880  220.7280 C.3     1  UNL1       -0.0278
     17 C         140.4990   77.6420  220.0040 C.3     1  UNL1       -0.0002
     18 N         140.9730   76.6640  220.9290 N.3     1  UNL1       -0.3011
     19 C         140.6060   75.3060  220.6070 C.3     1  UNL1        0.0029
     20 C         141.7610   74.6170  219.8980 C.3     1  UNL1       -0.0146
     21 C         142.8810   74.2320  220.8210 C.3     1  UNL1       -0.0353
     22 C         144.0850   74.9230  220.2440 C.3     1  UNL1       -0.0038
     23 N         143.5260   76.1670  219.7240 N.3     1  UNL1       -0.3157
     24 C         142.3660   75.6760  218.9690 C.3     1  UNL1       -0.0001
     25 C         140.4280   76.9840  222.2360 C.3     1  UNL1        0.0101
     26 C         141.1350   79.2610  222.6780 C.ar    1  UNL1       -0.0170
     27 C         142.5020   79.1350  222.5550 C.ar    1  UNL1       -0.0562
     28 C         143.3210   80.1040  223.1220 C.ar    1  UNL1       -0.0614
     29 C         142.7800   81.1880  223.8050 C.ar    1  UNL1       -0.0600
     30 C         141.4020   81.2540  223.8910 C.ar    1  UNL1       -0.0400
     31 C         140.5590   80.3180  223.3460 C.ar    1  UNL1        0.0404
     32 H         136.6458   83.4792  224.0640 H       1  UNL1        0.0647
     33 H         134.4115   84.5032  228.5245 H       1  UNL1        0.0646
     34 H         135.1055   82.4757  229.7612 H       1  UNL1        0.0619
     35 H         136.4848   80.7336  228.7087 H       1  UNL1        0.0638
     36 H         137.7810   80.0620  226.2330 H       1  UNL1        0.1660
     37 H         138.8989   78.2119  224.0168 H       1  UNL1        0.0478
     38 H         137.8916   78.6283  222.6417 H       1  UNL1        0.0478
     39 H         138.6345   78.5866  220.5153 H       1  UNL1        0.0287
     40 H         139.9774   79.7117  220.4281 H       1  UNL1        0.0287
     41 H         139.8581   77.1547  219.2545 H       1  UNL1        0.0427
     42 H         141.3579   78.1165  219.5069 H       1  UNL1        0.0427
     43 H         140.3688   74.7620  221.5332 H       1  UNL1        0.0430
     44 H         139.7260   75.3134  219.9470 H       1  UNL1        0.0430
     45 H         141.3718   73.7099  219.4124 H       1  UNL1        0.0326
     46 H         142.6821   74.5833  221.8442 H       1  UNL1        0.0281
     47 H         143.0134   73.1424  220.8929 H       1  UNL1        0.0281
     48 H         144.8381   75.1213  221.0208 H       1  UNL1        0.0424
     49 H         144.6049   74.3264  219.4799 H       1  UNL1        0.0424
     50 H         143.1530   76.6600  220.5910 H       1  UNL1        0.1219
     51 H         141.6487   76.4876  218.7772 H       1  UNL1        0.0427
     52 H         142.6346   75.2770  217.9797 H       1  UNL1        0.0427
     53 H         139.5660   76.3370  222.4557 H       1  UNL1        0.0436
     54 H         141.1766   76.8242  223.0259 H       1  UNL1        0.0436
     55 H         142.9379   78.2807  222.0164 H       1  UNL1        0.0621
     56 H         144.4132   80.0123  223.0292 H       1  UNL1        0.0618
     57 H         143.4208   81.9593  224.2571 H       1  UNL1        0.0618
     58 H         140.9557   82.1049  224.4266 H       1  UNL1        0.0636
@<TRIPOS>BOND
     1     1     2    2
     2     2     3    1
     3     3     4   ar
     4     4     5   ar
     5     5     6   ar
     6     6     7    1
     7     6     8   ar
     8     8     9   ar
     9     9    10   ar
    10    10    11   ar
    11    11    12   ar
    12     2    13   am
    13    13    14    1
    14    15    14    1
    15    15    16    1
    16    16    17    1
    17    17    18    1
    18    18    19    1
    19    19    20    1
    20    20    21    1
    21    21    22    1
    22    22    23    1
    23    23    24    1
    24    18    25    1
    25    15    26    1
    26    26    27   ar
    27    27    28   ar
    28    28    29   ar
    29    29    30   ar
    30    30    31   ar
    31    12     3   ar
    32    31    13    1
    33    11     5   ar
    34    25    15    1
    35    31    26   ar
    36    24    20    1
    37     4    32    1
    38     8    33    1
    39     9    34    1
    40    10    35    1
    41    12    36    1
    42    14    37    1
    43    14    38    1
    44    16    39    1
    45    16    40    1
    46    17    41    1
    47    17    42    1
    48    19    43    1
    49    19    44    1
    50    20    45    1
    51    21    46    1
    52    21    47    1
    53    22    48    1
    54    22    49    1
    55    23    50    1
    56    24    51    1
    57    24    52    1
    58    25    53    1
    59    25    54    1
    60    27    55    1
    61    28    56    1
    62    29    57    1
    63    30    58    1
