
     RDKit          3D

 43 46  0  0  0  0  0  0  0  0999 V2000
  140.2120   71.9190  225.0300 O   0  0  0  0  0  0  0  0  0  0  0  0
  139.6240   70.8270  224.9800 C   0  0  0  0  0  0  0  0  0  0  0  0
  139.9050   69.9310  226.0170 C   0  0  0  0  0  0  0  0  0  0  0  0
  140.7880   70.2770  227.0180 C   0  0  0  0  0  0  0  0  0  0  0  0
  141.0660   69.3930  228.0420 C   0  0  0  0  0  0  0  0  0  0  0  0
  140.4660   68.1460  228.0840 C   0  0  0  0  0  0  0  0  0  0  0  0
  139.5870   67.8200  227.0760 C   0  0  0  0  0  0  0  0  0  0  0  0
  139.2980   68.6920  226.0440 C   0  0  0  0  0  0  0  0  0  0  0  0
  138.4560   68.3960  225.0630 N   0  0  0  0  0  0  0  0  0  0  0  0
  138.1940   69.2670  224.0710 C   0  0  0  0  0  0  0  0  0  0  0  0
  137.2620   68.8040  223.0360 C   0  0  0  0  0  0  0  0  0  0  0  0
  135.9650   68.7590  223.2680 C   0  0  0  0  0  0  0  0  0  0  0  0
  135.3100   69.3450  224.4280 C   0  0  0  0  0  0  0  0  0  0  0  0
  135.2720   70.7170  224.6050 C   0  0  0  0  0  0  0  0  0  0  0  0
  134.6660   71.3170  225.6830 C   0  0  0  0  0  0  0  0  0  0  0  0
  134.0610   70.5030  226.6440 C   0  0  0  0  0  0  0  0  0  0  0  0
  134.0960   69.1700  226.4710 N   0  0  0  0  0  0  0  0  0  0  0  0
  134.6920   68.5930  225.4130 C   0  0  0  0  0  0  0  0  0  0  0  0
  138.7490   70.4890  223.9860 N   0  0  0  0  0  0  0  0  0  0  0  0
  138.4580   71.4370  222.9530 C   0  0  0  0  0  0  0  0  0  0  0  0
  139.6190   72.0540  222.3080 C   0  0  0  0  0  0  0  0  0  0  0  0
  139.6390   73.4420  222.1480 C   0  0  0  0  0  0  0  0  0  0  0  0
  140.7120   74.0860  221.5410 C   0  0  0  0  0  0  0  0  0  0  0  0
  141.7960   73.3950  221.0710 C   0  0  0  0  0  0  0  0  0  0  0  0
  141.7930   72.0260  221.2210 C   0  0  0  0  0  0  0  0  0  0  0  0
  140.7190   71.3840  221.8280 C   0  0  0  0  0  0  0  0  0  0  0  0
  141.2742   71.2636  227.0008 H   0  0  0  0  0  0  0  0  0  0  0  0
  141.7725   69.6831  228.8336 H   0  0  0  0  0  0  0  0  0  0  0  0
  140.6848   67.4382  228.8971 H   0  0  0  0  0  0  0  0  0  0  0  0
  139.0993   66.8342  227.0927 H   0  0  0  0  0  0  0  0  0  0  0  0
  137.6501   68.4910  222.0555 H   0  0  0  0  0  0  0  0  0  0  0  0
  135.3324   68.2413  222.5319 H   0  0  0  0  0  0  0  0  0  0  0  0
  135.7488   71.3570  223.8480 H   0  0  0  0  0  0  0  0  0  0  0  0
  134.6575   72.4121  225.7867 H   0  0  0  0  0  0  0  0  0  0  0  0
  133.5669   70.9430  227.5228 H   0  0  0  0  0  0  0  0  0  0  0  0
  134.6887   67.4963  225.3277 H   0  0  0  0  0  0  0  0  0  0  0  0
  137.8750   70.9210  222.1760 H   0  0  0  0  0  0  0  0  0  0  0  0
  137.9183   72.2591  223.4457 H   0  0  0  0  0  0  0  0  0  0  0  0
  138.7881   74.0379  222.5098 H   0  0  0  0  0  0  0  0  0  0  0  0
  140.6888   75.1807  221.4358 H   0  0  0  0  0  0  0  0  0  0  0  0
  142.6387   73.9141  220.5910 H   0  0  0  0  0  0  0  0  0  0  0  0
  142.6470   71.4355  220.8577 H   0  0  0  0  0  0  0  0  0  0  0  0
  140.7513   70.2891  221.9287 H   0  0  0  0  0  0  0  0  0  0  0  0
  1  2  2  0
  2  3  1  0
  3  4  2  0
  4  5  1  0
  5  6  2  0
  6  7  1  0
  7  8  2  0
  8  9  1  0
  9 10  2  0
 10 11  1  0
 11 12  2  0
 12 13  1  0
 13 14  2  0
 14 15  1  0
 15 16  2  0
 16 17  1  0
 17 18  2  0
 10 19  1  0
 19 20  1  0
 20 21  1  0
 21 22  2  0
 22 23  1  0
 23 24  2  0
 24 25  1  0
 25 26  2  0
 19  2  1  0
 26 21  1  0
  8  3  1  0
 18 13  1  0
  4 27  1  0
  5 28  1  0
  6 29  1  0
  7 30  1  0
 11 31  1  0
 12 32  1  0
 14 33  1  0
 15 34  1  0
 16 35  1  0
 18 36  1  0
 20 37  1  0
 20 38  1  0
 22 39  1  0
 23 40  1  0
 24 41  1  0
 25 42  1  0
 26 43  1  0
M  END
