
     RDKit          3D

 55 59  0  0  0  0  0  0  0  0999 V2000
  138.9720   70.3590  221.4190 O   0  0  0  0  0  0  0  0  0  0  0  0
  139.0080   71.0520  222.4790 C   0  0  0  0  0  0  0  0  0  0  0  0
  138.6760   72.4400  222.4010 N   0  0  0  0  0  0  0  0  0  0  0  0
  138.3010   73.0620  221.1350 C   0  0  0  0  0  0  0  0  0  0  0  0
  139.5070   73.3610  220.3300 C   0  0  0  0  0  0  0  0  0  0  0  0
  139.9850   72.4550  219.5740 O   0  0  0  0  0  0  0  0  0  0  0  0
  140.1560   74.6060  220.3590 N   0  0  0  0  0  0  0  0  0  0  0  0
  141.3290   74.7830  219.5300 C   0  0  0  0  0  0  0  0  0  0  0  0
  141.8320   76.2060  219.5390 C   0  0  0  0  0  0  0  0  0  0  0  0
  141.7860   76.8730  220.8660 C   0  0  0  0  0  0  0  0  0  0  0  0
  141.6170   78.3500  220.7770 C   0  0  0  0  0  0  0  0  0  0  0  0
  141.2460   79.1160  219.6820 C   0  0  0  0  0  0  0  0  0  0  0  0
  141.2040   80.4120  219.9950 N   0  0  0  0  0  0  0  0  0  0  0  0
  141.5430   80.5510  221.2990 C   0  0  0  0  0  0  0  0  0  0  0  0
  141.6640   81.6460  222.1430 C   0  0  0  0  0  0  0  0  0  0  0  0
  142.0370   81.5170  223.4720 C   0  0  0  0  0  0  0  0  0  0  0  0
  142.2940   80.2480  223.9630 C   0  0  0  0  0  0  0  0  0  0  0  0
  142.1760   79.1430  223.1310 C   0  0  0  0  0  0  0  0  0  0  0  0
  141.8020   79.2780  221.7940 C   0  0  0  0  0  0  0  0  0  0  0  0
  140.7720   76.3700  221.8180 C   0  0  0  0  0  0  0  0  0  0  0  0
  139.6160   75.6390  221.2160 C   0  0  0  0  0  0  0  0  0  0  0  0
  139.3770   70.4740  223.7750 C   0  0  0  0  0  0  0  0  0  0  0  0
  139.1770   69.1120  223.9440 C   0  0  0  0  0  0  0  0  0  0  0  0
  139.5030   68.4980  225.1420 C   0  0  0  0  0  0  0  0  0  0  0  0
  140.0300   69.3170  226.1390 C   0  0  0  0  0  0  0  0  0  0  0  0
  140.3590   68.7160  227.3400 C   0  0  0  0  0  0  0  0  0  0  0  0
  140.8900   69.4830  228.3720 C   0  0  0  0  0  0  0  0  0  0  0  0
  141.0790   70.8360  228.1770 C   0  0  0  0  0  0  0  0  0  0  0  0
  140.7460   71.4240  226.9710 C   0  0  0  0  0  0  0  0  0  0  0  0
  140.2120   70.6680  225.9270 C   0  0  0  0  0  0  0  0  0  0  0  0
  139.8910   71.2390  224.7630 N   0  0  0  0  0  0  0  0  0  0  0  0
  138.7150   72.9890  223.3000 H   0  0  0  0  0  0  0  0  0  0  0  0
  137.6507   72.3758  220.5726 H   0  0  0  0  0  0  0  0  0  0  0  0
  137.7686   74.0018  221.3429 H   0  0  0  0  0  0  0  0  0  0  0  0
  142.1272   74.1241  219.9024 H   0  0  0  0  0  0  0  0  0  0  0  0
  141.0490   74.5333  218.4959 H   0  0  0  0  0  0  0  0  0  0  0  0
  142.8763   76.2023  219.1935 H   0  0  0  0  0  0  0  0  0  0  0  0
  141.1602   76.7769  218.8812 H   0  0  0  0  0  0  0  0  0  0  0  0
  142.7772   76.6113  221.2649 H   0  0  0  0  0  0  0  0  0  0  0  0
  141.0166   78.7084  218.6864 H   0  0  0  0  0  0  0  0  0  0  0  0
  140.9520   81.2150  219.3530 H   0  0  0  0  0  0  0  0  0  0  0  0
  141.4570   82.6500  221.7441 H   0  0  0  0  0  0  0  0  0  0  0  0
  142.1266   82.4010  224.1205 H   0  0  0  0  0  0  0  0  0  0  0  0
  142.5920   80.1154  225.0135 H   0  0  0  0  0  0  0  0  0  0  0  0
  142.3816   78.1405  223.5343 H   0  0  0  0  0  0  0  0  0  0  0  0
  141.2760   75.6861  222.5168 H   0  0  0  0  0  0  0  0  0  0  0  0
  140.3429   77.2636  222.2948 H   0  0  0  0  0  0  0  0  0  0  0  0
  139.0028   75.1868  222.0094 H   0  0  0  0  0  0  0  0  0  0  0  0
  138.9786   76.3268  220.6409 H   0  0  0  0  0  0  0  0  0  0  0  0
  138.7566   68.5153  223.1210 H   0  0  0  0  0  0  0  0  0  0  0  0
  139.3537   67.4195  225.2985 H   0  0  0  0  0  0  0  0  0  0  0  0
  140.2016   67.6362  227.4788 H   0  0  0  0  0  0  0  0  0  0  0  0
  141.1561   69.0165  229.3320 H   0  0  0  0  0  0  0  0  0  0  0  0
  141.4977   71.4511  228.9871 H   0  0  0  0  0  0  0  0  0  0  0  0
  140.9044   72.5037  226.8324 H   0  0  0  0  0  0  0  0  0  0  0  0
  1  2  2  0
  2  3  1  0
  3  4  1  0
  4  5  1  0
  5  6  2  0
  5  7  1  0
  7  8  1  0
  8  9  1  0
  9 10  1  0
 10 11  1  0
 11 12  2  0
 12 13  1  0
 13 14  1  0
 14 15  2  0
 15 16  1  0
 16 17  2  0
 17 18  1  0
 18 19  2  0
 10 20  1  0
 20 21  1  0
  2 22  1  0
 22 23  2  0
 23 24  1  0
 24 25  2  0
 25 26  1  0
 26 27  2  0
 27 28  1  0
 28 29  2  0
 29 30  1  0
 30 31  2  0
 21  7  1  0
 31 22  1  0
 19 11  1  0
 30 25  1  0
 19 14  1  0
  3 32  1  0
  4 33  1  0
  4 34  1  0
  8 35  1  0
  8 36  1  0
  9 37  1  0
  9 38  1  0
 10 39  1  0
 12 40  1  0
 13 41  1  0
 15 42  1  0
 16 43  1  0
 17 44  1  0
 18 45  1  0
 20 46  1  0
 20 47  1  0
 21 48  1  0
 21 49  1  0
 23 50  1  0
 24 51  1  0
 26 52  1  0
 27 53  1  0
 28 54  1  0
 29 55  1  0
M  END
