@<TRIPOS>MOLECULE
*****
 64 68 0 0 0
SMALL
GASTEIGER

@<TRIPOS>ATOM
      1 O         140.0070   70.8070  221.1160 O.2     1  UNL1       -0.2685
      2 C         139.8430   71.3660  222.2420 C.2     1  UNL1        0.2628
      3 N         139.7100   72.7750  222.3360 N.am    1  UNL1       -0.3015
      4 C         139.7570   73.6160  221.1610 C.3     1  UNL1        0.0887
      5 C         139.8520   75.0480  221.5630 C.2     1  UNL1        0.2331
      6 O         139.4350   75.3470  222.7120 O.2     1  UNL1       -0.2739
      7 N         140.3970   75.9980  220.6550 N.am    1  UNL1       -0.2943
      8 C         139.9310   76.2380  219.2810 C.3     1  UNL1        0.0411
      9 C         141.1050   76.7410  218.5150 C.3     1  UNL1        0.0726
     10 O         141.7090   75.6900  217.7920 O.3     1  UNL1       -0.3902
     11 C         142.0930   77.2340  219.5470 C.3     1  UNL1       -0.0064
     12 C         141.4880   76.9050  220.8710 C.3     1  UNL1        0.0313
     13 C         141.0600   78.1890  221.5310 C.3     1  UNL1       -0.0222
     14 C         141.4910   78.3010  222.9700 C.3     1  UNL1       -0.0480
     15 C         140.6520   79.3800  223.5910 C.3     1  UNL1       -0.0459
     16 C         140.6050   80.6630  222.8210 C.3     1  UNL1       -0.0144
     17 C         139.2660   81.2600  223.1050 C.ar    1  UNL1       -0.0262
     18 C         138.7010   82.2170  222.2670 C.ar    1  UNL1       -0.0554
     19 C         137.4520   82.7710  222.5370 C.ar    1  UNL1       -0.0433
     20 C         136.7430   82.3720  223.6580 C.ar    1  UNL1        0.0276
     21 N         137.3080   81.4520  224.4460 N.ar    1  UNL1       -0.2630
     22 C         138.5120   80.9040  224.2050 C.ar    1  UNL1        0.0310
     23 C         140.7500   80.5700  221.3540 C.3     1  UNL1       -0.0459
     24 C         141.5760   79.4290  220.8320 C.3     1  UNL1       -0.0480
     25 C         139.7910   70.5440  223.4540 C.ar    1  UNL1        0.1260
     26 C         139.1800   69.3080  223.4210 C.ar    1  UNL1       -0.0306
     27 C         139.1630   68.5780  224.6000 C.ar    1  UNL1       -0.0503
     28 C         139.7270   69.0470  225.7680 C.ar    1  UNL1        0.0031
     29 C         139.7180   68.3290  226.9500 C.ar    1  UNL1       -0.0173
     30 C         140.2930   68.8280  228.1030 C.ar    1  UNL1        0.1241
     31 F         140.2960   68.1450  229.2760 F       1  UNL1       -0.2055
     32 C         140.8980   70.0820  228.0870 C.ar    1  UNL1       -0.0244
     33 C         140.9070   70.7900  226.9160 C.ar    1  UNL1       -0.0330
     34 C         140.3320   70.3010  225.7450 C.ar    1  UNL1        0.0720
     35 N         140.3410   70.9990  224.5950 N.ar    1  UNL1       -0.2421
     36 H         139.5760   73.1670  223.3060 H       1  UNL1        0.1496
     37 H         140.6360   73.3483  220.5562 H       1  UNL1        0.0558
     38 H         138.8398   73.4661  220.5725 H       1  UNL1        0.0558
     39 H         139.5608   75.3022  218.8369 H       1  UNL1        0.0490
     40 H         139.1052   76.9645  219.2635 H       1  UNL1        0.0490
     41 H         140.8010   77.5245  217.8053 H       1  UNL1        0.0609
     42 H         142.6910   75.7930  217.8720 H       1  UNL1        0.2098
     43 H         143.0595   76.7222  219.4286 H       1  UNL1        0.0309
     44 H         142.2853   78.3121  219.4440 H       1  UNL1        0.0309
     45 H         142.2046   76.4103  221.5431 H       1  UNL1        0.0504
     46 H         139.9631   78.1401  221.4644 H       1  UNL1        0.0319
     47 H         142.5562   78.5698  223.0265 H       1  UNL1        0.0269
     48 H         141.3583   77.3449  223.4975 H       1  UNL1        0.0269
     49 H         141.0577   79.5958  224.5904 H       1  UNL1        0.0271
     50 H         139.6216   78.9955  223.6134 H       1  UNL1        0.0271
     51 H         141.4742   81.2525  223.1481 H       1  UNL1        0.0349
     52 H         139.2525   82.5426  221.3727 H       1  UNL1        0.0621
     53 H         137.0280   83.5264  221.8591 H       1  UNL1        0.0633
     54 H         135.7546   82.7953  223.8904 H       1  UNL1        0.0829
     55 H         138.9068   80.1515  224.9035 H       1  UNL1        0.0832
     56 H         141.2127   81.5047  221.0042 H       1  UNL1        0.0271
     57 H         139.7339   80.3916  220.9723 H       1  UNL1        0.0271
     58 H         142.6388   79.5868  221.0678 H       1  UNL1        0.0269
     59 H         141.4954   79.3392  219.7386 H       1  UNL1        0.0269
     60 H         138.7254   68.9177  222.4985 H       1  UNL1        0.0641
     61 H         138.6821   67.5887  224.6038 H       1  UNL1        0.0625
     62 H         139.2420   67.3376  226.9727 H       1  UNL1        0.0653
     63 H         141.3590   70.4948  228.9965 H       1  UNL1        0.0647
     64 H         141.3852   71.7804  226.8986 H       1  UNL1        0.0640
@<TRIPOS>BOND
     1     1     2    2
     2     2     3   am
     3     3     4    1
     4     4     5    1
     5     5     6    2
     6     5     7   am
     7     7     8    1
     8     8     9    1
     9     9    10    1
    10     9    11    1
    11    11    12    1
    12    12    13    1
    13    13    14    1
    14    14    15    1
    15    15    16    1
    16    16    17    1
    17    17    18   ar
    18    18    19   ar
    19    19    20   ar
    20    20    21   ar
    21    21    22   ar
    22    16    23    1
    23    23    24    1
    24     2    25    1
    25    25    26   ar
    26    26    27   ar
    27    27    28   ar
    28    28    29   ar
    29    29    30   ar
    30    30    31    1
    31    30    32   ar
    32    32    33   ar
    33    33    34   ar
    34    34    35   ar
    35    12     7    1
    36    24    13    1
    37    35    25   ar
    38    22    17   ar
    39    34    28   ar
    40     3    36    1
    41     4    37    1
    42     4    38    1
    43     8    39    1
    44     8    40    1
    45     9    41    1
    46    10    42    1
    47    11    43    1
    48    11    44    1
    49    12    45    1
    50    13    46    1
    51    14    47    1
    52    14    48    1
    53    15    49    1
    54    15    50    1
    55    16    51    1
    56    18    52    1
    57    19    53    1
    58    20    54    1
    59    22    55    1
    60    23    56    1
    61    23    57    1
    62    24    58    1
    63    24    59    1
    64    26    60    1
    65    27    61    1
    66    29    62    1
    67    32    63    1
    68    33    64    1
