
 71 76  0  0  0  0  0  0  0  0999 V2000
  146.0750   73.4180  218.6780 N   0  0  0  0  0  0  0  0  0  0  0  0
  145.4120   72.6450  220.0910 S   0  0  0  0  0  0  0  0  0  0  0  0
  145.4060   71.1710  219.8840 O   0  0  0  0  0  0  0  0  0  0  0  0
  146.3360   72.9750  221.2320 O   0  0  0  0  0  0  0  0  0  0  0  0
  143.8020   73.2290  220.3700 C   0  0  0  0  0  0  0  0  0  0  0  0
  142.8190   72.3810  220.8660 C   0  0  0  0  0  0  0  0  0  0  0  0
  141.5230   72.8540  221.0900 C   0  0  0  0  0  0  0  0  0  0  0  0
  141.1660   74.1600  220.8330 C   0  0  0  0  0  0  0  0  0  0  0  0
  142.1710   74.9880  220.3360 C   0  0  0  0  0  0  0  0  0  0  0  0
  143.4550   74.5380  220.1110 C   0  0  0  0  0  0  0  0  0  0  0  0
  141.7680   76.4120  220.0610 C   0  0  0  0  0  0  0  0  0  0  0  0
  141.0360   76.8440  221.3310 C   0  0  0  0  0  0  0  0  0  0  0  0
  139.8120   76.0840  221.4470 N   0  0  0  0  0  0  0  0  0  0  0  0
  138.6000   76.6520  221.9300 C   0  0  0  0  0  0  0  0  0  0  0  0
  138.2580   77.9250  221.6610 N   0  0  0  0  0  0  0  0  0  0  0  0
  137.1360   78.5010  222.0900 C   0  0  0  0  0  0  0  0  0  0  0  0
  136.8100   79.8550  221.7830 N   0  0  0  0  0  0  0  0  0  0  0  0
  137.7080   80.9060  222.1780 C   0  0  0  0  0  0  0  0  0  0  0  0
  137.8590   80.8300  223.6680 C   0  0  0  0  0  0  0  0  0  0  0  0
  138.8310   80.1450  224.2420 C   0  0  0  0  0  0  0  0  0  0  0  0
  140.2000   80.1100  223.7640 C   0  0  0  0  0  0  0  0  0  0  0  0
  140.7680   81.2350  223.1610 C   0  0  0  0  0  0  0  0  0  0  0  0
  142.0650   81.2420  222.6940 C   0  0  0  0  0  0  0  0  0  0  0  0
  142.8740   80.1120  222.8060 C   0  0  0  0  0  0  0  0  0  0  0  0
  142.3190   78.9970  223.4010 C   0  0  0  0  0  0  0  0  0  0  0  0
  141.0210   79.0080  223.8620 C   0  0  0  0  0  0  0  0  0  0  0  0
  136.3020   77.7470  222.8390 N   0  0  0  0  0  0  0  0  0  0  0  0
  136.5860   76.4670  223.1430 C   0  0  0  0  0  0  0  0  0  0  0  0
  135.6730   75.7170  223.9350 N   0  0  0  0  0  0  0  0  0  0  0  0
  135.7860   74.2740  223.9400 C   0  0  0  0  0  0  0  0  0  0  0  0
  134.3900   73.6580  224.0840 C   0  0  0  0  0  0  0  0  0  0  0  0
  133.7830   74.2180  225.3000 C   0  0  0  0  0  0  0  0  0  0  0  0
  133.0690   73.3680  226.1400 C   0  0  0  0  0  0  0  0  0  0  0  0
  132.4950   73.8800  227.2840 C   0  0  0  0  0  0  0  0  0  0  0  0
  132.6450   75.2200  227.5610 C   0  0  0  0  0  0  0  0  0  0  0  0
  133.3400   76.0680  226.7490 C   0  0  0  0  0  0  0  0  0  0  0  0
  133.9160   75.5490  225.6010 C   0  0  0  0  0  0  0  0  0  0  0  0
  134.6810   76.4370  224.6930 C   0  0  0  0  0  0  0  0  0  0  0  0
  137.7350   75.9410  222.6810 N   0  0  0  0  0  0  0  0  0  0  0  0
  139.8080   74.6850  221.0590 C   0  0  0  0  0  0  0  0  0  0  0  0
  145.3590   74.1210  218.3360 H   0  0  0  0  0  0  0  0  0  0  0  0
  146.8700   74.0270  219.0330 H   0  0  0  0  0  0  0  0  0  0  0  0
  143.0625   71.3306  221.0837 H   0  0  0  0  0  0  0  0  0  0  0  0
  140.7640   72.1620  221.4838 H   0  0  0  0  0  0  0  0  0  0  0  0
  144.2126   75.2328  219.7196 H   0  0  0  0  0  0  0  0  0  0  0  0
  142.6530   77.0417  219.8870 H   0  0  0  0  0  0  0  0  0  0  0  0
  141.1436   76.5077  219.1605 H   0  0  0  0  0  0  0  0  0  0  0  0
  141.6732   76.6540  222.2073 H   0  0  0  0  0  0  0  0  0  0  0  0
  140.8045   77.9182  221.2808 H   0  0  0  0  0  0  0  0  0  0  0  0
  135.9120   80.0340  221.2720 H   0  0  0  0  0  0  0  0  0  0  0  0
  138.6857   80.7672  221.6934 H   0  0  0  0  0  0  0  0  0  0  0  0
  137.3134   81.8877  221.8770 H   0  0  0  0  0  0  0  0  0  0  0  0
  137.1362   81.3624  224.3037 H   0  0  0  0  0  0  0  0  0  0  0  0
  138.5863   79.5623  225.1423 H   0  0  0  0  0  0  0  0  0  0  0  0
  140.1600   82.1456  223.0553 H   0  0  0  0  0  0  0  0  0  0  0  0
  142.4676   82.1525  222.2261 H   0  0  0  0  0  0  0  0  0  0  0  0
  143.9099   80.1092  222.4361 H   0  0  0  0  0  0  0  0  0  0  0  0
  142.9234   78.0843  223.5089 H   0  0  0  0  0  0  0  0  0  0  0  0
  140.6220   78.0957  224.3295 H   0  0  0  0  0  0  0  0  0  0  0  0
  136.2407   73.9376  222.9966 H   0  0  0  0  0  0  0  0  0  0  0  0
  136.4180   73.9564  224.7825 H   0  0  0  0  0  0  0  0  0  0  0  0
  133.7758   73.9106  223.2071 H   0  0  0  0  0  0  0  0  0  0  0  0
  134.4554   72.5621  224.1531 H   0  0  0  0  0  0  0  0  0  0  0  0
  132.9641   72.3010  225.8939 H   0  0  0  0  0  0  0  0  0  0  0  0
  131.9266   73.2286  227.9641 H   0  0  0  0  0  0  0  0  0  0  0  0
  132.1854   75.6239  228.4751 H   0  0  0  0  0  0  0  0  0  0  0  0
  133.4402   77.1345  226.9990 H   0  0  0  0  0  0  0  0  0  0  0  0
  133.9804   76.9168  223.9937 H   0  0  0  0  0  0  0  0  0  0  0  0
  135.2036   77.1821  225.3109 H   0  0  0  0  0  0  0  0  0  0  0  0
  139.3311   74.0983  221.8580 H   0  0  0  0  0  0  0  0  0  0  0  0
  139.2547   74.6016  220.1120 H   0  0  0  0  0  0  0  0  0  0  0  0
  1  2  1  0
  2  3  2  0
  2  4  2  0
  2  5  1  0
  5  6  2  0
  6  7  1  0
  7  8  2  0
  8  9  1  0
  9 10  2  0
  9 11  1  0
 11 12  1  0
 12 13  1  0
 13 14  1  0
 14 15  2  0
 15 16  1  0
 16 17  1  0
 17 18  1  0
 18 19  1  0
 19 20  2  0
 20 21  1  0
 21 22  2  0
 22 23  1  0
 23 24  2  0
 24 25  1  0
 25 26  2  0
 16 27  2  0
 27 28  1  0
 28 29  1  0
 29 30  1  0
 30 31  1  0
 31 32  1  0
 32 33  2  0
 33 34  1  0
 34 35  2  0
 35 36  1  0
 36 37  2  0
 37 38  1  0
 28 39  2  0
 13 40  1  0
 10  5  1  0
 39 14  1  0
 40  8  1  0
 26 21  1  0
 38 29  1  0
 37 32  1  0
  1 41  1  0
  1 42  1  0
  6 43  1  0
  7 44  1  0
 10 45  1  0
 11 46  1  0
 11 47  1  0
 12 48  1  0
 12 49  1  0
 17 50  1  0
 18 51  1  0
 18 52  1  0
 19 53  1  0
 20 54  1  0
 22 55  1  0
 23 56  1  0
 24 57  1  0
 25 58  1  0
 26 59  1  0
 30 60  1  0
 30 61  1  0
 31 62  1  0
 31 63  1  0
 33 64  1  0
 34 65  1  0
 35 66  1  0
 36 67  1  0
 38 68  1  0
 38 69  1  0
 40 70  1  0
 40 71  1  0
M  END
