
 62 65  0  0  0  0  0  0  0  0999 V2000
  144.5700   74.3810  216.3220 C   0  0  0  0  0  0  0  0  0  0  0  0
  143.3360   73.8060  216.5040 O   0  0  0  0  0  0  0  0  0  0  0  0
  142.5820   74.6240  217.3420 C   0  0  1  0  0  0  0  0  0  0  0  0
  141.2480   73.9810  217.6670 C   0  0  0  0  0  0  0  0  0  0  0  0
  140.5120   75.0370  218.5080 C   0  0  0  0  0  0  0  0  0  0  0  0
  141.2760   75.0010  219.8010 N   0  0  0  0  0  0  0  0  0  0  0  0
  140.5520   74.5170  220.8790 C   0  0  0  0  0  0  0  0  0  0  0  0
  140.6940   75.2760  221.9590 O   0  0  0  0  0  0  0  0  0  0  0  0
  139.6890   73.3840  221.0960 C   0  0  0  0  0  0  0  0  0  0  0  0
  139.6050   72.7720  222.3890 N   0  0  0  0  0  0  0  0  0  0  0  0
  140.0350   71.4010  222.4880 C   0  0  0  0  0  0  0  0  0  0  0  0
  140.4410   70.8850  221.4130 O   0  0  0  0  0  0  0  0  0  0  0  0
  140.0030   70.6670  223.7440 C   0  0  0  0  0  0  0  0  0  0  0  0
  139.3410   69.4610  223.7600 C   0  0  0  0  0  0  0  0  0  0  0  0
  139.2350   68.6650  224.8870 C   0  0  0  0  0  0  0  0  0  0  0  0
  139.8500   69.1630  226.0340 C   0  0  0  0  0  0  0  0  0  0  0  0
  139.7510   68.3740  227.1680 C   0  0  0  0  0  0  0  0  0  0  0  0
  140.3540   68.8510  228.3180 C   0  0  0  0  0  0  0  0  0  0  0  0
  140.2520   68.0740  229.4210 F   0  0  0  0  0  0  0  0  0  0  0  0
  141.0320   70.0710  228.3350 C   0  0  0  0  0  0  0  0  0  0  0  0
  141.1110   70.8310  227.1840 C   0  0  0  0  0  0  0  0  0  0  0  0
  140.5170   70.3750  226.0270 C   0  0  0  0  0  0  0  0  0  0  0  0
  140.5800   71.1060  224.8780 N   0  0  0  0  0  0  0  0  0  0  0  0
  142.5940   75.5210  219.7020 C   0  0  2  0  0  0  0  0  0  0  0  0
  142.5740   77.0200  219.4370 C   0  0  0  0  0  0  0  0  0  0  0  0
  143.2190   77.5230  218.4870 O   0  0  0  0  0  0  0  0  0  0  0  0
  141.8200   77.8690  220.2690 N   0  0  0  0  0  0  0  0  0  0  0  0
  141.7130   79.2950  220.1290 C   0  0  0  0  0  0  0  0  0  0  0  0
  141.8510   80.0530  221.3780 C   0  0  0  0  0  0  0  0  0  0  0  0
  142.4920   79.4210  222.4410 C   0  0  0  0  0  0  0  0  0  0  0  0
  142.6480   80.0880  223.6360 C   0  0  0  0  0  0  0  0  0  0  0  0
  142.1800   81.3810  223.8050 C   0  0  0  0  0  0  0  0  0  0  0  0
  142.3380   82.0360  224.9950 F   0  0  0  0  0  0  0  0  0  0  0  0
  141.5440   82.0190  222.7630 C   0  0  0  0  0  0  0  0  0  0  0  0
  141.3970   81.3370  221.5790 C   0  0  0  0  0  0  0  0  0  0  0  0
  143.3480   74.7890  218.6170 C   0  0  0  0  0  0  0  0  0  0  0  0
  145.0240   74.5925  217.3014 H   0  0  0  0  0  0  0  0  0  0  0  0
  145.2165   73.6914  215.7594 H   0  0  0  0  0  0  0  0  0  0  0  0
  144.4578   75.3196  215.7594 H   0  0  0  0  0  0  0  0  0  0  0  0
  142.3966   75.5877  216.8451 H   0  0  0  0  0  0  0  0  0  0  0  0
  140.6889   73.7570  216.7466 H   0  0  0  0  0  0  0  0  0  0  0  0
  141.3609   73.0246  218.1985 H   0  0  0  0  0  0  0  0  0  0  0  0
  140.5681   76.0304  218.0390 H   0  0  0  0  0  0  0  0  0  0  0  0
  139.4365   74.8377  218.6247 H   0  0  0  0  0  0  0  0  0  0  0  0
  138.6711   73.7082  220.8338 H   0  0  0  0  0  0  0  0  0  0  0  0
  140.1512   72.5988  220.4797 H   0  0  0  0  0  0  0  0  0  0  0  0
  139.2560   73.2510  223.2570 H   0  0  0  0  0  0  0  0  0  0  0  0
  138.8716   69.1114  222.8286 H   0  0  0  0  0  0  0  0  0  0  0  0
  138.7009   67.7034  224.8780 H   0  0  0  0  0  0  0  0  0  0  0  0
  139.2174   67.4122  227.1548 H   0  0  0  0  0  0  0  0  0  0  0  0
  141.5027   70.4267  229.2634 H   0  0  0  0  0  0  0  0  0  0  0  0
  141.6441   71.7931  227.1910 H   0  0  0  0  0  0  0  0  0  0  0  0
  143.1092   75.3649  220.6612 H   0  0  0  0  0  0  0  0  0  0  0  0
  141.2930   77.3880  221.0620 H   0  0  0  0  0  0  0  0  0  0  0  0
  142.5004   79.6300  219.4378 H   0  0  0  0  0  0  0  0  0  0  0  0
  140.6954   79.4922  219.7606 H   0  0  0  0  0  0  0  0  0  0  0  0
  142.8715   78.3949  222.3267 H   0  0  0  0  0  0  0  0  0  0  0  0
  143.1541   79.5841  224.4726 H   0  0  0  0  0  0  0  0  0  0  0  0
  141.1645   83.0453  222.8754 H   0  0  0  0  0  0  0  0  0  0  0  0
  140.8887   81.8450  220.7462 H   0  0  0  0  0  0  0  0  0  0  0  0
  144.2676   75.3510  218.3967 H   0  0  0  0  0  0  0  0  0  0  0  0
  143.5481   73.7770  218.9988 H   0  0  0  0  0  0  0  0  0  0  0  0
  1  2  1  0
  2  3  1  0
  3  4  1  0
  4  5  1  0
  5  6  1  0
  6  7  1  0
  7  8  2  0
  7  9  1  0
  9 10  1  0
 10 11  1  0
 11 12  2  0
 11 13  1  0
 13 14  2  0
 14 15  1  0
 15 16  2  0
 16 17  1  0
 17 18  2  0
 18 19  1  0
 18 20  1  0
 20 21  2  0
 21 22  1  0
 22 23  2  0
  6 24  1  0
 24 25  1  0
 25 26  2  0
 25 27  1  0
 27 28  1  0
 28 29  1  0
 29 30  2  0
 30 31  1  0
 31 32  2  0
 32 33  1  0
 32 34  1  0
 34 35  2  0
 24 36  1  0
 36  3  1  0
 23 13  1  0
 35 29  1  0
 22 16  1  0
  1 37  1  0
  1 38  1  0
  1 39  1  0
  3 40  1  6
  4 41  1  0
  4 42  1  0
  5 43  1  0
  5 44  1  0
  9 45  1  0
  9 46  1  0
 10 47  1  0
 14 48  1  0
 15 49  1  0
 17 50  1  0
 20 51  1  0
 21 52  1  0
 24 53  1  1
 27 54  1  0
 28 55  1  0
 28 56  1  0
 30 57  1  0
 31 58  1  0
 34 59  1  0
 35 60  1  0
 36 61  1  0
 36 62  1  0
M  END
