@<TRIPOS>MOLECULE
*****
 66 71 0 0 0
SMALL
GASTEIGER

@<TRIPOS>ATOM
      1 O         146.5380   71.9950  219.9260 O.3     1  UNL1       -0.5067
      2 C         145.4610   72.7220  219.4670 C.ar    1  UNL1        0.1175
      3 C         145.5110   73.3060  218.2120 C.ar    1  UNL1       -0.0201
      4 C         144.4650   74.0400  217.7110 C.ar    1  UNL1       -0.0576
      5 C         143.3250   74.2060  218.4720 C.ar    1  UNL1       -0.0508
      6 C         143.2600   73.6300  219.7240 C.ar    1  UNL1        0.0228
      7 C         142.0400   73.8210  220.5130 C.ar    1  UNL1        0.1669
      8 N         141.2690   72.7560  220.8790 N.ar    1  UNL1       -0.1945
      9 C         140.1470   72.9360  221.6050 C.ar    1  UNL1        0.2227
     10 N         139.3280   71.8430  221.9990 N.pl3   1  UNL1       -0.2971
     11 C         139.7510   70.5030  221.6450 C.3     1  UNL1        0.0277
     12 C         139.5150   69.5430  222.7630 C.3     1  UNL1        0.0151
     13 N         138.8950   70.1880  223.8750 N.3     1  UNL1       -0.2952
     14 C         138.6990   69.3590  225.0230 C.3     1  UNL1        0.0241
     15 C         139.5180   69.8890  226.1420 C.ar    1  UNL1       -0.0334
     16 C         140.0940   71.1410  226.0110 C.ar    1  UNL1       -0.0573
     17 C         140.8610   71.6580  227.0340 C.ar    1  UNL1       -0.0615
     18 C         141.0980   70.9830  228.2170 C.ar    1  UNL1       -0.0617
     19 C         140.5140   69.7190  228.3450 C.ar    1  UNL1       -0.0615
     20 C         139.7430   69.2020  227.3140 C.ar    1  UNL1       -0.0573
     21 C         137.7020   70.9270  223.5100 C.3     1  UNL1        0.0151
     22 C         138.1120   72.1310  222.7310 C.3     1  UNL1        0.0277
     23 N         139.8460   74.2080  221.9360 N.ar    1  UNL1       -0.1808
     24 C         140.5590   75.2810  221.6070 C.ar    1  UNL1        0.2230
     25 N         140.1260   76.5750  222.0250 N.pl3   1  UNL1       -0.2949
     26 C         138.7680   76.9450  221.7090 C.3     1  UNL1        0.0192
     27 C         138.2040   77.6860  222.9020 C.3     1  UNL1       -0.0115
     28 C         139.0580   78.8910  223.1040 C.ar    1  UNL1       -0.0412
     29 C         138.4520   80.0970  223.3690 C.ar    1  UNL1       -0.0582
     30 C         139.2560   81.2190  223.5550 C.ar    1  UNL1       -0.0615
     31 C         140.6170   81.0420  223.4590 C.ar    1  UNL1       -0.0614
     32 C         141.2130   79.8300  223.1940 C.ar    1  UNL1       -0.0568
     33 C         140.4140   78.7100  223.0080 C.ar    1  UNL1       -0.0269
     34 C         141.0670   77.4120  222.7260 C.3     1  UNL1        0.0402
     35 N         141.6800   75.0850  220.8810 N.ar    1  UNL1       -0.1945
     36 C         144.3160   72.8940  220.2220 C.ar    1  UNL1       -0.0095
     37 H         146.5100   71.5300  220.8410 H       1  UNL1        0.2921
     38 H         146.4153   73.1778  217.5990 H       1  UNL1        0.0654
     39 H         144.5344   74.4925  216.7108 H       1  UNL1        0.0619
     40 H         142.4779   74.7910  218.0844 H       1  UNL1        0.0625
     41 H         139.1847   70.1706  220.7626 H       1  UNL1        0.0477
     42 H         140.8298   70.5262  221.4313 H       1  UNL1        0.0477
     43 H         138.8613   68.7326  222.4081 H       1  UNL1        0.0442
     44 H         140.4863   69.1430  223.0895 H       1  UNL1        0.0442
     45 H         137.6363   69.3662  225.3070 H       1  UNL1        0.0476
     46 H         139.0024   68.3267  224.7944 H       1  UNL1        0.0476
     47 H         139.9399   71.7236  225.0908 H       1  UNL1        0.0621
     48 H         141.3056   72.6555  226.9023 H       1  UNL1        0.0618
     49 H         141.7148   71.4183  229.0171 H       1  UNL1        0.0618
     50 H         140.6660   69.1340  229.2640 H       1  UNL1        0.0618
     51 H         139.2943   68.2053  227.4375 H       1  UNL1        0.0621
     52 H         137.0460   70.2929  222.8955 H       1  UNL1        0.0442
     53 H         137.1551   71.2312  224.4146 H       1  UNL1        0.0442
     54 H         137.3134   72.3992  222.0237 H       1  UNL1        0.0477
     55 H         138.2895   72.9699  223.4201 H       1  UNL1        0.0477
     56 H         138.7536   77.5960  220.8225 H       1  UNL1        0.0468
     57 H         138.1657   76.0508  221.4907 H       1  UNL1        0.0468
     58 H         137.1648   77.9873  222.7039 H       1  UNL1        0.0328
     59 H         138.2031   77.0482  223.7982 H       1  UNL1        0.0328
     60 H         137.3565   80.1737  223.4326 H       1  UNL1        0.0620
     61 H         138.8207   82.2061  223.7698 H       1  UNL1        0.0618
     62 H         141.2656   81.9188  223.6022 H       1  UNL1        0.0618
     63 H         142.3082   79.7498  223.1304 H       1  UNL1        0.0621
     64 H         141.9589   77.5720  222.1024 H       1  UNL1        0.0514
     65 H         141.3755   76.9308  223.6658 H       1  UNL1        0.0514
     66 H         144.2462   72.4429  221.2228 H       1  UNL1        0.0661
@<TRIPOS>BOND
     1     1     2    1
     2     2     3   ar
     3     3     4   ar
     4     4     5   ar
     5     5     6   ar
     6     6     7    1
     7     7     8   ar
     8     8     9   ar
     9     9    10    1
    10    10    11    1
    11    11    12    1
    12    12    13    1
    13    13    14    1
    14    14    15    1
    15    15    16   ar
    16    16    17   ar
    17    17    18   ar
    18    18    19   ar
    19    19    20   ar
    20    13    21    1
    21    21    22    1
    22     9    23   ar
    23    23    24   ar
    24    24    25    1
    25    25    26    1
    26    26    27    1
    27    27    28    1
    28    28    29   ar
    29    29    30   ar
    30    30    31   ar
    31    31    32   ar
    32    32    33   ar
    33    33    34    1
    34    24    35   ar
    35     6    36   ar
    36    36     2   ar
    37    35     7   ar
    38    22    10    1
    39    34    25    1
    40    20    15   ar
    41    33    28   ar
    42     1    37    1
    43     3    38    1
    44     4    39    1
    45     5    40    1
    46    11    41    1
    47    11    42    1
    48    12    43    1
    49    12    44    1
    50    14    45    1
    51    14    46    1
    52    16    47    1
    53    17    48    1
    54    18    49    1
    55    19    50    1
    56    20    51    1
    57    21    52    1
    58    21    53    1
    59    22    54    1
    60    22    55    1
    61    26    56    1
    62    26    57    1
    63    27    58    1
    64    27    59    1
    65    29    60    1
    66    30    61    1
    67    31    62    1
    68    32    63    1
    69    34    64    1
    70    34    65    1
    71    36    66    1
