
     RDKit          3D

 42 43  0  0  1  0  0  0  0  0999 V2000
  141.8120   73.2910  221.4260 O   0  0  0  0  0  0  0  0  0  0  0  0
  140.7080   73.8240  221.7480 C   0  0  0  0  0  0  0  0  0  0  0  0
  140.5280   75.2480  221.3080 C   0  0  0  0  0  0  0  0  0  0  0  0
  139.3500   75.7930  222.1250 C   0  0  0  0  0  0  0  0  0  0  0  0
  138.0560   75.6440  221.3490 C   0  0  0  0  0  0  0  0  0  0  0  0
  137.3230   74.5120  221.7770 O   0  0  0  0  0  0  0  0  0  0  0  0
  136.4510   74.6620  222.8720 C   0  0  0  0  0  0  0  0  0  0  0  0
  136.1920   75.9080  223.4240 C   0  0  0  0  0  0  0  0  0  0  0  0
  135.3470   76.0930  224.4940 C   0  0  0  0  0  0  0  0  0  0  0  0
  134.7290   74.9720  225.0390 C   0  0  0  0  0  0  0  0  0  0  0  0
  133.6610   75.2480  226.3980 Cl  0  0  0  0  0  0  0  0  0  0  0  0
  134.9620   73.7130  224.5160 C   0  0  0  0  0  0  0  0  0  0  0  0
  135.8220   73.5540  223.4330 C   0  0  0  0  0  0  0  0  0  0  0  0
  136.1020   71.9490  222.7880 Cl  0  0  0  0  0  0  0  0  0  0  0  0
  139.7070   73.1500  222.4670 N   0  0  0  0  0  0  0  0  0  0  0  0
  139.8120   71.8200  222.9070 N   0  0  0  0  0  0  0  0  0  0  0  0
  139.1430   71.4340  223.9610 C   0  0  0  0  0  0  0  0  0  0  0  0
  139.8410   71.0020  225.1850 C   0  0  0  0  0  0  0  0  0  0  0  0
  140.4590   71.9060  226.0260 C   0  0  0  0  0  0  0  0  0  0  0  0
  141.1140   71.4900  227.1780 C   0  0  0  0  0  0  0  0  0  0  0  0
  141.1510   70.1410  227.4930 C   0  0  0  0  0  0  0  0  0  0  0  0
  140.5300   69.2150  226.6510 C   0  0  0  0  0  0  0  0  0  0  0  0
  140.5830   67.7630  227.0110 C   0  0  0  0  0  0  0  0  0  0  0  0
  139.3280   67.2190  226.9910 F   0  0  0  0  0  0  0  0  0  0  0  0
  141.4630   67.1210  226.1870 F   0  0  0  0  0  0  0  0  0  0  0  0
  141.1260   67.7510  228.3020 F   0  0  0  0  0  0  0  0  0  0  0  0
  139.8810   69.6590  225.5030 C   0  0  0  0  0  0  0  0  0  0  0  0
  141.4384   75.8302  221.5135 H   0  0  0  0  0  0  0  0  0  0  0  0
  140.3364   75.3162  220.2270 H   0  0  0  0  0  0  0  0  0  0  0  0
  139.2734   75.2331  223.0688 H   0  0  0  0  0  0  0  0  0  0  0  0
  139.5218   76.8597  222.3317 H   0  0  0  0  0  0  0  0  0  0  0  0
  137.4430   76.5448  221.4996 H   0  0  0  0  0  0  0  0  0  0  0  0
  138.3041   75.5130  220.2854 H   0  0  0  0  0  0  0  0  0  0  0  0
  136.6848   76.7886  222.9862 H   0  0  0  0  0  0  0  0  0  0  0  0
  135.1656   77.0967  224.9060 H   0  0  0  0  0  0  0  0  0  0  0  0
  134.4666   72.8353  224.9568 H   0  0  0  0  0  0  0  0  0  0  0  0
  138.7910   73.6250  222.7240 H   0  0  0  0  0  0  0  0  0  0  0  0
  138.0433   71.4315  223.9343 H   0  0  0  0  0  0  0  0  0  0  0  0
  140.4321   72.9775  225.7786 H   0  0  0  0  0  0  0  0  0  0  0  0
  141.5998   72.2260  227.8355 H   0  0  0  0  0  0  0  0  0  0  0  0
  141.6674   69.8005  228.4026 H   0  0  0  0  0  0  0  0  0  0  0  0
  139.3930   68.9298  224.8396 H   0  0  0  0  0  0  0  0  0  0  0  0
  1  2  2  0
  2  3  1  0
  3  4  1  0
  4  5  1  0
  5  6  1  0
  6  7  1  0
  7  8  2  0
  8  9  1  0
  9 10  2  0
 10 11  1  0
 10 12  1  0
 12 13  2  0
 13 14  1  0
  2 15  1  0
 15 16  1  0
 16 17  2  0
 17 18  1  0
 18 19  2  0
 19 20  1  0
 20 21  2  0
 21 22  1  0
 22 23  1  0
 23 24  1  0
 23 25  1  0
 23 26  1  0
 22 27  2  0
 13  7  1  0
 27 18  1  0
  3 28  1  0
  3 29  1  0
  4 30  1  0
  4 31  1  0
  5 32  1  0
  5 33  1  0
  8 34  1  0
  9 35  1  0
 12 36  1  0
 15 37  1  0
 17 38  1  0
 19 39  1  0
 20 40  1  0
 21 41  1  0
 27 42  1  0
M  END
>  <smiles>  (1) 
O=C(CCCOc1ccc(Cl)cc1Cl)NN=Cc1cccc(C(F)(F)F)c1

>  <score_type>  (1) 
oracle

>  <origin>  (1) 
autodockgpu

>  <m_score__min__energy>  (1) 
-7.3600000000000003

>  <m_primary>  (1) 
energy

>  <rmsd>  (1) 
8.943819709694758

>  <m_score__min__rmsd>  (1) 
8.943819709694758

>  <meeko>  (1) 
{"free_energy": -5.55, "intermolecular_energy": -8.23, "internal_energy": -1.98, "cluster_size": 6, "cluster_id": 6, "rank_in_cluster": 6}

>  <energy>  (1) 
-7.36

>  <cluster_rmsd>  (1) 
0.0

>  <cluster>  (1) 
1

$$$$

     RDKit          3D

 42 43  0  0  1  0  0  0  0  0999 V2000
  140.9160   72.1230  220.6640 O   0  0  0  0  0  0  0  0  0  0  0  0
  140.6740   73.0780  221.4610 C   0  0  0  0  0  0  0  0  0  0  0  0
  141.4520   74.3380  221.2110 C   0  0  0  0  0  0  0  0  0  0  0  0
  140.5300   75.2420  220.3830 C   0  0  0  0  0  0  0  0  0  0  0  0
  139.2000   75.4260  221.0870 C   0  0  0  0  0  0  0  0  0  0  0  0
  139.3760   75.8340  222.4300 O   0  0  0  0  0  0  0  0  0  0  0  0
  139.8680   77.1310  222.6710 C   0  0  0  0  0  0  0  0  0  0  0  0
  141.2240   77.3670  222.8450 C   0  0  0  0  0  0  0  0  0  0  0  0
  141.7420   78.6200  223.0820 C   0  0  0  0  0  0  0  0  0  0  0  0
  140.8560   79.6910  223.1490 C   0  0  0  0  0  0  0  0  0  0  0  0
  141.5520   81.2680  223.4520 Cl  0  0  0  0  0  0  0  0  0  0  0  0
  139.4970   79.4940  222.9800 C   0  0  0  0  0  0  0  0  0  0  0  0
  138.9990   78.2160  222.7410 C   0  0  0  0  0  0  0  0  0  0  0  0
  137.2740   77.9920  222.5320 Cl  0  0  0  0  0  0  0  0  0  0  0  0
  139.7480   72.9900  222.5140 N   0  0  0  0  0  0  0  0  0  0  0  0
  138.9900   71.8430  222.8010 N   0  0  0  0  0  0  0  0  0  0  0  0
  139.5800   70.7850  223.2930 C   0  0  0  0  0  0  0  0  0  0  0  0
  140.0860   70.7760  224.6780 C   0  0  0  0  0  0  0  0  0  0  0  0
  140.7020   71.8800  225.2330 C   0  0  0  0  0  0  0  0  0  0  0  0
  141.1750   71.8610  226.5390 C   0  0  0  0  0  0  0  0  0  0  0  0
  141.0290   70.7140  227.3040 C   0  0  0  0  0  0  0  0  0  0  0  0
  140.4090   69.5900  226.7530 C   0  0  0  0  0  0  0  0  0  0  0  0
  140.2620   68.3620  227.5970 C   0  0  0  0  0  0  0  0  0  0  0  0
  141.4530   67.6960  227.6840 F   0  0  0  0  0  0  0  0  0  0  0  0
  139.7430   68.7050  228.8130 F   0  0  0  0  0  0  0  0  0  0  0  0
  139.2970   67.6000  226.9260 F   0  0  0  0  0  0  0  0  0  0  0  0
  139.9430   69.6350  225.4430 C   0  0  0  0  0  0  0  0  0  0  0  0
  141.7102   74.8240  222.1635 H   0  0  0  0  0  0  0  0  0  0  0  0
  142.3962   74.1329  220.6852 H   0  0  0  0  0  0  0  0  0  0  0  0
  141.0086   76.2234  220.2499 H   0  0  0  0  0  0  0  0  0  0  0  0
  140.3539   74.7718  219.4042 H   0  0  0  0  0  0  0  0  0  0  0  0
  138.6167   76.1916  220.5545 H   0  0  0  0  0  0  0  0  0  0  0  0
  138.6727   74.4606  221.0860 H   0  0  0  0  0  0  0  0  0  0  0  0
  141.9166   76.5141  222.7911 H   0  0  0  0  0  0  0  0  0  0  0  0
  142.8236   78.7702  223.2144 H   0  0  0  0  0  0  0  0  0  0  0  0
  138.8079   80.3497  223.0346 H   0  0  0  0  0  0  0  0  0  0  0  0
  139.5670   73.8090  223.1670 H   0  0  0  0  0  0  0  0  0  0  0  0
  139.7005   69.8897  222.6654 H   0  0  0  0  0  0  0  0  0  0  0  0
  140.8205   72.7920  224.6295 H   0  0  0  0  0  0  0  0  0  0  0  0
  141.6626   72.7509  226.9637 H   0  0  0  0  0  0  0  0  0  0  0  0
  141.3995   70.6892  228.3394 H   0  0  0  0  0  0  0  0  0  0  0  0
  139.4539   68.7497  225.0105 H   0  0  0  0  0  0  0  0  0  0  0  0
  1  2  2  0
  2  3  1  0
  3  4  1  0
  4  5  1  0
  5  6  1  0
  6  7  1  0
  7  8  2  0
  8  9  1  0
  9 10  2  0
 10 11  1  0
 10 12  1  0
 12 13  2  0
 13 14  1  0
  2 15  1  0
 15 16  1  0
 16 17  2  0
 17 18  1  0
 18 19  2  0
 19 20  1  0
 20 21  2  0
 21 22  1  0
 22 23  1  0
 23 24  1  0
 23 25  1  0
 23 26  1  0
 22 27  2  0
 13  7  1  0
 27 18  1  0
  3 28  1  0
  3 29  1  0
  4 30  1  0
  4 31  1  0
  5 32  1  0
  5 33  1  0
  8 34  1  0
  9 35  1  0
 12 36  1  0
 15 37  1  0
 17 38  1  0
 19 39  1  0
 20 40  1  0
 21 41  1  0
 27 42  1  0
M  END
>  <smiles>  (2) 
O=C(CCCOc1ccc(Cl)cc1Cl)NN=Cc1cccc(C(F)(F)F)c1

>  <score_type>  (2) 
oracle

>  <origin>  (2) 
autodockgpu

>  <m_score__min__energy>  (2) 
-7.3600000000000003

>  <m_primary>  (2) 
energy

>  <rmsd>  (2) 
6.54849559378843

>  <m_score__min__rmsd>  (2) 
6.54849559378843

>  <meeko>  (2) 
{"free_energy": -6.66, "intermolecular_energy": -9.35, "internal_energy": -1.61, "cluster_size": 7, "cluster_id": 2, "rank_in_cluster": 3}

>  <energy>  (2) 
-7.26

>  <cluster_rmsd>  (2) 
1.44

>  <cluster>  (2) 
1

$$$$

     RDKit          3D

 42 43  0  0  1  0  0  0  0  0999 V2000
  140.8930   75.0470  221.3370 O   0  0  0  0  0  0  0  0  0  0  0  0
  139.7140   74.7360  221.6810 C   0  0  0  0  0  0  0  0  0  0  0  0
  138.6410   75.6880  221.2370 C   0  0  0  0  0  0  0  0  0  0  0  0
  137.6490   75.7750  222.4030 C   0  0  0  0  0  0  0  0  0  0  0  0
  136.4760   74.8430  222.1700 C   0  0  0  0  0  0  0  0  0  0  0  0
  136.6790   73.5880  222.7890 O   0  0  0  0  0  0  0  0  0  0  0  0
  135.7980   73.2060  223.8190 C   0  0  0  0  0  0  0  0  0  0  0  0
  135.1290   74.1500  224.5840 C   0  0  0  0  0  0  0  0  0  0  0  0
  134.2610   73.8150  225.5980 C   0  0  0  0  0  0  0  0  0  0  0  0
  134.0520   72.4630  225.8580 C   0  0  0  0  0  0  0  0  0  0  0  0
  132.9410   72.0770  227.1540 Cl  0  0  0  0  0  0  0  0  0  0  0  0
  134.7010   71.4940  225.1160 C   0  0  0  0  0  0  0  0  0  0  0  0
  135.5740   71.8600  224.0960 C   0  0  0  0  0  0  0  0  0  0  0  0
  136.3850   70.6130  223.1710 Cl  0  0  0  0  0  0  0  0  0  0  0  0
  139.4060   73.5860  222.4280 N   0  0  0  0  0  0  0  0  0  0  0  0
  140.3610   72.6570  222.8730 N   0  0  0  0  0  0  0  0  0  0  0  0
  140.0160   71.4070  223.0390 C   0  0  0  0  0  0  0  0  0  0  0  0
  139.9160   70.8220  224.3890 C   0  0  0  0  0  0  0  0  0  0  0  0
  139.3020   69.6050  224.6080 C   0  0  0  0  0  0  0  0  0  0  0  0
  139.2120   69.0610  225.8830 C   0  0  0  0  0  0  0  0  0  0  0  0
  139.7470   69.7510  226.9600 C   0  0  0  0  0  0  0  0  0  0  0  0
  140.3700   70.9840  226.7510 C   0  0  0  0  0  0  0  0  0  0  0  0
  140.9410   71.7120  227.9280 C   0  0  0  0  0  0  0  0  0  0  0  0
  141.8330   72.6630  227.5170 F   0  0  0  0  0  0  0  0  0  0  0  0
  139.9240   72.2170  228.6880 F   0  0  0  0  0  0  0  0  0  0  0  0
  141.5700   70.7100  228.6780 F   0  0  0  0  0  0  0  0  0  0  0  0
  140.4470   71.5060  225.4640 C   0  0  0  0  0  0  0  0  0  0  0  0
  139.0712   76.6781  221.0257 H   0  0  0  0  0  0  0  0  0  0  0  0
  138.1512   75.3433  220.3144 H   0  0  0  0  0  0  0  0  0  0  0  0
  138.1591   75.4896  223.3348 H   0  0  0  0  0  0  0  0  0  0  0  0
  137.2754   76.8069  222.4772 H   0  0  0  0  0  0  0  0  0  0  0  0
  135.5666   75.3028  222.5844 H   0  0  0  0  0  0  0  0  0  0  0  0
  136.3747   74.6806  221.0868 H   0  0  0  0  0  0  0  0  0  0  0  0
  135.3001   75.2154  224.3703 H   0  0  0  0  0  0  0  0  0  0  0  0
  133.7482   74.5912  226.1850 H   0  0  0  0  0  0  0  0  0  0  0  0
  134.5268   70.4297  225.3326 H   0  0  0  0  0  0  0  0  0  0  0  0
  138.4060   73.3520  222.7020 H   0  0  0  0  0  0  0  0  0  0  0  0
  139.7974   70.7831  222.1598 H   0  0  0  0  0  0  0  0  0  0  0  0
  138.8756   69.0552  223.7560 H   0  0  0  0  0  0  0  0  0  0  0  0
  138.7197   68.0895  226.0371 H   0  0  0  0  0  0  0  0  0  0  0  0
  139.6813   69.3298  227.9740 H   0  0  0  0  0  0  0  0  0  0  0  0
  140.9376   72.4769  225.3007 H   0  0  0  0  0  0  0  0  0  0  0  0
  1  2  2  0
  2  3  1  0
  3  4  1  0
  4  5  1  0
  5  6  1  0
  6  7  1  0
  7  8  2  0
  8  9  1  0
  9 10  2  0
 10 11  1  0
 10 12  1  0
 12 13  2  0
 13 14  1  0
  2 15  1  0
 15 16  1  0
 16 17  2  0
 17 18  1  0
 18 19  2  0
 19 20  1  0
 20 21  2  0
 21 22  1  0
 22 23  1  0
 23 24  1  0
 23 25  1  0
 23 26  1  0
 22 27  2  0
 13  7  1  0
 27 18  1  0
  3 28  1  0
  3 29  1  0
  4 30  1  0
  4 31  1  0
  5 32  1  0
  5 33  1  0
  8 34  1  0
  9 35  1  0
 12 36  1  0
 15 37  1  0
 17 38  1  0
 19 39  1  0
 20 40  1  0
 21 41  1  0
 27 42  1  0
M  END
>  <smiles>  (3) 
O=C(CCCOc1ccc(Cl)cc1Cl)NN=Cc1cccc(C(F)(F)F)c1

>  <score_type>  (3) 
oracle

>  <origin>  (3) 
autodockgpu

>  <m_score__min__energy>  (3) 
-7.3600000000000003

>  <m_primary>  (3) 
energy

>  <rmsd>  (3) 
10.806765465432594

>  <m_score__min__rmsd>  (3) 
10.806765465432594

>  <meeko>  (3) 
{"free_energy": -5.91, "intermolecular_energy": -8.59, "internal_energy": -2.26, "cluster_size": 6, "cluster_id": 6, "rank_in_cluster": 4}

>  <energy>  (3) 
-7.08

>  <cluster_rmsd>  (3) 
1.0

>  <cluster>  (3) 
1

$$$$

     RDKit          3D

 42 43  0  0  1  0  0  0  0  0999 V2000
  138.9810   72.0080  220.4860 O   0  0  0  0  0  0  0  0  0  0  0  0
  138.6110   73.0570  221.0920 C   0  0  0  0  0  0  0  0  0  0  0  0
  137.4770   73.8050  220.4520 C   0  0  0  0  0  0  0  0  0  0  0  0
  138.0310   75.1920  220.1070 C   0  0  0  0  0  0  0  0  0  0  0  0
  137.6250   76.2010  221.1640 C   0  0  0  0  0  0  0  0  0  0  0  0
  138.4900   76.1560  222.2820 O   0  0  0  0  0  0  0  0  0  0  0  0
  139.3740   77.2340  222.4820 C   0  0  0  0  0  0  0  0  0  0  0  0
  138.9570   78.4040  223.1010 C   0  0  0  0  0  0  0  0  0  0  0  0
  139.7920   79.4780  223.3130 C   0  0  0  0  0  0  0  0  0  0  0  0
  141.1110   79.3740  222.8810 C   0  0  0  0  0  0  0  0  0  0  0  0
  142.1400   80.7600  223.1690 Cl  0  0  0  0  0  0  0  0  0  0  0  0
  141.5620   78.2250  222.2600 C   0  0  0  0  0  0  0  0  0  0  0  0
  140.6970   77.1520  222.0580 C   0  0  0  0  0  0  0  0  0  0  0  0
  141.2920   75.7070  221.2670 Cl  0  0  0  0  0  0  0  0  0  0  0  0
  139.2060   73.5120  222.2810 N   0  0  0  0  0  0  0  0  0  0  0  0
  140.2690   72.8610  222.9290 N   0  0  0  0  0  0  0  0  0  0  0  0
  140.2560   71.5580  223.0390 C   0  0  0  0  0  0  0  0  0  0  0  0
  140.0960   70.9100  224.3540 C   0  0  0  0  0  0  0  0  0  0  0  0
  139.4220   69.7130  224.4950 C   0  0  0  0  0  0  0  0  0  0  0  0
  139.2770   69.1100  225.7380 C   0  0  0  0  0  0  0  0  0  0  0  0
  139.8160   69.7180  226.8610 C   0  0  0  0  0  0  0  0  0  0  0  0
  140.5000   70.9290  226.7310 C   0  0  0  0  0  0  0  0  0  0  0  0
  141.0750   71.5680  227.9560 C   0  0  0  0  0  0  0  0  0  0  0  0
  141.7560   70.6450  228.7030 F   0  0  0  0  0  0  0  0  0  0  0  0
  141.8400   72.6410  227.5950 F   0  0  0  0  0  0  0  0  0  0  0  0
  139.9580   72.0590  228.6430 F   0  0  0  0  0  0  0  0  0  0  0  0
  140.6320   71.5120  225.4750 C   0  0  0  0  0  0  0  0  0  0  0  0
  137.1441   73.2881  219.5399 H   0  0  0  0  0  0  0  0  0  0  0  0
  136.6078   73.8724  221.1228 H   0  0  0  0  0  0  0  0  0  0  0  0
  139.1287   75.1416  220.0565 H   0  0  0  0  0  0  0  0  0  0  0  0
  137.6223   75.5082  219.1359 H   0  0  0  0  0  0  0  0  0  0  0  0
  137.6580   77.2098  220.7267 H   0  0  0  0  0  0  0  0  0  0  0  0
  136.6082   75.9550  221.5039 H   0  0  0  0  0  0  0  0  0  0  0  0
  137.9122   78.4766  223.4374 H   0  0  0  0  0  0  0  0  0  0  0  0
  139.4279   80.3901  223.8085 H   0  0  0  0  0  0  0  0  0  0  0  0
  142.6073   78.1574  221.9241 H   0  0  0  0  0  0  0  0  0  0  0  0
  138.8740   74.3980  222.7660 H   0  0  0  0  0  0  0  0  0  0  0  0
  140.3660   70.9366  222.1380 H   0  0  0  0  0  0  0  0  0  0  0  0
  138.9919   69.2279  223.6064 H   0  0  0  0  0  0  0  0  0  0  0  0
  138.7377   68.1558  225.8305 H   0  0  0  0  0  0  0  0  0  0  0  0
  139.7056   69.2491  227.8499 H   0  0  0  0  0  0  0  0  0  0  0  0
  141.1708   72.4656  225.3735 H   0  0  0  0  0  0  0  0  0  0  0  0
  1  2  2  0
  2  3  1  0
  3  4  1  0
  4  5  1  0
  5  6  1  0
  6  7  1  0
  7  8  2  0
  8  9  1  0
  9 10  2  0
 10 11  1  0
 10 12  1  0
 12 13  2  0
 13 14  1  0
  2 15  1  0
 15 16  1  0
 16 17  2  0
 17 18  1  0
 18 19  2  0
 19 20  1  0
 20 21  2  0
 21 22  1  0
 22 23  1  0
 23 24  1  0
 23 25  1  0
 23 26  1  0
 22 27  2  0
 13  7  1  0
 27 18  1  0
  3 28  1  0
  3 29  1  0
  4 30  1  0
  4 31  1  0
  5 32  1  0
  5 33  1  0
  8 34  1  0
  9 35  1  0
 12 36  1  0
 15 37  1  0
 17 38  1  0
 19 39  1  0
 20 40  1  0
 21 41  1  0
 27 42  1  0
M  END
>  <smiles>  (4) 
O=C(CCCOc1ccc(Cl)cc1Cl)NN=Cc1cccc(C(F)(F)F)c1

>  <score_type>  (4) 
oracle

>  <origin>  (4) 
autodockgpu

>  <m_score__min__energy>  (4) 
-7.3600000000000003

>  <m_primary>  (4) 
energy

>  <rmsd>  (4) 
5.875550813433049

>  <m_score__min__rmsd>  (4) 
5.875550813433049

>  <meeko>  (4) 
{"free_energy": -6.6, "intermolecular_energy": -9.28, "internal_energy": -1.7, "cluster_size": 16, "cluster_id": 1, "rank_in_cluster": 9}

>  <energy>  (4) 
-7.02

>  <cluster_rmsd>  (4) 
1.81

>  <cluster>  (4) 
1

$$$$

     RDKit          3D

 42 43  0  0  1  0  0  0  0  0999 V2000
  140.7500   74.1970  222.1100 O   0  0  0  0  0  0  0  0  0  0  0  0
  139.5130   73.9280  222.0430 C   0  0  0  0  0  0  0  0  0  0  0  0
  138.6150   75.0960  221.7540 C   0  0  0  0  0  0  0  0  0  0  0  0
  138.7260   75.3460  220.2450 C   0  0  0  0  0  0  0  0  0  0  0  0
  139.3910   76.6820  219.9780 C   0  0  0  0  0  0  0  0  0  0  0  0
  140.7420   76.6810  220.3970 O   0  0  0  0  0  0  0  0  0  0  0  0
  141.1790   77.7250  221.2350 C   0  0  0  0  0  0  0  0  0  0  0  0
  141.0850   77.6290  222.6160 C   0  0  0  0  0  0  0  0  0  0  0  0
  141.5000   78.6280  223.4670 C   0  0  0  0  0  0  0  0  0  0  0  0
  142.0370   79.7830  222.9050 C   0  0  0  0  0  0  0  0  0  0  0  0
  142.5540   81.0290  224.0190 Cl  0  0  0  0  0  0  0  0  0  0  0  0
  142.1470   79.9140  221.5330 C   0  0  0  0  0  0  0  0  0  0  0  0
  141.7190   78.8890  220.6940 C   0  0  0  0  0  0  0  0  0  0  0  0
  141.8670   79.0800  218.9590 Cl  0  0  0  0  0  0  0  0  0  0  0  0
  138.9930   72.6350  222.2250 N   0  0  0  0  0  0  0  0  0  0  0  0
  139.7780   71.5030  222.4980 N   0  0  0  0  0  0  0  0  0  0  0  0
  139.3970   70.6620  223.4230 C   0  0  0  0  0  0  0  0  0  0  0  0
  139.9830   70.7060  224.7750 C   0  0  0  0  0  0  0  0  0  0  0  0
  140.6810   71.8080  225.2270 C   0  0  0  0  0  0  0  0  0  0  0  0
  141.2300   71.8410  226.5030 C   0  0  0  0  0  0  0  0  0  0  0  0
  141.0770   70.7480  227.3420 C   0  0  0  0  0  0  0  0  0  0  0  0
  140.3730   69.6260  226.8960 C   0  0  0  0  0  0  0  0  0  0  0  0
  140.2200   68.4570  227.8180 C   0  0  0  0  0  0  0  0  0  0  0  0
  139.5020   67.4620  227.2140 F   0  0  0  0  0  0  0  0  0  0  0  0
  141.4520   68.0510  228.2470 F   0  0  0  0  0  0  0  0  0  0  0  0
  139.5390   68.9810  228.9240 F   0  0  0  0  0  0  0  0  0  0  0  0
  139.8330   69.6190  225.6130 C   0  0  0  0  0  0  0  0  0  0  0  0
  137.5765   74.8574  222.0272 H   0  0  0  0  0  0  0  0  0  0  0  0
  138.9071   75.9840  222.3338 H   0  0  0  0  0  0  0  0  0  0  0  0
  139.3256   74.5450  219.7881 H   0  0  0  0  0  0  0  0  0  0  0  0
  137.7157   75.3571  219.8100 H   0  0  0  0  0  0  0  0  0  0  0  0
  139.3515   76.8917  218.8989 H   0  0  0  0  0  0  0  0  0  0  0  0
  138.8536   77.4551  220.5468 H   0  0  0  0  0  0  0  0  0  0  0  0
  140.6593   76.7125  223.0506 H   0  0  0  0  0  0  0  0  0  0  0  0
  141.4101   78.5172  224.5577 H   0  0  0  0  0  0  0  0  0  0  0  0
  142.5744   80.8317  221.1028 H   0  0  0  0  0  0  0  0  0  0  0  0
  137.9500   72.4410  222.1640 H   0  0  0  0  0  0  0  0  0  0  0  0
  138.6282   69.9107  223.1894 H   0  0  0  0  0  0  0  0  0  0  0  0
  140.8050   72.6769  224.5640 H   0  0  0  0  0  0  0  0  0  0  0  0
  141.7824   72.7286  226.8452 H   0  0  0  0  0  0  0  0  0  0  0  0
  141.5077   70.7637  228.3541 H   0  0  0  0  0  0  0  0  0  0  0  0
  139.2793   68.7356  225.2621 H   0  0  0  0  0  0  0  0  0  0  0  0
  1  2  2  0
  2  3  1  0
  3  4  1  0
  4  5  1  0
  5  6  1  0
  6  7  1  0
  7  8  2  0
  8  9  1  0
  9 10  2  0
 10 11  1  0
 10 12  1  0
 12 13  2  0
 13 14  1  0
  2 15  1  0
 15 16  1  0
 16 17  2  0
 17 18  1  0
 18 19  2  0
 19 20  1  0
 20 21  2  0
 21 22  1  0
 22 23  1  0
 23 24  1  0
 23 25  1  0
 23 26  1  0
 22 27  2  0
 13  7  1  0
 27 18  1  0
  3 28  1  0
  3 29  1  0
  4 30  1  0
  4 31  1  0
  5 32  1  0
  5 33  1  0
  8 34  1  0
  9 35  1  0
 12 36  1  0
 15 37  1  0
 17 38  1  0
 19 39  1  0
 20 40  1  0
 21 41  1  0
 27 42  1  0
M  END
>  <smiles>  (5) 
O=C(CCCOc1ccc(Cl)cc1Cl)NN=Cc1cccc(C(F)(F)F)c1

>  <score_type>  (5) 
oracle

>  <origin>  (5) 
autodockgpu

>  <m_score__min__energy>  (5) 
-7.3600000000000003

>  <m_primary>  (5) 
energy

>  <rmsd>  (5) 
5.497003506564794

>  <m_score__min__rmsd>  (5) 
5.497003506564794

>  <meeko>  (5) 
{"free_energy": -6.83, "intermolecular_energy": -9.52, "internal_energy": -0.97, "cluster_size": 16, "cluster_id": 1, "rank_in_cluster": 7}

>  <energy>  (5) 
-7.02

>  <cluster_rmsd>  (5) 
1.82

>  <cluster>  (5) 
1

$$$$

     RDKit          3D

 42 43  0  0  1  0  0  0  0  0999 V2000
  141.4220   73.3100  220.0200 O   0  0  0  0  0  0  0  0  0  0  0  0
  141.9310   74.4260  220.3360 C   0  0  0  0  0  0  0  0  0  0  0  0
  143.1110   74.8530  219.5110 C   0  0  0  0  0  0  0  0  0  0  0  0
  143.3640   76.3220  219.8690 C   0  0  0  0  0  0  0  0  0  0  0  0
  142.3420   77.2140  219.1920 C   0  0  0  0  0  0  0  0  0  0  0  0
  141.3170   77.6010  220.0870 O   0  0  0  0  0  0  0  0  0  0  0  0
  141.6110   78.5890  221.0450 C   0  0  0  0  0  0  0  0  0  0  0  0
  141.7280   78.2770  222.3920 C   0  0  0  0  0  0  0  0  0  0  0  0
  142.0140   79.2150  223.3570 C   0  0  0  0  0  0  0  0  0  0  0  0
  142.1910   80.5350  222.9520 C   0  0  0  0  0  0  0  0  0  0  0  0
  142.5540   81.6980  224.2090 Cl  0  0  0  0  0  0  0  0  0  0  0  0
  142.0830   80.8840  221.6190 C   0  0  0  0  0  0  0  0  0  0  0  0
  141.7930   79.9150  220.6620 C   0  0  0  0  0  0  0  0  0  0  0  0
  141.6590   80.3830  218.9790 Cl  0  0  0  0  0  0  0  0  0  0  0  0
  141.4450   75.2280  221.3820 N   0  0  0  0  0  0  0  0  0  0  0  0
  140.3470   74.8870  222.1900 N   0  0  0  0  0  0  0  0  0  0  0  0
  139.1390   75.1940  221.7990 C   0  0  0  0  0  0  0  0  0  0  0  0
  138.7690   76.5900  221.5030 C   0  0  0  0  0  0  0  0  0  0  0  0
  138.4450   76.9990  220.2240 C   0  0  0  0  0  0  0  0  0  0  0  0
  138.0980   78.3170  219.9550 C   0  0  0  0  0  0  0  0  0  0  0  0
  138.0760   79.2430  220.9860 C   0  0  0  0  0  0  0  0  0  0  0  0
  138.4030   78.8420  222.2840 C   0  0  0  0  0  0  0  0  0  0  0  0
  138.3720   79.8580  223.3820 C   0  0  0  0  0  0  0  0  0  0  0  0
  139.2240   79.5000  224.3900 F   0  0  0  0  0  0  0  0  0  0  0  0
  138.6370   81.0950  222.8650 F   0  0  0  0  0  0  0  0  0  0  0  0
  137.0400   79.8570  223.8130 F   0  0  0  0  0  0  0  0  0  0  0  0
  138.7470   77.5160  222.5270 C   0  0  0  0  0  0  0  0  0  0  0  0
  143.9917   74.2418  219.7577 H   0  0  0  0  0  0  0  0  0  0  0  0
  142.9188   74.7266  218.4353 H   0  0  0  0  0  0  0  0  0  0  0  0
  143.2892   76.4475  220.9593 H   0  0  0  0  0  0  0  0  0  0  0  0
  144.3694   76.6054  219.5243 H   0  0  0  0  0  0  0  0  0  0  0  0
  142.8477   78.1158  218.8165 H   0  0  0  0  0  0  0  0  0  0  0  0
  141.8841   76.6491  218.3667 H   0  0  0  0  0  0  0  0  0  0  0  0
  141.5855   77.2314  222.7026 H   0  0  0  0  0  0  0  0  0  0  0  0
  142.1002   78.9306  224.4161 H   0  0  0  0  0  0  0  0  0  0  0  0
  142.2266   81.9308  221.3131 H   0  0  0  0  0  0  0  0  0  0  0  0
  141.8940   76.1600  221.6240 H   0  0  0  0  0  0  0  0  0  0  0  0
  138.3867   74.3991  221.6890 H   0  0  0  0  0  0  0  0  0  0  0  0
  138.4621   76.2672  219.4029 H   0  0  0  0  0  0  0  0  0  0  0  0
  137.8423   78.6238  218.9301 H   0  0  0  0  0  0  0  0  0  0  0  0
  137.8023   80.2890  220.7834 H   0  0  0  0  0  0  0  0  0  0  0  0
  139.0050   77.2010  223.5489 H   0  0  0  0  0  0  0  0  0  0  0  0
  1  2  2  0
  2  3  1  0
  3  4  1  0
  4  5  1  0
  5  6  1  0
  6  7  1  0
  7  8  2  0
  8  9  1  0
  9 10  2  0
 10 11  1  0
 10 12  1  0
 12 13  2  0
 13 14  1  0
  2 15  1  0
 15 16  1  0
 16 17  2  0
 17 18  1  0
 18 19  2  0
 19 20  1  0
 20 21  2  0
 21 22  1  0
 22 23  1  0
 23 24  1  0
 23 25  1  0
 23 26  1  0
 22 27  2  0
 13  7  1  0
 27 18  1  0
  3 28  1  0
  3 29  1  0
  4 30  1  0
  4 31  1  0
  5 32  1  0
  5 33  1  0
  8 34  1  0
  9 35  1  0
 12 36  1  0
 15 37  1  0
 17 38  1  0
 19 39  1  0
 20 40  1  0
 21 41  1  0
 27 42  1  0
M  END
>  <smiles>  (6) 
O=C(CCCOc1ccc(Cl)cc1Cl)NN=Cc1cccc(C(F)(F)F)c1

>  <score_type>  (6) 
oracle

>  <origin>  (6) 
autodockgpu

>  <m_score__min__energy>  (6) 
-7.3600000000000003

>  <m_primary>  (6) 
energy

>  <rmsd>  (6) 
5.460788650151282

>  <m_score__min__rmsd>  (6) 
5.460788650151282

>  <meeko>  (6) 
{"free_energy": -4.66, "intermolecular_energy": -7.34, "internal_energy": -3.06, "cluster_size": 1, "cluster_id": 10, "rank_in_cluster": 1}

>  <energy>  (6) 
-6.97

>  <cluster_rmsd>  (6) 
1.35

>  <cluster>  (6) 
1

$$$$

     RDKit          3D

 42 43  0  0  1  0  0  0  0  0999 V2000
  141.0630   75.2230  221.9310 O   0  0  0  0  0  0  0  0  0  0  0  0
  139.8850   74.7600  221.9930 C   0  0  0  0  0  0  0  0  0  0  0  0
  138.8010   75.6950  221.5380 C   0  0  0  0  0  0  0  0  0  0  0  0
  138.5030   75.3150  220.0830 C   0  0  0  0  0  0  0  0  0  0  0  0
  139.4730   74.2520  219.6050 C   0  0  0  0  0  0  0  0  0  0  0  0
  140.5940   74.8250  218.9610 O   0  0  0  0  0  0  0  0  0  0  0  0
  141.8750   74.5140  219.4570 C   0  0  0  0  0  0  0  0  0  0  0  0
  142.2020   73.2260  219.8540 C   0  0  0  0  0  0  0  0  0  0  0  0
  143.4420   72.8840  220.3440 C   0  0  0  0  0  0  0  0  0  0  0  0
  144.4050   73.8850  220.4390 C   0  0  0  0  0  0  0  0  0  0  0  0
  145.9690   73.4110  221.0650 Cl  0  0  0  0  0  0  0  0  0  0  0  0
  144.1160   75.1810  220.0520 C   0  0  0  0  0  0  0  0  0  0  0  0
  142.8530   75.5000  219.5610 C   0  0  0  0  0  0  0  0  0  0  0  0
  142.5110   77.1490  219.0780 Cl  0  0  0  0  0  0  0  0  0  0  0  0
  139.5870   73.4660  222.4520 N   0  0  0  0  0  0  0  0  0  0  0  0
  140.5530   72.5440  222.8890 N   0  0  0  0  0  0  0  0  0  0  0  0
  140.2110   71.2990  223.0910 C   0  0  0  0  0  0  0  0  0  0  0  0
  140.0930   70.7570  224.4570 C   0  0  0  0  0  0  0  0  0  0  0  0
  139.5780   69.4980  224.6950 C   0  0  0  0  0  0  0  0  0  0  0  0
  139.4710   68.9950  225.9860 C   0  0  0  0  0  0  0  0  0  0  0  0
  139.8860   69.7690  227.0580 C   0  0  0  0  0  0  0  0  0  0  0  0
  140.4090   71.0440  226.8300 C   0  0  0  0  0  0  0  0  0  0  0  0
  140.8520   71.8630  228.0020 C   0  0  0  0  0  0  0  0  0  0  0  0
  139.7750   72.2440  228.7550 F   0  0  0  0  0  0  0  0  0  0  0  0
  141.7900   71.1690  228.7130 F   0  0  0  0  0  0  0  0  0  0  0  0
  141.4910   72.9680  227.4270 F   0  0  0  0  0  0  0  0  0  0  0  0
  140.5060   71.5240  225.5280 C   0  0  0  0  0  0  0  0  0  0  0  0
  137.9015   75.5690  222.1584 H   0  0  0  0  0  0  0  0  0  0  0  0
  139.1112   76.7467  221.6257 H   0  0  0  0  0  0  0  0  0  0  0  0
  137.4762   74.9266  220.0128 H   0  0  0  0  0  0  0  0  0  0  0  0
  138.6131   76.2086  219.4511 H   0  0  0  0  0  0  0  0  0  0  0  0
  139.8182   73.6678  220.4708 H   0  0  0  0  0  0  0  0  0  0  0  0
  138.9509   73.6087  218.8814 H   0  0  0  0  0  0  0  0  0  0  0  0
  141.4350   72.4416  219.7736 H   0  0  0  0  0  0  0  0  0  0  0  0
  143.6652   71.8516  220.6511 H   0  0  0  0  0  0  0  0  0  0  0  0
  144.8864   75.9620  220.1324 H   0  0  0  0  0  0  0  0  0  0  0  0
  138.5880   73.1060  222.4930 H   0  0  0  0  0  0  0  0  0  0  0  0
  140.0082   70.6460  222.2294 H   0  0  0  0  0  0  0  0  0  0  0  0
  139.2462   68.8816  223.8466 H   0  0  0  0  0  0  0  0  0  0  0  0
  139.0596   67.9891  226.1559 H   0  0  0  0  0  0  0  0  0  0  0  0
  139.8039   69.3810  228.0840 H   0  0  0  0  0  0  0  0  0  0  0  0
  140.9174   72.5284  225.3493 H   0  0  0  0  0  0  0  0  0  0  0  0
  1  2  2  0
  2  3  1  0
  3  4  1  0
  4  5  1  0
  5  6  1  0
  6  7  1  0
  7  8  2  0
  8  9  1  0
  9 10  2  0
 10 11  1  0
 10 12  1  0
 12 13  2  0
 13 14  1  0
  2 15  1  0
 15 16  1  0
 16 17  2  0
 17 18  1  0
 18 19  2  0
 19 20  1  0
 20 21  2  0
 21 22  1  0
 22 23  1  0
 23 24  1  0
 23 25  1  0
 23 26  1  0
 22 27  2  0
 13  7  1  0
 27 18  1  0
  3 28  1  0
  3 29  1  0
  4 30  1  0
  4 31  1  0
  5 32  1  0
  5 33  1  0
  8 34  1  0
  9 35  1  0
 12 36  1  0
 15 37  1  0
 17 38  1  0
 19 39  1  0
 20 40  1  0
 21 41  1  0
 27 42  1  0
M  END
>  <smiles>  (7) 
O=C(CCCOc1ccc(Cl)cc1Cl)NN=Cc1cccc(C(F)(F)F)c1

>  <score_type>  (7) 
oracle

>  <origin>  (7) 
autodockgpu

>  <m_score__min__energy>  (7) 
-7.3600000000000003

>  <m_primary>  (7) 
energy

>  <rmsd>  (7) 
9.16402297326524

>  <m_score__min__rmsd>  (7) 
9.16402297326524

>  <meeko>  (7) 
{"free_energy": -6.52, "intermolecular_energy": -9.2, "internal_energy": -1.29, "cluster_size": 5, "cluster_id": 5, "rank_in_cluster": 3}

>  <energy>  (7) 
-6.83

>  <cluster_rmsd>  (7) 
1.92

>  <cluster>  (7) 
1

$$$$

     RDKit          3D

 42 43  0  0  1  0  0  0  0  0999 V2000
  138.9820   70.4000  220.9460 O   0  0  0  0  0  0  0  0  0  0  0  0
  139.1290   71.5370  221.4860 C   0  0  0  0  0  0  0  0  0  0  0  0
  139.6120   72.6260  220.5710 C   0  0  0  0  0  0  0  0  0  0  0  0
  138.3890   73.5050  220.2850 C   0  0  0  0  0  0  0  0  0  0  0  0
  138.0720   74.3760  221.4840 C   0  0  0  0  0  0  0  0  0  0  0  0
  139.2360   74.6740  222.2310 O   0  0  0  0  0  0  0  0  0  0  0  0
  139.7400   75.9870  222.1790 C   0  0  0  0  0  0  0  0  0  0  0  0
  139.0430   77.0500  222.7360 C   0  0  0  0  0  0  0  0  0  0  0  0
  139.5030   78.3470  222.7050 C   0  0  0  0  0  0  0  0  0  0  0  0
  140.7250   78.5910  222.0830 C   0  0  0  0  0  0  0  0  0  0  0  0
  141.2760   80.2520  222.0650 Cl  0  0  0  0  0  0  0  0  0  0  0  0
  141.4470   77.5570  221.5180 C   0  0  0  0  0  0  0  0  0  0  0  0
  140.9590   76.2550  221.5630 C   0  0  0  0  0  0  0  0  0  0  0  0
  141.8930   74.9620  220.8380 Cl  0  0  0  0  0  0  0  0  0  0  0  0
  138.8680   71.7870  222.8430 N   0  0  0  0  0  0  0  0  0  0  0  0
  138.4150   70.8140  223.7500 N   0  0  0  0  0  0  0  0  0  0  0  0
  139.1660   69.7770  224.0120 C   0  0  0  0  0  0  0  0  0  0  0  0
  139.7930   69.6110  225.3360 C   0  0  0  0  0  0  0  0  0  0  0  0
  140.0800   68.3630  225.8520 C   0  0  0  0  0  0  0  0  0  0  0  0
  140.6710   68.2160  227.1000 C   0  0  0  0  0  0  0  0  0  0  0  0
  140.9810   69.3420  227.8470 C   0  0  0  0  0  0  0  0  0  0  0  0
  140.6950   70.6110  227.3370 C   0  0  0  0  0  0  0  0  0  0  0  0
  141.0380   71.8130  228.1600 C   0  0  0  0  0  0  0  0  0  0  0  0
  139.9170   72.3230  228.7540 F   0  0  0  0  0  0  0  0  0  0  0  0
  142.0220   71.4890  229.0510 F   0  0  0  0  0  0  0  0  0  0  0  0
  141.5850   72.7150  227.2380 F   0  0  0  0  0  0  0  0  0  0  0  0
  140.1030   70.7300  226.0830 C   0  0  0  0  0  0  0  0  0  0  0  0
  140.4012   73.2155  221.0605 H   0  0  0  0  0  0  0  0  0  0  0  0
  140.0409   72.2158  219.6449 H   0  0  0  0  0  0  0  0  0  0  0  0
  138.5989   74.1465  219.4164 H   0  0  0  0  0  0  0  0  0  0  0  0
  137.5249   72.8570  220.0765 H   0  0  0  0  0  0  0  0  0  0  0  0
  137.6218   75.3165  221.1335 H   0  0  0  0  0  0  0  0  0  0  0  0
  137.3756   73.8269  222.1348 H   0  0  0  0  0  0  0  0  0  0  0  0
  138.0787   76.8468  223.2247 H   0  0  0  0  0  0  0  0  0  0  0  0
  138.9235   79.1652  223.1574 H   0  0  0  0  0  0  0  0  0  0  0  0
  142.4112   77.7642  221.0308 H   0  0  0  0  0  0  0  0  0  0  0  0
  139.0020   72.7520  223.2680 H   0  0  0  0  0  0  0  0  0  0  0  0
  139.3326   69.0175  223.2339 H   0  0  0  0  0  0  0  0  0  0  0  0
  139.8356   67.4670  225.2626 H   0  0  0  0  0  0  0  0  0  0  0  0
  140.8917   67.2127  227.4933 H   0  0  0  0  0  0  0  0  0  0  0  0
  141.4499   69.2369  228.8365 H   0  0  0  0  0  0  0  0  0  0  0  0
  139.8790   71.7293  225.6815 H   0  0  0  0  0  0  0  0  0  0  0  0
  1  2  2  0
  2  3  1  0
  3  4  1  0
  4  5  1  0
  5  6  1  0
  6  7  1  0
  7  8  2  0
  8  9  1  0
  9 10  2  0
 10 11  1  0
 10 12  1  0
 12 13  2  0
 13 14  1  0
  2 15  1  0
 15 16  1  0
 16 17  2  0
 17 18  1  0
 18 19  2  0
 19 20  1  0
 20 21  2  0
 21 22  1  0
 22 23  1  0
 23 24  1  0
 23 25  1  0
 23 26  1  0
 22 27  2  0
 13  7  1  0
 27 18  1  0
  3 28  1  0
  3 29  1  0
  4 30  1  0
  4 31  1  0
  5 32  1  0
  5 33  1  0
  8 34  1  0
  9 35  1  0
 12 36  1  0
 15 37  1  0
 17 38  1  0
 19 39  1  0
 20 40  1  0
 21 41  1  0
 27 42  1  0
M  END
>  <smiles>  (8) 
O=C(CCCOc1ccc(Cl)cc1Cl)NN=Cc1cccc(C(F)(F)F)c1

>  <score_type>  (8) 
oracle

>  <origin>  (8) 
autodockgpu

>  <m_score__min__energy>  (8) 
-7.3600000000000003

>  <m_primary>  (8) 
energy

>  <rmsd>  (8) 
7.026451211149817

>  <m_score__min__rmsd>  (8) 
7.026451211149817

>  <meeko>  (8) 
{"free_energy": -6.38, "intermolecular_energy": -9.06, "internal_energy": -1.54, "cluster_size": 16, "cluster_id": 1, "rank_in_cluster": 14}

>  <energy>  (8) 
-6.7

>  <cluster_rmsd>  (8) 
1.85

>  <cluster>  (8) 
1

$$$$

     RDKit          3D

 42 43  0  0  1  0  0  0  0  0999 V2000
  139.0060   74.3560  219.7740 O   0  0  0  0  0  0  0  0  0  0  0  0
  139.0800   73.8780  220.9450 C   0  0  0  0  0  0  0  0  0  0  0  0
  138.9450   72.3860  221.0410 C   0  0  0  0  0  0  0  0  0  0  0  0
  140.3740   71.8420  221.1660 C   0  0  0  0  0  0  0  0  0  0  0  0
  140.9610   72.2070  222.5140 C   0  0  0  0  0  0  0  0  0  0  0  0
  139.9700   72.2310  223.5230 O   0  0  0  0  0  0  0  0  0  0  0  0
  140.1310   71.3800  224.6330 C   0  0  0  0  0  0  0  0  0  0  0  0
  140.9530   71.7280  225.6950 C   0  0  0  0  0  0  0  0  0  0  0  0
  141.1360   70.9230  226.7970 C   0  0  0  0  0  0  0  0  0  0  0  0
  140.4590   69.7070  226.8360 C   0  0  0  0  0  0  0  0  0  0  0  0
  140.7160   68.7120  228.2520 Cl  0  0  0  0  0  0  0  0  0  0  0  0
  139.6310   69.3270  225.7960 C   0  0  0  0  0  0  0  0  0  0  0  0
  139.4640   70.1600  224.6930 C   0  0  0  0  0  0  0  0  0  0  0  0
  138.4100   69.6550  223.3870 Cl  0  0  0  0  0  0  0  0  0  0  0  0
  139.2750   74.6690  222.0900 N   0  0  0  0  0  0  0  0  0  0  0  0
  139.4090   76.0670  222.0680 N   0  0  0  0  0  0  0  0  0  0  0  0
  140.5700   76.6070  222.3290 C   0  0  0  0  0  0  0  0  0  0  0  0
  140.6710   78.0150  222.7570 C   0  0  0  0  0  0  0  0  0  0  0  0
  141.8930   78.6430  222.9010 C   0  0  0  0  0  0  0  0  0  0  0  0
  141.9790   79.9690  223.3050 C   0  0  0  0  0  0  0  0  0  0  0  0
  140.8190   80.6800  223.5690 C   0  0  0  0  0  0  0  0  0  0  0  0
  139.5770   80.0560  223.4270 C   0  0  0  0  0  0  0  0  0  0  0  0
  138.3370   80.8430  223.7180 C   0  0  0  0  0  0  0  0  0  0  0  0
  137.2230   80.1170  223.3970 F   0  0  0  0  0  0  0  0  0  0  0  0
  138.3550   81.2570  225.0200 F   0  0  0  0  0  0  0  0  0  0  0  0
  138.4570   81.9810  222.9110 F   0  0  0  0  0  0  0  0  0  0  0  0
  139.5190   78.7260  223.0220 C   0  0  0  0  0  0  0  0  0  0  0  0
  138.3523   72.1116  221.9261 H   0  0  0  0  0  0  0  0  0  0  0  0
  138.4296   71.9697  220.1629 H   0  0  0  0  0  0  0  0  0  0  0  0
  140.3554   70.7470  221.0631 H   0  0  0  0  0  0  0  0  0  0  0  0
  140.9955   72.2852  220.3739 H   0  0  0  0  0  0  0  0  0  0  0  0
  141.7267   71.4645  222.7830 H   0  0  0  0  0  0  0  0  0  0  0  0
  141.3996   73.2129  222.4379 H   0  0  0  0  0  0  0  0  0  0  0  0
  141.4828   72.6911  225.6549 H   0  0  0  0  0  0  0  0  0  0  0  0
  141.7965   71.2310  227.6209 H   0  0  0  0  0  0  0  0  0  0  0  0
  139.1024   68.3633  225.8402 H   0  0  0  0  0  0  0  0  0  0  0  0
  139.3320   74.2380  223.0600 H   0  0  0  0  0  0  0  0  0  0  0  0
  141.4842   76.0035  222.2282 H   0  0  0  0  0  0  0  0  0  0  0  0
  142.8157   78.0820  222.6916 H   0  0  0  0  0  0  0  0  0  0  0  0
  142.9613   80.4517  223.4147 H   0  0  0  0  0  0  0  0  0  0  0  0
  140.8759   81.7309  223.8889 H   0  0  0  0  0  0  0  0  0  0  0  0
  138.5410   78.2348  222.9116 H   0  0  0  0  0  0  0  0  0  0  0  0
  1  2  2  0
  2  3  1  0
  3  4  1  0
  4  5  1  0
  5  6  1  0
  6  7  1  0
  7  8  2  0
  8  9  1  0
  9 10  2  0
 10 11  1  0
 10 12  1  0
 12 13  2  0
 13 14  1  0
  2 15  1  0
 15 16  1  0
 16 17  2  0
 17 18  1  0
 18 19  2  0
 19 20  1  0
 20 21  2  0
 21 22  1  0
 22 23  1  0
 23 24  1  0
 23 25  1  0
 23 26  1  0
 22 27  2  0
 13  7  1  0
 27 18  1  0
  3 28  1  0
  3 29  1  0
  4 30  1  0
  4 31  1  0
  5 32  1  0
  5 33  1  0
  8 34  1  0
  9 35  1  0
 12 36  1  0
 15 37  1  0
 17 38  1  0
 19 39  1  0
 20 40  1  0
 21 41  1  0
 27 42  1  0
M  END
>  <smiles>  (9) 
O=C(CCCOc1ccc(Cl)cc1Cl)NN=Cc1cccc(C(F)(F)F)c1

>  <score_type>  (9) 
oracle

>  <origin>  (9) 
autodockgpu

>  <m_score__min__energy>  (9) 
-7.3600000000000003

>  <m_primary>  (9) 
energy

>  <rmsd>  (9) 
12.293462366205732

>  <m_score__min__rmsd>  (9) 
12.293462366205732

>  <meeko>  (9) 
{"free_energy": -6.48, "intermolecular_energy": -9.17, "internal_energy": -1.64, "cluster_size": 7, "cluster_id": 3, "rank_in_cluster": 7}

>  <energy>  (9) 
-6.6

>  <cluster_rmsd>  (9) 
1.28

>  <cluster>  (9) 
1

$$$$

     RDKit          3D

 42 43  0  0  1  0  0  0  0  0999 V2000
  140.8580   74.9860  221.4380 O   0  0  0  0  0  0  0  0  0  0  0  0
  139.7440   74.6220  221.9200 C   0  0  0  0  0  0  0  0  0  0  0  0
  138.6030   75.5700  221.6900 C   0  0  0  0  0  0  0  0  0  0  0  0
  137.6650   74.8670  220.7010 C   0  0  0  0  0  0  0  0  0  0  0  0
  136.4850   74.2600  221.4330 C   0  0  0  0  0  0  0  0  0  0  0  0
  136.9030   73.3140  222.3970 O   0  0  0  0  0  0  0  0  0  0  0  0
  136.0300   73.0200  223.4620 C   0  0  0  0  0  0  0  0  0  0  0  0
  135.3420   74.0230  224.1290 C   0  0  0  0  0  0  0  0  0  0  0  0
  134.4810   73.7750  225.1740 C   0  0  0  0  0  0  0  0  0  0  0  0
  134.3000   72.4540  225.5700 C   0  0  0  0  0  0  0  0  0  0  0  0
  133.1960   72.1790  226.9010 Cl  0  0  0  0  0  0  0  0  0  0  0  0
  134.9680   71.4270  224.9290 C   0  0  0  0  0  0  0  0  0  0  0  0
  135.8340   71.7050  223.8750 C   0  0  0  0  0  0  0  0  0  0  0  0
  136.6700   70.3870  223.0800 Cl  0  0  0  0  0  0  0  0  0  0  0  0
  139.5630   73.4200  222.6250 N   0  0  0  0  0  0  0  0  0  0  0  0
  140.5870   72.4910  222.8730 N   0  0  0  0  0  0  0  0  0  0  0  0
  140.2830   71.2380  223.0890 C   0  0  0  0  0  0  0  0  0  0  0  0
  140.1480   70.7170  224.4610 C   0  0  0  0  0  0  0  0  0  0  0  0
  139.6220   69.4650  224.7130 C   0  0  0  0  0  0  0  0  0  0  0  0
  139.4980   68.9820  226.0100 C   0  0  0  0  0  0  0  0  0  0  0  0
  139.9090   69.7690  227.0740 C   0  0  0  0  0  0  0  0  0  0  0  0
  140.4420   71.0370  226.8330 C   0  0  0  0  0  0  0  0  0  0  0  0
  140.8790   71.8700  227.9980 C   0  0  0  0  0  0  0  0  0  0  0  0
  139.7980   72.2580  228.7410 F   0  0  0  0  0  0  0  0  0  0  0  0
  141.8150   71.1850  228.7210 F   0  0  0  0  0  0  0  0  0  0  0  0
  141.5190   72.9690  227.4120 F   0  0  0  0  0  0  0  0  0  0  0  0
  140.5550   71.4970  225.5250 C   0  0  0  0  0  0  0  0  0  0  0  0
  138.0788   75.7743  222.6353 H   0  0  0  0  0  0  0  0  0  0  0  0
  138.9534   76.5359  221.2972 H   0  0  0  0  0  0  0  0  0  0  0  0
  137.2983   75.5990  219.9663 H   0  0  0  0  0  0  0  0  0  0  0  0
  138.2196   74.0654  220.1912 H   0  0  0  0  0  0  0  0  0  0  0  0
  135.9269   75.0621  221.9382 H   0  0  0  0  0  0  0  0  0  0  0  0
  135.8507   73.7446  220.6968 H   0  0  0  0  0  0  0  0  0  0  0  0
  135.4913   75.0645  223.8081 H   0  0  0  0  0  0  0  0  0  0  0  0
  133.9524   74.5962  225.6802 H   0  0  0  0  0  0  0  0  0  0  0  0
  134.8147   70.3870  225.2529 H   0  0  0  0  0  0  0  0  0  0  0  0
  138.6150   73.1420  223.0180 H   0  0  0  0  0  0  0  0  0  0  0  0
  140.1258   70.5631  222.2347 H   0  0  0  0  0  0  0  0  0  0  0  0
  139.2948   68.8380  223.8705 H   0  0  0  0  0  0  0  0  0  0  0  0
  139.0766   67.9821  226.1908 H   0  0  0  0  0  0  0  0  0  0  0  0
  139.8157   69.3962  228.1047 H   0  0  0  0  0  0  0  0  0  0  0  0
  140.9745   72.4961  225.3358 H   0  0  0  0  0  0  0  0  0  0  0  0
  1  2  2  0
  2  3  1  0
  3  4  1  0
  4  5  1  0
  5  6  1  0
  6  7  1  0
  7  8  2  0
  8  9  1  0
  9 10  2  0
 10 11  1  0
 10 12  1  0
 12 13  2  0
 13 14  1  0
  2 15  1  0
 15 16  1  0
 16 17  2  0
 17 18  1  0
 18 19  2  0
 19 20  1  0
 20 21  2  0
 21 22  1  0
 22 23  1  0
 23 24  1  0
 23 25  1  0
 23 26  1  0
 22 27  2  0
 13  7  1  0
 27 18  1  0
  3 28  1  0
  3 29  1  0
  4 30  1  0
  4 31  1  0
  5 32  1  0
  5 33  1  0
  8 34  1  0
  9 35  1  0
 12 36  1  0
 15 37  1  0
 17 38  1  0
 19 39  1  0
 20 40  1  0
 21 41  1  0
 27 42  1  0
M  END
>  <smiles>  (10) 
O=C(CCCOc1ccc(Cl)cc1Cl)NN=Cc1cccc(C(F)(F)F)c1

>  <score_type>  (10) 
oracle

>  <origin>  (10) 
autodockgpu

>  <m_score__min__energy>  (10) 
-7.3600000000000003

>  <m_primary>  (10) 
energy

>  <rmsd>  (10) 
10.824325589440036

>  <m_score__min__rmsd>  (10) 
10.824325589440036

>  <meeko>  (10) 
{"free_energy": -5.59, "intermolecular_energy": -8.28, "internal_energy": -2.29, "cluster_size": 6, "cluster_id": 6, "rank_in_cluster": 5}

>  <energy>  (10) 
-6.55

>  <cluster_rmsd>  (10) 
1.27

>  <cluster>  (10) 
1

$$$$

     RDKit          3D

 42 43  0  0  1  0  0  0  0  0999 V2000
  140.7950   74.8580  220.1110 O   0  0  0  0  0  0  0  0  0  0  0  0
  140.2980   73.9990  220.8990 C   0  0  0  0  0  0  0  0  0  0  0  0
  140.4870   72.5660  220.4920 C   0  0  0  0  0  0  0  0  0  0  0  0
  141.0100   71.8420  221.7380 C   0  0  0  0  0  0  0  0  0  0  0  0
  139.8690   71.1710  222.4770 C   0  0  0  0  0  0  0  0  0  0  0  0
  139.6570   71.7580  223.7470 O   0  0  0  0  0  0  0  0  0  0  0  0
  139.8950   70.9710  224.8900 C   0  0  0  0  0  0  0  0  0  0  0  0
  140.9270   71.2670  225.7680 C   0  0  0  0  0  0  0  0  0  0  0  0
  141.1890   70.5210  226.8950 C   0  0  0  0  0  0  0  0  0  0  0  0
  140.3760   69.4220  227.1540 C   0  0  0  0  0  0  0  0  0  0  0  0
  140.7410   68.5000  228.5960 Cl  0  0  0  0  0  0  0  0  0  0  0  0
  139.3370   69.0960  226.3020 C   0  0  0  0  0  0  0  0  0  0  0  0
  139.0930   69.8670  225.1690 C   0  0  0  0  0  0  0  0  0  0  0  0
  137.7720   69.4330  224.1030 Cl  0  0  0  0  0  0  0  0  0  0  0  0
  139.6120   74.3380  222.0770 N   0  0  0  0  0  0  0  0  0  0  0  0
  139.4010   75.6570  222.5140 N   0  0  0  0  0  0  0  0  0  0  0  0
  140.3440   76.5480  222.3520 C   0  0  0  0  0  0  0  0  0  0  0  0
  140.1320   77.9540  222.7420 C   0  0  0  0  0  0  0  0  0  0  0  0
  138.8740   78.4440  223.0350 C   0  0  0  0  0  0  0  0  0  0  0  0
  138.6840   79.7700  223.4010 C   0  0  0  0  0  0  0  0  0  0  0  0
  139.7750   80.6230  223.4750 C   0  0  0  0  0  0  0  0  0  0  0  0
  141.0520   80.1390  223.1800 C   0  0  0  0  0  0  0  0  0  0  0  0
  142.2160   81.0770  223.2670 C   0  0  0  0  0  0  0  0  0  0  0  0
  142.1630   82.0000  222.2580 F   0  0  0  0  0  0  0  0  0  0  0  0
  142.2560   81.6390  224.5110 F   0  0  0  0  0  0  0  0  0  0  0  0
  143.3350   80.2450  223.1420 F   0  0  0  0  0  0  0  0  0  0  0  0
  141.2150   78.8060  222.8160 C   0  0  0  0  0  0  0  0  0  0  0  0
  139.5299   72.1302  220.1695 H   0  0  0  0  0  0  0  0  0  0  0  0
  141.1862   72.4743  219.6478 H   0  0  0  0  0  0  0  0  0  0  0  0
  141.7426   71.0800  221.4337 H   0  0  0  0  0  0  0  0  0  0  0  0
  141.4841   72.5769  222.4052 H   0  0  0  0  0  0  0  0  0  0  0  0
  138.9501   71.2687  221.8802 H   0  0  0  0  0  0  0  0  0  0  0  0
  140.1291   70.1125  222.6252 H   0  0  0  0  0  0  0  0  0  0  0  0
  141.5650   72.1372  225.5542 H   0  0  0  0  0  0  0  0  0  0  0  0
  142.0160   70.7858  227.5702 H   0  0  0  0  0  0  0  0  0  0  0  0
  138.7015   68.2250  226.5201 H   0  0  0  0  0  0  0  0  0  0  0  0
  139.2050   73.5950  222.7180 H   0  0  0  0  0  0  0  0  0  0  0  0
  141.3085   76.2446  221.9189 H   0  0  0  0  0  0  0  0  0  0  0  0
  138.0060   77.7707  222.9773 H   0  0  0  0  0  0  0  0  0  0  0  0
  137.6745   80.1415  223.6308 H   0  0  0  0  0  0  0  0  0  0  0  0
  139.6357   81.6751  223.7644 H   0  0  0  0  0  0  0  0  0  0  0  0
  142.2209   78.4261  222.5840 H   0  0  0  0  0  0  0  0  0  0  0  0
  1  2  2  0
  2  3  1  0
  3  4  1  0
  4  5  1  0
  5  6  1  0
  6  7  1  0
  7  8  2  0
  8  9  1  0
  9 10  2  0
 10 11  1  0
 10 12  1  0
 12 13  2  0
 13 14  1  0
  2 15  1  0
 15 16  1  0
 16 17  2  0
 17 18  1  0
 18 19  2  0
 19 20  1  0
 20 21  2  0
 21 22  1  0
 22 23  1  0
 23 24  1  0
 23 25  1  0
 23 26  1  0
 22 27  2  0
 13  7  1  0
 27 18  1  0
  3 28  1  0
  3 29  1  0
  4 30  1  0
  4 31  1  0
  5 32  1  0
  5 33  1  0
  8 34  1  0
  9 35  1  0
 12 36  1  0
 15 37  1  0
 17 38  1  0
 19 39  1  0
 20 40  1  0
 21 41  1  0
 27 42  1  0
M  END
>  <smiles>  (11) 
O=C(CCCOc1ccc(Cl)cc1Cl)NN=Cc1cccc(C(F)(F)F)c1

>  <score_type>  (11) 
oracle

>  <origin>  (11) 
autodockgpu

>  <m_score__min__energy>  (11) 
-7.3600000000000003

>  <m_primary>  (11) 
energy

>  <rmsd>  (11) 
12.9036345851187

>  <m_score__min__rmsd>  (11) 
12.9036345851187

>  <meeko>  (11) 
{"free_energy": -6.83, "intermolecular_energy": -9.52, "internal_energy": -1.21, "cluster_size": 7, "cluster_id": 3, "rank_in_cluster": 2}

>  <energy>  (11) 
-6.53

>  <cluster_rmsd>  (11) 
1.66

>  <cluster>  (11) 
1

$$$$

     RDKit          3D

 42 43  0  0  1  0  0  0  0  0999 V2000
  139.8250   73.9470  219.9230 O   0  0  0  0  0  0  0  0  0  0  0  0
  139.3340   73.4830  220.9950 C   0  0  0  0  0  0  0  0  0  0  0  0
  138.8710   72.0570  220.9270 C   0  0  0  0  0  0  0  0  0  0  0  0
  140.0660   71.2060  221.3720 C   0  0  0  0  0  0  0  0  0  0  0  0
  140.7540   71.8430  222.5630 C   0  0  0  0  0  0  0  0  0  0  0  0
  139.8610   72.0170  223.6460 O   0  0  0  0  0  0  0  0  0  0  0  0
  140.0070   71.1780  224.7680 C   0  0  0  0  0  0  0  0  0  0  0  0
  140.8860   71.4930  225.7950 C   0  0  0  0  0  0  0  0  0  0  0  0
  141.0560   70.6990  226.9060 C   0  0  0  0  0  0  0  0  0  0  0  0
  140.3070   69.5290  226.9930 C   0  0  0  0  0  0  0  0  0  0  0  0
  140.5510   68.5470  228.4210 Cl  0  0  0  0  0  0  0  0  0  0  0  0
  139.4210   69.1820  225.9890 C   0  0  0  0  0  0  0  0  0  0  0  0
  139.2680   70.0030  224.8760 C   0  0  0  0  0  0  0  0  0  0  0  0
  138.1410   69.5410  223.6170 Cl  0  0  0  0  0  0  0  0  0  0  0  0
  139.2200   74.2320  222.1790 N   0  0  0  0  0  0  0  0  0  0  0  0
  139.6340   75.5680  222.3090 N   0  0  0  0  0  0  0  0  0  0  0  0
  140.8510   75.9020  221.9660 C   0  0  0  0  0  0  0  0  0  0  0  0
  141.1790   77.2910  221.5950 C   0  0  0  0  0  0  0  0  0  0  0  0
  141.4210   77.6530  220.2850 C   0  0  0  0  0  0  0  0  0  0  0  0
  141.7290   78.9640  219.9440 C   0  0  0  0  0  0  0  0  0  0  0  0
  141.7960   79.9310  220.9350 C   0  0  0  0  0  0  0  0  0  0  0  0
  141.5530   79.5770  222.2650 C   0  0  0  0  0  0  0  0  0  0  0  0
  141.6310   80.6370  223.3190 C   0  0  0  0  0  0  0  0  0  0  0  0
  142.1090   81.8040  222.7900 F   0  0  0  0  0  0  0  0  0  0  0  0
  140.4100   80.7740  223.9170 F   0  0  0  0  0  0  0  0  0  0  0  0
  142.5110   80.1080  224.2720 F   0  0  0  0  0  0  0  0  0  0  0  0
  141.2470   78.2570  222.5790 C   0  0  0  0  0  0  0  0  0  0  0  0
  138.0166   71.8995  221.6017 H   0  0  0  0  0  0  0  0  0  0  0  0
  138.5386   71.7880  219.9135 H   0  0  0  0  0  0  0  0  0  0  0  0
  139.7123   70.2027  221.6517 H   0  0  0  0  0  0  0  0  0  0  0  0
  140.7833   71.1359  220.5410 H   0  0  0  0  0  0  0  0  0  0  0  0
  141.5838   71.1963  222.8844 H   0  0  0  0  0  0  0  0  0  0  0  0
  141.1242   72.8331  222.2586 H   0  0  0  0  0  0  0  0  0  0  0  0
  141.4736   72.4197  225.7172 H   0  0  0  0  0  0  0  0  0  0  0  0
  141.7622   70.9803  227.7011 H   0  0  0  0  0  0  0  0  0  0  0  0
  138.8356   68.2543  226.0707 H   0  0  0  0  0  0  0  0  0  0  0  0
  138.8030   73.8150  223.0630 H   0  0  0  0  0  0  0  0  0  0  0  0
  141.6407   75.1364  221.9541 H   0  0  0  0  0  0  0  0  0  0  0  0
  141.3689   76.8885  219.4958 H   0  0  0  0  0  0  0  0  0  0  0  0
  141.9185   79.2330  218.8944 H   0  0  0  0  0  0  0  0  0  0  0  0
  142.0393   80.9720  220.6758 H   0  0  0  0  0  0  0  0  0  0  0  0
  141.0565   77.9788  223.6261 H   0  0  0  0  0  0  0  0  0  0  0  0
  1  2  2  0
  2  3  1  0
  3  4  1  0
  4  5  1  0
  5  6  1  0
  6  7  1  0
  7  8  2  0
  8  9  1  0
  9 10  2  0
 10 11  1  0
 10 12  1  0
 12 13  2  0
 13 14  1  0
  2 15  1  0
 15 16  1  0
 16 17  2  0
 17 18  1  0
 18 19  2  0
 19 20  1  0
 20 21  2  0
 21 22  1  0
 22 23  1  0
 23 24  1  0
 23 25  1  0
 23 26  1  0
 22 27  2  0
 13  7  1  0
 27 18  1  0
  3 28  1  0
  3 29  1  0
  4 30  1  0
  4 31  1  0
  5 32  1  0
  5 33  1  0
  8 34  1  0
  9 35  1  0
 12 36  1  0
 15 37  1  0
 17 38  1  0
 19 39  1  0
 20 40  1  0
 21 41  1  0
 27 42  1  0
M  END
>  <smiles>  (12) 
O=C(CCCOc1ccc(Cl)cc1Cl)NN=Cc1cccc(C(F)(F)F)c1

>  <score_type>  (12) 
oracle

>  <origin>  (12) 
autodockgpu

>  <m_score__min__energy>  (12) 
-7.3600000000000003

>  <m_primary>  (12) 
energy

>  <rmsd>  (12) 
12.540077982699982

>  <m_score__min__rmsd>  (12) 
12.540077982699982

>  <meeko>  (12) 
{"free_energy": -6.59, "intermolecular_energy": -9.28, "internal_energy": -1.52, "cluster_size": 7, "cluster_id": 3, "rank_in_cluster": 5}

>  <energy>  (12) 
-6.5

>  <cluster_rmsd>  (12) 
1.22

>  <cluster>  (12) 
1

$$$$

     RDKit          3D

 42 43  0  0  1  0  0  0  0  0999 V2000
  140.8480   74.5140  221.0650 O   0  0  0  0  0  0  0  0  0  0  0  0
  139.7230   74.2500  221.5850 C   0  0  0  0  0  0  0  0  0  0  0  0
  138.5710   75.0680  221.0780 C   0  0  0  0  0  0  0  0  0  0  0  0
  137.6210   75.2380  222.2690 C   0  0  0  0  0  0  0  0  0  0  0  0
  137.8390   76.5840  222.9310 C   0  0  0  0  0  0  0  0  0  0  0  0
  138.4200   77.5130  222.0380 O   0  0  0  0  0  0  0  0  0  0  0  0
  139.4800   78.3120  222.5070 C   0  0  0  0  0  0  0  0  0  0  0  0
  140.8020   77.9220  222.3490 C   0  0  0  0  0  0  0  0  0  0  0  0
  141.8650   78.6750  222.7950 C   0  0  0  0  0  0  0  0  0  0  0  0
  141.5880   79.8810  223.4320 C   0  0  0  0  0  0  0  0  0  0  0  0
  142.9640   80.8100  223.9830 Cl  0  0  0  0  0  0  0  0  0  0  0  0
  140.2830   80.3030  223.6070 C   0  0  0  0  0  0  0  0  0  0  0  0
  139.2260   79.5220  223.1470 C   0  0  0  0  0  0  0  0  0  0  0  0
  137.5810   80.0780  223.3820 Cl  0  0  0  0  0  0  0  0  0  0  0  0
  139.5410   73.2660  222.5720 N   0  0  0  0  0  0  0  0  0  0  0  0
  140.5750   72.4680  223.0880 N   0  0  0  0  0  0  0  0  0  0  0  0
  140.3030   71.2710  223.5380 C   0  0  0  0  0  0  0  0  0  0  0  0
  140.5180   70.9270  224.9550 C   0  0  0  0  0  0  0  0  0  0  0  0
  140.8470   71.8860  225.8920 C   0  0  0  0  0  0  0  0  0  0  0  0
  141.0480   71.5530  227.2260 C   0  0  0  0  0  0  0  0  0  0  0  0
  140.9180   70.2330  227.6280 C   0  0  0  0  0  0  0  0  0  0  0  0
  140.5860   69.2530  226.6890 C   0  0  0  0  0  0  0  0  0  0  0  0
  140.4510   67.8340  227.1460 C   0  0  0  0  0  0  0  0  0  0  0  0
  139.1740   67.3850  226.9420 F   0  0  0  0  0  0  0  0  0  0  0  0
  141.3980   67.0650  226.5310 F   0  0  0  0  0  0  0  0  0  0  0  0
  140.7650   67.8810  228.5100 F   0  0  0  0  0  0  0  0  0  0  0  0
  140.3900   69.6130  225.3600 C   0  0  0  0  0  0  0  0  0  0  0  0
  138.9235   76.0489  220.7265 H   0  0  0  0  0  0  0  0  0  0  0  0
  138.0710   74.5792  220.2288 H   0  0  0  0  0  0  0  0  0  0  0  0
  136.5814   75.1720  221.9156 H   0  0  0  0  0  0  0  0  0  0  0  0
  137.8222   74.4430  223.0022 H   0  0  0  0  0  0  0  0  0  0  0  0
  136.8695   76.9753  223.2729 H   0  0  0  0  0  0  0  0  0  0  0  0
  138.5261   76.4443  223.7786 H   0  0  0  0  0  0  0  0  0  0  0  0
  141.0106   76.9672  221.8442 H   0  0  0  0  0  0  0  0  0  0  0  0
  142.9010   78.3340  222.6523 H   0  0  0  0  0  0  0  0  0  0  0  0
  140.0791   81.2591  224.1114 H   0  0  0  0  0  0  0  0  0  0  0  0
  138.5840   73.0680  222.9900 H   0  0  0  0  0  0  0  0  0  0  0  0
  139.9080   70.5097  222.8492 H   0  0  0  0  0  0  0  0  0  0  0  0
  140.9521   72.9345  225.5763 H   0  0  0  0  0  0  0  0  0  0  0  0
  141.3085   72.3317  227.9580 H   0  0  0  0  0  0  0  0  0  0  0  0
  141.0755   69.9581  228.6814 H   0  0  0  0  0  0  0  0  0  0  0  0
  140.1295   68.8406  224.6214 H   0  0  0  0  0  0  0  0  0  0  0  0
  1  2  2  0
  2  3  1  0
  3  4  1  0
  4  5  1  0
  5  6  1  0
  6  7  1  0
  7  8  2  0
  8  9  1  0
  9 10  2  0
 10 11  1  0
 10 12  1  0
 12 13  2  0
 13 14  1  0
  2 15  1  0
 15 16  1  0
 16 17  2  0
 17 18  1  0
 18 19  2  0
 19 20  1  0
 20 21  2  0
 21 22  1  0
 22 23  1  0
 23 24  1  0
 23 25  1  0
 23 26  1  0
 22 27  2  0
 13  7  1  0
 27 18  1  0
  3 28  1  0
  3 29  1  0
  4 30  1  0
  4 31  1  0
  5 32  1  0
  5 33  1  0
  8 34  1  0
  9 35  1  0
 12 36  1  0
 15 37  1  0
 17 38  1  0
 19 39  1  0
 20 40  1  0
 21 41  1  0
 27 42  1  0
M  END
>  <smiles>  (13) 
O=C(CCCOc1ccc(Cl)cc1Cl)NN=Cc1cccc(C(F)(F)F)c1

>  <score_type>  (13) 
oracle

>  <origin>  (13) 
autodockgpu

>  <m_score__min__energy>  (13) 
-7.3600000000000003

>  <m_primary>  (13) 
energy

>  <rmsd>  (13) 
6.019546409338028

>  <m_score__min__rmsd>  (13) 
6.019546409338028

>  <meeko>  (13) 
{"free_energy": -7.29, "intermolecular_energy": -9.98, "internal_energy": -0.94, "cluster_size": 7, "cluster_id": 2, "rank_in_cluster": 1}

>  <energy>  (13) 
-6.48

>  <cluster_rmsd>  (13) 
1.53

>  <cluster>  (13) 
1

$$$$

     RDKit          3D

 42 43  0  0  1  0  0  0  0  0999 V2000
  139.6640   70.9390  220.6730 O   0  0  0  0  0  0  0  0  0  0  0  0
  139.9000   72.1060  221.1070 C   0  0  0  0  0  0  0  0  0  0  0  0
  140.5220   73.0480  220.1170 C   0  0  0  0  0  0  0  0  0  0  0  0
  141.7670   73.6200  220.8060 C   0  0  0  0  0  0  0  0  0  0  0  0
  141.5330   75.0620  221.2080 C   0  0  0  0  0  0  0  0  0  0  0  0
  140.3570   75.2010  221.9820 O   0  0  0  0  0  0  0  0  0  0  0  0
  139.9820   76.4940  222.3940 C   0  0  0  0  0  0  0  0  0  0  0  0
  140.9310   77.4680  222.6670 C   0  0  0  0  0  0  0  0  0  0  0  0
  140.6030   78.7420  223.0720 C   0  0  0  0  0  0  0  0  0  0  0  0
  139.2540   79.0560  223.2100 C   0  0  0  0  0  0  0  0  0  0  0  0
  138.8770   80.6850  223.7250 Cl  0  0  0  0  0  0  0  0  0  0  0  0
  138.2790   78.1110  222.9460 C   0  0  0  0  0  0  0  0  0  0  0  0
  138.6380   76.8300  222.5380 C   0  0  0  0  0  0  0  0  0  0  0  0
  137.3850   75.6500  222.2110 Cl  0  0  0  0  0  0  0  0  0  0  0  0
  139.6110   72.5150  222.4210 N   0  0  0  0  0  0  0  0  0  0  0  0
  139.0310   71.6840  223.3940 N   0  0  0  0  0  0  0  0  0  0  0  0
  139.7350   70.7150  223.9170 C   0  0  0  0  0  0  0  0  0  0  0  0
  140.1800   70.7750  225.3210 C   0  0  0  0  0  0  0  0  0  0  0  0
  140.7540   71.9130  225.8530 C   0  0  0  0  0  0  0  0  0  0  0  0
  141.1700   71.9610  227.1770 C   0  0  0  0  0  0  0  0  0  0  0  0
  141.0080   70.8460  227.9850 C   0  0  0  0  0  0  0  0  0  0  0  0
  140.4300   69.6880  227.4600 C   0  0  0  0  0  0  0  0  0  0  0  0
  140.2650   68.4970  228.3500 C   0  0  0  0  0  0  0  0  0  0  0  0
  141.4810   67.9360  228.6300 F   0  0  0  0  0  0  0  0  0  0  0  0
  139.5650   68.8560  229.4670 F   0  0  0  0  0  0  0  0  0  0  0  0
  139.4570   67.6250  227.6090 F   0  0  0  0  0  0  0  0  0  0  0  0
  140.0210   69.6670  226.1300 C   0  0  0  0  0  0  0  0  0  0  0  0
  140.8054   72.5084  219.2013 H   0  0  0  0  0  0  0  0  0  0  0  0
  139.8222   73.8438  219.8220 H   0  0  0  0  0  0  0  0  0  0  0  0
  141.9898   73.0250  221.7040 H   0  0  0  0  0  0  0  0  0  0  0  0
  142.6136   73.5780  220.1049 H   0  0  0  0  0  0  0  0  0  0  0  0
  142.3926   75.4124  221.7981 H   0  0  0  0  0  0  0  0  0  0  0  0
  141.4159   75.6605  220.2925 H   0  0  0  0  0  0  0  0  0  0  0  0
  141.9945   77.2105  222.5547 H   0  0  0  0  0  0  0  0  0  0  0  0
  141.3831   79.4891  223.2802 H   0  0  0  0  0  0  0  0  0  0  0  0
  137.2166   78.3729  223.0589 H   0  0  0  0  0  0  0  0  0  0  0  0
  139.8220   73.5010  222.7560 H   0  0  0  0  0  0  0  0  0  0  0  0
  139.9991   69.8427  223.3011 H   0  0  0  0  0  0  0  0  0  0  0  0
  140.8843   72.7995  225.2149 H   0  0  0  0  0  0  0  0  0  0  0  0
  141.6248   72.8771  227.5819 H   0  0  0  0  0  0  0  0  0  0  0  0
  141.3334   70.8733  229.0354 H   0  0  0  0  0  0  0  0  0  0  0  0
  139.5647   68.7552  225.7173 H   0  0  0  0  0  0  0  0  0  0  0  0
  1  2  2  0
  2  3  1  0
  3  4  1  0
  4  5  1  0
  5  6  1  0
  6  7  1  0
  7  8  2  0
  8  9  1  0
  9 10  2  0
 10 11  1  0
 10 12  1  0
 12 13  2  0
 13 14  1  0
  2 15  1  0
 15 16  1  0
 16 17  2  0
 17 18  1  0
 18 19  2  0
 19 20  1  0
 20 21  2  0
 21 22  1  0
 22 23  1  0
 23 24  1  0
 23 25  1  0
 23 26  1  0
 22 27  2  0
 13  7  1  0
 27 18  1  0
  3 28  1  0
  3 29  1  0
  4 30  1  0
  4 31  1  0
  5 32  1  0
  5 33  1  0
  8 34  1  0
  9 35  1  0
 12 36  1  0
 15 37  1  0
 17 38  1  0
 19 39  1  0
 20 40  1  0
 21 41  1  0
 27 42  1  0
M  END
>  <smiles>  (14) 
O=C(CCCOc1ccc(Cl)cc1Cl)NN=Cc1cccc(C(F)(F)F)c1

>  <score_type>  (14) 
oracle

>  <origin>  (14) 
autodockgpu

>  <m_score__min__energy>  (14) 
-7.3600000000000003

>  <m_primary>  (14) 
energy

>  <rmsd>  (14) 
6.985362365674066

>  <m_score__min__rmsd>  (14) 
6.985362365674066

>  <meeko>  (14) 
{"free_energy": -6.35, "intermolecular_energy": -9.04, "internal_energy": -1.77, "cluster_size": 7, "cluster_id": 2, "rank_in_cluster": 6}

>  <energy>  (14) 
-6.38

>  <cluster_rmsd>  (14) 
1.43

>  <cluster>  (14) 
1

$$$$

     RDKit          3D

 42 43  0  0  1  0  0  0  0  0999 V2000
  140.1780   75.1310  222.0860 O   0  0  0  0  0  0  0  0  0  0  0  0
  141.0190   74.2810  221.6690 C   0  0  0  0  0  0  0  0  0  0  0  0
  142.1180   74.8310  220.8060 C   0  0  0  0  0  0  0  0  0  0  0  0
  141.4810   75.0960  219.4360 C   0  0  0  0  0  0  0  0  0  0  0  0
  141.3630   76.5860  219.1870 C   0  0  0  0  0  0  0  0  0  0  0  0
  140.5110   77.2040  220.1320 O   0  0  0  0  0  0  0  0  0  0  0  0
  141.0840   78.0960  221.0590 C   0  0  0  0  0  0  0  0  0  0  0  0
  141.1040   77.8120  222.4170 C   0  0  0  0  0  0  0  0  0  0  0  0
  141.6540   78.6590  223.3520 C   0  0  0  0  0  0  0  0  0  0  0  0
  142.2130   79.8520  222.9030 C   0  0  0  0  0  0  0  0  0  0  0  0
  142.9020   80.9020  224.1220 Cl  0  0  0  0  0  0  0  0  0  0  0  0
  142.2110   80.1700  221.5570 C   0  0  0  0  0  0  0  0  0  0  0  0
  141.6480   79.2950  220.6320 C   0  0  0  0  0  0  0  0  0  0  0  0
  141.6570   79.7200  218.9320 Cl  0  0  0  0  0  0  0  0  0  0  0  0
  140.9520   72.9120  221.9790 N   0  0  0  0  0  0  0  0  0  0  0  0
  139.9520   72.3350  222.7800 N   0  0  0  0  0  0  0  0  0  0  0  0
  139.9940   71.0550  223.0410 C   0  0  0  0  0  0  0  0  0  0  0  0
  139.9960   70.5650  224.4310 C   0  0  0  0  0  0  0  0  0  0  0  0
  139.5310   69.3060  224.7570 C   0  0  0  0  0  0  0  0  0  0  0  0
  139.5370   68.8520  226.0700 C   0  0  0  0  0  0  0  0  0  0  0  0
  140.0160   69.6760  227.0760 C   0  0  0  0  0  0  0  0  0  0  0  0
  140.4880   70.9520  226.7600 C   0  0  0  0  0  0  0  0  0  0  0  0
  141.0020   71.8250  227.8620 C   0  0  0  0  0  0  0  0  0  0  0  0
  141.8090   71.1100  228.7030 F   0  0  0  0  0  0  0  0  0  0  0  0
  141.6160   72.9220  227.3260 F   0  0  0  0  0  0  0  0  0  0  0  0
  139.8450   72.2670  228.5160 F   0  0  0  0  0  0  0  0  0  0  0  0
  140.4720   71.3820  225.4370 C   0  0  0  0  0  0  0  0  0  0  0  0
  142.5093   75.7658  221.2337 H   0  0  0  0  0  0  0  0  0  0  0  0
  142.9627   74.1304  220.7309 H   0  0  0  0  0  0  0  0  0  0  0  0
  142.1077   74.6461  218.6519 H   0  0  0  0  0  0  0  0  0  0  0  0
  140.4753   74.6508  219.4183 H   0  0  0  0  0  0  0  0  0  0  0  0
  142.3625   77.0401  219.2562 H   0  0  0  0  0  0  0  0  0  0  0  0
  140.9333   76.7354  218.1855 H   0  0  0  0  0  0  0  0  0  0  0  0
  140.6600   76.8666  222.7621 H   0  0  0  0  0  0  0  0  0  0  0  0
  141.6519   78.4011  224.4213 H   0  0  0  0  0  0  0  0  0  0  0  0
  142.6554   81.1168  221.2164 H   0  0  0  0  0  0  0  0  0  0  0  0
  141.6730   72.2220  221.6140 H   0  0  0  0  0  0  0  0  0  0  0  0
  140.0283   70.3333  222.2116 H   0  0  0  0  0  0  0  0  0  0  0  0
  139.1484   68.6498  223.9614 H   0  0  0  0  0  0  0  0  0  0  0  0
  139.1640   67.8452  226.3095 H   0  0  0  0  0  0  0  0  0  0  0  0
  140.0245   69.3266  228.1190 H   0  0  0  0  0  0  0  0  0  0  0  0
  140.8438   72.3871  225.1890 H   0  0  0  0  0  0  0  0  0  0  0  0
  1  2  2  0
  2  3  1  0
  3  4  1  0
  4  5  1  0
  5  6  1  0
  6  7  1  0
  7  8  2  0
  8  9  1  0
  9 10  2  0
 10 11  1  0
 10 12  1  0
 12 13  2  0
 13 14  1  0
  2 15  1  0
 15 16  1  0
 16 17  2  0
 17 18  1  0
 18 19  2  0
 19 20  1  0
 20 21  2  0
 21 22  1  0
 22 23  1  0
 23 24  1  0
 23 25  1  0
 23 26  1  0
 22 27  2  0
 13  7  1  0
 27 18  1  0
  3 28  1  0
  3 29  1  0
  4 30  1  0
  4 31  1  0
  5 32  1  0
  5 33  1  0
  8 34  1  0
  9 35  1  0
 12 36  1  0
 15 37  1  0
 17 38  1  0
 19 39  1  0
 20 40  1  0
 21 41  1  0
 27 42  1  0
M  END
>  <smiles>  (15) 
O=C(CCCOc1ccc(Cl)cc1Cl)NN=Cc1cccc(C(F)(F)F)c1

>  <score_type>  (15) 
oracle

>  <origin>  (15) 
autodockgpu

>  <m_score__min__energy>  (15) 
-7.3600000000000003

>  <m_primary>  (15) 
energy

>  <rmsd>  (15) 
5.57782151704176

>  <m_score__min__rmsd>  (15) 
5.57782151704176

>  <meeko>  (15) 
{"free_energy": -7.02, "intermolecular_energy": -9.7, "internal_energy": -0.79, "cluster_size": 16, "cluster_id": 1, "rank_in_cluster": 5}

>  <energy>  (15) 
-6.22

>  <cluster_rmsd>  (15) 
1.48

>  <cluster>  (15) 
1

$$$$

     RDKit          3D

 42 43  0  0  1  0  0  0  0  0999 V2000
  135.4830   68.1800  223.5040 O   0  0  0  0  0  0  0  0  0  0  0  0
  135.3390   68.9940  224.4660 C   0  0  0  0  0  0  0  0  0  0  0  0
  134.2350   68.6630  225.4290 C   0  0  0  0  0  0  0  0  0  0  0  0
  133.3590   69.9190  225.5090 C   0  0  0  0  0  0  0  0  0  0  0  0
  133.9040   70.8780  226.5480 C   0  0  0  0  0  0  0  0  0  0  0  0
  134.3440   72.0860  225.9580 O   0  0  0  0  0  0  0  0  0  0  0  0
  133.6840   73.2780  226.3140 C   0  0  0  0  0  0  0  0  0  0  0  0
  132.6400   73.2790  227.2270 C   0  0  0  0  0  0  0  0  0  0  0  0
  131.9700   74.4230  227.6000 C   0  0  0  0  0  0  0  0  0  0  0  0
  132.3680   75.6280  227.0270 C   0  0  0  0  0  0  0  0  0  0  0  0
  131.4940   77.0590  227.5260 Cl  0  0  0  0  0  0  0  0  0  0  0  0
  133.4060   75.6660  226.1130 C   0  0  0  0  0  0  0  0  0  0  0  0
  134.0660   74.4940  225.7540 C   0  0  0  0  0  0  0  0  0  0  0  0
  135.3760   74.5680  224.5930 Cl  0  0  0  0  0  0  0  0  0  0  0  0
  136.1420   70.1330  224.6400 N   0  0  0  0  0  0  0  0  0  0  0  0
  137.1890   70.4980  223.7770 N   0  0  0  0  0  0  0  0  0  0  0  0
  138.3170   69.8390  223.8170 C   0  0  0  0  0  0  0  0  0  0  0  0
  138.9820   69.5520  225.1010 C   0  0  0  0  0  0  0  0  0  0  0  0
  139.0190   68.2770  225.6300 C   0  0  0  0  0  0  0  0  0  0  0  0
  139.6480   68.0170  226.8410 C   0  0  0  0  0  0  0  0  0  0  0  0
  140.2520   69.0530  227.5350 C   0  0  0  0  0  0  0  0  0  0  0  0
  140.2210   70.3480  227.0100 C   0  0  0  0  0  0  0  0  0  0  0  0
  140.8800   71.4520  227.7770 C   0  0  0  0  0  0  0  0  0  0  0  0
  139.9400   72.2670  228.3460 F   0  0  0  0  0  0  0  0  0  0  0  0
  141.7540   70.9200  228.6820 F   0  0  0  0  0  0  0  0  0  0  0  0
  141.6330   72.1350  226.8130 F   0  0  0  0  0  0  0  0  0  0  0  0
  139.5850   70.5820  225.7960 C   0  0  0  0  0  0  0  0  0  0  0  0
  133.6477   67.8094  225.0596 H   0  0  0  0  0  0  0  0  0  0  0  0
  134.6301   68.3817  226.4163 H   0  0  0  0  0  0  0  0  0  0  0  0
  133.3475   70.4160  224.5277 H   0  0  0  0  0  0  0  0  0  0  0  0
  132.3386   69.6246  225.7956 H   0  0  0  0  0  0  0  0  0  0  0  0
  133.1115   71.1039  227.2766 H   0  0  0  0  0  0  0  0  0  0  0  0
  134.7642   70.4010  227.0406 H   0  0  0  0  0  0  0  0  0  0  0  0
  132.3329   72.3219  227.6738 H   0  0  0  0  0  0  0  0  0  0  0  0
  131.1461   74.3859  228.3279 H   0  0  0  0  0  0  0  0  0  0  0  0
  133.7107   76.6251  225.6687 H   0  0  0  0  0  0  0  0  0  0  0  0
  135.9970   70.7980  225.4560 H   0  0  0  0  0  0  0  0  0  0  0  0
  138.7767   69.4936  222.8792 H   0  0  0  0  0  0  0  0  0  0  0  0
  138.5413   67.4515  225.0820 H   0  0  0  0  0  0  0  0  0  0  0  0
  139.6664   66.9947  227.2466 H   0  0  0  0  0  0  0  0  0  0  0  0
  140.7534   68.8573  228.4943 H   0  0  0  0  0  0  0  0  0  0  0  0
  139.5618   71.6014  225.3834 H   0  0  0  0  0  0  0  0  0  0  0  0
  1  2  2  0
  2  3  1  0
  3  4  1  0
  4  5  1  0
  5  6  1  0
  6  7  1  0
  7  8  2  0
  8  9  1  0
  9 10  2  0
 10 11  1  0
 10 12  1  0
 12 13  2  0
 13 14  1  0
  2 15  1  0
 15 16  1  0
 16 17  2  0
 17 18  1  0
 18 19  2  0
 19 20  1  0
 20 21  2  0
 21 22  1  0
 22 23  1  0
 23 24  1  0
 23 25  1  0
 23 26  1  0
 22 27  2  0
 13  7  1  0
 27 18  1  0
  3 28  1  0
  3 29  1  0
  4 30  1  0
  4 31  1  0
  5 32  1  0
  5 33  1  0
  8 34  1  0
  9 35  1  0
 12 36  1  0
 15 37  1  0
 17 38  1  0
 19 39  1  0
 20 40  1  0
 21 41  1  0
 27 42  1  0
M  END
>  <smiles>  (16) 
O=C(CCCOc1ccc(Cl)cc1Cl)NN=Cc1cccc(C(F)(F)F)c1

>  <score_type>  (16) 
oracle

>  <origin>  (16) 
autodockgpu

>  <m_score__min__energy>  (16) 
-7.3600000000000003

>  <m_primary>  (16) 
energy

>  <rmsd>  (16) 
13.25954483603638

>  <m_score__min__rmsd>  (16) 
13.25954483603638

>  <meeko>  (16) 
{"free_energy": -6.02, "intermolecular_energy": -8.7, "internal_energy": -1.65, "cluster_size": 1, "cluster_id": 7, "rank_in_cluster": 1}

>  <energy>  (16) 
-6.03

>  <cluster_rmsd>  (16) 
1.77

>  <cluster>  (16) 
1

$$$$

     RDKit          3D

 42 43  0  0  1  0  0  0  0  0999 V2000
  141.0770   75.2170  222.0110 O   0  0  0  0  0  0  0  0  0  0  0  0
  141.0810   74.1900  221.2700 C   0  0  0  0  0  0  0  0  0  0  0  0
  141.6070   74.4010  219.8790 C   0  0  0  0  0  0  0  0  0  0  0  0
  140.4260   74.9380  219.0610 C   0  0  0  0  0  0  0  0  0  0  0  0
  140.5190   76.4450  218.9280 C   0  0  0  0  0  0  0  0  0  0  0  0
  139.7240   77.1020  219.8960 O   0  0  0  0  0  0  0  0  0  0  0  0
  140.3730   77.9100  220.8500 C   0  0  0  0  0  0  0  0  0  0  0  0
  141.4820   78.6730  220.5140 C   0  0  0  0  0  0  0  0  0  0  0  0
  142.1420   79.4750  221.4190 C   0  0  0  0  0  0  0  0  0  0  0  0
  141.6650   79.5130  222.7260 C   0  0  0  0  0  0  0  0  0  0  0  0
  142.5300   80.5440  223.8450 Cl  0  0  0  0  0  0  0  0  0  0  0  0
  140.5620   78.7670  223.0970 C   0  0  0  0  0  0  0  0  0  0  0  0
  139.9130   77.9640  222.1630 C   0  0  0  0  0  0  0  0  0  0  0  0
  138.5180   77.0260  222.6580 Cl  0  0  0  0  0  0  0  0  0  0  0  0
  140.6290   72.9290  221.6950 N   0  0  0  0  0  0  0  0  0  0  0  0
  140.1270   72.6650  222.9800 N   0  0  0  0  0  0  0  0  0  0  0  0
  139.5510   71.5180  223.2250 C   0  0  0  0  0  0  0  0  0  0  0  0
  139.8350   70.7770  224.4680 C   0  0  0  0  0  0  0  0  0  0  0  0
  139.6470   69.4120  224.5580 C   0  0  0  0  0  0  0  0  0  0  0  0
  139.9170   68.7230  225.7330 C   0  0  0  0  0  0  0  0  0  0  0  0
  140.3840   69.4140  226.8400 C   0  0  0  0  0  0  0  0  0  0  0  0
  140.5780   70.7960  226.7620 C   0  0  0  0  0  0  0  0  0  0  0  0
  141.0830   71.5220  227.9690 C   0  0  0  0  0  0  0  0  0  0  0  0
  141.8210   70.6840  228.7590 F   0  0  0  0  0  0  0  0  0  0  0  0
  141.7690   72.6370  227.5760 F   0  0  0  0  0  0  0  0  0  0  0  0
  139.9210   71.9510  228.6220 F   0  0  0  0  0  0  0  0  0  0  0  0
  140.3000   71.4620  225.5730 C   0  0  0  0  0  0  0  0  0  0  0  0
  142.4300   75.1308  219.8876 H   0  0  0  0  0  0  0  0  0  0  0  0
  142.0043   73.4687  219.4513 H   0  0  0  0  0  0  0  0  0  0  0  0
  140.4423   74.4838  218.0593 H   0  0  0  0  0  0  0  0  0  0  0  0
  139.4885   74.6819  219.5763 H   0  0  0  0  0  0  0  0  0  0  0  0
  141.5674   76.7512  219.0592 H   0  0  0  0  0  0  0  0  0  0  0  0
  140.1502   76.7263  217.9306 H   0  0  0  0  0  0  0  0  0  0  0  0
  141.8509   78.6359  219.4784 H   0  0  0  0  0  0  0  0  0  0  0  0
  143.0189   80.0670  221.1180 H   0  0  0  0  0  0  0  0  0  0  0  0
  140.1959   78.8079  224.1335 H   0  0  0  0  0  0  0  0  0  0  0  0
  140.6450   72.0850  221.0490 H   0  0  0  0  0  0  0  0  0  0  0  0
  138.8441   71.0991  222.4936 H   0  0  0  0  0  0  0  0  0  0  0  0
  139.2762   68.8597  223.6820 H   0  0  0  0  0  0  0  0  0  0  0  0
  139.7612   67.6353  225.7849 H   0  0  0  0  0  0  0  0  0  0  0  0
  140.6009   68.8774  227.7754 H   0  0  0  0  0  0  0  0  0  0  0  0
  140.4527   72.5496  225.5121 H   0  0  0  0  0  0  0  0  0  0  0  0
  1  2  2  0
  2  3  1  0
  3  4  1  0
  4  5  1  0
  5  6  1  0
  6  7  1  0
  7  8  2  0
  8  9  1  0
  9 10  2  0
 10 11  1  0
 10 12  1  0
 12 13  2  0
 13 14  1  0
  2 15  1  0
 15 16  1  0
 16 17  2  0
 17 18  1  0
 18 19  2  0
 19 20  1  0
 20 21  2  0
 21 22  1  0
 22 23  1  0
 23 24  1  0
 23 25  1  0
 23 26  1  0
 22 27  2  0
 13  7  1  0
 27 18  1  0
  3 28  1  0
  3 29  1  0
  4 30  1  0
  4 31  1  0
  5 32  1  0
  5 33  1  0
  8 34  1  0
  9 35  1  0
 12 36  1  0
 15 37  1  0
 17 38  1  0
 19 39  1  0
 20 40  1  0
 21 41  1  0
 27 42  1  0
M  END
>  <smiles>  (17) 
O=C(CCCOc1ccc(Cl)cc1Cl)NN=Cc1cccc(C(F)(F)F)c1

>  <score_type>  (17) 
oracle

>  <origin>  (17) 
autodockgpu

>  <m_score__min__energy>  (17) 
-7.3600000000000003

>  <m_primary>  (17) 
energy

>  <rmsd>  (17) 
5.83062614531421

>  <m_score__min__rmsd>  (17) 
5.83062614531421

>  <meeko>  (17) 
{"free_energy": -6.53, "intermolecular_energy": -9.21, "internal_energy": -1.12, "cluster_size": 16, "cluster_id": 1, "rank_in_cluster": 11}

>  <energy>  (17) 
-7.29

>  <cluster_rmsd>  (17) 
0.0

>  <cluster>  (17) 
2

$$$$

     RDKit          3D

 42 43  0  0  1  0  0  0  0  0999 V2000
  136.4790   70.9720  222.7940 O   0  0  0  0  0  0  0  0  0  0  0  0
  136.8750   72.1730  222.8740 C   0  0  0  0  0  0  0  0  0  0  0  0
  135.8260   73.1720  223.2680 C   0  0  0  0  0  0  0  0  0  0  0  0
  135.8070   74.2230  222.1520 C   0  0  0  0  0  0  0  0  0  0  0  0
  136.6250   75.4340  222.5540 C   0  0  0  0  0  0  0  0  0  0  0  0
  138.0080   75.2200  222.3430 O   0  0  0  0  0  0  0  0  0  0  0  0
  138.8730   76.3260  222.4400 C   0  0  0  0  0  0  0  0  0  0  0  0
  138.4320   77.5470  222.9290 C   0  0  0  0  0  0  0  0  0  0  0  0
  139.2490   78.6500  223.0390 C   0  0  0  0  0  0  0  0  0  0  0  0
  140.5750   78.5230  222.6380 C   0  0  0  0  0  0  0  0  0  0  0  0
  141.5810   79.9460  222.7940 Cl  0  0  0  0  0  0  0  0  0  0  0  0
  141.0510   77.3210  222.1460 C   0  0  0  0  0  0  0  0  0  0  0  0
  140.2040   76.2210  222.0450 C   0  0  0  0  0  0  0  0  0  0  0  0
  140.8300   74.7100  221.4170 Cl  0  0  0  0  0  0  0  0  0  0  0  0
  138.1980   72.5690  222.6160 N   0  0  0  0  0  0  0  0  0  0  0  0
  139.2260   71.6860  222.2440 N   0  0  0  0  0  0  0  0  0  0  0  0
  140.2470   71.5120  223.0400 C   0  0  0  0  0  0  0  0  0  0  0  0
  140.0810   70.8690  224.3570 C   0  0  0  0  0  0  0  0  0  0  0  0
  139.4630   69.6420  224.4910 C   0  0  0  0  0  0  0  0  0  0  0  0
  139.3110   69.0430  225.7360 C   0  0  0  0  0  0  0  0  0  0  0  0
  139.7880   69.6860  226.8670 C   0  0  0  0  0  0  0  0  0  0  0  0
  140.4150   70.9290  226.7440 C   0  0  0  0  0  0  0  0  0  0  0  0
  140.9220   71.6060  227.9790 C   0  0  0  0  0  0  0  0  0  0  0  0
  139.8820   72.1020  228.7150 F   0  0  0  0  0  0  0  0  0  0  0  0
  141.7150   70.7410  228.6790 F   0  0  0  0  0  0  0  0  0  0  0  0
  141.7420   72.6320  227.4940 F   0  0  0  0  0  0  0  0  0  0  0  0
  140.5540   71.5060  225.4860 C   0  0  0  0  0  0  0  0  0  0  0  0
  134.8439   72.6834  223.3503 H   0  0  0  0  0  0  0  0  0  0  0  0
  136.0465   73.6250  224.2459 H   0  0  0  0  0  0  0  0  0  0  0  0
  136.2314   73.7867  221.2357 H   0  0  0  0  0  0  0  0  0  0  0  0
  134.7678   74.5368  221.9745 H   0  0  0  0  0  0  0  0  0  0  0  0
  136.3018   76.2983  221.9552 H   0  0  0  0  0  0  0  0  0  0  0  0
  136.4643   75.6180  223.6265 H   0  0  0  0  0  0  0  0  0  0  0  0
  137.3818   77.6382  223.2432 H   0  0  0  0  0  0  0  0  0  0  0  0
  138.8647   79.6028  223.4321 H   0  0  0  0  0  0  0  0  0  0  0  0
  142.1021   77.2341  221.8336 H   0  0  0  0  0  0  0  0  0  0  0  0
  138.5000   73.5850  222.6900 H   0  0  0  0  0  0  0  0  0  0  0  0
  141.2449   71.8499  222.7236 H   0  0  0  0  0  0  0  0  0  0  0  0
  139.0835   69.1284  223.5953 H   0  0  0  0  0  0  0  0  0  0  0  0
  138.8153   68.0649  225.8229 H   0  0  0  0  0  0  0  0  0  0  0  0
  139.6737   69.2203  227.8570 H   0  0  0  0  0  0  0  0  0  0  0  0
  141.0481   72.4841  225.3898 H   0  0  0  0  0  0  0  0  0  0  0  0
  1  2  2  0
  2  3  1  0
  3  4  1  0
  4  5  1  0
  5  6  1  0
  6  7  1  0
  7  8  2  0
  8  9  1  0
  9 10  2  0
 10 11  1  0
 10 12  1  0
 12 13  2  0
 13 14  1  0
  2 15  1  0
 15 16  1  0
 16 17  2  0
 17 18  1  0
 18 19  2  0
 19 20  1  0
 20 21  2  0
 21 22  1  0
 22 23  1  0
 23 24  1  0
 23 25  1  0
 23 26  1  0
 22 27  2  0
 13  7  1  0
 27 18  1  0
  3 28  1  0
  3 29  1  0
  4 30  1  0
  4 31  1  0
  5 32  1  0
  5 33  1  0
  8 34  1  0
  9 35  1  0
 12 36  1  0
 15 37  1  0
 17 38  1  0
 19 39  1  0
 20 40  1  0
 21 41  1  0
 27 42  1  0
M  END
>  <smiles>  (18) 
O=C(CCCOc1ccc(Cl)cc1Cl)NN=Cc1cccc(C(F)(F)F)c1

>  <score_type>  (18) 
oracle

>  <origin>  (18) 
autodockgpu

>  <m_score__min__energy>  (18) 
-7.3600000000000003

>  <m_primary>  (18) 
energy

>  <rmsd>  (18) 
6.712215776295746

>  <m_score__min__rmsd>  (18) 
6.712215776295746

>  <meeko>  (18) 
{"free_energy": -6.03, "intermolecular_energy": -8.72, "internal_energy": -2.04, "cluster_size": 16, "cluster_id": 1, "rank_in_cluster": 16}

>  <energy>  (18) 
-6.86

>  <cluster_rmsd>  (18) 
1.61

>  <cluster>  (18) 
2

$$$$

     RDKit          3D

 42 43  0  0  1  0  0  0  0  0999 V2000
  140.1150   73.7590  221.9900 O   0  0  0  0  0  0  0  0  0  0  0  0
  141.0800   74.3820  221.4540 C   0  0  0  0  0  0  0  0  0  0  0  0
  141.8740   73.5970  220.4500 C   0  0  0  0  0  0  0  0  0  0  0  0
  143.2960   74.1690  220.5020 C   0  0  0  0  0  0  0  0  0  0  0  0
  143.4700   75.2490  219.4520 C   0  0  0  0  0  0  0  0  0  0  0  0
  142.2430   75.8870  219.1570 O   0  0  0  0  0  0  0  0  0  0  0  0
  142.2780   77.2310  218.7400 C   0  0  0  0  0  0  0  0  0  0  0  0
  142.0750   78.2700  219.6360 C   0  0  0  0  0  0  0  0  0  0  0  0
  142.1010   79.5960  219.2660 C   0  0  0  0  0  0  0  0  0  0  0  0
  142.3420   79.8950  217.9280 C   0  0  0  0  0  0  0  0  0  0  0  0
  142.3680   81.5910  217.4980 Cl  0  0  0  0  0  0  0  0  0  0  0  0
  142.5490   78.8860  217.0060 C   0  0  0  0  0  0  0  0  0  0  0  0
  142.5180   77.5540  217.4070 C   0  0  0  0  0  0  0  0  0  0  0  0
  142.7810   76.2930  216.2190 Cl  0  0  0  0  0  0  0  0  0  0  0  0
  141.4040   75.7140  221.7610 N   0  0  0  0  0  0  0  0  0  0  0  0
  140.7030   76.5010  222.6880 N   0  0  0  0  0  0  0  0  0  0  0  0
  140.1570   77.6240  222.3000 C   0  0  0  0  0  0  0  0  0  0  0  0
  140.8200   78.9160  222.5540 C   0  0  0  0  0  0  0  0  0  0  0  0
  141.8700   79.0300  223.4440 C   0  0  0  0  0  0  0  0  0  0  0  0
  142.4880   80.2520  223.6760 C   0  0  0  0  0  0  0  0  0  0  0  0
  142.0470   81.3820  223.0050 C   0  0  0  0  0  0  0  0  0  0  0  0
  140.9850   81.2790  222.1020 C   0  0  0  0  0  0  0  0  0  0  0  0
  140.5250   82.5110  221.3880 C   0  0  0  0  0  0  0  0  0  0  0  0
  141.3970   83.5430  221.6020 F   0  0  0  0  0  0  0  0  0  0  0  0
  140.3370   82.2270  220.0650 F   0  0  0  0  0  0  0  0  0  0  0  0
  139.2680   82.7800  221.9450 F   0  0  0  0  0  0  0  0  0  0  0  0
  140.3830   80.0430  221.8870 C   0  0  0  0  0  0  0  0  0  0  0  0
  141.8804   72.5298  220.7167 H   0  0  0  0  0  0  0  0  0  0  0  0
  141.4424   73.6764  219.4413 H   0  0  0  0  0  0  0  0  0  0  0  0
  143.4774   74.5992  221.4980 H   0  0  0  0  0  0  0  0  0  0  0  0
  144.0138   73.3594  220.3035 H   0  0  0  0  0  0  0  0  0  0  0  0
  144.1823   75.9993  219.8256 H   0  0  0  0  0  0  0  0  0  0  0  0
  143.8445   74.7781  218.5311 H   0  0  0  0  0  0  0  0  0  0  0  0
  141.8844   78.0233  220.6909 H   0  0  0  0  0  0  0  0  0  0  0  0
  141.9365   80.3942  220.0048 H   0  0  0  0  0  0  0  0  0  0  0  0
  142.7388   79.1370  215.9520 H   0  0  0  0  0  0  0  0  0  0  0  0
  142.2210   76.2100  221.2940 H   0  0  0  0  0  0  0  0  0  0  0  0
  139.1896   77.6044  221.7768 H   0  0  0  0  0  0  0  0  0  0  0  0
  142.2234   78.1363  223.9791 H   0  0  0  0  0  0  0  0  0  0  0  0
  143.3231   80.3228  224.3885 H   0  0  0  0  0  0  0  0  0  0  0  0
  142.5301   82.3543  223.1822 H   0  0  0  0  0  0  0  0  0  0  0  0
  139.5476   79.9628  221.1759 H   0  0  0  0  0  0  0  0  0  0  0  0
  1  2  2  0
  2  3  1  0
  3  4  1  0
  4  5  1  0
  5  6  1  0
  6  7  1  0
  7  8  2  0
  8  9  1  0
  9 10  2  0
 10 11  1  0
 10 12  1  0
 12 13  2  0
 13 14  1  0
  2 15  1  0
 15 16  1  0
 16 17  2  0
 17 18  1  0
 18 19  2  0
 19 20  1  0
 20 21  2  0
 21 22  1  0
 22 23  1  0
 23 24  1  0
 23 25  1  0
 23 26  1  0
 22 27  2  0
 13  7  1  0
 27 18  1  0
  3 28  1  0
  3 29  1  0
  4 30  1  0
  4 31  1  0
  5 32  1  0
  5 33  1  0
  8 34  1  0
  9 35  1  0
 12 36  1  0
 15 37  1  0
 17 38  1  0
 19 39  1  0
 20 40  1  0
 21 41  1  0
 27 42  1  0
M  END
>  <smiles>  (19) 
O=C(CCCOc1ccc(Cl)cc1Cl)NN=Cc1cccc(C(F)(F)F)c1

>  <score_type>  (19) 
oracle

>  <origin>  (19) 
autodockgpu

>  <m_score__min__energy>  (19) 
-7.3600000000000003

>  <m_primary>  (19) 
energy

>  <rmsd>  (19) 
7.216335927574206

>  <m_score__min__rmsd>  (19) 
7.216335927574206

>  <meeko>  (19) 
{"free_energy": -5.82, "intermolecular_energy": -8.51, "internal_energy": -2.36, "cluster_size": 3, "cluster_id": 8, "rank_in_cluster": 1}

>  <energy>  (19) 
-6.66

>  <cluster_rmsd>  (19) 
1.21

>  <cluster>  (19) 
2

$$$$

     RDKit          3D

 42 43  0  0  1  0  0  0  0  0999 V2000
  140.3860   74.9860  222.2950 O   0  0  0  0  0  0  0  0  0  0  0  0
  139.4510   74.1810  222.0040 C   0  0  0  0  0  0  0  0  0  0  0  0
  138.2830   74.7860  221.2790 C   0  0  0  0  0  0  0  0  0  0  0  0
  138.7180   74.9080  219.8140 C   0  0  0  0  0  0  0  0  0  0  0  0
  139.8060   73.9010  219.5000 C   0  0  0  0  0  0  0  0  0  0  0  0
  140.9590   74.5300  218.9740 O   0  0  0  0  0  0  0  0  0  0  0  0
  142.1990   74.2620  219.5850 C   0  0  0  0  0  0  0  0  0  0  0  0
  142.4470   73.0490  220.2110 C   0  0  0  0  0  0  0  0  0  0  0  0
  143.6460   72.7510  220.8180 C   0  0  0  0  0  0  0  0  0  0  0  0
  144.6460   73.7180  220.7980 C   0  0  0  0  0  0  0  0  0  0  0  0
  146.1550   73.3010  221.5800 Cl  0  0  0  0  0  0  0  0  0  0  0  0
  144.4350   74.9390  220.1840 C   0  0  0  0  0  0  0  0  0  0  0  0
  143.2140   75.2150  219.5760 C   0  0  0  0  0  0  0  0  0  0  0  0
  142.9700   76.7700  218.8060 Cl  0  0  0  0  0  0  0  0  0  0  0  0
  139.4800   72.8140  222.3280 N   0  0  0  0  0  0  0  0  0  0  0  0
  140.5400   72.1880  223.0030 N   0  0  0  0  0  0  0  0  0  0  0  0
  140.3410   71.0370  223.5910 C   0  0  0  0  0  0  0  0  0  0  0  0
  140.5430   70.8830  225.0430 C   0  0  0  0  0  0  0  0  0  0  0  0
  140.9460   71.9390  225.8350 C   0  0  0  0  0  0  0  0  0  0  0  0
  141.1340   71.7840  227.2030 C   0  0  0  0  0  0  0  0  0  0  0  0
  140.9130   70.5470  227.7880 C   0  0  0  0  0  0  0  0  0  0  0  0
  140.5050   69.4700  226.9970 C   0  0  0  0  0  0  0  0  0  0  0  0
  140.2730   68.1430  227.6490 C   0  0  0  0  0  0  0  0  0  0  0  0
  140.1080   68.2960  228.9990 F   0  0  0  0  0  0  0  0  0  0  0  0
  139.2210   67.5160  227.0440 F   0  0  0  0  0  0  0  0  0  0  0  0
  141.4290   67.4100  227.3540 F   0  0  0  0  0  0  0  0  0  0  0  0
  140.3250   69.6520  225.6290 C   0  0  0  0  0  0  0  0  0  0  0  0
  137.4006   74.1346  221.3636 H   0  0  0  0  0  0  0  0  0  0  0  0
  138.0063   75.7631  221.7017 H   0  0  0  0  0  0  0  0  0  0  0  0
  137.8520   74.7209  219.1621 H   0  0  0  0  0  0  0  0  0  0  0  0
  139.1094   75.9214  219.6414 H   0  0  0  0  0  0  0  0  0  0  0  0
  140.0787   73.3698  220.4238 H   0  0  0  0  0  0  0  0  0  0  0  0
  139.4202   73.2006  218.7447 H   0  0  0  0  0  0  0  0  0  0  0  0
  141.6497   72.2913  220.2228 H   0  0  0  0  0  0  0  0  0  0  0  0
  143.8085   71.7777  221.3041 H   0  0  0  0  0  0  0  0  0  0  0  0
  145.2346   75.6943  220.1762 H   0  0  0  0  0  0  0  0  0  0  0  0
  138.6790   72.1640  222.0710 H   0  0  0  0  0  0  0  0  0  0  0  0
  140.0183   70.1715  222.9936 H   0  0  0  0  0  0  0  0  0  0  0  0
  141.1218   72.9223  225.3744 H   0  0  0  0  0  0  0  0  0  0  0  0
  141.4561   72.6374  227.8177 H   0  0  0  0  0  0  0  0  0  0  0  0
  141.0582   70.4138  228.8702 H   0  0  0  0  0  0  0  0  0  0  0  0
  140.0047   68.8037  225.0063 H   0  0  0  0  0  0  0  0  0  0  0  0
  1  2  2  0
  2  3  1  0
  3  4  1  0
  4  5  1  0
  5  6  1  0
  6  7  1  0
  7  8  2  0
  8  9  1  0
  9 10  2  0
 10 11  1  0
 10 12  1  0
 12 13  2  0
 13 14  1  0
  2 15  1  0
 15 16  1  0
 16 17  2  0
 17 18  1  0
 18 19  2  0
 19 20  1  0
 20 21  2  0
 21 22  1  0
 22 23  1  0
 23 24  1  0
 23 25  1  0
 23 26  1  0
 22 27  2  0
 13  7  1  0
 27 18  1  0
  3 28  1  0
  3 29  1  0
  4 30  1  0
  4 31  1  0
  5 32  1  0
  5 33  1  0
  8 34  1  0
  9 35  1  0
 12 36  1  0
 15 37  1  0
 17 38  1  0
 19 39  1  0
 20 40  1  0
 21 41  1  0
 27 42  1  0
M  END
>  <smiles>  (20) 
O=C(CCCOc1ccc(Cl)cc1Cl)NN=Cc1cccc(C(F)(F)F)c1

>  <score_type>  (20) 
oracle

>  <origin>  (20) 
autodockgpu

>  <m_score__min__energy>  (20) 
-7.3600000000000003

>  <m_primary>  (20) 
energy

>  <rmsd>  (20) 
9.429719139164822

>  <m_score__min__rmsd>  (20) 
9.429719139164822

>  <meeko>  (20) 
{"free_energy": -6.53, "intermolecular_energy": -9.21, "internal_energy": -1.38, "cluster_size": 5, "cluster_id": 5, "rank_in_cluster": 1}

>  <energy>  (20) 
-6.64

>  <cluster_rmsd>  (20) 
1.73

>  <cluster>  (20) 
2

$$$$

     RDKit          3D

 42 43  0  0  1  0  0  0  0  0999 V2000
  139.2060   71.2850  220.3660 O   0  0  0  0  0  0  0  0  0  0  0  0
  139.3370   72.4130  220.9270 C   0  0  0  0  0  0  0  0  0  0  0  0
  139.7930   73.5290  220.0320 C   0  0  0  0  0  0  0  0  0  0  0  0
  141.2790   73.7370  220.3450 C   0  0  0  0  0  0  0  0  0  0  0  0
  141.4550   74.8560  221.3520 C   0  0  0  0  0  0  0  0  0  0  0  0
  140.2340   75.1790  221.9870 O   0  0  0  0  0  0  0  0  0  0  0  0
  140.0020   76.5230  222.3370 C   0  0  0  0  0  0  0  0  0  0  0  0
  141.0520   77.4120  222.5200 C   0  0  0  0  0  0  0  0  0  0  0  0
  140.8650   78.7330  222.8620 C   0  0  0  0  0  0  0  0  0  0  0  0
  139.5590   79.1850  223.0300 C   0  0  0  0  0  0  0  0  0  0  0  0
  139.3630   80.8690  223.4630 Cl  0  0  0  0  0  0  0  0  0  0  0  0
  138.4880   78.3280  222.8560 C   0  0  0  0  0  0  0  0  0  0  0  0
  138.7050   76.9970  222.5100 C   0  0  0  0  0  0  0  0  0  0  0  0
  137.3310   75.9300  222.2970 Cl  0  0  0  0  0  0  0  0  0  0  0  0
  139.0800   72.6310  222.2920 N   0  0  0  0  0  0  0  0  0  0  0  0
  138.6520   71.6320  223.1820 N   0  0  0  0  0  0  0  0  0  0  0  0
  139.5010   70.7280  223.5930 C   0  0  0  0  0  0  0  0  0  0  0  0
  140.0490   70.7700  224.9610 C   0  0  0  0  0  0  0  0  0  0  0  0
  140.7270   71.8740  225.4370 C   0  0  0  0  0  0  0  0  0  0  0  0
  141.2400   71.9050  226.7280 C   0  0  0  0  0  0  0  0  0  0  0  0
  141.0710   70.8080  227.5570 C   0  0  0  0  0  0  0  0  0  0  0  0
  140.3870   69.6840  227.0880 C   0  0  0  0  0  0  0  0  0  0  0  0
  140.2160   68.5110  228.0010 C   0  0  0  0  0  0  0  0  0  0  0  0
  139.4670   67.5380  227.3960 F   0  0  0  0  0  0  0  0  0  0  0  0
  141.4420   68.0710  228.4120 F   0  0  0  0  0  0  0  0  0  0  0  0
  139.5600   69.0400  229.1190 F   0  0  0  0  0  0  0  0  0  0  0  0
  139.8830   69.6790  225.7910 C   0  0  0  0  0  0  0  0  0  0  0  0
  139.6595   73.2516  218.9760 H   0  0  0  0  0  0  0  0  0  0  0  0
  139.2117   74.4471  220.2026 H   0  0  0  0  0  0  0  0  0  0  0  0
  141.6957   72.8073  220.7597 H   0  0  0  0  0  0  0  0  0  0  0  0
  141.8050   74.0059  219.4171 H   0  0  0  0  0  0  0  0  0  0  0  0
  142.1816   74.5393  222.1147 H   0  0  0  0  0  0  0  0  0  0  0  0
  141.8122   75.7484  220.8171 H   0  0  0  0  0  0  0  0  0  0  0  0
  142.0802   77.0449  222.3858 H   0  0  0  0  0  0  0  0  0  0  0  0
  141.7212   79.4100  222.9982 H   0  0  0  0  0  0  0  0  0  0  0  0
  137.4613   78.6990  222.9914 H   0  0  0  0  0  0  0  0  0  0  0  0
  139.2000   73.5900  222.7340 H   0  0  0  0  0  0  0  0  0  0  0  0
  139.8112   69.9244  222.9089 H   0  0  0  0  0  0  0  0  0  0  0  0
  140.8640   72.7466  224.7814 H   0  0  0  0  0  0  0  0  0  0  0  0
  141.7767   72.7946  227.0893 H   0  0  0  0  0  0  0  0  0  0  0  0
  141.4738   70.8220  228.5805 H   0  0  0  0  0  0  0  0  0  0  0  0
  139.3448   68.7936  225.4217 H   0  0  0  0  0  0  0  0  0  0  0  0
  1  2  2  0
  2  3  1  0
  3  4  1  0
  4  5  1  0
  5  6  1  0
  6  7  1  0
  7  8  2  0
  8  9  1  0
  9 10  2  0
 10 11  1  0
 10 12  1  0
 12 13  2  0
 13 14  1  0
  2 15  1  0
 15 16  1  0
 16 17  2  0
 17 18  1  0
 18 19  2  0
 19 20  1  0
 20 21  2  0
 21 22  1  0
 22 23  1  0
 23 24  1  0
 23 25  1  0
 23 26  1  0
 22 27  2  0
 13  7  1  0
 27 18  1  0
  3 28  1  0
  3 29  1  0
  4 30  1  0
  4 31  1  0
  5 32  1  0
  5 33  1  0
  8 34  1  0
  9 35  1  0
 12 36  1  0
 15 37  1  0
 17 38  1  0
 19 39  1  0
 20 40  1  0
 21 41  1  0
 27 42  1  0
M  END
>  <smiles>  (21) 
O=C(CCCOc1ccc(Cl)cc1Cl)NN=Cc1cccc(C(F)(F)F)c1

>  <score_type>  (21) 
oracle

>  <origin>  (21) 
autodockgpu

>  <m_score__min__energy>  (21) 
-7.3600000000000003

>  <m_primary>  (21) 
energy

>  <rmsd>  (21) 
7.076017763631867

>  <m_score__min__rmsd>  (21) 
7.076017763631867

>  <meeko>  (21) 
{"free_energy": -6.47, "intermolecular_energy": -9.16, "internal_energy": -1.83, "cluster_size": 7, "cluster_id": 2, "rank_in_cluster": 5}

>  <energy>  (21) 
-6.47

>  <cluster_rmsd>  (21) 
1.62

>  <cluster>  (21) 
2

$$$$

     RDKit          3D

 42 43  0  0  1  0  0  0  0  0999 V2000
  140.2440   74.9940  221.9700 O   0  0  0  0  0  0  0  0  0  0  0  0
  139.2530   74.2260  222.1560 C   0  0  0  0  0  0  0  0  0  0  0  0
  137.9240   74.7750  221.7240 C   0  0  0  0  0  0  0  0  0  0  0  0
  137.7340   76.0790  222.5090 C   0  0  0  0  0  0  0  0  0  0  0  0
  137.7980   77.2710  221.5750 C   0  0  0  0  0  0  0  0  0  0  0  0
  139.0980   77.4480  221.0480 O   0  0  0  0  0  0  0  0  0  0  0  0
  139.9970   78.2670  221.7590 C   0  0  0  0  0  0  0  0  0  0  0  0
  139.5750   79.0400  222.8320 C   0  0  0  0  0  0  0  0  0  0  0  0
  140.4240   79.8520  223.5500 C   0  0  0  0  0  0  0  0  0  0  0  0
  141.7630   79.8910  223.1740 C   0  0  0  0  0  0  0  0  0  0  0  0
  142.8100   80.9340  224.1120 Cl  0  0  0  0  0  0  0  0  0  0  0  0
  142.2200   79.1350  222.1110 C   0  0  0  0  0  0  0  0  0  0  0  0
  141.3410   78.3220  221.4010 C   0  0  0  0  0  0  0  0  0  0  0  0
  141.9440   77.3740  220.0560 Cl  0  0  0  0  0  0  0  0  0  0  0  0
  139.3640   72.9460  222.7250 N   0  0  0  0  0  0  0  0  0  0  0  0
  140.5760   72.3750  223.1480 N   0  0  0  0  0  0  0  0  0  0  0  0
  140.5760   71.1800  223.6760 C   0  0  0  0  0  0  0  0  0  0  0  0
  140.6840   70.9960  225.1350 C   0  0  0  0  0  0  0  0  0  0  0  0
  140.9340   72.0560  225.9830 C   0  0  0  0  0  0  0  0  0  0  0  0
  141.0340   71.8740  227.3570 C   0  0  0  0  0  0  0  0  0  0  0  0
  140.8800   70.6040  227.8910 C   0  0  0  0  0  0  0  0  0  0  0  0
  140.6270   69.5230  227.0430 C   0  0  0  0  0  0  0  0  0  0  0  0
  140.4640   68.1600  227.6410 C   0  0  0  0  0  0  0  0  0  0  0  0
  140.8240   68.1700  228.9610 F   0  0  0  0  0  0  0  0  0  0  0  0
  139.1880   67.7200  227.4320 F   0  0  0  0  0  0  0  0  0  0  0  0
  141.3190   67.3500  226.8840 F   0  0  0  0  0  0  0  0  0  0  0  0
  140.5320   69.7330  225.6710 C   0  0  0  0  0  0  0  0  0  0  0  0
  137.9261   74.9760  220.6425 H   0  0  0  0  0  0  0  0  0  0  0  0
  137.1091   74.0626  221.9201 H   0  0  0  0  0  0  0  0  0  0  0  0
  136.7541   76.0620  223.0086 H   0  0  0  0  0  0  0  0  0  0  0  0
  138.5370   76.1667  223.2557 H   0  0  0  0  0  0  0  0  0  0  0  0
  137.0943   77.1124  220.7445 H   0  0  0  0  0  0  0  0  0  0  0  0
  137.5323   78.1721  222.1472 H   0  0  0  0  0  0  0  0  0  0  0  0
  138.5145   79.0021  223.1217 H   0  0  0  0  0  0  0  0  0  0  0  0
  140.0549   80.4516  224.3951 H   0  0  0  0  0  0  0  0  0  0  0  0
  143.2814   79.1759  221.8252 H   0  0  0  0  0  0  0  0  0  0  0  0
  138.5140   72.3250  222.8690 H   0  0  0  0  0  0  0  0  0  0  0  0
  140.4943   70.2986  223.0229 H   0  0  0  0  0  0  0  0  0  0  0  0
  141.0566   73.0651  225.5627 H   0  0  0  0  0  0  0  0  0  0  0  0
  141.2339   72.7316  228.0162 H   0  0  0  0  0  0  0  0  0  0  0  0
  140.9567   70.4482  228.9772 H   0  0  0  0  0  0  0  0  0  0  0  0
  140.3330   68.8810  225.0043 H   0  0  0  0  0  0  0  0  0  0  0  0
  1  2  2  0
  2  3  1  0
  3  4  1  0
  4  5  1  0
  5  6  1  0
  6  7  1  0
  7  8  2  0
  8  9  1  0
  9 10  2  0
 10 11  1  0
 10 12  1  0
 12 13  2  0
 13 14  1  0
  2 15  1  0
 15 16  1  0
 16 17  2  0
 17 18  1  0
 18 19  2  0
 19 20  1  0
 20 21  2  0
 21 22  1  0
 22 23  1  0
 23 24  1  0
 23 25  1  0
 23 26  1  0
 22 27  2  0
 13  7  1  0
 27 18  1  0
  3 28  1  0
  3 29  1  0
  4 30  1  0
  4 31  1  0
  5 32  1  0
  5 33  1  0
  8 34  1  0
  9 35  1  0
 12 36  1  0
 15 37  1  0
 17 38  1  0
 19 39  1  0
 20 40  1  0
 21 41  1  0
 27 42  1  0
M  END
>  <smiles>  (22) 
O=C(CCCOc1ccc(Cl)cc1Cl)NN=Cc1cccc(C(F)(F)F)c1

>  <score_type>  (22) 
oracle

>  <origin>  (22) 
autodockgpu

>  <m_score__min__energy>  (22) 
-7.3600000000000003

>  <m_primary>  (22) 
energy

>  <rmsd>  (22) 
5.107655812524621

>  <m_score__min__rmsd>  (22) 
5.107655812524621

>  <meeko>  (22) 
{"free_energy": -7.02, "intermolecular_energy": -9.71, "internal_energy": -0.97, "cluster_size": 16, "cluster_id": 1, "rank_in_cluster": 4}

>  <energy>  (22) 
-6.35

>  <cluster_rmsd>  (22) 
1.7

>  <cluster>  (22) 
2

$$$$

     RDKit          3D

 42 43  0  0  1  0  0  0  0  0999 V2000
  141.3100   75.4200  220.9610 O   0  0  0  0  0  0  0  0  0  0  0  0
  140.6010   74.4560  221.3790 C   0  0  0  0  0  0  0  0  0  0  0  0
  140.9300   73.1140  220.7920 C   0  0  0  0  0  0  0  0  0  0  0  0
  141.1250   72.1710  221.9850 C   0  0  0  0  0  0  0  0  0  0  0  0
  139.8260   71.4640  222.3180 C   0  0  0  0  0  0  0  0  0  0  0  0
  139.3350   71.8520  223.5860 O   0  0  0  0  0  0  0  0  0  0  0  0
  139.6980   71.0780  224.7050 C   0  0  0  0  0  0  0  0  0  0  0  0
  140.7180   71.4760  225.5570 C   0  0  0  0  0  0  0  0  0  0  0  0
  141.1020   70.7470  226.6590 C   0  0  0  0  0  0  0  0  0  0  0  0
  140.4290   69.5570  226.9210 C   0  0  0  0  0  0  0  0  0  0  0  0
  140.9450   68.6590  228.3310 Cl  0  0  0  0  0  0  0  0  0  0  0  0
  139.4070   69.1280  226.0940 C   0  0  0  0  0  0  0  0  0  0  0  0
  139.0380   69.8850  224.9850 C   0  0  0  0  0  0  0  0  0  0  0  0
  137.7410   69.3200  223.9520 Cl  0  0  0  0  0  0  0  0  0  0  0  0
  139.5730   74.6070  222.3250 N   0  0  0  0  0  0  0  0  0  0  0  0
  139.2170   75.8320  222.9120 N   0  0  0  0  0  0  0  0  0  0  0  0
  139.0890   76.8940  222.1610 C   0  0  0  0  0  0  0  0  0  0  0  0
  139.4340   78.2320  222.6750 C   0  0  0  0  0  0  0  0  0  0  0  0
  138.4760   79.0740  223.2050 C   0  0  0  0  0  0  0  0  0  0  0  0
  138.8100   80.3330  223.6880 C   0  0  0  0  0  0  0  0  0  0  0  0
  140.1290   80.7570  223.6380 C   0  0  0  0  0  0  0  0  0  0  0  0
  141.1070   79.9150  223.1040 C   0  0  0  0  0  0  0  0  0  0  0  0
  142.5250   80.3920  223.0600 C   0  0  0  0  0  0  0  0  0  0  0  0
  142.8570   81.0140  224.2320 F   0  0  0  0  0  0  0  0  0  0  0  0
  143.3480   79.3470  222.7510 F   0  0  0  0  0  0  0  0  0  0  0  0
  142.5520   81.2850  221.9810 F   0  0  0  0  0  0  0  0  0  0  0  0
  140.7460   78.6580  222.6270 C   0  0  0  0  0  0  0  0  0  0  0  0
  140.1044   72.7614  220.1564 H   0  0  0  0  0  0  0  0  0  0  0  0
  141.8296   73.1585  220.1606 H   0  0  0  0  0  0  0  0  0  0  0  0
  141.8909   71.4225  221.7339 H   0  0  0  0  0  0  0  0  0  0  0  0
  141.4440   72.7605  222.8572 H   0  0  0  0  0  0  0  0  0  0  0  0
  139.0765   71.7142  221.5527 H   0  0  0  0  0  0  0  0  0  0  0  0
  140.0180   70.3811  222.3389 H   0  0  0  0  0  0  0  0  0  0  0  0
  141.2440   72.4178  225.3416 H   0  0  0  0  0  0  0  0  0  0  0  0
  141.9158   71.0939  227.3128 H   0  0  0  0  0  0  0  0  0  0  0  0
  138.8838   68.1855  226.3130 H   0  0  0  0  0  0  0  0  0  0  0  0
  138.9950   73.7780  222.6560 H   0  0  0  0  0  0  0  0  0  0  0  0
  138.7186   76.7880  221.1307 H   0  0  0  0  0  0  0  0  0  0  0  0
  137.4283   78.7413  223.2454 H   0  0  0  0  0  0  0  0  0  0  0  0
  138.0331   80.9891  224.1074 H   0  0  0  0  0  0  0  0  0  0  0  0
  140.4041   81.7522  224.0173 H   0  0  0  0  0  0  0  0  0  0  0  0
  141.5166   77.9954  222.2062 H   0  0  0  0  0  0  0  0  0  0  0  0
  1  2  2  0
  2  3  1  0
  3  4  1  0
  4  5  1  0
  5  6  1  0
  6  7  1  0
  7  8  2  0
  8  9  1  0
  9 10  2  0
 10 11  1  0
 10 12  1  0
 12 13  2  0
 13 14  1  0
  2 15  1  0
 15 16  1  0
 16 17  2  0
 17 18  1  0
 18 19  2  0
 19 20  1  0
 20 21  2  0
 21 22  1  0
 22 23  1  0
 23 24  1  0
 23 25  1  0
 23 26  1  0
 22 27  2  0
 13  7  1  0
 27 18  1  0
  3 28  1  0
  3 29  1  0
  4 30  1  0
  4 31  1  0
  5 32  1  0
  5 33  1  0
  8 34  1  0
  9 35  1  0
 12 36  1  0
 15 37  1  0
 17 38  1  0
 19 39  1  0
 20 40  1  0
 21 41  1  0
 27 42  1  0
M  END
>  <smiles>  (23) 
O=C(CCCOc1ccc(Cl)cc1Cl)NN=Cc1cccc(C(F)(F)F)c1

>  <score_type>  (23) 
oracle

>  <origin>  (23) 
autodockgpu

>  <m_score__min__energy>  (23) 
-7.3600000000000003

>  <m_primary>  (23) 
energy

>  <rmsd>  (23) 
12.645473117349136

>  <m_score__min__rmsd>  (23) 
12.645473117349136

>  <meeko>  (23) 
{"free_energy": -6.62, "intermolecular_energy": -9.31, "internal_energy": -1.42, "cluster_size": 7, "cluster_id": 3, "rank_in_cluster": 4}

>  <energy>  (23) 
-6.01

>  <cluster_rmsd>  (23) 
1.8

>  <cluster>  (23) 
2

$$$$

     RDKit          3D

 42 43  0  0  1  0  0  0  0  0999 V2000
  139.0180   72.1110  220.3970 O   0  0  0  0  0  0  0  0  0  0  0  0
  138.6370   73.0650  221.1390 C   0  0  0  0  0  0  0  0  0  0  0  0
  137.4490   73.8350  220.6400 C   0  0  0  0  0  0  0  0  0  0  0  0
  137.8860   75.3040  220.6040 C   0  0  0  0  0  0  0  0  0  0  0  0
  137.5300   75.9920  221.9070 C   0  0  0  0  0  0  0  0  0  0  0  0
  138.6510   76.0970  222.7620 O   0  0  0  0  0  0  0  0  0  0  0  0
  139.4750   77.2330  222.6410 C   0  0  0  0  0  0  0  0  0  0  0  0
  139.0800   78.4670  223.1390 C   0  0  0  0  0  0  0  0  0  0  0  0
  139.8570   79.5990  223.0400 C   0  0  0  0  0  0  0  0  0  0  0  0
  141.0930   79.4890  222.4080 C   0  0  0  0  0  0  0  0  0  0  0  0
  142.0510   80.9490  222.3020 Cl  0  0  0  0  0  0  0  0  0  0  0  0
  141.5190   78.2760  221.8990 C   0  0  0  0  0  0  0  0  0  0  0  0
  140.7140   77.1460  222.0130 C   0  0  0  0  0  0  0  0  0  0  0  0
  141.2760   75.6210  221.3590 Cl  0  0  0  0  0  0  0  0  0  0  0  0
  139.2660   73.3990  222.3510 N   0  0  0  0  0  0  0  0  0  0  0  0
  140.3790   72.7200  222.8730 N   0  0  0  0  0  0  0  0  0  0  0  0
  140.3170   71.4280  223.0620 C   0  0  0  0  0  0  0  0  0  0  0  0
  140.1710   70.8660  224.4170 C   0  0  0  0  0  0  0  0  0  0  0  0
  139.5830   69.6360  224.6330 C   0  0  0  0  0  0  0  0  0  0  0  0
  139.4500   69.1150  225.9140 C   0  0  0  0  0  0  0  0  0  0  0  0
  139.9160   69.8400  227.0000 C   0  0  0  0  0  0  0  0  0  0  0  0
  140.5130   71.0860  226.7940 C   0  0  0  0  0  0  0  0  0  0  0  0
  141.0090   71.8530  227.9800 C   0  0  0  0  0  0  0  0  0  0  0  0
  141.8190   72.8810  227.5820 F   0  0  0  0  0  0  0  0  0  0  0  0
  139.9460   72.2620  228.7350 F   0  0  0  0  0  0  0  0  0  0  0  0
  141.7170   70.9040  228.7290 F   0  0  0  0  0  0  0  0  0  0  0  0
  140.6340   71.5860  225.5010 C   0  0  0  0  0  0  0  0  0  0  0  0
  137.1680   73.4945  219.6325 H   0  0  0  0  0  0  0  0  0  0  0  0
  136.5722   73.6900  221.2882 H   0  0  0  0  0  0  0  0  0  0  0  0
  138.9743   75.3550  220.4525 H   0  0  0  0  0  0  0  0  0  0  0  0
  137.3658   75.8114  219.7782 H   0  0  0  0  0  0  0  0  0  0  0  0
  137.1531   77.0016  221.6865 H   0  0  0  0  0  0  0  0  0  0  0  0
  136.7633   75.3897  222.4164 H   0  0  0  0  0  0  0  0  0  0  0  0
  138.1014   78.5438  223.6354 H   0  0  0  0  0  0  0  0  0  0  0  0
  139.5122   80.5608  223.4475 H   0  0  0  0  0  0  0  0  0  0  0  0
  142.4977   78.2036  221.4021 H   0  0  0  0  0  0  0  0  0  0  0  0
  138.9230   74.2050  222.9520 H   0  0  0  0  0  0  0  0  0  0  0  0
  140.3746   70.7503  222.1974 H   0  0  0  0  0  0  0  0  0  0  0  0
  139.2125   69.0571  223.7742 H   0  0  0  0  0  0  0  0  0  0  0  0
  138.9778   68.1332  226.0657 H   0  0  0  0  0  0  0  0  0  0  0  0
  139.8162   69.4362  228.0183 H   0  0  0  0  0  0  0  0  0  0  0  0
  141.1044   72.5672  225.3401 H   0  0  0  0  0  0  0  0  0  0  0  0
  1  2  2  0
  2  3  1  0
  3  4  1  0
  4  5  1  0
  5  6  1  0
  6  7  1  0
  7  8  2  0
  8  9  1  0
  9 10  2  0
 10 11  1  0
 10 12  1  0
 12 13  2  0
 13 14  1  0
  2 15  1  0
 15 16  1  0
 16 17  2  0
 17 18  1  0
 18 19  2  0
 19 20  1  0
 20 21  2  0
 21 22  1  0
 22 23  1  0
 23 24  1  0
 23 25  1  0
 23 26  1  0
 22 27  2  0
 13  7  1  0
 27 18  1  0
  3 28  1  0
  3 29  1  0
  4 30  1  0
  4 31  1  0
  5 32  1  0
  5 33  1  0
  8 34  1  0
  9 35  1  0
 12 36  1  0
 15 37  1  0
 17 38  1  0
 19 39  1  0
 20 40  1  0
 21 41  1  0
 27 42  1  0
M  END
>  <smiles>  (24) 
O=C(CCCOc1ccc(Cl)cc1Cl)NN=Cc1cccc(C(F)(F)F)c1

>  <score_type>  (24) 
oracle

>  <origin>  (24) 
autodockgpu

>  <m_score__min__energy>  (24) 
-7.3600000000000003

>  <m_primary>  (24) 
energy

>  <rmsd>  (24) 
6.069208569866061

>  <m_score__min__rmsd>  (24) 
6.069208569866061

>  <meeko>  (24) 
{"free_energy": -6.55, "intermolecular_energy": -9.24, "internal_energy": -1.76, "cluster_size": 16, "cluster_id": 1, "rank_in_cluster": 10}

>  <energy>  (24) 
-7.07

>  <cluster_rmsd>  (24) 
0.0

>  <cluster>  (24) 
3

$$$$

     RDKit          3D

 42 43  0  0  1  0  0  0  0  0999 V2000
  140.4620   74.1690  222.3220 O   0  0  0  0  0  0  0  0  0  0  0  0
  139.4660   73.4980  221.9190 C   0  0  0  0  0  0  0  0  0  0  0  0
  138.5330   74.2230  220.9910 C   0  0  0  0  0  0  0  0  0  0  0  0
  137.5530   74.9840  221.8920 C   0  0  0  0  0  0  0  0  0  0  0  0
  138.2900   76.0160  222.7210 C   0  0  0  0  0  0  0  0  0  0  0  0
  138.5200   77.2030  221.9870 O   0  0  0  0  0  0  0  0  0  0  0  0
  139.5550   78.0580  222.4130 C   0  0  0  0  0  0  0  0  0  0  0  0
  139.3300   79.0440  223.3640 C   0  0  0  0  0  0  0  0  0  0  0  0
  140.3160   79.8980  223.8050 C   0  0  0  0  0  0  0  0  0  0  0  0
  141.5910   79.7570  223.2660 C   0  0  0  0  0  0  0  0  0  0  0  0
  142.8160   80.8600  223.8530 Cl  0  0  0  0  0  0  0  0  0  0  0  0
  141.8520   78.7860  222.3170 C   0  0  0  0  0  0  0  0  0  0  0  0
  140.8380   77.9350  221.8880 C   0  0  0  0  0  0  0  0  0  0  0  0
  141.1940   76.7130  220.6830 Cl  0  0  0  0  0  0  0  0  0  0  0  0
  139.2270   72.1670  222.3000 N   0  0  0  0  0  0  0  0  0  0  0  0
  140.0580   71.4330  223.1620 N   0  0  0  0  0  0  0  0  0  0  0  0
  139.6090   70.3360  223.7130 C   0  0  0  0  0  0  0  0  0  0  0  0
  139.9150   70.0130  225.1180 C   0  0  0  0  0  0  0  0  0  0  0  0
  139.8990   68.7130  225.5840 C   0  0  0  0  0  0  0  0  0  0  0  0
  140.1890   68.4180  226.9100 C   0  0  0  0  0  0  0  0  0  0  0  0
  140.5010   69.4450  227.7870 C   0  0  0  0  0  0  0  0  0  0  0  0
  140.5200   70.7650  227.3280 C   0  0  0  0  0  0  0  0  0  0  0  0
  140.8600   71.8580  228.2920 C   0  0  0  0  0  0  0  0  0  0  0  0
  139.7480   72.2460  228.9880 F   0  0  0  0  0  0  0  0  0  0  0  0
  141.8870   71.4540  229.0960 F   0  0  0  0  0  0  0  0  0  0  0  0
  141.3410   72.8930  227.4800 F   0  0  0  0  0  0  0  0  0  0  0  0
  140.2260   71.0330  225.9950 C   0  0  0  0  0  0  0  0  0  0  0  0
  139.0935   74.9251  220.3562 H   0  0  0  0  0  0  0  0  0  0  0  0
  138.0082   73.5268  220.3202 H   0  0  0  0  0  0  0  0  0  0  0  0
  136.8034   75.4901  221.2660 H   0  0  0  0  0  0  0  0  0  0  0  0
  137.0607   74.2690  222.5676 H   0  0  0  0  0  0  0  0  0  0  0  0
  137.6882   76.2564  223.6098 H   0  0  0  0  0  0  0  0  0  0  0  0
  139.2643   75.5947  223.0097 H   0  0  0  0  0  0  0  0  0  0  0  0
  138.3187   79.1477  223.7841 H   0  0  0  0  0  0  0  0  0  0  0  0
  140.1022   80.6684  224.5605 H   0  0  0  0  0  0  0  0  0  0  0  0
  142.8648   78.6858  221.8996 H   0  0  0  0  0  0  0  0  0  0  0  0
  138.3810   71.6290  221.9450 H   0  0  0  0  0  0  0  0  0  0  0  0
  138.9938   69.6438  223.1194 H   0  0  0  0  0  0  0  0  0  0  0  0
  139.6517   67.8950  224.8914 H   0  0  0  0  0  0  0  0  0  0  0  0
  140.1711   67.3759  227.2619 H   0  0  0  0  0  0  0  0  0  0  0  0
  140.7325   69.2223  228.8390 H   0  0  0  0  0  0  0  0  0  0  0  0
  140.2415   72.0722  225.6346 H   0  0  0  0  0  0  0  0  0  0  0  0
  1  2  2  0
  2  3  1  0
  3  4  1  0
  4  5  1  0
  5  6  1  0
  6  7  1  0
  7  8  2  0
  8  9  1  0
  9 10  2  0
 10 11  1  0
 10 12  1  0
 12 13  2  0
 13 14  1  0
  2 15  1  0
 15 16  1  0
 16 17  2  0
 17 18  1  0
 18 19  2  0
 19 20  1  0
 20 21  2  0
 21 22  1  0
 22 23  1  0
 23 24  1  0
 23 25  1  0
 23 26  1  0
 22 27  2  0
 13  7  1  0
 27 18  1  0
  3 28  1  0
  3 29  1  0
  4 30  1  0
  4 31  1  0
  5 32  1  0
  5 33  1  0
  8 34  1  0
  9 35  1  0
 12 36  1  0
 15 37  1  0
 17 38  1  0
 19 39  1  0
 20 40  1  0
 21 41  1  0
 27 42  1  0
M  END
>  <smiles>  (25) 
O=C(CCCOc1ccc(Cl)cc1Cl)NN=Cc1cccc(C(F)(F)F)c1

>  <score_type>  (25) 
oracle

>  <origin>  (25) 
autodockgpu

>  <m_score__min__energy>  (25) 
-7.3600000000000003

>  <m_primary>  (25) 
energy

>  <rmsd>  (25) 
5.955095607453719

>  <m_score__min__rmsd>  (25) 
5.955095607453719

>  <meeko>  (25) 
{"free_energy": -7.36, "intermolecular_energy": -10.04, "internal_energy": -0.96, "cluster_size": 16, "cluster_id": 1, "rank_in_cluster": 1}

>  <energy>  (25) 
-6.83

>  <cluster_rmsd>  (25) 
1.6

>  <cluster>  (25) 
3

$$$$

     RDKit          3D

 42 43  0  0  1  0  0  0  0  0999 V2000
  141.0630   75.0070  221.3580 O   0  0  0  0  0  0  0  0  0  0  0  0
  139.8660   74.7970  221.7170 C   0  0  0  0  0  0  0  0  0  0  0  0
  138.8820   75.8650  221.3350 C   0  0  0  0  0  0  0  0  0  0  0  0
  138.3940   76.4770  222.6540 C   0  0  0  0  0  0  0  0  0  0  0  0
  136.9290   76.1600  222.8730 C   0  0  0  0  0  0  0  0  0  0  0  0
  136.6930   74.7650  222.8670 O   0  0  0  0  0  0  0  0  0  0  0  0
  135.8190   74.2350  223.8360 C   0  0  0  0  0  0  0  0  0  0  0  0
  135.1380   75.0580  224.7200 C   0  0  0  0  0  0  0  0  0  0  0  0
  134.2760   74.5770  225.6800 C   0  0  0  0  0  0  0  0  0  0  0  0
  134.0880   73.2000  225.7570 C   0  0  0  0  0  0  0  0  0  0  0  0
  132.9850   72.6270  226.9890 Cl  0  0  0  0  0  0  0  0  0  0  0  0
  134.7500   72.3480  224.8920 C   0  0  0  0  0  0  0  0  0  0  0  0
  135.6170   72.8610  223.9310 C   0  0  0  0  0  0  0  0  0  0  0  0
  136.4450   71.7610  222.8470 Cl  0  0  0  0  0  0  0  0  0  0  0  0
  139.4620   73.6530  222.4260 N   0  0  0  0  0  0  0  0  0  0  0  0
  140.3310   72.6190  222.8120 N   0  0  0  0  0  0  0  0  0  0  0  0
  139.8540   71.4190  223.0190 C   0  0  0  0  0  0  0  0  0  0  0  0
  139.8930   70.8100  224.3610 C   0  0  0  0  0  0  0  0  0  0  0  0
  139.4280   69.5300  224.5900 C   0  0  0  0  0  0  0  0  0  0  0  0
  139.4690   68.9640  225.8580 C   0  0  0  0  0  0  0  0  0  0  0  0
  139.9840   69.6940  226.9170 C   0  0  0  0  0  0  0  0  0  0  0  0
  140.4580   70.9900  226.6980 C   0  0  0  0  0  0  0  0  0  0  0  0
  141.0110   71.7600  227.8560 C   0  0  0  0  0  0  0  0  0  0  0  0
  141.7540   70.9440  228.6640 F   0  0  0  0  0  0  0  0  0  0  0  0
  141.7080   72.8410  227.3930 F   0  0  0  0  0  0  0  0  0  0  0  0
  139.8760   72.2430  228.5200 F   0  0  0  0  0  0  0  0  0  0  0  0
  140.4060   71.5340  225.4190 C   0  0  0  0  0  0  0  0  0  0  0  0
  139.3703   76.6313  220.7150 H   0  0  0  0  0  0  0  0  0  0  0  0
  138.0480   75.4545  220.7469 H   0  0  0  0  0  0  0  0  0  0  0  0
  138.9828   76.0626  223.4856 H   0  0  0  0  0  0  0  0  0  0  0  0
  138.5200   77.5688  222.6090 H   0  0  0  0  0  0  0  0  0  0  0  0
  136.6157   76.5712  223.8440 H   0  0  0  0  0  0  0  0  0  0  0  0
  136.3522   76.6108  222.0519 H   0  0  0  0  0  0  0  0  0  0  0  0
  135.2935   76.1448  224.6513 H   0  0  0  0  0  0  0  0  0  0  0  0
  133.7521   75.2599  226.3649 H   0  0  0  0  0  0  0  0  0  0  0  0
  134.5911   71.2619  224.9634 H   0  0  0  0  0  0  0  0  0  0  0  0
  138.4500   73.5050  222.7140 H   0  0  0  0  0  0  0  0  0  0  0  0
  139.4178   70.8565  222.1804 H   0  0  0  0  0  0  0  0  0  0  0  0
  139.0172   68.9474  223.7522 H   0  0  0  0  0  0  0  0  0  0  0  0
  139.0948   67.9424  226.0203 H   0  0  0  0  0  0  0  0  0  0  0  0
  140.0195   69.2555  227.9252 H   0  0  0  0  0  0  0  0  0  0  0  0
  140.7786   72.5548  225.2480 H   0  0  0  0  0  0  0  0  0  0  0  0
  1  2  2  0
  2  3  1  0
  3  4  1  0
  4  5  1  0
  5  6  1  0
  6  7  1  0
  7  8  2  0
  8  9  1  0
  9 10  2  0
 10 11  1  0
 10 12  1  0
 12 13  2  0
 13 14  1  0
  2 15  1  0
 15 16  1  0
 16 17  2  0
 17 18  1  0
 18 19  2  0
 19 20  1  0
 20 21  2  0
 21 22  1  0
 22 23  1  0
 23 24  1  0
 23 25  1  0
 23 26  1  0
 22 27  2  0
 13  7  1  0
 27 18  1  0
  3 28  1  0
  3 29  1  0
  4 30  1  0
  4 31  1  0
  5 32  1  0
  5 33  1  0
  8 34  1  0
  9 35  1  0
 12 36  1  0
 15 37  1  0
 17 38  1  0
 19 39  1  0
 20 40  1  0
 21 41  1  0
 27 42  1  0
M  END
>  <smiles>  (26) 
O=C(CCCOc1ccc(Cl)cc1Cl)NN=Cc1cccc(C(F)(F)F)c1

>  <score_type>  (26) 
oracle

>  <origin>  (26) 
autodockgpu

>  <m_score__min__energy>  (26) 
-7.3600000000000003

>  <m_primary>  (26) 
energy

>  <rmsd>  (26) 
9.987033406533588

>  <m_score__min__rmsd>  (26) 
9.987033406533588

>  <meeko>  (26) 
{"free_energy": -6.21, "intermolecular_energy": -8.9, "internal_energy": -2.08, "cluster_size": 6, "cluster_id": 6, "rank_in_cluster": 1}

>  <energy>  (26) 
-6.77

>  <cluster_rmsd>  (26) 
1.87

>  <cluster>  (26) 
3

$$$$

     RDKit          3D

 42 43  0  0  1  0  0  0  0  0999 V2000
  140.8030   73.8810  221.9170 O   0  0  0  0  0  0  0  0  0  0  0  0
  139.5850   73.7970  222.2560 C   0  0  0  0  0  0  0  0  0  0  0  0
  138.7920   75.0660  222.1290 C   0  0  0  0  0  0  0  0  0  0  0  0
  137.6430   74.7480  221.1640 C   0  0  0  0  0  0  0  0  0  0  0  0
  136.3410   74.5990  221.9250 C   0  0  0  0  0  0  0  0  0  0  0  0
  136.4910   73.7600  223.0530 O   0  0  0  0  0  0  0  0  0  0  0  0
  135.5260   73.8410  224.0750 C   0  0  0  0  0  0  0  0  0  0  0  0
  135.0610   75.0650  224.5330 C   0  0  0  0  0  0  0  0  0  0  0  0
  134.1190   75.1840  225.5290 C   0  0  0  0  0  0  0  0  0  0  0  0
  133.6160   74.0160  226.0950 C   0  0  0  0  0  0  0  0  0  0  0  0
  132.4200   74.2090  227.3580 Cl  0  0  0  0  0  0  0  0  0  0  0  0
  134.0550   72.7780  225.6640 C   0  0  0  0  0  0  0  0  0  0  0  0
  135.0090   72.6850  224.6550 C   0  0  0  0  0  0  0  0  0  0  0  0
  135.5500   71.1050  224.1270 Cl  0  0  0  0  0  0  0  0  0  0  0  0
  138.9940   72.6100  222.7220 N   0  0  0  0  0  0  0  0  0  0  0  0
  139.6790   71.3920  222.8630 N   0  0  0  0  0  0  0  0  0  0  0  0
  139.1240   70.4120  223.5260 C   0  0  0  0  0  0  0  0  0  0  0  0
  139.5740   70.0680  224.8870 C   0  0  0  0  0  0  0  0  0  0  0  0
  139.5860   68.7620  225.3370 C   0  0  0  0  0  0  0  0  0  0  0  0
  140.0120   68.4470  226.6210 C   0  0  0  0  0  0  0  0  0  0  0  0
  140.4330   69.4580  227.4700 C   0  0  0  0  0  0  0  0  0  0  0  0
  140.4240   70.7830  227.0260 C   0  0  0  0  0  0  0  0  0  0  0  0
  140.8830   71.8590  227.9600 C   0  0  0  0  0  0  0  0  0  0  0  0
  141.8220   71.3720  228.8280 F   0  0  0  0  0  0  0  0  0  0  0  0
  141.3210   72.9330  227.2370 F   0  0  0  0  0  0  0  0  0  0  0  0
  139.7180   72.2490  228.6320 F   0  0  0  0  0  0  0  0  0  0  0  0
  139.9930   71.0720  225.7360 C   0  0  0  0  0  0  0  0  0  0  0  0
  138.3957   75.3694  223.1092 H   0  0  0  0  0  0  0  0  0  0  0  0
  139.4128   75.8952  221.7589 H   0  0  0  0  0  0  0  0  0  0  0  0
  137.5452   75.5656  220.4347 H   0  0  0  0  0  0  0  0  0  0  0  0
  137.8635   73.8035  220.6450 H   0  0  0  0  0  0  0  0  0  0  0  0
  136.0079   75.5922  222.2605 H   0  0  0  0  0  0  0  0  0  0  0  0
  135.5996   74.1426  221.2527 H   0  0  0  0  0  0  0  0  0  0  0  0
  135.4637   75.9825  224.0792 H   0  0  0  0  0  0  0  0  0  0  0  0
  133.7740   76.1721  225.8676 H   0  0  0  0  0  0  0  0  0  0  0  0
  133.6488   71.8632  226.1202 H   0  0  0  0  0  0  0  0  0  0  0  0
  137.9690   72.5710  222.9990 H   0  0  0  0  0  0  0  0  0  0  0  0
  138.3098   69.8359  223.0621 H   0  0  0  0  0  0  0  0  0  0  0  0
  139.2521   67.9567  224.6662 H   0  0  0  0  0  0  0  0  0  0  0  0
  140.0151   67.4012  226.9619 H   0  0  0  0  0  0  0  0  0  0  0  0
  140.7726   69.2187  228.4885 H   0  0  0  0  0  0  0  0  0  0  0  0
  139.9859   72.1153  225.3874 H   0  0  0  0  0  0  0  0  0  0  0  0
  1  2  2  0
  2  3  1  0
  3  4  1  0
  4  5  1  0
  5  6  1  0
  6  7  1  0
  7  8  2  0
  8  9  1  0
  9 10  2  0
 10 11  1  0
 10 12  1  0
 12 13  2  0
 13 14  1  0
  2 15  1  0
 15 16  1  0
 16 17  2  0
 17 18  1  0
 18 19  2  0
 19 20  1  0
 20 21  2  0
 21 22  1  0
 22 23  1  0
 23 24  1  0
 23 25  1  0
 23 26  1  0
 22 27  2  0
 13  7  1  0
 27 18  1  0
  3 28  1  0
  3 29  1  0
  4 30  1  0
  4 31  1  0
  5 32  1  0
  5 33  1  0
  8 34  1  0
  9 35  1  0
 12 36  1  0
 15 37  1  0
 17 38  1  0
 19 39  1  0
 20 40  1  0
 21 41  1  0
 27 42  1  0
M  END
>  <smiles>  (27) 
O=C(CCCOc1ccc(Cl)cc1Cl)NN=Cc1cccc(C(F)(F)F)c1

>  <score_type>  (27) 
oracle

>  <origin>  (27) 
autodockgpu

>  <m_score__min__energy>  (27) 
-7.3600000000000003

>  <m_primary>  (27) 
energy

>  <rmsd>  (27) 
10.493529285999587

>  <m_score__min__rmsd>  (27) 
10.493529285999587

>  <meeko>  (27) 
{"free_energy": -5.91, "intermolecular_energy": -8.6, "internal_energy": -2.03, "cluster_size": 6, "cluster_id": 6, "rank_in_cluster": 3}

>  <energy>  (27) 
-6.62

>  <cluster_rmsd>  (27) 
1.75

>  <cluster>  (27) 
3

$$$$

     RDKit          3D

 42 43  0  0  1  0  0  0  0  0999 V2000
  138.7370   71.6950  223.5160 O   0  0  0  0  0  0  0  0  0  0  0  0
  139.6170   70.9280  223.0240 C   0  0  0  0  0  0  0  0  0  0  0  0
  140.7630   71.6170  222.3410 C   0  0  0  0  0  0  0  0  0  0  0  0
  140.1300   72.5650  221.3150 C   0  0  0  0  0  0  0  0  0  0  0  0
  140.5680   73.9920  221.5740 C   0  0  0  0  0  0  0  0  0  0  0  0
  139.4900   74.7930  222.0180 O   0  0  0  0  0  0  0  0  0  0  0  0
  139.7520   76.1390  222.3410 C   0  0  0  0  0  0  0  0  0  0  0  0
  141.0440   76.6440  222.3350 C   0  0  0  0  0  0  0  0  0  0  0  0
  141.3380   77.9530  222.6450 C   0  0  0  0  0  0  0  0  0  0  0  0
  140.2840   78.7980  222.9790 C   0  0  0  0  0  0  0  0  0  0  0  0
  140.6980   80.4530  223.3660 Cl  0  0  0  0  0  0  0  0  0  0  0  0
  138.9830   78.3300  222.9950 C   0  0  0  0  0  0  0  0  0  0  0  0
  138.7120   77.0020  222.6770 C   0  0  0  0  0  0  0  0  0  0  0  0
  137.0560   76.4320  222.7060 Cl  0  0  0  0  0  0  0  0  0  0  0  0
  139.5490   69.5260  223.0990 N   0  0  0  0  0  0  0  0  0  0  0  0
  138.5070   68.8210  223.7230 N   0  0  0  0  0  0  0  0  0  0  0  0
  138.1840   69.1050  224.9570 C   0  0  0  0  0  0  0  0  0  0  0  0
  139.2050   69.1370  226.0200 C   0  0  0  0  0  0  0  0  0  0  0  0
  139.7710   67.9800  226.5170 C   0  0  0  0  0  0  0  0  0  0  0  0
  140.7330   68.0190  227.5180 C   0  0  0  0  0  0  0  0  0  0  0  0
  141.1360   69.2420  228.0320 C   0  0  0  0  0  0  0  0  0  0  0  0
  140.5710   70.4200  227.5370 C   0  0  0  0  0  0  0  0  0  0  0  0
  141.0200   71.7300  228.1060 C   0  0  0  0  0  0  0  0  0  0  0  0
  141.9850   71.5330  229.0570 F   0  0  0  0  0  0  0  0  0  0  0  0
  141.4210   72.5530  227.0920 F   0  0  0  0  0  0  0  0  0  0  0  0
  139.8580   72.2790  228.6620 F   0  0  0  0  0  0  0  0  0  0  0  0
  139.6090   70.3530  226.5340 C   0  0  0  0  0  0  0  0  0  0  0  0
  141.3582   72.1851  223.0710 H   0  0  0  0  0  0  0  0  0  0  0  0
  141.4407   70.8956  221.8611 H   0  0  0  0  0  0  0  0  0  0  0  0
  140.4446   72.2671  220.3039 H   0  0  0  0  0  0  0  0  0  0  0  0
  139.0351   72.5063  221.4028 H   0  0  0  0  0  0  0  0  0  0  0  0
  141.3532   73.9906  222.3444 H   0  0  0  0  0  0  0  0  0  0  0  0
  140.9454   74.4136  220.6307 H   0  0  0  0  0  0  0  0  0  0  0  0
  141.8708   75.9683  222.0707 H   0  0  0  0  0  0  0  0  0  0  0  0
  142.3749   78.3198  222.6291 H   0  0  0  0  0  0  0  0  0  0  0  0
  138.1593   79.0093  223.2599 H   0  0  0  0  0  0  0  0  0  0  0  0
  140.3040   68.9090  222.6760 H   0  0  0  0  0  0  0  0  0  0  0  0
  137.1351   69.3234  225.2062 H   0  0  0  0  0  0  0  0  0  0  0  0
  139.4537   67.0077  226.1120 H   0  0  0  0  0  0  0  0  0  0  0  0
  141.1722   67.0858  227.9005 H   0  0  0  0  0  0  0  0  0  0  0  0
  141.8967   69.2846  228.8254 H   0  0  0  0  0  0  0  0  0  0  0  0
  139.1645   71.2811  226.1454 H   0  0  0  0  0  0  0  0  0  0  0  0
  1  2  2  0
  2  3  1  0
  3  4  1  0
  4  5  1  0
  5  6  1  0
  6  7  1  0
  7  8  2  0
  8  9  1  0
  9 10  2  0
 10 11  1  0
 10 12  1  0
 12 13  2  0
 13 14  1  0
  2 15  1  0
 15 16  1  0
 16 17  2  0
 17 18  1  0
 18 19  2  0
 19 20  1  0
 20 21  2  0
 21 22  1  0
 22 23  1  0
 23 24  1  0
 23 25  1  0
 23 26  1  0
 22 27  2  0
 13  7  1  0
 27 18  1  0
  3 28  1  0
  3 29  1  0
  4 30  1  0
  4 31  1  0
  5 32  1  0
  5 33  1  0
  8 34  1  0
  9 35  1  0
 12 36  1  0
 15 37  1  0
 17 38  1  0
 19 39  1  0
 20 40  1  0
 21 41  1  0
 27 42  1  0
M  END
>  <smiles>  (28) 
O=C(CCCOc1ccc(Cl)cc1Cl)NN=Cc1cccc(C(F)(F)F)c1

>  <score_type>  (28) 
oracle

>  <origin>  (28) 
autodockgpu

>  <m_score__min__energy>  (28) 
-7.3600000000000003

>  <m_primary>  (28) 
energy

>  <rmsd>  (28) 
7.4629372860703445

>  <m_score__min__rmsd>  (28) 
7.4629372860703445

>  <meeko>  (28) 
{"free_energy": -6.7, "intermolecular_energy": -9.38, "internal_energy": -0.8, "cluster_size": 16, "cluster_id": 1, "rank_in_cluster": 8}

>  <energy>  (28) 
-6.59

>  <cluster_rmsd>  (28) 
1.58

>  <cluster>  (28) 
3

$$$$

     RDKit          3D

 42 43  0  0  1  0  0  0  0  0999 V2000
  142.3720   71.8420  221.2790 O   0  0  0  0  0  0  0  0  0  0  0  0
  141.7490   72.9110  221.0030 C   0  0  0  0  0  0  0  0  0  0  0  0
  142.1720   73.5940  219.7340 C   0  0  0  0  0  0  0  0  0  0  0  0
  142.8130   74.9180  220.1640 C   0  0  0  0  0  0  0  0  0  0  0  0
  141.7450   75.9590  220.4340 C   0  0  0  0  0  0  0  0  0  0  0  0
  141.3710   75.9780  221.7980 O   0  0  0  0  0  0  0  0  0  0  0  0
  140.7230   77.1260  222.2930 C   0  0  0  0  0  0  0  0  0  0  0  0
  141.4430   78.2360  222.7130 C   0  0  0  0  0  0  0  0  0  0  0  0
  140.8450   79.3750  223.2030 C   0  0  0  0  0  0  0  0  0  0  0  0
  139.4550   79.4030  223.2760 C   0  0  0  0  0  0  0  0  0  0  0  0
  138.7330   80.8680  223.9040 Cl  0  0  0  0  0  0  0  0  0  0  0  0
  138.7050   78.3150  222.8680 C   0  0  0  0  0  0  0  0  0  0  0  0
  139.3350   77.1750  222.3760 C   0  0  0  0  0  0  0  0  0  0  0  0
  138.3620   75.8100  221.8660 Cl  0  0  0  0  0  0  0  0  0  0  0  0
  140.7300   73.4420  221.8120 N   0  0  0  0  0  0  0  0  0  0  0  0
  140.2880   72.8540  223.0090 N   0  0  0  0  0  0  0  0  0  0  0  0
  140.1330   71.5570  223.0710 C   0  0  0  0  0  0  0  0  0  0  0  0
  140.0970   70.8600  224.3690 C   0  0  0  0  0  0  0  0  0  0  0  0
  139.6350   69.5640  224.4840 C   0  0  0  0  0  0  0  0  0  0  0  0
  139.6050   68.9150  225.7120 C   0  0  0  0  0  0  0  0  0  0  0  0
  140.0450   69.5770  226.8470 C   0  0  0  0  0  0  0  0  0  0  0  0
  140.5140   70.8890  226.7440 C   0  0  0  0  0  0  0  0  0  0  0  0
  140.9860   71.5850  227.9830 C   0  0  0  0  0  0  0  0  0  0  0  0
  141.8210   72.6210  227.6620 F   0  0  0  0  0  0  0  0  0  0  0  0
  139.9070   71.9720  228.7260 F   0  0  0  0  0  0  0  0  0  0  0  0
  141.6580   70.5890  228.7010 F   0  0  0  0  0  0  0  0  0  0  0  0
  140.5350   71.5160  225.5030 C   0  0  0  0  0  0  0  0  0  0  0  0
  142.9007   72.9746  219.1906 H   0  0  0  0  0  0  0  0  0  0  0  0
  141.3186   73.7583  219.0596 H   0  0  0  0  0  0  0  0  0  0  0  0
  143.4006   74.7557  221.0796 H   0  0  0  0  0  0  0  0  0  0  0  0
  143.4656   75.2779  219.3549 H   0  0  0  0  0  0  0  0  0  0  0  0
  142.1337   76.9499  220.1564 H   0  0  0  0  0  0  0  0  0  0  0  0
  140.8570   75.7046  219.8367 H   0  0  0  0  0  0  0  0  0  0  0  0
  142.5408   78.2040  222.6515 H   0  0  0  0  0  0  0  0  0  0  0  0
  141.4471   80.2367  223.5270 H   0  0  0  0  0  0  0  0  0  0  0  0
  137.6075   78.3504  222.9324 H   0  0  0  0  0  0  0  0  0  0  0  0
  140.2270   74.3420  221.5540 H   0  0  0  0  0  0  0  0  0  0  0  0
  140.0280   70.9782  222.1415 H   0  0  0  0  0  0  0  0  0  0  0  0
  139.2838   69.0350  223.5858 H   0  0  0  0  0  0  0  0  0  0  0  0
  139.2342   67.8818  225.7829 H   0  0  0  0  0  0  0  0  0  0  0  0
  140.0251   69.0721  227.8241 H   0  0  0  0  0  0  0  0  0  0  0  0
  140.9055   72.5486  225.4232 H   0  0  0  0  0  0  0  0  0  0  0  0
  1  2  2  0
  2  3  1  0
  3  4  1  0
  4  5  1  0
  5  6  1  0
  6  7  1  0
  7  8  2  0
  8  9  1  0
  9 10  2  0
 10 11  1  0
 10 12  1  0
 12 13  2  0
 13 14  1  0
  2 15  1  0
 15 16  1  0
 16 17  2  0
 17 18  1  0
 18 19  2  0
 19 20  1  0
 20 21  2  0
 21 22  1  0
 22 23  1  0
 23 24  1  0
 23 25  1  0
 23 26  1  0
 22 27  2  0
 13  7  1  0
 27 18  1  0
  3 28  1  0
  3 29  1  0
  4 30  1  0
  4 31  1  0
  5 32  1  0
  5 33  1  0
  8 34  1  0
  9 35  1  0
 12 36  1  0
 15 37  1  0
 17 38  1  0
 19 39  1  0
 20 40  1  0
 21 41  1  0
 27 42  1  0
M  END
>  <smiles>  (29) 
O=C(CCCOc1ccc(Cl)cc1Cl)NN=Cc1cccc(C(F)(F)F)c1

>  <score_type>  (29) 
oracle

>  <origin>  (29) 
autodockgpu

>  <m_score__min__energy>  (29) 
-7.3600000000000003

>  <m_primary>  (29) 
energy

>  <rmsd>  (29) 
6.433349459942924

>  <m_score__min__rmsd>  (29) 
6.433349459942924

>  <meeko>  (29) 
{"free_energy": -6.5, "intermolecular_energy": -9.18, "internal_energy": -1.49, "cluster_size": 3, "cluster_id": 4, "rank_in_cluster": 2}

>  <energy>  (29) 
-6.58

>  <cluster_rmsd>  (29) 
1.95

>  <cluster>  (29) 
3

$$$$

     RDKit          3D

 42 43  0  0  1  0  0  0  0  0999 V2000
  139.1890   71.0780  220.7840 O   0  0  0  0  0  0  0  0  0  0  0  0
  139.0000   72.2100  221.3220 C   0  0  0  0  0  0  0  0  0  0  0  0
  138.5960   73.3100  220.3830 C   0  0  0  0  0  0  0  0  0  0  0  0
  139.8900   74.0530  220.0270 C   0  0  0  0  0  0  0  0  0  0  0  0
  140.7040   74.3240  221.2760 C   0  0  0  0  0  0  0  0  0  0  0  0
  139.9060   74.8710  222.3070 O   0  0  0  0  0  0  0  0  0  0  0  0
  139.8960   76.2700  222.4670 C   0  0  0  0  0  0  0  0  0  0  0  0
  141.0690   77.0100  222.4260 C   0  0  0  0  0  0  0  0  0  0  0  0
  141.0990   78.3780  222.5780 C   0  0  0  0  0  0  0  0  0  0  0  0
  139.8910   79.0380  222.7840 C   0  0  0  0  0  0  0  0  0  0  0  0
  139.9700   80.7760  222.9720 Cl  0  0  0  0  0  0  0  0  0  0  0  0
  138.7010   78.3340  222.8310 C   0  0  0  0  0  0  0  0  0  0  0  0
  138.6990   76.9510  222.6730 C   0  0  0  0  0  0  0  0  0  0  0  0
  137.1790   76.0820  222.7390 Cl  0  0  0  0  0  0  0  0  0  0  0  0
  139.1530   72.4450  222.6990 N   0  0  0  0  0  0  0  0  0  0  0  0
  139.5280   71.4610  223.6290 N   0  0  0  0  0  0  0  0  0  0  0  0
  140.6880   71.5450  224.2240 C   0  0  0  0  0  0  0  0  0  0  0  0
  140.8310   71.2190  225.6550 C   0  0  0  0  0  0  0  0  0  0  0  0
  141.0320   72.2000  226.6060 C   0  0  0  0  0  0  0  0  0  0  0  0
  141.1650   71.8830  227.9520 C   0  0  0  0  0  0  0  0  0  0  0  0
  141.0960   70.5580  228.3530 C   0  0  0  0  0  0  0  0  0  0  0  0
  140.8930   69.5560  227.4010 C   0  0  0  0  0  0  0  0  0  0  0  0
  140.8210   68.1320  227.8560 C   0  0  0  0  0  0  0  0  0  0  0  0
  141.0590   67.2820  226.8110 F   0  0  0  0  0  0  0  0  0  0  0  0
  141.6740   67.9470  228.9070 F   0  0  0  0  0  0  0  0  0  0  0  0
  139.5150   67.9940  228.3420 F   0  0  0  0  0  0  0  0  0  0  0  0
  140.7630   69.9000  226.0590 C   0  0  0  0  0  0  0  0  0  0  0  0
  138.1341   72.8900  219.4773 H   0  0  0  0  0  0  0  0  0  0  0  0
  137.8565   73.9826  220.8421 H   0  0  0  0  0  0  0  0  0  0  0  0
  140.4828   73.4373  219.3345 H   0  0  0  0  0  0  0  0  0  0  0  0
  139.6323   75.0120  219.5539 H   0  0  0  0  0  0  0  0  0  0  0  0
  141.1438   73.3791  221.6278 H   0  0  0  0  0  0  0  0  0  0  0  0
  141.4891   75.0523  221.0245 H   0  0  0  0  0  0  0  0  0  0  0  0
  142.0188   76.4791  222.2646 H   0  0  0  0  0  0  0  0  0  0  0  0
  142.0483   78.9323  222.5379 H   0  0  0  0  0  0  0  0  0  0  0  0
  137.7536   78.8687  222.9937 H   0  0  0  0  0  0  0  0  0  0  0  0
  138.9880   73.4060  223.1210 H   0  0  0  0  0  0  0  0  0  0  0  0
  141.5704   71.8634  223.6495 H   0  0  0  0  0  0  0  0  0  0  0  0
  141.0879   73.2526  226.2917 H   0  0  0  0  0  0  0  0  0  0  0  0
  141.3241   72.6785  228.6949 H   0  0  0  0  0  0  0  0  0  0  0  0
  141.2006   70.2966  229.4163 H   0  0  0  0  0  0  0  0  0  0  0  0
  140.6039   69.1106  225.3096 H   0  0  0  0  0  0  0  0  0  0  0  0
  1  2  2  0
  2  3  1  0
  3  4  1  0
  4  5  1  0
  5  6  1  0
  6  7  1  0
  7  8  2  0
  8  9  1  0
  9 10  2  0
 10 11  1  0
 10 12  1  0
 12 13  2  0
 13 14  1  0
  2 15  1  0
 15 16  1  0
 16 17  2  0
 17 18  1  0
 18 19  2  0
 19 20  1  0
 20 21  2  0
 21 22  1  0
 22 23  1  0
 23 24  1  0
 23 25  1  0
 23 26  1  0
 22 27  2  0
 13  7  1  0
 27 18  1  0
  3 28  1  0
  3 29  1  0
  4 30  1  0
  4 31  1  0
  5 32  1  0
  5 33  1  0
  8 34  1  0
  9 35  1  0
 12 36  1  0
 15 37  1  0
 17 38  1  0
 19 39  1  0
 20 40  1  0
 21 41  1  0
 27 42  1  0
M  END
>  <smiles>  (30) 
O=C(CCCOc1ccc(Cl)cc1Cl)NN=Cc1cccc(C(F)(F)F)c1

>  <score_type>  (30) 
oracle

>  <origin>  (30) 
autodockgpu

>  <m_score__min__energy>  (30) 
-7.3600000000000003

>  <m_primary>  (30) 
energy

>  <rmsd>  (30) 
7.360839707814303

>  <m_score__min__rmsd>  (30) 
7.360839707814303

>  <meeko>  (30) 
{"free_energy": -6.86, "intermolecular_energy": -9.54, "internal_energy": -1.67, "cluster_size": 7, "cluster_id": 2, "rank_in_cluster": 2}

>  <energy>  (30) 
-6.48

>  <cluster_rmsd>  (30) 
1.8

>  <cluster>  (30) 
3

$$$$

     RDKit          3D

 42 43  0  0  1  0  0  0  0  0999 V2000
  140.1520   74.2200  222.0160 O   0  0  0  0  0  0  0  0  0  0  0  0
  141.0590   74.8720  221.4170 C   0  0  0  0  0  0  0  0  0  0  0  0
  141.7710   74.1280  220.3240 C   0  0  0  0  0  0  0  0  0  0  0  0
  143.2480   74.5260  220.4390 C   0  0  0  0  0  0  0  0  0  0  0  0
  143.5100   75.8100  219.6770 C   0  0  0  0  0  0  0  0  0  0  0  0
  142.3230   76.3260  219.1060 O   0  0  0  0  0  0  0  0  0  0  0  0
  142.2460   77.7120  218.8720 C   0  0  0  0  0  0  0  0  0  0  0  0
  141.8220   78.5880  219.8600 C   0  0  0  0  0  0  0  0  0  0  0  0
  141.7350   79.9490  219.6690 C   0  0  0  0  0  0  0  0  0  0  0  0
  142.0900   80.4560  218.4230 C   0  0  0  0  0  0  0  0  0  0  0  0
  141.9650   82.1900  218.2190 Cl  0  0  0  0  0  0  0  0  0  0  0  0
  142.5170   79.6140  217.4130 C   0  0  0  0  0  0  0  0  0  0  0  0
  142.5970   78.2410  217.6330 C   0  0  0  0  0  0  0  0  0  0  0  0
  143.1400   77.1940  216.3380 Cl  0  0  0  0  0  0  0  0  0  0  0  0
  141.3950   76.1980  221.7360 N   0  0  0  0  0  0  0  0  0  0  0  0
  140.7690   76.9480  222.7460 N   0  0  0  0  0  0  0  0  0  0  0  0
  141.4480   77.8640  223.3840 C   0  0  0  0  0  0  0  0  0  0  0  0
  141.2930   79.2920  223.0500 C   0  0  0  0  0  0  0  0  0  0  0  0
  142.3500   80.1770  223.1400 C   0  0  0  0  0  0  0  0  0  0  0  0
  142.1950   81.5200  222.8230 C   0  0  0  0  0  0  0  0  0  0  0  0
  140.9580   81.9870  222.4090 C   0  0  0  0  0  0  0  0  0  0  0  0
  139.8810   81.1020  222.3150 C   0  0  0  0  0  0  0  0  0  0  0  0
  138.5530   81.6280  221.8650 C   0  0  0  0  0  0  0  0  0  0  0  0
  137.6960   81.7360  222.9260 F   0  0  0  0  0  0  0  0  0  0  0  0
  138.7330   82.8040  221.1940 F   0  0  0  0  0  0  0  0  0  0  0  0
  138.1040   80.6780  220.9390 F   0  0  0  0  0  0  0  0  0  0  0  0
  140.0620   79.7610  222.6380 C   0  0  0  0  0  0  0  0  0  0  0  0
  141.6552   73.0428  220.4613 H   0  0  0  0  0  0  0  0  0  0  0  0
  141.3616   74.3754  219.3335 H   0  0  0  0  0  0  0  0  0  0  0  0
  143.5017   74.6753  221.4989 H   0  0  0  0  0  0  0  0  0  0  0  0
  143.8680   73.7243  220.0113 H   0  0  0  0  0  0  0  0  0  0  0  0
  143.9280   76.5567  220.3681 H   0  0  0  0  0  0  0  0  0  0  0  0
  144.2169   75.5901  218.8634 H   0  0  0  0  0  0  0  0  0  0  0  0
  141.5424   78.1768  220.8412 H   0  0  0  0  0  0  0  0  0  0  0  0
  141.3954   80.6145  220.4764 H   0  0  0  0  0  0  0  0  0  0  0  0
  142.7943   80.0295  216.4330 H   0  0  0  0  0  0  0  0  0  0  0  0
  142.1630   76.7180  221.2160 H   0  0  0  0  0  0  0  0  0  0  0  0
  142.1448   77.5659  224.1812 H   0  0  0  0  0  0  0  0  0  0  0  0
  143.3336   79.8106  223.4692 H   0  0  0  0  0  0  0  0  0  0  0  0
  143.0491   82.2089  222.9001 H   0  0  0  0  0  0  0  0  0  0  0  0
  140.8245   83.0491  222.1556 H   0  0  0  0  0  0  0  0  0  0  0  0
  139.2130   79.0654  222.5641 H   0  0  0  0  0  0  0  0  0  0  0  0
  1  2  2  0
  2  3  1  0
  3  4  1  0
  4  5  1  0
  5  6  1  0
  6  7  1  0
  7  8  2  0
  8  9  1  0
  9 10  2  0
 10 11  1  0
 10 12  1  0
 12 13  2  0
 13 14  1  0
  2 15  1  0
 15 16  1  0
 16 17  2  0
 17 18  1  0
 18 19  2  0
 19 20  1  0
 20 21  2  0
 21 22  1  0
 22 23  1  0
 23 24  1  0
 23 25  1  0
 23 26  1  0
 22 27  2  0
 13  7  1  0
 27 18  1  0
  3 28  1  0
  3 29  1  0
  4 30  1  0
  4 31  1  0
  5 32  1  0
  5 33  1  0
  8 34  1  0
  9 35  1  0
 12 36  1  0
 15 37  1  0
 17 38  1  0
 19 39  1  0
 20 40  1  0
 21 41  1  0
 27 42  1  0
M  END
>  <smiles>  (31) 
O=C(CCCOc1ccc(Cl)cc1Cl)NN=Cc1cccc(C(F)(F)F)c1

>  <score_type>  (31) 
oracle

>  <origin>  (31) 
autodockgpu

>  <m_score__min__energy>  (31) 
-7.3600000000000003

>  <m_primary>  (31) 
energy

>  <rmsd>  (31) 
6.746661768590761

>  <m_score__min__rmsd>  (31) 
6.746661768590761

>  <meeko>  (31) 
{"free_energy": -5.43, "intermolecular_energy": -8.11, "internal_energy": -2.44, "cluster_size": 3, "cluster_id": 8, "rank_in_cluster": 3}

>  <energy>  (31) 
-6.66

>  <cluster_rmsd>  (31) 
0.0

>  <cluster>  (31) 
4

$$$$

     RDKit          3D

 42 43  0  0  1  0  0  0  0  0999 V2000
  139.9490   70.9010  221.0590 O   0  0  0  0  0  0  0  0  0  0  0  0
  139.5610   72.0520  221.4200 C   0  0  0  0  0  0  0  0  0  0  0  0
  139.0940   72.9510  220.3110 C   0  0  0  0  0  0  0  0  0  0  0  0
  140.3050   73.8140  219.9340 C   0  0  0  0  0  0  0  0  0  0  0  0
  140.8480   74.5260  221.1560 C   0  0  0  0  0  0  0  0  0  0  0  0
  139.8070   75.0660  221.9470 O   0  0  0  0  0  0  0  0  0  0  0  0
  139.8900   76.4220  222.3170 C   0  0  0  0  0  0  0  0  0  0  0  0
  141.1010   77.0990  222.3100 C   0  0  0  0  0  0  0  0  0  0  0  0
  141.2210   78.4240  222.6660 C   0  0  0  0  0  0  0  0  0  0  0  0
  140.0690   79.1040  223.0480 C   0  0  0  0  0  0  0  0  0  0  0  0
  140.2630   80.7860  223.4920 Cl  0  0  0  0  0  0  0  0  0  0  0  0
  138.8440   78.4620  223.0670 C   0  0  0  0  0  0  0  0  0  0  0  0
  138.7500   77.1220  222.7030 C   0  0  0  0  0  0  0  0  0  0  0  0
  137.1870   76.3310  222.7370 Cl  0  0  0  0  0  0  0  0  0  0  0  0
  139.5570   72.4820  222.7580 N   0  0  0  0  0  0  0  0  0  0  0  0
  139.9790   71.6920  223.8390 N   0  0  0  0  0  0  0  0  0  0  0  0
  139.0940   71.0370  224.5440 C   0  0  0  0  0  0  0  0  0  0  0  0
  139.4520   69.7860  225.2360 C   0  0  0  0  0  0  0  0  0  0  0  0
  139.3080   68.5540  224.6290 C   0  0  0  0  0  0  0  0  0  0  0  0
  139.6480   67.3800  225.2890 C   0  0  0  0  0  0  0  0  0  0  0  0
  140.1420   67.4410  226.5830 C   0  0  0  0  0  0  0  0  0  0  0  0
  140.2930   68.6810  227.2080 C   0  0  0  0  0  0  0  0  0  0  0  0
  140.8290   68.7240  228.6050 C   0  0  0  0  0  0  0  0  0  0  0  0
  141.4860   67.5610  228.9020 F   0  0  0  0  0  0  0  0  0  0  0  0
  141.6040   69.8380  228.7610 F   0  0  0  0  0  0  0  0  0  0  0  0
  139.6900   68.8870  229.4040 F   0  0  0  0  0  0  0  0  0  0  0  0
  139.9450   69.8420  226.5250 C   0  0  0  0  0  0  0  0  0  0  0  0
  138.7650   72.3545  219.4473 H   0  0  0  0  0  0  0  0  0  0  0  0
  138.2387   73.5682  220.6234 H   0  0  0  0  0  0  0  0  0  0  0  0
  141.0905   73.1708  219.5105 H   0  0  0  0  0  0  0  0  0  0  0  0
  139.9911   74.5649  219.1940 H   0  0  0  0  0  0  0  0  0  0  0  0
  141.4220   73.8092  221.7616 H   0  0  0  0  0  0  0  0  0  0  0  0
  141.4884   75.3536  220.8169 H   0  0  0  0  0  0  0  0  0  0  0  0
  142.0062   76.5528  222.0064 H   0  0  0  0  0  0  0  0  0  0  0  0
  142.1979   78.9292  222.6488 H   0  0  0  0  0  0  0  0  0  0  0  0
  137.9413   79.0123  223.3708 H   0  0  0  0  0  0  0  0  0  0  0  0
  139.2260   73.4550  223.0290 H   0  0  0  0  0  0  0  0  0  0  0  0
  138.0677   71.4251  224.6218 H   0  0  0  0  0  0  0  0  0  0  0  0
  138.9163   68.5013  223.6025 H   0  0  0  0  0  0  0  0  0  0  0  0
  139.5261   66.4082  224.7882 H   0  0  0  0  0  0  0  0  0  0  0  0
  140.4137   66.5173  227.1149 H   0  0  0  0  0  0  0  0  0  0  0  0
  140.0641   70.8179  227.0183 H   0  0  0  0  0  0  0  0  0  0  0  0
  1  2  2  0
  2  3  1  0
  3  4  1  0
  4  5  1  0
  5  6  1  0
  6  7  1  0
  7  8  2  0
  8  9  1  0
  9 10  2  0
 10 11  1  0
 10 12  1  0
 12 13  2  0
 13 14  1  0
  2 15  1  0
 15 16  1  0
 16 17  2  0
 17 18  1  0
 18 19  2  0
 19 20  1  0
 20 21  2  0
 21 22  1  0
 22 23  1  0
 23 24  1  0
 23 25  1  0
 23 26  1  0
 22 27  2  0
 13  7  1  0
 27 18  1  0
  3 28  1  0
  3 29  1  0
  4 30  1  0
  4 31  1  0
  5 32  1  0
  5 33  1  0
  8 34  1  0
  9 35  1  0
 12 36  1  0
 15 37  1  0
 17 38  1  0
 19 39  1  0
 20 40  1  0
 21 41  1  0
 27 42  1  0
M  END
>  <smiles>  (32) 
O=C(CCCOc1ccc(Cl)cc1Cl)NN=Cc1cccc(C(F)(F)F)c1

>  <score_type>  (32) 
oracle

>  <origin>  (32) 
autodockgpu

>  <m_score__min__energy>  (32) 
-7.3600000000000003

>  <m_primary>  (32) 
energy

>  <rmsd>  (32) 
7.206495575396424

>  <m_score__min__rmsd>  (32) 
7.206495575396424

>  <meeko>  (32) 
{"free_energy": -6.01, "intermolecular_energy": -8.7, "internal_energy": -1.62, "cluster_size": 7, "cluster_id": 2, "rank_in_cluster": 7}

>  <energy>  (32) 
-6.5

>  <cluster_rmsd>  (32) 
1.74

>  <cluster>  (32) 
4

$$$$

     RDKit          3D

 42 43  0  0  1  0  0  0  0  0999 V2000
  140.3360   74.0220  220.1670 O   0  0  0  0  0  0  0  0  0  0  0  0
  139.4640   74.1480  221.0770 C   0  0  0  0  0  0  0  0  0  0  0  0
  138.2770   74.9960  220.7190 C   0  0  0  0  0  0  0  0  0  0  0  0
  137.5280   75.2450  222.0340 C   0  0  0  0  0  0  0  0  0  0  0  0
  137.9400   76.5750  222.6330 C   0  0  0  0  0  0  0  0  0  0  0  0
  138.7060   77.3390  221.7210 O   0  0  0  0  0  0  0  0  0  0  0  0
  139.7160   78.1730  222.2380 C   0  0  0  0  0  0  0  0  0  0  0  0
  139.4500   79.0900  223.2450 C   0  0  0  0  0  0  0  0  0  0  0  0
  140.4110   79.9210  223.7740 C   0  0  0  0  0  0  0  0  0  0  0  0
  141.7050   79.8290  223.2690 C   0  0  0  0  0  0  0  0  0  0  0  0
  142.8970   80.9020  223.9680 Cl  0  0  0  0  0  0  0  0  0  0  0  0
  142.0070   78.9270  222.2650 C   0  0  0  0  0  0  0  0  0  0  0  0
  141.0170   78.0980  221.7470 C   0  0  0  0  0  0  0  0  0  0  0  0
  141.4250   76.9640  220.4750 Cl  0  0  0  0  0  0  0  0  0  0  0  0
  139.5770   73.5480  222.3430 N   0  0  0  0  0  0  0  0  0  0  0  0
  140.6590   72.7450  222.7400 N   0  0  0  0  0  0  0  0  0  0  0  0
  140.4780   71.4640  222.9220 C   0  0  0  0  0  0  0  0  0  0  0  0
  140.1660   70.9260  224.2590 C   0  0  0  0  0  0  0  0  0  0  0  0
  139.3830   69.8000  224.4230 C   0  0  0  0  0  0  0  0  0  0  0  0
  139.0950   69.3000  225.6860 C   0  0  0  0  0  0  0  0  0  0  0  0
  139.5990   69.9400  226.8070 C   0  0  0  0  0  0  0  0  0  0  0  0
  140.3920   71.0800  226.6550 C   0  0  0  0  0  0  0  0  0  0  0  0
  140.9260   71.7560  227.8790 C   0  0  0  0  0  0  0  0  0  0  0  0
  141.8200   72.7330  227.5350 F   0  0  0  0  0  0  0  0  0  0  0  0
  139.8860   72.2170  228.6350 F   0  0  0  0  0  0  0  0  0  0  0  0
  141.5450   70.7250  228.5960 F   0  0  0  0  0  0  0  0  0  0  0  0
  140.6660   71.5610  225.3780 C   0  0  0  0  0  0  0  0  0  0  0  0
  138.6060   75.9492  220.2794 H   0  0  0  0  0  0  0  0  0  0  0  0
  137.6353   74.5003  219.9757 H   0  0  0  0  0  0  0  0  0  0  0  0
  136.4456   75.2554  221.8383 H   0  0  0  0  0  0  0  0  0  0  0  0
  137.7761   74.4419  222.7436 H   0  0  0  0  0  0  0  0  0  0  0  0
  137.0362   77.1410  222.9027 H   0  0  0  0  0  0  0  0  0  0  0  0
  138.5575   76.3771  223.5216 H   0  0  0  0  0  0  0  0  0  0  0  0
  138.4247   79.1556  223.6381 H   0  0  0  0  0  0  0  0  0  0  0  0
  140.1640   80.6366  224.5721 H   0  0  0  0  0  0  0  0  0  0  0  0
  143.0335   78.8648  221.8747 H   0  0  0  0  0  0  0  0  0  0  0  0
  138.8280   73.6730  223.0870 H   0  0  0  0  0  0  0  0  0  0  0  0
  140.5594   70.7775  222.0663 H   0  0  0  0  0  0  0  0  0  0  0  0
  138.9798   69.2895  223.5360 H   0  0  0  0  0  0  0  0  0  0  0  0
  138.4705   68.4012  225.7960 H   0  0  0  0  0  0  0  0  0  0  0  0
  139.3757   69.5522  227.8119 H   0  0  0  0  0  0  0  0  0  0  0  0
  141.2895   72.4594  225.2589 H   0  0  0  0  0  0  0  0  0  0  0  0
  1  2  2  0
  2  3  1  0
  3  4  1  0
  4  5  1  0
  5  6  1  0
  6  7  1  0
  7  8  2  0
  8  9  1  0
  9 10  2  0
 10 11  1  0
 10 12  1  0
 12 13  2  0
 13 14  1  0
  2 15  1  0
 15 16  1  0
 16 17  2  0
 17 18  1  0
 18 19  2  0
 19 20  1  0
 20 21  2  0
 21 22  1  0
 22 23  1  0
 23 24  1  0
 23 25  1  0
 23 26  1  0
 22 27  2  0
 13  7  1  0
 27 18  1  0
  3 28  1  0
  3 29  1  0
  4 30  1  0
  4 31  1  0
  5 32  1  0
  5 33  1  0
  8 34  1  0
  9 35  1  0
 12 36  1  0
 15 37  1  0
 17 38  1  0
 19 39  1  0
 20 40  1  0
 21 41  1  0
 27 42  1  0
M  END
>  <smiles>  (33) 
O=C(CCCOc1ccc(Cl)cc1Cl)NN=Cc1cccc(C(F)(F)F)c1

>  <score_type>  (33) 
oracle

>  <origin>  (33) 
autodockgpu

>  <m_score__min__energy>  (33) 
-7.3600000000000003

>  <m_primary>  (33) 
energy

>  <rmsd>  (33) 
5.64631972956882

>  <m_score__min__rmsd>  (33) 
5.64631972956882

>  <meeko>  (33) 
{"free_energy": -7.08, "intermolecular_energy": -9.76, "internal_energy": -1.04, "cluster_size": 16, "cluster_id": 1, "rank_in_cluster": 3}

>  <energy>  (33) 
-6.38

>  <cluster_rmsd>  (33) 
1.77

>  <cluster>  (33) 
4

$$$$

     RDKit          3D

 42 43  0  0  1  0  0  0  0  0999 V2000
  142.5480   71.9250  221.4560 O   0  0  0  0  0  0  0  0  0  0  0  0
  141.7790   72.8510  221.0600 C   0  0  0  0  0  0  0  0  0  0  0  0
  142.1300   73.4550  219.7310 C   0  0  0  0  0  0  0  0  0  0  0  0
  142.7530   74.8210  220.0430 C   0  0  0  0  0  0  0  0  0  0  0  0
  141.6710   75.8430  220.3280 C   0  0  0  0  0  0  0  0  0  0  0  0
  141.2930   75.8300  221.6910 O   0  0  0  0  0  0  0  0  0  0  0  0
  140.6790   76.9820  222.2210 C   0  0  0  0  0  0  0  0  0  0  0  0
  141.4280   78.0800  222.6180 C   0  0  0  0  0  0  0  0  0  0  0  0
  140.8650   79.2230  223.1400 C   0  0  0  0  0  0  0  0  0  0  0  0
  139.4800   79.2660  223.2700 C   0  0  0  0  0  0  0  0  0  0  0  0
  138.8010   80.7350  223.9360 Cl  0  0  0  0  0  0  0  0  0  0  0  0
  138.7010   78.1910  222.8840 C   0  0  0  0  0  0  0  0  0  0  0  0
  139.2960   77.0470  222.3600 C   0  0  0  0  0  0  0  0  0  0  0  0
  138.2870   75.6970  221.8800 Cl  0  0  0  0  0  0  0  0  0  0  0  0
  140.6690   73.3000  221.7950 N   0  0  0  0  0  0  0  0  0  0  0  0
  140.2880   72.7770  223.0420 N   0  0  0  0  0  0  0  0  0  0  0  0
  139.8770   71.5390  223.1250 C   0  0  0  0  0  0  0  0  0  0  0  0
  139.9620   70.7960  224.3950 C   0  0  0  0  0  0  0  0  0  0  0  0
  139.6190   69.4610  224.4780 C   0  0  0  0  0  0  0  0  0  0  0  0
  139.7020   68.7680  225.6800 C   0  0  0  0  0  0  0  0  0  0  0  0
  140.1360   69.4260  226.8200 C   0  0  0  0  0  0  0  0  0  0  0  0
  140.4850   70.7770  226.7490 C   0  0  0  0  0  0  0  0  0  0  0  0
  140.9510   71.4680  227.9920 C   0  0  0  0  0  0  0  0  0  0  0  0
  139.8850   71.9580  228.6960 F   0  0  0  0  0  0  0  0  0  0  0  0
  141.7330   70.6160  228.7200 F   0  0  0  0  0  0  0  0  0  0  0  0
  141.7730   72.4990  227.5230 F   0  0  0  0  0  0  0  0  0  0  0  0
  140.3930   71.4470  225.5330 C   0  0  0  0  0  0  0  0  0  0  0  0
  142.8518   72.8175  219.1994 H   0  0  0  0  0  0  0  0  0  0  0  0
  141.2452   73.5522  219.0847 H   0  0  0  0  0  0  0  0  0  0  0  0
  143.4056   74.7290  220.9237 H   0  0  0  0  0  0  0  0  0  0  0  0
  143.3373   75.1536  219.1724 H   0  0  0  0  0  0  0  0  0  0  0  0
  142.0479   76.8439  220.0709 H   0  0  0  0  0  0  0  0  0  0  0  0
  140.7884   75.5899  219.7222 H   0  0  0  0  0  0  0  0  0  0  0  0
  142.5219   78.0355  222.5109 H   0  0  0  0  0  0  0  0  0  0  0  0
  141.4902   80.0753  223.4447 H   0  0  0  0  0  0  0  0  0  0  0  0
  137.6074   78.2400  222.9914 H   0  0  0  0  0  0  0  0  0  0  0  0
  140.0430   74.0800  221.4370 H   0  0  0  0  0  0  0  0  0  0  0  0
  139.4618   71.0447  222.2344 H   0  0  0  0  0  0  0  0  0  0  0  0
  139.2734   68.9358  223.5754 H   0  0  0  0  0  0  0  0  0  0  0  0
  139.4251   67.7044  225.7262 H   0  0  0  0  0  0  0  0  0  0  0  0
  140.2054   68.8870  227.7764 H   0  0  0  0  0  0  0  0  0  0  0  0
  140.6677   72.5107  225.4779 H   0  0  0  0  0  0  0  0  0  0  0  0
  1  2  2  0
  2  3  1  0
  3  4  1  0
  4  5  1  0
  5  6  1  0
  6  7  1  0
  7  8  2  0
  8  9  1  0
  9 10  2  0
 10 11  1  0
 10 12  1  0
 12 13  2  0
 13 14  1  0
  2 15  1  0
 15 16  1  0
 16 17  2  0
 17 18  1  0
 18 19  2  0
 19 20  1  0
 20 21  2  0
 21 22  1  0
 22 23  1  0
 23 24  1  0
 23 25  1  0
 23 26  1  0
 22 27  2  0
 13  7  1  0
 27 18  1  0
  3 28  1  0
  3 29  1  0
  4 30  1  0
  4 31  1  0
  5 32  1  0
  5 33  1  0
  8 34  1  0
  9 35  1  0
 12 36  1  0
 15 37  1  0
 17 38  1  0
 19 39  1  0
 20 40  1  0
 21 41  1  0
 27 42  1  0
M  END
>  <smiles>  (34) 
O=C(CCCOc1ccc(Cl)cc1Cl)NN=Cc1cccc(C(F)(F)F)c1

>  <score_type>  (34) 
oracle

>  <origin>  (34) 
autodockgpu

>  <m_score__min__energy>  (34) 
-7.3600000000000003

>  <m_primary>  (34) 
energy

>  <rmsd>  (34) 
6.504859309725506

>  <m_score__min__rmsd>  (34) 
6.504859309725506

>  <meeko>  (34) 
{"free_energy": -6.38, "intermolecular_energy": -9.07, "internal_energy": -1.64, "cluster_size": 3, "cluster_id": 4, "rank_in_cluster": 3}

>  <energy>  (34) 
-6.53

>  <cluster_rmsd>  (34) 
0.0

>  <cluster>  (34) 
5

$$$$

     RDKit          3D

 42 43  0  0  1  0  0  0  0  0999 V2000
  138.9210   74.1550  221.8910 O   0  0  0  0  0  0  0  0  0  0  0  0
  140.0880   73.9630  221.4370 C   0  0  0  0  0  0  0  0  0  0  0  0
  140.2770   72.6870  220.6670 C   0  0  0  0  0  0  0  0  0  0  0  0
  140.9360   71.7030  221.6420 C   0  0  0  0  0  0  0  0  0  0  0  0
  140.6720   72.1230  223.0740 C   0  0  0  0  0  0  0  0  0  0  0  0
  139.6610   71.3330  223.6690 O   0  0  0  0  0  0  0  0  0  0  0  0
  139.9730   70.6350  224.8520 C   0  0  0  0  0  0  0  0  0  0  0  0
  140.7140   71.2270  225.8650 C   0  0  0  0  0  0  0  0  0  0  0  0
  141.0380   70.5780  227.0340 C   0  0  0  0  0  0  0  0  0  0  0  0
  140.5980   69.2670  227.1960 C   0  0  0  0  0  0  0  0  0  0  0  0
  141.0300   68.4760  228.6960 Cl  0  0  0  0  0  0  0  0  0  0  0  0
  139.8580   68.6440  226.2090 C   0  0  0  0  0  0  0  0  0  0  0  0
  139.5430   69.3240  225.0350 C   0  0  0  0  0  0  0  0  0  0  0  0
  138.6050   68.5130  223.7980 Cl  0  0  0  0  0  0  0  0  0  0  0  0
  141.1490   74.8640  221.6270 N   0  0  0  0  0  0  0  0  0  0  0  0
  141.0390   76.0720  222.3360 N   0  0  0  0  0  0  0  0  0  0  0  0
  141.0770   77.2060  221.6870 C   0  0  0  0  0  0  0  0  0  0  0  0
  141.0380   78.4920  222.4060 C   0  0  0  0  0  0  0  0  0  0  0  0
  142.1940   79.1480  222.7820 C   0  0  0  0  0  0  0  0  0  0  0  0
  142.1480   80.3600  223.4600 C   0  0  0  0  0  0  0  0  0  0  0  0
  140.9210   80.9250  223.7670 C   0  0  0  0  0  0  0  0  0  0  0  0
  139.7440   80.2710  223.3930 C   0  0  0  0  0  0  0  0  0  0  0  0
  138.4300   80.9000  223.7350 C   0  0  0  0  0  0  0  0  0  0  0  0
  138.3830   81.2210  225.0640 F   0  0  0  0  0  0  0  0  0  0  0  0
  138.2080   81.9690  222.9140 F   0  0  0  0  0  0  0  0  0  0  0  0
  137.4850   79.9170  223.4130 F   0  0  0  0  0  0  0  0  0  0  0  0
  139.8180   79.0590  222.7150 C   0  0  0  0  0  0  0  0  0  0  0  0
  139.3060   72.2972  220.3276 H   0  0  0  0  0  0  0  0  0  0  0  0
  140.8951   72.8433  219.7706 H   0  0  0  0  0  0  0  0  0  0  0  0
  140.5224   70.6972  221.4770 H   0  0  0  0  0  0  0  0  0  0  0  0
  142.0217   71.6983  221.4655 H   0  0  0  0  0  0  0  0  0  0  0  0
  141.5995   72.0133  223.6552 H   0  0  0  0  0  0  0  0  0  0  0  0
  140.3335   73.1696  223.0694 H   0  0  0  0  0  0  0  0  0  0  0  0
  141.0581   72.2626  225.7270 H   0  0  0  0  0  0  0  0  0  0  0  0
  141.6265   71.0794  227.8165 H   0  0  0  0  0  0  0  0  0  0  0  0
  139.5167   67.6080  226.3510 H   0  0  0  0  0  0  0  0  0  0  0  0
  142.1180   74.6740  221.2340 H   0  0  0  0  0  0  0  0  0  0  0  0
  141.1389   77.2004  220.5888 H   0  0  0  0  0  0  0  0  0  0  0  0
  143.1701   78.7022  222.5399 H   0  0  0  0  0  0  0  0  0  0  0  0
  143.0796   80.8674  223.7510 H   0  0  0  0  0  0  0  0  0  0  0  0
  140.8734   81.8844  224.3029 H   0  0  0  0  0  0  0  0  0  0  0  0
  138.8911   78.5449  222.4208 H   0  0  0  0  0  0  0  0  0  0  0  0
  1  2  2  0
  2  3  1  0
  3  4  1  0
  4  5  1  0
  5  6  1  0
  6  7  1  0
  7  8  2  0
  8  9  1  0
  9 10  2  0
 10 11  1  0
 10 12  1  0
 12 13  2  0
 13 14  1  0
  2 15  1  0
 15 16  1  0
 16 17  2  0
 17 18  1  0
 18 19  2  0
 19 20  1  0
 20 21  2  0
 21 22  1  0
 22 23  1  0
 23 24  1  0
 23 25  1  0
 23 26  1  0
 22 27  2  0
 13  7  1  0
 27 18  1  0
  3 28  1  0
  3 29  1  0
  4 30  1  0
  4 31  1  0
  5 32  1  0
  5 33  1  0
  8 34  1  0
  9 35  1  0
 12 36  1  0
 15 37  1  0
 17 38  1  0
 19 39  1  0
 20 40  1  0
 21 41  1  0
 27 42  1  0
M  END
>  <smiles>  (35) 
O=C(CCCOc1ccc(Cl)cc1Cl)NN=Cc1cccc(C(F)(F)F)c1

>  <score_type>  (35) 
oracle

>  <origin>  (35) 
autodockgpu

>  <m_score__min__energy>  (35) 
-7.3600000000000003

>  <m_primary>  (35) 
energy

>  <rmsd>  (35) 
12.763512991062086

>  <m_score__min__rmsd>  (35) 
12.763512991062086

>  <meeko>  (35) 
{"free_energy": -6.58, "intermolecular_energy": -9.27, "internal_energy": -0.81, "cluster_size": 7, "cluster_id": 3, "rank_in_cluster": 6}

>  <energy>  (35) 
-6.52

>  <cluster_rmsd>  (35) 
1.84

>  <cluster>  (35) 
5

$$$$

     RDKit          3D

 42 43  0  0  1  0  0  0  0  0999 V2000
  141.1530   74.7080  221.3490 O   0  0  0  0  0  0  0  0  0  0  0  0
  139.9380   74.5520  221.6730 C   0  0  0  0  0  0  0  0  0  0  0  0
  138.9840   75.5580  221.0970 C   0  0  0  0  0  0  0  0  0  0  0  0
  138.7090   76.5650  222.2200 C   0  0  0  0  0  0  0  0  0  0  0  0
  137.3680   76.2800  222.8680 C   0  0  0  0  0  0  0  0  0  0  0  0
  136.9340   74.9610  222.6020 O   0  0  0  0  0  0  0  0  0  0  0  0
  136.0760   74.3440  223.5340 C   0  0  0  0  0  0  0  0  0  0  0  0
  135.4520   75.0760  224.5340 C   0  0  0  0  0  0  0  0  0  0  0  0
  134.6080   74.5080  225.4620 C   0  0  0  0  0  0  0  0  0  0  0  0
  134.3780   73.1380  225.3830 C   0  0  0  0  0  0  0  0  0  0  0  0
  133.3000   72.4540  226.5800 Cl  0  0  0  0  0  0  0  0  0  0  0  0
  134.9830   72.3760  224.4000 C   0  0  0  0  0  0  0  0  0  0  0  0
  135.8330   72.9750  223.4740 C   0  0  0  0  0  0  0  0  0  0  0  0
  136.5880   71.9890  222.2390 Cl  0  0  0  0  0  0  0  0  0  0  0  0
  139.4900   73.5180  222.5120 N   0  0  0  0  0  0  0  0  0  0  0  0
  140.3290   72.5460  223.0820 N   0  0  0  0  0  0  0  0  0  0  0  0
  139.8060   71.4740  223.6160 C   0  0  0  0  0  0  0  0  0  0  0  0
  140.1770   71.0470  224.9770 C   0  0  0  0  0  0  0  0  0  0  0  0
  140.7500   71.9210  225.8810 C   0  0  0  0  0  0  0  0  0  0  0  0
  141.0970   71.5090  227.1610 C   0  0  0  0  0  0  0  0  0  0  0  0
  140.8660   70.1970  227.5440 C   0  0  0  0  0  0  0  0  0  0  0  0
  140.2870   69.3040  226.6400 C   0  0  0  0  0  0  0  0  0  0  0  0
  140.0460   67.8920  227.0740 C   0  0  0  0  0  0  0  0  0  0  0  0
  140.1070   67.7930  228.4380 F   0  0  0  0  0  0  0  0  0  0  0  0
  138.8630   67.4500  226.5530 F   0  0  0  0  0  0  0  0  0  0  0  0
  141.0750   67.1650  226.4620 F   0  0  0  0  0  0  0  0  0  0  0  0
  139.9490   69.7410  225.3630 C   0  0  0  0  0  0  0  0  0  0  0  0
  139.4372   76.0638  220.2317 H   0  0  0  0  0  0  0  0  0  0  0  0
  138.0572   75.0813  220.7453 H   0  0  0  0  0  0  0  0  0  0  0  0
  139.5019   76.4877  222.9785 H   0  0  0  0  0  0  0  0  0  0  0  0
  138.6914   77.5790  221.7940 H   0  0  0  0  0  0  0  0  0  0  0  0
  137.4612   76.4131  223.9559 H   0  0  0  0  0  0  0  0  0  0  0  0
  136.6275   76.9779  222.4502 H   0  0  0  0  0  0  0  0  0  0  0  0
  135.6399   76.1585  224.5879 H   0  0  0  0  0  0  0  0  0  0  0  0
  134.1301   75.1188  226.2421 H   0  0  0  0  0  0  0  0  0  0  0  0
  134.7922   71.2939  224.3496 H   0  0  0  0  0  0  0  0  0  0  0  0
  138.4630   73.4130  222.7670 H   0  0  0  0  0  0  0  0  0  0  0  0
  139.0785   70.8819  223.0415 H   0  0  0  0  0  0  0  0  0  0  0  0
  140.9348   72.9630  225.5810 H   0  0  0  0  0  0  0  0  0  0  0  0
  141.5524   72.2195  227.8666 H   0  0  0  0  0  0  0  0  0  0  0  0
  141.1376   69.8608  228.5555 H   0  0  0  0  0  0  0  0  0  0  0  0
  139.4940   69.0365  224.6513 H   0  0  0  0  0  0  0  0  0  0  0  0
  1  2  2  0
  2  3  1  0
  3  4  1  0
  4  5  1  0
  5  6  1  0
  6  7  1  0
  7  8  2  0
  8  9  1  0
  9 10  2  0
 10 11  1  0
 10 12  1  0
 12 13  2  0
 13 14  1  0
  2 15  1  0
 15 16  1  0
 16 17  2  0
 17 18  1  0
 18 19  2  0
 19 20  1  0
 20 21  2  0
 21 22  1  0
 22 23  1  0
 23 24  1  0
 23 25  1  0
 23 26  1  0
 22 27  2  0
 13  7  1  0
 27 18  1  0
  3 28  1  0
  3 29  1  0
  4 30  1  0
  4 31  1  0
  5 32  1  0
  5 33  1  0
  8 34  1  0
  9 35  1  0
 12 36  1  0
 15 37  1  0
 17 38  1  0
 19 39  1  0
 20 40  1  0
 21 41  1  0
 27 42  1  0
M  END
>  <smiles>  (36) 
O=C(CCCOc1ccc(Cl)cc1Cl)NN=Cc1cccc(C(F)(F)F)c1

>  <score_type>  (36) 
oracle

>  <origin>  (36) 
autodockgpu

>  <m_score__min__energy>  (36) 
-7.3600000000000003

>  <m_primary>  (36) 
energy

>  <rmsd>  (36) 
9.743495015832119

>  <m_score__min__rmsd>  (36) 
9.743495015832119

>  <meeko>  (36) 
{"free_energy": -6.02, "intermolecular_energy": -8.7, "internal_energy": -2.01, "cluster_size": 6, "cluster_id": 6, "rank_in_cluster": 2}

>  <energy>  (36) 
-6.52

>  <cluster_rmsd>  (36) 
1.69

>  <cluster>  (36) 
5

$$$$

     RDKit          3D

 42 43  0  0  1  0  0  0  0  0999 V2000
  140.3890   74.1550  222.3390 O   0  0  0  0  0  0  0  0  0  0  0  0
  140.1170   73.3400  221.4080 C   0  0  0  0  0  0  0  0  0  0  0  0
  140.5020   73.7870  220.0270 C   0  0  0  0  0  0  0  0  0  0  0  0
  139.3370   74.6480  219.5250 C   0  0  0  0  0  0  0  0  0  0  0  0
  139.5000   76.0810  219.9900 C   0  0  0  0  0  0  0  0  0  0  0  0
  140.8610   76.4640  220.0240 O   0  0  0  0  0  0  0  0  0  0  0  0
  141.2380   77.5020  220.8970 C   0  0  0  0  0  0  0  0  0  0  0  0
  141.0780   77.3840  222.2700 C   0  0  0  0  0  0  0  0  0  0  0  0
  141.4340   78.3760  223.1550 C   0  0  0  0  0  0  0  0  0  0  0  0
  141.9780   79.5480  222.6360 C   0  0  0  0  0  0  0  0  0  0  0  0
  142.4180   80.7860  223.7930 Cl  0  0  0  0  0  0  0  0  0  0  0  0
  142.1520   79.7020  221.2740 C   0  0  0  0  0  0  0  0  0  0  0  0
  141.7840   78.6830  220.4010 C   0  0  0  0  0  0  0  0  0  0  0  0
  142.0130   78.9020  218.6780 Cl  0  0  0  0  0  0  0  0  0  0  0  0
  139.4970   72.0980  221.6260 N   0  0  0  0  0  0  0  0  0  0  0  0
  139.1120   71.6210  222.8900 N   0  0  0  0  0  0  0  0  0  0  0  0
  139.7920   70.6550  223.4490 C   0  0  0  0  0  0  0  0  0  0  0  0
  140.2130   70.7440  224.8600 C   0  0  0  0  0  0  0  0  0  0  0  0
  140.7710   71.8950  225.3790 C   0  0  0  0  0  0  0  0  0  0  0  0
  141.1640   71.9690  226.7100 C   0  0  0  0  0  0  0  0  0  0  0  0
  140.9960   70.8680  227.5350 C   0  0  0  0  0  0  0  0  0  0  0  0
  140.4340   69.6970  227.0210 C   0  0  0  0  0  0  0  0  0  0  0  0
  140.2610   68.5210  227.9300 C   0  0  0  0  0  0  0  0  0  0  0  0
  141.4590   67.8900  228.1290 F   0  0  0  0  0  0  0  0  0  0  0  0
  139.6640   68.9250  229.0900 F   0  0  0  0  0  0  0  0  0  0  0  0
  139.3550   67.6950  227.2530 F   0  0  0  0  0  0  0  0  0  0  0  0
  140.0480   69.6490  225.6850 C   0  0  0  0  0  0  0  0  0  0  0  0
  141.4286   74.3788  220.0606 H   0  0  0  0  0  0  0  0  0  0  0  0
  140.6876   72.9307  219.3620 H   0  0  0  0  0  0  0  0  0  0  0  0
  139.3162   74.6240  218.4255 H   0  0  0  0  0  0  0  0  0  0  0  0
  138.3964   74.2464  219.9299 H   0  0  0  0  0  0  0  0  0  0  0  0
  138.9593   76.7445  219.2991 H   0  0  0  0  0  0  0  0  0  0  0  0
  139.0937   76.1611  221.0091 H   0  0  0  0  0  0  0  0  0  0  0  0
  140.6466   76.4545  222.6698 H   0  0  0  0  0  0  0  0  0  0  0  0
  141.2932   78.2471  224.2383 H   0  0  0  0  0  0  0  0  0  0  0  0
  142.5830   80.6335  220.8784 H   0  0  0  0  0  0  0  0  0  0  0  0
  139.2800   71.4350  220.8230 H   0  0  0  0  0  0  0  0  0  0  0  0
  140.0539   69.7639  222.8596 H   0  0  0  0  0  0  0  0  0  0  0  0
  140.9072   72.7702  224.7267 H   0  0  0  0  0  0  0  0  0  0  0  0
  141.6055   72.8954  227.1062 H   0  0  0  0  0  0  0  0  0  0  0  0
  141.3039   70.9161  228.5899 H   0  0  0  0  0  0  0  0  0  0  0  0
  139.6056   68.7266  225.2807 H   0  0  0  0  0  0  0  0  0  0  0  0
  1  2  2  0
  2  3  1  0
  3  4  1  0
  4  5  1  0
  5  6  1  0
  6  7  1  0
  7  8  2  0
  8  9  1  0
  9 10  2  0
 10 11  1  0
 10 12  1  0
 12 13  2  0
 13 14  1  0
  2 15  1  0
 15 16  1  0
 16 17  2  0
 17 18  1  0
 18 19  2  0
 19 20  1  0
 20 21  2  0
 21 22  1  0
 22 23  1  0
 23 24  1  0
 23 25  1  0
 23 26  1  0
 22 27  2  0
 13  7  1  0
 27 18  1  0
  3 28  1  0
  3 29  1  0
  4 30  1  0
  4 31  1  0
  5 32  1  0
  5 33  1  0
  8 34  1  0
  9 35  1  0
 12 36  1  0
 15 37  1  0
 17 38  1  0
 19 39  1  0
 20 40  1  0
 21 41  1  0
 27 42  1  0
M  END
>  <smiles>  (37) 
O=C(CCCOc1ccc(Cl)cc1Cl)NN=Cc1cccc(C(F)(F)F)c1

>  <score_type>  (37) 
oracle

>  <origin>  (37) 
autodockgpu

>  <m_score__min__energy>  (37) 
-7.3600000000000003

>  <m_primary>  (37) 
energy

>  <rmsd>  (37) 
5.801664457929086

>  <m_score__min__rmsd>  (37) 
5.801664457929086

>  <meeko>  (37) 
{"free_energy": -6.64, "intermolecular_energy": -9.33, "internal_energy": -1.0, "cluster_size": 7, "cluster_id": 2, "rank_in_cluster": 4}

>  <energy>  (37) 
-6.35

>  <cluster_rmsd>  (37) 
1.6

>  <cluster>  (37) 
5

$$$$

     RDKit          3D

 42 43  0  0  1  0  0  0  0  0999 V2000
  140.2090   74.1010  222.0080 O   0  0  0  0  0  0  0  0  0  0  0  0
  141.1170   74.7600  221.4190 C   0  0  0  0  0  0  0  0  0  0  0  0
  141.8660   74.0150  220.3520 C   0  0  0  0  0  0  0  0  0  0  0  0
  143.3350   74.4290  220.5040 C   0  0  0  0  0  0  0  0  0  0  0  0
  143.6070   75.7030  219.7290 C   0  0  0  0  0  0  0  0  0  0  0  0
  142.4320   76.1990  219.1180 O   0  0  0  0  0  0  0  0  0  0  0  0
  142.3310   77.5880  218.9050 C   0  0  0  0  0  0  0  0  0  0  0  0
  141.8960   78.4410  219.9090 C   0  0  0  0  0  0  0  0  0  0  0  0
  141.7840   79.8030  219.7390 C   0  0  0  0  0  0  0  0  0  0  0  0
  142.1240   80.3360  218.4990 C   0  0  0  0  0  0  0  0  0  0  0  0
  141.9680   82.0700  218.3230 Cl  0  0  0  0  0  0  0  0  0  0  0  0
  142.5610   79.5160  217.4750 C   0  0  0  0  0  0  0  0  0  0  0  0
  142.6660   78.1430  217.6730 C   0  0  0  0  0  0  0  0  0  0  0  0
  143.2210   77.1250  216.3600 Cl  0  0  0  0  0  0  0  0  0  0  0  0
  141.4220   76.0970  221.7260 N   0  0  0  0  0  0  0  0  0  0  0  0
  140.7610   76.8500  222.7100 N   0  0  0  0  0  0  0  0  0  0  0  0
  141.4460   77.6640  223.4690 C   0  0  0  0  0  0  0  0  0  0  0  0
  141.4470   79.1160  223.2150 C   0  0  0  0  0  0  0  0  0  0  0  0
  142.5560   79.8970  223.4720 C   0  0  0  0  0  0  0  0  0  0  0  0
  142.5470   81.2650  223.2300 C   0  0  0  0  0  0  0  0  0  0  0  0
  141.4050   81.8620  222.7200 C   0  0  0  0  0  0  0  0  0  0  0  0
  140.2760   81.0830  222.4560 C   0  0  0  0  0  0  0  0  0  0  0  0
  139.0540   81.7490  221.9060 C   0  0  0  0  0  0  0  0  0  0  0  0
  138.6220   81.1020  220.7800 F   0  0  0  0  0  0  0  0  0  0  0  0
  138.1010   81.8290  222.8820 F   0  0  0  0  0  0  0  0  0  0  0  0
  139.4740   83.0530  221.6180 F   0  0  0  0  0  0  0  0  0  0  0  0
  140.3110   79.7150  222.7080 C   0  0  0  0  0  0  0  0  0  0  0  0
  141.7574   72.9297  220.4949 H   0  0  0  0  0  0  0  0  0  0  0  0
  141.4814   74.2505  219.3487 H   0  0  0  0  0  0  0  0  0  0  0  0
  143.5559   74.5978  221.5683 H   0  0  0  0  0  0  0  0  0  0  0  0
  143.9750   73.6266  220.1082 H   0  0  0  0  0  0  0  0  0  0  0  0
  143.9996   76.4643  220.4192 H   0  0  0  0  0  0  0  0  0  0  0  0
  144.3378   75.4767  218.9386 H   0  0  0  0  0  0  0  0  0  0  0  0
  141.6285   78.0099  220.8850 H   0  0  0  0  0  0  0  0  0  0  0  0
  141.4365   80.4498  220.5581 H   0  0  0  0  0  0  0  0  0  0  0  0
  142.8266   79.9509  216.5002 H   0  0  0  0  0  0  0  0  0  0  0  0
  142.1900   76.6240  221.2140 H   0  0  0  0  0  0  0  0  0  0  0  0
  142.0300   77.2600  224.3091 H   0  0  0  0  0  0  0  0  0  0  0  0
  143.4646   79.4269  223.8763 H   0  0  0  0  0  0  0  0  0  0  0  0
  143.4406   81.8705  223.4418 H   0  0  0  0  0  0  0  0  0  0  0  0
  141.3877   82.9443  222.5240 H   0  0  0  0  0  0  0  0  0  0  0  0
  139.4213   79.1023  222.5004 H   0  0  0  0  0  0  0  0  0  0  0  0
  1  2  2  0
  2  3  1  0
  3  4  1  0
  4  5  1  0
  5  6  1  0
  6  7  1  0
  7  8  2  0
  8  9  1  0
  9 10  2  0
 10 11  1  0
 10 12  1  0
 12 13  2  0
 13 14  1  0
  2 15  1  0
 15 16  1  0
 16 17  2  0
 17 18  1  0
 18 19  2  0
 19 20  1  0
 20 21  2  0
 21 22  1  0
 22 23  1  0
 23 24  1  0
 23 25  1  0
 23 26  1  0
 22 27  2  0
 13  7  1  0
 27 18  1  0
  3 28  1  0
  3 29  1  0
  4 30  1  0
  4 31  1  0
  5 32  1  0
  5 33  1  0
  8 34  1  0
  9 35  1  0
 12 36  1  0
 15 37  1  0
 17 38  1  0
 19 39  1  0
 20 40  1  0
 21 41  1  0
 27 42  1  0
M  END
>  <smiles>  (38) 
O=C(CCCOc1ccc(Cl)cc1Cl)NN=Cc1cccc(C(F)(F)F)c1

>  <score_type>  (38) 
oracle

>  <origin>  (38) 
autodockgpu

>  <m_score__min__energy>  (38) 
-7.3600000000000003

>  <m_primary>  (38) 
energy

>  <rmsd>  (38) 
6.836796471557717

>  <m_score__min__rmsd>  (38) 
6.836796471557717

>  <meeko>  (38) 
{"free_energy": -5.56, "intermolecular_energy": -8.24, "internal_energy": -2.43, "cluster_size": 3, "cluster_id": 8, "rank_in_cluster": 2}

>  <energy>  (38) 
-5.51

>  <cluster_rmsd>  (38) 
1.95

>  <cluster>  (38) 
5

$$$$

     RDKit          3D

 42 43  0  0  1  0  0  0  0  0999 V2000
  139.9790   73.0560  222.7240 O   0  0  0  0  0  0  0  0  0  0  0  0
  139.6950   73.5770  221.6040 C   0  0  0  0  0  0  0  0  0  0  0  0
  139.2550   72.6150  220.5390 C   0  0  0  0  0  0  0  0  0  0  0  0
  138.9380   73.4700  219.3060 C   0  0  0  0  0  0  0  0  0  0  0  0
  140.1780   73.6470  218.4530 C   0  0  0  0  0  0  0  0  0  0  0  0
  140.9680   74.7300  218.9050 O   0  0  0  0  0  0  0  0  0  0  0  0
  142.2310   74.4450  219.4570 C   0  0  0  0  0  0  0  0  0  0  0  0
  142.5440   73.1770  219.9280 C   0  0  0  0  0  0  0  0  0  0  0  0
  143.7670   72.8610  220.4740 C   0  0  0  0  0  0  0  0  0  0  0  0
  144.7260   73.8670  220.5530 C   0  0  0  0  0  0  0  0  0  0  0  0
  146.2680   73.4250  221.2530 Cl  0  0  0  0  0  0  0  0  0  0  0  0
  144.4510   75.1410  220.0940 C   0  0  0  0  0  0  0  0  0  0  0  0
  143.2050   75.4350  219.5460 C   0  0  0  0  0  0  0  0  0  0  0  0
  142.8810   77.0590  218.9730 Cl  0  0  0  0  0  0  0  0  0  0  0  0
  139.7800   74.9570  221.3510 N   0  0  0  0  0  0  0  0  0  0  0  0
  140.1840   75.9090  222.3020 N   0  0  0  0  0  0  0  0  0  0  0  0
  141.0710   76.8100  221.9750 C   0  0  0  0  0  0  0  0  0  0  0  0
  140.9950   78.1800  222.5160 C   0  0  0  0  0  0  0  0  0  0  0  0
  142.1280   78.9400  222.7290 C   0  0  0  0  0  0  0  0  0  0  0  0
  142.0460   80.2300  223.2390 C   0  0  0  0  0  0  0  0  0  0  0  0
  140.8050   80.7680  223.5410 C   0  0  0  0  0  0  0  0  0  0  0  0
  139.6510   80.0090  223.3300 C   0  0  0  0  0  0  0  0  0  0  0  0
  138.3210   80.6100  223.6640 C   0  0  0  0  0  0  0  0  0  0  0  0
  138.2540   80.9160  224.9950 F   0  0  0  0  0  0  0  0  0  0  0  0
  138.0910   81.6840  222.8510 F   0  0  0  0  0  0  0  0  0  0  0  0
  137.3990   79.6140  223.3190 F   0  0  0  0  0  0  0  0  0  0  0  0
  139.7610   78.7200  222.8190 C   0  0  0  0  0  0  0  0  0  0  0  0
  140.0600   71.9004  220.3125 H   0  0  0  0  0  0  0  0  0  0  0  0
  138.3812   72.0290  220.8599 H   0  0  0  0  0  0  0  0  0  0  0  0
  138.1570   72.9733  218.7116 H   0  0  0  0  0  0  0  0  0  0  0  0
  138.5889   74.4590  219.6377 H   0  0  0  0  0  0  0  0  0  0  0  0
  140.7766   72.7252  218.4969 H   0  0  0  0  0  0  0  0  0  0  0  0
  139.8600   73.8587  217.4215 H   0  0  0  0  0  0  0  0  0  0  0  0
  141.7794   72.3889  219.8617 H   0  0  0  0  0  0  0  0  0  0  0  0
  143.9803   71.8447  220.8369 H   0  0  0  0  0  0  0  0  0  0  0  0
  145.2190   75.9256  220.1617 H   0  0  0  0  0  0  0  0  0  0  0  0
  139.5360   75.3640  220.4000 H   0  0  0  0  0  0  0  0  0  0  0  0
  141.8863   76.5434  221.2864 H   0  0  0  0  0  0  0  0  0  0  0  0
  143.1146   78.5161  222.4904 H   0  0  0  0  0  0  0  0  0  0  0  0
  142.9599   80.8202  223.4019 H   0  0  0  0  0  0  0  0  0  0  0  0
  140.7288   81.7882  223.9451 H   0  0  0  0  0  0  0  0  0  0  0  0
  138.8522   78.1226  222.6540 H   0  0  0  0  0  0  0  0  0  0  0  0
  1  2  2  0
  2  3  1  0
  3  4  1  0
  4  5  1  0
  5  6  1  0
  6  7  1  0
  7  8  2  0
  8  9  1  0
  9 10  2  0
 10 11  1  0
 10 12  1  0
 12 13  2  0
 13 14  1  0
  2 15  1  0
 15 16  1  0
 16 17  2  0
 17 18  1  0
 18 19  2  0
 19 20  1  0
 20 21  2  0
 21 22  1  0
 22 23  1  0
 23 24  1  0
 23 25  1  0
 23 26  1  0
 22 27  2  0
 13  7  1  0
 27 18  1  0
  3 28  1  0
  3 29  1  0
  4 30  1  0
  4 31  1  0
  5 32  1  0
  5 33  1  0
  8 34  1  0
  9 35  1  0
 12 36  1  0
 15 37  1  0
 17 38  1  0
 19 39  1  0
 20 40  1  0
 21 41  1  0
 27 42  1  0
M  END
>  <smiles>  (39) 
O=C(CCCOc1ccc(Cl)cc1Cl)NN=Cc1cccc(C(F)(F)F)c1

>  <score_type>  (39) 
oracle

>  <origin>  (39) 
autodockgpu

>  <m_score__min__energy>  (39) 
-7.3600000000000003

>  <m_primary>  (39) 
energy

>  <rmsd>  (39) 
9.419004535720605

>  <m_score__min__rmsd>  (39) 
9.419004535720605

>  <meeko>  (39) 
{"free_energy": -5.55, "intermolecular_energy": -8.24, "internal_energy": -2.24, "cluster_size": 1, "cluster_id": 9, "rank_in_cluster": 1}

>  <energy>  (39) 
-6.21

>  <cluster_rmsd>  (39) 
0.0

>  <cluster>  (39) 
6

$$$$

     RDKit          3D

 42 43  0  0  1  0  0  0  0  0999 V2000
  139.7520   73.2600  219.9860 O   0  0  0  0  0  0  0  0  0  0  0  0
  139.2330   73.8660  220.9700 C   0  0  0  0  0  0  0  0  0  0  0  0
  138.1330   74.8290  220.6270 C   0  0  0  0  0  0  0  0  0  0  0  0
  137.3380   75.0370  221.9220 C   0  0  0  0  0  0  0  0  0  0  0  0
  137.8410   76.2620  222.6590 C   0  0  0  0  0  0  0  0  0  0  0  0
  139.2540   76.3030  222.6930 O   0  0  0  0  0  0  0  0  0  0  0  0
  139.8840   77.5590  222.6070 C   0  0  0  0  0  0  0  0  0  0  0  0
  139.4700   78.6290  223.3870 C   0  0  0  0  0  0  0  0  0  0  0  0
  140.0600   79.8720  223.3300 C   0  0  0  0  0  0  0  0  0  0  0  0
  141.1200   80.0500  222.4460 C   0  0  0  0  0  0  0  0  0  0  0  0
  141.8450   81.6430  222.4030 Cl  0  0  0  0  0  0  0  0  0  0  0  0
  141.5610   79.0070  221.6530 C   0  0  0  0  0  0  0  0  0  0  0  0
  140.9470   77.7610  221.7300 C   0  0  0  0  0  0  0  0  0  0  0  0
  141.5230   76.4550  220.7140 Cl  0  0  0  0  0  0  0  0  0  0  0  0
  139.6420   73.6700  222.3000 N   0  0  0  0  0  0  0  0  0  0  0  0
  140.6620   72.7860  222.6880 N   0  0  0  0  0  0  0  0  0  0  0  0
  140.3990   71.5110  222.8100 C   0  0  0  0  0  0  0  0  0  0  0  0
  140.1380   70.9140  224.1320 C   0  0  0  0  0  0  0  0  0  0  0  0
  139.4070   69.7510  224.2710 C   0  0  0  0  0  0  0  0  0  0  0  0
  139.1660   69.1960  225.5210 C   0  0  0  0  0  0  0  0  0  0  0  0
  139.6670   69.8180  226.6540 C   0  0  0  0  0  0  0  0  0  0  0  0
  140.4080   70.9950  226.5270 C   0  0  0  0  0  0  0  0  0  0  0  0
  140.9400   71.6500  227.7640 C   0  0  0  0  0  0  0  0  0  0  0  0
  139.9310   72.2690  228.4490 F   0  0  0  0  0  0  0  0  0  0  0  0
  141.6160   70.7280  228.5120 F   0  0  0  0  0  0  0  0  0  0  0  0
  141.8760   72.5750  227.2850 F   0  0  0  0  0  0  0  0  0  0  0  0
  140.6350   71.5300  225.2630 C   0  0  0  0  0  0  0  0  0  0  0  0
  138.5547   75.7836  220.2793 H   0  0  0  0  0  0  0  0  0  0  0  0
  137.4948   74.4422  219.8188 H   0  0  0  0  0  0  0  0  0  0  0  0
  136.2744   75.1728  221.6766 H   0  0  0  0  0  0  0  0  0  0  0  0
  137.4673   74.1547  222.5660 H   0  0  0  0  0  0  0  0  0  0  0  0
  137.4695   77.1633  222.1494 H   0  0  0  0  0  0  0  0  0  0  0  0
  137.4722   76.2172  223.6944 H   0  0  0  0  0  0  0  0  0  0  0  0
  138.6318   78.4775  224.0831 H   0  0  0  0  0  0  0  0  0  0  0  0
  139.7046   80.6982  223.9633 H   0  0  0  0  0  0  0  0  0  0  0  0
  142.4001   79.1628  220.9589 H   0  0  0  0  0  0  0  0  0  0  0  0
  139.1870   74.1940  223.1050 H   0  0  0  0  0  0  0  0  0  0  0  0
  140.3722   70.8748  221.9130 H   0  0  0  0  0  0  0  0  0  0  0  0
  139.0078   69.2544  223.3743 H   0  0  0  0  0  0  0  0  0  0  0  0
  138.5813   68.2687  225.6115 H   0  0  0  0  0  0  0  0  0  0  0  0
  139.4818   69.3865  227.6487 H   0  0  0  0  0  0  0  0  0  0  0  0
  141.2188   72.4570  225.1634 H   0  0  0  0  0  0  0  0  0  0  0  0
  1  2  2  0
  2  3  1  0
  3  4  1  0
  4  5  1  0
  5  6  1  0
  6  7  1  0
  7  8  2  0
  8  9  1  0
  9 10  2  0
 10 11  1  0
 10 12  1  0
 12 13  2  0
 13 14  1  0
  2 15  1  0
 15 16  1  0
 16 17  2  0
 17 18  1  0
 18 19  2  0
 19 20  1  0
 20 21  2  0
 21 22  1  0
 22 23  1  0
 23 24  1  0
 23 25  1  0
 23 26  1  0
 22 27  2  0
 13  7  1  0
 27 18  1  0
  3 28  1  0
  3 29  1  0
  4 30  1  0
  4 31  1  0
  5 32  1  0
  5 33  1  0
  8 34  1  0
  9 35  1  0
 12 36  1  0
 15 37  1  0
 17 38  1  0
 19 39  1  0
 20 40  1  0
 21 41  1  0
 27 42  1  0
M  END
>  <smiles>  (40) 
O=C(CCCOc1ccc(Cl)cc1Cl)NN=Cc1cccc(C(F)(F)F)c1

>  <score_type>  (40) 
oracle

>  <origin>  (40) 
autodockgpu

>  <m_score__min__energy>  (40) 
-7.3600000000000003

>  <m_primary>  (40) 
energy

>  <rmsd>  (40) 
5.883368905615162

>  <m_score__min__rmsd>  (40) 
5.883368905615162

>  <meeko>  (40) 
{"free_energy": -6.5, "intermolecular_energy": -9.19, "internal_energy": -1.72, "cluster_size": 16, "cluster_id": 1, "rank_in_cluster": 12}

>  <energy>  (40) 
-6.02

>  <cluster_rmsd>  (40) 
1.71

>  <cluster>  (40) 
6

$$$$

     RDKit          3D

 42 43  0  0  1  0  0  0  0  0999 V2000
  140.8390   75.1890  221.4990 O   0  0  0  0  0  0  0  0  0  0  0  0
  139.7980   74.5050  221.2680 C   0  0  0  0  0  0  0  0  0  0  0  0
  138.8980   75.0440  220.1940 C   0  0  0  0  0  0  0  0  0  0  0  0
  137.8970   75.9610  220.9070 C   0  0  0  0  0  0  0  0  0  0  0  0
  138.3540   76.2400  222.3250 C   0  0  0  0  0  0  0  0  0  0  0  0
  138.1550   77.5950  222.6770 O   0  0  0  0  0  0  0  0  0  0  0  0
  139.2890   78.3800  222.9630 C   0  0  0  0  0  0  0  0  0  0  0  0
  140.5730   77.8970  222.7520 C   0  0  0  0  0  0  0  0  0  0  0  0
  141.7040   78.6330  223.0190 C   0  0  0  0  0  0  0  0  0  0  0  0
  141.5410   79.9200  223.5240 C   0  0  0  0  0  0  0  0  0  0  0  0
  143.0030   80.8250  223.8500 Cl  0  0  0  0  0  0  0  0  0  0  0  0
  140.2780   80.4350  223.7480 C   0  0  0  0  0  0  0  0  0  0  0  0
  139.1490   79.6690  223.4690 C   0  0  0  0  0  0  0  0  0  0  0  0
  137.5590   80.3440  223.7620 Cl  0  0  0  0  0  0  0  0  0  0  0  0
  139.4840   73.3210  221.9570 N   0  0  0  0  0  0  0  0  0  0  0  0
  140.2820   72.7640  222.9710 N   0  0  0  0  0  0  0  0  0  0  0  0
  140.3330   71.4660  223.1110 C   0  0  0  0  0  0  0  0  0  0  0  0
  140.1570   70.8400  224.4340 C   0  0  0  0  0  0  0  0  0  0  0  0
  139.5140   69.6270  224.5830 C   0  0  0  0  0  0  0  0  0  0  0  0
  139.3520   69.0440  225.8330 C   0  0  0  0  0  0  0  0  0  0  0  0
  139.8440   69.6890  226.9570 C   0  0  0  0  0  0  0  0  0  0  0  0
  140.4960   70.9170  226.8200 C   0  0  0  0  0  0  0  0  0  0  0  0
  141.0190   71.5960  228.0470 C   0  0  0  0  0  0  0  0  0  0  0  0
  141.8480   72.6300  227.7060 F   0  0  0  0  0  0  0  0  0  0  0  0
  139.9720   71.9810  228.8360 F   0  0  0  0  0  0  0  0  0  0  0  0
  141.7120   70.5870  228.7280 F   0  0  0  0  0  0  0  0  0  0  0  0
  140.6440   71.4790  225.5560 C   0  0  0  0  0  0  0  0  0  0  0  0
  139.4814   75.6144  219.4562 H   0  0  0  0  0  0  0  0  0  0  0  0
  138.3886   74.2351  219.6498 H   0  0  0  0  0  0  0  0  0  0  0  0
  137.8202   76.9107  220.3574 H   0  0  0  0  0  0  0  0  0  0  0  0
  136.9168   75.4629  220.9393 H   0  0  0  0  0  0  0  0  0  0  0  0
  137.7823   75.6035  223.0164 H   0  0  0  0  0  0  0  0  0  0  0  0
  139.4301   76.0213  222.3899 H   0  0  0  0  0  0  0  0  0  0  0  0
  140.6916   76.8788  222.3529 H   0  0  0  0  0  0  0  0  0  0  0  0
  142.7064   78.2174  222.8390 H   0  0  0  0  0  0  0  0  0  0  0  0
  140.1643   81.4534  224.1480 H   0  0  0  0  0  0  0  0  0  0  0  0
  138.6010   72.7690  221.7420 H   0  0  0  0  0  0  0  0  0  0  0  0
  140.5096   70.8317  222.2298 H   0  0  0  0  0  0  0  0  0  0  0  0
  139.1222   69.1121  223.6934 H   0  0  0  0  0  0  0  0  0  0  0  0
  138.8368   68.0770  225.9305 H   0  0  0  0  0  0  0  0  0  0  0  0
  139.7216   69.2362  227.9520 H   0  0  0  0  0  0  0  0  0  0  0  0
  141.1565   72.4465  225.4494 H   0  0  0  0  0  0  0  0  0  0  0  0
  1  2  2  0
  2  3  1  0
  3  4  1  0
  4  5  1  0
  5  6  1  0
  6  7  1  0
  7  8  2  0
  8  9  1  0
  9 10  2  0
 10 11  1  0
 10 12  1  0
 12 13  2  0
 13 14  1  0
  2 15  1  0
 15 16  1  0
 16 17  2  0
 17 18  1  0
 18 19  2  0
 19 20  1  0
 20 21  2  0
 21 22  1  0
 22 23  1  0
 23 24  1  0
 23 25  1  0
 23 26  1  0
 22 27  2  0
 13  7  1  0
 27 18  1  0
  3 28  1  0
  3 29  1  0
  4 30  1  0
  4 31  1  0
  5 32  1  0
  5 33  1  0
  8 34  1  0
  9 35  1  0
 12 36  1  0
 15 37  1  0
 17 38  1  0
 19 39  1  0
 20 40  1  0
 21 41  1  0
 27 42  1  0
M  END
>  <smiles>  (41) 
O=C(CCCOc1ccc(Cl)cc1Cl)NN=Cc1cccc(C(F)(F)F)c1

>  <score_type>  (41) 
oracle

>  <origin>  (41) 
autodockgpu

>  <m_score__min__energy>  (41) 
-7.3600000000000003

>  <m_primary>  (41) 
energy

>  <rmsd>  (41) 
6.146849625393708

>  <m_score__min__rmsd>  (41) 
6.146849625393708

>  <meeko>  (41) 
{"free_energy": -6.97, "intermolecular_energy": -9.66, "internal_energy": -0.92, "cluster_size": 16, "cluster_id": 1, "rank_in_cluster": 6}

>  <energy>  (41) 
-5.91

>  <cluster_rmsd>  (41) 
1.03

>  <cluster>  (41) 
6

$$$$

     RDKit          3D

 42 43  0  0  1  0  0  0  0  0999 V2000
  141.0580   71.1640  223.1910 O   0  0  0  0  0  0  0  0  0  0  0  0
  140.3410   72.1010  222.7280 C   0  0  0  0  0  0  0  0  0  0  0  0
  141.0430   73.0550  221.8060 C   0  0  0  0  0  0  0  0  0  0  0  0
  140.0830   73.2870  220.6330 C   0  0  0  0  0  0  0  0  0  0  0  0
  139.3110   74.5770  220.8290 C   0  0  0  0  0  0  0  0  0  0  0  0
  139.3170   74.9830  222.1840 O   0  0  0  0  0  0  0  0  0  0  0  0
  139.6350   76.3240  222.4730 C   0  0  0  0  0  0  0  0  0  0  0  0
  140.9510   76.7610  222.5140 C   0  0  0  0  0  0  0  0  0  0  0  0
  141.3010   78.0630  222.7930 C   0  0  0  0  0  0  0  0  0  0  0  0
  140.2780   78.9730  223.0450 C   0  0  0  0  0  0  0  0  0  0  0  0
  140.7630   80.6180  223.3950 Cl  0  0  0  0  0  0  0  0  0  0  0  0
  138.9550   78.5750  223.0130 C   0  0  0  0  0  0  0  0  0  0  0  0
  138.6280   77.2520  222.7280 C   0  0  0  0  0  0  0  0  0  0  0  0
  136.9440   76.7710  222.6940 Cl  0  0  0  0  0  0  0  0  0  0  0  0
  138.9800   72.2580  223.0420 N   0  0  0  0  0  0  0  0  0  0  0  0
  138.2650   71.4020  223.8960 N   0  0  0  0  0  0  0  0  0  0  0  0
  138.7040   70.1890  224.1080 C   0  0  0  0  0  0  0  0  0  0  0  0
  139.4490   69.8560  225.3360 C   0  0  0  0  0  0  0  0  0  0  0  0
  139.7220   68.5490  225.6860 C   0  0  0  0  0  0  0  0  0  0  0  0
  140.4250   68.2440  226.8460 C   0  0  0  0  0  0  0  0  0  0  0  0
  140.8610   69.2700  227.6700 C   0  0  0  0  0  0  0  0  0  0  0  0
  140.5900   70.5960  227.3270 C   0  0  0  0  0  0  0  0  0  0  0  0
  141.0710   71.6880  228.2310 C   0  0  0  0  0  0  0  0  0  0  0  0
  140.0190   72.2560  228.8980 F   0  0  0  0  0  0  0  0  0  0  0  0
  142.0370   71.1970  229.0640 F   0  0  0  0  0  0  0  0  0  0  0  0
  141.6840   72.6040  227.3670 F   0  0  0  0  0  0  0  0  0  0  0  0
  139.8850   70.8740  226.1600 C   0  0  0  0  0  0  0  0  0  0  0  0
  141.2520   74.0032  222.3230 H   0  0  0  0  0  0  0  0  0  0  0  0
  142.0080   72.6517  221.4651 H   0  0  0  0  0  0  0  0  0  0  0  0
  140.6604   73.3486  219.6988 H   0  0  0  0  0  0  0  0  0  0  0  0
  139.3716   72.4495  220.5832 H   0  0  0  0  0  0  0  0  0  0  0  0
  139.7722   75.3663  220.2172 H   0  0  0  0  0  0  0  0  0  0  0  0
  138.2681   74.4052  220.5244 H   0  0  0  0  0  0  0  0  0  0  0  0
  141.7518   76.0337  222.3144 H   0  0  0  0  0  0  0  0  0  0  0  0
  142.3557   78.3744  222.8161 H   0  0  0  0  0  0  0  0  0  0  0  0
  138.1577   79.3058  223.2134 H   0  0  0  0  0  0  0  0  0  0  0  0
  138.4040   73.0550  222.6390 H   0  0  0  0  0  0  0  0  0  0  0  0
  138.5148   69.4055  223.3594 H   0  0  0  0  0  0  0  0  0  0  0  0
  139.3766   67.7328  225.0344 H   0  0  0  0  0  0  0  0  0  0  0  0
  140.6337   67.1963  227.1080 H   0  0  0  0  0  0  0  0  0  0  0  0
  141.4181   69.0404  228.5903 H   0  0  0  0  0  0  0  0  0  0  0  0
  139.6722   71.9190  225.8905 H   0  0  0  0  0  0  0  0  0  0  0  0
  1  2  2  0
  2  3  1  0
  3  4  1  0
  4  5  1  0
  5  6  1  0
  6  7  1  0
  7  8  2  0
  8  9  1  0
  9 10  2  0
 10 11  1  0
 10 12  1  0
 12 13  2  0
 13 14  1  0
  2 15  1  0
 15 16  1  0
 16 17  2  0
 17 18  1  0
 18 19  2  0
 19 20  1  0
 20 21  2  0
 21 22  1  0
 22 23  1  0
 23 24  1  0
 23 25  1  0
 23 26  1  0
 22 27  2  0
 13  7  1  0
 27 18  1  0
  3 28  1  0
  3 29  1  0
  4 30  1  0
  4 31  1  0
  5 32  1  0
  5 33  1  0
  8 34  1  0
  9 35  1  0
 12 36  1  0
 15 37  1  0
 17 38  1  0
 19 39  1  0
 20 40  1  0
 21 41  1  0
 27 42  1  0
M  END
>  <smiles>  (42) 
O=C(CCCOc1ccc(Cl)cc1Cl)NN=Cc1cccc(C(F)(F)F)c1

>  <score_type>  (42) 
oracle

>  <origin>  (42) 
autodockgpu

>  <m_score__min__energy>  (42) 
-7.3600000000000003

>  <m_primary>  (42) 
energy

>  <rmsd>  (42) 
7.041903702761007

>  <m_score__min__rmsd>  (42) 
7.041903702761007

>  <meeko>  (42) 
{"free_energy": -6.48, "intermolecular_energy": -9.17, "internal_energy": -1.4, "cluster_size": 16, "cluster_id": 1, "rank_in_cluster": 13}

>  <energy>  (42) 
-5.91

>  <cluster_rmsd>  (42) 
0.62

>  <cluster>  (42) 
6

$$$$

     RDKit          3D

 42 43  0  0  1  0  0  0  0  0999 V2000
  140.6840   73.3700  222.6760 O   0  0  0  0  0  0  0  0  0  0  0  0
  139.5580   72.9380  222.2880 C   0  0  0  0  0  0  0  0  0  0  0  0
  138.6630   73.9590  221.6470 C   0  0  0  0  0  0  0  0  0  0  0  0
  139.3570   74.3640  220.3410 C   0  0  0  0  0  0  0  0  0  0  0  0
  139.9430   73.1460  219.6550 C   0  0  0  0  0  0  0  0  0  0  0  0
  141.0960   73.4770  218.9070 O   0  0  0  0  0  0  0  0  0  0  0  0
  142.3390   73.4810  219.5690 C   0  0  0  0  0  0  0  0  0  0  0  0
  142.9080   72.3080  220.0420 C   0  0  0  0  0  0  0  0  0  0  0  0
  144.1200   72.2730  220.6950 C   0  0  0  0  0  0  0  0  0  0  0  0
  144.7950   73.4750  220.8830 C   0  0  0  0  0  0  0  0  0  0  0  0
  146.3320   73.3890  221.7150 Cl  0  0  0  0  0  0  0  0  0  0  0  0
  144.2590   74.6650  220.4250 C   0  0  0  0  0  0  0  0  0  0  0  0
  143.0310   74.6730  219.7680 C   0  0  0  0  0  0  0  0  0  0  0  0
  142.3720   76.1930  219.1990 Cl  0  0  0  0  0  0  0  0  0  0  0  0
  139.1500   71.6010  222.4360 N   0  0  0  0  0  0  0  0  0  0  0  0
  139.9390   70.5990  223.0250 N   0  0  0  0  0  0  0  0  0  0  0  0
  139.3720   69.6890  223.7730 C   0  0  0  0  0  0  0  0  0  0  0  0
  139.7150   69.5600  225.2000 C   0  0  0  0  0  0  0  0  0  0  0  0
  139.7080   68.3360  225.8410 C   0  0  0  0  0  0  0  0  0  0  0  0
  140.0340   68.2240  227.1860 C   0  0  0  0  0  0  0  0  0  0  0  0
  140.3720   69.3600  227.9050 C   0  0  0  0  0  0  0  0  0  0  0  0
  140.3820   70.6040  227.2690 C   0  0  0  0  0  0  0  0  0  0  0  0
  140.7510   71.8170  228.0650 C   0  0  0  0  0  0  0  0  0  0  0  0
  139.6640   72.2910  228.7470 F   0  0  0  0  0  0  0  0  0  0  0  0
  141.8120   71.5260  228.8740 F   0  0  0  0  0  0  0  0  0  0  0  0
  141.1920   72.7350  227.1040 F   0  0  0  0  0  0  0  0  0  0  0  0
  140.0530   70.6880  225.9200 C   0  0  0  0  0  0  0  0  0  0  0  0
  137.6750   73.5236  221.4364 H   0  0  0  0  0  0  0  0  0  0  0  0
  138.5023   74.8257  222.3050 H   0  0  0  0  0  0  0  0  0  0  0  0
  138.6234   74.8387  219.6727 H   0  0  0  0  0  0  0  0  0  0  0  0
  140.1692   75.0690  220.5720 H   0  0  0  0  0  0  0  0  0  0  0  0
  140.2137   72.4016  220.4183 H   0  0  0  0  0  0  0  0  0  0  0  0
  139.1879   72.7423  218.9645 H   0  0  0  0  0  0  0  0  0  0  0  0
  142.3667   71.3628  219.8886 H   0  0  0  0  0  0  0  0  0  0  0  0
  144.5416   71.3236  221.0569 H   0  0  0  0  0  0  0  0  0  0  0  0
  144.8042   75.6077  220.5801 H   0  0  0  0  0  0  0  0  0  0  0  0
  138.1980   71.2690  222.1000 H   0  0  0  0  0  0  0  0  0  0  0  0
  138.6282   69.0100  223.3306 H   0  0  0  0  0  0  0  0  0  0  0  0
  139.4388   67.4323  225.2745 H   0  0  0  0  0  0  0  0  0  0  0  0
  140.0241   67.2402  227.6779 H   0  0  0  0  0  0  0  0  0  0  0  0
  140.6311   69.2824  228.9712 H   0  0  0  0  0  0  0  0  0  0  0  0
  140.0623   71.6677  225.4198 H   0  0  0  0  0  0  0  0  0  0  0  0
  1  2  2  0
  2  3  1  0
  3  4  1  0
  4  5  1  0
  5  6  1  0
  6  7  1  0
  7  8  2  0
  8  9  1  0
  9 10  2  0
 10 11  1  0
 10 12  1  0
 12 13  2  0
 13 14  1  0
  2 15  1  0
 15 16  1  0
 16 17  2  0
 17 18  1  0
 18 19  2  0
 19 20  1  0
 20 21  2  0
 21 22  1  0
 22 23  1  0
 23 24  1  0
 23 25  1  0
 23 26  1  0
 22 27  2  0
 13  7  1  0
 27 18  1  0
  3 28  1  0
  3 29  1  0
  4 30  1  0
  4 31  1  0
  5 32  1  0
  5 33  1  0
  8 34  1  0
  9 35  1  0
 12 36  1  0
 15 37  1  0
 17 38  1  0
 19 39  1  0
 20 40  1  0
 21 41  1  0
 27 42  1  0
M  END
>  <smiles>  (43) 
O=C(CCCOc1ccc(Cl)cc1Cl)NN=Cc1cccc(C(F)(F)F)c1

>  <score_type>  (43) 
oracle

>  <origin>  (43) 
autodockgpu

>  <m_score__min__energy>  (43) 
-7.3600000000000003

>  <m_primary>  (43) 
energy

>  <rmsd>  (43) 
10.102440728468805

>  <m_score__min__rmsd>  (43) 
10.102440728468805

>  <meeko>  (43) 
{"free_energy": -6.52, "intermolecular_energy": -9.21, "internal_energy": -1.31, "cluster_size": 5, "cluster_id": 5, "rank_in_cluster": 2}

>  <energy>  (43) 
-5.59

>  <cluster_rmsd>  (43) 
0.83

>  <cluster>  (43) 
6

$$$$

     RDKit          3D

 42 43  0  0  1  0  0  0  0  0999 V2000
  140.3650   74.9240  219.9230 O   0  0  0  0  0  0  0  0  0  0  0  0
  140.0270   74.1110  220.8330 C   0  0  0  0  0  0  0  0  0  0  0  0
  140.0500   72.6610  220.4420 C   0  0  0  0  0  0  0  0  0  0  0  0
  139.2490   71.9230  221.5220 C   0  0  0  0  0  0  0  0  0  0  0  0
  140.1660   71.4600  222.6370 C   0  0  0  0  0  0  0  0  0  0  0  0
  139.7200   71.9190  223.8980 O   0  0  0  0  0  0  0  0  0  0  0  0
  139.9400   71.0960  225.0190 C   0  0  0  0  0  0  0  0  0  0  0  0
  140.8490   71.4490  226.0060 C   0  0  0  0  0  0  0  0  0  0  0  0
  141.0910   70.6710  227.1160 C   0  0  0  0  0  0  0  0  0  0  0  0
  140.3860   69.4780  227.2420 C   0  0  0  0  0  0  0  0  0  0  0  0
  140.7210   68.5170  228.6660 Cl  0  0  0  0  0  0  0  0  0  0  0  0
  139.4720   69.0930  226.2790 C   0  0  0  0  0  0  0  0  0  0  0  0
  139.2460   69.8990  225.1660 C   0  0  0  0  0  0  0  0  0  0  0  0
  138.0840   69.3880  223.9590 Cl  0  0  0  0  0  0  0  0  0  0  0  0
  139.6510   74.5110  222.1270 N   0  0  0  0  0  0  0  0  0  0  0  0
  139.6090   75.8480  222.5560 N   0  0  0  0  0  0  0  0  0  0  0  0
  140.6420   76.6230  222.3540 C   0  0  0  0  0  0  0  0  0  0  0  0
  140.6510   78.0160  222.8370 C   0  0  0  0  0  0  0  0  0  0  0  0
  141.8300   78.6980  223.0630 C   0  0  0  0  0  0  0  0  0  0  0  0
  141.8280   80.0110  223.5190 C   0  0  0  0  0  0  0  0  0  0  0  0
  140.6220   80.6520  223.7530 C   0  0  0  0  0  0  0  0  0  0  0  0
  139.4220   79.9720  223.5290 C   0  0  0  0  0  0  0  0  0  0  0  0
  138.1310   80.6840  223.7880 C   0  0  0  0  0  0  0  0  0  0  0  0
  137.0720   79.9150  223.3880 F   0  0  0  0  0  0  0  0  0  0  0  0
  138.0680   81.0480  225.1030 F   0  0  0  0  0  0  0  0  0  0  0  0
  138.2280   81.8570  223.0290 F   0  0  0  0  0  0  0  0  0  0  0  0
  139.4510   78.6580  223.0720 C   0  0  0  0  0  0  0  0  0  0  0  0
  139.5816   72.5228  219.4564 H   0  0  0  0  0  0  0  0  0  0  0  0
  141.0786   72.2781  220.3690 H   0  0  0  0  0  0  0  0  0  0  0  0
  138.4887   72.6014  221.9363 H   0  0  0  0  0  0  0  0  0  0  0  0
  138.7658   71.0444  221.0697 H   0  0  0  0  0  0  0  0  0  0  0  0
  140.1918   70.3603  222.6454 H   0  0  0  0  0  0  0  0  0  0  0  0
  141.1688   71.8734  222.4537 H   0  0  0  0  0  0  0  0  0  0  0  0
  141.4017   72.3938  225.8967 H   0  0  0  0  0  0  0  0  0  0  0  0
  141.8190   70.9829  227.8794 H   0  0  0  0  0  0  0  0  0  0  0  0
  138.9216   68.1473  226.3922 H   0  0  0  0  0  0  0  0  0  0  0  0
  139.3720   73.8040  222.8700 H   0  0  0  0  0  0  0  0  0  0  0  0
  141.5173   76.2302  221.8159 H   0  0  0  0  0  0  0  0  0  0  0  0
  142.7894   78.1925  222.8786 H   0  0  0  0  0  0  0  0  0  0  0  0
  142.7778   80.5379  223.6930 H   0  0  0  0  0  0  0  0  0  0  0  0
  140.6093   81.6912  224.1134 H   0  0  0  0  0  0  0  0  0  0  0  0
  138.5058   78.1236  222.8956 H   0  0  0  0  0  0  0  0  0  0  0  0
  1  2  2  0
  2  3  1  0
  3  4  1  0
  4  5  1  0
  5  6  1  0
  6  7  1  0
  7  8  2  0
  8  9  1  0
  9 10  2  0
 10 11  1  0
 10 12  1  0
 12 13  2  0
 13 14  1  0
  2 15  1  0
 15 16  1  0
 16 17  2  0
 17 18  1  0
 18 19  2  0
 19 20  1  0
 20 21  2  0
 21 22  1  0
 22 23  1  0
 23 24  1  0
 23 25  1  0
 23 26  1  0
 22 27  2  0
 13  7  1  0
 27 18  1  0
  3 28  1  0
  3 29  1  0
  4 30  1  0
  4 31  1  0
  5 32  1  0
  5 33  1  0
  8 34  1  0
  9 35  1  0
 12 36  1  0
 15 37  1  0
 17 38  1  0
 19 39  1  0
 20 40  1  0
 21 41  1  0
 27 42  1  0
M  END
>  <smiles>  (44) 
O=C(CCCOc1ccc(Cl)cc1Cl)NN=Cc1cccc(C(F)(F)F)c1

>  <score_type>  (44) 
oracle

>  <origin>  (44) 
autodockgpu

>  <m_score__min__energy>  (44) 
-7.3600000000000003

>  <m_primary>  (44) 
energy

>  <rmsd>  (44) 
12.800608725319421

>  <m_score__min__rmsd>  (44) 
12.800608725319421

>  <meeko>  (44) 
{"free_energy": -6.77, "intermolecular_energy": -9.45, "internal_energy": -1.27, "cluster_size": 7, "cluster_id": 3, "rank_in_cluster": 3}

>  <energy>  (44) 
-5.55

>  <cluster_rmsd>  (44) 
1.93

>  <cluster>  (44) 
6

$$$$

     RDKit          3D

 42 43  0  0  1  0  0  0  0  0999 V2000
  137.1950   72.4290  220.4360 O   0  0  0  0  0  0  0  0  0  0  0  0
  137.4730   73.3710  221.2370 C   0  0  0  0  0  0  0  0  0  0  0  0
  136.4990   74.5140  221.2490 C   0  0  0  0  0  0  0  0  0  0  0  0
  136.2600   74.8450  222.7270 C   0  0  0  0  0  0  0  0  0  0  0  0
  137.1610   75.9820  223.1660 C   0  0  0  0  0  0  0  0  0  0  0  0
  138.2060   76.2040  222.2390 O   0  0  0  0  0  0  0  0  0  0  0  0
  139.1600   77.1950  222.5380 C   0  0  0  0  0  0  0  0  0  0  0  0
  138.7880   78.4100  223.0940 C   0  0  0  0  0  0  0  0  0  0  0  0
  139.6920   79.4030  223.4000 C   0  0  0  0  0  0  0  0  0  0  0  0
  141.0370   79.1640  223.1350 C   0  0  0  0  0  0  0  0  0  0  0  0
  142.1550   80.4490  223.5380 Cl  0  0  0  0  0  0  0  0  0  0  0  0
  141.4450   77.9650  222.5810 C   0  0  0  0  0  0  0  0  0  0  0  0
  140.5110   76.9780  222.2810 C   0  0  0  0  0  0  0  0  0  0  0  0
  141.0530   75.4670  221.5790 Cl  0  0  0  0  0  0  0  0  0  0  0  0
  138.6070   73.3700  222.0660 N   0  0  0  0  0  0  0  0  0  0  0  0
  139.5550   72.3340  222.1030 N   0  0  0  0  0  0  0  0  0  0  0  0
  140.3910   72.2600  223.1040 C   0  0  0  0  0  0  0  0  0  0  0  0
  140.1260   71.3710  224.2500 C   0  0  0  0  0  0  0  0  0  0  0  0
  139.4140   70.1960  224.1060 C   0  0  0  0  0  0  0  0  0  0  0  0
  139.1690   69.3640  225.1910 C   0  0  0  0  0  0  0  0  0  0  0  0
  139.6460   69.7160  226.4440 C   0  0  0  0  0  0  0  0  0  0  0  0
  140.3670   70.9020  226.6030 C   0  0  0  0  0  0  0  0  0  0  0  0
  140.8720   71.2620  227.9650 C   0  0  0  0  0  0  0  0  0  0  0  0
  141.8020   72.2630  227.8820 F   0  0  0  0  0  0  0  0  0  0  0  0
  139.8170   71.5710  228.7750 F   0  0  0  0  0  0  0  0  0  0  0  0
  141.4400   70.0750  228.4440 F   0  0  0  0  0  0  0  0  0  0  0  0
  140.5990   71.7170  225.5000 C   0  0  0  0  0  0  0  0  0  0  0  0
  136.9228   75.3837  220.7255 H   0  0  0  0  0  0  0  0  0  0  0  0
  135.5616   74.2520  220.7365 H   0  0  0  0  0  0  0  0  0  0  0  0
  135.2096   75.1400  222.8671 H   0  0  0  0  0  0  0  0  0  0  0  0
  136.4867   73.9555  223.3331 H   0  0  0  0  0  0  0  0  0  0  0  0
  136.5609   76.8997  223.2544 H   0  0  0  0  0  0  0  0  0  0  0  0
  137.6098   75.7123  224.1334 H   0  0  0  0  0  0  0  0  0  0  0  0
  137.7223   78.5887  223.3000 H   0  0  0  0  0  0  0  0  0  0  0  0
  139.3611   80.3553  223.8401 H   0  0  0  0  0  0  0  0  0  0  0  0
  142.5117   77.7905  222.3766 H   0  0  0  0  0  0  0  0  0  0  0  0
  138.8130   74.1760  222.7280 H   0  0  0  0  0  0  0  0  0  0  0  0
  141.3063   72.8700  223.0918 H   0  0  0  0  0  0  0  0  0  0  0  0
  139.0338   69.9138  223.1131 H   0  0  0  0  0  0  0  0  0  0  0  0
  138.6003   68.4320  225.0568 H   0  0  0  0  0  0  0  0  0  0  0  0
  139.4576   69.0641  227.3097 H   0  0  0  0  0  0  0  0  0  0  0  0
  141.1674   72.6504  225.6254 H   0  0  0  0  0  0  0  0  0  0  0  0
  1  2  2  0
  2  3  1  0
  3  4  1  0
  4  5  1  0
  5  6  1  0
  6  7  1  0
  7  8  2  0
  8  9  1  0
  9 10  2  0
 10 11  1  0
 10 12  1  0
 12 13  2  0
 13 14  1  0
  2 15  1  0
 15 16  1  0
 16 17  2  0
 17 18  1  0
 18 19  2  0
 19 20  1  0
 20 21  2  0
 21 22  1  0
 22 23  1  0
 23 24  1  0
 23 25  1  0
 23 26  1  0
 22 27  2  0
 13  7  1  0
 27 18  1  0
  3 28  1  0
  3 29  1  0
  4 30  1  0
  4 31  1  0
  5 32  1  0
  5 33  1  0
  8 34  1  0
  9 35  1  0
 12 36  1  0
 15 37  1  0
 17 38  1  0
 19 39  1  0
 20 40  1  0
 21 41  1  0
 27 42  1  0
M  END
>  <smiles>  (45) 
O=C(CCCOc1ccc(Cl)cc1Cl)NN=Cc1cccc(C(F)(F)F)c1

>  <score_type>  (45) 
oracle

>  <origin>  (45) 
autodockgpu

>  <m_score__min__energy>  (45) 
-7.3600000000000003

>  <m_primary>  (45) 
energy

>  <rmsd>  (45) 
6.315573536823901

>  <m_score__min__rmsd>  (45) 
6.315573536823901

>  <meeko>  (45) 
{"free_energy": -6.22, "intermolecular_energy": -8.9, "internal_energy": -1.87, "cluster_size": 16, "cluster_id": 1, "rank_in_cluster": 15}

>  <energy>  (45) 
-6.02

>  <cluster_rmsd>  (45) 
0.0

>  <cluster>  (45) 
7

$$$$

     RDKit          3D

 42 43  0  0  1  0  0  0  0  0999 V2000
  140.4800   74.5190  220.4780 O   0  0  0  0  0  0  0  0  0  0  0  0
  139.4290   74.3850  221.1730 C   0  0  0  0  0  0  0  0  0  0  0  0
  138.2260   75.1300  220.6690 C   0  0  0  0  0  0  0  0  0  0  0  0
  137.5770   75.7620  221.9060 C   0  0  0  0  0  0  0  0  0  0  0  0
  137.5450   77.2720  221.7730 C   0  0  0  0  0  0  0  0  0  0  0  0
  137.8590   77.9080  222.9960 O   0  0  0  0  0  0  0  0  0  0  0  0
  139.1090   78.5460  223.1100 C   0  0  0  0  0  0  0  0  0  0  0  0
  140.2750   77.9330  222.6740 C   0  0  0  0  0  0  0  0  0  0  0  0
  141.5140   78.5250  222.7690 C   0  0  0  0  0  0  0  0  0  0  0  0
  141.5890   79.7970  223.3310 C   0  0  0  0  0  0  0  0  0  0  0  0
  143.1810   80.5160  223.4340 Cl  0  0  0  0  0  0  0  0  0  0  0  0
  140.4480   80.4390  223.7770 C   0  0  0  0  0  0  0  0  0  0  0  0
  139.2070   79.8170  223.6690 C   0  0  0  0  0  0  0  0  0  0  0  0
  137.7770   80.6510  224.2430 Cl  0  0  0  0  0  0  0  0  0  0  0  0
  139.3680   73.6020  222.3370 N   0  0  0  0  0  0  0  0  0  0  0  0
  140.4550   72.8820  222.8600 N   0  0  0  0  0  0  0  0  0  0  0  0
  140.3710   71.5830  222.9790 C   0  0  0  0  0  0  0  0  0  0  0  0
  140.1700   70.9540  224.2970 C   0  0  0  0  0  0  0  0  0  0  0  0
  139.4670   69.7740  224.4390 C   0  0  0  0  0  0  0  0  0  0  0  0
  139.2820   69.1890  225.6850 C   0  0  0  0  0  0  0  0  0  0  0  0
  139.8120   69.7980  226.8120 C   0  0  0  0  0  0  0  0  0  0  0  0
  140.5250   70.9920  226.6820 C   0  0  0  0  0  0  0  0  0  0  0  0
  141.0890   71.6330  227.9120 C   0  0  0  0  0  0  0  0  0  0  0  0
  141.7240   70.7020  228.6890 F   0  0  0  0  0  0  0  0  0  0  0  0
  141.8940   72.6770  227.5530 F   0  0  0  0  0  0  0  0  0  0  0  0
  139.9700   72.1660  228.5640 F   0  0  0  0  0  0  0  0  0  0  0  0
  140.6960   71.5580  225.4220 C   0  0  0  0  0  0  0  0  0  0  0  0
  138.5298   75.9099  219.9553 H   0  0  0  0  0  0  0  0  0  0  0  0
  137.5281   74.4626  220.1422 H   0  0  0  0  0  0  0  0  0  0  0  0
  136.5486   75.3853  222.0081 H   0  0  0  0  0  0  0  0  0  0  0  0
  138.1675   75.4946  222.7947 H   0  0  0  0  0  0  0  0  0  0  0  0
  138.2778   77.5791  221.0123 H   0  0  0  0  0  0  0  0  0  0  0  0
  136.5274   77.5706  221.4807 H   0  0  0  0  0  0  0  0  0  0  0  0
  140.2060   76.9280  222.2322 H   0  0  0  0  0  0  0  0  0  0  0  0
  142.4175   78.0091  222.4119 H   0  0  0  0  0  0  0  0  0  0  0  0
  140.5212   81.4439  224.2183 H   0  0  0  0  0  0  0  0  0  0  0  0
  138.4700   73.5100  222.8990 H   0  0  0  0  0  0  0  0  0  0  0  0
  140.4515   70.9502  222.0829 H   0  0  0  0  0  0  0  0  0  0  0  0
  139.0450   69.2875  223.5472 H   0  0  0  0  0  0  0  0  0  0  0  0
  138.7187   68.2487  225.7770 H   0  0  0  0  0  0  0  0  0  0  0  0
  139.6717   69.3431  227.8037 H   0  0  0  0  0  0  0  0  0  0  0  0
  141.2574   72.4986  225.3210 H   0  0  0  0  0  0  0  0  0  0  0  0
  1  2  2  0
  2  3  1  0
  3  4  1  0
  4  5  1  0
  5  6  1  0
  6  7  1  0
  7  8  2  0
  8  9  1  0
  9 10  2  0
 10 11  1  0
 10 12  1  0
 12 13  2  0
 13 14  1  0
  2 15  1  0
 15 16  1  0
 16 17  2  0
 17 18  1  0
 18 19  2  0
 19 20  1  0
 20 21  2  0
 21 22  1  0
 22 23  1  0
 23 24  1  0
 23 25  1  0
 23 26  1  0
 22 27  2  0
 13  7  1  0
 27 18  1  0
  3 28  1  0
  3 29  1  0
  4 30  1  0
  4 31  1  0
  5 32  1  0
  5 33  1  0
  8 34  1  0
  9 35  1  0
 12 36  1  0
 15 37  1  0
 17 38  1  0
 19 39  1  0
 20 40  1  0
 21 41  1  0
 27 42  1  0
M  END
>  <smiles>  (46) 
O=C(CCCOc1ccc(Cl)cc1Cl)NN=Cc1cccc(C(F)(F)F)c1

>  <score_type>  (46) 
oracle

>  <origin>  (46) 
autodockgpu

>  <m_score__min__energy>  (46) 
-7.3600000000000003

>  <m_primary>  (46) 
energy

>  <rmsd>  (46) 
5.521081167374448

>  <m_score__min__rmsd>  (46) 
5.521081167374448

>  <meeko>  (46) 
{"free_energy": -7.26, "intermolecular_energy": -9.94, "internal_energy": -0.89, "cluster_size": 16, "cluster_id": 1, "rank_in_cluster": 2}

>  <energy>  (46) 
-5.82

>  <cluster_rmsd>  (46) 
0.0

>  <cluster>  (46) 
8

$$$$

     RDKit          3D

 42 43  0  0  1  0  0  0  0  0999 V2000
  138.9550   70.6420  220.9550 O   0  0  0  0  0  0  0  0  0  0  0  0
  138.6870   71.8280  221.3110 C   0  0  0  0  0  0  0  0  0  0  0  0
  138.4210   72.7920  220.1900 C   0  0  0  0  0  0  0  0  0  0  0  0
  137.8390   74.0490  220.8480 C   0  0  0  0  0  0  0  0  0  0  0  0
  138.9380   75.0530  221.1340 C   0  0  0  0  0  0  0  0  0  0  0  0
  139.9350   74.5050  221.9740 O   0  0  0  0  0  0  0  0  0  0  0  0
  141.1880   74.2010  221.4070 C   0  0  0  0  0  0  0  0  0  0  0  0
  141.6720   72.9010  221.3830 C   0  0  0  0  0  0  0  0  0  0  0  0
  142.8910   72.5650  220.8380 C   0  0  0  0  0  0  0  0  0  0  0  0
  143.6640   73.5850  220.2900 C   0  0  0  0  0  0  0  0  0  0  0  0
  145.2060   73.1180  219.6060 Cl  0  0  0  0  0  0  0  0  0  0  0  0
  143.2140   74.8920  220.2960 C   0  0  0  0  0  0  0  0  0  0  0  0
  141.9770   75.2040  220.8530 C   0  0  0  0  0  0  0  0  0  0  0  0
  141.4300   76.8690  220.8500 Cl  0  0  0  0  0  0  0  0  0  0  0  0
  138.6360   72.2390  222.6540 N   0  0  0  0  0  0  0  0  0  0  0  0
  138.8740   71.3890  223.7460 N   0  0  0  0  0  0  0  0  0  0  0  0
  140.1030   71.1240  224.1020 C   0  0  0  0  0  0  0  0  0  0  0  0
  140.4900   71.0910  225.5250 C   0  0  0  0  0  0  0  0  0  0  0  0
  141.0460   72.1880  226.1510 C   0  0  0  0  0  0  0  0  0  0  0  0
  141.4070   72.1470  227.4920 C   0  0  0  0  0  0  0  0  0  0  0  0
  141.2070   70.9850  228.2190 C   0  0  0  0  0  0  0  0  0  0  0  0
  140.6450   69.8670  227.5970 C   0  0  0  0  0  0  0  0  0  0  0  0
  140.4370   68.6220  228.4010 C   0  0  0  0  0  0  0  0  0  0  0  0
  141.6380   68.1140  228.8160 F   0  0  0  0  0  0  0  0  0  0  0  0
  139.5760   68.8830  229.4300 F   0  0  0  0  0  0  0  0  0  0  0  0
  139.7890   67.7490  227.5190 F   0  0  0  0  0  0  0  0  0  0  0  0
  140.2920   69.9350  226.2530 C   0  0  0  0  0  0  0  0  0  0  0  0
  139.3557   73.0336  219.6629 H   0  0  0  0  0  0  0  0  0  0  0  0
  137.7299   72.3675  219.4469 H   0  0  0  0  0  0  0  0  0  0  0  0
  137.1002   74.5033  220.1714 H   0  0  0  0  0  0  0  0  0  0  0  0
  137.3591   73.7656  221.7964 H   0  0  0  0  0  0  0  0  0  0  0  0
  139.3997   75.3581  220.1833 H   0  0  0  0  0  0  0  0  0  0  0  0
  138.4910   75.9171  221.6473 H   0  0  0  0  0  0  0  0  0  0  0  0
  141.0538   72.1025  221.8191 H   0  0  0  0  0  0  0  0  0  0  0  0
  143.2432   71.5229  220.8357 H   0  0  0  0  0  0  0  0  0  0  0  0
  143.8352   75.6879  219.8594 H   0  0  0  0  0  0  0  0  0  0  0  0
  138.4090   73.2420  222.9210 H   0  0  0  0  0  0  0  0  0  0  0  0
  140.8598   70.9227  223.3295 H   0  0  0  0  0  0  0  0  0  0  0  0
  141.2065   73.1127  225.5772 H   0  0  0  0  0  0  0  0  0  0  0  0
  141.8489   73.0318  227.9734 H   0  0  0  0  0  0  0  0  0  0  0  0
  141.4893   70.9425  229.2813 H   0  0  0  0  0  0  0  0  0  0  0  0
  139.8489   69.0552  225.7636 H   0  0  0  0  0  0  0  0  0  0  0  0
  1  2  2  0
  2  3  1  0
  3  4  1  0
  4  5  1  0
  5  6  1  0
  6  7  1  0
  7  8  2  0
  8  9  1  0
  9 10  2  0
 10 11  1  0
 10 12  1  0
 12 13  2  0
 13 14  1  0
  2 15  1  0
 15 16  1  0
 16 17  2  0
 17 18  1  0
 18 19  2  0
 19 20  1  0
 20 21  2  0
 21 22  1  0
 22 23  1  0
 23 24  1  0
 23 25  1  0
 23 26  1  0
 22 27  2  0
 13  7  1  0
 27 18  1  0
  3 28  1  0
  3 29  1  0
  4 30  1  0
  4 31  1  0
  5 32  1  0
  5 33  1  0
  8 34  1  0
  9 35  1  0
 12 36  1  0
 15 37  1  0
 17 38  1  0
 19 39  1  0
 20 40  1  0
 21 41  1  0
 27 42  1  0
M  END
>  <smiles>  (47) 
O=C(CCCOc1ccc(Cl)cc1Cl)NN=Cc1cccc(C(F)(F)F)c1

>  <score_type>  (47) 
oracle

>  <origin>  (47) 
autodockgpu

>  <m_score__min__energy>  (47) 
-7.3600000000000003

>  <m_primary>  (47) 
energy

>  <rmsd>  (47) 
8.783737778717345

>  <m_score__min__rmsd>  (47) 
8.783737778717345

>  <meeko>  (47) 
{"free_energy": -6.35, "intermolecular_energy": -9.03, "internal_energy": -1.73, "cluster_size": 5, "cluster_id": 5, "rank_in_cluster": 4}

>  <energy>  (47) 
-5.56

>  <cluster_rmsd>  (47) 
0.89

>  <cluster>  (47) 
8

$$$$

     RDKit          3D

 42 43  0  0  1  0  0  0  0  0999 V2000
  141.4400   74.4430  220.7090 O   0  0  0  0  0  0  0  0  0  0  0  0
  140.3380   74.6210  221.3100 C   0  0  0  0  0  0  0  0  0  0  0  0
  139.5450   75.8140  220.8600 C   0  0  0  0  0  0  0  0  0  0  0  0
  140.3820   77.0410  221.2390 C   0  0  0  0  0  0  0  0  0  0  0  0
  140.7030   77.0260  222.7200 C   0  0  0  0  0  0  0  0  0  0  0  0
  141.4130   78.1860  223.1090 O   0  0  0  0  0  0  0  0  0  0  0  0
  141.2080   79.3680  222.3730 C   0  0  0  0  0  0  0  0  0  0  0  0
  142.0690   79.7400  221.3500 C   0  0  0  0  0  0  0  0  0  0  0  0
  141.9010   80.8870  220.6080 C   0  0  0  0  0  0  0  0  0  0  0  0
  140.8150   81.7050  220.9080 C   0  0  0  0  0  0  0  0  0  0  0  0
  140.6360   83.1540  219.9440 Cl  0  0  0  0  0  0  0  0  0  0  0  0
  139.9360   81.3670  221.9210 C   0  0  0  0  0  0  0  0  0  0  0  0
  140.1290   80.2000  222.6550 C   0  0  0  0  0  0  0  0  0  0  0  0
  139.0020   79.7950  223.9340 Cl  0  0  0  0  0  0  0  0  0  0  0  0
  139.8700   73.7760  222.3310 N   0  0  0  0  0  0  0  0  0  0  0  0
  140.5630   72.6460  222.7960 N   0  0  0  0  0  0  0  0  0  0  0  0
  139.9130   71.5310  223.0040 C   0  0  0  0  0  0  0  0  0  0  0  0
  139.9600   70.8600  224.3160 C   0  0  0  0  0  0  0  0  0  0  0  0
  139.5570   69.5480  224.4740 C   0  0  0  0  0  0  0  0  0  0  0  0
  139.6050   68.9240  225.7140 C   0  0  0  0  0  0  0  0  0  0  0  0
  140.0650   69.6260  226.8160 C   0  0  0  0  0  0  0  0  0  0  0  0
  140.4760   70.9530  226.6690 C   0  0  0  0  0  0  0  0  0  0  0  0
  140.9700   71.6930  227.8730 C   0  0  0  0  0  0  0  0  0  0  0  0
  139.9240   72.2550  228.5530 F   0  0  0  0  0  0  0  0  0  0  0  0
  141.7270   70.8560  228.6430 F   0  0  0  0  0  0  0  0  0  0  0  0
  141.8230   72.6710  227.3480 F   0  0  0  0  0  0  0  0  0  0  0  0
  140.4180   71.5560  225.4160 C   0  0  0  0  0  0  0  0  0  0  0  0
  139.3865   75.7800  219.7720 H   0  0  0  0  0  0  0  0  0  0  0  0
  138.5518   75.8407  221.3321 H   0  0  0  0  0  0  0  0  0  0  0  0
  141.3202   77.0309  220.6649 H   0  0  0  0  0  0  0  0  0  0  0  0
  139.8068   77.9498  221.0083 H   0  0  0  0  0  0  0  0  0  0  0  0
  139.7629   76.9749  223.2889 H   0  0  0  0  0  0  0  0  0  0  0  0
  141.3346   76.1495  222.9271 H   0  0  0  0  0  0  0  0  0  0  0  0
  142.9251   79.0881  221.1217 H   0  0  0  0  0  0  0  0  0  0  0  0
  142.6031   81.1493  219.8028 H   0  0  0  0  0  0  0  0  0  0  0  0
  139.0819   82.0222  222.1473 H   0  0  0  0  0  0  0  0  0  0  0  0
  138.9420   73.9520  222.8170 H   0  0  0  0  0  0  0  0  0  0  0  0
  139.3227   71.0872  222.1888 H   0  0  0  0  0  0  0  0  0  0  0  0
  139.1913   68.9870  223.6014 H   0  0  0  0  0  0  0  0  0  0  0  0
  139.2796   67.8786  225.8203 H   0  0  0  0  0  0  0  0  0  0  0  0
  140.1065   69.1408  227.8023 H   0  0  0  0  0  0  0  0  0  0  0  0
  140.7415   72.6011  225.3010 H   0  0  0  0  0  0  0  0  0  0  0  0
  1  2  2  0
  2  3  1  0
  3  4  1  0
  4  5  1  0
  5  6  1  0
  6  7  1  0
  7  8  2  0
  8  9  1  0
  9 10  2  0
 10 11  1  0
 10 12  1  0
 12 13  2  0
 13 14  1  0
  2 15  1  0
 15 16  1  0
 16 17  2  0
 17 18  1  0
 18 19  2  0
 19 20  1  0
 20 21  2  0
 21 22  1  0
 22 23  1  0
 23 24  1  0
 23 25  1  0
 23 26  1  0
 22 27  2  0
 13  7  1  0
 27 18  1  0
  3 28  1  0
  3 29  1  0
  4 30  1  0
  4 31  1  0
  5 32  1  0
  5 33  1  0
  8 34  1  0
  9 35  1  0
 12 36  1  0
 15 37  1  0
 17 38  1  0
 19 39  1  0
 20 40  1  0
 21 41  1  0
 27 42  1  0
M  END
>  <smiles>  (48) 
O=C(CCCOc1ccc(Cl)cc1Cl)NN=Cc1cccc(C(F)(F)F)c1

>  <score_type>  (48) 
oracle

>  <origin>  (48) 
autodockgpu

>  <m_score__min__energy>  (48) 
-7.3600000000000003

>  <m_primary>  (48) 
energy

>  <rmsd>  (48) 
5.905138525791343

>  <m_score__min__rmsd>  (48) 
5.905138525791343

>  <meeko>  (48) 
{"free_energy": -6.66, "intermolecular_energy": -9.34, "internal_energy": -0.82, "cluster_size": 3, "cluster_id": 4, "rank_in_cluster": 1}

>  <energy>  (48) 
-5.43

>  <cluster_rmsd>  (48) 
1.04

>  <cluster>  (48) 
8

$$$$

     RDKit          3D

 42 43  0  0  1  0  0  0  0  0999 V2000
  140.8750   74.3010  221.9770 O   0  0  0  0  0  0  0  0  0  0  0  0
  139.6080   74.3200  221.9650 C   0  0  0  0  0  0  0  0  0  0  0  0
  138.9490   73.0290  221.5730 C   0  0  0  0  0  0  0  0  0  0  0  0
  140.0880   72.0250  221.3560 C   0  0  0  0  0  0  0  0  0  0  0  0
  140.6970   71.6220  222.6840 C   0  0  0  0  0  0  0  0  0  0  0  0
  139.7280   71.6050  223.7150 O   0  0  0  0  0  0  0  0  0  0  0  0
  140.0060   70.8580  224.8750 C   0  0  0  0  0  0  0  0  0  0  0  0
  140.7550   71.3910  225.9150 C   0  0  0  0  0  0  0  0  0  0  0  0
  141.0470   70.6910  227.0640 C   0  0  0  0  0  0  0  0  0  0  0  0
  140.5640   69.3910  227.1770 C   0  0  0  0  0  0  0  0  0  0  0  0
  140.9560   68.5350  228.6520 Cl  0  0  0  0  0  0  0  0  0  0  0  0
  139.8150   68.8260  226.1610 C   0  0  0  0  0  0  0  0  0  0  0  0
  139.5330   69.5550  225.0100 C   0  0  0  0  0  0  0  0  0  0  0  0
  138.5820   68.8170  223.7370 Cl  0  0  0  0  0  0  0  0  0  0  0  0
  138.8490   75.4570  222.2890 N   0  0  0  0  0  0  0  0  0  0  0  0
  139.4030   76.6920  222.6630 N   0  0  0  0  0  0  0  0  0  0  0  0
  140.3720   77.2070  221.9520 C   0  0  0  0  0  0  0  0  0  0  0  0
  141.0040   78.4800  222.3420 C   0  0  0  0  0  0  0  0  0  0  0  0
  141.8070   78.5790  223.4610 C   0  0  0  0  0  0  0  0  0  0  0  0
  142.3990   79.7830  223.8200 C   0  0  0  0  0  0  0  0  0  0  0  0
  142.1810   80.9110  223.0440 C   0  0  0  0  0  0  0  0  0  0  0  0
  141.3710   80.8240  221.9090 C   0  0  0  0  0  0  0  0  0  0  0  0
  141.1500   82.0540  221.0850 C   0  0  0  0  0  0  0  0  0  0  0  0
  141.7910   81.9460  219.8820 F   0  0  0  0  0  0  0  0  0  0  0  0
  139.8090   82.2860  220.9640 F   0  0  0  0  0  0  0  0  0  0  0  0
  141.6890   83.0880  221.8610 F   0  0  0  0  0  0  0  0  0  0  0  0
  140.7900   79.6060  221.5710 C   0  0  0  0  0  0  0  0  0  0  0  0
  138.2804   72.6818  222.3745 H   0  0  0  0  0  0  0  0  0  0  0  0
  138.3363   73.1469  220.6671 H   0  0  0  0  0  0  0  0  0  0  0  0
  139.6919   71.1307  220.8526 H   0  0  0  0  0  0  0  0  0  0  0  0
  140.8648   72.4953  220.7352 H   0  0  0  0  0  0  0  0  0  0  0  0
  141.1332   70.6169  222.5869 H   0  0  0  0  0  0  0  0  0  0  0  0
  141.4688   72.3600  222.9479 H   0  0  0  0  0  0  0  0  0  0  0  0
  141.1325   72.4195  225.8167 H   0  0  0  0  0  0  0  0  0  0  0  0
  141.6440   71.1456  227.8683 H   0  0  0  0  0  0  0  0  0  0  0  0
  139.4409   67.7966  226.2632 H   0  0  0  0  0  0  0  0  0  0  0  0
  137.7860   75.4420  222.2690 H   0  0  0  0  0  0  0  0  0  0  0  0
  140.7204   76.6827  221.0500 H   0  0  0  0  0  0  0  0  0  0  0  0
  141.9812   77.6867  224.0802 H   0  0  0  0  0  0  0  0  0  0  0  0
  143.0368   79.8412  224.7144 H   0  0  0  0  0  0  0  0  0  0  0  0
  142.6436   81.8699  223.3206 H   0  0  0  0  0  0  0  0  0  0  0  0
  140.1516   79.5387  220.6778 H   0  0  0  0  0  0  0  0  0  0  0  0
  1  2  2  0
  2  3  1  0
  3  4  1  0
  4  5  1  0
  5  6  1  0
  6  7  1  0
  7  8  2  0
  8  9  1  0
  9 10  2  0
 10 11  1  0
 10 12  1  0
 12 13  2  0
 13 14  1  0
  2 15  1  0
 15 16  1  0
 16 17  2  0
 17 18  1  0
 18 19  2  0
 19 20  1  0
 20 21  2  0
 21 22  1  0
 22 23  1  0
 23 24  1  0
 23 25  1  0
 23 26  1  0
 22 27  2  0
 13  7  1  0
 27 18  1  0
  3 28  1  0
  3 29  1  0
  4 30  1  0
  4 31  1  0
  5 32  1  0
  5 33  1  0
  8 34  1  0
  9 35  1  0
 12 36  1  0
 15 37  1  0
 17 38  1  0
 19 39  1  0
 20 40  1  0
 21 41  1  0
 27 42  1  0
M  END
>  <smiles>  (49) 
O=C(CCCOc1ccc(Cl)cc1Cl)NN=Cc1cccc(C(F)(F)F)c1

>  <score_type>  (49) 
oracle

>  <origin>  (49) 
autodockgpu

>  <m_score__min__energy>  (49) 
-7.3600000000000003

>  <m_primary>  (49) 
energy

>  <rmsd>  (49) 
12.821946295290399

>  <m_score__min__rmsd>  (49) 
12.821946295290399

>  <meeko>  (49) 
{"free_energy": -7.07, "intermolecular_energy": -9.76, "internal_energy": -0.67, "cluster_size": 7, "cluster_id": 3, "rank_in_cluster": 1}

>  <energy>  (49) 
-5.55

>  <cluster_rmsd>  (49) 
0.0

>  <cluster>  (49) 
9

$$$$

     RDKit          3D

 42 43  0  0  1  0  0  0  0  0999 V2000
  138.7450   73.0960  220.8620 O   0  0  0  0  0  0  0  0  0  0  0  0
  139.8420   73.4440  221.3920 C   0  0  0  0  0  0  0  0  0  0  0  0
  140.2660   74.8600  221.1240 C   0  0  0  0  0  0  0  0  0  0  0  0
  141.2090   74.7940  219.9170 C   0  0  0  0  0  0  0  0  0  0  0  0
  142.6540   74.8210  220.3730 C   0  0  0  0  0  0  0  0  0  0  0  0
  142.9730   73.6850  221.1540 O   0  0  0  0  0  0  0  0  0  0  0  0
  143.5500   72.5760  220.5070 C   0  0  0  0  0  0  0  0  0  0  0  0
  142.7730   71.5200  220.0540 C   0  0  0  0  0  0  0  0  0  0  0  0
  143.3020   70.4190  219.4180 C   0  0  0  0  0  0  0  0  0  0  0  0
  144.6800   70.3740  219.2280 C   0  0  0  0  0  0  0  0  0  0  0  0
  145.3130   68.9600  218.4150 Cl  0  0  0  0  0  0  0  0  0  0  0  0
  145.4860   71.4080  219.6660 C   0  0  0  0  0  0  0  0  0  0  0  0
  144.9260   72.5100  220.3060 C   0  0  0  0  0  0  0  0  0  0  0  0
  145.9700   73.8070  220.8540 Cl  0  0  0  0  0  0  0  0  0  0  0  0
  140.6270   72.5840  222.1780 N   0  0  0  0  0  0  0  0  0  0  0  0
  140.2870   71.2520  222.4660 N   0  0  0  0  0  0  0  0  0  0  0  0
  139.5220   70.9880  223.4920 C   0  0  0  0  0  0  0  0  0  0  0  0
  140.0880   70.8640  224.8480 C   0  0  0  0  0  0  0  0  0  0  0  0
  140.7990   71.8930  225.4330 C   0  0  0  0  0  0  0  0  0  0  0  0
  141.3290   71.7670  226.7110 C   0  0  0  0  0  0  0  0  0  0  0  0
  141.1430   70.5880  227.4160 C   0  0  0  0  0  0  0  0  0  0  0  0
  140.4250   69.5400  226.8340 C   0  0  0  0  0  0  0  0  0  0  0  0
  140.2370   68.2760  227.6130 C   0  0  0  0  0  0  0  0  0  0  0  0
  139.4860   67.3810  226.9000 F   0  0  0  0  0  0  0  0  0  0  0  0
  141.4560   67.7840  227.9850 F   0  0  0  0  0  0  0  0  0  0  0  0
  139.5740   68.6870  228.7770 F   0  0  0  0  0  0  0  0  0  0  0  0
  139.9050   69.6920  225.5530 C   0  0  0  0  0  0  0  0  0  0  0  0
  139.3906   75.4843  220.8921 H   0  0  0  0  0  0  0  0  0  0  0  0
  140.7605   75.3064  221.9993 H   0  0  0  0  0  0  0  0  0  0  0  0
  141.0217   73.8634  219.3613 H   0  0  0  0  0  0  0  0  0  0  0  0
  141.0226   75.6644  219.2708 H   0  0  0  0  0  0  0  0  0  0  0  0
  143.3076   74.8415  219.4884 H   0  0  0  0  0  0  0  0  0  0  0  0
  142.8038   75.7181  220.9917 H   0  0  0  0  0  0  0  0  0  0  0  0
  141.6850   71.5640  220.2098 H   0  0  0  0  0  0  0  0  0  0  0  0
  142.6550   69.6000  219.0707 H   0  0  0  0  0  0  0  0  0  0  0  0
  146.5736   71.3598  219.5083 H   0  0  0  0  0  0  0  0  0  0  0  0
  141.5440   72.9050  222.6090 H   0  0  0  0  0  0  0  0  0  0  0  0
  138.4403   70.8564  223.3420 H   0  0  0  0  0  0  0  0  0  0  0  0
  140.9486   72.8301  224.8767 H   0  0  0  0  0  0  0  0  0  0  0  0
  141.8927   72.5976  227.1607 H   0  0  0  0  0  0  0  0  0  0  0  0
  141.5586   70.4780  228.4285 H   0  0  0  0  0  0  0  0  0  0  0  0
  139.3400   68.8665  225.0955 H   0  0  0  0  0  0  0  0  0  0  0  0
  1  2  2  0
  2  3  1  0
  3  4  1  0
  4  5  1  0
  5  6  1  0
  6  7  1  0
  7  8  2  0
  8  9  1  0
  9 10  2  0
 10 11  1  0
 10 12  1  0
 12 13  2  0
 13 14  1  0
  2 15  1  0
 15 16  1  0
 16 17  2  0
 17 18  1  0
 18 19  2  0
 19 20  1  0
 20 21  2  0
 21 22  1  0
 22 23  1  0
 23 24  1  0
 23 25  1  0
 23 26  1  0
 22 27  2  0
 13  7  1  0
 27 18  1  0
  3 28  1  0
  3 29  1  0
  4 30  1  0
  4 31  1  0
  5 32  1  0
  5 33  1  0
  8 34  1  0
  9 35  1  0
 12 36  1  0
 15 37  1  0
 17 38  1  0
 19 39  1  0
 20 40  1  0
 21 41  1  0
 27 42  1  0
M  END
>  <smiles>  (50) 
O=C(CCCOc1ccc(Cl)cc1Cl)NN=Cc1cccc(C(F)(F)F)c1

>  <score_type>  (50) 
oracle

>  <origin>  (50) 
autodockgpu

>  <m_score__min__energy>  (50) 
-7.3600000000000003

>  <m_primary>  (50) 
energy

>  <rmsd>  (50) 
10.983354694780516

>  <m_score__min__rmsd>  (50) 
10.983354694780516

>  <meeko>  (50) 
{"free_energy": -5.51, "intermolecular_energy": -8.19, "internal_energy": -1.87, "cluster_size": 5, "cluster_id": 5, "rank_in_cluster": 5}

>  <energy>  (50) 
-4.66

>  <cluster_rmsd>  (50) 
0.0

>  <cluster>  (50) 
10

$$$$

     RDKit          3D

 42 43  0  0  1  0  0  0  0  0999 V2000
  137.7830   70.0680  224.3200 O   0  0  0  0  0  0  0  0  0  0  0  0
  137.6100   71.1200  223.6530 C   0  0  0  0  0  0  0  0  0  0  0  0
  136.2660   71.6630  223.3340 C   0  0  0  0  0  0  0  0  0  0  0  0
  136.1890   73.1440  223.4350 C   0  0  0  0  0  0  0  0  0  0  0  0
  136.7090   73.7190  222.0930 C   0  0  0  0  0  0  0  0  0  0  0  0
  137.5750   74.6800  222.1820 O   0  0  0  0  0  0  0  0  0  0  0  0
  138.4310   75.6250  222.2680 C   0  0  0  0  0  0  0  0  0  0  0  0
  138.0980   76.9010  222.7450 C   0  0  0  0  0  0  0  0  0  0  0  0
  139.0170   77.9180  222.8380 C   0  0  0  0  0  0  0  0  0  0  0  0
  140.3030   77.6520  222.4420 C   0  0  0  0  0  0  0  0  0  0  0  0
  141.4810   78.9290  222.5510 Cl  0  0  0  0  0  0  0  0  0  0  0  0
  140.7080   76.4320  221.9640 C   0  0  0  0  0  0  0  0  0  0  0  0
  139.7700   75.4370  221.8840 C   0  0  0  0  0  0  0  0  0  0  0  0
  140.2250   73.8640  221.2850 Cl  0  0  0  0  0  0  0  0  0  0  0  0
  138.7270   71.8860  223.1420 N   0  0  0  0  0  0  0  0  0  0  0  0
  139.9810   71.4190  223.4150 N   0  0  0  0  0  0  0  0  0  0  0  0
  140.6830   71.8740  224.3600 C   0  0  0  0  0  0  0  0  0  0  0  0
  140.7970   71.4440  225.7230 C   0  0  0  0  0  0  0  0  0  0  0  0
  141.0260   72.2130  226.8270 C   0  0  0  0  0  0  0  0  0  0  0  0
  141.1300   71.7140  228.1180 C   0  0  0  0  0  0  0  0  0  0  0  0
  141.0010   70.3730  228.3430 C   0  0  0  0  0  0  0  0  0  0  0  0
  140.7690   69.5720  227.2430 C   0  0  0  0  0  0  0  0  0  0  0  0
  140.6280   68.1200  227.4640 C   0  0  0  0  0  0  0  0  0  0  0  0
  141.4120   67.4290  226.5620 F   0  0  0  0  0  0  0  0  0  0  0  0
  141.0580   67.7970  228.7520 F   0  0  0  0  0  0  0  0  0  0  0  0
  139.3080   67.7070  227.3950 F   0  0  0  0  0  0  0  0  0  0  0  0
  140.6670   70.0730  225.9670 C   0  0  0  0  0  0  0  0  0  0  0  0
  136.0062   71.3695  222.3062 H   0  0  0  0  0  0  0  0  0  0  0  0
  135.5646   71.2499  224.0739 H   0  0  0  0  0  0  0  0  0  0  0  0
  135.1478   73.4574  223.6018 H   0  0  0  0  0  0  0  0  0  0  0  0
  136.7920   73.5112  224.2786 H   0  0  0  0  0  0  0  0  0  0  0  0
  137.1768   72.8957  221.5333 H   0  0  0  0  0  0  0  0  0  0  0  0
  135.8297   74.1581  221.5990 H   0  0  0  0  0  0  0  0  0  0  0  0
  137.0611   77.0951  223.0567 H   0  0  0  0  0  0  0  0  0  0  0  0
  138.7316   78.9105  223.2167 H   0  0  0  0  0  0  0  0  0  0  0  0
  141.7496   76.2586  221.6557 H   0  0  0  0  0  0  0  0  0  0  0  0
  138.5550   72.7610  222.5630 H   0  0  0  0  0  0  0  0  0  0  0  0
  141.3079   72.7397  224.0954 H   0  0  0  0  0  0  0  0  0  0  0  0
  141.1352   73.2982  226.6845 H   0  0  0  0  0  0  0  0  0  0  0  0
  141.3162   72.3979  228.9592 H   0  0  0  0  0  0  0  0  0  0  0  0
  141.0785   69.9502  229.3555 H   0  0  0  0  0  0  0  0  0  0  0  0
  140.4808   69.3871  225.1274 H   0  0  0  0  0  0  0  0  0  0  0  0
  1  2  2  0
  2  3  1  0
  3  4  1  0
  4  5  1  0
  5  6  1  0
  6  7  1  0
  7  8  2  0
  8  9  1  0
  9 10  2  0
 10 11  1  0
 10 12  1  0
 12 13  2  0
 13 14  1  0
  2 15  1  0
 15 16  1  0
 16 17  2  0
 17 18  1  0
 18 19  2  0
 19 20  1  0
 20 21  2  0
 21 22  1  0
 22 23  1  0
 23 24  1  0
 23 25  1  0
 23 26  1  0
 22 27  2  0
 13  7  1  0
 27 18  1  0
  3 28  1  0
  3 29  1  0
  4 30  1  0
  4 31  1  0
  5 32  1  0
  5 33  1  0
  8 34  1  0
  9 35  1  0
 12 36  1  0
 15 37  1  0
 17 38  1  0
 19 39  1  0
 20 40  1  0
 21 41  1  0
 27 42  1  0
M  END
>  <smiles>  (51) 
O=C(CCCOc1ccc(Cl)cc1Cl)NN=Cc1cccc(C(F)(F)F)c1

>  <score_type>  (51) 
oracle

>  <origin>  (51) 
autodockgpu

>  <m_score__min__energy>  (51) 
-7.79

>  <m_primary>  (51) 
energy

>  <rmsd>  (51) 
7.679477847124725

>  <m_score__min__rmsd>  (51) 
7.679477847124725

>  <meeko>  (51) 
{"free_energy": -6.14, "intermolecular_energy": -8.82, "internal_energy": -1.82, "cluster_size": 2, "cluster_id": 6, "rank_in_cluster": 1}

>  <energy>  (51) 
-7.79

>  <cluster_rmsd>  (51) 
0.0

>  <cluster>  (51) 
1

$$$$

     RDKit          3D

 42 43  0  0  1  0  0  0  0  0999 V2000
  140.2130   73.3030  222.6890 O   0  0  0  0  0  0  0  0  0  0  0  0
  139.1250   73.0250  222.1210 C   0  0  0  0  0  0  0  0  0  0  0  0
  138.3170   74.0280  221.3840 C   0  0  0  0  0  0  0  0  0  0  0  0
  137.6390   75.0080  222.2730 C   0  0  0  0  0  0  0  0  0  0  0  0
  137.7140   76.3870  221.5700 C   0  0  0  0  0  0  0  0  0  0  0  0
  138.6440   77.1890  221.9880 O   0  0  0  0  0  0  0  0  0  0  0  0
  139.5620   77.9770  222.4030 C   0  0  0  0  0  0  0  0  0  0  0  0
  139.3020   79.0400  223.2790 C   0  0  0  0  0  0  0  0  0  0  0  0
  140.2870   79.8870  223.7250 C   0  0  0  0  0  0  0  0  0  0  0  0
  141.5650   79.6660  223.2800 C   0  0  0  0  0  0  0  0  0  0  0  0
  142.8270   80.7310  223.8340 Cl  0  0  0  0  0  0  0  0  0  0  0  0
  141.9010   78.6500  222.4230 C   0  0  0  0  0  0  0  0  0  0  0  0
  140.8980   77.8210  221.9960 C   0  0  0  0  0  0  0  0  0  0  0  0
  141.2630   76.5110  220.9050 Cl  0  0  0  0  0  0  0  0  0  0  0  0
  138.5780   71.6850  222.1490 N   0  0  0  0  0  0  0  0  0  0  0  0
  139.2920   70.7320  222.8170 N   0  0  0  0  0  0  0  0  0  0  0  0
  138.8940   70.2210  223.9000 C   0  0  0  0  0  0  0  0  0  0  0  0
  139.6220   69.8620  225.0820 C   0  0  0  0  0  0  0  0  0  0  0  0
  140.0250   68.6180  225.4710 C   0  0  0  0  0  0  0  0  0  0  0  0
  140.7250   68.3550  226.6400 C   0  0  0  0  0  0  0  0  0  0  0  0
  141.0510   69.3770  227.4850 C   0  0  0  0  0  0  0  0  0  0  0  0
  140.6550   70.6460  227.1150 C   0  0  0  0  0  0  0  0  0  0  0  0
  140.9970   71.7650  228.0140 C   0  0  0  0  0  0  0  0  0  0  0  0
  141.9810   71.3730  228.8990 F   0  0  0  0  0  0  0  0  0  0  0  0
  141.4850   72.8360  227.2650 F   0  0  0  0  0  0  0  0  0  0  0  0
  139.8890   72.2530  228.6860 F   0  0  0  0  0  0  0  0  0  0  0  0
  139.9630   70.9010  225.9550 C   0  0  0  0  0  0  0  0  0  0  0  0
  138.9817   74.5779  220.7015 H   0  0  0  0  0  0  0  0  0  0  0  0
  137.5303   73.4793  220.8455 H   0  0  0  0  0  0  0  0  0  0  0  0
  136.5888   74.7176  222.4235 H   0  0  0  0  0  0  0  0  0  0  0  0
  138.1246   75.0439  223.2594 H   0  0  0  0  0  0  0  0  0  0  0  0
  137.8802   76.2092  220.4973 H   0  0  0  0  0  0  0  0  0  0  0  0
  136.7633   76.8896  221.8013 H   0  0  0  0  0  0  0  0  0  0  0  0
  138.2696   79.2020  223.6224 H   0  0  0  0  0  0  0  0  0  0  0  0
  140.0588   80.7131  224.4145 H   0  0  0  0  0  0  0  0  0  0  0  0
  142.9395   78.5058  222.0901 H   0  0  0  0  0  0  0  0  0  0  0  0
  137.6460   71.4780  221.6790 H   0  0  0  0  0  0  0  0  0  0  0  0
  137.8138   70.0181  223.9445 H   0  0  0  0  0  0  0  0  0  0  0  0
  139.7793   67.7691  224.8160 H   0  0  0  0  0  0  0  0  0  0  0  0
  141.0172   67.3234  226.8859 H   0  0  0  0  0  0  0  0  0  0  0  0
  141.6043   69.1968  228.4185 H   0  0  0  0  0  0  0  0  0  0  0  0
  139.6740   71.9337  225.7102 H   0  0  0  0  0  0  0  0  0  0  0  0
  1  2  2  0
  2  3  1  0
  3  4  1  0
  4  5  1  0
  5  6  1  0
  6  7  1  0
  7  8  2  0
  8  9  1  0
  9 10  2  0
 10 11  1  0
 10 12  1  0
 12 13  2  0
 13 14  1  0
  2 15  1  0
 15 16  1  0
 16 17  2  0
 17 18  1  0
 18 19  2  0
 19 20  1  0
 20 21  2  0
 21 22  1  0
 22 23  1  0
 23 24  1  0
 23 25  1  0
 23 26  1  0
 22 27  2  0
 13  7  1  0
 27 18  1  0
  3 28  1  0
  3 29  1  0
  4 30  1  0
  4 31  1  0
  5 32  1  0
  5 33  1  0
  8 34  1  0
  9 35  1  0
 12 36  1  0
 15 37  1  0
 17 38  1  0
 19 39  1  0
 20 40  1  0
 21 41  1  0
 27 42  1  0
M  END
>  <smiles>  (52) 
O=C(CCCOc1ccc(Cl)cc1Cl)NN=Cc1cccc(C(F)(F)F)c1

>  <score_type>  (52) 
oracle

>  <origin>  (52) 
autodockgpu

>  <m_score__min__energy>  (52) 
-7.79

>  <m_primary>  (52) 
energy

>  <rmsd>  (52) 
5.619435112340393

>  <m_score__min__rmsd>  (52) 
5.619435112340393

>  <meeko>  (52) 
{"free_energy": -6.92, "intermolecular_energy": -9.61, "internal_energy": -0.92, "cluster_size": 9, "cluster_id": 2, "rank_in_cluster": 7}

>  <energy>  (52) 
-7.44

>  <cluster_rmsd>  (52) 
1.68

>  <cluster>  (52) 
1

$$$$

     RDKit          3D

 42 43  0  0  1  0  0  0  0  0999 V2000
  141.3490   75.0120  221.5450 O   0  0  0  0  0  0  0  0  0  0  0  0
  140.1290   74.9360  221.8420 C   0  0  0  0  0  0  0  0  0  0  0  0
  139.1620   76.0310  221.5760 C   0  0  0  0  0  0  0  0  0  0  0  0
  138.1620   76.2110  222.6610 C   0  0  0  0  0  0  0  0  0  0  0  0
  136.8380   75.5740  222.1670 C   0  0  0  0  0  0  0  0  0  0  0  0
  136.5180   74.4370  222.7040 O   0  0  0  0  0  0  0  0  0  0  0  0
  136.2000   73.3180  223.2330 C   0  0  0  0  0  0  0  0  0  0  0  0
  136.6520   72.0910  222.7280 C   0  0  0  0  0  0  0  0  0  0  0  0
  136.3100   70.8880  223.2950 C   0  0  0  0  0  0  0  0  0  0  0  0
  135.4930   70.9120  224.3960 C   0  0  0  0  0  0  0  0  0  0  0  0
  135.0490   69.3960  225.1290 Cl  0  0  0  0  0  0  0  0  0  0  0  0
  135.0090   72.0690  224.9500 C   0  0  0  0  0  0  0  0  0  0  0  0
  135.3670   73.2540  224.3630 C   0  0  0  0  0  0  0  0  0  0  0  0
  134.7820   74.7580  225.0230 Cl  0  0  0  0  0  0  0  0  0  0  0  0
  139.5750   73.7570  222.4730 N   0  0  0  0  0  0  0  0  0  0  0  0
  140.4320   72.7260  222.7340 N   0  0  0  0  0  0  0  0  0  0  0  0
  140.0280   71.5620  223.0060 C   0  0  0  0  0  0  0  0  0  0  0  0
  139.8800   70.9020  224.2700 C   0  0  0  0  0  0  0  0  0  0  0  0
  139.2390   69.7250  224.5300 C   0  0  0  0  0  0  0  0  0  0  0  0
  139.1340   69.1560  225.7920 C   0  0  0  0  0  0  0  0  0  0  0  0
  139.6950   69.7790  226.8690 C   0  0  0  0  0  0  0  0  0  0  0  0
  140.3500   70.9700  226.6340 C   0  0  0  0  0  0  0  0  0  0  0  0
  140.9630   71.6600  227.7860 C   0  0  0  0  0  0  0  0  0  0  0  0
  141.8080   72.6570  227.3410 F   0  0  0  0  0  0  0  0  0  0  0  0
  139.9670   72.2490  228.5650 F   0  0  0  0  0  0  0  0  0  0  0  0
  141.6270   70.7840  228.6270 F   0  0  0  0  0  0  0  0  0  0  0  0
  140.4500   71.5290  225.3830 C   0  0  0  0  0  0  0  0  0  0  0  0
  139.7223   76.9703  221.4587 H   0  0  0  0  0  0  0  0  0  0  0  0
  138.6080   75.7612  220.6648 H   0  0  0  0  0  0  0  0  0  0  0  0
  138.5043   75.7081  223.5775 H   0  0  0  0  0  0  0  0  0  0  0  0
  138.0221   77.2771  222.8932 H   0  0  0  0  0  0  0  0  0  0  0  0
  136.0247   76.2849  222.3747 H   0  0  0  0  0  0  0  0  0  0  0  0
  136.9910   75.3641  221.0981 H   0  0  0  0  0  0  0  0  0  0  0  0
  137.3058   72.0918  221.8434 H   0  0  0  0  0  0  0  0  0  0  0  0
  136.6786   69.9381  222.8804 H   0  0  0  0  0  0  0  0  0  0  0  0
  134.3560   72.0466  225.8349 H   0  0  0  0  0  0  0  0  0  0  0  0
  138.5430   73.7240  222.7330 H   0  0  0  0  0  0  0  0  0  0  0  0
  139.7436   70.9563  222.1329 H   0  0  0  0  0  0  0  0  0  0  0  0
  138.7761   69.1935  223.6855 H   0  0  0  0  0  0  0  0  0  0  0  0
  138.5991   68.2039  225.9238 H   0  0  0  0  0  0  0  0  0  0  0  0
  139.6278   69.3503  227.8798 H   0  0  0  0  0  0  0  0  0  0  0  0
  140.9850   72.4816  225.2550 H   0  0  0  0  0  0  0  0  0  0  0  0
  1  2  2  0
  2  3  1  0
  3  4  1  0
  4  5  1  0
  5  6  1  0
  6  7  1  0
  7  8  2  0
  8  9  1  0
  9 10  2  0
 10 11  1  0
 10 12  1  0
 12 13  2  0
 13 14  1  0
  2 15  1  0
 15 16  1  0
 16 17  2  0
 17 18  1  0
 18 19  2  0
 19 20  1  0
 20 21  2  0
 21 22  1  0
 22 23  1  0
 23 24  1  0
 23 25  1  0
 23 26  1  0
 22 27  2  0
 13  7  1  0
 27 18  1  0
  3 28  1  0
  3 29  1  0
  4 30  1  0
  4 31  1  0
  5 32  1  0
  5 33  1  0
  8 34  1  0
  9 35  1  0
 12 36  1  0
 15 37  1  0
 17 38  1  0
 19 39  1  0
 20 40  1  0
 21 41  1  0
 27 42  1  0
M  END
>  <smiles>  (53) 
O=C(CCCOc1ccc(Cl)cc1Cl)NN=Cc1cccc(C(F)(F)F)c1

>  <score_type>  (53) 
oracle

>  <origin>  (53) 
autodockgpu

>  <m_score__min__energy>  (53) 
-7.79

>  <m_primary>  (53) 
energy

>  <rmsd>  (53) 
10.655281550298252

>  <m_score__min__rmsd>  (53) 
10.655281550298252

>  <meeko>  (53) 
{"free_energy": -5.69, "intermolecular_energy": -8.38, "internal_energy": -2.48, "cluster_size": 12, "cluster_id": 7, "rank_in_cluster": 6}

>  <energy>  (53) 
-7.29

>  <cluster_rmsd>  (53) 
1.72

>  <cluster>  (53) 
1

$$$$

     RDKit          3D

 42 43  0  0  1  0  0  0  0  0999 V2000
  141.3340   74.7160  221.1830 O   0  0  0  0  0  0  0  0  0  0  0  0
  140.1480   74.7500  221.6020 C   0  0  0  0  0  0  0  0  0  0  0  0
  139.2100   75.8580  221.2890 C   0  0  0  0  0  0  0  0  0  0  0  0
  138.0070   75.8760  222.1610 C   0  0  0  0  0  0  0  0  0  0  0  0
  137.0450   74.7820  221.6300 C   0  0  0  0  0  0  0  0  0  0  0  0
  136.4790   74.0370  222.5290 O   0  0  0  0  0  0  0  0  0  0  0  0
  135.9200   73.3060  223.4160 C   0  0  0  0  0  0  0  0  0  0  0  0
  135.9910   71.9060  223.3910 C   0  0  0  0  0  0  0  0  0  0  0  0
  135.3900   71.1200  224.3440 C   0  0  0  0  0  0  0  0  0  0  0  0
  134.6990   71.7500  225.3460 C   0  0  0  0  0  0  0  0  0  0  0  0
  133.9310   70.7690  226.5630 Cl  0  0  0  0  0  0  0  0  0  0  0  0
  134.5830   73.1130  225.4410 C   0  0  0  0  0  0  0  0  0  0  0  0
  135.1930   73.8720  224.4770 C   0  0  0  0  0  0  0  0  0  0  0  0
  135.0800   75.6100  224.5440 Cl  0  0  0  0  0  0  0  0  0  0  0  0
  139.6080   73.6940  222.4320 N   0  0  0  0  0  0  0  0  0  0  0  0
  140.4390   72.6560  222.7420 N   0  0  0  0  0  0  0  0  0  0  0  0
  140.0070   71.5050  223.0320 C   0  0  0  0  0  0  0  0  0  0  0  0
  139.8710   70.8560  224.3030 C   0  0  0  0  0  0  0  0  0  0  0  0
  139.2540   69.6700  224.5750 C   0  0  0  0  0  0  0  0  0  0  0  0
  139.1600   69.1130  225.8430 C   0  0  0  0  0  0  0  0  0  0  0  0
  139.7080   69.7580  226.9140 C   0  0  0  0  0  0  0  0  0  0  0  0
  140.3390   70.9600  226.6660 C   0  0  0  0  0  0  0  0  0  0  0  0
  140.9370   71.6750  227.8100 C   0  0  0  0  0  0  0  0  0  0  0  0
  139.9420   72.2220  228.5950 F   0  0  0  0  0  0  0  0  0  0  0  0
  141.6660   70.7800  228.5930 F   0  0  0  0  0  0  0  0  0  0  0  0
  141.8420   72.6420  227.4070 F   0  0  0  0  0  0  0  0  0  0  0  0
  140.4290   71.5070  225.4080 C   0  0  0  0  0  0  0  0  0  0  0  0
  139.7438   76.8120  221.4114 H   0  0  0  0  0  0  0  0  0  0  0  0
  138.8610   75.7066  220.2569 H   0  0  0  0  0  0  0  0  0  0  0  0
  138.2910   75.6568  223.2009 H   0  0  0  0  0  0  0  0  0  0  0  0
  137.5247   76.8645  222.1437 H   0  0  0  0  0  0  0  0  0  0  0  0
  136.2496   75.2821  221.0580 H   0  0  0  0  0  0  0  0  0  0  0  0
  137.6701   74.1022  221.0323 H   0  0  0  0  0  0  0  0  0  0  0  0
  136.5489   71.4187  222.5778 H   0  0  0  0  0  0  0  0  0  0  0  0
  135.4609   70.0230  224.3042 H   0  0  0  0  0  0  0  0  0  0  0  0
  134.0200   73.5806  226.2622 H   0  0  0  0  0  0  0  0  0  0  0  0
  138.6080   73.7540  222.7910 H   0  0  0  0  0  0  0  0  0  0  0  0
  139.6828   70.9034  222.1700 H   0  0  0  0  0  0  0  0  0  0  0  0
  138.8023   69.1202  223.7362 H   0  0  0  0  0  0  0  0  0  0  0  0
  138.6440   68.1519  225.9847 H   0  0  0  0  0  0  0  0  0  0  0  0
  139.6492   69.3385  227.9292 H   0  0  0  0  0  0  0  0  0  0  0  0
  140.9459   72.4680  225.2688 H   0  0  0  0  0  0  0  0  0  0  0  0
  1  2  2  0
  2  3  1  0
  3  4  1  0
  4  5  1  0
  5  6  1  0
  6  7  1  0
  7  8  2  0
  8  9  1  0
  9 10  2  0
 10 11  1  0
 10 12  1  0
 12 13  2  0
 13 14  1  0
  2 15  1  0
 15 16  1  0
 16 17  2  0
 17 18  1  0
 18 19  2  0
 19 20  1  0
 20 21  2  0
 21 22  1  0
 22 23  1  0
 23 24  1  0
 23 25  1  0
 23 26  1  0
 22 27  2  0
 13  7  1  0
 27 18  1  0
  3 28  1  0
  3 29  1  0
  4 30  1  0
  4 31  1  0
  5 32  1  0
  5 33  1  0
  8 34  1  0
  9 35  1  0
 12 36  1  0
 15 37  1  0
 17 38  1  0
 19 39  1  0
 20 40  1  0
 21 41  1  0
 27 42  1  0
M  END
>  <smiles>  (54) 
O=C(CCCOc1ccc(Cl)cc1Cl)NN=Cc1cccc(C(F)(F)F)c1

>  <score_type>  (54) 
oracle

>  <origin>  (54) 
autodockgpu

>  <m_score__min__energy>  (54) 
-7.79

>  <m_primary>  (54) 
energy

>  <rmsd>  (54) 
10.888000351613497

>  <m_score__min__rmsd>  (54) 
10.888000351613497

>  <meeko>  (54) 
{"free_energy": -5.93, "intermolecular_energy": -8.62, "internal_energy": -2.03, "cluster_size": 12, "cluster_id": 7, "rank_in_cluster": 2}

>  <energy>  (54) 
-7.28

>  <cluster_rmsd>  (54) 
1.76

>  <cluster>  (54) 
1

$$$$

     RDKit          3D

 42 43  0  0  1  0  0  0  0  0999 V2000
  137.2900   72.1710  220.6220 O   0  0  0  0  0  0  0  0  0  0  0  0
  137.9100   73.0530  221.2710 C   0  0  0  0  0  0  0  0  0  0  0  0
  137.7720   74.5050  220.9950 C   0  0  0  0  0  0  0  0  0  0  0  0
  137.5400   75.3180  222.2170 C   0  0  0  0  0  0  0  0  0  0  0  0
  138.9090   75.9160  222.6320 C   0  0  0  0  0  0  0  0  0  0  0  0
  139.9480   75.4290  222.0280 O   0  0  0  0  0  0  0  0  0  0  0  0
  140.9750   74.9500  221.4360 C   0  0  0  0  0  0  0  0  0  0  0  0
  141.3090   73.5890  221.4920 C   0  0  0  0  0  0  0  0  0  0  0  0
  142.4130   73.0730  220.8570 C   0  0  0  0  0  0  0  0  0  0  0  0
  143.2030   73.9410  220.1490 C   0  0  0  0  0  0  0  0  0  0  0  0
  144.6060   73.3050  219.3370 Cl  0  0  0  0  0  0  0  0  0  0  0  0
  142.9460   75.2840  220.0460 C   0  0  0  0  0  0  0  0  0  0  0  0
  141.8380   75.7700  220.6900 C   0  0  0  0  0  0  0  0  0  0  0  0
  141.4590   77.4690  220.5960 Cl  0  0  0  0  0  0  0  0  0  0  0  0
  138.8130   72.7070  222.3480 N   0  0  0  0  0  0  0  0  0  0  0  0
  138.9660   71.3810  222.6330 N   0  0  0  0  0  0  0  0  0  0  0  0
  139.9390   70.9410  223.3060 C   0  0  0  0  0  0  0  0  0  0  0  0
  139.9880   70.4280  224.6440 C   0  0  0  0  0  0  0  0  0  0  0  0
  139.6460   69.1790  225.0740 C   0  0  0  0  0  0  0  0  0  0  0  0
  139.7170   68.7630  226.3970 C   0  0  0  0  0  0  0  0  0  0  0  0
  140.1520   69.6270  227.3610 C   0  0  0  0  0  0  0  0  0  0  0  0
  140.5050   70.8960  226.9520 C   0  0  0  0  0  0  0  0  0  0  0  0
  140.9780   71.8460  227.9780 C   0  0  0  0  0  0  0  0  0  0  0  0
  141.5330   72.9550  227.3720 F   0  0  0  0  0  0  0  0  0  0  0  0
  139.9010   72.2690  228.7580 F   0  0  0  0  0  0  0  0  0  0  0  0
  141.8710   71.2610  228.8590 F   0  0  0  0  0  0  0  0  0  0  0  0
  140.4330   71.3020  225.6410 C   0  0  0  0  0  0  0  0  0  0  0  0
  138.6951   74.8574  220.5117 H   0  0  0  0  0  0  0  0  0  0  0  0
  136.8907   74.6306  220.3489 H   0  0  0  0  0  0  0  0  0  0  0  0
  136.8245   76.1256  222.0029 H   0  0  0  0  0  0  0  0  0  0  0  0
  137.1209   74.7004  223.0250 H   0  0  0  0  0  0  0  0  0  0  0  0
  138.8789   76.9971  222.4313 H   0  0  0  0  0  0  0  0  0  0  0  0
  139.0355   75.6590  223.6941 H   0  0  0  0  0  0  0  0  0  0  0  0
  140.6627   72.9088  222.0661 H   0  0  0  0  0  0  0  0  0  0  0  0
  142.6542   72.0013  220.9148 H   0  0  0  0  0  0  0  0  0  0  0  0
  143.6054   75.9475  219.4673 H   0  0  0  0  0  0  0  0  0  0  0  0
  139.3410   73.4710  222.8680 H   0  0  0  0  0  0  0  0  0  0  0  0
  140.9056   70.9531  222.7811 H   0  0  0  0  0  0  0  0  0  0  0  0
  139.2915   68.4556  224.3250 H   0  0  0  0  0  0  0  0  0  0  0  0
  139.4231   67.7383  226.6683 H   0  0  0  0  0  0  0  0  0  0  0  0
  140.2179   69.3244  228.4165 H   0  0  0  0  0  0  0  0  0  0  0  0
  140.7290   72.3269  225.3726 H   0  0  0  0  0  0  0  0  0  0  0  0
  1  2  2  0
  2  3  1  0
  3  4  1  0
  4  5  1  0
  5  6  1  0
  6  7  1  0
  7  8  2  0
  8  9  1  0
  9 10  2  0
 10 11  1  0
 10 12  1  0
 12 13  2  0
 13 14  1  0
  2 15  1  0
 15 16  1  0
 16 17  2  0
 17 18  1  0
 18 19  2  0
 19 20  1  0
 20 21  2  0
 21 22  1  0
 22 23  1  0
 23 24  1  0
 23 25  1  0
 23 26  1  0
 22 27  2  0
 13  7  1  0
 27 18  1  0
  3 28  1  0
  3 29  1  0
  4 30  1  0
  4 31  1  0
  5 32  1  0
  5 33  1  0
  8 34  1  0
  9 35  1  0
 12 36  1  0
 15 37  1  0
 17 38  1  0
 19 39  1  0
 20 40  1  0
 21 41  1  0
 27 42  1  0
M  END
>  <smiles>  (55) 
O=C(CCCOc1ccc(Cl)cc1Cl)NN=Cc1cccc(C(F)(F)F)c1

>  <score_type>  (55) 
oracle

>  <origin>  (55) 
autodockgpu

>  <m_score__min__energy>  (55) 
-7.79

>  <m_primary>  (55) 
energy

>  <rmsd>  (55) 
8.267027961707173

>  <m_score__min__rmsd>  (55) 
8.267027961707173

>  <meeko>  (55) 
{"free_energy": -5.94, "intermolecular_energy": -8.62, "internal_energy": -1.73, "cluster_size": 1, "cluster_id": 9, "rank_in_cluster": 1}

>  <energy>  (55) 
-7.24

>  <cluster_rmsd>  (55) 
1.78

>  <cluster>  (55) 
1

$$$$

     RDKit          3D

 42 43  0  0  1  0  0  0  0  0999 V2000
  140.0490   75.1560  222.0550 O   0  0  0  0  0  0  0  0  0  0  0  0
  140.9660   74.4000  221.6450 C   0  0  0  0  0  0  0  0  0  0  0  0
  142.0720   74.8680  220.7720 C   0  0  0  0  0  0  0  0  0  0  0  0
  141.6570   75.9230  219.8100 C   0  0  0  0  0  0  0  0  0  0  0  0
  142.2000   77.2700  220.3510 C   0  0  0  0  0  0  0  0  0  0  0  0
  141.4050   77.9300  221.1350 O   0  0  0  0  0  0  0  0  0  0  0  0
  140.6200   78.5790  221.9080 C   0  0  0  0  0  0  0  0  0  0  0  0
  139.2390   78.3350  221.9550 C   0  0  0  0  0  0  0  0  0  0  0  0
  138.3950   79.0310  222.7860 C   0  0  0  0  0  0  0  0  0  0  0  0
  138.9450   79.9970  223.5890 C   0  0  0  0  0  0  0  0  0  0  0  0
  137.8900   80.8900  224.6480 Cl  0  0  0  0  0  0  0  0  0  0  0  0
  140.2840   80.2950  223.6010 C   0  0  0  0  0  0  0  0  0  0  0  0
  141.1020   79.5850  222.7630 C   0  0  0  0  0  0  0  0  0  0  0  0
  142.8120   79.9190  222.7340 Cl  0  0  0  0  0  0  0  0  0  0  0  0
  141.0070   72.9970  222.0020 N   0  0  0  0  0  0  0  0  0  0  0  0
  140.0080   72.5270  222.8050 N   0  0  0  0  0  0  0  0  0  0  0  0
  139.9260   71.3140  223.1450 C   0  0  0  0  0  0  0  0  0  0  0  0
  139.9540   70.7100  224.4450 C   0  0  0  0  0  0  0  0  0  0  0  0
  139.6070   69.4340  224.7820 C   0  0  0  0  0  0  0  0  0  0  0  0
  139.6570   68.9280  226.0740 C   0  0  0  0  0  0  0  0  0  0  0  0
  140.0750   69.7230  227.1020 C   0  0  0  0  0  0  0  0  0  0  0  0
  140.4320   71.0180  226.7880 C   0  0  0  0  0  0  0  0  0  0  0  0
  140.8870   71.8950  227.8860 C   0  0  0  0  0  0  0  0  0  0  0  0
  141.4250   73.0560  227.3670 F   0  0  0  0  0  0  0  0  0  0  0  0
  139.8000   72.2400  228.6900 F   0  0  0  0  0  0  0  0  0  0  0  0
  141.7860   71.2590  228.7240 F   0  0  0  0  0  0  0  0  0  0  0  0
  140.3810   71.5140  225.5070 C   0  0  0  0  0  0  0  0  0  0  0  0
  142.8724   75.2721  221.4092 H   0  0  0  0  0  0  0  0  0  0  0  0
  142.4085   74.0032  220.1813 H   0  0  0  0  0  0  0  0  0  0  0  0
  142.0817   75.7163  218.8166 H   0  0  0  0  0  0  0  0  0  0  0  0
  140.5620   75.9535  219.7098 H   0  0  0  0  0  0  0  0  0  0  0  0
  143.1248   77.0604  220.9085 H   0  0  0  0  0  0  0  0  0  0  0  0
  142.3422   77.9089  219.4669 H   0  0  0  0  0  0  0  0  0  0  0  0
  138.8163   77.5573  221.3020 H   0  0  0  0  0  0  0  0  0  0  0  0
  137.3155   78.8207  222.8065 H   0  0  0  0  0  0  0  0  0  0  0  0
  140.6868   81.0774  224.2610 H   0  0  0  0  0  0  0  0  0  0  0  0
  141.7820   72.3720  221.6260 H   0  0  0  0  0  0  0  0  0  0  0  0
  139.8153   70.6069  222.3097 H   0  0  0  0  0  0  0  0  0  0  0  0
  139.2660   68.7638  223.9791 H   0  0  0  0  0  0  0  0  0  0  0  0
  139.3599   67.8870  226.2691 H   0  0  0  0  0  0  0  0  0  0  0  0
  140.1249   69.3477  228.1348 H   0  0  0  0  0  0  0  0  0  0  0  0
  140.6794   72.5552  225.3149 H   0  0  0  0  0  0  0  0  0  0  0  0
  1  2  2  0
  2  3  1  0
  3  4  1  0
  4  5  1  0
  5  6  1  0
  6  7  1  0
  7  8  2  0
  8  9  1  0
  9 10  2  0
 10 11  1  0
 10 12  1  0
 12 13  2  0
 13 14  1  0
  2 15  1  0
 15 16  1  0
 16 17  2  0
 17 18  1  0
 18 19  2  0
 19 20  1  0
 20 21  2  0
 21 22  1  0
 22 23  1  0
 23 24  1  0
 23 25  1  0
 23 26  1  0
 22 27  2  0
 13  7  1  0
 27 18  1  0
  3 28  1  0
  3 29  1  0
  4 30  1  0
  4 31  1  0
  5 32  1  0
  5 33  1  0
  8 34  1  0
  9 35  1  0
 12 36  1  0
 15 37  1  0
 17 38  1  0
 19 39  1  0
 20 40  1  0
 21 41  1  0
 27 42  1  0
M  END
>  <smiles>  (56) 
O=C(CCCOc1ccc(Cl)cc1Cl)NN=Cc1cccc(C(F)(F)F)c1

>  <score_type>  (56) 
oracle

>  <origin>  (56) 
autodockgpu

>  <m_score__min__energy>  (56) 
-7.79

>  <m_primary>  (56) 
energy

>  <rmsd>  (56) 
5.588501797544656

>  <m_score__min__rmsd>  (56) 
5.588501797544656

>  <meeko>  (56) 
{"free_energy": -6.98, "intermolecular_energy": -9.66, "internal_energy": -0.89, "cluster_size": 9, "cluster_id": 2, "rank_in_cluster": 3}

>  <energy>  (56) 
-7.16

>  <cluster_rmsd>  (56) 
1.24

>  <cluster>  (56) 
1

$$$$

     RDKit          3D

 42 43  0  0  1  0  0  0  0  0999 V2000
  139.4940   73.7860  219.9170 O   0  0  0  0  0  0  0  0  0  0  0  0
  138.7190   73.8920  220.9020 C   0  0  0  0  0  0  0  0  0  0  0  0
  137.3330   74.4130  220.7890 C   0  0  0  0  0  0  0  0  0  0  0  0
  137.2560   75.8970  220.8220 C   0  0  0  0  0  0  0  0  0  0  0  0
  137.3770   76.3240  222.3070 C   0  0  0  0  0  0  0  0  0  0  0  0
  138.3300   77.1610  222.5820 O   0  0  0  0  0  0  0  0  0  0  0  0
  139.2680   77.9850  222.8580 C   0  0  0  0  0  0  0  0  0  0  0  0
  139.0310   79.2060  223.5040 C   0  0  0  0  0  0  0  0  0  0  0  0
  140.0380   80.0920  223.8000 C   0  0  0  0  0  0  0  0  0  0  0  0
  141.3150   79.7480  223.4380 C   0  0  0  0  0  0  0  0  0  0  0  0
  142.6040   80.8590  223.8040 Cl  0  0  0  0  0  0  0  0  0  0  0  0
  141.6290   78.5740  222.8030 C   0  0  0  0  0  0  0  0  0  0  0  0
  140.6040   77.7090  222.5210 C   0  0  0  0  0  0  0  0  0  0  0  0
  140.9410   76.2010  221.7160 Cl  0  0  0  0  0  0  0  0  0  0  0  0
  139.1310   73.5070  222.2350 N   0  0  0  0  0  0  0  0  0  0  0  0
  140.3990   73.0230  222.3820 N   0  0  0  0  0  0  0  0  0  0  0  0
  140.6340   71.8530  222.7950 C   0  0  0  0  0  0  0  0  0  0  0  0
  140.1950   71.1810  223.9830 C   0  0  0  0  0  0  0  0  0  0  0  0
  139.3320   70.1290  224.0780 C   0  0  0  0  0  0  0  0  0  0  0  0
  138.9520   69.5370  225.2750 C   0  0  0  0  0  0  0  0  0  0  0  0
  139.4510   70.0070  226.4560 C   0  0  0  0  0  0  0  0  0  0  0  0
  140.3260   71.0710  226.3880 C   0  0  0  0  0  0  0  0  0  0  0  0
  140.8770   71.5950  227.6530 C   0  0  0  0  0  0  0  0  0  0  0  0
  141.8000   72.5870  227.3890 F   0  0  0  0  0  0  0  0  0  0  0  0
  139.8490   72.1490  228.4180 F   0  0  0  0  0  0  0  0  0  0  0  0
  141.4290   70.5960  228.4360 F   0  0  0  0  0  0  0  0  0  0  0  0
  140.6990   71.6530  225.2000 C   0  0  0  0  0  0  0  0  0  0  0  0
  136.9052   74.0627  219.8381 H   0  0  0  0  0  0  0  0  0  0  0  0
  136.7735   74.0392  221.6592 H   0  0  0  0  0  0  0  0  0  0  0  0
  138.0793   76.3311  220.2358 H   0  0  0  0  0  0  0  0  0  0  0  0
  136.3093   76.2508  220.3877 H   0  0  0  0  0  0  0  0  0  0  0  0
  136.4249   76.7891  222.6022 H   0  0  0  0  0  0  0  0  0  0  0  0
  137.6198   75.4053  222.8612 H   0  0  0  0  0  0  0  0  0  0  0  0
  137.9993   79.4646  223.7846 H   0  0  0  0  0  0  0  0  0  0  0  0
  139.8274   81.0439  224.3095 H   0  0  0  0  0  0  0  0  0  0  0  0
  142.6672   78.3348  222.5295 H   0  0  0  0  0  0  0  0  0  0  0  0
  138.4640   73.6260  223.0570 H   0  0  0  0  0  0  0  0  0  0  0  0
  141.2796   71.2526  222.1372 H   0  0  0  0  0  0  0  0  0  0  0  0
  138.9100   69.7236  223.1465 H   0  0  0  0  0  0  0  0  0  0  0  0
  138.2498   68.6903  225.2720 H   0  0  0  0  0  0  0  0  0  0  0  0
  139.1677   69.5570  227.4189 H   0  0  0  0  0  0  0  0  0  0  0  0
  141.4016   72.4993  225.2060 H   0  0  0  0  0  0  0  0  0  0  0  0
  1  2  2  0
  2  3  1  0
  3  4  1  0
  4  5  1  0
  5  6  1  0
  6  7  1  0
  7  8  2  0
  8  9  1  0
  9 10  2  0
 10 11  1  0
 10 12  1  0
 12 13  2  0
 13 14  1  0
  2 15  1  0
 15 16  1  0
 16 17  2  0
 17 18  1  0
 18 19  2  0
 19 20  1  0
 20 21  2  0
 21 22  1  0
 22 23  1  0
 23 24  1  0
 23 25  1  0
 23 26  1  0
 22 27  2  0
 13  7  1  0
 27 18  1  0
  3 28  1  0
  3 29  1  0
  4 30  1  0
  4 31  1  0
  5 32  1  0
  5 33  1  0
  8 34  1  0
  9 35  1  0
 12 36  1  0
 15 37  1  0
 17 38  1  0
 19 39  1  0
 20 40  1  0
 21 41  1  0
 27 42  1  0
M  END
>  <smiles>  (57) 
O=C(CCCOc1ccc(Cl)cc1Cl)NN=Cc1cccc(C(F)(F)F)c1

>  <score_type>  (57) 
oracle

>  <origin>  (57) 
autodockgpu

>  <m_score__min__energy>  (57) 
-7.79

>  <m_primary>  (57) 
energy

>  <rmsd>  (57) 
5.956659008247017

>  <m_score__min__rmsd>  (57) 
5.956659008247017

>  <meeko>  (57) 
{"free_energy": -6.93, "intermolecular_energy": -9.61, "internal_energy": -1.09, "cluster_size": 9, "cluster_id": 2, "rank_in_cluster": 6}

>  <energy>  (57) 
-7.09

>  <cluster_rmsd>  (57) 
1.71

>  <cluster>  (57) 
1

$$$$

     RDKit          3D

 42 43  0  0  1  0  0  0  0  0999 V2000
  141.0420   75.5000  222.2730 O   0  0  0  0  0  0  0  0  0  0  0  0
  139.8410   75.2450  221.9990 C   0  0  0  0  0  0  0  0  0  0  0  0
  138.9000   76.2600  221.4620 C   0  0  0  0  0  0  0  0  0  0  0  0
  137.7150   76.4830  222.3310 C   0  0  0  0  0  0  0  0  0  0  0  0
  136.5590   75.6290  221.7510 C   0  0  0  0  0  0  0  0  0  0  0  0
  136.2970   74.5250  222.3800 O   0  0  0  0  0  0  0  0  0  0  0  0
  136.0410   73.4380  223.0030 C   0  0  0  0  0  0  0  0  0  0  0  0
  136.4130   72.1810  222.5050 C   0  0  0  0  0  0  0  0  0  0  0  0
  136.1370   71.0120  223.1730 C   0  0  0  0  0  0  0  0  0  0  0  0
  135.4720   71.1030  224.3680 C   0  0  0  0  0  0  0  0  0  0  0  0
  135.1140   69.6320  225.2290 Cl  0  0  0  0  0  0  0  0  0  0  0  0
  135.0740   72.2930  224.9210 C   0  0  0  0  0  0  0  0  0  0  0  0
  135.3620   73.4430  224.2330 C   0  0  0  0  0  0  0  0  0  0  0  0
  134.8820   74.9860  224.8860 Cl  0  0  0  0  0  0  0  0  0  0  0  0
  139.2850   73.9220  222.1910 N   0  0  0  0  0  0  0  0  0  0  0  0
  140.1190   72.9590  222.6830 N   0  0  0  0  0  0  0  0  0  0  0  0
  139.7420   71.7700  222.8750 C   0  0  0  0  0  0  0  0  0  0  0  0
  139.6950   70.9930  224.0780 C   0  0  0  0  0  0  0  0  0  0  0  0
  139.1430   69.7580  224.2560 C   0  0  0  0  0  0  0  0  0  0  0  0
  139.1340   69.0740  225.4640 C   0  0  0  0  0  0  0  0  0  0  0  0
  139.7040   69.6360  226.5700 C   0  0  0  0  0  0  0  0  0  0  0  0
  140.2700   70.8850  226.4180 C   0  0  0  0  0  0  0  0  0  0  0  0
  140.8910   71.5110  227.6020 C   0  0  0  0  0  0  0  0  0  0  0  0
  141.5200   70.5490  228.3660 F   0  0  0  0  0  0  0  0  0  0  0  0
  141.8490   72.4380  227.1930 F   0  0  0  0  0  0  0  0  0  0  0  0
  139.9750   72.2250  228.3560 F   0  0  0  0  0  0  0  0  0  0  0  0
  140.2760   71.5570  225.2190 C   0  0  0  0  0  0  0  0  0  0  0  0
  139.4386   77.2131  221.3552 H   0  0  0  0  0  0  0  0  0  0  0  0
  138.5296   75.8821  220.4977 H   0  0  0  0  0  0  0  0  0  0  0  0
  137.9374   76.1675  223.3610 H   0  0  0  0  0  0  0  0  0  0  0  0
  137.4415   77.5482  222.3552 H   0  0  0  0  0  0  0  0  0  0  0  0
  135.6481   76.2455  221.7593 H   0  0  0  0  0  0  0  0  0  0  0  0
  136.8886   75.3269  220.7460 H   0  0  0  0  0  0  0  0  0  0  0  0
  136.9455   72.1286  221.5439 H   0  0  0  0  0  0  0  0  0  0  0  0
  136.4393   70.0372  222.7628 H   0  0  0  0  0  0  0  0  0  0  0  0
  134.5421   72.3236  225.8834 H   0  0  0  0  0  0  0  0  0  0  0  0
  138.2610   73.7350  221.9710 H   0  0  0  0  0  0  0  0  0  0  0  0
  139.3932   71.2455  221.9732 H   0  0  0  0  0  0  0  0  0  0  0  0
  138.6751   69.2732  223.3865 H   0  0  0  0  0  0  0  0  0  0  0  0
  138.6679   68.0798  225.5300 H   0  0  0  0  0  0  0  0  0  0  0  0
  139.7116   69.1160  227.5393 H   0  0  0  0  0  0  0  0  0  0  0  0
  140.7435   72.5507  225.1557 H   0  0  0  0  0  0  0  0  0  0  0  0
  1  2  2  0
  2  3  1  0
  3  4  1  0
  4  5  1  0
  5  6  1  0
  6  7  1  0
  7  8  2  0
  8  9  1  0
  9 10  2  0
 10 11  1  0
 10 12  1  0
 12 13  2  0
 13 14  1  0
  2 15  1  0
 15 16  1  0
 16 17  2  0
 17 18  1  0
 18 19  2  0
 19 20  1  0
 20 21  2  0
 21 22  1  0
 22 23  1  0
 23 24  1  0
 23 25  1  0
 23 26  1  0
 22 27  2  0
 13  7  1  0
 27 18  1  0
  3 28  1  0
  3 29  1  0
  4 30  1  0
  4 31  1  0
  5 32  1  0
  5 33  1  0
  8 34  1  0
  9 35  1  0
 12 36  1  0
 15 37  1  0
 17 38  1  0
 19 39  1  0
 20 40  1  0
 21 41  1  0
 27 42  1  0
M  END
>  <smiles>  (58) 
O=C(CCCOc1ccc(Cl)cc1Cl)NN=Cc1cccc(C(F)(F)F)c1

>  <score_type>  (58) 
oracle

>  <origin>  (58) 
autodockgpu

>  <m_score__min__energy>  (58) 
-7.79

>  <m_primary>  (58) 
energy

>  <rmsd>  (58) 
10.54341233789079

>  <m_score__min__rmsd>  (58) 
10.54341233789079

>  <meeko>  (58) 
{"free_energy": -5.19, "intermolecular_energy": -7.87, "internal_energy": -2.53, "cluster_size": 12, "cluster_id": 7, "rank_in_cluster": 11}

>  <energy>  (58) 
-7.0

>  <cluster_rmsd>  (58) 
1.45

>  <cluster>  (58) 
1

$$$$

     RDKit          3D

 42 43  0  0  1  0  0  0  0  0999 V2000
  141.3220   74.9270  221.7160 O   0  0  0  0  0  0  0  0  0  0  0  0
  140.0870   74.8360  221.9390 C   0  0  0  0  0  0  0  0  0  0  0  0
  139.1280   75.9260  221.6310 C   0  0  0  0  0  0  0  0  0  0  0  0
  138.1190   76.1430  222.7000 C   0  0  0  0  0  0  0  0  0  0  0  0
  136.7940   75.5060  222.2100 C   0  0  0  0  0  0  0  0  0  0  0  0
  136.4790   74.3660  222.7430 O   0  0  0  0  0  0  0  0  0  0  0  0
  136.1710   73.2400  223.2660 C   0  0  0  0  0  0  0  0  0  0  0  0
  136.6400   72.0210  222.7560 C   0  0  0  0  0  0  0  0  0  0  0  0
  136.3090   70.8110  223.3170 C   0  0  0  0  0  0  0  0  0  0  0  0
  135.4870   70.8210  224.4140 C   0  0  0  0  0  0  0  0  0  0  0  0
  135.0570   69.2970  225.1370 Cl  0  0  0  0  0  0  0  0  0  0  0  0
  134.9870   71.9700  224.9710 C   0  0  0  0  0  0  0  0  0  0  0  0
  135.3340   73.1620  224.3910 C   0  0  0  0  0  0  0  0  0  0  0  0
  134.7290   74.6560  225.0550 Cl  0  0  0  0  0  0  0  0  0  0  0  0
  139.5080   73.6430  222.5190 N   0  0  0  0  0  0  0  0  0  0  0  0
  140.3580   72.6170  222.8160 N   0  0  0  0  0  0  0  0  0  0  0  0
  139.9460   71.4680  223.1420 C   0  0  0  0  0  0  0  0  0  0  0  0
  139.8780   70.8350  224.4260 C   0  0  0  0  0  0  0  0  0  0  0  0
  139.3640   69.6070  224.7270 C   0  0  0  0  0  0  0  0  0  0  0  0
  139.3300   69.0680  226.0060 C   0  0  0  0  0  0  0  0  0  0  0  0
  139.8330   69.7780  227.0590 C   0  0  0  0  0  0  0  0  0  0  0  0
  140.3590   71.0230  226.7810 C   0  0  0  0  0  0  0  0  0  0  0  0
  140.9080   71.8060  227.9050 C   0  0  0  0  0  0  0  0  0  0  0  0
  139.8800   72.2660  228.7040 F   0  0  0  0  0  0  0  0  0  0  0  0
  141.7350   70.9950  228.6830 F   0  0  0  0  0  0  0  0  0  0  0  0
  141.7070   72.8510  227.4730 F   0  0  0  0  0  0  0  0  0  0  0  0
  140.3900   71.5510  225.5130 C   0  0  0  0  0  0  0  0  0  0  0  0
  139.6936   76.8589  221.4907 H   0  0  0  0  0  0  0  0  0  0  0  0
  138.5814   75.6311  220.7232 H   0  0  0  0  0  0  0  0  0  0  0  0
  138.4474   75.6610  223.6326 H   0  0  0  0  0  0  0  0  0  0  0  0
  137.9868   77.2161  222.9024 H   0  0  0  0  0  0  0  0  0  0  0  0
  135.9804   76.2143  222.4254 H   0  0  0  0  0  0  0  0  0  0  0  0
  136.9418   75.3016  221.1393 H   0  0  0  0  0  0  0  0  0  0  0  0
  137.2973   72.0337  221.8741 H   0  0  0  0  0  0  0  0  0  0  0  0
  136.6904   69.8671  222.9003 H   0  0  0  0  0  0  0  0  0  0  0  0
  134.3302   71.9360  225.8527 H   0  0  0  0  0  0  0  0  0  0  0  0
  138.4630   73.5980  222.7160 H   0  0  0  0  0  0  0  0  0  0  0  0
  139.5805   70.8545  222.3053 H   0  0  0  0  0  0  0  0  0  0  0  0
  138.9503   69.0060  223.9038 H   0  0  0  0  0  0  0  0  0  0  0  0
  138.8983   68.0698  226.1713 H   0  0  0  0  0  0  0  0  0  0  0  0
  139.8193   69.3753  228.0826 H   0  0  0  0  0  0  0  0  0  0  0  0
  140.8228   72.5492  225.3506 H   0  0  0  0  0  0  0  0  0  0  0  0
  1  2  2  0
  2  3  1  0
  3  4  1  0
  4  5  1  0
  5  6  1  0
  6  7  1  0
  7  8  2  0
  8  9  1  0
  9 10  2  0
 10 11  1  0
 10 12  1  0
 12 13  2  0
 13 14  1  0
  2 15  1  0
 15 16  1  0
 16 17  2  0
 17 18  1  0
 18 19  2  0
 19 20  1  0
 20 21  2  0
 21 22  1  0
 22 23  1  0
 23 24  1  0
 23 25  1  0
 23 26  1  0
 22 27  2  0
 13  7  1  0
 27 18  1  0
  3 28  1  0
  3 29  1  0
  4 30  1  0
  4 31  1  0
  5 32  1  0
  5 33  1  0
  8 34  1  0
  9 35  1  0
 12 36  1  0
 15 37  1  0
 17 38  1  0
 19 39  1  0
 20 40  1  0
 21 41  1  0
 27 42  1  0
M  END
>  <smiles>  (59) 
O=C(CCCOc1ccc(Cl)cc1Cl)NN=Cc1cccc(C(F)(F)F)c1

>  <score_type>  (59) 
oracle

>  <origin>  (59) 
autodockgpu

>  <m_score__min__energy>  (59) 
-7.79

>  <m_primary>  (59) 
energy

>  <rmsd>  (59) 
10.738172856368687

>  <m_score__min__rmsd>  (59) 
10.738172856368687

>  <meeko>  (59) 
{"free_energy": -5.7, "intermolecular_energy": -8.38, "internal_energy": -2.45, "cluster_size": 12, "cluster_id": 7, "rank_in_cluster": 5}

>  <energy>  (59) 
-6.86

>  <cluster_rmsd>  (59) 
1.27

>  <cluster>  (59) 
1

$$$$

     RDKit          3D

 42 43  0  0  1  0  0  0  0  0999 V2000
  139.4530   73.6630  222.3190 O   0  0  0  0  0  0  0  0  0  0  0  0
  140.2100   72.9570  221.6040 C   0  0  0  0  0  0  0  0  0  0  0  0
  140.6320   73.3520  220.2370 C   0  0  0  0  0  0  0  0  0  0  0  0
  141.4670   74.5810  220.2100 C   0  0  0  0  0  0  0  0  0  0  0  0
  140.4980   75.7900  220.2610 C   0  0  0  0  0  0  0  0  0  0  0  0
  140.8820   76.7970  220.9820 O   0  0  0  0  0  0  0  0  0  0  0  0
  141.2580   77.7910  221.6930 C   0  0  0  0  0  0  0  0  0  0  0  0
  141.2230   77.7690  223.0950 C   0  0  0  0  0  0  0  0  0  0  0  0
  141.6260   78.8370  223.8600 C   0  0  0  0  0  0  0  0  0  0  0  0
  142.0730   79.9560  223.2060 C   0  0  0  0  0  0  0  0  0  0  0  0
  142.5870   81.3190  224.1600 Cl  0  0  0  0  0  0  0  0  0  0  0  0
  142.1370   80.0560  221.8400 C   0  0  0  0  0  0  0  0  0  0  0  0
  141.7290   78.9760  221.1030 C   0  0  0  0  0  0  0  0  0  0  0  0
  141.7880   79.0440  219.3620 Cl  0  0  0  0  0  0  0  0  0  0  0  0
  140.7300   71.6900  222.0740 N   0  0  0  0  0  0  0  0  0  0  0  0
  140.3650   71.2910  223.3280 N   0  0  0  0  0  0  0  0  0  0  0  0
  140.7550   71.8880  224.3700 C   0  0  0  0  0  0  0  0  0  0  0  0
  140.8360   71.4330  225.7260 C   0  0  0  0  0  0  0  0  0  0  0  0
  141.0780   72.1750  226.8450 C   0  0  0  0  0  0  0  0  0  0  0  0
  141.1480   71.6510  228.1290 C   0  0  0  0  0  0  0  0  0  0  0  0
  140.9680   70.3130  228.3300 C   0  0  0  0  0  0  0  0  0  0  0  0
  140.7220   69.5390  227.2150 C   0  0  0  0  0  0  0  0  0  0  0  0
  140.5260   68.0890  227.4100 C   0  0  0  0  0  0  0  0  0  0  0  0
  140.5500   67.7890  228.7570 F   0  0  0  0  0  0  0  0  0  0  0  0
  139.2830   67.7110  226.9020 F   0  0  0  0  0  0  0  0  0  0  0  0
  141.4580   67.3370  226.7150 F   0  0  0  0  0  0  0  0  0  0  0  0
  140.6540   70.0630  225.9460 C   0  0  0  0  0  0  0  0  0  0  0  0
  141.2121   72.5265  219.7988 H   0  0  0  0  0  0  0  0  0  0  0  0
  139.7180   73.5673  219.6641 H   0  0  0  0  0  0  0  0  0  0  0  0
  142.1399   74.5995  221.0800 H   0  0  0  0  0  0  0  0  0  0  0  0
  142.0873   74.6137  219.3021 H   0  0  0  0  0  0  0  0  0  0  0  0
  140.3537   76.1491  219.2313 H   0  0  0  0  0  0  0  0  0  0  0  0
  139.5815   75.4151  220.7400 H   0  0  0  0  0  0  0  0  0  0  0  0
  140.8593   76.8627  223.6012 H   0  0  0  0  0  0  0  0  0  0  0  0
  141.5912   78.7956  224.9587 H   0  0  0  0  0  0  0  0  0  0  0  0
  142.5033   80.9718  221.3529 H   0  0  0  0  0  0  0  0  0  0  0  0
  141.3520   71.1010  221.4430 H   0  0  0  0  0  0  0  0  0  0  0  0
  141.0860   72.9249  224.2109 H   0  0  0  0  0  0  0  0  0  0  0  0
  141.2273   73.2579  226.7222 H   0  0  0  0  0  0  0  0  0  0  0  0
  141.3484   72.3138  228.9837 H   0  0  0  0  0  0  0  0  0  0  0  0
  141.0169   69.8716  229.3364 H   0  0  0  0  0  0  0  0  0  0  0  0
  140.4542   69.3975  225.0933 H   0  0  0  0  0  0  0  0  0  0  0  0
  1  2  2  0
  2  3  1  0
  3  4  1  0
  4  5  1  0
  5  6  1  0
  6  7  1  0
  7  8  2  0
  8  9  1  0
  9 10  2  0
 10 11  1  0
 10 12  1  0
 12 13  2  0
 13 14  1  0
  2 15  1  0
 15 16  1  0
 16 17  2  0
 17 18  1  0
 18 19  2  0
 19 20  1  0
 20 21  2  0
 21 22  1  0
 22 23  1  0
 23 24  1  0
 23 25  1  0
 23 26  1  0
 22 27  2  0
 13  7  1  0
 27 18  1  0
  3 28  1  0
  3 29  1  0
  4 30  1  0
  4 31  1  0
  5 32  1  0
  5 33  1  0
  8 34  1  0
  9 35  1  0
 12 36  1  0
 15 37  1  0
 17 38  1  0
 19 39  1  0
 20 40  1  0
 21 41  1  0
 27 42  1  0
M  END
>  <smiles>  (60) 
O=C(CCCOc1ccc(Cl)cc1Cl)NN=Cc1cccc(C(F)(F)F)c1

>  <score_type>  (60) 
oracle

>  <origin>  (60) 
autodockgpu

>  <m_score__min__energy>  (60) 
-7.79

>  <m_primary>  (60) 
energy

>  <rmsd>  (60) 
5.998742087382598

>  <m_score__min__rmsd>  (60) 
5.998742087382598

>  <meeko>  (60) 
{"free_energy": -7.29, "intermolecular_energy": -9.97, "internal_energy": -0.7, "cluster_size": 10, "cluster_id": 1, "rank_in_cluster": 3}

>  <energy>  (60) 
-6.76

>  <cluster_rmsd>  (60) 
1.82

>  <cluster>  (60) 
1

$$$$

     RDKit          3D

 42 43  0  0  1  0  0  0  0  0999 V2000
  140.3900   74.1130  222.2850 O   0  0  0  0  0  0  0  0  0  0  0  0
  139.5220   73.3870  221.7370 C   0  0  0  0  0  0  0  0  0  0  0  0
  138.5540   73.9010  220.7350 C   0  0  0  0  0  0  0  0  0  0  0  0
  138.9940   75.1620  220.0830 C   0  0  0  0  0  0  0  0  0  0  0  0
  138.3550   76.3300  220.8760 C   0  0  0  0  0  0  0  0  0  0  0  0
  139.1820   77.1590  221.4340 O   0  0  0  0  0  0  0  0  0  0  0  0
  139.9960   77.9750  221.9870 C   0  0  0  0  0  0  0  0  0  0  0  0
  139.6400   78.7590  223.0940 C   0  0  0  0  0  0  0  0  0  0  0  0
  140.5130   79.6370  223.6880 C   0  0  0  0  0  0  0  0  0  0  0  0
  141.7750   79.7340  223.1620 C   0  0  0  0  0  0  0  0  0  0  0  0
  142.8960   80.8420  223.9020 Cl  0  0  0  0  0  0  0  0  0  0  0  0
  142.2010   79.0030  222.0820 C   0  0  0  0  0  0  0  0  0  0  0  0
  141.3080   78.1360  221.5100 C   0  0  0  0  0  0  0  0  0  0  0  0
  141.7910   77.1790  220.1350 Cl  0  0  0  0  0  0  0  0  0  0  0  0
  139.4050   71.9790  222.0490 N   0  0  0  0  0  0  0  0  0  0  0  0
  140.2780   71.4680  222.9660 N   0  0  0  0  0  0  0  0  0  0  0  0
  139.8940   70.8270  223.9840 C   0  0  0  0  0  0  0  0  0  0  0  0
  140.3170   70.9130  225.3510 C   0  0  0  0  0  0  0  0  0  0  0  0
  140.8970   71.9740  225.9820 C   0  0  0  0  0  0  0  0  0  0  0  0
  141.2850   71.9720  227.3150 C   0  0  0  0  0  0  0  0  0  0  0  0
  141.0920   70.8580  228.0800 C   0  0  0  0  0  0  0  0  0  0  0  0
  140.5060   69.7700  227.4650 C   0  0  0  0  0  0  0  0  0  0  0  0
  140.2890   68.5550  228.2750 C   0  0  0  0  0  0  0  0  0  0  0  0
  141.5030   68.0250  228.6630 F   0  0  0  0  0  0  0  0  0  0  0  0
  139.5670   68.8790  229.4240 F   0  0  0  0  0  0  0  0  0  0  0  0
  139.5260   67.6120  227.6070 F   0  0  0  0  0  0  0  0  0  0  0  0
  140.1240   69.7780  226.1450 C   0  0  0  0  0  0  0  0  0  0  0  0
  138.4175   73.1353  219.9571 H   0  0  0  0  0  0  0  0  0  0  0  0
  137.6184   74.1210  221.2700 H   0  0  0  0  0  0  0  0  0  0  0  0
  140.0908   75.2402  220.1137 H   0  0  0  0  0  0  0  0  0  0  0  0
  138.6828   75.1875  219.0282 H   0  0  0  0  0  0  0  0  0  0  0  0
  137.7227   76.9022  220.1811 H   0  0  0  0  0  0  0  0  0  0  0  0
  137.8038   75.8595  221.7035 H   0  0  0  0  0  0  0  0  0  0  0  0
  138.6226   78.6671  223.5020 H   0  0  0  0  0  0  0  0  0  0  0  0
  140.2100   80.2414  224.5557 H   0  0  0  0  0  0  0  0  0  0  0  0
  143.2231   79.1093  221.6895 H   0  0  0  0  0  0  0  0  0  0  0  0
  138.6480   71.3900  221.5870 H   0  0  0  0  0  0  0  0  0  0  0  0
  139.1079   70.0823  223.7905 H   0  0  0  0  0  0  0  0  0  0  0  0
  141.0683   72.8899  225.3973 H   0  0  0  0  0  0  0  0  0  0  0  0
  141.7478   72.8678  227.7546 H   0  0  0  0  0  0  0  0  0  0  0  0
  141.3899   70.8287  229.1385 H   0  0  0  0  0  0  0  0  0  0  0  0
  139.6609   68.8811  225.7077 H   0  0  0  0  0  0  0  0  0  0  0  0
  1  2  2  0
  2  3  1  0
  3  4  1  0
  4  5  1  0
  5  6  1  0
  6  7  1  0
  7  8  2  0
  8  9  1  0
  9 10  2  0
 10 11  1  0
 10 12  1  0
 12 13  2  0
 13 14  1  0
  2 15  1  0
 15 16  1  0
 16 17  2  0
 17 18  1  0
 18 19  2  0
 19 20  1  0
 20 21  2  0
 21 22  1  0
 22 23  1  0
 23 24  1  0
 23 25  1  0
 23 26  1  0
 22 27  2  0
 13  7  1  0
 27 18  1  0
  3 28  1  0
  3 29  1  0
  4 30  1  0
  4 31  1  0
  5 32  1  0
  5 33  1  0
  8 34  1  0
  9 35  1  0
 12 36  1  0
 15 37  1  0
 17 38  1  0
 19 39  1  0
 20 40  1  0
 21 41  1  0
 27 42  1  0
M  END
>  <smiles>  (61) 
O=C(CCCOc1ccc(Cl)cc1Cl)NN=Cc1cccc(C(F)(F)F)c1

>  <score_type>  (61) 
oracle

>  <origin>  (61) 
autodockgpu

>  <m_score__min__energy>  (61) 
-7.79

>  <m_primary>  (61) 
energy

>  <rmsd>  (61) 
5.546733494374949

>  <m_score__min__rmsd>  (61) 
5.546733494374949

>  <meeko>  (61) 
{"free_energy": -7.0, "intermolecular_energy": -9.68, "internal_energy": -0.92, "cluster_size": 10, "cluster_id": 1, "rank_in_cluster": 8}

>  <energy>  (61) 
-7.34

>  <cluster_rmsd>  (61) 
0.0

>  <cluster>  (61) 
2

$$$$

     RDKit          3D

 42 43  0  0  1  0  0  0  0  0999 V2000
  140.0010   72.9010  220.1130 O   0  0  0  0  0  0  0  0  0  0  0  0
  139.4970   73.7860  220.8510 C   0  0  0  0  0  0  0  0  0  0  0  0
  138.7520   74.9550  220.3210 C   0  0  0  0  0  0  0  0  0  0  0  0
  137.3380   75.0110  220.7780 C   0  0  0  0  0  0  0  0  0  0  0  0
  137.3490   75.5800  222.2190 C   0  0  0  0  0  0  0  0  0  0  0  0
  138.2460   76.4840  222.4670 O   0  0  0  0  0  0  0  0  0  0  0  0
  139.1300   77.3760  222.7080 C   0  0  0  0  0  0  0  0  0  0  0  0
  140.5050   77.1020  222.6690 C   0  0  0  0  0  0  0  0  0  0  0  0
  141.4550   78.0600  222.9290 C   0  0  0  0  0  0  0  0  0  0  0  0
  141.0190   79.3230  223.2360 C   0  0  0  0  0  0  0  0  0  0  0  0
  142.2100   80.5490  223.5680 Cl  0  0  0  0  0  0  0  0  0  0  0  0
  139.6940   79.6700  223.2950 C   0  0  0  0  0  0  0  0  0  0  0  0
  138.7680   78.6950  223.0310 C   0  0  0  0  0  0  0  0  0  0  0  0
  137.0690   79.0760  223.0910 Cl  0  0  0  0  0  0  0  0  0  0  0  0
  139.6090   73.7220  222.2930 N   0  0  0  0  0  0  0  0  0  0  0  0
  140.2870   72.6610  222.8210 N   0  0  0  0  0  0  0  0  0  0  0  0
  139.7000   71.6310  223.2560 C   0  0  0  0  0  0  0  0  0  0  0  0
  139.9300   70.8620  224.4440 C   0  0  0  0  0  0  0  0  0  0  0  0
  139.7820   69.5160  224.6120 C   0  0  0  0  0  0  0  0  0  0  0  0
  140.0200   68.8480  225.8050 C   0  0  0  0  0  0  0  0  0  0  0  0
  140.4290   69.5440  226.9060 C   0  0  0  0  0  0  0  0  0  0  0  0
  140.5860   70.9070  226.7630 C   0  0  0  0  0  0  0  0  0  0  0  0
  141.0280   71.6780  227.9420 C   0  0  0  0  0  0  0  0  0  0  0  0
  141.8240   70.8890  228.7490 F   0  0  0  0  0  0  0  0  0  0  0  0
  141.7810   72.7770  227.5280 F   0  0  0  0  0  0  0  0  0  0  0  0
  139.9620   72.2010  228.6540 F   0  0  0  0  0  0  0  0  0  0  0  0
  140.3500   71.5630  225.5790 C   0  0  0  0  0  0  0  0  0  0  0  0
  139.2617   75.8722  220.6512 H   0  0  0  0  0  0  0  0  0  0  0  0
  138.7355   74.8599  219.2252 H   0  0  0  0  0  0  0  0  0  0  0  0
  136.7533   75.6678  220.1171 H   0  0  0  0  0  0  0  0  0  0  0  0
  136.8783   74.0119  220.7543 H   0  0  0  0  0  0  0  0  0  0  0  0
  136.3614   76.0238  222.4131 H   0  0  0  0  0  0  0  0  0  0  0  0
  137.5967   74.7298  222.8715 H   0  0  0  0  0  0  0  0  0  0  0  0
  140.8350   76.0824  222.4211 H   0  0  0  0  0  0  0  0  0  0  0  0
  142.5283   77.8218  222.8921 H   0  0  0  0  0  0  0  0  0  0  0  0
  139.3849   80.6955  223.5456 H   0  0  0  0  0  0  0  0  0  0  0  0
  139.1910   74.4930  222.8970 H   0  0  0  0  0  0  0  0  0  0  0  0
  138.8799   71.2647  222.6210 H   0  0  0  0  0  0  0  0  0  0  0  0
  139.4530   68.9223  223.7464 H   0  0  0  0  0  0  0  0  0  0  0  0
  139.8792   67.7586  225.8634 H   0  0  0  0  0  0  0  0  0  0  0  0
  140.6246   69.0404  227.8642 H   0  0  0  0  0  0  0  0  0  0  0  0
  140.4931   72.6522  225.5231 H   0  0  0  0  0  0  0  0  0  0  0  0
  1  2  2  0
  2  3  1  0
  3  4  1  0
  4  5  1  0
  5  6  1  0
  6  7  1  0
  7  8  2  0
  8  9  1  0
  9 10  2  0
 10 11  1  0
 10 12  1  0
 12 13  2  0
 13 14  1  0
  2 15  1  0
 15 16  1  0
 16 17  2  0
 17 18  1  0
 18 19  2  0
 19 20  1  0
 20 21  2  0
 21 22  1  0
 22 23  1  0
 23 24  1  0
 23 25  1  0
 23 26  1  0
 22 27  2  0
 13  7  1  0
 27 18  1  0
  3 28  1  0
  3 29  1  0
  4 30  1  0
  4 31  1  0
  5 32  1  0
  5 33  1  0
  8 34  1  0
  9 35  1  0
 12 36  1  0
 15 37  1  0
 17 38  1  0
 19 39  1  0
 20 40  1  0
 21 41  1  0
 27 42  1  0
M  END
>  <smiles>  (62) 
O=C(CCCOc1ccc(Cl)cc1Cl)NN=Cc1cccc(C(F)(F)F)c1

>  <score_type>  (62) 
oracle

>  <origin>  (62) 
autodockgpu

>  <m_score__min__energy>  (62) 
-7.79

>  <m_primary>  (62) 
energy

>  <rmsd>  (62) 
6.626763490333027

>  <m_score__min__rmsd>  (62) 
6.626763490333027

>  <meeko>  (62) 
{"free_energy": -6.76, "intermolecular_energy": -9.44, "internal_energy": -1.5, "cluster_size": 10, "cluster_id": 1, "rank_in_cluster": 10}

>  <energy>  (62) 
-7.0

>  <cluster_rmsd>  (62) 
1.71

>  <cluster>  (62) 
2

$$$$

     RDKit          3D

 42 43  0  0  1  0  0  0  0  0999 V2000
  140.1490   73.7920  222.2860 O   0  0  0  0  0  0  0  0  0  0  0  0
  141.0530   74.3240  221.5910 C   0  0  0  0  0  0  0  0  0  0  0  0
  141.8200   73.5840  220.5580 C   0  0  0  0  0  0  0  0  0  0  0  0
  143.2440   74.0020  220.4680 C   0  0  0  0  0  0  0  0  0  0  0  0
  143.4590   74.5780  219.0460 C   0  0  0  0  0  0  0  0  0  0  0  0
  143.1110   75.8160  218.8740 O   0  0  0  0  0  0  0  0  0  0  0  0
  142.7710   77.0370  218.7040 C   0  0  0  0  0  0  0  0  0  0  0  0
  142.2390   77.8200  219.7380 C   0  0  0  0  0  0  0  0  0  0  0  0
  141.8730   79.1320  219.5560 C   0  0  0  0  0  0  0  0  0  0  0  0
  142.0430   79.6730  218.3080 C   0  0  0  0  0  0  0  0  0  0  0  0
  141.5840   81.3340  218.0580 Cl  0  0  0  0  0  0  0  0  0  0  0  0
  142.5550   78.9740  217.2450 C   0  0  0  0  0  0  0  0  0  0  0  0
  142.9110   77.6670  217.4560 C   0  0  0  0  0  0  0  0  0  0  0  0
  143.5690   76.7270  216.1440 Cl  0  0  0  0  0  0  0  0  0  0  0  0
  141.4110   75.7170  221.7530 N   0  0  0  0  0  0  0  0  0  0  0  0
  140.7280   76.4330  222.6930 N   0  0  0  0  0  0  0  0  0  0  0  0
  140.3020   77.6020  222.4780 C   0  0  0  0  0  0  0  0  0  0  0  0
  140.8940   78.8750  222.7680 C   0  0  0  0  0  0  0  0  0  0  0  0
  141.9380   79.1410  223.6060 C   0  0  0  0  0  0  0  0  0  0  0  0
  142.4480   80.4120  223.8380 C   0  0  0  0  0  0  0  0  0  0  0  0
  141.9000   81.4920  223.2080 C   0  0  0  0  0  0  0  0  0  0  0  0
  140.8420   81.2500  222.3550 C   0  0  0  0  0  0  0  0  0  0  0  0
  140.2350   82.4040  221.6640 C   0  0  0  0  0  0  0  0  0  0  0  0
  141.1500   83.4340  221.5760 F   0  0  0  0  0  0  0  0  0  0  0  0
  139.8680   82.0360  220.3690 F   0  0  0  0  0  0  0  0  0  0  0  0
  139.0680   82.8260  222.2780 F   0  0  0  0  0  0  0  0  0  0  0  0
  140.3420   79.9900  222.1290 C   0  0  0  0  0  0  0  0  0  0  0  0
  141.7860   72.5115  220.8000 H   0  0  0  0  0  0  0  0  0  0  0  0
  141.3543   73.8058  219.5865 H   0  0  0  0  0  0  0  0  0  0  0  0
  143.4601   74.7715  221.2238 H   0  0  0  0  0  0  0  0  0  0  0  0
  143.9151   73.1500  220.6516 H   0  0  0  0  0  0  0  0  0  0  0  0
  144.5294   74.4933  218.8072 H   0  0  0  0  0  0  0  0  0  0  0  0
  142.8021   73.9916  218.3867 H   0  0  0  0  0  0  0  0  0  0  0  0
  142.1097   77.3673  220.7322 H   0  0  0  0  0  0  0  0  0  0  0  0
  141.4582   79.7272  220.3828 H   0  0  0  0  0  0  0  0  0  0  0  0
  142.6757   79.4452  216.2584 H   0  0  0  0  0  0  0  0  0  0  0  0
  142.1930   76.1400  221.1670 H   0  0  0  0  0  0  0  0  0  0  0  0
  139.3178   77.6516  221.9893 H   0  0  0  0  0  0  0  0  0  0  0  0
  142.4053   78.2949  224.1311 H   0  0  0  0  0  0  0  0  0  0  0  0
  143.2930   80.5482  224.5290 H   0  0  0  0  0  0  0  0  0  0  0  0
  142.2843   82.5094  223.3727 H   0  0  0  0  0  0  0  0  0  0  0  0
  139.4973   79.8568  221.4371 H   0  0  0  0  0  0  0  0  0  0  0  0
  1  2  2  0
  2  3  1  0
  3  4  1  0
  4  5  1  0
  5  6  1  0
  6  7  1  0
  7  8  2  0
  8  9  1  0
  9 10  2  0
 10 11  1  0
 10 12  1  0
 12 13  2  0
 13 14  1  0
  2 15  1  0
 15 16  1  0
 16 17  2  0
 17 18  1  0
 18 19  2  0
 19 20  1  0
 20 21  2  0
 21 22  1  0
 22 23  1  0
 23 24  1  0
 23 25  1  0
 23 26  1  0
 22 27  2  0
 13  7  1  0
 27 18  1  0
  3 28  1  0
  3 29  1  0
  4 30  1  0
  4 31  1  0
  5 32  1  0
  5 33  1  0
  8 34  1  0
  9 35  1  0
 12 36  1  0
 15 37  1  0
 17 38  1  0
 19 39  1  0
 20 40  1  0
 21 41  1  0
 27 42  1  0
M  END
>  <smiles>  (63) 
O=C(CCCOc1ccc(Cl)cc1Cl)NN=Cc1cccc(C(F)(F)F)c1

>  <score_type>  (63) 
oracle

>  <origin>  (63) 
autodockgpu

>  <m_score__min__energy>  (63) 
-7.79

>  <m_primary>  (63) 
energy

>  <rmsd>  (63) 
7.574552705831149

>  <m_score__min__rmsd>  (63) 
7.574552705831149

>  <meeko>  (63) 
{"free_energy": -5.83, "intermolecular_energy": -8.51, "internal_energy": -1.94, "cluster_size": 1, "cluster_id": 10, "rank_in_cluster": 1}

>  <energy>  (63) 
-6.98

>  <cluster_rmsd>  (63) 
1.89

>  <cluster>  (63) 
2

$$$$

     RDKit          3D

 42 43  0  0  1  0  0  0  0  0999 V2000
  139.3970   75.2590  222.6670 O   0  0  0  0  0  0  0  0  0  0  0  0
  139.0180   74.4290  221.8010 C   0  0  0  0  0  0  0  0  0  0  0  0
  138.0180   74.7540  220.7530 C   0  0  0  0  0  0  0  0  0  0  0  0
  138.3200   76.0100  220.0180 C   0  0  0  0  0  0  0  0  0  0  0  0
  139.8630   76.1130  219.9110 C   0  0  0  0  0  0  0  0  0  0  0  0
  140.4280   76.9960  220.6760 O   0  0  0  0  0  0  0  0  0  0  0  0
  140.9890   77.8650  221.4280 C   0  0  0  0  0  0  0  0  0  0  0  0
  141.0320   77.7360  222.8240 C   0  0  0  0  0  0  0  0  0  0  0  0
  141.6330   78.6690  223.6320 C   0  0  0  0  0  0  0  0  0  0  0  0
  142.2050   79.7600  223.0300 C   0  0  0  0  0  0  0  0  0  0  0  0
  142.9710   80.9540  224.0400 Cl  0  0  0  0  0  0  0  0  0  0  0  0
  142.2050   79.9590  221.6730 C   0  0  0  0  0  0  0  0  0  0  0  0
  141.5980   79.0120  220.8910 C   0  0  0  0  0  0  0  0  0  0  0  0
  141.5660   79.2100  219.1600 Cl  0  0  0  0  0  0  0  0  0  0  0  0
  139.5410   73.0800  221.7660 N   0  0  0  0  0  0  0  0  0  0  0  0
  140.4640   72.7420  222.7130 N   0  0  0  0  0  0  0  0  0  0  0  0
  140.6340   71.5530  223.1020 C   0  0  0  0  0  0  0  0  0  0  0  0
  140.3050   70.9270  224.3480 C   0  0  0  0  0  0  0  0  0  0  0  0
  139.5970   69.7770  224.5460 C   0  0  0  0  0  0  0  0  0  0  0  0
  139.3160   69.2390  225.7950 C   0  0  0  0  0  0  0  0  0  0  0  0
  139.7560   69.8690  226.9230 C   0  0  0  0  0  0  0  0  0  0  0  0
  140.4740   71.0340  226.7510 C   0  0  0  0  0  0  0  0  0  0  0  0
  140.9590   71.7310  227.9590 C   0  0  0  0  0  0  0  0  0  0  0  0
  141.7400   70.8780  228.7120 F   0  0  0  0  0  0  0  0  0  0  0  0
  141.7430   72.8240  227.5860 F   0  0  0  0  0  0  0  0  0  0  0  0
  139.9220   72.2530  228.7120 F   0  0  0  0  0  0  0  0  0  0  0  0
  140.7500   71.5620  225.5120 C   0  0  0  0  0  0  0  0  0  0  0  0
  137.9887   73.9254  220.0301 H   0  0  0  0  0  0  0  0  0  0  0  0
  137.0522   74.8984  221.2594 H   0  0  0  0  0  0  0  0  0  0  0  0
  137.8731   75.9766  219.0134 H   0  0  0  0  0  0  0  0  0  0  0  0
  137.9040   76.8821  220.5438 H   0  0  0  0  0  0  0  0  0  0  0  0
  140.2845   75.1290  220.1643 H   0  0  0  0  0  0  0  0  0  0  0  0
  140.0681   76.4383  218.8804 H   0  0  0  0  0  0  0  0  0  0  0  0
  140.5667   76.8542  223.2888 H   0  0  0  0  0  0  0  0  0  0  0  0
  141.6549   78.5456  224.7248 H   0  0  0  0  0  0  0  0  0  0  0  0
  142.6759   80.8480  221.2281 H   0  0  0  0  0  0  0  0  0  0  0  0
  139.1900   72.3890  221.0360 H   0  0  0  0  0  0  0  0  0  0  0  0
  141.1120   70.8906  222.3652 H   0  0  0  0  0  0  0  0  0  0  0  0
  139.2253   69.2422  223.6596 H   0  0  0  0  0  0  0  0  0  0  0  0
  138.7392   68.3058  225.8752 H   0  0  0  0  0  0  0  0  0  0  0  0
  139.5472   69.4655  227.9248 H   0  0  0  0  0  0  0  0  0  0  0  0
  141.3277   72.4949  225.4352 H   0  0  0  0  0  0  0  0  0  0  0  0
  1  2  2  0
  2  3  1  0
  3  4  1  0
  4  5  1  0
  5  6  1  0
  6  7  1  0
  7  8  2  0
  8  9  1  0
  9 10  2  0
 10 11  1  0
 10 12  1  0
 12 13  2  0
 13 14  1  0
  2 15  1  0
 15 16  1  0
 16 17  2  0
 17 18  1  0
 18 19  2  0
 19 20  1  0
 20 21  2  0
 21 22  1  0
 22 23  1  0
 23 24  1  0
 23 25  1  0
 23 26  1  0
 22 27  2  0
 13  7  1  0
 27 18  1  0
  3 28  1  0
  3 29  1  0
  4 30  1  0
  4 31  1  0
  5 32  1  0
  5 33  1  0
  8 34  1  0
  9 35  1  0
 12 36  1  0
 15 37  1  0
 17 38  1  0
 19 39  1  0
 20 40  1  0
 21 41  1  0
 27 42  1  0
M  END
>  <smiles>  (64) 
O=C(CCCOc1ccc(Cl)cc1Cl)NN=Cc1cccc(C(F)(F)F)c1

>  <score_type>  (64) 
oracle

>  <origin>  (64) 
autodockgpu

>  <m_score__min__energy>  (64) 
-7.79

>  <m_primary>  (64) 
energy

>  <rmsd>  (64) 
5.862565023407255

>  <m_score__min__rmsd>  (64) 
5.862565023407255

>  <meeko>  (64) 
{"free_energy": -6.78, "intermolecular_energy": -9.47, "internal_energy": -0.95, "cluster_size": 9, "cluster_id": 2, "rank_in_cluster": 9}

>  <energy>  (64) 
-6.97

>  <cluster_rmsd>  (64) 
1.73

>  <cluster>  (64) 
2

$$$$

     RDKit          3D

 42 43  0  0  1  0  0  0  0  0999 V2000
  139.6120   75.3590  222.4530 O   0  0  0  0  0  0  0  0  0  0  0  0
  139.7230   74.6290  221.4340 C   0  0  0  0  0  0  0  0  0  0  0  0
  139.3220   75.0700  220.0750 C   0  0  0  0  0  0  0  0  0  0  0  0
  138.9750   73.9440  219.1680 C   0  0  0  0  0  0  0  0  0  0  0  0
  140.2230   73.6670  218.2910 C   0  0  0  0  0  0  0  0  0  0  0  0
  141.3570   73.6100  218.9170 O   0  0  0  0  0  0  0  0  0  0  0  0
  142.4770   73.5520  219.5320 C   0  0  0  0  0  0  0  0  0  0  0  0
  143.0150   72.3450  220.0020 C   0  0  0  0  0  0  0  0  0  0  0  0
  144.2170   72.2810  220.6630 C   0  0  0  0  0  0  0  0  0  0  0  0
  144.8980   73.4540  220.8610 C   0  0  0  0  0  0  0  0  0  0  0  0
  146.4240   73.3920  221.6980 Cl  0  0  0  0  0  0  0  0  0  0  0  0
  144.4400   74.6740  220.4340 C   0  0  0  0  0  0  0  0  0  0  0  0
  143.2380   74.7070  219.7760 C   0  0  0  0  0  0  0  0  0  0  0  0
  142.6040   76.2280  219.2090 Cl  0  0  0  0  0  0  0  0  0  0  0  0
  140.2610   73.2870  221.5190 N   0  0  0  0  0  0  0  0  0  0  0  0
  140.6430   72.8440  222.7530 N   0  0  0  0  0  0  0  0  0  0  0  0
  140.6670   71.6190  223.0560 C   0  0  0  0  0  0  0  0  0  0  0  0
  140.3430   70.9600  224.2870 C   0  0  0  0  0  0  0  0  0  0  0  0
  139.6540   69.7940  224.4560 C   0  0  0  0  0  0  0  0  0  0  0  0
  139.3760   69.2240  225.6900 C   0  0  0  0  0  0  0  0  0  0  0  0
  139.8000   69.8360  226.8350 C   0  0  0  0  0  0  0  0  0  0  0  0
  140.4990   71.0170  226.6920 C   0  0  0  0  0  0  0  0  0  0  0  0
  140.9650   71.6950  227.9180 C   0  0  0  0  0  0  0  0  0  0  0  0
  141.7060   70.8190  228.6870 F   0  0  0  0  0  0  0  0  0  0  0  0
  141.7840   72.7720  227.5750 F   0  0  0  0  0  0  0  0  0  0  0  0
  139.9200   72.2360  228.6460 F   0  0  0  0  0  0  0  0  0  0  0  0
  140.7720   71.5760  225.4670 C   0  0  0  0  0  0  0  0  0  0  0  0
  138.4448   75.7274  220.1663 H   0  0  0  0  0  0  0  0  0  0  0  0
  140.1857   75.5887  219.6335 H   0  0  0  0  0  0  0  0  0  0  0  0
  138.7206   73.0499  219.7561 H   0  0  0  0  0  0  0  0  0  0  0  0
  138.1050   74.1965  218.5440 H   0  0  0  0  0  0  0  0  0  0  0  0
  140.0702   72.7032  217.7833 H   0  0  0  0  0  0  0  0  0  0  0  0
  140.3034   74.5272  217.6101 H   0  0  0  0  0  0  0  0  0  0  0  0
  142.4528   71.4144  219.8348 H   0  0  0  0  0  0  0  0  0  0  0  0
  144.6193   71.3219  221.0211 H   0  0  0  0  0  0  0  0  0  0  0  0
  145.0167   75.5934  220.6132 H   0  0  0  0  0  0  0  0  0  0  0  0
  140.3270   72.6810  220.6470 H   0  0  0  0  0  0  0  0  0  0  0  0
  140.9883   70.9492  222.2447 H   0  0  0  0  0  0  0  0  0  0  0  0
  139.2961   69.2726  223.5559 H   0  0  0  0  0  0  0  0  0  0  0  0
  138.8145   68.2798  225.7461 H   0  0  0  0  0  0  0  0  0  0  0  0
  139.5935   69.4067  227.8265 H   0  0  0  0  0  0  0  0  0  0  0  0
  141.3349   72.5196  225.4137 H   0  0  0  0  0  0  0  0  0  0  0  0
  1  2  2  0
  2  3  1  0
  3  4  1  0
  4  5  1  0
  5  6  1  0
  6  7  1  0
  7  8  2  0
  8  9  1  0
  9 10  2  0
 10 11  1  0
 10 12  1  0
 12 13  2  0
 13 14  1  0
  2 15  1  0
 15 16  1  0
 16 17  2  0
 17 18  1  0
 18 19  2  0
 19 20  1  0
 20 21  2  0
 21 22  1  0
 22 23  1  0
 23 24  1  0
 23 25  1  0
 23 26  1  0
 22 27  2  0
 13  7  1  0
 27 18  1  0
  3 28  1  0
  3 29  1  0
  4 30  1  0
  4 31  1  0
  5 32  1  0
  5 33  1  0
  8 34  1  0
  9 35  1  0
 12 36  1  0
 15 37  1  0
 17 38  1  0
 19 39  1  0
 20 40  1  0
 21 41  1  0
 27 42  1  0
M  END
>  <smiles>  (65) 
O=C(CCCOc1ccc(Cl)cc1Cl)NN=Cc1cccc(C(F)(F)F)c1

>  <score_type>  (65) 
oracle

>  <origin>  (65) 
autodockgpu

>  <m_score__min__energy>  (65) 
-7.79

>  <m_primary>  (65) 
energy

>  <rmsd>  (65) 
9.888990540441336

>  <m_score__min__rmsd>  (65) 
9.888990540441336

>  <meeko>  (65) 
{"free_energy": -6.31, "intermolecular_energy": -8.99, "internal_energy": -2.04, "cluster_size": 10, "cluster_id": 4, "rank_in_cluster": 7}

>  <energy>  (65) 
-6.94

>  <cluster_rmsd>  (65) 
1.01

>  <cluster>  (65) 
2

$$$$

     RDKit          3D

 42 43  0  0  1  0  0  0  0  0999 V2000
  141.1890   75.1410  220.9770 O   0  0  0  0  0  0  0  0  0  0  0  0
  140.0750   75.1940  221.5570 C   0  0  0  0  0  0  0  0  0  0  0  0
  139.1850   76.3820  221.4940 C   0  0  0  0  0  0  0  0  0  0  0  0
  138.0490   76.3190  222.4500 C   0  0  0  0  0  0  0  0  0  0  0  0
  136.9330   75.4820  221.7740 C   0  0  0  0  0  0  0  0  0  0  0  0
  136.5490   74.4220  222.4160 O   0  0  0  0  0  0  0  0  0  0  0  0
  136.1740   73.3750  223.0460 C   0  0  0  0  0  0  0  0  0  0  0  0
  136.4790   72.0800  222.6030 C   0  0  0  0  0  0  0  0  0  0  0  0
  136.0750   70.9550  223.2800 C   0  0  0  0  0  0  0  0  0  0  0  0
  135.3480   71.1290  224.4290 C   0  0  0  0  0  0  0  0  0  0  0  0
  134.8270   69.7140  225.3000 Cl  0  0  0  0  0  0  0  0  0  0  0  0
  135.0090   72.3610  224.9280 C   0  0  0  0  0  0  0  0  0  0  0  0
  135.4250   73.4650  224.2320 C   0  0  0  0  0  0  0  0  0  0  0  0
  135.0250   75.0580  224.8170 Cl  0  0  0  0  0  0  0  0  0  0  0  0
  139.5740   74.0830  222.3390 N   0  0  0  0  0  0  0  0  0  0  0  0
  140.3620   72.9720  222.4210 N   0  0  0  0  0  0  0  0  0  0  0  0
  139.8890   71.8190  222.6230 C   0  0  0  0  0  0  0  0  0  0  0  0
  139.7440   71.0720  223.8380 C   0  0  0  0  0  0  0  0  0  0  0  0
  139.0890   69.8900  224.0210 C   0  0  0  0  0  0  0  0  0  0  0  0
  138.9900   69.2330  225.2400 C   0  0  0  0  0  0  0  0  0  0  0  0
  139.5710   69.7700  226.3530 C   0  0  0  0  0  0  0  0  0  0  0  0
  140.2400   70.9660  226.1950 C   0  0  0  0  0  0  0  0  0  0  0  0
  140.8750   71.5640  227.3860 C   0  0  0  0  0  0  0  0  0  0  0  0
  139.9290   72.2340  228.1370 F   0  0  0  0  0  0  0  0  0  0  0  0
  141.4260   70.5570  228.1790 F   0  0  0  0  0  0  0  0  0  0  0  0
  141.9280   72.3980  227.0540 F   0  0  0  0  0  0  0  0  0  0  0  0
  140.3350   71.6110  224.9860 C   0  0  0  0  0  0  0  0  0  0  0  0
  139.7822   77.2776  221.7205 H   0  0  0  0  0  0  0  0  0  0  0  0
  138.7563   76.4136  220.4815 H   0  0  0  0  0  0  0  0  0  0  0  0
  138.3689   75.8365  223.3854 H   0  0  0  0  0  0  0  0  0  0  0  0
  137.6876   77.3282  222.6969 H   0  0  0  0  0  0  0  0  0  0  0  0
  136.0559   76.1330  221.6442 H   0  0  0  0  0  0  0  0  0  0  0  0
  137.3661   75.1169  220.8311 H   0  0  0  0  0  0  0  0  0  0  0  0
  137.0636   71.9605  221.6789 H   0  0  0  0  0  0  0  0  0  0  0  0
  136.3263   69.9491  222.9127 H   0  0  0  0  0  0  0  0  0  0  0  0
  134.4238   72.4589  225.8543 H   0  0  0  0  0  0  0  0  0  0  0  0
  138.6370   74.1600  222.8370 H   0  0  0  0  0  0  0  0  0  0  0  0
  139.5298   71.3038  221.7199 H   0  0  0  0  0  0  0  0  0  0  0  0
  138.6082   69.4273  223.1465 H   0  0  0  0  0  0  0  0  0  0  0  0
  138.4440   68.2806  225.3092 H   0  0  0  0  0  0  0  0  0  0  0  0
  139.5084   69.2713  227.3315 H   0  0  0  0  0  0  0  0  0  0  0  0
  140.8824   72.5628  224.9195 H   0  0  0  0  0  0  0  0  0  0  0  0
  1  2  2  0
  2  3  1  0
  3  4  1  0
  4  5  1  0
  5  6  1  0
  6  7  1  0
  7  8  2  0
  8  9  1  0
  9 10  2  0
 10 11  1  0
 10 12  1  0
 12 13  2  0
 13 14  1  0
  2 15  1  0
 15 16  1  0
 16 17  2  0
 17 18  1  0
 18 19  2  0
 19 20  1  0
 20 21  2  0
 21 22  1  0
 22 23  1  0
 23 24  1  0
 23 25  1  0
 23 26  1  0
 22 27  2  0
 13  7  1  0
 27 18  1  0
  3 28  1  0
  3 29  1  0
  4 30  1  0
  4 31  1  0
  5 32  1  0
  5 33  1  0
  8 34  1  0
  9 35  1  0
 12 36  1  0
 15 37  1  0
 17 38  1  0
 19 39  1  0
 20 40  1  0
 21 41  1  0
 27 42  1  0
M  END
>  <smiles>  (66) 
O=C(CCCOc1ccc(Cl)cc1Cl)NN=Cc1cccc(C(F)(F)F)c1

>  <score_type>  (66) 
oracle

>  <origin>  (66) 
autodockgpu

>  <m_score__min__energy>  (66) 
-7.79

>  <m_primary>  (66) 
energy

>  <rmsd>  (66) 
10.588757029603375

>  <m_score__min__rmsd>  (66) 
10.588757029603375

>  <meeko>  (66) 
{"free_energy": -5.5, "intermolecular_energy": -8.18, "internal_energy": -2.47, "cluster_size": 12, "cluster_id": 7, "rank_in_cluster": 9}

>  <energy>  (66) 
-6.93

>  <cluster_rmsd>  (66) 
1.78

>  <cluster>  (66) 
2

$$$$

     RDKit          3D

 42 43  0  0  1  0  0  0  0  0999 V2000
  140.8180   74.1840  220.9550 O   0  0  0  0  0  0  0  0  0  0  0  0
  139.7370   74.4520  221.5400 C   0  0  0  0  0  0  0  0  0  0  0  0
  139.1340   75.8090  221.5460 C   0  0  0  0  0  0  0  0  0  0  0  0
  138.2690   76.0650  222.7270 C   0  0  0  0  0  0  0  0  0  0  0  0
  136.8310   75.6360  222.3380 C   0  0  0  0  0  0  0  0  0  0  0  0
  136.3100   74.6830  223.0470 O   0  0  0  0  0  0  0  0  0  0  0  0
  135.7930   73.7460  223.7470 C   0  0  0  0  0  0  0  0  0  0  0  0
  136.0540   72.3910  223.5000 C   0  0  0  0  0  0  0  0  0  0  0  0
  135.4990   71.3830  224.2510 C   0  0  0  0  0  0  0  0  0  0  0  0
  134.6610   71.7410  225.2750 C   0  0  0  0  0  0  0  0  0  0  0  0
  133.9480   70.4770  226.2380 Cl  0  0  0  0  0  0  0  0  0  0  0  0
  134.3550   73.0420  225.5810 C   0  0  0  0  0  0  0  0  0  0  0  0
  134.9240   74.0260  224.8150 C   0  0  0  0  0  0  0  0  0  0  0  0
  134.5730   75.6990  225.1560 Cl  0  0  0  0  0  0  0  0  0  0  0  0
  138.9940   73.4390  222.2590 N   0  0  0  0  0  0  0  0  0  0  0  0
  139.5140   72.1770  222.2760 N   0  0  0  0  0  0  0  0  0  0  0  0
  140.3180   71.7870  223.1690 C   0  0  0  0  0  0  0  0  0  0  0  0
  140.0810   71.0580  224.3800 C   0  0  0  0  0  0  0  0  0  0  0  0
  139.4160   69.8760  224.5280 C   0  0  0  0  0  0  0  0  0  0  0  0
  139.2230   69.2370  225.7460 C   0  0  0  0  0  0  0  0  0  0  0  0
  139.7140   69.7920  226.8920 C   0  0  0  0  0  0  0  0  0  0  0  0
  140.3910   70.9880  226.7700 C   0  0  0  0  0  0  0  0  0  0  0  0
  140.9290   71.6050  227.9980 C   0  0  0  0  0  0  0  0  0  0  0  0
  139.8920   72.0320  228.8030 F   0  0  0  0  0  0  0  0  0  0  0  0
  141.6730   70.6640  228.7090 F   0  0  0  0  0  0  0  0  0  0  0  0
  141.8030   72.6430  227.7210 F   0  0  0  0  0  0  0  0  0  0  0  0
  140.5790   71.6160  225.5620 C   0  0  0  0  0  0  0  0  0  0  0  0
  139.9457   76.5513  221.5408 H   0  0  0  0  0  0  0  0  0  0  0  0
  138.4957   75.8848  220.6533 H   0  0  0  0  0  0  0  0  0  0  0  0
  138.6195   75.4752  223.5868 H   0  0  0  0  0  0  0  0  0  0  0  0
  138.2980   77.1271  223.0116 H   0  0  0  0  0  0  0  0  0  0  0  0
  136.1803   76.5181  222.4300 H   0  0  0  0  0  0  0  0  0  0  0  0
  136.9072   75.2371  221.3157 H   0  0  0  0  0  0  0  0  0  0  0  0
  136.7290   72.1245  222.6733 H   0  0  0  0  0  0  0  0  0  0  0  0
  135.7193   70.3265  224.0381 H   0  0  0  0  0  0  0  0  0  0  0  0
  133.6770   73.2874  226.4117 H   0  0  0  0  0  0  0  0  0  0  0  0
  138.0920   73.6940  222.7630 H   0  0  0  0  0  0  0  0  0  0  0  0
  141.3707   72.0495  222.9877 H   0  0  0  0  0  0  0  0  0  0  0  0
  139.0067   69.3987  223.6254 H   0  0  0  0  0  0  0  0  0  0  0  0
  138.6748   68.2842  225.7869 H   0  0  0  0  0  0  0  0  0  0  0  0
  139.5761   69.3073  227.8698 H   0  0  0  0  0  0  0  0  0  0  0  0
  141.1276   72.5687  225.5243 H   0  0  0  0  0  0  0  0  0  0  0  0
  1  2  2  0
  2  3  1  0
  3  4  1  0
  4  5  1  0
  5  6  1  0
  6  7  1  0
  7  8  2  0
  8  9  1  0
  9 10  2  0
 10 11  1  0
 10 12  1  0
 12 13  2  0
 13 14  1  0
  2 15  1  0
 15 16  1  0
 16 17  2  0
 17 18  1  0
 18 19  2  0
 19 20  1  0
 20 21  2  0
 21 22  1  0
 22 23  1  0
 23 24  1  0
 23 25  1  0
 23 26  1  0
 22 27  2  0
 13  7  1  0
 27 18  1  0
  3 28  1  0
  3 29  1  0
  4 30  1  0
  4 31  1  0
  5 32  1  0
  5 33  1  0
  8 34  1  0
  9 35  1  0
 12 36  1  0
 15 37  1  0
 17 38  1  0
 19 39  1  0
 20 40  1  0
 21 41  1  0
 27 42  1  0
M  END
>  <smiles>  (67) 
O=C(CCCOc1ccc(Cl)cc1Cl)NN=Cc1cccc(C(F)(F)F)c1

>  <score_type>  (67) 
oracle

>  <origin>  (67) 
autodockgpu

>  <m_score__min__energy>  (67) 
-7.79

>  <m_primary>  (67) 
energy

>  <rmsd>  (67) 
10.6100039731557

>  <m_score__min__rmsd>  (67) 
10.6100039731557

>  <meeko>  (67) 
{"free_energy": -5.64, "intermolecular_energy": -8.32, "internal_energy": -2.07, "cluster_size": 12, "cluster_id": 7, "rank_in_cluster": 7}

>  <energy>  (67) 
-6.92

>  <cluster_rmsd>  (67) 
1.34

>  <cluster>  (67) 
2

$$$$

     RDKit          3D

 42 43  0  0  1  0  0  0  0  0999 V2000
  139.1070   75.5150  222.7080 O   0  0  0  0  0  0  0  0  0  0  0  0
  139.6550   75.0870  221.6600 C   0  0  0  0  0  0  0  0  0  0  0  0
  140.0560   75.9720  220.5370 C   0  0  0  0  0  0  0  0  0  0  0  0
  139.4060   75.6210  219.2480 C   0  0  0  0  0  0  0  0  0  0  0  0
  140.3420   74.6180  218.5260 C   0  0  0  0  0  0  0  0  0  0  0  0
  141.4740   74.3750  219.1090 O   0  0  0  0  0  0  0  0  0  0  0  0
  142.5900   74.1330  219.6840 C   0  0  0  0  0  0  0  0  0  0  0  0
  142.9160   72.8660  220.1900 C   0  0  0  0  0  0  0  0  0  0  0  0
  144.1150   72.6050  220.8090 C   0  0  0  0  0  0  0  0  0  0  0  0
  145.0090   73.6370  220.9250 C   0  0  0  0  0  0  0  0  0  0  0  0
  146.5340   73.3240  221.7070 Cl  0  0  0  0  0  0  0  0  0  0  0  0
  144.7660   74.9030  220.4570 C   0  0  0  0  0  0  0  0  0  0  0  0
  143.5630   75.1340  219.8450 C   0  0  0  0  0  0  0  0  0  0  0  0
  143.1970   76.7230  219.2300 Cl  0  0  0  0  0  0  0  0  0  0  0  0
  139.9360   73.6790  221.4720 N   0  0  0  0  0  0  0  0  0  0  0  0
  139.5820   72.8310  222.4830 N   0  0  0  0  0  0  0  0  0  0  0  0
  140.4350   72.2100  223.1760 C   0  0  0  0  0  0  0  0  0  0  0  0
  140.2600   71.3180  224.2840 C   0  0  0  0  0  0  0  0  0  0  0  0
  139.7270   70.0620  224.2720 C   0  0  0  0  0  0  0  0  0  0  0  0
  139.5860   69.2620  225.3980 C   0  0  0  0  0  0  0  0  0  0  0  0
  139.9950   69.7230  226.6170 C   0  0  0  0  0  0  0  0  0  0  0  0
  140.5380   70.9910  226.6570 C   0  0  0  0  0  0  0  0  0  0  0  0
  140.9850   71.5090  227.9650 C   0  0  0  0  0  0  0  0  0  0  0  0
  141.7910   72.6150  227.7820 F   0  0  0  0  0  0  0  0  0  0  0  0
  139.8780   71.8970  228.7200 F   0  0  0  0  0  0  0  0  0  0  0  0
  141.6300   70.5420  228.7170 F   0  0  0  0  0  0  0  0  0  0  0  0
  140.6740   71.7780  225.5390 C   0  0  0  0  0  0  0  0  0  0  0  0
  139.7844   77.0064  220.7942 H   0  0  0  0  0  0  0  0  0  0  0  0
  141.1402   75.8491  220.3980 H   0  0  0  0  0  0  0  0  0  0  0  0
  138.4261   75.1569  219.4332 H   0  0  0  0  0  0  0  0  0  0  0  0
  139.2439   76.5186  218.6332 H   0  0  0  0  0  0  0  0  0  0  0  0
  139.8023   73.6645  218.4287 H   0  0  0  0  0  0  0  0  0  0  0  0
  140.5986   75.0906  217.5664 H   0  0  0  0  0  0  0  0  0  0  0  0
  142.1846   72.0508  220.0875 H   0  0  0  0  0  0  0  0  0  0  0  0
  144.3488   71.6029  221.1977 H   0  0  0  0  0  0  0  0  0  0  0  0
  145.5110   75.7044  220.5693 H   0  0  0  0  0  0  0  0  0  0  0  0
  140.3810   73.3380  220.5680 H   0  0  0  0  0  0  0  0  0  0  0  0
  141.4811   72.3810  222.8821 H   0  0  0  0  0  0  0  0  0  0  0  0
  139.3869   69.6569  223.3075 H   0  0  0  0  0  0  0  0  0  0  0  0
  139.1454   68.2581  225.3085 H   0  0  0  0  0  0  0  0  0  0  0  0
  139.8960   69.1111  227.5257 H   0  0  0  0  0  0  0  0  0  0  0  0
  141.1137   72.7820  225.6316 H   0  0  0  0  0  0  0  0  0  0  0  0
  1  2  2  0
  2  3  1  0
  3  4  1  0
  4  5  1  0
  5  6  1  0
  6  7  1  0
  7  8  2  0
  8  9  1  0
  9 10  2  0
 10 11  1  0
 10 12  1  0
 12 13  2  0
 13 14  1  0
  2 15  1  0
 15 16  1  0
 16 17  2  0
 17 18  1  0
 18 19  2  0
 19 20  1  0
 20 21  2  0
 21 22  1  0
 22 23  1  0
 23 24  1  0
 23 25  1  0
 23 26  1  0
 22 27  2  0
 13  7  1  0
 27 18  1  0
  3 28  1  0
  3 29  1  0
  4 30  1  0
  4 31  1  0
  5 32  1  0
  5 33  1  0
  8 34  1  0
  9 35  1  0
 12 36  1  0
 15 37  1  0
 17 38  1  0
 19 39  1  0
 20 40  1  0
 21 41  1  0
 27 42  1  0
M  END
>  <smiles>  (68) 
O=C(CCCOc1ccc(Cl)cc1Cl)NN=Cc1cccc(C(F)(F)F)c1

>  <score_type>  (68) 
oracle

>  <origin>  (68) 
autodockgpu

>  <m_score__min__energy>  (68) 
-7.79

>  <m_primary>  (68) 
energy

>  <rmsd>  (68) 
9.382842390841626

>  <m_score__min__rmsd>  (68) 
9.382842390841626

>  <meeko>  (68) 
{"free_energy": -6.02, "intermolecular_energy": -8.7, "internal_energy": -1.93, "cluster_size": 10, "cluster_id": 4, "rank_in_cluster": 10}

>  <energy>  (68) 
-6.9

>  <cluster_rmsd>  (68) 
1.33

>  <cluster>  (68) 
2

$$$$

     RDKit          3D

 42 43  0  0  1  0  0  0  0  0999 V2000
  141.3520   74.7260  221.3420 O   0  0  0  0  0  0  0  0  0  0  0  0
  140.1370   74.7260  221.6680 C   0  0  0  0  0  0  0  0  0  0  0  0
  139.1980   75.8120  221.2900 C   0  0  0  0  0  0  0  0  0  0  0  0
  138.1340   75.3700  220.3510 C   0  0  0  0  0  0  0  0  0  0  0  0
  136.8100   75.3220  221.1550 C   0  0  0  0  0  0  0  0  0  0  0  0
  136.6060   74.2480  221.8520 O   0  0  0  0  0  0  0  0  0  0  0  0
  136.4090   73.1880  222.5390 C   0  0  0  0  0  0  0  0  0  0  0  0
  135.7820   73.2100  223.7930 C   0  0  0  0  0  0  0  0  0  0  0  0
  135.5690   72.0720  224.5330 C   0  0  0  0  0  0  0  0  0  0  0  0
  135.9970   70.8810  224.0050 C   0  0  0  0  0  0  0  0  0  0  0  0
  135.7370   69.4280  224.9280 Cl  0  0  0  0  0  0  0  0  0  0  0  0
  136.6180   70.7750  222.7870 C   0  0  0  0  0  0  0  0  0  0  0  0
  136.8160   71.9270  222.0710 C   0  0  0  0  0  0  0  0  0  0  0  0
  137.5990   71.8550  220.5160 Cl  0  0  0  0  0  0  0  0  0  0  0  0
  139.5620   73.6490  222.4450 N   0  0  0  0  0  0  0  0  0  0  0  0
  140.3940   72.6300  222.8120 N   0  0  0  0  0  0  0  0  0  0  0  0
  139.9650   71.4840  223.1250 C   0  0  0  0  0  0  0  0  0  0  0  0
  139.9100   70.8290  224.3990 C   0  0  0  0  0  0  0  0  0  0  0  0
  139.4090   69.5910  224.6820 C   0  0  0  0  0  0  0  0  0  0  0  0
  139.3880   69.0300  225.9520 C   0  0  0  0  0  0  0  0  0  0  0  0
  139.8900   69.7260  227.0130 C   0  0  0  0  0  0  0  0  0  0  0  0
  140.4040   70.9810  226.7540 C   0  0  0  0  0  0  0  0  0  0  0  0
  140.9520   71.7500  227.8880 C   0  0  0  0  0  0  0  0  0  0  0  0
  139.9210   72.2350  228.6690 F   0  0  0  0  0  0  0  0  0  0  0  0
  141.7440   70.9180  228.6800 F   0  0  0  0  0  0  0  0  0  0  0  0
  141.7850   72.7740  227.4710 F   0  0  0  0  0  0  0  0  0  0  0  0
  140.4220   71.5310  225.4950 C   0  0  0  0  0  0  0  0  0  0  0  0
  138.7201   76.1940  222.2041 H   0  0  0  0  0  0  0  0  0  0  0  0
  139.7859   76.5858  220.7747 H   0  0  0  0  0  0  0  0  0  0  0  0
  138.0447   76.0836  219.5187 H   0  0  0  0  0  0  0  0  0  0  0  0
  138.3709   74.3833  219.9263 H   0  0  0  0  0  0  0  0  0  0  0  0
  136.8051   76.1776  221.8463 H   0  0  0  0  0  0  0  0  0  0  0  0
  136.0065   75.3447  220.4040 H   0  0  0  0  0  0  0  0  0  0  0  0
  135.4477   74.1757  224.2001 H   0  0  0  0  0  0  0  0  0  0  0  0
  135.0729   72.1148  225.5139 H   0  0  0  0  0  0  0  0  0  0  0  0
  136.9458   69.7996  222.3981 H   0  0  0  0  0  0  0  0  0  0  0  0
  138.5360   73.6800  222.7260 H   0  0  0  0  0  0  0  0  0  0  0  0
  139.5701   70.8937  222.2850 H   0  0  0  0  0  0  0  0  0  0  0  0
  138.9957   69.0004  223.8511 H   0  0  0  0  0  0  0  0  0  0  0  0
  138.9669   68.0250  226.1027 H   0  0  0  0  0  0  0  0  0  0  0  0
  139.8854   69.3058  228.0296 H   0  0  0  0  0  0  0  0  0  0  0  0
  140.8443   72.5359  225.3472 H   0  0  0  0  0  0  0  0  0  0  0  0
  1  2  2  0
  2  3  1  0
  3  4  1  0
  4  5  1  0
  5  6  1  0
  6  7  1  0
  7  8  2  0
  8  9  1  0
  9 10  2  0
 10 11  1  0
 10 12  1  0
 12 13  2  0
 13 14  1  0
  2 15  1  0
 15 16  1  0
 16 17  2  0
 17 18  1  0
 18 19  2  0
 19 20  1  0
 20 21  2  0
 21 22  1  0
 22 23  1  0
 23 24  1  0
 23 25  1  0
 23 26  1  0
 22 27  2  0
 13  7  1  0
 27 18  1  0
  3 28  1  0
  3 29  1  0
  4 30  1  0
  4 31  1  0
  5 32  1  0
  5 33  1  0
  8 34  1  0
  9 35  1  0
 12 36  1  0
 15 37  1  0
 17 38  1  0
 19 39  1  0
 20 40  1  0
 21 41  1  0
 27 42  1  0
M  END
>  <smiles>  (69) 
O=C(CCCOc1ccc(Cl)cc1Cl)NN=Cc1cccc(C(F)(F)F)c1

>  <score_type>  (69) 
oracle

>  <origin>  (69) 
autodockgpu

>  <m_score__min__energy>  (69) 
-7.79

>  <m_primary>  (69) 
energy

>  <rmsd>  (69) 
10.302397294352959

>  <m_score__min__rmsd>  (69) 
10.302397294352959

>  <meeko>  (69) 
{"free_energy": -4.98, "intermolecular_energy": -7.66, "internal_energy": -2.7, "cluster_size": 12, "cluster_id": 7, "rank_in_cluster": 12}

>  <energy>  (69) 
-6.78

>  <cluster_rmsd>  (69) 
1.13

>  <cluster>  (69) 
2

$$$$

     RDKit          3D

 42 43  0  0  1  0  0  0  0  0999 V2000
  139.8180   74.8980  220.3140 O   0  0  0  0  0  0  0  0  0  0  0  0
  138.9410   74.7030  221.1940 C   0  0  0  0  0  0  0  0  0  0  0  0
  137.5820   75.2990  221.1280 C   0  0  0  0  0  0  0  0  0  0  0  0
  136.9620   75.5020  222.4640 C   0  0  0  0  0  0  0  0  0  0  0  0
  136.8620   77.0320  222.6900 C   0  0  0  0  0  0  0  0  0  0  0  0
  137.9870   77.6590  222.8460 O   0  0  0  0  0  0  0  0  0  0  0  0
  139.0950   78.2780  223.0020 C   0  0  0  0  0  0  0  0  0  0  0  0
  140.3340   77.6880  222.7110 C   0  0  0  0  0  0  0  0  0  0  0  0
  141.5250   78.3520  222.8790 C   0  0  0  0  0  0  0  0  0  0  0  0
  141.4760   79.6370  223.3530 C   0  0  0  0  0  0  0  0  0  0  0  0
  142.9750   80.4940  223.5740 Cl  0  0  0  0  0  0  0  0  0  0  0  0
  140.3060   80.2840  223.6620 C   0  0  0  0  0  0  0  0  0  0  0  0
  139.1340   79.5970  223.4840 C   0  0  0  0  0  0  0  0  0  0  0  0
  137.6150   80.3660  223.8590 Cl  0  0  0  0  0  0  0  0  0  0  0  0
  139.1990   73.8710  222.3500 N   0  0  0  0  0  0  0  0  0  0  0  0
  140.4380   73.3040  222.4480 N   0  0  0  0  0  0  0  0  0  0  0  0
  140.6060   72.0900  222.7490 C   0  0  0  0  0  0  0  0  0  0  0  0
  140.2010   71.3560  223.9110 C   0  0  0  0  0  0  0  0  0  0  0  0
  139.3690   70.2750  223.9720 C   0  0  0  0  0  0  0  0  0  0  0  0
  139.0210   69.6240  225.1470 C   0  0  0  0  0  0  0  0  0  0  0  0
  139.5210   70.0580  226.3410 C   0  0  0  0  0  0  0  0  0  0  0  0
  140.3650   71.1490  226.3080 C   0  0  0  0  0  0  0  0  0  0  0  0
  140.9160   71.6350  227.5890 C   0  0  0  0  0  0  0  0  0  0  0  0
  141.8890   72.5860  227.3510 F   0  0  0  0  0  0  0  0  0  0  0  0
  139.9010   72.2290  228.3400 F   0  0  0  0  0  0  0  0  0  0  0  0
  141.4070   70.6040  228.3710 F   0  0  0  0  0  0  0  0  0  0  0  0
  140.7060   71.7900  225.1410 C   0  0  0  0  0  0  0  0  0  0  0  0
  137.6529   76.2744  220.6244 H   0  0  0  0  0  0  0  0  0  0  0  0
  136.9435   74.5927  220.5771 H   0  0  0  0  0  0  0  0  0  0  0  0
  135.9593   75.0504  222.4876 H   0  0  0  0  0  0  0  0  0  0  0  0
  137.5647   75.0275  223.2524 H   0  0  0  0  0  0  0  0  0  0  0  0
  136.3517   77.4682  221.8186 H   0  0  0  0  0  0  0  0  0  0  0  0
  136.3193   77.1566  223.6387 H   0  0  0  0  0  0  0  0  0  0  0  0
  140.3527   76.6548  222.3341 H   0  0  0  0  0  0  0  0  0  0  0  0
  142.4844   77.8691  222.6414 H   0  0  0  0  0  0  0  0  0  0  0  0
  140.3089   81.3173  224.0392 H   0  0  0  0  0  0  0  0  0  0  0  0
  138.4480   73.7380  223.0920 H   0  0  0  0  0  0  0  0  0  0  0  0
  141.1515   71.4999  221.9979 H   0  0  0  0  0  0  0  0  0  0  0  0
  138.9476   69.8959  223.0293 H   0  0  0  0  0  0  0  0  0  0  0  0
  138.3426   68.7587  225.1165 H   0  0  0  0  0  0  0  0  0  0  0  0
  139.2625   69.5601  227.2872 H   0  0  0  0  0  0  0  0  0  0  0  0
  141.3845   72.6551  225.1748 H   0  0  0  0  0  0  0  0  0  0  0  0
  1  2  2  0
  2  3  1  0
  3  4  1  0
  4  5  1  0
  5  6  1  0
  6  7  1  0
  7  8  2  0
  8  9  1  0
  9 10  2  0
 10 11  1  0
 10 12  1  0
 12 13  2  0
 13 14  1  0
  2 15  1  0
 15 16  1  0
 16 17  2  0
 17 18  1  0
 18 19  2  0
 19 20  1  0
 20 21  2  0
 21 22  1  0
 22 23  1  0
 23 24  1  0
 23 25  1  0
 23 26  1  0
 22 27  2  0
 13  7  1  0
 27 18  1  0
  3 28  1  0
  3 29  1  0
  4 30  1  0
  4 31  1  0
  5 32  1  0
  5 33  1  0
  8 34  1  0
  9 35  1  0
 12 36  1  0
 15 37  1  0
 17 38  1  0
 19 39  1  0
 20 40  1  0
 21 41  1  0
 27 42  1  0
M  END
>  <smiles>  (70) 
O=C(CCCOc1ccc(Cl)cc1Cl)NN=Cc1cccc(C(F)(F)F)c1

>  <score_type>  (70) 
oracle

>  <origin>  (70) 
autodockgpu

>  <m_score__min__energy>  (70) 
-7.79

>  <m_primary>  (70) 
energy

>  <rmsd>  (70) 
5.884464367216626

>  <m_score__min__rmsd>  (70) 
5.884464367216626

>  <meeko>  (70) 
{"free_energy": -7.09, "intermolecular_energy": -9.77, "internal_energy": -1.03, "cluster_size": 10, "cluster_id": 1, "rank_in_cluster": 7}

>  <energy>  (70) 
-6.87

>  <cluster_rmsd>  (70) 
0.0

>  <cluster>  (70) 
3

$$$$

     RDKit          3D

 42 43  0  0  1  0  0  0  0  0999 V2000
  140.2210   70.4180  221.5060 O   0  0  0  0  0  0  0  0  0  0  0  0
  140.2000   71.4940  222.1570 C   0  0  0  0  0  0  0  0  0  0  0  0
  141.0330   72.6710  221.8010 C   0  0  0  0  0  0  0  0  0  0  0  0
  140.3210   73.6630  220.9540 C   0  0  0  0  0  0  0  0  0  0  0  0
  139.5220   74.5860  221.9090 C   0  0  0  0  0  0  0  0  0  0  0  0
  139.9540   75.8040  222.0170 O   0  0  0  0  0  0  0  0  0  0  0  0
  140.3790   77.0050  222.1260 C   0  0  0  0  0  0  0  0  0  0  0  0
  139.8650   77.9020  223.0730 C   0  0  0  0  0  0  0  0  0  0  0  0
  140.3220   79.1920  223.1910 C   0  0  0  0  0  0  0  0  0  0  0  0
  141.3170   79.5960  222.3390 C   0  0  0  0  0  0  0  0  0  0  0  0
  141.9070   81.2290  222.4740 Cl  0  0  0  0  0  0  0  0  0  0  0  0
  141.8710   78.7810  221.3860 C   0  0  0  0  0  0  0  0  0  0  0  0
  141.3970   77.4990  221.2920 C   0  0  0  0  0  0  0  0  0  0  0  0
  142.0630   76.4150  220.1000 Cl  0  0  0  0  0  0  0  0  0  0  0  0
  139.3490   71.6620  223.3150 N   0  0  0  0  0  0  0  0  0  0  0  0
  138.5660   70.6030  223.6750 N   0  0  0  0  0  0  0  0  0  0  0  0
  139.0370   69.5680  224.2240 C   0  0  0  0  0  0  0  0  0  0  0  0
  139.7090   69.4070  225.4800 C   0  0  0  0  0  0  0  0  0  0  0  0
  140.0740   68.2420  226.0900 C   0  0  0  0  0  0  0  0  0  0  0  0
  140.7190   68.1730  227.3180 C   0  0  0  0  0  0  0  0  0  0  0  0
  141.0280   69.3200  227.9910 C   0  0  0  0  0  0  0  0  0  0  0  0
  140.6700   70.5120  227.3950 C   0  0  0  0  0  0  0  0  0  0  0  0
  140.9940   71.7640  228.1070 C   0  0  0  0  0  0  0  0  0  0  0  0
  139.8680   72.2500  228.7400 F   0  0  0  0  0  0  0  0  0  0  0  0
  141.9650   71.5140  229.0770 F   0  0  0  0  0  0  0  0  0  0  0  0
  141.5430   72.7170  227.2650 F   0  0  0  0  0  0  0  0  0  0  0  0
  140.0310   70.5740  226.1800 C   0  0  0  0  0  0  0  0  0  0  0  0
  141.3490   73.1684  222.7298 H   0  0  0  0  0  0  0  0  0  0  0  0
  141.8879   72.2993  221.2171 H   0  0  0  0  0  0  0  0  0  0  0  0
  141.0457   74.2548  220.3756 H   0  0  0  0  0  0  0  0  0  0  0  0
  139.6498   73.1605  220.2420 H   0  0  0  0  0  0  0  0  0  0  0  0
  138.4844   74.6280  221.5462 H   0  0  0  0  0  0  0  0  0  0  0  0
  139.6318   74.1429  222.9098 H   0  0  0  0  0  0  0  0  0  0  0  0
  139.0657   77.5599  223.7469 H   0  0  0  0  0  0  0  0  0  0  0  0
  139.9040   79.8772  223.9432 H   0  0  0  0  0  0  0  0  0  0  0  0
  142.6680   79.1436  220.7202 H   0  0  0  0  0  0  0  0  0  0  0  0
  139.3640   72.5760  223.8620 H   0  0  0  0  0  0  0  0  0  0  0  0
  138.9115   68.6409  223.6455 H   0  0  0  0  0  0  0  0  0  0  0  0
  139.8426   67.2973  225.5762 H   0  0  0  0  0  0  0  0  0  0  0  0
  140.9807   67.1950  227.7481 H   0  0  0  0  0  0  0  0  0  0  0  0
  141.5394   69.2951  228.9646 H   0  0  0  0  0  0  0  0  0  0  0  0
  139.7696   71.5534  225.7529 H   0  0  0  0  0  0  0  0  0  0  0  0
  1  2  2  0
  2  3  1  0
  3  4  1  0
  4  5  1  0
  5  6  1  0
  6  7  1  0
  7  8  2  0
  8  9  1  0
  9 10  2  0
 10 11  1  0
 10 12  1  0
 12 13  2  0
 13 14  1  0
  2 15  1  0
 15 16  1  0
 16 17  2  0
 17 18  1  0
 18 19  2  0
 19 20  1  0
 20 21  2  0
 21 22  1  0
 22 23  1  0
 23 24  1  0
 23 25  1  0
 23 26  1  0
 22 27  2  0
 13  7  1  0
 27 18  1  0
  3 28  1  0
  3 29  1  0
  4 30  1  0
  4 31  1  0
  5 32  1  0
  5 33  1  0
  8 34  1  0
  9 35  1  0
 12 36  1  0
 15 37  1  0
 17 38  1  0
 19 39  1  0
 20 40  1  0
 21 41  1  0
 27 42  1  0
M  END
>  <smiles>  (71) 
O=C(CCCOc1ccc(Cl)cc1Cl)NN=Cc1cccc(C(F)(F)F)c1

>  <score_type>  (71) 
oracle

>  <origin>  (71) 
autodockgpu

>  <m_score__min__energy>  (71) 
-7.79

>  <m_primary>  (71) 
energy

>  <rmsd>  (71) 
6.650375879062159

>  <m_score__min__rmsd>  (71) 
6.650375879062159

>  <meeko>  (71) 
{"free_energy": -6.9, "intermolecular_energy": -9.59, "internal_energy": -0.76, "cluster_size": 9, "cluster_id": 2, "rank_in_cluster": 8}

>  <energy>  (71) 
-6.68

>  <cluster_rmsd>  (71) 
0.0

>  <cluster>  (71) 
4

$$$$

     RDKit          3D

 42 43  0  0  1  0  0  0  0  0999 V2000
  141.3950   74.6140  221.6940 O   0  0  0  0  0  0  0  0  0  0  0  0
  140.1620   74.6380  221.9400 C   0  0  0  0  0  0  0  0  0  0  0  0
  139.3040   75.8170  221.6580 C   0  0  0  0  0  0  0  0  0  0  0  0
  138.0710   75.4800  220.8970 C   0  0  0  0  0  0  0  0  0  0  0  0
  136.8820   75.5990  221.8840 C   0  0  0  0  0  0  0  0  0  0  0  0
  136.5360   74.5070  222.4920 O   0  0  0  0  0  0  0  0  0  0  0  0
  136.1910   73.4310  223.0910 C   0  0  0  0  0  0  0  0  0  0  0  0
  136.5360   72.1590  222.6120 C   0  0  0  0  0  0  0  0  0  0  0  0
  136.1650   71.0030  223.2560 C   0  0  0  0  0  0  0  0  0  0  0  0
  135.4300   71.1230  224.4070 C   0  0  0  0  0  0  0  0  0  0  0  0
  134.9510   69.6680  225.2350 Cl  0  0  0  0  0  0  0  0  0  0  0  0
  135.0530   72.3290  224.9390 C   0  0  0  0  0  0  0  0  0  0  0  0
  135.4370   73.4650  224.2760 C   0  0  0  0  0  0  0  0  0  0  0  0
  134.9870   75.0270  224.9050 Cl  0  0  0  0  0  0  0  0  0  0  0  0
  139.4830   73.5000  222.5220 N   0  0  0  0  0  0  0  0  0  0  0  0
  140.2380   72.3960  222.7960 N   0  0  0  0  0  0  0  0  0  0  0  0
  139.8230   71.4550  223.5290 C   0  0  0  0  0  0  0  0  0  0  0  0
  140.1850   71.0910  224.8670 C   0  0  0  0  0  0  0  0  0  0  0  0
  140.7460   71.8810  225.8270 C   0  0  0  0  0  0  0  0  0  0  0  0
  141.0740   71.4450  227.1040 C   0  0  0  0  0  0  0  0  0  0  0  0
  140.8360   70.1500  227.4640 C   0  0  0  0  0  0  0  0  0  0  0  0
  140.2690   69.3290  226.5110 C   0  0  0  0  0  0  0  0  0  0  0  0
  140.0030   67.9240  226.8800 C   0  0  0  0  0  0  0  0  0  0  0  0
  141.0570   67.1260  226.4790 F   0  0  0  0  0  0  0  0  0  0  0  0
  139.8790   67.8180  228.2650 F   0  0  0  0  0  0  0  0  0  0  0  0
  138.8050   67.4650  226.3600 F   0  0  0  0  0  0  0  0  0  0  0  0
  139.9460   69.7660  225.2490 C   0  0  0  0  0  0  0  0  0  0  0  0
  139.0098   76.2715  222.6155 H   0  0  0  0  0  0  0  0  0  0  0  0
  139.8927   76.5063  221.0349 H   0  0  0  0  0  0  0  0  0  0  0  0
  137.9394   76.1825  220.0608 H   0  0  0  0  0  0  0  0  0  0  0  0
  138.1334   74.4646  220.4785 H   0  0  0  0  0  0  0  0  0  0  0  0
  137.1540   76.3393  222.6508 H   0  0  0  0  0  0  0  0  0  0  0  0
  136.0148   75.8841  221.2703 H   0  0  0  0  0  0  0  0  0  0  0  0
  137.1255   72.0837  221.6864 H   0  0  0  0  0  0  0  0  0  0  0  0
  136.4479   70.0159  222.8617 H   0  0  0  0  0  0  0  0  0  0  0  0
  134.4628   72.3828  225.8657 H   0  0  0  0  0  0  0  0  0  0  0  0
  138.4430   73.5510  222.7400 H   0  0  0  0  0  0  0  0  0  0  0  0
  139.0609   70.8111  223.0658 H   0  0  0  0  0  0  0  0  0  0  0  0
  140.9519   72.9313  225.5733 H   0  0  0  0  0  0  0  0  0  0  0  0
  141.5253   72.1427  227.8249 H   0  0  0  0  0  0  0  0  0  0  0  0
  141.0850   69.7777  228.4687 H   0  0  0  0  0  0  0  0  0  0  0  0
  139.4943   69.0662  224.5305 H   0  0  0  0  0  0  0  0  0  0  0  0
  1  2  2  0
  2  3  1  0
  3  4  1  0
  4  5  1  0
  5  6  1  0
  6  7  1  0
  7  8  2  0
  8  9  1  0
  9 10  2  0
 10 11  1  0
 10 12  1  0
 12 13  2  0
 13 14  1  0
  2 15  1  0
 15 16  1  0
 16 17  2  0
 17 18  1  0
 18 19  2  0
 19 20  1  0
 20 21  2  0
 21 22  1  0
 22 23  1  0
 23 24  1  0
 23 25  1  0
 23 26  1  0
 22 27  2  0
 13  7  1  0
 27 18  1  0
  3 28  1  0
  3 29  1  0
  4 30  1  0
  4 31  1  0
  5 32  1  0
  5 33  1  0
  8 34  1  0
  9 35  1  0
 12 36  1  0
 15 37  1  0
 17 38  1  0
 19 39  1  0
 20 40  1  0
 21 41  1  0
 27 42  1  0
M  END
>  <smiles>  (72) 
O=C(CCCOc1ccc(Cl)cc1Cl)NN=Cc1cccc(C(F)(F)F)c1

>  <score_type>  (72) 
oracle

>  <origin>  (72) 
autodockgpu

>  <m_score__min__energy>  (72) 
-7.79

>  <m_primary>  (72) 
energy

>  <rmsd>  (72) 
10.530130874600856

>  <m_score__min__rmsd>  (72) 
10.530130874600856

>  <meeko>  (72) 
{"free_energy": -5.58, "intermolecular_energy": -8.26, "internal_energy": -2.2, "cluster_size": 1, "cluster_id": 11, "rank_in_cluster": 1}

>  <energy>  (72) 
-6.5

>  <cluster_rmsd>  (72) 
1.73

>  <cluster>  (72) 
4

$$$$

     RDKit          3D

 42 43  0  0  1  0  0  0  0  0999 V2000
  140.7580   73.7580  222.3370 O   0  0  0  0  0  0  0  0  0  0  0  0
  139.7920   73.3550  221.6400 C   0  0  0  0  0  0  0  0  0  0  0  0
  139.0920   74.2170  220.6530 C   0  0  0  0  0  0  0  0  0  0  0  0
  138.7660   73.5140  219.3840 C   0  0  0  0  0  0  0  0  0  0  0  0
  140.0030   73.6480  218.4600 C   0  0  0  0  0  0  0  0  0  0  0  0
  141.1590   73.5940  219.0460 O   0  0  0  0  0  0  0  0  0  0  0  0
  142.2990   73.5380  219.6220 C   0  0  0  0  0  0  0  0  0  0  0  0
  142.8580   72.3320  220.0680 C   0  0  0  0  0  0  0  0  0  0  0  0
  144.0830   72.2700  220.6870 C   0  0  0  0  0  0  0  0  0  0  0  0
  144.7660   73.4460  220.8650 C   0  0  0  0  0  0  0  0  0  0  0  0
  146.3200   73.3870  221.6480 Cl  0  0  0  0  0  0  0  0  0  0  0  0
  144.2880   74.6650  220.4580 C   0  0  0  0  0  0  0  0  0  0  0  0
  143.0640   74.6960  219.8430 C   0  0  0  0  0  0  0  0  0  0  0  0
  142.4050   76.2160  219.3030 Cl  0  0  0  0  0  0  0  0  0  0  0  0
  139.2880   72.0030  221.7520 N   0  0  0  0  0  0  0  0  0  0  0  0
  139.9050   71.1790  222.6490 N   0  0  0  0  0  0  0  0  0  0  0  0
  139.2760   70.5870  223.5700 C   0  0  0  0  0  0  0  0  0  0  0  0
  139.7180   70.1400  224.8580 C   0  0  0  0  0  0  0  0  0  0  0  0
  139.8430   68.8560  225.3020 C   0  0  0  0  0  0  0  0  0  0  0  0
  140.2740   68.5090  226.5750 C   0  0  0  0  0  0  0  0  0  0  0  0
  140.6040   69.4830  227.4730 C   0  0  0  0  0  0  0  0  0  0  0  0
  140.4870   70.7910  227.0490 C   0  0  0  0  0  0  0  0  0  0  0  0
  140.8380   71.8600  228.0050 C   0  0  0  0  0  0  0  0  0  0  0  0
  139.7220   72.2310  228.7270 F   0  0  0  0  0  0  0  0  0  0  0  0
  141.8000   71.3920  228.9000 F   0  0  0  0  0  0  0  0  0  0  0  0
  141.4110   72.9540  227.3780 F   0  0  0  0  0  0  0  0  0  0  0  0
  140.0600   71.1290  225.7870 C   0  0  0  0  0  0  0  0  0  0  0  0
  138.1549   74.5746  221.1046 H   0  0  0  0  0  0  0  0  0  0  0  0
  139.7731   75.0434  220.4016 H   0  0  0  0  0  0  0  0  0  0  0  0
  138.5568   72.4526  219.5833 H   0  0  0  0  0  0  0  0  0  0  0  0
  137.8742   73.9513  218.9113 H   0  0  0  0  0  0  0  0  0  0  0  0
  139.9615   72.8335  217.7218 H   0  0  0  0  0  0  0  0  0  0  0  0
  139.9389   74.6554  218.0229 H   0  0  0  0  0  0  0  0  0  0  0  0
  142.2942   71.3997  219.9165 H   0  0  0  0  0  0  0  0  0  0  0  0
  144.5011   71.3113  221.0277 H   0  0  0  0  0  0  0  0  0  0  0  0
  144.8671   75.5861  220.6196 H   0  0  0  0  0  0  0  0  0  0  0  0
  138.4550   71.6920  221.1660 H   0  0  0  0  0  0  0  0  0  0  0  0
  138.2185   70.3812  223.3481 H   0  0  0  0  0  0  0  0  0  0  0  0
  139.5857   68.0436  224.6065 H   0  0  0  0  0  0  0  0  0  0  0  0
  140.3497   67.4493  226.8603 H   0  0  0  0  0  0  0  0  0  0  0  0
  140.9476   69.2363  228.4884 H   0  0  0  0  0  0  0  0  0  0  0  0
  139.9862   72.1894  225.5040 H   0  0  0  0  0  0  0  0  0  0  0  0
  1  2  2  0
  2  3  1  0
  3  4  1  0
  4  5  1  0
  5  6  1  0
  6  7  1  0
  7  8  2  0
  8  9  1  0
  9 10  2  0
 10 11  1  0
 10 12  1  0
 12 13  2  0
 13 14  1  0
  2 15  1  0
 15 16  1  0
 16 17  2  0
 17 18  1  0
 18 19  2  0
 19 20  1  0
 20 21  2  0
 21 22  1  0
 22 23  1  0
 23 24  1  0
 23 25  1  0
 23 26  1  0
 22 27  2  0
 13  7  1  0
 27 18  1  0
  3 28  1  0
  3 29  1  0
  4 30  1  0
  4 31  1  0
  5 32  1  0
  5 33  1  0
  8 34  1  0
  9 35  1  0
 12 36  1  0
 15 37  1  0
 17 38  1  0
 19 39  1  0
 20 40  1  0
 21 41  1  0
 27 42  1  0
M  END
>  <smiles>  (73) 
O=C(CCCOc1ccc(Cl)cc1Cl)NN=Cc1cccc(C(F)(F)F)c1

>  <score_type>  (73) 
oracle

>  <origin>  (73) 
autodockgpu

>  <m_score__min__energy>  (73) 
-7.79

>  <m_primary>  (73) 
energy

>  <rmsd>  (73) 
9.817495782868068

>  <m_score__min__rmsd>  (73) 
9.817495782868068

>  <meeko>  (73) 
{"free_energy": -6.38, "intermolecular_energy": -9.07, "internal_energy": -1.32, "cluster_size": 10, "cluster_id": 4, "rank_in_cluster": 4}

>  <energy>  (73) 
-6.45

>  <cluster_rmsd>  (73) 
1.73

>  <cluster>  (73) 
4

$$$$

     RDKit          3D

 42 43  0  0  1  0  0  0  0  0999 V2000
  141.3930   74.8130  221.4770 O   0  0  0  0  0  0  0  0  0  0  0  0
  140.1630   74.8110  221.7390 C   0  0  0  0  0  0  0  0  0  0  0  0
  139.2540   75.9240  221.3640 C   0  0  0  0  0  0  0  0  0  0  0  0
  138.2310   76.2240  222.4000 C   0  0  0  0  0  0  0  0  0  0  0  0
  136.9040   75.5780  221.9270 C   0  0  0  0  0  0  0  0  0  0  0  0
  136.5490   74.4920  222.5410 O   0  0  0  0  0  0  0  0  0  0  0  0
  136.1960   73.4210  223.1450 C   0  0  0  0  0  0  0  0  0  0  0  0
  136.5650   72.1460  222.6930 C   0  0  0  0  0  0  0  0  0  0  0  0
  136.1860   70.9960  223.3420 C   0  0  0  0  0  0  0  0  0  0  0  0
  135.4170   71.1240  224.4690 C   0  0  0  0  0  0  0  0  0  0  0  0
  134.9270   69.6770  225.3030 Cl  0  0  0  0  0  0  0  0  0  0  0  0
  135.0150   72.3340  224.9740 C   0  0  0  0  0  0  0  0  0  0  0  0
  135.4080   73.4640  224.3070 C   0  0  0  0  0  0  0  0  0  0  0  0
  134.9270   75.0310  224.9020 Cl  0  0  0  0  0  0  0  0  0  0  0  0
  139.5380   73.7060  222.4340 N   0  0  0  0  0  0  0  0  0  0  0  0
  140.3400   72.6620  222.7960 N   0  0  0  0  0  0  0  0  0  0  0  0
  139.8800   71.5270  223.1020 C   0  0  0  0  0  0  0  0  0  0  0  0
  139.8240   70.8570  224.3680 C   0  0  0  0  0  0  0  0  0  0  0  0
  139.2840   69.6350  224.6460 C   0  0  0  0  0  0  0  0  0  0  0  0
  139.2660   69.0590  225.9090 C   0  0  0  0  0  0  0  0  0  0  0  0
  139.8130   69.7230  226.9690 C   0  0  0  0  0  0  0  0  0  0  0  0
  140.3660   70.9610  226.7160 C   0  0  0  0  0  0  0  0  0  0  0  0
  140.9620   71.6960  227.8490 C   0  0  0  0  0  0  0  0  0  0  0  0
  141.7500   72.7270  227.3770 F   0  0  0  0  0  0  0  0  0  0  0  0
  139.9500   72.2460  228.6360 F   0  0  0  0  0  0  0  0  0  0  0  0
  141.6810   70.8640  228.6900 F   0  0  0  0  0  0  0  0  0  0  0  0
  140.3810   71.5260  225.4630 C   0  0  0  0  0  0  0  0  0  0  0  0
  139.8588   76.8279  221.1989 H   0  0  0  0  0  0  0  0  0  0  0  0
  138.7161   75.6128  220.4564 H   0  0  0  0  0  0  0  0  0  0  0  0
  138.5357   75.7966  223.3667 H   0  0  0  0  0  0  0  0  0  0  0  0
  138.1136   77.3096  222.5329 H   0  0  0  0  0  0  0  0  0  0  0  0
  136.1022   76.3187  222.0628 H   0  0  0  0  0  0  0  0  0  0  0  0
  137.0739   75.2846  220.8805 H   0  0  0  0  0  0  0  0  0  0  0  0
  137.1807   72.0635  221.7852 H   0  0  0  0  0  0  0  0  0  0  0  0
  136.4894   70.0064  222.9697 H   0  0  0  0  0  0  0  0  0  0  0  0
  134.3985   72.3950  225.8829 H   0  0  0  0  0  0  0  0  0  0  0  0
  138.4990   73.7360  222.6630 H   0  0  0  0  0  0  0  0  0  0  0  0
  139.4531   70.9605  222.2612 H   0  0  0  0  0  0  0  0  0  0  0  0
  138.8341   69.0702  223.8162 H   0  0  0  0  0  0  0  0  0  0  0  0
  138.8113   68.0682  226.0556 H   0  0  0  0  0  0  0  0  0  0  0  0
  139.8127   69.2899  227.9801 H   0  0  0  0  0  0  0  0  0  0  0  0
  140.8368   72.5168  225.3195 H   0  0  0  0  0  0  0  0  0  0  0  0
  1  2  2  0
  2  3  1  0
  3  4  1  0
  4  5  1  0
  5  6  1  0
  6  7  1  0
  7  8  2  0
  8  9  1  0
  9 10  2  0
 10 11  1  0
 10 12  1  0
 12 13  2  0
 13 14  1  0
  2 15  1  0
 15 16  1  0
 16 17  2  0
 17 18  1  0
 18 19  2  0
 19 20  1  0
 20 21  2  0
 21 22  1  0
 22 23  1  0
 23 24  1  0
 23 25  1  0
 23 26  1  0
 22 27  2  0
 13  7  1  0
 27 18  1  0
  3 28  1  0
  3 29  1  0
  4 30  1  0
  4 31  1  0
  5 32  1  0
  5 33  1  0
  8 34  1  0
  9 35  1  0
 12 36  1  0
 15 37  1  0
 17 38  1  0
 19 39  1  0
 20 40  1  0
 21 41  1  0
 27 42  1  0
M  END
>  <smiles>  (74) 
O=C(CCCOc1ccc(Cl)cc1Cl)NN=Cc1cccc(C(F)(F)F)c1

>  <score_type>  (74) 
oracle

>  <origin>  (74) 
autodockgpu

>  <m_score__min__energy>  (74) 
-7.79

>  <m_primary>  (74) 
energy

>  <rmsd>  (74) 
10.554308581620104

>  <m_score__min__rmsd>  (74) 
10.554308581620104

>  <meeko>  (74) 
{"free_energy": -5.77, "intermolecular_energy": -8.45, "internal_energy": -2.44, "cluster_size": 12, "cluster_id": 7, "rank_in_cluster": 3}

>  <energy>  (74) 
-6.38

>  <cluster_rmsd>  (74) 
1.75

>  <cluster>  (74) 
4

$$$$

     RDKit          3D

 42 43  0  0  1  0  0  0  0  0999 V2000
  139.9530   75.3790  222.3450 O   0  0  0  0  0  0  0  0  0  0  0  0
  139.9710   74.6230  221.3390 C   0  0  0  0  0  0  0  0  0  0  0  0
  139.7140   75.1060  219.9590 C   0  0  0  0  0  0  0  0  0  0  0  0
  139.3270   74.0220  219.0180 C   0  0  0  0  0  0  0  0  0  0  0  0
  140.6010   73.6310  218.2270 C   0  0  0  0  0  0  0  0  0  0  0  0
  141.7020   73.5790  218.9110 O   0  0  0  0  0  0  0  0  0  0  0  0
  142.7880   73.5260  219.5830 C   0  0  0  0  0  0  0  0  0  0  0  0
  143.2570   72.3380  220.1630 C   0  0  0  0  0  0  0  0  0  0  0  0
  144.4240   72.2810  220.8850 C   0  0  0  0  0  0  0  0  0  0  0  0
  145.1400   73.4410  221.0330 C   0  0  0  0  0  0  0  0  0  0  0  0
  146.6210   73.3860  221.9460 Cl  0  0  0  0  0  0  0  0  0  0  0  0
  144.7490   74.6410  220.4990 C   0  0  0  0  0  0  0  0  0  0  0  0
  143.5810   74.6690  219.7830 C   0  0  0  0  0  0  0  0  0  0  0  0
  143.0330   76.1660  219.0790 Cl  0  0  0  0  0  0  0  0  0  0  0  0
  140.2480   73.2070  221.4610 N   0  0  0  0  0  0  0  0  0  0  0  0
  140.4900   72.7230  222.7150 N   0  0  0  0  0  0  0  0  0  0  0  0
  139.6990   71.9340  223.3020 C   0  0  0  0  0  0  0  0  0  0  0  0
  139.9140   71.0610  224.4180 C   0  0  0  0  0  0  0  0  0  0  0  0
  139.7580   69.7060  224.4640 C   0  0  0  0  0  0  0  0  0  0  0  0
  139.9820   68.9330  225.5950 C   0  0  0  0  0  0  0  0  0  0  0  0
  140.3870   69.5250  226.7570 C   0  0  0  0  0  0  0  0  0  0  0  0
  140.5530   70.8950  226.7370 C   0  0  0  0  0  0  0  0  0  0  0  0
  140.9900   71.5550  227.9830 C   0  0  0  0  0  0  0  0  0  0  0  0
  141.7240   70.6720  228.7500 F   0  0  0  0  0  0  0  0  0  0  0  0
  141.8050   72.6450  227.6760 F   0  0  0  0  0  0  0  0  0  0  0  0
  139.9260   72.0730  228.7010 F   0  0  0  0  0  0  0  0  0  0  0  0
  140.3300   71.6550  225.6140 C   0  0  0  0  0  0  0  0  0  0  0  0
  138.8999   75.8450  219.9939 H   0  0  0  0  0  0  0  0  0  0  0  0
  140.6533   75.5405  219.5862 H   0  0  0  0  0  0  0  0  0  0  0  0
  138.9485   73.1537  219.5773 H   0  0  0  0  0  0  0  0  0  0  0  0
  138.5310   74.3589  218.3377 H   0  0  0  0  0  0  0  0  0  0  0  0
  140.4316   72.6376  217.7861 H   0  0  0  0  0  0  0  0  0  0  0  0
  140.7487   74.4325  217.4882 H   0  0  0  0  0  0  0  0  0  0  0  0
  142.6682   71.4177  220.0348 H   0  0  0  0  0  0  0  0  0  0  0  0
  144.7724   71.3370  221.3293 H   0  0  0  0  0  0  0  0  0  0  0  0
  145.3518   75.5502  220.6402 H   0  0  0  0  0  0  0  0  0  0  0  0
  140.2370   72.5840  220.5990 H   0  0  0  0  0  0  0  0  0  0  0  0
  138.6792   71.9130  222.8903 H   0  0  0  0  0  0  0  0  0  0  0  0
  139.4340   69.1936  223.5461 H   0  0  0  0  0  0  0  0  0  0  0  0
  139.8333   67.8438  225.5552 H   0  0  0  0  0  0  0  0  0  0  0  0
  140.5725   68.9366  227.6677 H   0  0  0  0  0  0  0  0  0  0  0  0
  140.4805   72.7438  225.6562 H   0  0  0  0  0  0  0  0  0  0  0  0
  1  2  2  0
  2  3  1  0
  3  4  1  0
  4  5  1  0
  5  6  1  0
  6  7  1  0
  7  8  2  0
  8  9  1  0
  9 10  2  0
 10 11  1  0
 10 12  1  0
 12 13  2  0
 13 14  1  0
  2 15  1  0
 15 16  1  0
 16 17  2  0
 17 18  1  0
 18 19  2  0
 19 20  1  0
 20 21  2  0
 21 22  1  0
 22 23  1  0
 23 24  1  0
 23 25  1  0
 23 26  1  0
 22 27  2  0
 13  7  1  0
 27 18  1  0
  3 28  1  0
  3 29  1  0
  4 30  1  0
  4 31  1  0
  5 32  1  0
  5 33  1  0
  8 34  1  0
  9 35  1  0
 12 36  1  0
 15 37  1  0
 17 38  1  0
 19 39  1  0
 20 40  1  0
 21 41  1  0
 27 42  1  0
M  END
>  <smiles>  (75) 
O=C(CCCOc1ccc(Cl)cc1Cl)NN=Cc1cccc(C(F)(F)F)c1

>  <score_type>  (75) 
oracle

>  <origin>  (75) 
autodockgpu

>  <m_score__min__energy>  (75) 
-7.79

>  <m_primary>  (75) 
energy

>  <rmsd>  (75) 
9.995851725460328

>  <m_score__min__rmsd>  (75) 
9.995851725460328

>  <meeko>  (75) 
{"free_energy": -6.36, "intermolecular_energy": -9.04, "internal_energy": -1.68, "cluster_size": 10, "cluster_id": 4, "rank_in_cluster": 6}

>  <energy>  (75) 
-6.38

>  <cluster_rmsd>  (75) 
1.6

>  <cluster>  (75) 
4

$$$$

     RDKit          3D

 42 43  0  0  1  0  0  0  0  0999 V2000
  140.2700   74.6530  222.3320 O   0  0  0  0  0  0  0  0  0  0  0  0
  140.1390   73.6980  221.5230 C   0  0  0  0  0  0  0  0  0  0  0  0
  140.2160   73.8700  220.0500 C   0  0  0  0  0  0  0  0  0  0  0  0
  141.4210   74.6180  219.6060 C   0  0  0  0  0  0  0  0  0  0  0  0
  140.9500   76.0380  219.2010 C   0  0  0  0  0  0  0  0  0  0  0  0
  141.1750   76.9800  220.0630 O   0  0  0  0  0  0  0  0  0  0  0  0
  141.4000   77.9100  220.9120 C   0  0  0  0  0  0  0  0  0  0  0  0
  141.2300   77.7260  222.2920 C   0  0  0  0  0  0  0  0  0  0  0  0
  141.4720   78.7240  223.2040 C   0  0  0  0  0  0  0  0  0  0  0  0
  141.8920   79.9370  222.7240 C   0  0  0  0  0  0  0  0  0  0  0  0
  142.2030   81.2140  223.8670 Cl  0  0  0  0  0  0  0  0  0  0  0  0
  142.0820   80.1970  221.3910 C   0  0  0  0  0  0  0  0  0  0  0  0
  141.8340   79.1830  220.5040 C   0  0  0  0  0  0  0  0  0  0  0  0
  142.0570   79.4530  218.7970 Cl  0  0  0  0  0  0  0  0  0  0  0  0
  139.9000   72.3460  221.9800 N   0  0  0  0  0  0  0  0  0  0  0  0
  139.8230   72.1460  223.3280 N   0  0  0  0  0  0  0  0  0  0  0  0
  140.7020   71.5060  223.9710 C   0  0  0  0  0  0  0  0  0  0  0  0
  140.7920   71.1970  225.3670 C   0  0  0  0  0  0  0  0  0  0  0  0
  141.0050   72.0590  226.4030 C   0  0  0  0  0  0  0  0  0  0  0  0
  141.0860   71.6740  227.7350 C   0  0  0  0  0  0  0  0  0  0  0  0
  140.9480   70.3590  228.0740 C   0  0  0  0  0  0  0  0  0  0  0  0
  140.7300   69.4660  227.0450 C   0  0  0  0  0  0  0  0  0  0  0  0
  140.5780   68.0390  227.3890 C   0  0  0  0  0  0  0  0  0  0  0  0
  141.0300   67.8150  228.6750 F   0  0  0  0  0  0  0  0  0  0  0  0
  139.2300   67.6830  227.3340 F   0  0  0  0  0  0  0  0  0  0  0  0
  141.2210   67.2110  226.4850 F   0  0  0  0  0  0  0  0  0  0  0  0
  140.6510   69.8530  225.7280 C   0  0  0  0  0  0  0  0  0  0  0  0
  140.2318   72.8742  219.5829 H   0  0  0  0  0  0  0  0  0  0  0  0
  139.3378   74.4580  219.7451 H   0  0  0  0  0  0  0  0  0  0  0  0
  142.1498   74.6818  220.4274 H   0  0  0  0  0  0  0  0  0  0  0  0
  141.9084   74.1104  218.7606 H   0  0  0  0  0  0  0  0  0  0  0  0
  141.4624   76.3084  218.2660 H   0  0  0  0  0  0  0  0  0  0  0  0
  139.8555   75.9728  219.1127 H   0  0  0  0  0  0  0  0  0  0  0  0
  140.8901   76.7458  222.6575 H   0  0  0  0  0  0  0  0  0  0  0  0
  141.3335   78.5556  224.2822 H   0  0  0  0  0  0  0  0  0  0  0  0
  142.4215   81.1848  221.0462 H   0  0  0  0  0  0  0  0  0  0  0  0
  139.7730   71.5580  221.2760 H   0  0  0  0  0  0  0  0  0  0  0  0
  141.5331   71.1240  223.3599 H   0  0  0  0  0  0  0  0  0  0  0  0
  141.1200   73.1275  226.1682 H   0  0  0  0  0  0  0  0  0  0  0  0
  141.2612   72.4283  228.5162 H   0  0  0  0  0  0  0  0  0  0  0  0
  141.0079   70.0261  229.1207 H   0  0  0  0  0  0  0  0  0  0  0  0
  140.4748   69.0967  224.9490 H   0  0  0  0  0  0  0  0  0  0  0  0
  1  2  2  0
  2  3  1  0
  3  4  1  0
  4  5  1  0
  5  6  1  0
  6  7  1  0
  7  8  2  0
  8  9  1  0
  9 10  2  0
 10 11  1  0
 10 12  1  0
 12 13  2  0
 13 14  1  0
  2 15  1  0
 15 16  1  0
 16 17  2  0
 17 18  1  0
 18 19  2  0
 19 20  1  0
 20 21  2  0
 21 22  1  0
 22 23  1  0
 23 24  1  0
 23 25  1  0
 23 26  1  0
 22 27  2  0
 13  7  1  0
 27 18  1  0
  3 28  1  0
  3 29  1  0
  4 30  1  0
  4 31  1  0
  5 32  1  0
  5 33  1  0
  8 34  1  0
  9 35  1  0
 12 36  1  0
 15 37  1  0
 17 38  1  0
 19 39  1  0
 20 40  1  0
 21 41  1  0
 27 42  1  0
M  END
>  <smiles>  (76) 
O=C(CCCOc1ccc(Cl)cc1Cl)NN=Cc1cccc(C(F)(F)F)c1

>  <score_type>  (76) 
oracle

>  <origin>  (76) 
autodockgpu

>  <m_score__min__energy>  (76) 
-7.79

>  <m_primary>  (76) 
energy

>  <rmsd>  (76) 
5.80965324463023

>  <m_score__min__rmsd>  (76) 
5.80965324463023

>  <meeko>  (76) 
{"free_energy": -7.28, "intermolecular_energy": -9.96, "internal_energy": -0.85, "cluster_size": 10, "cluster_id": 1, "rank_in_cluster": 4}

>  <energy>  (76) 
-6.36

>  <cluster_rmsd>  (76) 
1.59

>  <cluster>  (76) 
4

$$$$

     RDKit          3D

 42 43  0  0  1  0  0  0  0  0999 V2000
  141.4630   74.1460  220.8990 O   0  0  0  0  0  0  0  0  0  0  0  0
  140.3690   74.4670  221.4290 C   0  0  0  0  0  0  0  0  0  0  0  0
  139.6720   75.7450  221.1370 C   0  0  0  0  0  0  0  0  0  0  0  0
  139.1850   76.4430  222.3560 C   0  0  0  0  0  0  0  0  0  0  0  0
  137.6360   76.3910  222.3200 C   0  0  0  0  0  0  0  0  0  0  0  0
  137.1010   75.2300  222.5390 O   0  0  0  0  0  0  0  0  0  0  0  0
  136.5700   74.0870  222.7560 C   0  0  0  0  0  0  0  0  0  0  0  0
  136.7970   72.9820  221.9230 C   0  0  0  0  0  0  0  0  0  0  0  0
  136.2260   71.7540  222.1560 C   0  0  0  0  0  0  0  0  0  0  0  0
  135.4080   71.6280  223.2480 C   0  0  0  0  0  0  0  0  0  0  0  0
  134.6760   70.0790  223.5580 Cl  0  0  0  0  0  0  0  0  0  0  0  0
  135.1360   72.6600  224.1100 C   0  0  0  0  0  0  0  0  0  0  0  0
  135.7190   73.8730  223.8540 C   0  0  0  0  0  0  0  0  0  0  0  0
  135.4120   75.2220  224.9140 Cl  0  0  0  0  0  0  0  0  0  0  0  0
  139.7020   73.5970  222.3740 N   0  0  0  0  0  0  0  0  0  0  0  0
  140.3100   72.4110  222.6690 N   0  0  0  0  0  0  0  0  0  0  0  0
  139.6870   71.4370  223.1760 C   0  0  0  0  0  0  0  0  0  0  0  0
  139.8740   70.7660  224.4290 C   0  0  0  0  0  0  0  0  0  0  0  0
  139.6650   69.4470  224.7110 C   0  0  0  0  0  0  0  0  0  0  0  0
  139.8650   68.8750  225.9600 C   0  0  0  0  0  0  0  0  0  0  0  0
  140.2970   69.6450  227.0010 C   0  0  0  0  0  0  0  0  0  0  0  0
  140.5160   70.9830  226.7430 C   0  0  0  0  0  0  0  0  0  0  0  0
  140.9830   71.8340  227.8550 C   0  0  0  0  0  0  0  0  0  0  0  0
  141.5950   72.9660  227.3560 F   0  0  0  0  0  0  0  0  0  0  0  0
  139.8930   72.2340  228.6300 F   0  0  0  0  0  0  0  0  0  0  0  0
  141.8240   71.1510  228.7170 F   0  0  0  0  0  0  0  0  0  0  0  0
  140.3170   71.5430  225.5040 C   0  0  0  0  0  0  0  0  0  0  0  0
  140.3708   76.4109  220.6095 H   0  0  0  0  0  0  0  0  0  0  0  0
  138.7894   75.5019  220.5271 H   0  0  0  0  0  0  0  0  0  0  0  0
  139.5592   75.9350  223.2571 H   0  0  0  0  0  0  0  0  0  0  0  0
  139.5423   77.4830  222.3819 H   0  0  0  0  0  0  0  0  0  0  0  0
  137.2581   77.0854  223.0848 H   0  0  0  0  0  0  0  0  0  0  0  0
  137.3541   76.6581  221.2909 H   0  0  0  0  0  0  0  0  0  0  0  0
  137.4565   73.1027  221.0509 H   0  0  0  0  0  0  0  0  0  0  0  0
  136.4190   70.9012  221.4886 H   0  0  0  0  0  0  0  0  0  0  0  0
  134.4731   72.5185  224.9763 H   0  0  0  0  0  0  0  0  0  0  0  0
  138.7860   73.8990  222.8250 H   0  0  0  0  0  0  0  0  0  0  0  0
  138.8694   71.0393  222.5569 H   0  0  0  0  0  0  0  0  0  0  0  0
  139.3157   68.7955  223.8964 H   0  0  0  0  0  0  0  0  0  0  0  0
  139.6755   67.8020  226.1107 H   0  0  0  0  0  0  0  0  0  0  0  0
  140.4632   69.2181  228.0011 H   0  0  0  0  0  0  0  0  0  0  0  0
  140.5086   72.6160  225.3559 H   0  0  0  0  0  0  0  0  0  0  0  0
  1  2  2  0
  2  3  1  0
  3  4  1  0
  4  5  1  0
  5  6  1  0
  6  7  1  0
  7  8  2  0
  8  9  1  0
  9 10  2  0
 10 11  1  0
 10 12  1  0
 12 13  2  0
 13 14  1  0
  2 15  1  0
 15 16  1  0
 16 17  2  0
 17 18  1  0
 18 19  2  0
 19 20  1  0
 20 21  2  0
 21 22  1  0
 22 23  1  0
 23 24  1  0
 23 25  1  0
 23 26  1  0
 22 27  2  0
 13  7  1  0
 27 18  1  0
  3 28  1  0
  3 29  1  0
  4 30  1  0
  4 31  1  0
  5 32  1  0
  5 33  1  0
  8 34  1  0
  9 35  1  0
 12 36  1  0
 15 37  1  0
 17 38  1  0
 19 39  1  0
 20 40  1  0
 21 41  1  0
 27 42  1  0
M  END
>  <smiles>  (77) 
O=C(CCCOc1ccc(Cl)cc1Cl)NN=Cc1cccc(C(F)(F)F)c1

>  <score_type>  (77) 
oracle

>  <origin>  (77) 
autodockgpu

>  <m_score__min__energy>  (77) 
-7.79

>  <m_primary>  (77) 
energy

>  <rmsd>  (77) 
9.81090665923868

>  <m_score__min__rmsd>  (77) 
9.81090665923868

>  <meeko>  (77) 
{"free_energy": -5.44, "intermolecular_energy": -8.12, "internal_energy": -2.17, "cluster_size": 12, "cluster_id": 7, "rank_in_cluster": 10}

>  <energy>  (77) 
-6.31

>  <cluster_rmsd>  (77) 
1.65

>  <cluster>  (77) 
4

$$$$

     RDKit          3D

 42 43  0  0  1  0  0  0  0  0999 V2000
  141.1530   74.2310  221.0270 O   0  0  0  0  0  0  0  0  0  0  0  0
  140.0900   74.6150  221.5780 C   0  0  0  0  0  0  0  0  0  0  0  0
  139.6420   76.0310  221.5740 C   0  0  0  0  0  0  0  0  0  0  0  0
  138.6880   76.3510  222.6670 C   0  0  0  0  0  0  0  0  0  0  0  0
  137.2770   75.9390  222.1740 C   0  0  0  0  0  0  0  0  0  0  0  0
  136.5340   75.3150  223.0340 O   0  0  0  0  0  0  0  0  0  0  0  0
  135.8020   74.6960  223.8810 C   0  0  0  0  0  0  0  0  0  0  0  0
  135.1760   75.3480  224.9530 C   0  0  0  0  0  0  0  0  0  0  0  0
  134.3900   74.6840  225.8630 C   0  0  0  0  0  0  0  0  0  0  0  0
  134.2270   73.3330  225.6980 C   0  0  0  0  0  0  0  0  0  0  0  0
  133.2350   72.4750  226.8420 Cl  0  0  0  0  0  0  0  0  0  0  0  0
  134.8050   72.6230  224.6770 C   0  0  0  0  0  0  0  0  0  0  0  0
  135.5830   73.3110  223.7840 C   0  0  0  0  0  0  0  0  0  0  0  0
  136.3440   72.4630  222.4650 Cl  0  0  0  0  0  0  0  0  0  0  0  0
  139.2150   73.6890  222.2650 N   0  0  0  0  0  0  0  0  0  0  0  0
  139.5910   72.3760  222.2920 N   0  0  0  0  0  0  0  0  0  0  0  0
  140.3800   71.9150  223.1620 C   0  0  0  0  0  0  0  0  0  0  0  0
  140.1150   71.1500  224.3460 C   0  0  0  0  0  0  0  0  0  0  0  0
  139.4280   69.9760  224.4470 C   0  0  0  0  0  0  0  0  0  0  0  0
  139.2080   69.3000  225.6390 C   0  0  0  0  0  0  0  0  0  0  0  0
  139.6940   69.8080  226.8100 C   0  0  0  0  0  0  0  0  0  0  0  0
  140.3930   70.9950  226.7360 C   0  0  0  0  0  0  0  0  0  0  0  0
  140.9260   71.5620  227.9900 C   0  0  0  0  0  0  0  0  0  0  0  0
  141.6260   70.5940  228.6830 F   0  0  0  0  0  0  0  0  0  0  0  0
  141.8030   72.6070  227.6970 F   0  0  0  0  0  0  0  0  0  0  0  0
  139.9320   72.1170  228.7770 F   0  0  0  0  0  0  0  0  0  0  0  0
  140.6070   71.6600  225.5520 C   0  0  0  0  0  0  0  0  0  0  0  0
  140.5259   76.6767  221.6825 H   0  0  0  0  0  0  0  0  0  0  0  0
  139.1160   76.2025  220.6233 H   0  0  0  0  0  0  0  0  0  0  0  0
  138.9505   75.7872  223.5743 H   0  0  0  0  0  0  0  0  0  0  0  0
  138.7197   77.4225  222.9138 H   0  0  0  0  0  0  0  0  0  0  0  0
  136.7459   76.8536  221.8714 H   0  0  0  0  0  0  0  0  0  0  0  0
  137.4461   75.2246  221.3548 H   0  0  0  0  0  0  0  0  0  0  0  0
  135.3198   76.4323  225.0696 H   0  0  0  0  0  0  0  0  0  0  0  0
  133.9081   75.2179  226.6953 H   0  0  0  0  0  0  0  0  0  0  0  0
  134.6492   71.5385  224.5786 H   0  0  0  0  0  0  0  0  0  0  0  0
  138.3310   74.0410  222.7420 H   0  0  0  0  0  0  0  0  0  0  0  0
  141.4428   72.1354  222.9837 H   0  0  0  0  0  0  0  0  0  0  0  0
  139.0220   69.5365  223.5239 H   0  0  0  0  0  0  0  0  0  0  0  0
  138.6429   68.3563  225.6407 H   0  0  0  0  0  0  0  0  0  0  0  0
  139.5351   69.2936  227.7692 H   0  0  0  0  0  0  0  0  0  0  0  0
  141.1716   72.6040  225.5530 H   0  0  0  0  0  0  0  0  0  0  0  0
  1  2  2  0
  2  3  1  0
  3  4  1  0
  4  5  1  0
  5  6  1  0
  6  7  1  0
  7  8  2  0
  8  9  1  0
  9 10  2  0
 10 11  1  0
 10 12  1  0
 12 13  2  0
 13 14  1  0
  2 15  1  0
 15 16  1  0
 16 17  2  0
 17 18  1  0
 18 19  2  0
 19 20  1  0
 20 21  2  0
 21 22  1  0
 22 23  1  0
 23 24  1  0
 23 25  1  0
 23 26  1  0
 22 27  2  0
 13  7  1  0
 27 18  1  0
  3 28  1  0
  3 29  1  0
  4 30  1  0
  4 31  1  0
  5 32  1  0
  5 33  1  0
  8 34  1  0
  9 35  1  0
 12 36  1  0
 15 37  1  0
 17 38  1  0
 19 39  1  0
 20 40  1  0
 21 41  1  0
 27 42  1  0
M  END
>  <smiles>  (78) 
O=C(CCCOc1ccc(Cl)cc1Cl)NN=Cc1cccc(C(F)(F)F)c1

>  <score_type>  (78) 
oracle

>  <origin>  (78) 
autodockgpu

>  <m_score__min__energy>  (78) 
-7.79

>  <m_primary>  (78) 
energy

>  <rmsd>  (78) 
9.752115721709538

>  <m_score__min__rmsd>  (78) 
9.752115721709538

>  <meeko>  (78) 
{"free_energy": -6.0, "intermolecular_energy": -8.68, "internal_energy": -1.82, "cluster_size": 12, "cluster_id": 7, "rank_in_cluster": 1}

>  <energy>  (78) 
-6.21

>  <cluster_rmsd>  (78) 
1.63

>  <cluster>  (78) 
4

$$$$

     RDKit          3D

 42 43  0  0  1  0  0  0  0  0999 V2000
  141.3470   74.9260  221.5340 O   0  0  0  0  0  0  0  0  0  0  0  0
  140.1270   74.8640  221.8340 C   0  0  0  0  0  0  0  0  0  0  0  0
  139.1690   75.9630  221.5570 C   0  0  0  0  0  0  0  0  0  0  0  0
  137.8720   75.4900  221.0070 C   0  0  0  0  0  0  0  0  0  0  0  0
  136.8400   75.5470  222.1620 C   0  0  0  0  0  0  0  0  0  0  0  0
  136.5170   74.4090  222.6930 O   0  0  0  0  0  0  0  0  0  0  0  0
  136.2000   73.2870  223.2190 C   0  0  0  0  0  0  0  0  0  0  0  0
  136.6740   72.0640  222.7250 C   0  0  0  0  0  0  0  0  0  0  0  0
  136.3340   70.8580  223.2900 C   0  0  0  0  0  0  0  0  0  0  0  0
  135.4970   70.8780  224.3760 C   0  0  0  0  0  0  0  0  0  0  0  0
  135.0550   69.3590  225.1050 Cl  0  0  0  0  0  0  0  0  0  0  0  0
  134.9910   72.0310  224.9180 C   0  0  0  0  0  0  0  0  0  0  0  0
  135.3480   73.2180  224.3340 C   0  0  0  0  0  0  0  0  0  0  0  0
  134.7370   74.7180  224.9800 Cl  0  0  0  0  0  0  0  0  0  0  0  0
  139.5650   73.6960  222.4780 N   0  0  0  0  0  0  0  0  0  0  0  0
  140.4150   72.6620  222.7490 N   0  0  0  0  0  0  0  0  0  0  0  0
  140.0030   71.5040  223.0370 C   0  0  0  0  0  0  0  0  0  0  0  0
  139.9340   70.8290  224.3000 C   0  0  0  0  0  0  0  0  0  0  0  0
  139.4190   69.5920  224.5610 C   0  0  0  0  0  0  0  0  0  0  0  0
  139.3850   69.0120  225.8220 C   0  0  0  0  0  0  0  0  0  0  0  0
  139.8890   69.6870  226.8970 C   0  0  0  0  0  0  0  0  0  0  0  0
  140.4160   70.9400  226.6600 C   0  0  0  0  0  0  0  0  0  0  0  0
  140.9650   71.6860  227.8090 C   0  0  0  0  0  0  0  0  0  0  0  0
  141.7370   70.8480  228.5890 F   0  0  0  0  0  0  0  0  0  0  0  0
  141.7770   72.7240  227.3490 F   0  0  0  0  0  0  0  0  0  0  0  0
  139.9720   72.2920  228.5610 F   0  0  0  0  0  0  0  0  0  0  0  0
  140.4470   71.5090  225.4100 C   0  0  0  0  0  0  0  0  0  0  0  0
  138.9741   76.5009  222.4965 H   0  0  0  0  0  0  0  0  0  0  0  0
  139.6283   76.6102  220.7953 H   0  0  0  0  0  0  0  0  0  0  0  0
  137.5514   76.1429  220.1818 H   0  0  0  0  0  0  0  0  0  0  0  0
  137.9632   74.4670  220.6132 H   0  0  0  0  0  0  0  0  0  0  0  0
  137.2589   76.1821  222.9564 H   0  0  0  0  0  0  0  0  0  0  0  0
  135.9148   75.9380  221.7136 H   0  0  0  0  0  0  0  0  0  0  0  0
  137.3434   72.0695  221.8522 H   0  0  0  0  0  0  0  0  0  0  0  0
  136.7196   69.9106  222.8854 H   0  0  0  0  0  0  0  0  0  0  0  0
  134.3221   72.0042  225.7908 H   0  0  0  0  0  0  0  0  0  0  0  0
  138.5340   73.6740  222.7410 H   0  0  0  0  0  0  0  0  0  0  0  0
  139.6380   70.9182  222.1805 H   0  0  0  0  0  0  0  0  0  0  0  0
  139.0047   69.0184  223.7188 H   0  0  0  0  0  0  0  0  0  0  0  0
  138.9524   68.0094  225.9552 H   0  0  0  0  0  0  0  0  0  0  0  0
  139.8754   69.2511  227.9069 H   0  0  0  0  0  0  0  0  0  0  0  0
  140.8805   72.5116  225.2802 H   0  0  0  0  0  0  0  0  0  0  0  0
  1  2  2  0
  2  3  1  0
  3  4  1  0
  4  5  1  0
  5  6  1  0
  6  7  1  0
  7  8  2  0
  8  9  1  0
  9 10  2  0
 10 11  1  0
 10 12  1  0
 12 13  2  0
 13 14  1  0
  2 15  1  0
 15 16  1  0
 16 17  2  0
 17 18  1  0
 18 19  2  0
 19 20  1  0
 20 21  2  0
 21 22  1  0
 22 23  1  0
 23 24  1  0
 23 25  1  0
 23 26  1  0
 22 27  2  0
 13  7  1  0
 27 18  1  0
  3 28  1  0
  3 29  1  0
  4 30  1  0
  4 31  1  0
  5 32  1  0
  5 33  1  0
  8 34  1  0
  9 35  1  0
 12 36  1  0
 15 37  1  0
 17 38  1  0
 19 39  1  0
 20 40  1  0
 21 41  1  0
 27 42  1  0
M  END
>  <smiles>  (79) 
O=C(CCCOc1ccc(Cl)cc1Cl)NN=Cc1cccc(C(F)(F)F)c1

>  <score_type>  (79) 
oracle

>  <origin>  (79) 
autodockgpu

>  <m_score__min__energy>  (79) 
-7.79

>  <m_primary>  (79) 
energy

>  <rmsd>  (79) 
10.681821911297225

>  <m_score__min__rmsd>  (79) 
10.681821911297225

>  <meeko>  (79) 
{"free_energy": -5.57, "intermolecular_energy": -8.25, "internal_energy": -2.41, "cluster_size": 12, "cluster_id": 7, "rank_in_cluster": 8}

>  <energy>  (79) 
-6.13

>  <cluster_rmsd>  (79) 
1.87

>  <cluster>  (79) 
4

$$$$

     RDKit          3D

 42 43  0  0  1  0  0  0  0  0999 V2000
  139.9260   74.1830  222.3200 O   0  0  0  0  0  0  0  0  0  0  0  0
  139.8920   73.5060  221.2600 C   0  0  0  0  0  0  0  0  0  0  0  0
  139.4800   74.0730  219.9510 C   0  0  0  0  0  0  0  0  0  0  0  0
  139.4210   75.5580  219.9440 C   0  0  0  0  0  0  0  0  0  0  0  0
  140.8830   76.0700  219.9070 C   0  0  0  0  0  0  0  0  0  0  0  0
  141.1580   77.0650  220.6930 O   0  0  0  0  0  0  0  0  0  0  0  0
  141.4250   78.0460  221.4680 C   0  0  0  0  0  0  0  0  0  0  0  0
  141.3890   77.9330  222.8650 C   0  0  0  0  0  0  0  0  0  0  0  0
  141.6750   78.9870  223.6980 C   0  0  0  0  0  0  0  0  0  0  0  0
  142.0050   80.1860  223.1190 C   0  0  0  0  0  0  0  0  0  0  0  0
  142.3700   81.5330  224.1600 Cl  0  0  0  0  0  0  0  0  0  0  0  0
  142.0610   80.3770  221.7630 C   0  0  0  0  0  0  0  0  0  0  0  0
  141.7710   79.3080  220.9560 C   0  0  0  0  0  0  0  0  0  0  0  0
  141.8270   79.4910  219.2240 Cl  0  0  0  0  0  0  0  0  0  0  0  0
  140.2580   72.1060  221.2440 N   0  0  0  0  0  0  0  0  0  0  0  0
  140.6440   71.5470  222.4290 N   0  0  0  0  0  0  0  0  0  0  0  0
  139.8210   71.2600  223.3430 C   0  0  0  0  0  0  0  0  0  0  0  0
  140.0240   70.6210  224.6100 C   0  0  0  0  0  0  0  0  0  0  0  0
  139.9170   69.2930  224.9040 C   0  0  0  0  0  0  0  0  0  0  0  0
  140.1250   68.7540  226.1660 C   0  0  0  0  0  0  0  0  0  0  0  0
  140.4610   69.5690  227.2080 C   0  0  0  0  0  0  0  0  0  0  0  0
  140.5760   70.9170  226.9380 C   0  0  0  0  0  0  0  0  0  0  0  0
  140.9380   71.8160  228.0520 C   0  0  0  0  0  0  0  0  0  0  0  0
  141.8290   71.1840  228.8950 F   0  0  0  0  0  0  0  0  0  0  0  0
  141.5530   72.9630  227.5480 F   0  0  0  0  0  0  0  0  0  0  0  0
  139.8260   72.2620  228.7460 F   0  0  0  0  0  0  0  0  0  0  0  0
  140.3690   71.4450  225.6860 C   0  0  0  0  0  0  0  0  0  0  0  0
  140.2026   73.7490  219.1876 H   0  0  0  0  0  0  0  0  0  0  0  0
  138.4639   73.7064  219.7434 H   0  0  0  0  0  0  0  0  0  0  0  0
  138.8750   75.9101  219.0563 H   0  0  0  0  0  0  0  0  0  0  0  0
  138.8961   75.9339  220.8346 H   0  0  0  0  0  0  0  0  0  0  0  0
  141.5400   75.2319  220.1828 H   0  0  0  0  0  0  0  0  0  0  0  0
  141.0388   76.4475  218.8856 H   0  0  0  0  0  0  0  0  0  0  0  0
  141.1216   76.9636  223.3108 H   0  0  0  0  0  0  0  0  0  0  0  0
  141.6406   78.8736  224.7916 H   0  0  0  0  0  0  0  0  0  0  0  0
  142.3296   81.3549  221.3370 H   0  0  0  0  0  0  0  0  0  0  0  0
  140.2020   71.5480  220.3400 H   0  0  0  0  0  0  0  0  0  0  0  0
  138.7800   71.5468  223.1328 H   0  0  0  0  0  0  0  0  0  0  0  0
  139.6487   68.6053  224.0885 H   0  0  0  0  0  0  0  0  0  0  0  0
  140.0191   67.6709  226.3263 H   0  0  0  0  0  0  0  0  0  0  0  0
  140.6325   69.1688  228.2182 H   0  0  0  0  0  0  0  0  0  0  0  0
  140.4760   72.5284  225.5285 H   0  0  0  0  0  0  0  0  0  0  0  0
  1  2  2  0
  2  3  1  0
  3  4  1  0
  4  5  1  0
  5  6  1  0
  6  7  1  0
  7  8  2  0
  8  9  1  0
  9 10  2  0
 10 11  1  0
 10 12  1  0
 12 13  2  0
 13 14  1  0
  2 15  1  0
 15 16  1  0
 16 17  2  0
 17 18  1  0
 18 19  2  0
 19 20  1  0
 20 21  2  0
 21 22  1  0
 22 23  1  0
 23 24  1  0
 23 25  1  0
 23 26  1  0
 22 27  2  0
 13  7  1  0
 27 18  1  0
  3 28  1  0
  3 29  1  0
  4 30  1  0
  4 31  1  0
  5 32  1  0
  5 33  1  0
  8 34  1  0
  9 35  1  0
 12 36  1  0
 15 37  1  0
 17 38  1  0
 19 39  1  0
 20 40  1  0
 21 41  1  0
 27 42  1  0
M  END
>  <smiles>  (80) 
O=C(CCCOc1ccc(Cl)cc1Cl)NN=Cc1cccc(C(F)(F)F)c1

>  <score_type>  (80) 
oracle

>  <origin>  (80) 
autodockgpu

>  <m_score__min__energy>  (80) 
-7.79

>  <m_primary>  (80) 
energy

>  <rmsd>  (80) 
5.940077523935064

>  <m_score__min__rmsd>  (80) 
5.940077523935064

>  <meeko>  (80) 
{"free_energy": -6.94, "intermolecular_energy": -9.62, "internal_energy": -0.75, "cluster_size": 9, "cluster_id": 2, "rank_in_cluster": 5}

>  <energy>  (80) 
-6.02

>  <cluster_rmsd>  (80) 
1.73

>  <cluster>  (80) 
4

$$$$

     RDKit          3D

 42 43  0  0  1  0  0  0  0  0999 V2000
  140.6590   74.0810  222.2520 O   0  0  0  0  0  0  0  0  0  0  0  0
  139.5200   73.5920  222.0360 C   0  0  0  0  0  0  0  0  0  0  0  0
  138.4410   74.3320  221.3350 C   0  0  0  0  0  0  0  0  0  0  0  0
  137.7650   75.3400  222.1930 C   0  0  0  0  0  0  0  0  0  0  0  0
  137.8900   76.7070  221.4730 C   0  0  0  0  0  0  0  0  0  0  0  0
  138.7560   77.5350  221.9700 O   0  0  0  0  0  0  0  0  0  0  0  0
  139.6080   78.3530  222.4590 C   0  0  0  0  0  0  0  0  0  0  0  0
  140.9910   78.1240  222.4000 C   0  0  0  0  0  0  0  0  0  0  0  0
  141.9070   79.0030  222.9240 C   0  0  0  0  0  0  0  0  0  0  0  0
  141.4280   80.1390  223.5250 C   0  0  0  0  0  0  0  0  0  0  0  0
  142.5760   81.2640  224.1960 Cl  0  0  0  0  0  0  0  0  0  0  0  0
  140.0930   80.4350  223.6230 C   0  0  0  0  0  0  0  0  0  0  0  0
  139.2020   79.5400  223.0910 C   0  0  0  0  0  0  0  0  0  0  0  0
  137.4920   79.8620  223.1850 Cl  0  0  0  0  0  0  0  0  0  0  0  0
  139.1790   72.2510  222.4620 N   0  0  0  0  0  0  0  0  0  0  0  0
  140.1450   71.5370  223.1100 N   0  0  0  0  0  0  0  0  0  0  0  0
  139.9040   70.4420  223.6920 C   0  0  0  0  0  0  0  0  0  0  0  0
  140.0660   70.0640  225.0640 C   0  0  0  0  0  0  0  0  0  0  0  0
  139.9300   68.8210  225.6120 C   0  0  0  0  0  0  0  0  0  0  0  0
  140.0990   68.5400  226.9610 C   0  0  0  0  0  0  0  0  0  0  0  0
  140.4240   69.5410  227.8300 C   0  0  0  0  0  0  0  0  0  0  0  0
  140.5680   70.8080  227.3030 C   0  0  0  0  0  0  0  0  0  0  0  0
  140.9170   71.9050  228.2260 C   0  0  0  0  0  0  0  0  0  0  0  0
  139.8140   72.2550  228.9790 F   0  0  0  0  0  0  0  0  0  0  0  0
  141.9230   71.4830  229.0970 F   0  0  0  0  0  0  0  0  0  0  0  0
  141.4350   73.0030  227.5610 F   0  0  0  0  0  0  0  0  0  0  0  0
  140.3990   71.0800  225.9660 C   0  0  0  0  0  0  0  0  0  0  0  0
  138.8785   74.8487  220.4681 H   0  0  0  0  0  0  0  0  0  0  0  0
  137.6805   73.5947  221.0382 H   0  0  0  0  0  0  0  0  0  0  0  0
  136.7048   75.0764  222.3213 H   0  0  0  0  0  0  0  0  0  0  0  0
  138.2269   75.3787  223.1905 H   0  0  0  0  0  0  0  0  0  0  0  0
  138.1722   76.5122  220.4278 H   0  0  0  0  0  0  0  0  0  0  0  0
  136.9114   77.1950  221.5919 H   0  0  0  0  0  0  0  0  0  0  0  0
  141.3553   77.2059  221.9158 H   0  0  0  0  0  0  0  0  0  0  0  0
  142.9870   78.8029  222.8638 H   0  0  0  0  0  0  0  0  0  0  0  0
  139.7491   81.3586  224.1116 H   0  0  0  0  0  0  0  0  0  0  0  0
  138.2030   71.8660  222.2860 H   0  0  0  0  0  0  0  0  0  0  0  0
  139.5053   69.6510  223.0397 H   0  0  0  0  0  0  0  0  0  0  0  0
  139.6698   67.9886  224.9416 H   0  0  0  0  0  0  0  0  0  0  0  0
  139.9711   67.5114  227.3292 H   0  0  0  0  0  0  0  0  0  0  0  0
  140.5649   69.3462  228.9034 H   0  0  0  0  0  0  0  0  0  0  0  0
  140.5273   72.1097  225.6009 H   0  0  0  0  0  0  0  0  0  0  0  0
  1  2  2  0
  2  3  1  0
  3  4  1  0
  4  5  1  0
  5  6  1  0
  6  7  1  0
  7  8  2  0
  8  9  1  0
  9 10  2  0
 10 11  1  0
 10 12  1  0
 12 13  2  0
 13 14  1  0
  2 15  1  0
 15 16  1  0
 16 17  2  0
 17 18  1  0
 18 19  2  0
 19 20  1  0
 20 21  2  0
 21 22  1  0
 22 23  1  0
 23 24  1  0
 23 25  1  0
 23 26  1  0
 22 27  2  0
 13  7  1  0
 27 18  1  0
  3 28  1  0
  3 29  1  0
  4 30  1  0
  4 31  1  0
  5 32  1  0
  5 33  1  0
  8 34  1  0
  9 35  1  0
 12 36  1  0
 15 37  1  0
 17 38  1  0
 19 39  1  0
 20 40  1  0
 21 41  1  0
 27 42  1  0
M  END
>  <smiles>  (81) 
O=C(CCCOc1ccc(Cl)cc1Cl)NN=Cc1cccc(C(F)(F)F)c1

>  <score_type>  (81) 
oracle

>  <origin>  (81) 
autodockgpu

>  <m_score__min__energy>  (81) 
-7.79

>  <m_primary>  (81) 
energy

>  <rmsd>  (81) 
5.719127803533436

>  <m_score__min__rmsd>  (81) 
5.719127803533436

>  <meeko>  (81) 
{"free_energy": -7.24, "intermolecular_energy": -9.93, "internal_energy": -0.82, "cluster_size": 10, "cluster_id": 1, "rank_in_cluster": 5}

>  <energy>  (81) 
-6.64

>  <cluster_rmsd>  (81) 
0.0

>  <cluster>  (81) 
5

$$$$

     RDKit          3D

 42 43  0  0  1  0  0  0  0  0999 V2000
  140.1500   75.0310  222.3400 O   0  0  0  0  0  0  0  0  0  0  0  0
  139.9560   74.0690  221.5530 C   0  0  0  0  0  0  0  0  0  0  0  0
  139.4680   74.2470  220.1620 C   0  0  0  0  0  0  0  0  0  0  0  0
  140.1350   75.3630  219.4410 C   0  0  0  0  0  0  0  0  0  0  0  0
  139.3500   76.6550  219.7780 C   0  0  0  0  0  0  0  0  0  0  0  0
  139.9370   77.4850  220.5840 O   0  0  0  0  0  0  0  0  0  0  0  0
  140.5170   78.3000  221.3800 C   0  0  0  0  0  0  0  0  0  0  0  0
  141.8440   78.7160  221.1960 C   0  0  0  0  0  0  0  0  0  0  0  0
  142.4680   79.5910  222.0510 C   0  0  0  0  0  0  0  0  0  0  0  0
  141.7470   80.0620  223.1180 C   0  0  0  0  0  0  0  0  0  0  0  0
  142.5220   81.1720  224.2130 Cl  0  0  0  0  0  0  0  0  0  0  0  0
  140.4470   79.7040  223.3680 C   0  0  0  0  0  0  0  0  0  0  0  0
  139.8500   78.8290  222.4980 C   0  0  0  0  0  0  0  0  0  0  0  0
  138.1990   78.3370  222.7620 Cl  0  0  0  0  0  0  0  0  0  0  0  0
  140.2000   72.7000  221.9560 N   0  0  0  0  0  0  0  0  0  0  0  0
  140.6510   72.4940  223.2280 N   0  0  0  0  0  0  0  0  0  0  0  0
  140.3810   71.4480  223.8820 C   0  0  0  0  0  0  0  0  0  0  0  0
  140.6010   71.1320  225.2620 C   0  0  0  0  0  0  0  0  0  0  0  0
  140.8910   71.9920  226.2820 C   0  0  0  0  0  0  0  0  0  0  0  0
  141.0980   71.6000  227.5980 C   0  0  0  0  0  0  0  0  0  0  0  0
  141.0150   70.2810  227.9370 C   0  0  0  0  0  0  0  0  0  0  0  0
  140.7220   69.3900  226.9250 C   0  0  0  0  0  0  0  0  0  0  0  0
  140.6280   67.9580  227.2710 C   0  0  0  0  0  0  0  0  0  0  0  0
  141.4370   67.2180  226.4320 F   0  0  0  0  0  0  0  0  0  0  0  0
  141.0650   67.7630  228.5820 F   0  0  0  0  0  0  0  0  0  0  0  0
  139.3230   67.4970  227.2380 F   0  0  0  0  0  0  0  0  0  0  0  0
  140.5180   69.7840  225.6240 C   0  0  0  0  0  0  0  0  0  0  0  0
  139.6498   73.3150  219.6067 H   0  0  0  0  0  0  0  0  0  0  0  0
  138.3975   74.4929  220.2222 H   0  0  0  0  0  0  0  0  0  0  0  0
  141.1789   75.4576  219.7747 H   0  0  0  0  0  0  0  0  0  0  0  0
  140.1420   75.1802  218.3563 H   0  0  0  0  0  0  0  0  0  0  0  0
  139.1536   77.1849  218.8343 H   0  0  0  0  0  0  0  0  0  0  0  0
  138.4440   76.3216  220.3052 H   0  0  0  0  0  0  0  0  0  0  0  0
  142.4060   78.3266  220.3343 H   0  0  0  0  0  0  0  0  0  0  0  0
  143.5098   79.9031  221.8856 H   0  0  0  0  0  0  0  0  0  0  0  0
  139.9027   80.1048  224.2358 H   0  0  0  0  0  0  0  0  0  0  0  0
  140.0090   71.9010  221.2790 H   0  0  0  0  0  0  0  0  0  0  0  0
  139.8989   70.6505  223.2976 H   0  0  0  0  0  0  0  0  0  0  0  0
  140.9654   73.0639  226.0463 H   0  0  0  0  0  0  0  0  0  0  0  0
  141.3287   72.3523  228.3666 H   0  0  0  0  0  0  0  0  0  0  0  0
  141.1746   69.9428  228.9715 H   0  0  0  0  0  0  0  0  0  0  0  0
  140.2865   69.0293  224.8580 H   0  0  0  0  0  0  0  0  0  0  0  0
  1  2  2  0
  2  3  1  0
  3  4  1  0
  4  5  1  0
  5  6  1  0
  6  7  1  0
  7  8  2  0
  8  9  1  0
  9 10  2  0
 10 11  1  0
 10 12  1  0
 12 13  2  0
 13 14  1  0
  2 15  1  0
 15 16  1  0
 16 17  2  0
 17 18  1  0
 18 19  2  0
 19 20  1  0
 20 21  2  0
 21 22  1  0
 22 23  1  0
 23 24  1  0
 23 25  1  0
 23 26  1  0
 22 27  2  0
 13  7  1  0
 27 18  1  0
  3 28  1  0
  3 29  1  0
  4 30  1  0
  4 31  1  0
  5 32  1  0
  5 33  1  0
  8 34  1  0
  9 35  1  0
 12 36  1  0
 15 37  1  0
 17 38  1  0
 19 39  1  0
 20 40  1  0
 21 41  1  0
 27 42  1  0
M  END
>  <smiles>  (82) 
O=C(CCCOc1ccc(Cl)cc1Cl)NN=Cc1cccc(C(F)(F)F)c1

>  <score_type>  (82) 
oracle

>  <origin>  (82) 
autodockgpu

>  <m_score__min__energy>  (82) 
-7.79

>  <m_primary>  (82) 
energy

>  <rmsd>  (82) 
5.656492262459271

>  <m_score__min__rmsd>  (82) 
5.656492262459271

>  <meeko>  (82) 
{"free_energy": -6.86, "intermolecular_energy": -9.54, "internal_energy": -0.91, "cluster_size": 10, "cluster_id": 1, "rank_in_cluster": 9}

>  <energy>  (82) 
-6.14

>  <cluster_rmsd>  (82) 
0.0

>  <cluster>  (82) 
6

$$$$

     RDKit          3D

 42 43  0  0  1  0  0  0  0  0999 V2000
  140.0280   71.8520  223.7990 O   0  0  0  0  0  0  0  0  0  0  0  0
  139.0990   71.5110  223.0230 C   0  0  0  0  0  0  0  0  0  0  0  0
  138.2810   72.4890  222.2620 C   0  0  0  0  0  0  0  0  0  0  0  0
  138.9940   73.0730  221.0960 C   0  0  0  0  0  0  0  0  0  0  0  0
  140.2600   73.7790  221.6450 C   0  0  0  0  0  0  0  0  0  0  0  0
  140.1140   75.0200  221.9920 O   0  0  0  0  0  0  0  0  0  0  0  0
  139.9730   76.2440  222.3330 C   0  0  0  0  0  0  0  0  0  0  0  0
  141.0650   77.1040  222.5200 C   0  0  0  0  0  0  0  0  0  0  0  0
  140.9150   78.4190  222.8860 C   0  0  0  0  0  0  0  0  0  0  0  0
  139.6390   78.8860  223.0710 C   0  0  0  0  0  0  0  0  0  0  0  0
  139.4290   80.5510  223.5360 Cl  0  0  0  0  0  0  0  0  0  0  0  0
  138.5200   78.1100  222.9080 C   0  0  0  0  0  0  0  0  0  0  0  0
  138.7010   76.8020  222.5430 C   0  0  0  0  0  0  0  0  0  0  0  0
  137.3170   75.7670  222.3200 Cl  0  0  0  0  0  0  0  0  0  0  0  0
  138.7580   70.1200  222.8140 N   0  0  0  0  0  0  0  0  0  0  0  0
  139.4880   69.1890  223.4960 N   0  0  0  0  0  0  0  0  0  0  0  0
  139.1500   68.7630  224.6350 C   0  0  0  0  0  0  0  0  0  0  0  0
  139.7960   68.8980  225.9070 C   0  0  0  0  0  0  0  0  0  0  0  0
  140.2160   67.9030  226.7420 C   0  0  0  0  0  0  0  0  0  0  0  0
  140.8310   68.1210  227.9680 C   0  0  0  0  0  0  0  0  0  0  0  0
  141.0500   69.3960  228.4040 C   0  0  0  0  0  0  0  0  0  0  0  0
  140.6350   70.4210  227.5780 C   0  0  0  0  0  0  0  0  0  0  0  0
  140.8620   71.8070  228.0300 C   0  0  0  0  0  0  0  0  0  0  0  0
  139.7580   72.2620  228.7240 F   0  0  0  0  0  0  0  0  0  0  0  0
  141.9620   71.8460  228.8880 F   0  0  0  0  0  0  0  0  0  0  0  0
  141.1750   72.6550  226.9820 F   0  0  0  0  0  0  0  0  0  0  0  0
  140.0270   70.1990  226.3650 C   0  0  0  0  0  0  0  0  0  0  0  0
  137.3767   71.9792  221.8983 H   0  0  0  0  0  0  0  0  0  0  0  0
  138.0443   73.3170  222.9463 H   0  0  0  0  0  0  0  0  0  0  0  0
  139.2804   72.2781  220.3916 H   0  0  0  0  0  0  0  0  0  0  0  0
  138.3499   73.7847  220.5587 H   0  0  0  0  0  0  0  0  0  0  0  0
  140.6001   73.2202  222.5293 H   0  0  0  0  0  0  0  0  0  0  0  0
  140.9794   73.7866  220.8129 H   0  0  0  0  0  0  0  0  0  0  0  0
  142.0807   76.7100  222.3676 H   0  0  0  0  0  0  0  0  0  0  0  0
  141.7873   79.0744  223.0258 H   0  0  0  0  0  0  0  0  0  0  0  0
  137.5127   78.5232  223.0648 H   0  0  0  0  0  0  0  0  0  0  0  0
  137.9540   69.8570  222.1680 H   0  0  0  0  0  0  0  0  0  0  0  0
  138.2072   68.1966  224.6544 H   0  0  0  0  0  0  0  0  0  0  0  0
  140.0572   66.8622  226.4235 H   0  0  0  0  0  0  0  0  0  0  0  0
  141.1415   67.2667  228.5875 H   0  0  0  0  0  0  0  0  0  0  0  0
  141.5355   69.5975  229.3703 H   0  0  0  0  0  0  0  0  0  0  0  0
  139.7185   71.0552  225.7472 H   0  0  0  0  0  0  0  0  0  0  0  0
  1  2  2  0
  2  3  1  0
  3  4  1  0
  4  5  1  0
  5  6  1  0
  6  7  1  0
  7  8  2  0
  8  9  1  0
  9 10  2  0
 10 11  1  0
 10 12  1  0
 12 13  2  0
 13 14  1  0
  2 15  1  0
 15 16  1  0
 16 17  2  0
 17 18  1  0
 18 19  2  0
 19 20  1  0
 20 21  2  0
 21 22  1  0
 22 23  1  0
 23 24  1  0
 23 25  1  0
 23 26  1  0
 22 27  2  0
 13  7  1  0
 27 18  1  0
  3 28  1  0
  3 29  1  0
  4 30  1  0
  4 31  1  0
  5 32  1  0
  5 33  1  0
  8 34  1  0
  9 35  1  0
 12 36  1  0
 15 37  1  0
 17 38  1  0
 19 39  1  0
 20 40  1  0
 21 41  1  0
 27 42  1  0
M  END
>  <smiles>  (83) 
O=C(CCCOc1ccc(Cl)cc1Cl)NN=Cc1cccc(C(F)(F)F)c1

>  <score_type>  (83) 
oracle

>  <origin>  (83) 
autodockgpu

>  <m_score__min__energy>  (83) 
-7.79

>  <m_primary>  (83) 
energy

>  <rmsd>  (83) 
7.593284728246457

>  <m_score__min__rmsd>  (83) 
7.593284728246457

>  <meeko>  (83) 
{"free_energy": -6.87, "intermolecular_energy": -9.56, "internal_energy": -0.98, "cluster_size": 1, "cluster_id": 3, "rank_in_cluster": 1}

>  <energy>  (83) 
-5.82

>  <cluster_rmsd>  (83) 
0.56

>  <cluster>  (83) 
6

$$$$

     RDKit          3D

 42 43  0  0  1  0  0  0  0  0999 V2000
  141.2650   74.3200  221.5000 O   0  0  0  0  0  0  0  0  0  0  0  0
  140.0410   74.0880  221.6780 C   0  0  0  0  0  0  0  0  0  0  0  0
  138.9710   74.7370  220.8790 C   0  0  0  0  0  0  0  0  0  0  0  0
  137.7520   75.0490  221.6700 C   0  0  0  0  0  0  0  0  0  0  0  0
  137.5540   76.5850  221.6120 C   0  0  0  0  0  0  0  0  0  0  0  0
  138.5850   77.3040  221.9330 O   0  0  0  0  0  0  0  0  0  0  0  0
  139.6030   78.0100  222.2500 C   0  0  0  0  0  0  0  0  0  0  0  0
  139.6660   78.7490  223.4400 C   0  0  0  0  0  0  0  0  0  0  0  0
  140.7590   79.5080  223.7810 C   0  0  0  0  0  0  0  0  0  0  0  0
  141.8160   79.5290  222.9090 C   0  0  0  0  0  0  0  0  0  0  0  0
  143.2100   80.4860  223.3240 Cl  0  0  0  0  0  0  0  0  0  0  0  0
  141.8330   78.8350  221.7260 C   0  0  0  0  0  0  0  0  0  0  0  0
  140.7290   78.0860  221.4120 C   0  0  0  0  0  0  0  0  0  0  0  0
  140.6920   77.1820  219.9230 Cl  0  0  0  0  0  0  0  0  0  0  0  0
  139.5860   73.1580  222.6890 N   0  0  0  0  0  0  0  0  0  0  0  0
  140.5410   72.5400  223.4450 N   0  0  0  0  0  0  0  0  0  0  0  0
  140.2960   71.5160  224.1410 C   0  0  0  0  0  0  0  0  0  0  0  0
  140.5540   71.2490  225.5260 C   0  0  0  0  0  0  0  0  0  0  0  0
  140.9620   72.1290  226.4860 C   0  0  0  0  0  0  0  0  0  0  0  0
  141.1980   71.7850  227.8100 C   0  0  0  0  0  0  0  0  0  0  0  0
  141.0220   70.4950  228.2210 C   0  0  0  0  0  0  0  0  0  0  0  0
  140.6100   69.5850  227.2690 C   0  0  0  0  0  0  0  0  0  0  0  0
  140.4150   68.1840  227.6930 C   0  0  0  0  0  0  0  0  0  0  0  0
  139.2140   67.7090  227.2050 F   0  0  0  0  0  0  0  0  0  0  0  0
  141.4390   67.3910  227.1760 F   0  0  0  0  0  0  0  0  0  0  0  0
  140.4860   68.0400  229.0680 F   0  0  0  0  0  0  0  0  0  0  0  0
  140.3780   69.9310  225.9600 C   0  0  0  0  0  0  0  0  0  0  0  0
  139.3666   75.6753  220.4630 H   0  0  0  0  0  0  0  0  0  0  0  0
  138.6756   74.0264  220.0930 H   0  0  0  0  0  0  0  0  0  0  0  0
  136.8794   74.5391  221.2358 H   0  0  0  0  0  0  0  0  0  0  0  0
  137.8608   74.7066  222.7097 H   0  0  0  0  0  0  0  0  0  0  0  0
  137.2670   76.8487  220.5834 H   0  0  0  0  0  0  0  0  0  0  0  0
  136.7867   76.8137  222.3662 H   0  0  0  0  0  0  0  0  0  0  0  0
  138.8073   78.7198  224.1268 H   0  0  0  0  0  0  0  0  0  0  0  0
  140.7849   80.0788  224.7209 H   0  0  0  0  0  0  0  0  0  0  0  0
  142.7020   78.8781  221.0530 H   0  0  0  0  0  0  0  0  0  0  0  0
  138.5450   72.9930  222.8340 H   0  0  0  0  0  0  0  0  0  0  0  0
  139.8051   70.6956  223.5970 H   0  0  0  0  0  0  0  0  0  0  0  0
  141.1136   73.1780  226.1918 H   0  0  0  0  0  0  0  0  0  0  0  0
  141.5266   72.5513  228.5275 H   0  0  0  0  0  0  0  0  0  0  0  0
  141.2006   70.1946  229.2640 H   0  0  0  0  0  0  0  0  0  0  0  0
  140.0499   69.1625  225.2447 H   0  0  0  0  0  0  0  0  0  0  0  0
  1  2  2  0
  2  3  1  0
  3  4  1  0
  4  5  1  0
  5  6  1  0
  6  7  1  0
  7  8  2  0
  8  9  1  0
  9 10  2  0
 10 11  1  0
 10 12  1  0
 12 13  2  0
 13 14  1  0
  2 15  1  0
 15 16  1  0
 16 17  2  0
 17 18  1  0
 18 19  2  0
 19 20  1  0
 20 21  2  0
 21 22  1  0
 22 23  1  0
 23 24  1  0
 23 25  1  0
 23 26  1  0
 22 27  2  0
 13  7  1  0
 27 18  1  0
  3 28  1  0
  3 29  1  0
  4 30  1  0
  4 31  1  0
  5 32  1  0
  5 33  1  0
  8 34  1  0
  9 35  1  0
 12 36  1  0
 15 37  1  0
 17 38  1  0
 19 39  1  0
 20 40  1  0
 21 41  1  0
 27 42  1  0
M  END
>  <smiles>  (84) 
O=C(CCCOc1ccc(Cl)cc1Cl)NN=Cc1cccc(C(F)(F)F)c1

>  <score_type>  (84) 
oracle

>  <origin>  (84) 
autodockgpu

>  <m_score__min__energy>  (84) 
-7.79

>  <m_primary>  (84) 
energy

>  <rmsd>  (84) 
5.506357516626404

>  <m_score__min__rmsd>  (84) 
5.506357516626404

>  <meeko>  (84) 
{"free_energy": -7.16, "intermolecular_energy": -9.84, "internal_energy": -0.92, "cluster_size": 10, "cluster_id": 1, "rank_in_cluster": 6}

>  <energy>  (84) 
-6.0

>  <cluster_rmsd>  (84) 
0.0

>  <cluster>  (84) 
7

$$$$

     RDKit          3D

 42 43  0  0  1  0  0  0  0  0999 V2000
  138.8050   75.5230  222.7110 O   0  0  0  0  0  0  0  0  0  0  0  0
  139.6060   75.1400  221.8190 C   0  0  0  0  0  0  0  0  0  0  0  0
  140.1080   76.0340  220.7450 C   0  0  0  0  0  0  0  0  0  0  0  0
  139.5120   75.7480  219.4140 C   0  0  0  0  0  0  0  0  0  0  0  0
  140.3230   74.5810  218.7940 C   0  0  0  0  0  0  0  0  0  0  0  0
  141.4850   74.3520  219.3230 O   0  0  0  0  0  0  0  0  0  0  0  0
  142.6300   74.1290  219.8460 C   0  0  0  0  0  0  0  0  0  0  0  0
  142.9900   72.8770  220.3640 C   0  0  0  0  0  0  0  0  0  0  0  0
  144.2210   72.6360  220.9260 C   0  0  0  0  0  0  0  0  0  0  0  0
  145.1130   73.6760  220.9730 C   0  0  0  0  0  0  0  0  0  0  0  0
  146.6770   73.3900  221.6820 Cl  0  0  0  0  0  0  0  0  0  0  0  0
  144.8380   74.9290  220.4890 C   0  0  0  0  0  0  0  0  0  0  0  0
  143.6030   75.1400  219.9340 C   0  0  0  0  0  0  0  0  0  0  0  0
  143.1950   76.7120  219.3010 Cl  0  0  0  0  0  0  0  0  0  0  0  0
  140.1020   73.7810  221.7790 N   0  0  0  0  0  0  0  0  0  0  0  0
  139.6640   72.9270  222.7510 N   0  0  0  0  0  0  0  0  0  0  0  0
  140.2920   71.8780  223.0650 C   0  0  0  0  0  0  0  0  0  0  0  0
  140.2750   71.1130  224.2770 C   0  0  0  0  0  0  0  0  0  0  0  0
  139.9390   69.7990  224.4330 C   0  0  0  0  0  0  0  0  0  0  0  0
  139.9430   69.1320  225.6500 C   0  0  0  0  0  0  0  0  0  0  0  0
  140.3000   69.7940  226.7890 C   0  0  0  0  0  0  0  0  0  0  0  0
  140.6450   71.1240  226.6590 C   0  0  0  0  0  0  0  0  0  0  0  0
  141.0340   71.8590  227.8790 C   0  0  0  0  0  0  0  0  0  0  0  0
  141.8110   71.0520  228.6860 F   0  0  0  0  0  0  0  0  0  0  0  0
  141.7870   72.9810  227.5310 F   0  0  0  0  0  0  0  0  0  0  0  0
  139.9360   72.3440  228.5690 F   0  0  0  0  0  0  0  0  0  0  0  0
  140.6400   71.7790  225.4510 C   0  0  0  0  0  0  0  0  0  0  0  0
  139.8715   77.0732  221.0172 H   0  0  0  0  0  0  0  0  0  0  0  0
  141.1913   75.8634  220.6597 H   0  0  0  0  0  0  0  0  0  0  0  0
  138.4574   75.4565  219.5273 H   0  0  0  0  0  0  0  0  0  0  0  0
  139.5493   76.6378  218.7684 H   0  0  0  0  0  0  0  0  0  0  0  0
  139.7223   73.6646  218.8915 H   0  0  0  0  0  0  0  0  0  0  0  0
  140.5240   74.8790  217.7544 H   0  0  0  0  0  0  0  0  0  0  0  0
  142.2593   72.0560  220.3190 H   0  0  0  0  0  0  0  0  0  0  0  0
  144.4812   71.6440  221.3239 H   0  0  0  0  0  0  0  0  0  0  0  0
  145.5827   75.7367  220.5443 H   0  0  0  0  0  0  0  0  0  0  0  0
  140.7630   73.4750  221.0030 H   0  0  0  0  0  0  0  0  0  0  0  0
  140.9598   71.4882  222.2826 H   0  0  0  0  0  0  0  0  0  0  0  0
  139.6463   69.2326  223.5366 H   0  0  0  0  0  0  0  0  0  0  0  0
  139.6586   68.0704  225.6967 H   0  0  0  0  0  0  0  0  0  0  0  0
  140.3122   69.2901  227.7667 H   0  0  0  0  0  0  0  0  0  0  0  0
  140.9266   72.8401  225.4071 H   0  0  0  0  0  0  0  0  0  0  0  0
  1  2  2  0
  2  3  1  0
  3  4  1  0
  4  5  1  0
  5  6  1  0
  6  7  1  0
  7  8  2  0
  8  9  1  0
  9 10  2  0
 10 11  1  0
 10 12  1  0
 12 13  2  0
 13 14  1  0
  2 15  1  0
 15 16  1  0
 16 17  2  0
 17 18  1  0
 18 19  2  0
 19 20  1  0
 20 21  2  0
 21 22  1  0
 22 23  1  0
 23 24  1  0
 23 25  1  0
 23 26  1  0
 22 27  2  0
 13  7  1  0
 27 18  1  0
  3 28  1  0
  3 29  1  0
  4 30  1  0
  4 31  1  0
  5 32  1  0
  5 33  1  0
  8 34  1  0
  9 35  1  0
 12 36  1  0
 15 37  1  0
 17 38  1  0
 19 39  1  0
 20 40  1  0
 21 41  1  0
 27 42  1  0
M  END
>  <smiles>  (85) 
O=C(CCCOc1ccc(Cl)cc1Cl)NN=Cc1cccc(C(F)(F)F)c1

>  <score_type>  (85) 
oracle

>  <origin>  (85) 
autodockgpu

>  <m_score__min__energy>  (85) 
-7.79

>  <m_primary>  (85) 
energy

>  <rmsd>  (85) 
9.401138574697583

>  <m_score__min__rmsd>  (85) 
9.401138574697583

>  <meeko>  (85) 
{"free_energy": -6.13, "intermolecular_energy": -8.82, "internal_energy": -1.9, "cluster_size": 10, "cluster_id": 4, "rank_in_cluster": 9}

>  <energy>  (85) 
-5.93

>  <cluster_rmsd>  (85) 
1.1

>  <cluster>  (85) 
7

$$$$

     RDKit          3D

 42 43  0  0  1  0  0  0  0  0999 V2000
  139.6910   73.9050  220.0540 O   0  0  0  0  0  0  0  0  0  0  0  0
  138.8250   73.9070  220.9660 C   0  0  0  0  0  0  0  0  0  0  0  0
  137.4280   74.3640  220.7550 C   0  0  0  0  0  0  0  0  0  0  0  0
  137.2590   75.8320  220.9080 C   0  0  0  0  0  0  0  0  0  0  0  0
  137.5130   76.1650  222.4000 C   0  0  0  0  0  0  0  0  0  0  0  0
  138.4330   77.0480  222.6380 O   0  0  0  0  0  0  0  0  0  0  0  0
  139.3420   77.9170  222.8700 C   0  0  0  0  0  0  0  0  0  0  0  0
  139.0660   79.1510  223.4760 C   0  0  0  0  0  0  0  0  0  0  0  0
  140.0420   80.0850  223.7250 C   0  0  0  0  0  0  0  0  0  0  0  0
  141.3260   79.7770  223.3580 C   0  0  0  0  0  0  0  0  0  0  0  0
  142.5770   80.9490  223.6660 Cl  0  0  0  0  0  0  0  0  0  0  0  0
  141.6770   78.5940  222.7600 C   0  0  0  0  0  0  0  0  0  0  0  0
  140.6830   77.6810  222.5240 C   0  0  0  0  0  0  0  0  0  0  0  0
  141.0680   76.1590  221.7680 Cl  0  0  0  0  0  0  0  0  0  0  0  0
  139.1350   73.4550  222.3060 N   0  0  0  0  0  0  0  0  0  0  0  0
  140.4100   73.0260  222.5420 N   0  0  0  0  0  0  0  0  0  0  0  0
  140.6680   71.8590  222.9460 C   0  0  0  0  0  0  0  0  0  0  0  0
  140.2640   71.1780  224.1410 C   0  0  0  0  0  0  0  0  0  0  0  0
  139.4710   70.0720  224.2470 C   0  0  0  0  0  0  0  0  0  0  0  0
  139.1200   69.4760  225.4510 C   0  0  0  0  0  0  0  0  0  0  0  0
  139.5760   69.9970  226.6280 C   0  0  0  0  0  0  0  0  0  0  0  0
  140.3810   71.1150  226.5480 C   0  0  0  0  0  0  0  0  0  0  0  0
  140.8840   71.6940  227.8100 C   0  0  0  0  0  0  0  0  0  0  0  0
  139.8340   72.2110  228.5410 F   0  0  0  0  0  0  0  0  0  0  0  0
  141.4970   70.6980  228.5710 F   0  0  0  0  0  0  0  0  0  0  0  0
  141.8590   72.6530  227.5920 F   0  0  0  0  0  0  0  0  0  0  0  0
  140.7250   71.7010  225.3540 C   0  0  0  0  0  0  0  0  0  0  0  0
  137.1183   74.0813  219.7381 H   0  0  0  0  0  0  0  0  0  0  0  0
  136.8086   73.8832  221.5265 H   0  0  0  0  0  0  0  0  0  0  0  0
  137.9836   76.3637  220.2738 H   0  0  0  0  0  0  0  0  0  0  0  0
  136.2495   76.1446  220.6027 H   0  0  0  0  0  0  0  0  0  0  0  0
  136.5702   76.5382  222.8265 H   0  0  0  0  0  0  0  0  0  0  0  0
  137.8747   75.2308  222.8544 H   0  0  0  0  0  0  0  0  0  0  0  0
  138.0290   79.3797  223.7628 H   0  0  0  0  0  0  0  0  0  0  0  0
  139.8014   81.0464  224.2022 H   0  0  0  0  0  0  0  0  0  0  0  0
  142.7200   78.3853  222.4796 H   0  0  0  0  0  0  0  0  0  0  0  0
  138.3910   73.4850  223.0670 H   0  0  0  0  0  0  0  0  0  0  0  0
  141.3062   71.2685  222.2722 H   0  0  0  0  0  0  0  0  0  0  0  0
  139.0853   69.6242  223.3192 H   0  0  0  0  0  0  0  0  0  0  0  0
  138.4751   68.5849  225.4567 H   0  0  0  0  0  0  0  0  0  0  0  0
  139.3135   69.5458  227.5963 H   0  0  0  0  0  0  0  0  0  0  0  0
  141.3704   72.5918  225.3517 H   0  0  0  0  0  0  0  0  0  0  0  0
  1  2  2  0
  2  3  1  0
  3  4  1  0
  4  5  1  0
  5  6  1  0
  6  7  1  0
  7  8  2  0
  8  9  1  0
  9 10  2  0
 10 11  1  0
 10 12  1  0
 12 13  2  0
 13 14  1  0
  2 15  1  0
 15 16  1  0
 16 17  2  0
 17 18  1  0
 18 19  2  0
 19 20  1  0
 20 21  2  0
 21 22  1  0
 22 23  1  0
 23 24  1  0
 23 25  1  0
 23 26  1  0
 22 27  2  0
 13  7  1  0
 27 18  1  0
  3 28  1  0
  3 29  1  0
  4 30  1  0
  4 31  1  0
  5 32  1  0
  5 33  1  0
  8 34  1  0
  9 35  1  0
 12 36  1  0
 15 37  1  0
 17 38  1  0
 19 39  1  0
 20 40  1  0
 21 41  1  0
 27 42  1  0
M  END
>  <smiles>  (86) 
O=C(CCCOc1ccc(Cl)cc1Cl)NN=Cc1cccc(C(F)(F)F)c1

>  <score_type>  (86) 
oracle

>  <origin>  (86) 
autodockgpu

>  <m_score__min__energy>  (86) 
-7.79

>  <m_primary>  (86) 
energy

>  <rmsd>  (86) 
6.0418794811960606

>  <m_score__min__rmsd>  (86) 
6.0418794811960606

>  <meeko>  (86) 
{"free_energy": -6.97, "intermolecular_energy": -9.65, "internal_energy": -1.09, "cluster_size": 9, "cluster_id": 2, "rank_in_cluster": 4}

>  <energy>  (86) 
-5.77

>  <cluster_rmsd>  (86) 
1.26

>  <cluster>  (86) 
7

$$$$

     RDKit          3D

 42 43  0  0  1  0  0  0  0  0999 V2000
  139.9310   75.6650  222.3470 O   0  0  0  0  0  0  0  0  0  0  0  0
  140.0650   74.9000  221.3570 C   0  0  0  0  0  0  0  0  0  0  0  0
  140.0020   75.3770  219.9530 C   0  0  0  0  0  0  0  0  0  0  0  0
  139.3680   74.4010  219.0270 C   0  0  0  0  0  0  0  0  0  0  0  0
  140.5150   73.6170  218.3400 C   0  0  0  0  0  0  0  0  0  0  0  0
  141.6350   73.5590  218.9910 O   0  0  0  0  0  0  0  0  0  0  0  0
  142.7380   73.5030  219.6360 C   0  0  0  0  0  0  0  0  0  0  0  0
  143.2030   72.3220  220.2310 C   0  0  0  0  0  0  0  0  0  0  0  0
  144.3880   72.2620  220.9230 C   0  0  0  0  0  0  0  0  0  0  0  0
  145.1250   73.4130  221.0250 C   0  0  0  0  0  0  0  0  0  0  0  0
  146.6290   73.3550  221.9000 Cl  0  0  0  0  0  0  0  0  0  0  0  0
  144.7390   74.6070  220.4730 C   0  0  0  0  0  0  0  0  0  0  0  0
  143.5530   74.6370  219.7870 C   0  0  0  0  0  0  0  0  0  0  0  0
  143.0110   76.1270  219.0620 Cl  0  0  0  0  0  0  0  0  0  0  0  0
  140.2960   73.4810  221.5230 N   0  0  0  0  0  0  0  0  0  0  0  0
  140.3620   73.0030  222.8000 N   0  0  0  0  0  0  0  0  0  0  0  0
  140.5820   71.7870  223.0580 C   0  0  0  0  0  0  0  0  0  0  0  0
  140.2780   71.0150  224.2270 C   0  0  0  0  0  0  0  0  0  0  0  0
  139.6120   69.8270  224.2960 C   0  0  0  0  0  0  0  0  0  0  0  0
  139.3510   69.1450  225.4760 C   0  0  0  0  0  0  0  0  0  0  0  0
  139.7720   69.6600  226.6680 C   0  0  0  0  0  0  0  0  0  0  0  0
  140.4490   70.8620  226.6280 C   0  0  0  0  0  0  0  0  0  0  0  0
  140.9120   71.4370  227.9060 C   0  0  0  0  0  0  0  0  0  0  0  0
  141.5670   70.4730  228.6450 F   0  0  0  0  0  0  0  0  0  0  0  0
  141.8090   72.4770  227.6550 F   0  0  0  0  0  0  0  0  0  0  0  0
  139.8770   72.0020  228.6300 F   0  0  0  0  0  0  0  0  0  0  0  0
  140.7040   71.5330  225.4550 C   0  0  0  0  0  0  0  0  0  0  0  0
  139.4208   76.3106  219.9274 H   0  0  0  0  0  0  0  0  0  0  0  0
  141.0376   75.5233  219.6123 H   0  0  0  0  0  0  0  0  0  0  0  0
  138.7227   73.7105  219.5899 H   0  0  0  0  0  0  0  0  0  0  0  0
  138.7432   74.9155  218.2821 H   0  0  0  0  0  0  0  0  0  0  0  0
  140.1671   72.5863  218.1768 H   0  0  0  0  0  0  0  0  0  0  0  0
  140.7385   74.1692  217.4153 H   0  0  0  0  0  0  0  0  0  0  0  0
  142.5961   71.4090  220.1403 H   0  0  0  0  0  0  0  0  0  0  0  0
  144.7335   71.3227  221.3795 H   0  0  0  0  0  0  0  0  0  0  0  0
  145.3595   75.5093  220.5771 H   0  0  0  0  0  0  0  0  0  0  0  0
  140.3870   72.8510  220.6700 H   0  0  0  0  0  0  0  0  0  0  0  0
  141.0888   71.2298  222.2563 H   0  0  0  0  0  0  0  0  0  0  0  0
  139.2587   69.3802  223.3550 H   0  0  0  0  0  0  0  0  0  0  0  0
  138.8053   68.1902  225.4508 H   0  0  0  0  0  0  0  0  0  0  0  0
  139.5802   69.1401  227.6182 H   0  0  0  0  0  0  0  0  0  0  0  0
  141.2492   72.4880  225.4825 H   0  0  0  0  0  0  0  0  0  0  0  0
  1  2  2  0
  2  3  1  0
  3  4  1  0
  4  5  1  0
  5  6  1  0
  6  7  1  0
  7  8  2  0
  8  9  1  0
  9 10  2  0
 10 11  1  0
 10 12  1  0
 12 13  2  0
 13 14  1  0
  2 15  1  0
 15 16  1  0
 16 17  2  0
 17 18  1  0
 18 19  2  0
 19 20  1  0
 20 21  2  0
 21 22  1  0
 22 23  1  0
 23 24  1  0
 23 25  1  0
 23 26  1  0
 22 27  2  0
 13  7  1  0
 27 18  1  0
  3 28  1  0
  3 29  1  0
  4 30  1  0
  4 31  1  0
  5 32  1  0
  5 33  1  0
  8 34  1  0
  9 35  1  0
 12 36  1  0
 15 37  1  0
 17 38  1  0
 19 39  1  0
 20 40  1  0
 21 41  1  0
 27 42  1  0
M  END
>  <smiles>  (87) 
O=C(CCCOc1ccc(Cl)cc1Cl)NN=Cc1cccc(C(F)(F)F)c1

>  <score_type>  (87) 
oracle

>  <origin>  (87) 
autodockgpu

>  <m_score__min__energy>  (87) 
-7.79

>  <m_primary>  (87) 
energy

>  <rmsd>  (87) 
10.014176728660821

>  <m_score__min__rmsd>  (87) 
10.014176728660821

>  <meeko>  (87) 
{"free_energy": -6.38, "intermolecular_energy": -9.06, "internal_energy": -1.94, "cluster_size": 10, "cluster_id": 4, "rank_in_cluster": 5}

>  <energy>  (87) 
-5.74

>  <cluster_rmsd>  (87) 
1.29

>  <cluster>  (87) 
7

$$$$

     RDKit          3D

 42 43  0  0  1  0  0  0  0  0999 V2000
  141.0630   73.2580  221.6590 O   0  0  0  0  0  0  0  0  0  0  0  0
  139.8930   73.4940  222.0550 C   0  0  0  0  0  0  0  0  0  0  0  0
  139.2210   74.8040  221.8590 C   0  0  0  0  0  0  0  0  0  0  0  0
  139.3910   75.3540  220.4890 C   0  0  0  0  0  0  0  0  0  0  0  0
  140.8540   75.8550  220.3800 C   0  0  0  0  0  0  0  0  0  0  0  0
  141.1510   76.9020  221.0860 O   0  0  0  0  0  0  0  0  0  0  0  0
  141.4420   77.9330  221.7840 C   0  0  0  0  0  0  0  0  0  0  0  0
  141.4340   77.9190  223.1860 C   0  0  0  0  0  0  0  0  0  0  0  0
  141.7460   79.0260  223.9370 C   0  0  0  0  0  0  0  0  0  0  0  0
  142.0720   80.1780  223.2680 C   0  0  0  0  0  0  0  0  0  0  0  0
  142.4700   81.5910  224.2030 Cl  0  0  0  0  0  0  0  0  0  0  0  0
  142.1020   80.2730  221.9000 C   0  0  0  0  0  0  0  0  0  0  0  0
  141.7870   79.1520  221.1770 C   0  0  0  0  0  0  0  0  0  0  0  0
  141.8090   79.2120  219.4350 Cl  0  0  0  0  0  0  0  0  0  0  0  0
  139.1080   72.4890  222.7400 N   0  0  0  0  0  0  0  0  0  0  0  0
  139.6900   71.2700  222.9390 N   0  0  0  0  0  0  0  0  0  0  0  0
  139.2540   70.4410  223.7850 C   0  0  0  0  0  0  0  0  0  0  0  0
  139.7890   70.0370  225.0520 C   0  0  0  0  0  0  0  0  0  0  0  0
  139.9860   68.7670  225.5110 C   0  0  0  0  0  0  0  0  0  0  0  0
  140.5070   68.4610  226.7610 C   0  0  0  0  0  0  0  0  0  0  0  0
  140.8580   69.4650  227.6180 C   0  0  0  0  0  0  0  0  0  0  0  0
  140.6690   70.7590  227.1780 C   0  0  0  0  0  0  0  0  0  0  0  0
  141.0420   71.8590  228.0890 C   0  0  0  0  0  0  0  0  0  0  0  0
  141.5340   72.9250  227.3620 F   0  0  0  0  0  0  0  0  0  0  0  0
  139.9150   72.2920  228.7870 F   0  0  0  0  0  0  0  0  0  0  0  0
  141.9480   71.4540  229.0540 F   0  0  0  0  0  0  0  0  0  0  0  0
  140.1540   71.0550  225.9390 C   0  0  0  0  0  0  0  0  0  0  0  0
  138.1457   74.6770  222.0531 H   0  0  0  0  0  0  0  0  0  0  0  0
  139.6873   75.5162  222.5556 H   0  0  0  0  0  0  0  0  0  0  0  0
  139.2037   74.5695  219.7410 H   0  0  0  0  0  0  0  0  0  0  0  0
  138.6807   76.1733  220.3040 H   0  0  0  0  0  0  0  0  0  0  0  0
  141.5149   75.0356  220.6990 H   0  0  0  0  0  0  0  0  0  0  0  0
  140.9862   76.1578  219.3308 H   0  0  0  0  0  0  0  0  0  0  0  0
  141.1677   76.9860  223.7043 H   0  0  0  0  0  0  0  0  0  0  0  0
  141.7348   78.9898  225.0363 H   0  0  0  0  0  0  0  0  0  0  0  0
  142.3695   81.2159  221.4006 H   0  0  0  0  0  0  0  0  0  0  0  0
  138.1270   72.7190  223.0840 H   0  0  0  0  0  0  0  0  0  0  0  0
  138.3109   69.9490  223.5047 H   0  0  0  0  0  0  0  0  0  0  0  0
  139.7146   67.9322  224.8481 H   0  0  0  0  0  0  0  0  0  0  0  0
  140.6370   67.4107  227.0610 H   0  0  0  0  0  0  0  0  0  0  0  0
  141.2727   69.2515  228.6142 H   0  0  0  0  0  0  0  0  0  0  0  0
  140.0271   72.1062  225.6408 H   0  0  0  0  0  0  0  0  0  0  0  0
  1  2  2  0
  2  3  1  0
  3  4  1  0
  4  5  1  0
  5  6  1  0
  6  7  1  0
  7  8  2  0
  8  9  1  0
  9 10  2  0
 10 11  1  0
 10 12  1  0
 12 13  2  0
 13 14  1  0
  2 15  1  0
 15 16  1  0
 16 17  2  0
 17 18  1  0
 18 19  2  0
 19 20  1  0
 20 21  2  0
 21 22  1  0
 22 23  1  0
 23 24  1  0
 23 25  1  0
 23 26  1  0
 22 27  2  0
 13  7  1  0
 27 18  1  0
  3 28  1  0
  3 29  1  0
  4 30  1  0
  4 31  1  0
  5 32  1  0
  5 33  1  0
  8 34  1  0
  9 35  1  0
 12 36  1  0
 15 37  1  0
 17 38  1  0
 19 39  1  0
 20 40  1  0
 21 41  1  0
 27 42  1  0
M  END
>  <smiles>  (88) 
O=C(CCCOc1ccc(Cl)cc1Cl)NN=Cc1cccc(C(F)(F)F)c1

>  <score_type>  (88) 
oracle

>  <origin>  (88) 
autodockgpu

>  <m_score__min__energy>  (88) 
-7.79

>  <m_primary>  (88) 
energy

>  <rmsd>  (88) 
6.113191047138635

>  <m_score__min__rmsd>  (88) 
6.113191047138635

>  <meeko>  (88) 
{"free_energy": -7.34, "intermolecular_energy": -10.03, "internal_energy": -0.81, "cluster_size": 9, "cluster_id": 2, "rank_in_cluster": 1}

>  <energy>  (88) 
-5.7

>  <cluster_rmsd>  (88) 
1.32

>  <cluster>  (88) 
7

$$$$

     RDKit          3D

 42 43  0  0  1  0  0  0  0  0999 V2000
  138.0460   69.6710  224.2140 O   0  0  0  0  0  0  0  0  0  0  0  0
  137.6600   70.8030  223.8210 C   0  0  0  0  0  0  0  0  0  0  0  0
  136.2300   71.1980  223.7720 C   0  0  0  0  0  0  0  0  0  0  0  0
  136.0160   72.6570  223.9560 C   0  0  0  0  0  0  0  0  0  0  0  0
  136.1140   73.3120  222.5550 C   0  0  0  0  0  0  0  0  0  0  0  0
  137.0190   74.2310  222.4180 O   0  0  0  0  0  0  0  0  0  0  0  0
  137.9110   75.1380  222.2870 C   0  0  0  0  0  0  0  0  0  0  0  0
  137.7760   76.4130  222.8540 C   0  0  0  0  0  0  0  0  0  0  0  0
  138.7330   77.3880  222.7140 C   0  0  0  0  0  0  0  0  0  0  0  0
  139.8530   77.0800  221.9860 C   0  0  0  0  0  0  0  0  0  0  0  0
  141.0770   78.3040  221.7960 Cl  0  0  0  0  0  0  0  0  0  0  0  0
  140.0600   75.8580  221.4000 C   0  0  0  0  0  0  0  0  0  0  0  0
  139.0880   74.9050  221.5570 C   0  0  0  0  0  0  0  0  0  0  0  0
  139.2940   73.3320  220.8350 Cl  0  0  0  0  0  0  0  0  0  0  0  0
  138.6000   71.8120  223.3830 N   0  0  0  0  0  0  0  0  0  0  0  0
  139.9260   71.4870  223.4130 N   0  0  0  0  0  0  0  0  0  0  0  0
  140.6970   71.8700  224.3370 C   0  0  0  0  0  0  0  0  0  0  0  0
  140.7910   71.4470  225.7040 C   0  0  0  0  0  0  0  0  0  0  0  0
  140.9810   72.2240  226.8090 C   0  0  0  0  0  0  0  0  0  0  0  0
  141.0680   71.7310  228.1040 C   0  0  0  0  0  0  0  0  0  0  0  0
  140.9620   70.3890  228.3310 C   0  0  0  0  0  0  0  0  0  0  0  0
  140.7690   69.5800  227.2300 C   0  0  0  0  0  0  0  0  0  0  0  0
  140.6520   68.1260  227.4530 C   0  0  0  0  0  0  0  0  0  0  0  0
  141.0600   67.8130  228.7340 F   0  0  0  0  0  0  0  0  0  0  0  0
  139.3190   67.7360  227.3130 F   0  0  0  0  0  0  0  0  0  0  0  0
  141.3570   67.3940  226.5130 F   0  0  0  0  0  0  0  0  0  0  0  0
  140.6830   70.0740  225.9500 C   0  0  0  0  0  0  0  0  0  0  0  0
  135.8205   70.9058  222.7938 H   0  0  0  0  0  0  0  0  0  0  0  0
  135.7224   70.6871  224.6035 H   0  0  0  0  0  0  0  0  0  0  0  0
  135.0220   72.8408  224.3898 H   0  0  0  0  0  0  0  0  0  0  0  0
  136.7672   73.0798  224.6393 H   0  0  0  0  0  0  0  0  0  0  0  0
  136.3293   72.5167  221.8262 H   0  0  0  0  0  0  0  0  0  0  0  0
  135.1507   73.8192  222.3973 H   0  0  0  0  0  0  0  0  0  0  0  0
  136.8690   76.6412  223.4331 H   0  0  0  0  0  0  0  0  0  0  0  0
  138.6053   78.3809  223.1699 H   0  0  0  0  0  0  0  0  0  0  0  0
  140.9739   75.6499  220.8242 H   0  0  0  0  0  0  0  0  0  0  0  0
  138.2490   72.7550  223.0350 H   0  0  0  0  0  0  0  0  0  0  0  0
  141.4115   72.6543  224.0465 H   0  0  0  0  0  0  0  0  0  0  0  0
  141.0711   73.3108  226.6648 H   0  0  0  0  0  0  0  0  0  0  0  0
  141.2222   72.4212  228.9465 H   0  0  0  0  0  0  0  0  0  0  0  0
  141.0276   69.9712  229.3464 H   0  0  0  0  0  0  0  0  0  0  0  0
  140.5275   69.3817  225.1094 H   0  0  0  0  0  0  0  0  0  0  0  0
  1  2  2  0
  2  3  1  0
  3  4  1  0
  4  5  1  0
  5  6  1  0
  6  7  1  0
  7  8  2  0
  8  9  1  0
  9 10  2  0
 10 11  1  0
 10 12  1  0
 12 13  2  0
 13 14  1  0
  2 15  1  0
 15 16  1  0
 16 17  2  0
 17 18  1  0
 18 19  2  0
 19 20  1  0
 20 21  2  0
 21 22  1  0
 22 23  1  0
 23 24  1  0
 23 25  1  0
 23 26  1  0
 22 27  2  0
 13  7  1  0
 27 18  1  0
  3 28  1  0
  3 29  1  0
  4 30  1  0
  4 31  1  0
  5 32  1  0
  5 33  1  0
  8 34  1  0
  9 35  1  0
 12 36  1  0
 15 37  1  0
 17 38  1  0
 19 39  1  0
 20 40  1  0
 21 41  1  0
 27 42  1  0
M  END
>  <smiles>  (89) 
O=C(CCCOc1ccc(Cl)cc1Cl)NN=Cc1cccc(C(F)(F)F)c1

>  <score_type>  (89) 
oracle

>  <origin>  (89) 
autodockgpu

>  <m_score__min__energy>  (89) 
-7.79

>  <m_primary>  (89) 
energy

>  <rmsd>  (89) 
8.178994370088876

>  <m_score__min__rmsd>  (89) 
8.178994370088876

>  <meeko>  (89) 
{"free_energy": -5.82, "intermolecular_energy": -8.5, "internal_energy": -2.04, "cluster_size": 2, "cluster_id": 6, "rank_in_cluster": 2}

>  <energy>  (89) 
-5.69

>  <cluster_rmsd>  (89) 
1.3

>  <cluster>  (89) 
7

$$$$

     RDKit          3D

 42 43  0  0  1  0  0  0  0  0999 V2000
  141.4030   74.7900  221.4410 O   0  0  0  0  0  0  0  0  0  0  0  0
  140.1750   74.7900  221.7140 C   0  0  0  0  0  0  0  0  0  0  0  0
  139.2570   75.8870  221.3150 C   0  0  0  0  0  0  0  0  0  0  0  0
  138.1830   76.1480  222.3080 C   0  0  0  0  0  0  0  0  0  0  0  0
  136.9070   75.4330  221.7960 C   0  0  0  0  0  0  0  0  0  0  0  0
  136.5510   74.3680  222.4450 O   0  0  0  0  0  0  0  0  0  0  0  0
  136.2000   73.3170  223.0820 C   0  0  0  0  0  0  0  0  0  0  0  0
  136.5550   72.0280  222.6600 C   0  0  0  0  0  0  0  0  0  0  0  0
  136.1780   70.8970  223.3440 C   0  0  0  0  0  0  0  0  0  0  0  0
  135.4260   71.0610  224.4780 C   0  0  0  0  0  0  0  0  0  0  0  0
  134.9390   69.6390  225.3580 Cl  0  0  0  0  0  0  0  0  0  0  0  0
  135.0380   72.2860  224.9570 C   0  0  0  0  0  0  0  0  0  0  0  0
  135.4290   73.3960  224.2540 C   0  0  0  0  0  0  0  0  0  0  0  0
  134.9670   74.9810  224.8130 Cl  0  0  0  0  0  0  0  0  0  0  0  0
  139.5630   73.7030  222.4480 N   0  0  0  0  0  0  0  0  0  0  0  0
  140.3730   72.6740  222.8330 N   0  0  0  0  0  0  0  0  0  0  0  0
  139.9240   71.5340  223.1360 C   0  0  0  0  0  0  0  0  0  0  0  0
  139.8390   70.8760  224.4060 C   0  0  0  0  0  0  0  0  0  0  0  0
  139.2460   69.6800  224.6920 C   0  0  0  0  0  0  0  0  0  0  0  0
  139.2020   69.1140  225.9590 C   0  0  0  0  0  0  0  0  0  0  0  0
  139.7780   69.7600  227.0150 C   0  0  0  0  0  0  0  0  0  0  0  0
  140.3850   70.9710  226.7530 C   0  0  0  0  0  0  0  0  0  0  0  0
  141.0130   71.6870  227.8810 C   0  0  0  0  0  0  0  0  0  0  0  0
  141.8150   72.7050  227.4050 F   0  0  0  0  0  0  0  0  0  0  0  0
  140.0240   72.2530  228.6860 F   0  0  0  0  0  0  0  0  0  0  0  0
  141.7260   70.8360  228.7080 F   0  0  0  0  0  0  0  0  0  0  0  0
  140.4250   71.5270  225.4970 C   0  0  0  0  0  0  0  0  0  0  0  0
  139.8468   76.8070  221.1894 H   0  0  0  0  0  0  0  0  0  0  0  0
  138.7668   75.5766  220.3804 H   0  0  0  0  0  0  0  0  0  0  0  0
  138.4719   75.7470  223.2907 H   0  0  0  0  0  0  0  0  0  0  0  0
  138.0082   77.2281  222.4216 H   0  0  0  0  0  0  0  0  0  0  0  0
  136.0756   76.1515  221.8471 H   0  0  0  0  0  0  0  0  0  0  0  0
  137.1471   75.0925  220.7780 H   0  0  0  0  0  0  0  0  0  0  0  0
  137.1582   71.9176  221.7468 H   0  0  0  0  0  0  0  0  0  0  0  0
  136.4695   69.8958  222.9937 H   0  0  0  0  0  0  0  0  0  0  0  0
  134.4347   72.3747  225.8725 H   0  0  0  0  0  0  0  0  0  0  0  0
  138.5260   73.7350  222.6850 H   0  0  0  0  0  0  0  0  0  0  0  0
  139.5350   70.9514  222.2879 H   0  0  0  0  0  0  0  0  0  0  0  0
  138.7727   69.1295  223.8656 H   0  0  0  0  0  0  0  0  0  0  0  0
  138.7033   68.1455  226.1120 H   0  0  0  0  0  0  0  0  0  0  0  0
  139.7590   69.3341  228.0290 H   0  0  0  0  0  0  0  0  0  0  0  0
  140.9239   72.4959  225.3475 H   0  0  0  0  0  0  0  0  0  0  0  0
  1  2  2  0
  2  3  1  0
  3  4  1  0
  4  5  1  0
  5  6  1  0
  6  7  1  0
  7  8  2  0
  8  9  1  0
  9 10  2  0
 10 11  1  0
 10 12  1  0
 12 13  2  0
 13 14  1  0
  2 15  1  0
 15 16  1  0
 16 17  2  0
 17 18  1  0
 18 19  2  0
 19 20  1  0
 20 21  2  0
 21 22  1  0
 22 23  1  0
 23 24  1  0
 23 25  1  0
 23 26  1  0
 22 27  2  0
 13  7  1  0
 27 18  1  0
  3 28  1  0
  3 29  1  0
  4 30  1  0
  4 31  1  0
  5 32  1  0
  5 33  1  0
  8 34  1  0
  9 35  1  0
 12 36  1  0
 15 37  1  0
 17 38  1  0
 19 39  1  0
 20 40  1  0
 21 41  1  0
 27 42  1  0
M  END
>  <smiles>  (90) 
O=C(CCCOc1ccc(Cl)cc1Cl)NN=Cc1cccc(C(F)(F)F)c1

>  <score_type>  (90) 
oracle

>  <origin>  (90) 
autodockgpu

>  <m_score__min__energy>  (90) 
-7.79

>  <m_primary>  (90) 
energy

>  <rmsd>  (90) 
10.632244296597456

>  <m_score__min__rmsd>  (90) 
10.632244296597456

>  <meeko>  (90) 
{"free_energy": -5.74, "intermolecular_energy": -8.43, "internal_energy": -2.45, "cluster_size": 12, "cluster_id": 7, "rank_in_cluster": 4}

>  <energy>  (90) 
-5.64

>  <cluster_rmsd>  (90) 
1.01

>  <cluster>  (90) 
7

$$$$

     RDKit          3D

 42 43  0  0  1  0  0  0  0  0999 V2000
  138.8930   68.8710  224.1530 O   0  0  0  0  0  0  0  0  0  0  0  0
  138.0000   69.7550  224.2260 C   0  0  0  0  0  0  0  0  0  0  0  0
  136.5970   69.4580  224.6110 C   0  0  0  0  0  0  0  0  0  0  0  0
  135.6760   69.3590  223.4490 C   0  0  0  0  0  0  0  0  0  0  0  0
  135.6800   70.7400  222.7460 C   0  0  0  0  0  0  0  0  0  0  0  0
  135.3540   71.7560  223.4850 O   0  0  0  0  0  0  0  0  0  0  0  0
  135.0360   72.7580  224.2120 C   0  0  0  0  0  0  0  0  0  0  0  0
  135.4820   74.0590  223.9360 C   0  0  0  0  0  0  0  0  0  0  0  0
  135.1400   75.1360  224.7170 C   0  0  0  0  0  0  0  0  0  0  0  0
  134.3340   74.9070  225.8020 C   0  0  0  0  0  0  0  0  0  0  0  0
  133.8920   76.2610  226.8030 Cl  0  0  0  0  0  0  0  0  0  0  0  0
  133.8580   73.6660  226.1390 C   0  0  0  0  0  0  0  0  0  0  0  0
  134.2140   72.6100  225.3420 C   0  0  0  0  0  0  0  0  0  0  0  0
  133.6390   71.0080  225.7190 Cl  0  0  0  0  0  0  0  0  0  0  0  0
  138.2850   71.1440  223.9350 N   0  0  0  0  0  0  0  0  0  0  0  0
  139.5650   71.4580  223.5770 N   0  0  0  0  0  0  0  0  0  0  0  0
  140.4180   71.8760  224.4090 C   0  0  0  0  0  0  0  0  0  0  0  0
  140.6710   71.4740  225.7610 C   0  0  0  0  0  0  0  0  0  0  0  0
  141.0180   72.2650  226.8180 C   0  0  0  0  0  0  0  0  0  0  0  0
  141.2530   71.7920  228.1020 C   0  0  0  0  0  0  0  0  0  0  0  0
  141.1420   70.4580  228.3680 C   0  0  0  0  0  0  0  0  0  0  0  0
  140.7930   69.6360  227.3170 C   0  0  0  0  0  0  0  0  0  0  0  0
  140.6680   68.1890  227.5830 C   0  0  0  0  0  0  0  0  0  0  0  0
  141.4290   67.4770  226.6780 F   0  0  0  0  0  0  0  0  0  0  0  0
  141.1390   67.9060  228.8660 F   0  0  0  0  0  0  0  0  0  0  0  0
  139.3500   67.7670  227.5670 F   0  0  0  0  0  0  0  0  0  0  0  0
  140.5610   70.1090  226.0480 C   0  0  0  0  0  0  0  0  0  0  0  0
  136.5790   68.5010  225.1530 H   0  0  0  0  0  0  0  0  0  0  0  0
  136.2465   70.2943  225.2337 H   0  0  0  0  0  0  0  0  0  0  0  0
  136.0266   68.5811  222.7548 H   0  0  0  0  0  0  0  0  0  0  0  0
  134.6610   69.0887  223.7756 H   0  0  0  0  0  0  0  0  0  0  0  0
  136.6941   70.9174  222.3585 H   0  0  0  0  0  0  0  0  0  0  0  0
  134.9049   70.6787  221.9679 H   0  0  0  0  0  0  0  0  0  0  0  0
  136.1295   74.2228  223.0620 H   0  0  0  0  0  0  0  0  0  0  0  0
  135.5006   76.1478  224.4799 H   0  0  0  0  0  0  0  0  0  0  0  0
  133.2129   73.5233  227.0185 H   0  0  0  0  0  0  0  0  0  0  0  0
  137.5090   71.8710  223.9840 H   0  0  0  0  0  0  0  0  0  0  0  0
  141.0722   72.6778  224.0359 H   0  0  0  0  0  0  0  0  0  0  0  0
  141.1178   73.3461  226.6412 H   0  0  0  0  0  0  0  0  0  0  0  0
  141.5285   72.4921  228.9045 H   0  0  0  0  0  0  0  0  0  0  0  0
  141.3229   70.0563  229.3759 H   0  0  0  0  0  0  0  0  0  0  0  0
  140.2855   69.4060  225.2480 H   0  0  0  0  0  0  0  0  0  0  0  0
  1  2  2  0
  2  3  1  0
  3  4  1  0
  4  5  1  0
  5  6  1  0
  6  7  1  0
  7  8  2  0
  8  9  1  0
  9 10  2  0
 10 11  1  0
 10 12  1  0
 12 13  2  0
 13 14  1  0
  2 15  1  0
 15 16  1  0
 16 17  2  0
 17 18  1  0
 18 19  2  0
 19 20  1  0
 20 21  2  0
 21 22  1  0
 22 23  1  0
 23 24  1  0
 23 25  1  0
 23 26  1  0
 22 27  2  0
 13  7  1  0
 27 18  1  0
  3 28  1  0
  3 29  1  0
  4 30  1  0
  4 31  1  0
  5 32  1  0
  5 33  1  0
  8 34  1  0
  9 35  1  0
 12 36  1  0
 15 37  1  0
 17 38  1  0
 19 39  1  0
 20 40  1  0
 21 41  1  0
 27 42  1  0
M  END
>  <smiles>  (91) 
O=C(CCCOc1ccc(Cl)cc1Cl)NN=Cc1cccc(C(F)(F)F)c1

>  <score_type>  (91) 
oracle

>  <origin>  (91) 
autodockgpu

>  <m_score__min__energy>  (91) 
-7.79

>  <m_primary>  (91) 
energy

>  <rmsd>  (91) 
11.7279235432721

>  <m_score__min__rmsd>  (91) 
11.7279235432721

>  <meeko>  (91) 
{"free_energy": -5.99, "intermolecular_energy": -8.67, "internal_energy": -1.85, "cluster_size": 1, "cluster_id": 8, "rank_in_cluster": 1}

>  <energy>  (91) 
-5.57

>  <cluster_rmsd>  (91) 
1.33

>  <cluster>  (91) 
7

$$$$

     RDKit          3D

 42 43  0  0  1  0  0  0  0  0999 V2000
  140.4600   75.3100  222.2130 O   0  0  0  0  0  0  0  0  0  0  0  0
  139.6580   74.5620  221.5960 C   0  0  0  0  0  0  0  0  0  0  0  0
  138.7180   75.0630  220.5610 C   0  0  0  0  0  0  0  0  0  0  0  0
  138.7360   74.2600  219.3100 C   0  0  0  0  0  0  0  0  0  0  0  0
  139.9920   74.6910  218.5120 C   0  0  0  0  0  0  0  0  0  0  0  0
  141.1360   74.4290  219.0660 O   0  0  0  0  0  0  0  0  0  0  0  0
  142.2640   74.1710  219.6080 C   0  0  0  0  0  0  0  0  0  0  0  0
  142.5770   72.9070  220.1300 C   0  0  0  0  0  0  0  0  0  0  0  0
  143.7890   72.6290  220.7130 C   0  0  0  0  0  0  0  0  0  0  0  0
  144.7120   73.6410  220.7780 C   0  0  0  0  0  0  0  0  0  0  0  0
  146.2540   73.3070  221.5150 Cl  0  0  0  0  0  0  0  0  0  0  0  0
  144.4830   74.9030  220.2930 C   0  0  0  0  0  0  0  0  0  0  0  0
  143.2650   75.1510  219.7160 C   0  0  0  0  0  0  0  0  0  0  0  0
  142.9160   76.7360  219.0800 Cl  0  0  0  0  0  0  0  0  0  0  0  0
  139.5970   73.1390  221.8550 N   0  0  0  0  0  0  0  0  0  0  0  0
  140.4470   72.6390  222.8000 N   0  0  0  0  0  0  0  0  0  0  0  0
  140.4430   71.4240  223.1400 C   0  0  0  0  0  0  0  0  0  0  0  0
  140.2460   70.8190  224.4250 C   0  0  0  0  0  0  0  0  0  0  0  0
  139.6610   69.6180  224.7030 C   0  0  0  0  0  0  0  0  0  0  0  0
  139.5020   69.1060  225.9840 C   0  0  0  0  0  0  0  0  0  0  0  0
  139.9450   69.8160  227.0620 C   0  0  0  0  0  0  0  0  0  0  0  0
  140.5410   71.0350  226.8080 C   0  0  0  0  0  0  0  0  0  0  0  0
  141.0270   71.8200  227.9600 C   0  0  0  0  0  0  0  0  0  0  0  0
  141.7010   72.9390  227.5150 F   0  0  0  0  0  0  0  0  0  0  0  0
  139.9430   72.2420  228.7310 F   0  0  0  0  0  0  0  0  0  0  0  0
  141.8190   71.0660  228.8090 F   0  0  0  0  0  0  0  0  0  0  0  0
  140.6960   71.5370  225.5380 C   0  0  0  0  0  0  0  0  0  0  0  0
  137.6992   75.0409  220.9751 H   0  0  0  0  0  0  0  0  0  0  0  0
  139.0373   76.0822  220.2978 H   0  0  0  0  0  0  0  0  0  0  0  0
  138.7907   73.1879  219.5502 H   0  0  0  0  0  0  0  0  0  0  0  0
  137.8213   74.4285  218.7227 H   0  0  0  0  0  0  0  0  0  0  0  0
  139.9644   74.1791  217.5388 H   0  0  0  0  0  0  0  0  0  0  0  0
  139.9391   75.7877  218.4456 H   0  0  0  0  0  0  0  0  0  0  0  0
  141.8230   72.1083  220.0701 H   0  0  0  0  0  0  0  0  0  0  0  0
  144.0116   71.6291  221.1139 H   0  0  0  0  0  0  0  0  0  0  0  0
  145.2498   75.6884  220.3645 H   0  0  0  0  0  0  0  0  0  0  0  0
  138.8970   72.5300  221.3350 H   0  0  0  0  0  0  0  0  0  0  0  0
  140.6190   70.7144  222.3181 H   0  0  0  0  0  0  0  0  0  0  0  0
  139.2919   69.0172  223.8587 H   0  0  0  0  0  0  0  0  0  0  0  0
  139.0191   68.1285  226.1298 H   0  0  0  0  0  0  0  0  0  0  0  0
  139.8322   69.4340  228.0874 H   0  0  0  0  0  0  0  0  0  0  0  0
  141.1795   72.5147  225.3951 H   0  0  0  0  0  0  0  0  0  0  0  0
  1  2  2  0
  2  3  1  0
  3  4  1  0
  4  5  1  0
  5  6  1  0
  6  7  1  0
  7  8  2  0
  8  9  1  0
  9 10  2  0
 10 11  1  0
 10 12  1  0
 12 13  2  0
 13 14  1  0
  2 15  1  0
 15 16  1  0
 16 17  2  0
 17 18  1  0
 18 19  2  0
 19 20  1  0
 20 21  2  0
 21 22  1  0
 22 23  1  0
 23 24  1  0
 23 25  1  0
 23 26  1  0
 22 27  2  0
 13  7  1  0
 27 18  1  0
  3 28  1  0
  3 29  1  0
  4 30  1  0
  4 31  1  0
  5 32  1  0
  5 33  1  0
  8 34  1  0
  9 35  1  0
 12 36  1  0
 15 37  1  0
 17 38  1  0
 19 39  1  0
 20 40  1  0
 21 41  1  0
 27 42  1  0
M  END
>  <smiles>  (92) 
O=C(CCCOc1ccc(Cl)cc1Cl)NN=Cc1cccc(C(F)(F)F)c1

>  <score_type>  (92) 
oracle

>  <origin>  (92) 
autodockgpu

>  <m_score__min__energy>  (92) 
-7.79

>  <m_primary>  (92) 
energy

>  <rmsd>  (92) 
9.156139013054492

>  <m_score__min__rmsd>  (92) 
9.156139013054492

>  <meeko>  (92) 
{"free_energy": -6.5, "intermolecular_energy": -9.18, "internal_energy": -1.43, "cluster_size": 10, "cluster_id": 4, "rank_in_cluster": 2}

>  <energy>  (92) 
-5.5

>  <cluster_rmsd>  (92) 
1.32

>  <cluster>  (92) 
7

$$$$

     RDKit          3D

 42 43  0  0  1  0  0  0  0  0999 V2000
  139.6260   79.6690  223.6720 O   0  0  0  0  0  0  0  0  0  0  0  0
  139.9470   78.5870  223.1170 C   0  0  0  0  0  0  0  0  0  0  0  0
  138.9520   77.6350  222.5620 C   0  0  0  0  0  0  0  0  0  0  0  0
  138.6380   77.8810  221.1300 C   0  0  0  0  0  0  0  0  0  0  0  0
  139.9600   78.3010  220.4400 C   0  0  0  0  0  0  0  0  0  0  0  0
  140.8870   77.3940  220.3860 O   0  0  0  0  0  0  0  0  0  0  0  0
  141.8020   76.5030  220.3350 C   0  0  0  0  0  0  0  0  0  0  0  0
  143.0660   76.7530  219.7830 C   0  0  0  0  0  0  0  0  0  0  0  0
  144.0500   75.7950  219.7280 C   0  0  0  0  0  0  0  0  0  0  0  0
  143.7600   74.5550  220.2360 C   0  0  0  0  0  0  0  0  0  0  0  0
  144.9950   73.3290  220.1740 Cl  0  0  0  0  0  0  0  0  0  0  0  0
  142.5490   74.2310  220.7910 C   0  0  0  0  0  0  0  0  0  0  0  0
  141.5870   75.2070  220.8330 C   0  0  0  0  0  0  0  0  0  0  0  0
  140.0280   74.8540  221.5280 Cl  0  0  0  0  0  0  0  0  0  0  0  0
  141.3320   78.1890  222.9800 N   0  0  0  0  0  0  0  0  0  0  0  0
  142.2790   79.0370  223.4780 N   0  0  0  0  0  0  0  0  0  0  0  0
  142.7560   79.9920  222.8030 C   0  0  0  0  0  0  0  0  0  0  0  0
  142.1260   80.8740  221.8650 C   0  0  0  0  0  0  0  0  0  0  0  0
  141.4580   82.0340  222.1270 C   0  0  0  0  0  0  0  0  0  0  0  0
  140.8670   82.8310  221.1550 C   0  0  0  0  0  0  0  0  0  0  0  0
  140.9350   82.4660  219.8410 C   0  0  0  0  0  0  0  0  0  0  0  0
  141.6060   81.2960  219.5490 C   0  0  0  0  0  0  0  0  0  0  0  0
  141.6910   80.8840  218.1340 C   0  0  0  0  0  0  0  0  0  0  0  0
  140.4300   80.5920  217.6530 F   0  0  0  0  0  0  0  0  0  0  0  0
  142.2170   81.9270  217.3720 F   0  0  0  0  0  0  0  0  0  0  0  0
  142.5520   79.8150  217.9520 F   0  0  0  0  0  0  0  0  0  0  0  0
  142.1890   80.5120  220.5150 C   0  0  0  0  0  0  0  0  0  0  0  0
  139.3514   76.6149  222.6616 H   0  0  0  0  0  0  0  0  0  0  0  0
  138.0190   77.7719  223.1283 H   0  0  0  0  0  0  0  0  0  0  0  0
  138.2453   76.9638  220.6668 H   0  0  0  0  0  0  0  0  0  0  0  0
  137.8749   78.6663  221.0256 H   0  0  0  0  0  0  0  0  0  0  0  0
  139.7211   78.5999  219.4087 H   0  0  0  0  0  0  0  0  0  0  0  0
  140.3733   79.1108  221.0592 H   0  0  0  0  0  0  0  0  0  0  0  0
  143.2784   77.7537  219.3786 H   0  0  0  0  0  0  0  0  0  0  0  0
  145.0355   76.0154  219.2918 H   0  0  0  0  0  0  0  0  0  0  0  0
  142.3560   73.2237  221.1885 H   0  0  0  0  0  0  0  0  0  0  0  0
  141.5790   77.2590  222.5240 H   0  0  0  0  0  0  0  0  0  0  0  0
  143.8289   80.1769  222.9605 H   0  0  0  0  0  0  0  0  0  0  0  0
  141.3825   82.3591  223.1751 H   0  0  0  0  0  0  0  0  0  0  0  0
  140.3448   83.7552  221.4435 H   0  0  0  0  0  0  0  0  0  0  0  0
  140.4754   83.0773  219.0504 H   0  0  0  0  0  0  0  0  0  0  0  0
  142.7114   79.5889  220.2236 H   0  0  0  0  0  0  0  0  0  0  0  0
  1  2  2  0
  2  3  1  0
  3  4  1  0
  4  5  1  0
  5  6  1  0
  6  7  1  0
  7  8  2  0
  8  9  1  0
  9 10  2  0
 10 11  1  0
 10 12  1  0
 12 13  2  0
 13 14  1  0
  2 15  1  0
 15 16  1  0
 16 17  2  0
 17 18  1  0
 18 19  2  0
 19 20  1  0
 20 21  2  0
 21 22  1  0
 22 23  1  0
 23 24  1  0
 23 25  1  0
 23 26  1  0
 22 27  2  0
 13  7  1  0
 27 18  1  0
  3 28  1  0
  3 29  1  0
  4 30  1  0
  4 31  1  0
  5 32  1  0
  5 33  1  0
  8 34  1  0
  9 35  1  0
 12 36  1  0
 15 37  1  0
 17 38  1  0
 19 39  1  0
 20 40  1  0
 21 41  1  0
 27 42  1  0
M  END
>  <smiles>  (93) 
O=C(CCCOc1ccc(Cl)cc1Cl)NN=Cc1cccc(C(F)(F)F)c1

>  <score_type>  (93) 
oracle

>  <origin>  (93) 
autodockgpu

>  <m_score__min__energy>  (93) 
-7.79

>  <m_primary>  (93) 
energy

>  <rmsd>  (93) 
6.99228685896194

>  <m_score__min__rmsd>  (93) 
6.99228685896194

>  <meeko>  (93) 
{"free_energy": -4.9, "intermolecular_energy": -7.59, "internal_energy": -2.43, "cluster_size": 1, "cluster_id": 12, "rank_in_cluster": 1}

>  <energy>  (93) 
-5.44

>  <cluster_rmsd>  (93) 
1.3

>  <cluster>  (93) 
7

$$$$

     RDKit          3D

 42 43  0  0  1  0  0  0  0  0999 V2000
  141.2740   75.5660  220.8540 O   0  0  0  0  0  0  0  0  0  0  0  0
  140.5030   74.9100  221.6010 C   0  0  0  0  0  0  0  0  0  0  0  0
  140.7250   73.4810  221.9380 C   0  0  0  0  0  0  0  0  0  0  0  0
  139.4640   72.7190  222.1310 C   0  0  0  0  0  0  0  0  0  0  0  0
  139.8490   71.2200  222.2190 C   0  0  0  0  0  0  0  0  0  0  0  0
  140.0180   70.7450  223.4140 O   0  0  0  0  0  0  0  0  0  0  0  0
  140.1870   70.2730  224.5900 C   0  0  0  0  0  0  0  0  0  0  0  0
  140.8890   70.9680  225.5860 C   0  0  0  0  0  0  0  0  0  0  0  0
  141.0710   70.4620  226.8500 C   0  0  0  0  0  0  0  0  0  0  0  0
  140.5370   69.2290  227.1250 C   0  0  0  0  0  0  0  0  0  0  0  0
  140.7580   68.5720  228.7220 Cl  0  0  0  0  0  0  0  0  0  0  0  0
  139.8390   68.4870  226.2070 C   0  0  0  0  0  0  0  0  0  0  0  0
  139.6730   69.0170  224.9550 C   0  0  0  0  0  0  0  0  0  0  0  0
  138.7930   68.1210  223.7460 Cl  0  0  0  0  0  0  0  0  0  0  0  0
  139.3280   75.5140  222.1940 N   0  0  0  0  0  0  0  0  0  0  0  0
  139.0890   76.8280  221.9090 N   0  0  0  0  0  0  0  0  0  0  0  0
  139.3350   77.7550  222.7300 C   0  0  0  0  0  0  0  0  0  0  0  0
  140.4060   78.7070  222.7620 C   0  0  0  0  0  0  0  0  0  0  0  0
  141.5660   78.6380  223.4780 C   0  0  0  0  0  0  0  0  0  0  0  0
  142.5540   79.6130  223.4580 C   0  0  0  0  0  0  0  0  0  0  0  0
  142.3970   80.7280  222.6870 C   0  0  0  0  0  0  0  0  0  0  0  0
  141.2330   80.8230  221.9520 C   0  0  0  0  0  0  0  0  0  0  0  0
  141.0420   82.0210  221.1110 C   0  0  0  0  0  0  0  0  0  0  0  0
  139.7010   82.1890  220.8290 F   0  0  0  0  0  0  0  0  0  0  0  0
  141.4870   83.1510  221.7980 F   0  0  0  0  0  0  0  0  0  0  0  0
  141.7930   81.9680  219.9490 F   0  0  0  0  0  0  0  0  0  0  0  0
  140.2580   79.8540  221.9760 C   0  0  0  0  0  0  0  0  0  0  0  0
  141.2934   73.0138  221.1203 H   0  0  0  0  0  0  0  0  0  0  0  0
  141.2716   73.4528  222.8922 H   0  0  0  0  0  0  0  0  0  0  0  0
  138.9690   73.0370  223.0604 H   0  0  0  0  0  0  0  0  0  0  0  0
  138.7667   72.8969  221.2991 H   0  0  0  0  0  0  0  0  0  0  0  0
  139.0500   70.6385  221.7357 H   0  0  0  0  0  0  0  0  0  0  0  0
  140.8286   71.1363  221.7256 H   0  0  0  0  0  0  0  0  0  0  0  0
  141.3097   71.9556  225.3457 H   0  0  0  0  0  0  0  0  0  0  0  0
  141.6254   71.0258  227.6147 H   0  0  0  0  0  0  0  0  0  0  0  0
  139.4269   67.5008  226.4670 H   0  0  0  0  0  0  0  0  0  0  0  0
  138.6800   74.9330  222.8070 H   0  0  0  0  0  0  0  0  0  0  0  0
  138.6110   77.8468  223.5531 H   0  0  0  0  0  0  0  0  0  0  0  0
  141.7283   77.7534  224.1113 H   0  0  0  0  0  0  0  0  0  0  0  0
  143.4635   79.4868  224.0637 H   0  0  0  0  0  0  0  0  0  0  0  0
  143.1640   81.5158  222.6530 H   0  0  0  0  0  0  0  0  0  0  0  0
  139.3497   79.9827  221.3690 H   0  0  0  0  0  0  0  0  0  0  0  0
  1  2  2  0
  2  3  1  0
  3  4  1  0
  4  5  1  0
  5  6  1  0
  6  7  1  0
  7  8  2  0
  8  9  1  0
  9 10  2  0
 10 11  1  0
 10 12  1  0
 12 13  2  0
 13 14  1  0
  2 15  1  0
 15 16  1  0
 16 17  2  0
 17 18  1  0
 18 19  2  0
 19 20  1  0
 20 21  2  0
 21 22  1  0
 22 23  1  0
 23 24  1  0
 23 25  1  0
 23 26  1  0
 22 27  2  0
 13  7  1  0
 27 18  1  0
  3 28  1  0
  3 29  1  0
  4 30  1  0
  4 31  1  0
  5 32  1  0
  5 33  1  0
  8 34  1  0
  9 35  1  0
 12 36  1  0
 15 37  1  0
 17 38  1  0
 19 39  1  0
 20 40  1  0
 21 41  1  0
 27 42  1  0
M  END
>  <smiles>  (94) 
O=C(CCCOc1ccc(Cl)cc1Cl)NN=Cc1cccc(C(F)(F)F)c1

>  <score_type>  (94) 
oracle

>  <origin>  (94) 
autodockgpu

>  <m_score__min__energy>  (94) 
-7.79

>  <m_primary>  (94) 
energy

>  <rmsd>  (94) 
13.11536595255316

>  <m_score__min__rmsd>  (94) 
13.11536595255316

>  <meeko>  (94) 
{"free_energy": -6.64, "intermolecular_energy": -9.33, "internal_energy": -0.79, "cluster_size": 1, "cluster_id": 5, "rank_in_cluster": 1}

>  <energy>  (94) 
-5.19

>  <cluster_rmsd>  (94) 
1.35

>  <cluster>  (94) 
7

$$$$

     RDKit          3D

 42 43  0  0  1  0  0  0  0  0999 V2000
  139.5190   72.5190  220.2080 O   0  0  0  0  0  0  0  0  0  0  0  0
  138.8040   73.2270  220.9620 C   0  0  0  0  0  0  0  0  0  0  0  0
  137.5320   73.8510  220.5180 C   0  0  0  0  0  0  0  0  0  0  0  0
  137.6020   75.3330  220.4280 C   0  0  0  0  0  0  0  0  0  0  0  0
  137.4740   75.8820  221.8720 C   0  0  0  0  0  0  0  0  0  0  0  0
  138.3640   76.7550  222.2300 O   0  0  0  0  0  0  0  0  0  0  0  0
  139.2380   77.6180  222.5840 C   0  0  0  0  0  0  0  0  0  0  0  0
  138.8950   78.8220  223.2160 C   0  0  0  0  0  0  0  0  0  0  0  0
  139.8340   79.7490  223.5960 C   0  0  0  0  0  0  0  0  0  0  0  0
  141.1500   79.4670  223.3360 C   0  0  0  0  0  0  0  0  0  0  0  0
  142.3540   80.6310  223.8100 Cl  0  0  0  0  0  0  0  0  0  0  0  0
  141.5670   78.3140  222.7220 C   0  0  0  0  0  0  0  0  0  0  0  0
  140.6080   77.4060  222.3540 C   0  0  0  0  0  0  0  0  0  0  0  0
  141.0770   75.9220  221.5690 Cl  0  0  0  0  0  0  0  0  0  0  0  0
  139.1770   73.4850  222.3370 N   0  0  0  0  0  0  0  0  0  0  0  0
  140.3400   72.9280  222.7840 N   0  0  0  0  0  0  0  0  0  0  0  0
  140.4360   71.7040  223.0780 C   0  0  0  0  0  0  0  0  0  0  0  0
  140.2370   71.0310  224.3280 C   0  0  0  0  0  0  0  0  0  0  0  0
  139.6500   69.8170  224.5400 C   0  0  0  0  0  0  0  0  0  0  0  0
  139.4900   69.2360  225.7910 C   0  0  0  0  0  0  0  0  0  0  0  0
  139.9340   69.8860  226.9060 C   0  0  0  0  0  0  0  0  0  0  0  0
  140.5320   71.1150  226.7190 C   0  0  0  0  0  0  0  0  0  0  0  0
  141.0180   71.8350  227.9130 C   0  0  0  0  0  0  0  0  0  0  0  0
  139.9480   72.2710  228.6680 F   0  0  0  0  0  0  0  0  0  0  0  0
  141.7840   70.9740  228.7000 F   0  0  0  0  0  0  0  0  0  0  0  0
  141.8570   72.8860  227.5830 F   0  0  0  0  0  0  0  0  0  0  0  0
  140.6880   71.6850  225.4790 C   0  0  0  0  0  0  0  0  0  0  0  0
  137.2762   73.4530  219.5250 H   0  0  0  0  0  0  0  0  0  0  0  0
  136.7696   73.6069  221.2724 H   0  0  0  0  0  0  0  0  0  0  0  0
  138.5638   75.6398  219.9912 H   0  0  0  0  0  0  0  0  0  0  0  0
  136.7992   75.7254  219.7865 H   0  0  0  0  0  0  0  0  0  0  0  0
  136.4842   76.3525  221.9665 H   0  0  0  0  0  0  0  0  0  0  0  0
  137.6261   75.0159  222.5328 H   0  0  0  0  0  0  0  0  0  0  0  0
  137.8336   79.0317  223.4148 H   0  0  0  0  0  0  0  0  0  0  0  0
  139.5402   80.6858  224.0920 H   0  0  0  0  0  0  0  0  0  0  0  0
  142.6336   78.1243  222.5314 H   0  0  0  0  0  0  0  0  0  0  0  0
  138.5650   74.1050  222.9490 H   0  0  0  0  0  0  0  0  0  0  0  0
  140.7176   71.0487  222.2405 H   0  0  0  0  0  0  0  0  0  0  0  0
  139.2802   69.2638  223.6641 H   0  0  0  0  0  0  0  0  0  0  0  0
  139.0058   68.2526  225.8833 H   0  0  0  0  0  0  0  0  0  0  0  0
  139.8201   69.4493  227.9091 H   0  0  0  0  0  0  0  0  0  0  0  0
  141.1737   72.6680  225.3902 H   0  0  0  0  0  0  0  0  0  0  0  0
  1  2  2  0
  2  3  1  0
  3  4  1  0
  4  5  1  0
  5  6  1  0
  6  7  1  0
  7  8  2  0
  8  9  1  0
  9 10  2  0
 10 11  1  0
 10 12  1  0
 12 13  2  0
 13 14  1  0
  2 15  1  0
 15 16  1  0
 16 17  2  0
 17 18  1  0
 18 19  2  0
 19 20  1  0
 20 21  2  0
 21 22  1  0
 22 23  1  0
 23 24  1  0
 23 25  1  0
 23 26  1  0
 22 27  2  0
 13  7  1  0
 27 18  1  0
  3 28  1  0
  3 29  1  0
  4 30  1  0
  4 31  1  0
  5 32  1  0
  5 33  1  0
  8 34  1  0
  9 35  1  0
 12 36  1  0
 15 37  1  0
 17 38  1  0
 19 39  1  0
 20 40  1  0
 21 41  1  0
 27 42  1  0
M  END
>  <smiles>  (95) 
O=C(CCCOc1ccc(Cl)cc1Cl)NN=Cc1cccc(C(F)(F)F)c1

>  <score_type>  (95) 
oracle

>  <origin>  (95) 
autodockgpu

>  <m_score__min__energy>  (95) 
-7.79

>  <m_primary>  (95) 
energy

>  <rmsd>  (95) 
6.114768223259058

>  <m_score__min__rmsd>  (95) 
6.114768223259058

>  <meeko>  (95) 
{"free_energy": -7.0, "intermolecular_energy": -9.69, "internal_energy": -1.12, "cluster_size": 9, "cluster_id": 2, "rank_in_cluster": 2}

>  <energy>  (95) 
-4.98

>  <cluster_rmsd>  (95) 
1.42

>  <cluster>  (95) 
7

$$$$

     RDKit          3D

 42 43  0  0  1  0  0  0  0  0999 V2000
  140.1410   75.4100  222.3810 O   0  0  0  0  0  0  0  0  0  0  0  0
  139.4450   74.6220  221.6900 C   0  0  0  0  0  0  0  0  0  0  0  0
  138.4460   75.0850  220.6950 C   0  0  0  0  0  0  0  0  0  0  0  0
  139.0310   75.3620  219.3570 C   0  0  0  0  0  0  0  0  0  0  0  0
  139.7850   74.0820  218.9180 C   0  0  0  0  0  0  0  0  0  0  0  0
  140.9820   73.9340  219.3960 O   0  0  0  0  0  0  0  0  0  0  0  0
  142.1630   73.7910  219.8640 C   0  0  0  0  0  0  0  0  0  0  0  0
  142.6440   72.5580  220.3270 C   0  0  0  0  0  0  0  0  0  0  0  0
  143.9130   72.4020  220.8310 C   0  0  0  0  0  0  0  0  0  0  0  0
  144.7210   73.5090  220.8740 C   0  0  0  0  0  0  0  0  0  0  0  0
  146.3320   73.3310  221.5100 Cl  0  0  0  0  0  0  0  0  0  0  0  0
  144.3250   74.7490  220.4420 C   0  0  0  0  0  0  0  0  0  0  0  0
  143.0550   74.8740  219.9440 C   0  0  0  0  0  0  0  0  0  0  0  0
  142.4950   76.4250  219.3790 Cl  0  0  0  0  0  0  0  0  0  0  0  0
  139.5740   73.1860  221.8200 N   0  0  0  0  0  0  0  0  0  0  0  0
  140.4840   72.7190  222.7240 N   0  0  0  0  0  0  0  0  0  0  0  0
  140.5220   71.5100  223.0860 C   0  0  0  0  0  0  0  0  0  0  0  0
  140.2470   70.9120  224.3590 C   0  0  0  0  0  0  0  0  0  0  0  0
  139.5740   69.7510  224.6100 C   0  0  0  0  0  0  0  0  0  0  0  0
  139.3430   69.2430  225.8810 C   0  0  0  0  0  0  0  0  0  0  0  0
  139.8030   69.9140  226.9770 C   0  0  0  0  0  0  0  0  0  0  0  0
  140.4870   71.0900  226.7510 C   0  0  0  0  0  0  0  0  0  0  0  0
  140.9920   71.8320  227.9240 C   0  0  0  0  0  0  0  0  0  0  0  0
  141.6810   72.9540  227.5090 F   0  0  0  0  0  0  0  0  0  0  0  0
  139.9200   72.2460  228.7140 F   0  0  0  0  0  0  0  0  0  0  0  0
  141.7790   71.0400  228.7430 F   0  0  0  0  0  0  0  0  0  0  0  0
  140.7130   71.5890  225.4910 C   0  0  0  0  0  0  0  0  0  0  0  0
  137.6767   74.3065  220.5849 H   0  0  0  0  0  0  0  0  0  0  0  0
  138.0288   76.0314  221.0695 H   0  0  0  0  0  0  0  0  0  0  0  0
  138.2330   75.5959  218.6370 H   0  0  0  0  0  0  0  0  0  0  0  0
  139.7126   76.2244  219.3977 H   0  0  0  0  0  0  0  0  0  0  0  0
  139.1871   73.2144  219.2338 H   0  0  0  0  0  0  0  0  0  0  0  0
  139.9100   74.1708  217.8287 H   0  0  0  0  0  0  0  0  0  0  0  0
  141.9801   71.6819  220.2852 H   0  0  0  0  0  0  0  0  0  0  0  0
  144.2679   71.4237  221.1873 H   0  0  0  0  0  0  0  0  0  0  0  0
  145.0036   75.6132  220.4936 H   0  0  0  0  0  0  0  0  0  0  0  0
  138.9610   72.5390  221.2380 H   0  0  0  0  0  0  0  0  0  0  0  0
  140.8132   70.8012  222.2968 H   0  0  0  0  0  0  0  0  0  0  0  0
  139.1904   69.1819  223.7504 H   0  0  0  0  0  0  0  0  0  0  0  0
  138.7897   68.3004  226.0048 H   0  0  0  0  0  0  0  0  0  0  0  0
  139.6355   69.5336  227.9955 H   0  0  0  0  0  0  0  0  0  0  0  0
  141.2668   72.5318  225.3709 H   0  0  0  0  0  0  0  0  0  0  0  0
  1  2  2  0
  2  3  1  0
  3  4  1  0
  4  5  1  0
  5  6  1  0
  6  7  1  0
  7  8  2  0
  8  9  1  0
  9 10  2  0
 10 11  1  0
 10 12  1  0
 12 13  2  0
 13 14  1  0
  2 15  1  0
 15 16  1  0
 16 17  2  0
 17 18  1  0
 18 19  2  0
 19 20  1  0
 20 21  2  0
 21 22  1  0
 22 23  1  0
 23 24  1  0
 23 25  1  0
 23 26  1  0
 22 27  2  0
 13  7  1  0
 27 18  1  0
  3 28  1  0
  3 29  1  0
  4 30  1  0
  4 31  1  0
  5 32  1  0
  5 33  1  0
  8 34  1  0
  9 35  1  0
 12 36  1  0
 15 37  1  0
 17 38  1  0
 19 39  1  0
 20 40  1  0
 21 41  1  0
 27 42  1  0
M  END
>  <smiles>  (96) 
O=C(CCCOc1ccc(Cl)cc1Cl)NN=Cc1cccc(C(F)(F)F)c1

>  <score_type>  (96) 
oracle

>  <origin>  (96) 
autodockgpu

>  <m_score__min__energy>  (96) 
-7.79

>  <m_primary>  (96) 
energy

>  <rmsd>  (96) 
9.597825279113264

>  <m_score__min__rmsd>  (96) 
9.597825279113264

>  <meeko>  (96) 
{"free_energy": -6.45, "intermolecular_energy": -9.13, "internal_energy": -1.51, "cluster_size": 10, "cluster_id": 4, "rank_in_cluster": 3}

>  <energy>  (96) 
-5.99

>  <cluster_rmsd>  (96) 
0.0

>  <cluster>  (96) 
8

$$$$

     RDKit          3D

 42 43  0  0  1  0  0  0  0  0999 V2000
  140.5030   74.8040  221.8040 O   0  0  0  0  0  0  0  0  0  0  0  0
  139.3360   74.3710  221.9860 C   0  0  0  0  0  0  0  0  0  0  0  0
  138.1220   75.1200  221.5730 C   0  0  0  0  0  0  0  0  0  0  0  0
  137.3510   75.6710  222.7190 C   0  0  0  0  0  0  0  0  0  0  0  0
  137.2770   77.2060  222.5190 C   0  0  0  0  0  0  0  0  0  0  0  0
  138.3690   77.8650  222.7610 O   0  0  0  0  0  0  0  0  0  0  0  0
  139.4430   78.5160  222.9960 C   0  0  0  0  0  0  0  0  0  0  0  0
  140.7160   77.9810  222.7520 C   0  0  0  0  0  0  0  0  0  0  0  0
  141.8710   78.6800  223.0050 C   0  0  0  0  0  0  0  0  0  0  0  0
  141.7500   79.9470  223.5170 C   0  0  0  0  0  0  0  0  0  0  0  0
  143.2040   80.8470  223.8450 Cl  0  0  0  0  0  0  0  0  0  0  0  0
  140.5430   80.5400  223.7840 C   0  0  0  0  0  0  0  0  0  0  0  0
  139.4080   79.8190  223.5210 C   0  0  0  0  0  0  0  0  0  0  0  0
  137.8440   80.5210  223.8390 Cl  0  0  0  0  0  0  0  0  0  0  0  0
  139.0930   73.0930  222.6200 N   0  0  0  0  0  0  0  0  0  0  0  0
  140.1840   72.3730  223.0140 N   0  0  0  0  0  0  0  0  0  0  0  0
  140.1060   71.1660  223.3760 C   0  0  0  0  0  0  0  0  0  0  0  0
  140.2340   70.5750  224.6750 C   0  0  0  0  0  0  0  0  0  0  0  0
  140.0450   69.2690  225.0230 C   0  0  0  0  0  0  0  0  0  0  0  0
  140.1830   68.7780  226.3140 C   0  0  0  0  0  0  0  0  0  0  0  0
  140.5310   69.6200  227.3310 C   0  0  0  0  0  0  0  0  0  0  0  0
  140.7280   70.9470  227.0060 C   0  0  0  0  0  0  0  0  0  0  0  0
  141.1040   71.8750  228.0900 C   0  0  0  0  0  0  0  0  0  0  0  0
  141.6800   73.0110  227.5580 F   0  0  0  0  0  0  0  0  0  0  0  0
  139.9640   72.2550  228.7980 F   0  0  0  0  0  0  0  0  0  0  0  0
  141.9410   71.2810  229.0200 F   0  0  0  0  0  0  0  0  0  0  0  0
  140.5900   71.4270  225.7260 C   0  0  0  0  0  0  0  0  0  0  0  0
  138.4302   75.9547  220.9263 H   0  0  0  0  0  0  0  0  0  0  0  0
  137.4643   74.4103  221.0497 H   0  0  0  0  0  0  0  0  0  0  0  0
  136.3379   75.2426  222.7336 H   0  0  0  0  0  0  0  0  0  0  0  0
  137.8363   75.4225  223.6744 H   0  0  0  0  0  0  0  0  0  0  0  0
  136.9942   77.3958  221.4730 H   0  0  0  0  0  0  0  0  0  0  0  0
  136.5441   77.5660  223.2560 H   0  0  0  0  0  0  0  0  0  0  0  0
  140.7925   76.9630  222.3425 H   0  0  0  0  0  0  0  0  0  0  0  0
  142.8586   78.2392  222.8041 H   0  0  0  0  0  0  0  0  0  0  0  0
  140.4878   81.5589  224.1949 H   0  0  0  0  0  0  0  0  0  0  0  0
  138.0960   72.7570  222.7820 H   0  0  0  0  0  0  0  0  0  0  0  0
  139.9077   70.4526  222.5625 H   0  0  0  0  0  0  0  0  0  0  0  0
  139.7654   68.5601  224.2297 H   0  0  0  0  0  0  0  0  0  0  0  0
  140.0120   67.7106  226.5177 H   0  0  0  0  0  0  0  0  0  0  0  0
  140.6491   69.2572  228.3627 H   0  0  0  0  0  0  0  0  0  0  0  0
  140.7616   72.4948  225.5250 H   0  0  0  0  0  0  0  0  0  0  0  0
  1  2  2  0
  2  3  1  0
  3  4  1  0
  4  5  1  0
  5  6  1  0
  6  7  1  0
  7  8  2  0
  8  9  1  0
  9 10  2  0
 10 11  1  0
 10 12  1  0
 12 13  2  0
 13 14  1  0
  2 15  1  0
 15 16  1  0
 16 17  2  0
 17 18  1  0
 18 19  2  0
 19 20  1  0
 20 21  2  0
 21 22  1  0
 22 23  1  0
 23 24  1  0
 23 25  1  0
 23 26  1  0
 22 27  2  0
 13  7  1  0
 27 18  1  0
  3 28  1  0
  3 29  1  0
  4 30  1  0
  4 31  1  0
  5 32  1  0
  5 33  1  0
  8 34  1  0
  9 35  1  0
 12 36  1  0
 15 37  1  0
 17 38  1  0
 19 39  1  0
 20 40  1  0
 21 41  1  0
 27 42  1  0
M  END
>  <smiles>  (97) 
O=C(CCCOc1ccc(Cl)cc1Cl)NN=Cc1cccc(C(F)(F)F)c1

>  <score_type>  (97) 
oracle

>  <origin>  (97) 
autodockgpu

>  <m_score__min__energy>  (97) 
-7.79

>  <m_primary>  (97) 
energy

>  <rmsd>  (97) 
5.717792264774405

>  <m_score__min__rmsd>  (97) 
5.717792264774405

>  <meeko>  (97) 
{"free_energy": -7.44, "intermolecular_energy": -10.12, "internal_energy": -0.91, "cluster_size": 10, "cluster_id": 1, "rank_in_cluster": 2}

>  <energy>  (97) 
-5.94

>  <cluster_rmsd>  (97) 
0.0

>  <cluster>  (97) 
9

$$$$

     RDKit          3D

 42 43  0  0  1  0  0  0  0  0999 V2000
  140.3190   74.9350  222.3030 O   0  0  0  0  0  0  0  0  0  0  0  0
  139.8550   74.0520  221.5380 C   0  0  0  0  0  0  0  0  0  0  0  0
  139.1320   74.3690  220.2800 C   0  0  0  0  0  0  0  0  0  0  0  0
  139.1860   73.2740  219.2770 C   0  0  0  0  0  0  0  0  0  0  0  0
  140.4410   73.5190  218.4030 C   0  0  0  0  0  0  0  0  0  0  0  0
  141.5810   73.4870  219.0210 O   0  0  0  0  0  0  0  0  0  0  0  0
  142.7060   73.4560  219.6280 C   0  0  0  0  0  0  0  0  0  0  0  0
  143.2420   72.2730  220.1570 C   0  0  0  0  0  0  0  0  0  0  0  0
  144.4510   72.2380  220.8090 C   0  0  0  0  0  0  0  0  0  0  0  0
  145.1390   73.4170  220.9380 C   0  0  0  0  0  0  0  0  0  0  0  0
  146.6720   73.3920  221.7630 Cl  0  0  0  0  0  0  0  0  0  0  0  0
  144.6830   74.6140  220.4500 C   0  0  0  0  0  0  0  0  0  0  0  0
  143.4750   74.6190  219.8030 C   0  0  0  0  0  0  0  0  0  0  0  0
  142.8430   76.1110  219.1610 Cl  0  0  0  0  0  0  0  0  0  0  0  0
  139.9960   72.6420  221.8350 N   0  0  0  0  0  0  0  0  0  0  0  0
  140.6560   72.3080  222.9830 N   0  0  0  0  0  0  0  0  0  0  0  0
  140.2230   71.4330  223.7830 C   0  0  0  0  0  0  0  0  0  0  0  0
  140.5330   71.2020  225.1640 C   0  0  0  0  0  0  0  0  0  0  0  0
  141.0310   72.0910  226.0700 C   0  0  0  0  0  0  0  0  0  0  0  0
  141.3110   71.7820  227.3940 C   0  0  0  0  0  0  0  0  0  0  0  0
  141.0870   70.5190  227.8610 C   0  0  0  0  0  0  0  0  0  0  0  0
  140.5830   69.5990  226.9650 C   0  0  0  0  0  0  0  0  0  0  0  0
  140.3340   68.2270  227.4490 C   0  0  0  0  0  0  0  0  0  0  0  0
  139.2430   67.6890  226.7970 F   0  0  0  0  0  0  0  0  0  0  0  0
  141.4430   67.4260  227.1770 F   0  0  0  0  0  0  0  0  0  0  0  0
  140.1660   68.1810  228.8230 F   0  0  0  0  0  0  0  0  0  0  0  0
  140.3070   69.9120  225.6550 C   0  0  0  0  0  0  0  0  0  0  0  0
  138.0778   74.5669  220.5240 H   0  0  0  0  0  0  0  0  0  0  0  0
  139.6263   75.2440  219.8328 H   0  0  0  0  0  0  0  0  0  0  0  0
  139.2635   72.3010  219.7843 H   0  0  0  0  0  0  0  0  0  0  0  0
  138.2753   73.2626  218.6602 H   0  0  0  0  0  0  0  0  0  0  0  0
  140.4613   72.7468  217.6198 H   0  0  0  0  0  0  0  0  0  0  0  0
  140.3400   74.5458  218.0215 H   0  0  0  0  0  0  0  0  0  0  0  0
  142.6733   71.3380  220.0458 H   0  0  0  0  0  0  0  0  0  0  0  0
  144.8528   71.2972  221.2133 H   0  0  0  0  0  0  0  0  0  0  0  0
  145.2664   75.5383  220.5734 H   0  0  0  0  0  0  0  0  0  0  0  0
  139.5770   71.9130  221.1820 H   0  0  0  0  0  0  0  0  0  0  0  0
  139.4900   70.7355  223.3516 H   0  0  0  0  0  0  0  0  0  0  0  0
  141.2233   73.1193  225.7298 H   0  0  0  0  0  0  0  0  0  0  0  0
  141.7131   72.5542  228.0663 H   0  0  0  0  0  0  0  0  0  0  0  0
  141.2990   70.2469  228.9055 H   0  0  0  0  0  0  0  0  0  0  0  0
  139.9036   69.1385  224.9849 H   0  0  0  0  0  0  0  0  0  0  0  0
  1  2  2  0
  2  3  1  0
  3  4  1  0
  4  5  1  0
  5  6  1  0
  6  7  1  0
  7  8  2  0
  8  9  1  0
  9 10  2  0
 10 11  1  0
 10 12  1  0
 12 13  2  0
 13 14  1  0
  2 15  1  0
 15 16  1  0
 16 17  2  0
 17 18  1  0
 18 19  2  0
 19 20  1  0
 20 21  2  0
 21 22  1  0
 22 23  1  0
 23 24  1  0
 23 25  1  0
 23 26  1  0
 22 27  2  0
 13  7  1  0
 27 18  1  0
  3 28  1  0
  3 29  1  0
  4 30  1  0
  4 31  1  0
  5 32  1  0
  5 33  1  0
  8 34  1  0
  9 35  1  0
 12 36  1  0
 15 37  1  0
 17 38  1  0
 19 39  1  0
 20 40  1  0
 21 41  1  0
 27 42  1  0
M  END
>  <smiles>  (98) 
O=C(CCCOc1ccc(Cl)cc1Cl)NN=Cc1cccc(C(F)(F)F)c1

>  <score_type>  (98) 
oracle

>  <origin>  (98) 
autodockgpu

>  <m_score__min__energy>  (98) 
-7.79

>  <m_primary>  (98) 
energy

>  <rmsd>  (98) 
10.003619385297656

>  <m_score__min__rmsd>  (98) 
10.003619385297656

>  <meeko>  (98) 
{"free_energy": -6.68, "intermolecular_energy": -9.37, "internal_energy": -1.39, "cluster_size": 10, "cluster_id": 4, "rank_in_cluster": 1}

>  <energy>  (98) 
-5.83

>  <cluster_rmsd>  (98) 
0.0

>  <cluster>  (98) 
10

$$$$

     RDKit          3D

 42 43  0  0  1  0  0  0  0  0999 V2000
  141.0890   74.7170  221.5820 O   0  0  0  0  0  0  0  0  0  0  0  0
  139.8930   74.4190  221.8360 C   0  0  0  0  0  0  0  0  0  0  0  0
  138.7370   75.1770  221.2940 C   0  0  0  0  0  0  0  0  0  0  0  0
  137.6130   75.3050  222.2570 C   0  0  0  0  0  0  0  0  0  0  0  0
  137.3450   76.8200  222.4440 C   0  0  0  0  0  0  0  0  0  0  0  0
  138.3830   77.5550  222.6990 O   0  0  0  0  0  0  0  0  0  0  0  0
  139.4050   78.2800  222.9520 C   0  0  0  0  0  0  0  0  0  0  0  0
  140.7170   77.8310  222.7440 C   0  0  0  0  0  0  0  0  0  0  0  0
  141.8160   78.6100  223.0160 C   0  0  0  0  0  0  0  0  0  0  0  0
  141.5960   79.8700  223.5110 C   0  0  0  0  0  0  0  0  0  0  0  0
  142.9760   80.8710  223.8620 Cl  0  0  0  0  0  0  0  0  0  0  0  0
  140.3450   80.3820  223.7420 C   0  0  0  0  0  0  0  0  0  0  0  0
  139.2680   79.5830  223.4610 C   0  0  0  0  0  0  0  0  0  0  0  0
  137.6530   80.1790  223.7340 Cl  0  0  0  0  0  0  0  0  0  0  0  0
  139.5570   73.2970  222.6870 N   0  0  0  0  0  0  0  0  0  0  0  0
  140.5930   72.5730  223.2040 N   0  0  0  0  0  0  0  0  0  0  0  0
  140.4140   71.5260  223.8860 C   0  0  0  0  0  0  0  0  0  0  0  0
  140.6360   71.2740  225.2790 C   0  0  0  0  0  0  0  0  0  0  0  0
  141.0120   72.1650  226.2410 C   0  0  0  0  0  0  0  0  0  0  0  0
  141.2130   71.8360  227.5750 C   0  0  0  0  0  0  0  0  0  0  0  0
  141.0330   70.5490  227.9940 C   0  0  0  0  0  0  0  0  0  0  0  0
  140.6520   69.6270  227.0400 C   0  0  0  0  0  0  0  0  0  0  0  0
  140.4520   68.2300  227.4720 C   0  0  0  0  0  0  0  0  0  0  0  0
  140.3850   68.1690  228.8500 F   0  0  0  0  0  0  0  0  0  0  0  0
  139.2500   67.7460  226.9560 F   0  0  0  0  0  0  0  0  0  0  0  0
  141.4360   67.3860  226.9840 F   0  0  0  0  0  0  0  0  0  0  0  0
  140.4540   69.9590  225.7220 C   0  0  0  0  0  0  0  0  0  0  0  0
  139.0788   76.1862  221.0206 H   0  0  0  0  0  0  0  0  0  0  0  0
  138.3592   74.6171  220.4258 H   0  0  0  0  0  0  0  0  0  0  0  0
  136.7157   74.8093  221.8580 H   0  0  0  0  0  0  0  0  0  0  0  0
  137.8632   74.8298  223.2170 H   0  0  0  0  0  0  0  0  0  0  0  0
  136.8852   77.1969  221.5185 H   0  0  0  0  0  0  0  0  0  0  0  0
  136.7009   76.8992  223.3322 H   0  0  0  0  0  0  0  0  0  0  0  0
  140.8725   76.8166  222.3480 H   0  0  0  0  0  0  0  0  0  0  0  0
  142.8359   78.2362  222.8429 H   0  0  0  0  0  0  0  0  0  0  0  0
  140.2108   81.3990  224.1392 H   0  0  0  0  0  0  0  0  0  0  0  0
  138.5390   73.0760  222.9030 H   0  0  0  0  0  0  0  0  0  0  0  0
  140.0243   70.6678  223.3189 H   0  0  0  0  0  0  0  0  0  0  0  0
  141.1659   73.2119  225.9406 H   0  0  0  0  0  0  0  0  0  0  0  0
  141.5169   72.6115  228.2935 H   0  0  0  0  0  0  0  0  0  0  0  0
  141.1848   70.2599  229.0444 H   0  0  0  0  0  0  0  0  0  0  0  0
  140.1486   69.1818  225.0059 H   0  0  0  0  0  0  0  0  0  0  0  0
  1  2  2  0
  2  3  1  0
  3  4  1  0
  4  5  1  0
  5  6  1  0
  6  7  1  0
  7  8  2  0
  8  9  1  0
  9 10  2  0
 10 11  1  0
 10 12  1  0
 12 13  2  0
 13 14  1  0
  2 15  1  0
 15 16  1  0
 16 17  2  0
 17 18  1  0
 18 19  2  0
 19 20  1  0
 20 21  2  0
 21 22  1  0
 22 23  1  0
 23 24  1  0
 23 25  1  0
 23 26  1  0
 22 27  2  0
 13  7  1  0
 27 18  1  0
  3 28  1  0
  3 29  1  0
  4 30  1  0
  4 31  1  0
  5 32  1  0
  5 33  1  0
  8 34  1  0
  9 35  1  0
 12 36  1  0
 15 37  1  0
 17 38  1  0
 19 39  1  0
 20 40  1  0
 21 41  1  0
 27 42  1  0
M  END
>  <smiles>  (99) 
O=C(CCCOc1ccc(Cl)cc1Cl)NN=Cc1cccc(C(F)(F)F)c1

>  <score_type>  (99) 
oracle

>  <origin>  (99) 
autodockgpu

>  <m_score__min__energy>  (99) 
-7.79

>  <m_primary>  (99) 
energy

>  <rmsd>  (99) 
5.90749773256757

>  <m_score__min__rmsd>  (99) 
5.90749773256757

>  <meeko>  (99) 
{"free_energy": -7.79, "intermolecular_energy": -10.48, "internal_energy": -0.94, "cluster_size": 10, "cluster_id": 1, "rank_in_cluster": 1}

>  <energy>  (99) 
-5.58

>  <cluster_rmsd>  (99) 
0.0

>  <cluster>  (99) 
11

$$$$

     RDKit          3D

 42 43  0  0  1  0  0  0  0  0999 V2000
  139.4500   75.3120  222.4690 O   0  0  0  0  0  0  0  0  0  0  0  0
  139.6020   74.6040  221.4410 C   0  0  0  0  0  0  0  0  0  0  0  0
  139.1370   75.0220  220.0940 C   0  0  0  0  0  0  0  0  0  0  0  0
  138.9140   73.8820  219.1670 C   0  0  0  0  0  0  0  0  0  0  0  0
  140.1710   73.7770  218.2660 C   0  0  0  0  0  0  0  0  0  0  0  0
  141.3080   73.6940  218.8840 O   0  0  0  0  0  0  0  0  0  0  0  0
  142.4300   73.6160  219.4920 C   0  0  0  0  0  0  0  0  0  0  0  0
  142.9740   72.3940  219.9140 C   0  0  0  0  0  0  0  0  0  0  0  0
  144.1790   72.3090  220.5680 C   0  0  0  0  0  0  0  0  0  0  0  0
  144.8580   73.4760  220.8060 C   0  0  0  0  0  0  0  0  0  0  0  0
  146.3870   73.3880  221.6330 Cl  0  0  0  0  0  0  0  0  0  0  0  0
  144.3950   74.7100  220.4250 C   0  0  0  0  0  0  0  0  0  0  0  0
  143.1900   74.7640  219.7750 C   0  0  0  0  0  0  0  0  0  0  0  0
  142.5490   76.3030  219.2670 Cl  0  0  0  0  0  0  0  0  0  0  0  0
  140.2520   73.3120  221.5010 N   0  0  0  0  0  0  0  0  0  0  0  0
  140.6950   72.8910  222.7220 N   0  0  0  0  0  0  0  0  0  0  0  0
  140.7360   71.6710  223.0450 C   0  0  0  0  0  0  0  0  0  0  0  0
  140.3290   71.0150  224.2520 C   0  0  0  0  0  0  0  0  0  0  0  0
  139.5180   69.9250  224.3800 C   0  0  0  0  0  0  0  0  0  0  0  0
  139.1660   69.3520  225.5940 C   0  0  0  0  0  0  0  0  0  0  0  0
  139.6390   69.8820  226.7600 C   0  0  0  0  0  0  0  0  0  0  0  0
  140.4620   70.9850  226.6590 C   0  0  0  0  0  0  0  0  0  0  0  0
  140.9840   71.5730  227.9090 C   0  0  0  0  0  0  0  0  0  0  0  0
  141.8070   72.6420  227.6160 F   0  0  0  0  0  0  0  0  0  0  0  0
  139.9240   72.0390  228.6870 F   0  0  0  0  0  0  0  0  0  0  0  0
  141.6410   70.6390  228.6910 F   0  0  0  0  0  0  0  0  0  0  0  0
  140.8080   71.5470  225.4540 C   0  0  0  0  0  0  0  0  0  0  0  0
  138.1901   75.5704  220.2065 H   0  0  0  0  0  0  0  0  0  0  0  0
  139.9294   75.6467  219.6561 H   0  0  0  0  0  0  0  0  0  0  0  0
  138.7800   72.9515  219.7381 H   0  0  0  0  0  0  0  0  0  0  0  0
  138.0094   74.0400  218.5614 H   0  0  0  0  0  0  0  0  0  0  0  0
  140.0621   72.8793  217.6396 H   0  0  0  0  0  0  0  0  0  0  0  0
  140.2094   74.7192  217.6996 H   0  0  0  0  0  0  0  0  0  0  0  0
  142.4144   71.4684  219.7136 H   0  0  0  0  0  0  0  0  0  0  0  0
  144.5850   71.3385  220.8895 H   0  0  0  0  0  0  0  0  0  0  0  0
  144.9708   75.6237  220.6340 H   0  0  0  0  0  0  0  0  0  0  0  0
  140.3510   72.7210  220.6210 H   0  0  0  0  0  0  0  0  0  0  0  0
  141.1513   71.0040  222.2752 H   0  0  0  0  0  0  0  0  0  0  0  0
  139.1174   69.4712  223.4616 H   0  0  0  0  0  0  0  0  0  0  0  0
  138.5067   68.4718  225.6168 H   0  0  0  0  0  0  0  0  0  0  0  0
  139.3758   69.4491  227.7363 H   0  0  0  0  0  0  0  0  0  0  0  0
  141.4695   72.4257  225.4341 H   0  0  0  0  0  0  0  0  0  0  0  0
  1  2  2  0
  2  3  1  0
  3  4  1  0
  4  5  1  0
  5  6  1  0
  6  7  1  0
  7  8  2  0
  8  9  1  0
  9 10  2  0
 10 11  1  0
 10 12  1  0
 12 13  2  0
 13 14  1  0
  2 15  1  0
 15 16  1  0
 16 17  2  0
 17 18  1  0
 18 19  2  0
 19 20  1  0
 20 21  2  0
 21 22  1  0
 22 23  1  0
 23 24  1  0
 23 25  1  0
 23 26  1  0
 22 27  2  0
 13  7  1  0
 27 18  1  0
  3 28  1  0
  3 29  1  0
  4 30  1  0
  4 31  1  0
  5 32  1  0
  5 33  1  0
  8 34  1  0
  9 35  1  0
 12 36  1  0
 15 37  1  0
 17 38  1  0
 19 39  1  0
 20 40  1  0
 21 41  1  0
 27 42  1  0
M  END
>  <smiles>  (100) 
O=C(CCCOc1ccc(Cl)cc1Cl)NN=Cc1cccc(C(F)(F)F)c1

>  <score_type>  (100) 
oracle

>  <origin>  (100) 
autodockgpu

>  <m_score__min__energy>  (100) 
-7.79

>  <m_primary>  (100) 
energy

>  <rmsd>  (100) 
9.811682983804712

>  <m_score__min__rmsd>  (100) 
9.811682983804712

>  <meeko>  (100) 
{"free_energy": -6.21, "intermolecular_energy": -8.9, "internal_energy": -2.06, "cluster_size": 10, "cluster_id": 4, "rank_in_cluster": 8}

>  <energy>  (100) 
-4.9

>  <cluster_rmsd>  (100) 
0.0

>  <cluster>  (100) 
12

$$$$
