@<TRIPOS>MOLECULE
*****
 63 67 0 0 0
SMALL
GASTEIGER

@<TRIPOS>ATOM
      1 O         139.6180   70.9010  220.9410 O.2     1  UNL1       -0.2685
      2 C         140.1290   71.4310  221.9600 C.2     1  UNL1        0.2628
      3 N         140.8390   72.6700  221.9240 N.am    1  UNL1       -0.3015
      4 C         141.0010   73.3950  220.6360 C.3     1  UNL1        0.0887
      5 C         141.5230   74.7300  220.8660 C.2     1  UNL1        0.2334
      6 O         141.4470   75.1440  222.1000 O.2     1  UNL1       -0.2739
      7 N         142.0980   75.6560  219.9910 N.am    1  UNL1       -0.2861
      8 C         143.1560   75.1570  219.0320 C.3     1  UNL1        0.0416
      9 C         142.8010   75.9210  217.7600 C.3     1  UNL1        0.0731
     10 O         143.9610   76.5200  217.2820 O.3     1  UNL1       -0.3902
     11 C         141.7660   76.9600  218.1570 C.3     1  UNL1        0.0019
     12 C         142.0250   77.0290  219.6640 C.3     1  UNL1        0.1050
     13 C         141.1110   77.9200  220.3410 C.2     1  UNL1        0.2378
     14 O         140.2960   78.7300  219.8740 O.2     1  UNL1       -0.2734
     15 N         141.1350   77.8740  221.7980 N.am    1  UNL1       -0.2840
     16 C         140.2290   78.7560  222.4710 C.ar    1  UNL1        0.0335
     17 C         138.9020   78.4200  222.6460 C.ar    1  UNL1       -0.0399
     18 C         138.0480   79.3050  223.3080 C.ar    1  UNL1       -0.0523
     19 C         138.5390   80.5230  223.7890 C.ar    1  UNL1       -0.0178
     20 C         137.6820   81.4760  224.4850 C.ar    1  UNL1       -0.0179
     21 C         137.1870   82.6090  223.8300 C.ar    1  UNL1       -0.0540
     22 C         136.3900   83.4820  224.5010 C.ar    1  UNL1       -0.0612
     23 C         136.0260   83.3100  225.8400 C.ar    1  UNL1       -0.0617
     24 C         136.5120   82.1920  226.4850 C.ar    1  UNL1       -0.0612
     25 C         137.3290   81.2850  225.8250 C.ar    1  UNL1       -0.0540
     26 C         139.8670   80.8500  223.6090 C.ar    1  UNL1       -0.0523
     27 C         140.6940   79.9590  222.9520 C.ar    1  UNL1       -0.0399
     28 C         139.9970   70.7550  223.2540 C.ar    1  UNL1        0.1260
     29 C         139.3070   69.5590  223.3520 C.ar    1  UNL1       -0.0306
     30 C         139.1470   68.8730  224.5330 C.ar    1  UNL1       -0.0503
     31 C         139.7140   69.4300  225.6680 C.ar    1  UNL1        0.0031
     32 C         139.5460   68.7330  226.8450 C.ar    1  UNL1       -0.0173
     33 C         140.0920   69.2500  227.9890 C.ar    1  UNL1        0.1241
     34 F         139.9480   68.5880  229.1820 F       1  UNL1       -0.2055
     35 C         140.7800   70.4330  227.9190 C.ar    1  UNL1       -0.0244
     36 C         140.9550   71.1430  226.7370 C.ar    1  UNL1       -0.0330
     37 C         140.4040   70.6200  225.5860 C.ar    1  UNL1        0.0720
     38 N         140.5240   71.2440  224.3880 N.ar    1  UNL1       -0.2421
     39 H         141.2310   73.0400  222.8120 H       1  UNL1        0.1496
     40 H         141.6993   72.8391  219.9931 H       1  UNL1        0.0558
     41 H         140.0187   73.4764  220.1477 H       1  UNL1        0.0558
     42 H         144.1674   75.4096  219.3830 H       1  UNL1        0.0490
     43 H         143.1691   74.0640  218.9089 H       1  UNL1        0.0490
     44 H         142.3945   75.2742  216.9686 H       1  UNL1        0.0610
     45 H         144.7730   75.9990  217.4990 H       1  UNL1        0.2098
     46 H         141.9493   77.9273  217.6664 H       1  UNL1        0.0313
     47 H         140.7313   76.7152  217.8750 H       1  UNL1        0.0313
     48 H         142.9454   77.5197  220.0132 H       1  UNL1        0.0598
     49 H         141.7820   77.2290  222.3010 H       1  UNL1        0.1549
     50 H         138.5192   77.4611  222.2665 H       1  UNL1        0.0636
     51 H         136.9890   79.0440  223.4511 H       1  UNL1        0.0624
     52 H         137.4419   82.7926  222.7758 H       1  UNL1        0.0624
     53 H         136.0135   84.3658  223.9652 H       1  UNL1        0.0618
     54 H         135.3799   84.0350  226.3566 H       1  UNL1        0.0618
     55 H         136.2480   82.0166  227.5384 H       1  UNL1        0.0618
     56 H         137.7047   80.4026  226.3637 H       1  UNL1        0.0624
     57 H         140.2619   81.8061  223.9830 H       1  UNL1        0.0624
     58 H         141.7534   80.2183  222.8094 H       1  UNL1        0.0636
     59 H         138.8640   69.1357  222.4385 H       1  UNL1        0.0641
     60 H         138.5931   67.9236  224.5749 H       1  UNL1        0.0625
     61 H         138.9875   67.7855  226.8647 H       1  UNL1        0.0653
     62 H         141.2150   70.8406  228.8434 H       1  UNL1        0.0647
     63 H         141.5141   72.0901  226.7202 H       1  UNL1        0.0640
@<TRIPOS>BOND
     1     1     2    2
     2     2     3   am
     3     3     4    1
     4     4     5    1
     5     5     6    2
     6     5     7   am
     7     7     8    1
     8     8     9    1
     9     9    10    1
    10     9    11    1
    11    11    12    1
    12    12    13    1
    13    13    14    2
    14    13    15   am
    15    15    16    1
    16    16    17   ar
    17    17    18   ar
    18    18    19   ar
    19    19    20    1
    20    20    21   ar
    21    21    22   ar
    22    22    23   ar
    23    23    24   ar
    24    24    25   ar
    25    19    26   ar
    26    26    27   ar
    27     2    28    1
    28    28    29   ar
    29    29    30   ar
    30    30    31   ar
    31    31    32   ar
    32    32    33   ar
    33    33    34    1
    34    33    35   ar
    35    35    36   ar
    36    36    37   ar
    37    37    38   ar
    38    12     7    1
    39    27    16   ar
    40    38    28   ar
    41    25    20   ar
    42    37    31   ar
    43     3    39    1
    44     4    40    1
    45     4    41    1
    46     8    42    1
    47     8    43    1
    48     9    44    1
    49    10    45    1
    50    11    46    1
    51    11    47    1
    52    12    48    1
    53    15    49    1
    54    17    50    1
    55    18    51    1
    56    21    52    1
    57    22    53    1
    58    23    54    1
    59    24    55    1
    60    25    56    1
    61    26    57    1
    62    27    58    1
    63    29    59    1
    64    30    60    1
    65    32    61    1
    66    35    62    1
    67    36    63    1
