@<TRIPOS>MOLECULE
*****
 67 72 0 0 0
SMALL
GASTEIGER

@<TRIPOS>ATOM
      1 N         146.4030   69.3590  217.4210 N.3     1  UNL1       -0.1932
      2 S         146.1930   70.0630  218.9620 S.O2    1  UNL1        0.0945
      3 O         145.1470   69.2390  219.7000 O.2     1  UNL1       -0.1413
      4 O         147.4310   69.9800  219.7740 O.2     1  UNL1       -0.1413
      5 N         145.5630   71.6670  218.8910 N.3     1  UNL1       -0.1668
      6 C         144.1280   71.6560  218.8420 C.3     1  UNL1        0.0222
      7 C         143.6820   73.0940  218.5840 C.3     1  UNL1       -0.0287
      8 C         144.0290   73.9200  219.7740 C.3     1  UNL1        0.0216
      9 C         142.7940   74.2080  220.5530 C.ar    1  UNL1        0.1394
     10 N         142.1420   73.1950  221.1200 N.ar    1  UNL1       -0.1990
     11 C         141.0010   73.3470  221.8560 C.ar    1  UNL1        0.2227
     12 N         140.3380   72.2340  222.4460 N.pl3   1  UNL1       -0.2949
     13 C         139.3650   71.5290  221.6600 C.3     1  UNL1        0.0192
     14 C         138.4010   70.6810  222.3750 C.3     1  UNL1       -0.0115
     15 C         138.8240   70.1840  223.6810 C.ar    1  UNL1       -0.0412
     16 C         138.1090   69.1200  224.2290 C.ar    1  UNL1       -0.0582
     17 C         138.4740   68.6220  225.4580 C.ar    1  UNL1       -0.0615
     18 C         139.5430   69.1850  226.1250 C.ar    1  UNL1       -0.0614
     19 C         140.2510   70.2510  225.5630 C.ar    1  UNL1       -0.0568
     20 C         139.8940   70.7620  224.3280 C.ar    1  UNL1       -0.0269
     21 C         140.6830   71.8850  223.8000 C.3     1  UNL1        0.0402
     22 N         140.5510   74.5960  221.9860 N.ar    1  UNL1       -0.1808
     23 C         141.1790   75.6440  221.4310 C.ar    1  UNL1        0.2227
     24 N         140.6740   76.9590  221.5910 N.pl3   1  UNL1       -0.2949
     25 C         140.1320   77.6870  220.4620 C.3     1  UNL1        0.0192
     26 C         139.4740   78.9670  220.9330 C.3     1  UNL1       -0.0115
     27 C         140.4830   79.6980  221.7420 C.ar    1  UNL1       -0.0412
     28 C         140.8170   81.0150  221.5380 C.ar    1  UNL1       -0.0582
     29 C         141.7590   81.6130  222.3340 C.ar    1  UNL1       -0.0615
     30 C         142.4100   80.9310  223.3640 C.ar    1  UNL1       -0.0614
     31 C         142.0740   79.5960  223.5720 C.ar    1  UNL1       -0.0568
     32 C         141.1250   79.0140  222.7630 C.ar    1  UNL1       -0.0269
     33 C         140.7100   77.5760  222.9270 C.3     1  UNL1        0.0402
     34 N         142.3000   75.4500  220.7130 N.ar    1  UNL1       -0.1990
     35 C         145.0430   73.2620  220.6810 C.3     1  UNL1       -0.0287
     36 C         146.1030   72.5210  219.8990 C.3     1  UNL1        0.0222
     37 H         145.8020   68.5350  217.3010 H       1  UNL1        0.1453
     38 H         147.4090   69.1410  217.2930 H       1  UNL1        0.1453
     39 H         143.7823   71.0010  218.0287 H       1  UNL1        0.0444
     40 H         143.7047   71.2753  219.7832 H       1  UNL1        0.0444
     41 H         144.1978   73.4883  217.6960 H       1  UNL1        0.0285
     42 H         142.5965   73.1250  218.4086 H       1  UNL1        0.0285
     43 H         144.4850   74.8470  219.3961 H       1  UNL1        0.0380
     44 H         138.7901   72.2790  221.0970 H       1  UNL1        0.0468
     45 H         139.9529   70.8298  221.0472 H       1  UNL1        0.0468
     46 H         137.4818   71.2673  222.5207 H       1  UNL1        0.0328
     47 H         138.2732   69.7869  221.7471 H       1  UNL1        0.0328
     48 H         137.2601   68.6825  223.6831 H       1  UNL1        0.0620
     49 H         137.9195   67.7835  225.9047 H       1  UNL1        0.0618
     50 H         139.8406   68.7911  227.1080 H       1  UNL1        0.0618
     51 H         141.1006   70.6880  226.1082 H       1  UNL1        0.0621
     52 H         140.5141   72.7628  224.4411 H       1  UNL1        0.0514
     53 H         141.7373   71.5713  223.7981 H       1  UNL1        0.0514
     54 H         140.9454   77.9323  219.7633 H       1  UNL1        0.0468
     55 H         139.3806   77.0611  219.9583 H       1  UNL1        0.0468
     56 H         139.1687   79.5756  220.0690 H       1  UNL1        0.0328
     57 H         138.5737   78.7516  221.5272 H       1  UNL1        0.0328
     58 H         140.3289   81.5890  220.7366 H       1  UNL1        0.0620
     59 H         142.0114   82.6686  222.1549 H       1  UNL1        0.0618
     60 H         143.1631   81.4318  223.9901 H       1  UNL1        0.0618
     61 H         142.5595   79.0156  224.3704 H       1  UNL1        0.0621
     62 H         141.4359   77.0480  223.5628 H       1  UNL1        0.0514
     63 H         139.7203   77.5153  223.4033 H       1  UNL1        0.0514
     64 H         145.5288   74.0368  221.2922 H       1  UNL1        0.0285
     65 H         144.5132   72.5330  221.3117 H       1  UNL1        0.0285
     66 H         146.7614   73.2585  219.4167 H       1  UNL1        0.0444
     67 H         146.6485   71.8834  220.6102 H       1  UNL1        0.0444
@<TRIPOS>BOND
     1     1     2    1
     2     2     3    2
     3     2     4    2
     4     2     5    1
     5     5     6    1
     6     6     7    1
     7     7     8    1
     8     8     9    1
     9     9    10   ar
    10    10    11   ar
    11    11    12    1
    12    12    13    1
    13    13    14    1
    14    14    15    1
    15    15    16   ar
    16    16    17   ar
    17    17    18   ar
    18    18    19   ar
    19    19    20   ar
    20    20    21    1
    21    11    22   ar
    22    22    23   ar
    23    23    24    1
    24    24    25    1
    25    25    26    1
    26    26    27    1
    27    27    28   ar
    28    28    29   ar
    29    29    30   ar
    30    30    31   ar
    31    31    32   ar
    32    32    33    1
    33    23    34   ar
    34     8    35    1
    35    35    36    1
    36    36     5    1
    37    34     9   ar
    38    21    12    1
    39    33    24    1
    40    20    15   ar
    41    32    27   ar
    42     1    37    1
    43     1    38    1
    44     6    39    1
    45     6    40    1
    46     7    41    1
    47     7    42    1
    48     8    43    1
    49    13    44    1
    50    13    45    1
    51    14    46    1
    52    14    47    1
    53    16    48    1
    54    17    49    1
    55    18    50    1
    56    19    51    1
    57    21    52    1
    58    21    53    1
    59    25    54    1
    60    25    55    1
    61    26    56    1
    62    26    57    1
    63    28    58    1
    64    29    59    1
    65    30    60    1
    66    31    61    1
    67    33    62    1
    68    33    63    1
    69    35    64    1
    70    35    65    1
    71    36    66    1
    72    36    67    1
