@<TRIPOS>MOLECULE
*****
 56 59 0 0 0
SMALL
GASTEIGER

@<TRIPOS>ATOM
      1 O         140.2820   71.0280  221.3150 O.2     1  UNL1       -0.2685
      2 C         140.0910   71.5520  222.4260 C.2     1  UNL1        0.2628
      3 N         139.9740   72.9910  222.5820 N.am    1  UNL1       -0.3015
      4 C         140.0870   73.7750  221.4060 C.3     1  UNL1        0.0887
      5 C         140.1580   75.2150  221.5050 C.2     1  UNL1        0.2330
      6 O         139.9490   75.6720  222.7160 O.2     1  UNL1       -0.2739
      7 N         140.4080   76.2130  220.5560 N.am    1  UNL1       -0.2959
      8 C         139.7890   76.3480  219.2470 C.3     1  UNL1        0.0151
      9 C         140.7960   76.3140  218.1430 C.3     1  UNL1       -0.0371
     10 C         142.2110   76.3140  218.6020 C.3     1  UNL1       -0.0499
     11 C         142.5440   76.9570  219.8820 C.3     1  UNL1       -0.0331
     12 C         141.4220   77.2290  220.8400 C.3     1  UNL1        0.0387
     13 C         140.9900   78.6370  220.6900 C.3     1  UNL1        0.0175
     14 N         141.9110   79.4270  221.5290 N.3     1  UNL1       -0.3006
     15 C         142.0650   78.9150  222.8420 C.3     1  UNL1       -0.0010
     16 C         141.9190   80.0630  223.8120 C.3     1  UNL1       -0.0390
     17 C         141.7660   81.2980  222.9750 C.3     1  UNL1       -0.0390
     18 C         141.5410   80.7990  221.5770 C.3     1  UNL1       -0.0010
     19 C         139.9730   70.7470  223.6350 C.ar    1  UNL1        0.1260
     20 C         139.3690   69.5000  223.5550 C.ar    1  UNL1       -0.0306
     21 C         139.2290   68.6890  224.6860 C.ar    1  UNL1       -0.0504
     22 C         139.7020   69.1410  225.9030 C.ar    1  UNL1        0.0004
     23 C         139.6170   68.4320  227.0710 C.ar    1  UNL1       -0.0526
     24 C         140.1180   68.9530  228.2650 C.ar    1  UNL1       -0.0611
     25 C         140.7170   70.2080  228.3040 C.ar    1  UNL1       -0.0597
     26 C         140.7960   70.9140  227.1160 C.ar    1  UNL1       -0.0357
     27 C         140.2930   70.3780  225.9440 C.ar    1  UNL1        0.0718
     28 N         140.4220   71.1540  224.8350 N.ar    1  UNL1       -0.2421
     29 H         139.8160   73.3920  223.5330 H       1  UNL1        0.1496
     30 H         141.0016   73.4460  220.8910 H       1  UNL1        0.0558
     31 H         139.1297   73.6024  220.8924 H       1  UNL1        0.0558
     32 H         139.0777   75.5212  219.1040 H       1  UNL1        0.0465
     33 H         139.2802   77.3226  219.2116 H       1  UNL1        0.0465
     34 H         140.6265   75.4028  217.5506 H       1  UNL1        0.0280
     35 H         140.6548   77.2365  217.5606 H       1  UNL1        0.0280
     36 H         142.5256   75.2627  218.6776 H       1  UNL1        0.0266
     37 H         142.7317   76.9294  217.8536 H       1  UNL1        0.0266
     38 H         143.2658   76.3068  220.3980 H       1  UNL1        0.0284
     39 H         142.9181   77.9531  219.6030 H       1  UNL1        0.0284
     40 H         141.6916   77.1431  221.9030 H       1  UNL1        0.0513
     41 H         141.0637   78.9511  219.6384 H       1  UNL1        0.0445
     42 H         139.9422   78.7755  220.9948 H       1  UNL1        0.0445
     43 H         141.2917   78.1583  223.0404 H       1  UNL1        0.0426
     44 H         143.0525   78.4437  222.9544 H       1  UNL1        0.0426
     45 H         141.0307   79.9179  224.4443 H       1  UNL1        0.0278
     46 H         142.7888   80.1365  224.4814 H       1  UNL1        0.0278
     47 H         140.9049   81.8913  223.3163 H       1  UNL1        0.0278
     48 H         142.6477   81.9523  223.0417 H       1  UNL1        0.0278
     49 H         140.4796   80.9078  221.3093 H       1  UNL1        0.0426
     50 H         142.1451   81.3801  220.8648 H       1  UNL1        0.0426
     51 H         138.9936   69.1430  222.5846 H       1  UNL1        0.0641
     52 H         138.7480   67.7029  224.6075 H       1  UNL1        0.0625
     53 H         139.1471   67.4374  227.0685 H       1  UNL1        0.0624
     54 H         140.0380   68.3622  229.1894 H       1  UNL1        0.0618
     55 H         141.1126   70.6233  229.2427 H       1  UNL1        0.0618
     56 H         141.2628   71.9100  227.1037 H       1  UNL1        0.0639
@<TRIPOS>BOND
     1     1     2    2
     2     2     3   am
     3     3     4    1
     4     4     5    1
     5     5     6    2
     6     5     7   am
     7     7     8    1
     8     8     9    1
     9     9    10    1
    10    10    11    1
    11    11    12    1
    12    12    13    1
    13    13    14    1
    14    14    15    1
    15    15    16    1
    16    16    17    1
    17    17    18    1
    18     2    19    1
    19    19    20   ar
    20    20    21   ar
    21    21    22   ar
    22    22    23   ar
    23    23    24   ar
    24    24    25   ar
    25    25    26   ar
    26    26    27   ar
    27    27    28   ar
    28    12     7    1
    29    18    14    1
    30    28    19   ar
    31    27    22   ar
    32     3    29    1
    33     4    30    1
    34     4    31    1
    35     8    32    1
    36     8    33    1
    37     9    34    1
    38     9    35    1
    39    10    36    1
    40    10    37    1
    41    11    38    1
    42    11    39    1
    43    12    40    1
    44    13    41    1
    45    13    42    1
    46    15    43    1
    47    15    44    1
    48    16    45    1
    49    16    46    1
    50    17    47    1
    51    17    48    1
    52    18    49    1
    53    18    50    1
    54    20    51    1
    55    21    52    1
    56    23    53    1
    57    24    54    1
    58    25    55    1
    59    26    56    1
