
     RDKit          3D

 79 85  0  0  1  0  0  0  0  0999 V2000
  138.2700   80.5350  224.4690 C   0  0  0  0  0  0  0  0  0  0  0  0
  137.9150   80.4460  223.0360 C   0  0  0  0  0  0  0  0  0  0  0  0
  138.5410   81.2960  222.1240 C   0  0  0  0  0  0  0  0  0  0  0  0
  138.1740   81.1740  220.7990 C   0  0  0  0  0  0  0  0  0  0  0  0
  137.2600   80.2900  220.3640 N   0  0  0  0  0  0  0  0  0  0  0  0
  136.6720   79.4830  221.2740 C   0  0  0  0  0  0  0  0  0  0  0  0
  135.7100   78.5630  220.7760 N   0  0  0  0  0  0  0  0  0  0  0  0
  134.3220   78.7030  221.1710 C   0  0  0  0  0  0  0  0  0  0  0  0
  133.9890   77.4990  222.0130 C   0  0  0  0  0  0  0  0  0  0  0  0
  134.9530   76.3620  221.8340 C   0  0  0  0  0  0  0  0  0  0  0  0
  135.3310   76.2320  220.3720 C   0  0  2  0  0  0  0  0  0  0  0  0
  136.1840   75.0960  220.1370 N   0  0  0  0  0  0  0  0  0  0  0  0
  137.4430   74.9040  220.7680 C   0  0  0  0  0  0  0  0  0  0  0  0
  137.7980   73.7610  221.3800 N   0  0  0  0  0  0  0  0  0  0  0  0
  139.0190   73.6650  221.9560 C   0  0  0  0  0  0  0  0  0  0  0  0
  139.3880   72.4640  222.6010 N   0  0  0  0  0  0  0  0  0  0  0  0
  140.7310   72.2350  223.1200 C   0  0  0  0  0  0  0  0  0  0  0  0
  140.6870   71.7750  224.5600 C   0  0  0  0  0  0  0  0  0  0  0  0
  139.6300   70.7920  224.7670 N   0  0  0  0  0  0  0  0  0  0  0  0
  139.9220   69.5580  225.4050 C   0  0  0  0  0  0  0  0  0  0  0  0
  140.7450   69.4290  226.4960 C   0  0  0  0  0  0  0  0  0  0  0  0
  141.0190   68.2100  227.1040 C   0  0  0  0  0  0  0  0  0  0  0  0
  140.4280   67.0870  226.5730 C   0  0  0  0  0  0  0  0  0  0  0  0
  139.6120   67.2540  225.4840 C   0  0  0  0  0  0  0  0  0  0  0  0
  139.3650   68.4350  224.9190 N   0  0  0  0  0  0  0  0  0  0  0  0
  138.3120   71.1650  224.2920 C   0  0  0  0  0  0  0  0  0  0  0  0
  138.4410   71.3740  222.7790 C   0  0  0  0  0  0  0  0  0  0  0  0
  139.8990   74.6840  221.9350 N   0  0  0  0  0  0  0  0  0  0  0  0
  139.5610   75.8340  221.3270 C   0  0  0  0  0  0  0  0  0  0  0  0
  140.4380   76.9570  221.2570 N   0  0  0  0  0  0  0  0  0  0  0  0
  140.6020   77.6380  219.9930 C   0  0  0  0  0  0  0  0  0  0  0  0
  141.2820   78.9520  220.0510 C   0  0  0  0  0  0  0  0  0  0  0  0
  141.4350   79.5450  221.3860 C   0  0  0  0  0  0  0  0  0  0  0  0
  141.6590   80.9270  221.4430 C   0  0  0  0  0  0  0  0  0  0  0  0
  141.8040   81.4840  222.6850 C   0  0  0  0  0  0  0  0  0  0  0  0
  141.7420   80.7630  223.8590 C   0  0  0  0  0  0  0  0  0  0  0  0
  141.5180   79.3920  223.7830 C   0  0  0  0  0  0  0  0  0  0  0  0
  141.3710   78.8170  222.5470 C   0  0  0  0  0  0  0  0  0  0  0  0
  141.1340   77.3700  222.4590 C   0  0  0  0  0  0  0  0  0  0  0  0
  138.3470   75.8960  220.7680 N   0  0  0  0  0  0  0  0  0  0  0  0
  136.0560   77.4670  219.8750 C   0  0  0  0  0  0  0  0  0  0  0  0
  137.0030   79.5700  222.5730 N   0  0  0  0  0  0  0  0  0  0  0  0
  137.3833   80.3127  225.0809 H   0  0  0  0  0  0  0  0  0  0  0  0
  139.0638   79.8081  224.6959 H   0  0  0  0  0  0  0  0  0  0  0  0
  138.6269   81.5504  224.6959 H   0  0  0  0  0  0  0  0  0  0  0  0
  139.2935   82.0307  222.4464 H   0  0  0  0  0  0  0  0  0  0  0  0
  138.6541   81.8340  220.0615 H   0  0  0  0  0  0  0  0  0  0  0  0
  134.1852   79.6245  221.7560 H   0  0  0  0  0  0  0  0  0  0  0  0
  133.6643   78.7654  220.2915 H   0  0  0  0  0  0  0  0  0  0  0  0
  133.9973   77.8001  223.0710 H   0  0  0  0  0  0  0  0  0  0  0  0
  133.0002   77.1405  221.6909 H   0  0  0  0  0  0  0  0  0  0  0  0
  135.8580   76.5539  222.4291 H   0  0  0  0  0  0  0  0  0  0  0  0
  134.4784   75.4283  222.1699 H   0  0  0  0  0  0  0  0  0  0  0  0
  134.3846   76.1035  219.8263 H   0  0  0  0  0  0  0  0  0  0  0  0
  135.8400   74.3770  219.4590 H   0  0  0  0  0  0  0  0  0  0  0  0
  141.2247   71.4632  222.5112 H   0  0  0  0  0  0  0  0  0  0  0  0
  141.2901   73.1811  223.0723 H   0  0  0  0  0  0  0  0  0  0  0  0
  141.6546   71.3221  224.8218 H   0  0  0  0  0  0  0  0  0  0  0  0
  140.4818   72.6470  225.1983 H   0  0  0  0  0  0  0  0  0  0  0  0
  141.2107   70.3357  226.9095 H   0  0  0  0  0  0  0  0  0  0  0  0
  141.6840   68.1453  227.9778 H   0  0  0  0  0  0  0  0  0  0  0  0
  140.6037   66.0913  227.0063 H   0  0  0  0  0  0  0  0  0  0  0  0
  139.1341   66.3623  225.0522 H   0  0  0  0  0  0  0  0  0  0  0  0
  137.5897   70.3632  224.5052 H   0  0  0  0  0  0  0  0  0  0  0  0
  137.9510   72.0763  224.7913 H   0  0  0  0  0  0  0  0  0  0  0  0
  138.8173   70.4591  222.2981 H   0  0  0  0  0  0  0  0  0  0  0  0
  137.4684   71.6082  222.3216 H   0  0  0  0  0  0  0  0  0  0  0  0
  141.1884   76.9838  219.3310 H   0  0  0  0  0  0  0  0  0  0  0  0
  139.5839   77.8448  219.6315 H   0  0  0  0  0  0  0  0  0  0  0  0
  142.2871   78.8289  219.6213 H   0  0  0  0  0  0  0  0  0  0  0  0
  140.6329   79.6440  219.4943 H   0  0  0  0  0  0  0  0  0  0  0  0
  141.7158   81.5376  220.5298 H   0  0  0  0  0  0  0  0  0  0  0  0
  141.9799   82.5679  222.7503 H   0  0  0  0  0  0  0  0  0  0  0  0
  141.8667   81.2601  224.8323 H   0  0  0  0  0  0  0  0  0  0  0  0
  141.4600   78.7815  224.6962 H   0  0  0  0  0  0  0  0  0  0  0  0
  142.1072   76.8581  222.4880 H   0  0  0  0  0  0  0  0  0  0  0  0
  140.4878   77.1020  223.3079 H   0  0  0  0  0  0  0  0  0  0  0  0
  137.1427   77.2970  219.8883 H   0  0  0  0  0  0  0  0  0  0  0  0
  135.7616   77.7032  218.8418 H   0  0  0  0  0  0  0  0  0  0  0  0
  1  2  1  0
  2  3  2  0
  3  4  1  0
  4  5  2  0
  5  6  1  0
  6  7  1  0
  7  8  1  0
  8  9  1  0
  9 10  1  0
 10 11  1  0
 11 12  1  0
 12 13  1  0
 13 14  2  0
 14 15  1  0
 15 16  1  0
 16 17  1  0
 17 18  1  0
 18 19  1  0
 19 20  1  0
 20 21  2  0
 21 22  1  0
 22 23  2  0
 23 24  1  0
 24 25  2  0
 19 26  1  0
 26 27  1  0
 15 28  2  0
 28 29  1  0
 29 30  1  0
 30 31  1  0
 31 32  1  0
 32 33  1  0
 33 34  2  0
 34 35  1  0
 35 36  2  0
 36 37  1  0
 37 38  2  0
 38 39  1  0
 29 40  2  0
 11 41  1  0
  6 42  2  0
 42  2  1  0
 41  7  1  0
 40 13  1  0
 27 16  1  0
 39 30  1  0
 25 20  1  0
 38 33  1  0
  1 43  1  0
  1 44  1  0
  1 45  1  0
  3 46  1  0
  4 47  1  0
  8 48  1  0
  8 49  1  0
  9 50  1  0
  9 51  1  0
 10 52  1  0
 10 53  1  0
 11 54  1  6
 12 55  1  0
 17 56  1  0
 17 57  1  0
 18 58  1  0
 18 59  1  0
 21 60  1  0
 22 61  1  0
 23 62  1  0
 24 63  1  0
 26 64  1  0
 26 65  1  0
 27 66  1  0
 27 67  1  0
 31 68  1  0
 31 69  1  0
 32 70  1  0
 32 71  1  0
 34 72  1  0
 35 73  1  0
 36 74  1  0
 37 75  1  0
 39 76  1  0
 39 77  1  0
 41 78  1  0
 41 79  1  0
M  END
