@<TRIPOS>MOLECULE
*****
 61 64 0 0 0
SMALL
GASTEIGER

@<TRIPOS>ATOM
      1 C         143.0050   80.3970  223.3910 C.3     1  UNL1       -0.0423
      2 C         142.2220   80.0590  222.1860 C.3     1  UNL1        0.0481
      3 C         141.2250   81.1310  221.8800 C.ar    1  UNL1       -0.0273
      4 C         139.9800   81.0860  222.5260 C.ar    1  UNL1       -0.0568
      5 C         139.0160   82.0360  222.3330 C.ar    1  UNL1       -0.0614
      6 C         139.2390   83.0940  221.4760 C.ar    1  UNL1       -0.0617
      7 C         140.4440   83.1530  220.8400 C.ar    1  UNL1       -0.0614
      8 C         141.4280   82.1820  221.0400 C.ar    1  UNL1       -0.0568
      9 N         141.7860   78.7260  222.0020 N.am    1  UNL1       -0.2962
     10 C         141.4560   77.9680  223.2510 C.3     1  UNL1        0.0038
     11 C         141.6150   77.9970  220.8190 C.2     1  UNL1        0.2363
     12 O         142.5730   77.2020  220.4420 O.2     1  UNL1       -0.2735
     13 C         140.4610   77.9830  219.8890 C.3     1  UNL1        0.1024
     14 C         140.2080   79.2900  219.2300 C.3     1  UNL1       -0.0243
     15 C         138.6960   79.4150  219.2000 C.3     1  UNL1       -0.0350
     16 C         138.3470   78.8680  220.6140 C.3     1  UNL1        0.0156
     17 N         139.2670   77.7570  220.7410 N.am    1  UNL1       -0.2886
     18 C         139.1710   76.5720  221.5210 C.2     1  UNL1        0.2334
     19 O         138.7490   76.6950  222.7500 O.2     1  UNL1       -0.2739
     20 C         139.4880   75.2030  221.1450 C.3     1  UNL1        0.0887
     21 N         139.5580   74.2050  222.1400 N.am    1  UNL1       -0.3015
     22 C         139.8750   72.8260  221.8590 C.2     1  UNL1        0.2628
     23 O         140.1030   72.4450  220.6620 O.2     1  UNL1       -0.2685
     24 C         139.9350   71.8590  222.9590 C.ar    1  UNL1        0.1260
     25 C         139.4750   70.5790  222.7510 C.ar    1  UNL1       -0.0306
     26 C         139.5140   69.6300  223.7700 C.ar    1  UNL1       -0.0504
     27 C         140.0260   70.0170  224.9910 C.ar    1  UNL1        0.0018
     28 C         140.1130   69.1700  226.0650 C.ar    1  UNL1       -0.0342
     29 C         140.6290   69.5590  227.2930 C.ar    1  UNL1        0.0417
     30 CL        140.7270   68.4470  228.6490 Cl      1  UNL1       -0.0835
     31 C         141.0700   70.8700  227.4190 C.ar    1  UNL1       -0.0413
     32 C         140.9920   71.7350  226.3540 C.ar    1  UNL1       -0.0343
     33 C         140.4760   71.3210  225.1470 C.ar    1  UNL1        0.0719
     34 N         140.4300   72.2160  224.1550 N.ar    1  UNL1       -0.2421
     35 H         142.4223   80.1455  224.2894 H       1  UNL1        0.0251
     36 H         143.9440   79.8241  223.3907 H       1  UNL1        0.0251
     37 H         143.2321   81.4733  223.3907 H       1  UNL1        0.0251
     38 H         142.9680   80.0534  221.3777 H       1  UNL1        0.0547
     39 H         139.7716   80.2538  223.2145 H       1  UNL1        0.0621
     40 H         138.0562   81.9563  222.8645 H       1  UNL1        0.0618
     41 H         138.4708   83.8639  221.3113 H       1  UNL1        0.0618
     42 H         140.6462   83.9869  220.1517 H       1  UNL1        0.0618
     43 H         142.3866   82.2688  220.5075 H       1  UNL1        0.0621
     44 H         141.7204   78.5754  224.1292 H       1  UNL1        0.0429
     45 H         140.3791   77.7445  223.2706 H       1  UNL1        0.0429
     46 H         142.0261   77.0275  223.2706 H       1  UNL1        0.0429
     47 H         140.6618   77.2290  219.1137 H       1  UNL1        0.0597
     48 H         140.6544   80.1108  219.8105 H       1  UNL1        0.0288
     49 H         140.6518   79.3442  218.2250 H       1  UNL1        0.0288
     50 H         138.3759   80.4602  219.0770 H       1  UNL1        0.0281
     51 H         138.2057   78.8889  218.3676 H       1  UNL1        0.0281
     52 H         138.5253   79.6258  221.3912 H       1  UNL1        0.0465
     53 H         137.2905   78.5855  220.7325 H       1  UNL1        0.0465
     54 H         138.7198   74.8834  220.4255 H       1  UNL1        0.0558
     55 H         140.5219   75.2707  220.7757 H       1  UNL1        0.0558
     56 H         139.3780   74.4190  223.1640 H       1  UNL1        0.1496
     57 H         139.0708   70.3012  221.7664 H       1  UNL1        0.0641
     58 H         139.1485   68.6055  223.6063 H       1  UNL1        0.0625
     59 H         139.7579   68.1355  225.9483 H       1  UNL1        0.0639
     60 H         141.4841   71.2179  228.3768 H       1  UNL1        0.0633
     61 H         141.3461   72.7703  226.4675 H       1  UNL1        0.0639
@<TRIPOS>BOND
     1     1     2    1
     2     2     3    1
     3     3     4   ar
     4     4     5   ar
     5     5     6   ar
     6     6     7   ar
     7     7     8   ar
     8     2     9    1
     9     9    10    1
    10     9    11   am
    11    11    12    2
    12    11    13    1
    13    13    14    1
    14    14    15    1
    15    15    16    1
    16    16    17    1
    17    17    18   am
    18    18    19    2
    19    18    20    1
    20    20    21    1
    21    21    22   am
    22    22    23    2
    23    22    24    1
    24    24    25   ar
    25    25    26   ar
    26    26    27   ar
    27    27    28   ar
    28    28    29   ar
    29    29    30    1
    30    29    31   ar
    31    31    32   ar
    32    32    33   ar
    33    33    34   ar
    34     8     3   ar
    35    17    13    1
    36    34    24   ar
    37    33    27   ar
    38     1    35    1
    39     1    36    1
    40     1    37    1
    41     2    38    1
    42     4    39    1
    43     5    40    1
    44     6    41    1
    45     7    42    1
    46     8    43    1
    47    10    44    1
    48    10    45    1
    49    10    46    1
    50    13    47    1
    51    14    48    1
    52    14    49    1
    53    15    50    1
    54    15    51    1
    55    16    52    1
    56    16    53    1
    57    20    54    1
    58    20    55    1
    59    21    56    1
    60    25    57    1
    61    26    58    1
    62    28    59    1
    63    31    60    1
    64    32    61    1
