
 73 79  0  0  0  0  0  0  0  0999 V2000
  141.9560   81.3430  223.5230 C   0  0  0  0  0  0  0  0  0  0  0  0
  142.8770   80.4140  223.1140 C   0  0  0  0  0  0  0  0  0  0  0  0
  142.5330   79.0940  222.9360 C   0  0  0  0  0  0  0  0  0  0  0  0
  141.2230   78.6340  223.1620 C   0  0  0  0  0  0  0  0  0  0  0  0
  140.9980   77.3170  222.9530 O   0  0  0  0  0  0  0  0  0  0  0  0
  141.0930   76.5080  221.8320 C   0  0  0  0  0  0  0  0  0  0  0  0
  139.7900   76.3850  221.1410 C   0  0  2  0  0  0  0  0  0  0  0  0
  138.6580   77.0750  221.9220 C   0  0  0  0  0  0  0  0  0  0  0  0
  137.4450   76.4610  221.2640 C   0  0  0  0  0  0  0  0  0  0  0  0
  137.8880   75.1090  220.6980 C   0  0  0  0  0  0  0  0  0  0  0  0
  139.2490   75.0190  221.1950 N   0  0  0  0  0  0  0  0  0  0  0  0
  139.8820   73.8290  221.6340 C   0  0  0  0  0  0  0  0  0  0  0  0
  140.9110   73.3770  220.8990 N   0  0  0  0  0  0  0  0  0  0  0  0
  141.5950   72.2510  221.2170 C   0  0  0  0  0  0  0  0  0  0  0  0
  142.6850   71.7730  220.4380 N   0  0  0  0  0  0  0  0  0  0  0  0
  143.9500   72.5080  220.4710 C   0  0  0  0  0  0  0  0  0  0  0  0
  144.8600   72.1030  219.3460 C   0  0  0  0  0  0  0  0  0  0  0  0
  145.0110   70.6130  219.3680 C   0  0  0  0  0  0  0  0  0  0  0  0
  146.2420   69.9970  219.2520 C   0  0  0  0  0  0  0  0  0  0  0  0
  146.3270   68.6170  219.2790 C   0  0  0  0  0  0  0  0  0  0  0  0
  145.1940   67.8720  219.4210 C   0  0  0  0  0  0  0  0  0  0  0  0
  143.9450   68.4860  219.5390 C   0  0  0  0  0  0  0  0  0  0  0  0
  143.8590   69.8630  219.5130 C   0  0  0  0  0  0  0  0  0  0  0  0
  142.5790   70.6010  219.6310 C   0  0  0  0  0  0  0  0  0  0  0  0
  141.1930   71.5950  222.3200 N   0  0  0  0  0  0  0  0  0  0  0  0
  140.1820   72.0120  223.0700 C   0  0  0  0  0  0  0  0  0  0  0  0
  139.8100   71.2690  224.2250 N   0  0  0  0  0  0  0  0  0  0  0  0
  138.8890   70.1610  224.0690 C   0  0  0  0  0  0  0  0  0  0  0  0
  139.3860   68.8780  224.6760 C   0  0  0  0  0  0  0  0  0  0  0  0
  140.0420   69.1120  225.9840 C   0  0  0  0  0  0  0  0  0  0  0  0
  140.2290   68.0380  226.8260 C   0  0  0  0  0  0  0  0  0  0  0  0
  140.8280   68.1470  228.0600 C   0  0  0  0  0  0  0  0  0  0  0  0
  141.2480   69.4100  228.4390 C   0  0  0  0  0  0  0  0  0  0  0  0
  141.0750   70.5200  227.6120 C   0  0  0  0  0  0  0  0  0  0  0  0
  140.4680   70.3610  226.3810 C   0  0  0  0  0  0  0  0  0  0  0  0
  140.3140   71.5790  225.5480 C   0  0  0  0  0  0  0  0  0  0  0  0
  139.5300   73.1360  222.7170 N   0  0  0  0  0  0  0  0  0  0  0  0
  140.3280   79.5890  223.5690 C   0  0  0  0  0  0  0  0  0  0  0  0
  140.6680   80.9220  223.7520 C   0  0  0  0  0  0  0  0  0  0  0  0
  142.2399   82.3963  223.6640 H   0  0  0  0  0  0  0  0  0  0  0  0
  143.9132   80.7306  222.9241 H   0  0  0  0  0  0  0  0  0  0  0  0
  143.3025   78.3795  222.6084 H   0  0  0  0  0  0  0  0  0  0  0  0
  141.8263   76.9439  221.1375 H   0  0  0  0  0  0  0  0  0  0  0  0
  141.4087   75.5051  222.1554 H   0  0  0  0  0  0  0  0  0  0  0  0
  140.0114   76.7793  220.1382 H   0  0  0  0  0  0  0  0  0  0  0  0
  138.7016   76.8351  222.9946 H   0  0  0  0  0  0  0  0  0  0  0  0
  138.6864   78.1741  221.8893 H   0  0  0  0  0  0  0  0  0  0  0  0
  136.6440   76.3179  222.0042 H   0  0  0  0  0  0  0  0  0  0  0  0
  137.0534   77.1132  220.4695 H   0  0  0  0  0  0  0  0  0  0  0  0
  137.2646   74.2885  221.0829 H   0  0  0  0  0  0  0  0  0  0  0  0
  137.8041   75.0316  219.6039 H   0  0  0  0  0  0  0  0  0  0  0  0
  143.7387   73.5843  220.3882 H   0  0  0  0  0  0  0  0  0  0  0  0
  144.4555   72.2763  221.4201 H   0  0  0  0  0  0  0  0  0  0  0  0
  144.4252   72.4175  218.3858 H   0  0  0  0  0  0  0  0  0  0  0  0
  145.8427   72.5826  219.4656 H   0  0  0  0  0  0  0  0  0  0  0  0
  147.1529   70.6031  219.1384 H   0  0  0  0  0  0  0  0  0  0  0  0
  147.3050   68.1222  219.1863 H   0  0  0  0  0  0  0  0  0  0  0  0
  145.2644   66.7745  219.4429 H   0  0  0  0  0  0  0  0  0  0  0  0
  143.0364   67.8763  219.6518 H   0  0  0  0  0  0  0  0  0  0  0  0
  142.2507   70.8972  218.6238 H   0  0  0  0  0  0  0  0  0  0  0  0
  141.8554   69.9303  220.1173 H   0  0  0  0  0  0  0  0  0  0  0  0
  137.9373   70.4287  224.5514 H   0  0  0  0  0  0  0  0  0  0  0  0
  138.7744   69.9851  222.9892 H   0  0  0  0  0  0  0  0  0  0  0  0
  138.5337   68.1978  224.8206 H   0  0  0  0  0  0  0  0  0  0  0  0
  140.1276   68.4385  223.9927 H   0  0  0  0  0  0  0  0  0  0  0  0
  139.8834   67.0470  226.4966 H   0  0  0  0  0  0  0  0  0  0  0  0
  140.9663   67.2729  228.7133 H   0  0  0  0  0  0  0  0  0  0  0  0
  141.7311   69.5421  229.4184 H   0  0  0  0  0  0  0  0  0  0  0  0
  141.4188   71.5131  227.9370 H   0  0  0  0  0  0  0  0  0  0  0  0
  139.6106   72.2632  226.0452 H   0  0  0  0  0  0  0  0  0  0  0  0
  141.3053   72.0423  225.4352 H   0  0  0  0  0  0  0  0  0  0  0  0
  139.2886   79.2837  223.7601 H   0  0  0  0  0  0  0  0  0  0  0  0
  139.9051   81.6429  224.0810 H   0  0  0  0  0  0  0  0  0  0  0  0
  1  2  2  0
  2  3  1  0
  3  4  2  0
  4  5  1  0
  5  6  1  0
  6  7  1  0
  7  8  1  0
  8  9  1  0
  9 10  1  0
 10 11  1  0
 11 12  1  0
 12 13  2  0
 13 14  1  0
 14 15  1  0
 15 16  1  0
 16 17  1  0
 17 18  1  0
 18 19  2  0
 19 20  1  0
 20 21  2  0
 21 22  1  0
 22 23  2  0
 23 24  1  0
 14 25  2  0
 25 26  1  0
 26 27  1  0
 27 28  1  0
 28 29  1  0
 29 30  1  0
 30 31  2  0
 31 32  1  0
 32 33  2  0
 33 34  1  0
 34 35  2  0
 35 36  1  0
 26 37  2  0
  4 38  1  0
 38 39  2  0
 39  1  1  0
 11  7  1  0
 37 12  1  0
 24 15  1  0
 36 27  1  0
 23 18  1  0
 35 30  1  0
  1 40  1  0
  2 41  1  0
  3 42  1  0
  6 43  1  0
  6 44  1  0
  7 45  1  6
  8 46  1  0
  8 47  1  0
  9 48  1  0
  9 49  1  0
 10 50  1  0
 10 51  1  0
 16 52  1  0
 16 53  1  0
 17 54  1  0
 17 55  1  0
 19 56  1  0
 20 57  1  0
 21 58  1  0
 22 59  1  0
 24 60  1  0
 24 61  1  0
 28 62  1  0
 28 63  1  0
 29 64  1  0
 29 65  1  0
 31 66  1  0
 32 67  1  0
 33 68  1  0
 34 69  1  0
 36 70  1  0
 36 71  1  0
 38 72  1  0
 39 73  1  0
M  END
