@<TRIPOS>MOLECULE
*****
 58 61 0 0 0
SMALL
GASTEIGER

@<TRIPOS>ATOM
      1 C         142.6090   79.4920  223.4820 C.3     1  UNL1       -0.0425
      2 C         141.7820   79.7020  222.2370 C.3     1  UNL1        0.0456
      3 N         141.6850   78.5020  221.4440 N.am    1  UNL1       -0.3072
      4 C         141.1190   78.4880  220.1300 C.2     1  UNL1        0.2340
      5 O         140.6810   79.5570  219.6280 O.2     1  UNL1       -0.2738
      6 C         141.0840   77.1870  219.4300 C.3     1  UNL1        0.1023
      7 C         142.0330   77.1050  218.2760 C.3     1  UNL1       -0.0243
      8 C         143.3210   76.5730  218.8630 C.3     1  UNL1       -0.0350
      9 C         142.8400   75.6610  219.9520 C.3     1  UNL1        0.0156
     10 N         141.4710   76.0830  220.2580 N.am    1  UNL1       -0.2886
     11 C         140.7000   75.4290  221.2590 C.2     1  UNL1        0.2334
     12 O         140.6710   76.0120  222.3950 O.2     1  UNL1       -0.2739
     13 C         139.9780   74.1640  221.0150 C.3     1  UNL1        0.0887
     14 N         139.8880   73.4400  222.2700 N.am    1  UNL1       -0.3015
     15 C         140.2160   72.0510  222.3020 C.2     1  UNL1        0.2628
     16 O         140.5850   71.4420  221.2470 O.2     1  UNL1       -0.2685
     17 C         140.1200   71.3350  223.5720 C.ar    1  UNL1        0.1260
     18 C         139.5230   70.0790  223.5930 C.ar    1  UNL1       -0.0306
     19 C         139.4340   69.4020  224.7950 C.ar    1  UNL1       -0.0504
     20 C         139.9240   69.9490  225.9710 C.ar    1  UNL1        0.0004
     21 C         139.8530   69.3070  227.1830 C.ar    1  UNL1       -0.0526
     22 C         140.3400   69.8470  228.3600 C.ar    1  UNL1       -0.0611
     23 C         140.9290   71.1120  228.2700 C.ar    1  UNL1       -0.0597
     24 C         141.0060   71.7670  227.0570 C.ar    1  UNL1       -0.0357
     25 C         140.5090   71.2000  225.9010 C.ar    1  UNL1        0.0718
     26 N         140.6060   71.8800  224.7260 N.ar    1  UNL1       -0.2421
     27 C         140.4650   80.2270  222.6320 C.ar    1  UNL1       -0.0275
     28 C         139.7100   79.4530  223.5120 C.ar    1  UNL1       -0.0568
     29 C         138.4770   79.8900  223.9140 C.ar    1  UNL1       -0.0614
     30 C         137.9170   81.0780  223.4960 C.ar    1  UNL1       -0.0617
     31 C         138.6820   81.8460  222.6140 C.ar    1  UNL1       -0.0614
     32 C         139.9380   81.4200  222.1930 C.ar    1  UNL1       -0.0568
     33 H         141.9807   79.6515  224.3707 H       1  UNL1        0.0251
     34 H         143.0034   78.4652  223.4913 H       1  UNL1        0.0251
     35 H         143.4455   80.2062  223.4913 H       1  UNL1        0.0251
     36 H         142.2777   80.4379  221.5869 H       1  UNL1        0.0545
     37 H         142.0540   77.6030  221.8660 H       1  UNL1        0.1493
     38 H         140.0327   77.1243  219.1125 H       1  UNL1        0.0597
     39 H         141.6473   76.4200  217.5066 H       1  UNL1        0.0288
     40 H         142.1742   78.0807  217.7881 H       1  UNL1        0.0288
     41 H         143.9003   76.0190  218.1097 H       1  UNL1        0.0281
     42 H         143.9938   77.3647  219.2244 H       1  UNL1        0.0281
     43 H         142.8498   74.6164  219.6076 H       1  UNL1        0.0465
     44 H         143.4868   75.7182  220.8399 H       1  UNL1        0.0465
     45 H         138.9678   74.3795  220.6369 H       1  UNL1        0.0558
     46 H         140.5136   73.5605  220.2674 H       1  UNL1        0.0558
     47 H         139.5900   73.9120  223.1440 H       1  UNL1        0.1496
     48 H         139.1283   69.6319  222.6687 H       1  UNL1        0.0641
     49 H         138.9642   68.4077  224.8189 H       1  UNL1        0.0625
     50 H         139.3848   68.3123  227.2198 H       1  UNL1        0.0624
     51 H         140.2676   69.3092  229.3168 H       1  UNL1        0.0618
     52 H         141.3348   71.5897  229.1740 H       1  UNL1        0.0618
     53 H         141.4733   72.7617  227.0110 H       1  UNL1        0.0639
     54 H         140.1038   78.4948  223.8818 H       1  UNL1        0.0621
     55 H         137.9020   79.2593  224.6080 H       1  UNL1        0.0618
     56 H         136.9233   81.4035  223.8376 H       1  UNL1        0.0618
     57 H         138.2845   82.8035  222.2463 H       1  UNL1        0.0618
     58 H         140.5181   82.0460  221.4991 H       1  UNL1        0.0621
@<TRIPOS>BOND
     1     1     2    1
     2     2     3    1
     3     3     4   am
     4     4     5    2
     5     4     6    1
     6     6     7    1
     7     7     8    1
     8     8     9    1
     9     9    10    1
    10    10    11   am
    11    11    12    2
    12    11    13    1
    13    13    14    1
    14    14    15   am
    15    15    16    2
    16    15    17    1
    17    17    18   ar
    18    18    19   ar
    19    19    20   ar
    20    20    21   ar
    21    21    22   ar
    22    22    23   ar
    23    23    24   ar
    24    24    25   ar
    25    25    26   ar
    26     2    27    1
    27    27    28   ar
    28    28    29   ar
    29    29    30   ar
    30    30    31   ar
    31    31    32   ar
    32    10     6    1
    33    26    17   ar
    34    32    27   ar
    35    25    20   ar
    36     1    33    1
    37     1    34    1
    38     1    35    1
    39     2    36    1
    40     3    37    1
    41     6    38    1
    42     7    39    1
    43     7    40    1
    44     8    41    1
    45     8    42    1
    46     9    43    1
    47     9    44    1
    48    13    45    1
    49    13    46    1
    50    14    47    1
    51    18    48    1
    52    19    49    1
    53    21    50    1
    54    22    51    1
    55    23    52    1
    56    24    53    1
    57    28    54    1
    58    29    55    1
    59    30    56    1
    60    31    57    1
    61    32    58    1
