@<TRIPOS>MOLECULE
*****
 61 64 0 0 0
SMALL
GASTEIGER

@<TRIPOS>ATOM
      1 C         142.5520   79.7640  223.6740 C.3     1  UNL1       -0.0425
      2 C         142.2300   79.9640  222.2130 C.3     1  UNL1        0.0456
      3 N         141.7750   78.7050  221.6650 N.am    1  UNL1       -0.3072
      4 C         141.3940   78.5520  220.3020 C.2     1  UNL1        0.2340
      5 O         141.4630   79.5730  219.5570 O.2     1  UNL1       -0.2738
      6 C         140.9340   77.2800  219.7420 C.3     1  UNL1        0.1022
      7 C         141.1750   77.1360  218.2600 C.3     1  UNL1       -0.0257
      8 C         142.5750   76.8490  217.8860 C.3     1  UNL1       -0.0495
      9 C         143.4240   76.2050  218.9240 C.3     1  UNL1       -0.0371
     10 C         142.7340   75.5650  220.0620 C.3     1  UNL1        0.0155
     11 N         141.4180   76.0910  220.3660 N.am    1  UNL1       -0.2886
     12 C         140.6460   75.3510  221.3200 C.2     1  UNL1        0.2334
     13 O         140.6150   75.8250  222.5030 O.2     1  UNL1       -0.2739
     14 C         139.9310   74.1120  220.9410 C.3     1  UNL1        0.0887
     15 N         139.8430   73.2960  222.1450 N.am    1  UNL1       -0.3015
     16 C         140.0490   71.8890  222.1250 C.2     1  UNL1        0.2628
     17 O         140.3220   71.2750  221.0380 O.2     1  UNL1       -0.2685
     18 C         139.9450   71.1340  223.3750 C.ar    1  UNL1        0.1260
     19 C         139.3550   69.8870  223.3850 C.ar    1  UNL1       -0.0306
     20 C         139.2360   69.1380  224.5470 C.ar    1  UNL1       -0.0503
     21 C         139.7260   69.6720  225.7110 C.ar    1  UNL1        0.0031
     22 C         139.6220   68.9560  226.8750 C.ar    1  UNL1       -0.0173
     23 C         140.1190   69.4950  228.0590 C.ar    1  UNL1        0.1241
     24 F         139.9850   68.7410  229.1650 F       1  UNL1       -0.2055
     25 C         140.6990   70.7320  228.0280 C.ar    1  UNL1       -0.0244
     26 C         140.8240   71.4920  226.8680 C.ar    1  UNL1       -0.0330
     27 C         140.3200   70.9240  225.7120 C.ar    1  UNL1        0.0720
     28 N         140.4060   71.6060  224.5490 N.ar    1  UNL1       -0.2421
     29 C         141.2380   81.0510  222.0100 C.ar    1  UNL1       -0.0275
     30 C         139.9360   80.9740  222.4810 C.ar    1  UNL1       -0.0568
     31 C         139.0130   81.9820  222.2930 C.ar    1  UNL1       -0.0614
     32 C         139.3740   83.1210  221.6140 C.ar    1  UNL1       -0.0617
     33 C         140.6780   83.2350  221.1230 C.ar    1  UNL1       -0.0614
     34 C         141.6020   82.2080  221.3210 C.ar    1  UNL1       -0.0568
     35 H         141.7775   80.2451  224.2894 H       1  UNL1        0.0251
     36 H         142.5827   78.6876  223.8987 H       1  UNL1        0.0251
     37 H         143.5305   80.2136  223.8987 H       1  UNL1        0.0251
     38 H         143.1371   80.2838  221.6793 H       1  UNL1        0.0545
     39 H         141.7390   77.8950  222.3240 H       1  UNL1        0.1493
     40 H         139.8582   77.3589  219.9575 H       1  UNL1        0.0597
     41 H         140.5460   76.3133  217.8892 H       1  UNL1        0.0288
     42 H         140.9268   78.1084  217.8096 H       1  UNL1        0.0288
     43 H         142.5566   76.1837  217.0102 H       1  UNL1        0.0266
     44 H         143.0340   77.8323  217.7056 H       1  UNL1        0.0266
     45 H         144.0260   75.4312  218.4251 H       1  UNL1        0.0280
     46 H         143.9990   77.0298  219.3701 H       1  UNL1        0.0280
     47 H         142.6274   74.4939  219.8355 H       1  UNL1        0.0465
     48 H         143.3544   75.7698  220.9470 H       1  UNL1        0.0465
     49 H         138.9233   74.3534  220.5718 H       1  UNL1        0.0558
     50 H         140.4612   73.5783  220.1385 H       1  UNL1        0.0558
     51 H         139.6210   73.7350  223.0870 H       1  UNL1        0.1496
     52 H         138.9668   69.4736  222.4424 H       1  UNL1        0.0641
     53 H         138.7625   68.1452  224.5347 H       1  UNL1        0.0625
     54 H         139.1493   67.9627  226.8740 H       1  UNL1        0.0653
     55 H         141.0875   71.1492  228.9688 H       1  UNL1        0.0647
     56 H         141.2958   72.4857  226.8708 H       1  UNL1        0.0640
     57 H         139.6261   80.0711  223.0276 H       1  UNL1        0.0621
     58 H         137.9910   81.8743  222.6855 H       1  UNL1        0.0618
     59 H         138.6469   83.9318  221.4590 H       1  UNL1        0.0618
     60 H         140.9780   84.1412  220.5764 H       1  UNL1        0.0618
     61 H         142.6252   82.3117  220.9307 H       1  UNL1        0.0621
@<TRIPOS>BOND
     1     1     2    1
     2     2     3    1
     3     3     4   am
     4     4     5    2
     5     4     6    1
     6     6     7    1
     7     7     8    1
     8     8     9    1
     9     9    10    1
    10    10    11    1
    11    11    12   am
    12    12    13    2
    13    12    14    1
    14    14    15    1
    15    15    16   am
    16    16    17    2
    17    16    18    1
    18    18    19   ar
    19    19    20   ar
    20    20    21   ar
    21    21    22   ar
    22    22    23   ar
    23    23    24    1
    24    23    25   ar
    25    25    26   ar
    26    26    27   ar
    27    27    28   ar
    28     2    29    1
    29    29    30   ar
    30    30    31   ar
    31    31    32   ar
    32    32    33   ar
    33    33    34   ar
    34    11     6    1
    35    28    18   ar
    36    34    29   ar
    37    27    21   ar
    38     1    35    1
    39     1    36    1
    40     1    37    1
    41     2    38    1
    42     3    39    1
    43     6    40    1
    44     7    41    1
    45     7    42    1
    46     8    43    1
    47     8    44    1
    48     9    45    1
    49     9    46    1
    50    10    47    1
    51    10    48    1
    52    14    49    1
    53    14    50    1
    54    15    51    1
    55    19    52    1
    56    20    53    1
    57    22    54    1
    58    25    55    1
    59    26    56    1
    60    30    57    1
    61    31    58    1
    62    32    59    1
    63    33    60    1
    64    34    61    1
