
 65 69  0  0  0  0  0  0  0  0999 V2000
  141.3370   79.0530  219.1610 O   0  0  0  0  0  0  0  0  0  0  0  0
  141.3660   78.5680  220.3430 C   0  0  0  0  0  0  0  0  0  0  0  0
  142.1850   77.4550  220.6550 N   0  0  0  0  0  0  0  0  0  0  0  0
  143.0410   76.7760  219.7080 C   0  0  0  0  0  0  0  0  0  0  0  0
  142.9820   75.3000  219.9980 C   0  0  2  0  0  0  0  0  0  0  0  0
  143.8370   74.4520  219.1250 C   0  0  0  0  0  0  0  0  0  0  0  0
  142.9140   73.6880  218.2190 C   0  0  0  0  0  0  0  0  0  0  0  0
  141.6110   74.4610  218.4030 C   0  0  0  0  0  0  0  0  0  0  0  0
  141.6190   74.7520  219.8210 N   0  0  0  0  0  0  0  0  0  0  0  0
  140.7320   74.5950  220.8800 C   0  0  0  0  0  0  0  0  0  0  0  0
  141.0070   75.3050  221.9410 O   0  0  0  0  0  0  0  0  0  0  0  0
  139.5310   73.7800  221.0350 C   0  0  0  0  0  0  0  0  0  0  0  0
  139.4110   73.1330  222.2890 N   0  0  0  0  0  0  0  0  0  0  0  0
  140.2110   71.9310  222.4760 C   0  0  0  0  0  0  0  0  0  0  0  0
  140.9160   71.6130  221.4940 O   0  0  0  0  0  0  0  0  0  0  0  0
  140.1630   71.1850  223.7260 C   0  0  0  0  0  0  0  0  0  0  0  0
  139.5580   69.9350  223.6690 C   0  0  0  0  0  0  0  0  0  0  0  0
  139.4440   69.1240  224.7840 C   0  0  0  0  0  0  0  0  0  0  0  0
  139.9690   69.6310  225.9620 C   0  0  0  0  0  0  0  0  0  0  0  0
  139.8640   68.8340  227.0890 C   0  0  0  0  0  0  0  0  0  0  0  0
  140.3770   69.3150  228.2700 C   0  0  0  0  0  0  0  0  0  0  0  0
  140.9880   70.5600  228.3600 C   0  0  0  0  0  0  0  0  0  0  0  0
  141.0630   71.3100  227.2030 C   0  0  0  0  0  0  0  0  0  0  0  0
  140.5650   70.8710  226.0020 C   0  0  0  0  0  0  0  0  0  0  0  0
  140.6500   71.6210  224.8850 N   0  0  0  0  0  0  0  0  0  0  0  0
  140.5060   79.2400  221.3100 C   0  0  0  0  0  0  0  0  0  0  0  0
  139.7690   80.3300  220.9030 C   0  0  0  0  0  0  0  0  0  0  0  0
  138.9230   81.0230  221.7780 C   0  0  0  0  0  0  0  0  0  0  0  0
  138.8280   80.5970  223.0910 C   0  0  0  0  0  0  0  0  0  0  0  0
  137.9530   81.3020  224.0220 C   0  0  0  0  0  0  0  0  0  0  0  0
  137.3170   82.4510  223.5570 C   0  0  0  0  0  0  0  0  0  0  0  0
  136.4720   83.1830  224.3690 C   0  0  0  0  0  0  0  0  0  0  0  0
  136.2720   82.7400  225.6740 C   0  0  0  0  0  0  0  0  0  0  0  0
  136.9030   81.5960  226.1430 C   0  0  0  0  0  0  0  0  0  0  0  0
  137.7560   80.8530  225.3320 C   0  0  0  0  0  0  0  0  0  0  0  0
  139.5620   79.4960  223.5340 C   0  0  0  0  0  0  0  0  0  0  0  0
  140.3800   78.8510  222.6240 C   0  0  0  0  0  0  0  0  0  0  0  0
  142.1480   77.1200  221.6530 H   0  0  0  0  0  0  0  0  0  0  0  0
  142.6901   76.9689  218.6834 H   0  0  0  0  0  0  0  0  0  0  0  0
  144.0747   77.1410  219.7991 H   0  0  0  0  0  0  0  0  0  0  0  0
  143.3372   75.2537  221.0380 H   0  0  0  0  0  0  0  0  0  0  0  0
  144.5138   75.0832  218.5303 H   0  0  0  0  0  0  0  0  0  0  0  0
  144.4553   73.7678  219.7246 H   0  0  0  0  0  0  0  0  0  0  0  0
  143.2573   73.7195  217.1744 H   0  0  0  0  0  0  0  0  0  0  0  0
  142.8392   72.6154  218.4512 H   0  0  0  0  0  0  0  0  0  0  0  0
  141.6094   75.3856  217.8071 H   0  0  0  0  0  0  0  0  0  0  0  0
  140.7205   73.9055  218.0736 H   0  0  0  0  0  0  0  0  0  0  0  0
  138.6552   74.4319  220.9009 H   0  0  0  0  0  0  0  0  0  0  0  0
  139.5978   72.9828  220.2800 H   0  0  0  0  0  0  0  0  0  0  0  0
  138.7860   73.4780  223.0660 H   0  0  0  0  0  0  0  0  0  0  0  0
  139.1576   69.5797  222.7080 H   0  0  0  0  0  0  0  0  0  0  0  0
  138.9648   68.1349  224.7382 H   0  0  0  0  0  0  0  0  0  0  0  0
  139.3843   67.8453  227.0408 H   0  0  0  0  0  0  0  0  0  0  0  0
  140.3014   68.6935  229.1745 H   0  0  0  0  0  0  0  0  0  0  0  0
  141.3944   70.9320  229.3121 H   0  0  0  0  0  0  0  0  0  0  0  0
  141.5414   72.2996  227.2458 H   0  0  0  0  0  0  0  0  0  0  0  0
  139.8472   80.6666  219.8587 H   0  0  0  0  0  0  0  0  0  0  0  0
  138.3444   81.8905  221.4276 H   0  0  0  0  0  0  0  0  0  0  0  0
  137.4910   82.7821  222.5226 H   0  0  0  0  0  0  0  0  0  0  0  0
  135.9721   84.0889  223.9956 H   0  0  0  0  0  0  0  0  0  0  0  0
  135.6049   83.3043  226.3422 H   0  0  0  0  0  0  0  0  0  0  0  0
  136.7250   81.2695  227.1782 H   0  0  0  0  0  0  0  0  0  0  0  0
  138.2559   79.9477  225.7068 H   0  0  0  0  0  0  0  0  0  0  0  0
  139.4921   79.1512  224.5762 H   0  0  0  0  0  0  0  0  0  0  0  0
  140.9599   77.9821  222.9685 H   0  0  0  0  0  0  0  0  0  0  0  0
  1  2  2  0
  2  3  1  0
  3  4  1  0
  4  5  1  0
  5  6  1  0
  6  7  1  0
  7  8  1  0
  8  9  1  0
  9 10  1  0
 10 11  2  0
 10 12  1  0
 12 13  1  0
 13 14  1  0
 14 15  2  0
 14 16  1  0
 16 17  2  0
 17 18  1  0
 18 19  2  0
 19 20  1  0
 20 21  2  0
 21 22  1  0
 22 23  2  0
 23 24  1  0
 24 25  2  0
  2 26  1  0
 26 27  2  0
 27 28  1  0
 28 29  2  0
 29 30  1  0
 30 31  2  0
 31 32  1  0
 32 33  2  0
 33 34  1  0
 34 35  2  0
 29 36  1  0
 36 37  2  0
  9  5  1  0
 25 16  1  0
 37 26  1  0
 24 19  1  0
 35 30  1  0
  3 38  1  0
  4 39  1  0
  4 40  1  0
  5 41  1  1
  6 42  1  0
  6 43  1  0
  7 44  1  0
  7 45  1  0
  8 46  1  0
  8 47  1  0
 12 48  1  0
 12 49  1  0
 13 50  1  0
 17 51  1  0
 18 52  1  0
 20 53  1  0
 21 54  1  0
 22 55  1  0
 23 56  1  0
 27 57  1  0
 28 58  1  0
 31 59  1  0
 32 60  1  0
 33 61  1  0
 34 62  1  0
 35 63  1  0
 36 64  1  0
 37 65  1  0
M  END
