
 60 63  0  0  0  0  0  0  0  0999 V2000
  141.8740   75.9340  220.4080 C   0  0  0  0  0  0  0  0  0  0  0  0
  142.3730   74.6150  219.7570 C   0  0  0  0  0  0  0  0  0  0  0  0
  143.7060   74.3620  220.4220 C   0  0  0  0  0  0  0  0  0  0  0  0
  141.3720   73.5380  220.0150 C   0  0  0  0  0  0  0  0  0  0  0  0
  140.2200   73.9660  220.8670 C   0  0  2  0  0  0  0  0  0  0  0  0
  140.1070   73.3640  222.1490 N   0  0  0  0  0  0  0  0  0  0  0  0
  140.3000   71.9490  222.2420 C   0  0  0  0  0  0  0  0  0  0  0  0
  140.5660   71.2630  221.2000 O   0  0  0  0  0  0  0  0  0  0  0  0
  140.1920   71.2800  223.5520 C   0  0  0  0  0  0  0  0  0  0  0  0
  139.5770   70.0420  223.6110 C   0  0  0  0  0  0  0  0  0  0  0  0
  139.4700   69.4050  224.8300 C   0  0  0  0  0  0  0  0  0  0  0  0
  139.9700   70.0000  225.9690 C   0  0  0  0  0  0  0  0  0  0  0  0
  139.8810   69.3970  227.1920 C   0  0  0  0  0  0  0  0  0  0  0  0
  140.3740   69.9750  228.3440 C   0  0  0  0  0  0  0  0  0  0  0  0
  140.9850   71.2230  228.2390 C   0  0  0  0  0  0  0  0  0  0  0  0
  141.0840   71.8480  226.9980 C   0  0  0  0  0  0  0  0  0  0  0  0
  140.5770   71.2480  225.8420 C   0  0  0  0  0  0  0  0  0  0  0  0
  140.6860   71.8750  224.6570 N   0  0  0  0  0  0  0  0  0  0  0  0
  138.9600   73.8210  220.0850 C   0  0  0  0  0  0  0  0  0  0  0  0
  138.8280   72.8070  219.4200 O   0  0  0  0  0  0  0  0  0  0  0  0
  137.9550   74.9050  220.1590 C   0  0  0  0  0  0  0  0  0  0  0  0
  138.5480   76.1670  220.5560 N   0  0  0  0  0  0  0  0  0  0  0  0
  138.7870   76.3820  221.9470 C   0  0  0  0  0  0  0  0  0  0  0  0
  138.4510   75.4310  222.7160 O   0  0  0  0  0  0  0  0  0  0  0  0
  139.3790   77.6190  222.4420 C   0  0  0  0  0  0  0  0  0  0  0  0
  138.5200   78.5920  222.9180 C   0  0  0  0  0  0  0  0  0  0  0  0
  139.0330   79.7820  223.3980 C   0  0  0  0  0  0  0  0  0  0  0  0
  140.3980   79.9650  223.3870 C   0  0  0  0  0  0  0  0  0  0  0  0
  140.9520   81.1240  223.8510 C   0  0  0  0  0  0  0  0  0  0  0  0
  142.3290   81.3340  223.8530 C   0  0  0  0  0  0  0  0  0  0  0  0
  143.1710   80.3450  223.3710 C   0  0  0  0  0  0  0  0  0  0  0  0
  142.5950   79.1760  222.9050 C   0  0  0  0  0  0  0  0  0  0  0  0
  141.2320   78.9590  222.9000 C   0  0  0  0  0  0  0  0  0  0  0  0
  140.7290   77.7910  222.4280 N   0  0  0  0  0  0  0  0  0  0  0  0
  141.9100   75.8388  221.5033 H   0  0  0  0  0  0  0  0  0  0  0  0
  142.5193   76.7664  220.0909 H   0  0  0  0  0  0  0  0  0  0  0  0
  140.8393   76.1308  220.0909 H   0  0  0  0  0  0  0  0  0  0  0  0
  142.4891   74.6570  218.6640 H   0  0  0  0  0  0  0  0  0  0  0  0
  143.5810   74.3857  221.5146 H   0  0  0  0  0  0  0  0  0  0  0  0
  144.0862   73.3757  220.1177 H   0  0  0  0  0  0  0  0  0  0  0  0
  144.4212   75.1404  220.1177 H   0  0  0  0  0  0  0  0  0  0  0  0
  140.9771   73.1945  219.0475 H   0  0  0  0  0  0  0  0  0  0  0  0
  141.8961   72.7435  220.5664 H   0  0  0  0  0  0  0  0  0  0  0  0
  140.4217   75.0179  221.1176 H   0  0  0  0  0  0  0  0  0  0  0  0
  139.9140   73.8440  223.0510 H   0  0  0  0  0  0  0  0  0  0  0  0
  139.1792   69.5725  222.6992 H   0  0  0  0  0  0  0  0  0  0  0  0
  138.9846   68.4199  224.8935 H   0  0  0  0  0  0  0  0  0  0  0  0
  139.3971   68.4116  227.2610 H   0  0  0  0  0  0  0  0  0  0  0  0
  140.2873   69.4662  229.3154 H   0  0  0  0  0  0  0  0  0  0  0  0
  141.3892   71.7147  229.1362 H   0  0  0  0  0  0  0  0  0  0  0  0
  141.5703   72.8321  226.9265 H   0  0  0  0  0  0  0  0  0  0  0  0
  137.4897   75.0265  219.1697 H   0  0  0  0  0  0  0  0  0  0  0  0
  137.2085   74.6261  220.9172 H   0  0  0  0  0  0  0  0  0  0  0  0
  138.8030   76.9140  219.8630 H   0  0  0  0  0  0  0  0  0  0  0  0
  137.4336   78.4198  222.9147 H   0  0  0  0  0  0  0  0  0  0  0  0
  138.3647   80.5672  223.7811 H   0  0  0  0  0  0  0  0  0  0  0  0
  140.2910   81.9152  224.2346 H   0  0  0  0  0  0  0  0  0  0  0  0
  142.7449   82.2782  224.2345 H   0  0  0  0  0  0  0  0  0  0  0  0
  144.2621   80.4844  223.3591 H   0  0  0  0  0  0  0  0  0  0  0  0
  143.2539   78.3833  222.5209 H   0  0  0  0  0  0  0  0  0  0  0  0
  1  2  1  0
  2  3  1  0
  2  4  1  0
  4  5  1  0
  5  6  1  0
  6  7  1  0
  7  8  2  0
  7  9  1  0
  9 10  2  0
 10 11  1  0
 11 12  2  0
 12 13  1  0
 13 14  2  0
 14 15  1  0
 15 16  2  0
 16 17  1  0
 17 18  2  0
  5 19  1  0
 19 20  2  0
 19 21  1  0
 21 22  1  0
 22 23  1  0
 23 24  2  0
 23 25  1  0
 25 26  2  0
 26 27  1  0
 27 28  2  0
 28 29  1  0
 29 30  2  0
 30 31  1  0
 31 32  2  0
 32 33  1  0
 33 34  2  0
 18  9  1  0
 34 25  1  0
 17 12  1  0
 33 28  1  0
  1 35  1  0
  1 36  1  0
  1 37  1  0
  2 38  1  0
  3 39  1  0
  3 40  1  0
  3 41  1  0
  4 42  1  0
  4 43  1  0
  5 44  1  1
  6 45  1  0
 10 46  1  0
 11 47  1  0
 13 48  1  0
 14 49  1  0
 15 50  1  0
 16 51  1  0
 21 52  1  0
 21 53  1  0
 22 54  1  0
 26 55  1  0
 27 56  1  0
 29 57  1  0
 30 58  1  0
 31 59  1  0
 32 60  1  0
M  END
