
 61 65  0  0  0  0  0  0  0  0999 V2000
  140.7820   78.1500  218.8710 N   0  0  0  0  0  0  0  0  0  0  0  0
  141.0670   78.4450  219.9520 C   0  0  0  0  0  0  0  0  0  0  0  0
  141.4180   78.8310  221.2750 C   0  0  0  0  0  0  0  0  0  0  0  0
  142.1700   79.9940  221.4100 C   0  0  0  0  0  0  0  0  0  0  0  0
  142.5560   80.4370  222.6570 C   0  0  0  0  0  0  0  0  0  0  0  0
  142.1780   79.7010  223.7700 C   0  0  0  0  0  0  0  0  0  0  0  0
  141.4220   78.5320  223.6400 C   0  0  0  0  0  0  0  0  0  0  0  0
  141.0370   78.0920  222.3750 C   0  0  0  0  0  0  0  0  0  0  0  0
  140.2360   76.8600  222.2230 C   0  0  0  0  0  0  0  0  0  0  0  0
  138.8690   76.9690  222.1990 C   0  0  0  0  0  0  0  0  0  0  0  0
  138.1410   75.8100  222.0550 C   0  0  0  0  0  0  0  0  0  0  0  0
  138.7890   74.6020  221.9430 C   0  0  0  0  0  0  0  0  0  0  0  0
  140.1740   74.4790  221.9660 C   0  0  0  0  0  0  0  0  0  0  0  0
  140.7930   73.1400  221.8380 C   0  0  0  0  0  0  0  0  0  0  0  0
  140.2250   72.0370  222.1760 C   0  0  0  0  0  0  0  0  0  0  0  0
  140.0150   71.3830  223.4290 C   0  0  0  0  0  0  0  0  0  0  0  0
  140.7010   71.9140  224.4870 N   0  0  0  0  0  0  0  0  0  0  0  0
  140.6780   71.4640  225.7280 C   0  0  0  0  0  0  0  0  0  0  0  0
  141.4250   72.1150  226.6800 C   0  0  0  0  0  0  0  0  0  0  0  0
  141.3570   71.5910  227.9680 C   0  0  0  0  0  0  0  0  0  0  0  0
  140.5890   70.4870  228.2780 C   0  0  0  0  0  0  0  0  0  0  0  0
  139.8580   69.8670  227.2930 C   0  0  0  0  0  0  0  0  0  0  0  0
  139.9130   70.3720  226.0170 C   0  0  0  0  0  0  0  0  0  0  0  0
  139.2110   69.8110  224.9790 C   0  0  0  0  0  0  0  0  0  0  0  0
  138.5130   68.8000  225.2580 O   0  0  0  0  0  0  0  0  0  0  0  0
  139.2680   70.3180  223.7030 N   0  0  0  0  0  0  0  0  0  0  0  0
  138.4690   69.6080  222.7430 C   0  0  0  0  0  0  0  0  0  0  0  0
  137.0290   69.9900  222.6760 C   0  0  0  0  0  0  0  0  0  0  0  0
  136.6600   71.3090  223.2630 C   0  0  0  0  0  0  0  0  0  0  0  0
  135.2150   71.6090  222.8310 C   0  0  0  0  0  0  0  0  0  0  0  0
  134.2920   70.5650  223.3500 C   0  0  0  0  0  0  0  0  0  0  0  0
  134.7570   69.1600  223.0190 C   0  0  0  0  0  0  0  0  0  0  0  0
  136.1790   68.9310  223.4090 C   0  0  0  0  0  0  0  0  0  0  0  0
  140.8930   75.6310  222.1080 C   0  0  0  0  0  0  0  0  0  0  0  0
  142.4587   80.5643  220.5148 H   0  0  0  0  0  0  0  0  0  0  0  0
  143.1515   81.3553  222.7670 H   0  0  0  0  0  0  0  0  0  0  0  0
  142.4779   80.0426  224.7717 H   0  0  0  0  0  0  0  0  0  0  0  0
  141.1318   77.9609  224.5342 H   0  0  0  0  0  0  0  0  0  0  0  0
  138.3730   77.9465  222.2914 H   0  0  0  0  0  0  0  0  0  0  0  0
  137.0420   75.8497  222.0295 H   0  0  0  0  0  0  0  0  0  0  0  0
  138.1835   73.6907  221.8299 H   0  0  0  0  0  0  0  0  0  0  0  0
  141.8108   73.0849  221.4245 H   0  0  0  0  0  0  0  0  0  0  0  0
  139.8146   71.4799  221.3209 H   0  0  0  0  0  0  0  0  0  0  0  0
  142.0387   72.9956  226.4393 H   0  0  0  0  0  0  0  0  0  0  0  0
  141.9367   72.0747  228.7680 H   0  0  0  0  0  0  0  0  0  0  0  0
  140.5621   70.1049  229.3091 H   0  0  0  0  0  0  0  0  0  0  0  0
  139.2419   68.9849  227.5218 H   0  0  0  0  0  0  0  0  0  0  0  0
  138.9082   69.7780  221.7489 H   0  0  0  0  0  0  0  0  0  0  0  0
  138.4808   68.5574  223.0686 H   0  0  0  0  0  0  0  0  0  0  0  0
  136.8315   70.0577  221.5960 H   0  0  0  0  0  0  0  0  0  0  0  0
  136.7241   71.2647  224.3602 H   0  0  0  0  0  0  0  0  0  0  0  0
  137.3439   72.0971  222.9149 H   0  0  0  0  0  0  0  0  0  0  0  0
  134.9138   72.5894  223.2287 H   0  0  0  0  0  0  0  0  0  0  0  0
  135.1649   71.6156  221.7322 H   0  0  0  0  0  0  0  0  0  0  0  0
  134.2250   70.6657  224.4433 H   0  0  0  0  0  0  0  0  0  0  0  0
  133.3144   70.7149  222.8686 H   0  0  0  0  0  0  0  0  0  0  0  0
  134.1218   68.4406  223.5567 H   0  0  0  0  0  0  0  0  0  0  0  0
  134.6795   69.0261  221.9299 H   0  0  0  0  0  0  0  0  0  0  0  0
  136.2941   69.0426  224.4973 H   0  0  0  0  0  0  0  0  0  0  0  0
  136.5002   67.9150  223.1359 H   0  0  0  0  0  0  0  0  0  0  0  0
  141.9921   75.5922  222.1320 H   0  0  0  0  0  0  0  0  0  0  0  0
  1  2  3  0
  2  3  1  0
  3  4  2  0
  4  5  1  0
  5  6  2  0
  6  7  1  0
  7  8  2  0
  8  9  1  0
  9 10  2  0
 10 11  1  0
 11 12  2  0
 12 13  1  0
 13 14  1  0
 14 15  2  0
 15 16  1  0
 16 17  2  0
 17 18  1  0
 18 19  2  0
 19 20  1  0
 20 21  2  0
 21 22  1  0
 22 23  2  0
 23 24  1  0
 24 25  2  0
 24 26  1  0
 26 27  1  0
 27 28  1  0
 28 29  1  0
 29 30  1  0
 30 31  1  0
 31 32  1  0
 32 33  1  0
 13 34  2  0
  8  3  1  0
 34  9  1  0
 26 16  1  0
 33 28  1  0
 23 18  1  0
  4 35  1  0
  5 36  1  0
  6 37  1  0
  7 38  1  0
 10 39  1  0
 11 40  1  0
 12 41  1  0
 14 42  1  0
 15 43  1  0
 19 44  1  0
 20 45  1  0
 21 46  1  0
 22 47  1  0
 27 48  1  0
 27 49  1  0
 28 50  1  0
 29 51  1  0
 29 52  1  0
 30 53  1  0
 30 54  1  0
 31 55  1  0
 31 56  1  0
 32 57  1  0
 32 58  1  0
 33 59  1  0
 33 60  1  0
 34 61  1  0
M  END
