@<TRIPOS>MOLECULE
*****
 79 85 0 0 0
SMALL
GASTEIGER

@<TRIPOS>ATOM
      1 C         142.2020   81.2270  222.5820 C.ar    1  UNL1       -0.0615
      2 C         141.8600   80.6890  223.8070 C.ar    1  UNL1       -0.0614
      3 C         141.4920   79.3450  223.8560 C.ar    1  UNL1       -0.0568
      4 C         141.4610   78.5470  222.7310 C.ar    1  UNL1       -0.0269
      5 C         141.8090   79.1320  221.5360 C.ar    1  UNL1       -0.0412
      6 C         142.1830   80.4600  221.4250 C.ar    1  UNL1       -0.0582
      7 C         141.8040   78.3490  220.2570 C.3     1  UNL1       -0.0115
      8 C         140.7210   77.2950  220.3580 C.3     1  UNL1        0.0192
      9 N         140.9560   76.5410  221.5720 N.pl3   1  UNL1       -0.2948
     10 C         141.0940   75.1220  221.4610 C.ar    1  UNL1        0.2240
     11 N         140.2310   74.2720  222.0890 N.ar    1  UNL1       -0.1807
     12 C         140.3520   72.9530  221.9890 C.ar    1  UNL1        0.2237
     13 N         139.4700   72.0560  222.6310 N.pl3   1  UNL1       -0.2971
     14 C         138.0250   72.1740  222.5720 C.3     1  UNL1        0.0277
     15 C         137.5270   71.4450  223.8430 C.3     1  UNL1        0.0148
     16 N         137.7890   70.0550  223.7780 N.3     1  UNL1       -0.2991
     17 C         137.8300   69.4150  225.0350 C.3     1  UNL1        0.0019
     18 C         139.1440   69.0530  225.6190 C.3     1  UNL1       -0.0260
     19 C         139.5870   70.1860  226.5680 C.3     1  UNL1       -0.0364
     20 C         141.0650   70.0680  226.8210 C.3     1  UNL1       -0.0038
     21 N         141.3260   68.7030  227.2430 N.3     1  UNL1       -0.3160
     22 C         140.1280   68.0120  227.6210 C.3     1  UNL1       -0.0038
     23 C         139.2130   67.8010  226.4260 C.3     1  UNL1       -0.0364
     24 C         139.0520   69.7810  223.1000 C.3     1  UNL1        0.0148
     25 C         139.9900   70.9310  223.4090 C.3     1  UNL1        0.0277
     26 N         141.3530   72.4620  221.2490 N.ar    1  UNL1       -0.1807
     27 C         142.2270   73.2300  220.6130 C.ar    1  UNL1        0.2240
     28 N         143.2590   72.6160  219.8500 N.pl3   1  UNL1       -0.2948
     29 C         144.6070   73.1030  220.0130 C.3     1  UNL1        0.0192
     30 C         145.5940   72.3680  219.1430 C.3     1  UNL1       -0.0115
     31 C         145.3800   70.9010  219.1700 C.ar    1  UNL1       -0.0412
     32 C         146.4210   70.0050  219.3000 C.ar    1  UNL1       -0.0582
     33 C         146.1180   68.6760  219.3150 C.ar    1  UNL1       -0.0615
     34 C         144.8120   68.2200  219.2040 C.ar    1  UNL1       -0.0614
     35 C         143.7900   69.1360  219.0740 C.ar    1  UNL1       -0.0568
     36 C         144.0530   70.4760  219.0550 C.ar    1  UNL1       -0.0269
     37 C         143.0190   71.5310  218.9170 C.3     1  UNL1        0.0402
     38 N         142.0890   74.5640  220.7240 N.ar    1  UNL1       -0.1807
     39 C         141.0570   77.1320  222.8850 C.3     1  UNL1        0.0402
     40 H         142.4956   82.2854  222.5217 H       1  UNL1        0.0618
     41 H         141.8774   81.3038  224.7190 H       1  UNL1        0.0618
     42 H         141.2167   78.9054  224.8260 H       1  UNL1        0.0621
     43 H         142.4563   80.8936  220.4517 H       1  UNL1        0.0620
     44 H         141.5951   79.0189  219.4099 H       1  UNL1        0.0328
     45 H         142.7837   77.8760  220.0946 H       1  UNL1        0.0328
     46 H         139.7325   77.7757  220.4004 H       1  UNL1        0.0468
     47 H         140.7441   76.6319  219.4807 H       1  UNL1        0.0468
     48 H         137.7199   73.2308  222.5847 H       1  UNL1        0.0477
     49 H         137.6064   71.7432  221.6505 H       1  UNL1        0.0477
     50 H         138.0400   71.8651  224.7207 H       1  UNL1        0.0442
     51 H         136.4392   71.5888  223.9205 H       1  UNL1        0.0442
     52 H         137.3324   70.0838  225.7527 H       1  UNL1        0.0429
     53 H         137.3488   68.4433  224.8501 H       1  UNL1        0.0429
     54 H         139.7828   68.8926  224.7380 H       1  UNL1        0.0314
     55 H         139.3693   71.1599  226.1053 H       1  UNL1        0.0281
     56 H         139.0411   70.1063  227.5196 H       1  UNL1        0.0281
     57 H         141.6231   70.2898  225.8994 H       1  UNL1        0.0424
     58 H         141.3847   70.7815  227.5948 H       1  UNL1        0.0424
     59 H         142.0670   68.6370  227.9490 H       1  UNL1        0.1219
     60 H         140.3971   67.0328  228.0438 H       1  UNL1        0.0424
     61 H         139.5942   68.6227  228.3640 H       1  UNL1        0.0424
     62 H         139.6079   66.9853  225.8025 H       1  UNL1        0.0281
     63 H         138.2049   67.5399  226.7805 H       1  UNL1        0.0281
     64 H         139.4799   68.8371  223.4688 H       1  UNL1        0.0442
     65 H         138.8981   69.6855  222.0150 H       1  UNL1        0.0442
     66 H         139.9766   71.1640  224.4839 H       1  UNL1        0.0477
     67 H         141.0337   70.6961  223.1532 H       1  UNL1        0.0477
     68 H         144.6309   74.1707  219.7495 H       1  UNL1        0.0468
     69 H         144.8977   72.9392  221.0612 H       1  UNL1        0.0468
     70 H         145.4863   72.7228  218.1074 H       1  UNL1        0.0328
     71 H         146.6029   72.5695  219.5322 H       1  UNL1        0.0328
     72 H         147.4612   70.3516  219.3886 H       1  UNL1        0.0620
     73 H         146.9324   67.9437  219.4181 H       1  UNL1        0.0618
     74 H         144.5951   67.1417  219.2195 H       1  UNL1        0.0618
     75 H         142.7517   68.7839  218.9847 H       1  UNL1        0.0621
     76 H         143.0426   71.9265  217.8908 H       1  UNL1        0.0514
     77 H         142.0354   71.0900  219.1361 H       1  UNL1        0.0514
     78 H         140.0829   77.0771  223.3930 H       1  UNL1        0.0514
     79 H         141.8013   76.5901  223.4869 H       1  UNL1        0.0514
@<TRIPOS>BOND
     1     1     2   ar
     2     2     3   ar
     3     3     4   ar
     4     4     5   ar
     5     5     6   ar
     6     5     7    1
     7     7     8    1
     8     8     9    1
     9     9    10    1
    10    10    11   ar
    11    11    12   ar
    12    12    13    1
    13    13    14    1
    14    14    15    1
    15    15    16    1
    16    16    17    1
    17    17    18    1
    18    18    19    1
    19    19    20    1
    20    20    21    1
    21    21    22    1
    22    22    23    1
    23    16    24    1
    24    24    25    1
    25    12    26   ar
    26    26    27   ar
    27    27    28    1
    28    28    29    1
    29    29    30    1
    30    30    31    1
    31    31    32   ar
    32    32    33   ar
    33    33    34   ar
    34    34    35   ar
    35    35    36   ar
    36    36    37    1
    37    27    38   ar
    38     9    39    1
    39     6     1   ar
    40    38    10   ar
    41    39     4    1
    42    25    13    1
    43    37    28    1
    44    23    18    1
    45    36    31   ar
    46     1    40    1
    47     2    41    1
    48     3    42    1
    49     6    43    1
    50     7    44    1
    51     7    45    1
    52     8    46    1
    53     8    47    1
    54    14    48    1
    55    14    49    1
    56    15    50    1
    57    15    51    1
    58    17    52    1
    59    17    53    1
    60    18    54    1
    61    19    55    1
    62    19    56    1
    63    20    57    1
    64    20    58    1
    65    21    59    1
    66    22    60    1
    67    22    61    1
    68    23    62    1
    69    23    63    1
    70    24    64    1
    71    24    65    1
    72    25    66    1
    73    25    67    1
    74    29    68    1
    75    29    69    1
    76    30    70    1
    77    30    71    1
    78    32    72    1
    79    33    73    1
    80    34    74    1
    81    35    75    1
    82    37    76    1
    83    37    77    1
    84    39    78    1
    85    39    79    1
