
     RDKit          3D

 63 67  0  0  0  0  0  0  0  0999 V2000
  140.1740   73.0460  222.6980 O   0  0  0  0  0  0  0  0  0  0  0  0
  140.2550   71.7730  222.7940 C   0  0  0  0  0  0  0  0  0  0  0  0
  140.2360   71.0030  221.6080 N   0  0  0  0  0  0  0  0  0  0  0  0
  140.1260   71.7040  220.3250 C   0  0  0  0  0  0  0  0  0  0  0  0
  138.7140   71.7480  219.8700 C   0  0  0  0  0  0  0  0  0  0  0  0
  138.4890   72.1070  218.6860 O   0  0  0  0  0  0  0  0  0  0  0  0
  137.7000   71.3860  220.7920 N   0  0  0  0  0  0  0  0  0  0  0  0
  137.4080   70.0750  221.3730 C   0  0  0  0  0  0  0  0  0  0  0  0
  137.0930   70.4250  222.8190 C   0  0  0  0  0  0  0  0  0  0  0  0
  136.9770   71.9530  222.8690 C   0  0  0  0  0  0  0  0  0  0  0  0
  136.6790   72.2610  221.4060 C   0  0  1  0  0  0  0  0  0  0  0  0
  136.8930   73.6870  221.0700 C   0  0  0  0  0  0  0  0  0  0  0  0
  137.5640   74.3880  222.0890 N   0  0  0  0  0  0  0  0  0  0  0  0
  137.2810   75.7210  222.3580 C   0  0  0  0  0  0  0  0  0  0  0  0
  138.3410   76.6940  222.6140 C   0  0  0  0  0  0  0  0  0  0  0  0
  139.6570   76.2810  222.3780 C   0  0  0  0  0  0  0  0  0  0  0  0
  140.6760   77.1930  222.5620 C   0  0  0  0  0  0  0  0  0  0  0  0
  140.4410   78.4920  222.9720 C   0  0  0  0  0  0  0  0  0  0  0  0
  141.5430   79.4300  223.1590 C   0  0  0  0  0  0  0  0  0  0  0  0
  141.4560   80.5850  223.8670 N   0  0  0  0  0  0  0  0  0  0  0  0
  142.6450   81.2340  223.8570 C   0  0  0  0  0  0  0  0  0  0  0  0
  143.4890   80.4310  223.1070 C   0  0  0  0  0  0  0  0  0  0  0  0
  142.8180   79.3300  222.6800 N   0  0  0  0  0  0  0  0  0  0  0  0
  139.1420   78.9090  223.2080 C   0  0  0  0  0  0  0  0  0  0  0  0
  138.0830   78.0130  223.0310 C   0  0  0  0  0  0  0  0  0  0  0  0
  140.3660   71.1760  224.1240 C   0  0  0  0  0  0  0  0  0  0  0  0
  140.8650   71.9170  225.1700 C   0  0  0  0  0  0  0  0  0  0  0  0
  141.0060   71.4320  226.4520 C   0  0  0  0  0  0  0  0  0  0  0  0
  140.6240   70.1250  226.7030 C   0  0  0  0  0  0  0  0  0  0  0  0
  140.7550   69.6240  227.9650 C   0  0  0  0  0  0  0  0  0  0  0  0
  140.3660   68.3030  228.2030 C   0  0  0  0  0  0  0  0  0  0  0  0
  140.4840   67.7810  229.4480 F   0  0  0  0  0  0  0  0  0  0  0  0
  139.8620   67.5390  227.1710 C   0  0  0  0  0  0  0  0  0  0  0  0
  139.7410   68.0740  225.9020 C   0  0  0  0  0  0  0  0  0  0  0  0
  140.1200   69.3860  225.6320 C   0  0  0  0  0  0  0  0  0  0  0  0
  140.0030   69.9100  224.3940 N   0  0  0  0  0  0  0  0  0  0  0  0
  140.2990   69.9700  221.6790 H   0  0  0  0  0  0  0  0  0  0  0  0
  140.4997   72.7319  220.4421 H   0  0  0  0  0  0  0  0  0  0  0  0
  140.7224   71.1639  219.5749 H   0  0  0  0  0  0  0  0  0  0  0  0
  136.5449   69.6039  220.8799 H   0  0  0  0  0  0  0  0  0  0  0  0
  138.2294   69.3516  221.2635 H   0  0  0  0  0  0  0  0  0  0  0  0
  136.1451   69.9596  223.1270 H   0  0  0  0  0  0  0  0  0  0  0  0
  137.8738   70.0579  223.5014 H   0  0  0  0  0  0  0  0  0  0  0  0
  136.1565   72.2760  223.5266 H   0  0  0  0  0  0  0  0  0  0  0  0
  137.8627   72.4655  223.2726 H   0  0  0  0  0  0  0  0  0  0  0  0
  135.6404   72.0906  221.0862 H   0  0  0  0  0  0  0  0  0  0  0  0
  137.4914   73.7460  220.1489 H   0  0  0  0  0  0  0  0  0  0  0  0
  135.9040   74.1512  220.9417 H   0  0  0  0  0  0  0  0  0  0  0  0
  138.2240   73.8740  222.6850 H   0  0  0  0  0  0  0  0  0  0  0  0
  136.7169   76.0984  221.4923 H   0  0  0  0  0  0  0  0  0  0  0  0
  136.7767   75.6614  223.3338 H   0  0  0  0  0  0  0  0  0  0  0  0
  139.8742   75.2527  222.0532 H   0  0  0  0  0  0  0  0  0  0  0  0
  141.7124   76.8750  222.3757 H   0  0  0  0  0  0  0  0  0  0  0  0
  142.8880   82.1919  224.3401 H   0  0  0  0  0  0  0  0  0  0  0  0
  144.5445   80.6520  222.8899 H   0  0  0  0  0  0  0  0  0  0  0  0
  143.2050   78.5410  222.0890 H   0  0  0  0  0  0  0  0  0  0  0  0
  138.9438   79.9409  223.5334 H   0  0  0  0  0  0  0  0  0  0  0  0
  137.0491   78.3390  223.2176 H   0  0  0  0  0  0  0  0  0  0  0  0
  141.1687   72.9555  224.9718 H   0  0  0  0  0  0  0  0  0  0  0  0
  141.4111   72.0661  227.2544 H   0  0  0  0  0  0  0  0  0  0  0  0
  141.1581   70.2462  228.7776 H   0  0  0  0  0  0  0  0  0  0  0  0
  139.5550   66.4995  227.3586 H   0  0  0  0  0  0  0  0  0  0  0  0
  139.3375   67.4511  225.0901 H   0  0  0  0  0  0  0  0  0  0  0  0
  1  2  2  0
  2  3  1  0
  3  4  1  0
  4  5  1  0
  5  6  2  0
  5  7  1  0
  7  8  1  0
  8  9  1  0
  9 10  1  0
 10 11  1  0
 11 12  1  0
 12 13  1  0
 13 14  1  0
 14 15  1  0
 15 16  2  0
 16 17  1  0
 17 18  2  0
 18 19  1  0
 19 20  2  0
 20 21  1  0
 21 22  2  0
 22 23  1  0
 18 24  1  0
 24 25  2  0
  2 26  1  0
 26 27  2  0
 27 28  1  0
 28 29  2  0
 29 30  1  0
 30 31  2  0
 31 32  1  0
 31 33  1  0
 33 34  2  0
 34 35  1  0
 35 36  2  0
 11  7  1  0
 25 15  1  0
 36 26  1  0
 23 19  1  0
 35 29  1  0
  3 37  1  0
  4 38  1  0
  4 39  1  0
  8 40  1  0
  8 41  1  0
  9 42  1  0
  9 43  1  0
 10 44  1  0
 10 45  1  0
 11 46  1  6
 12 47  1  0
 12 48  1  0
 13 49  1  0
 14 50  1  0
 14 51  1  0
 16 52  1  0
 17 53  1  0
 21 54  1  0
 22 55  1  0
 23 56  1  0
 24 57  1  0
 25 58  1  0
 27 59  1  0
 28 60  1  0
 30 61  1  0
 33 62  1  0
 34 63  1  0
M  END
>  <smiles>  (1) 
O=C(NCC(=O)N1CCC[C@H]1CNCc1ccc(-c2ncc[nH]2)cc1)c1ccc2cc(F)ccc2n1

>  <score_type>  (1) 
oracle

>  <origin>  (1) 
autodockgpu

>  <m_score__min__energy>  (1) 
-9.5700000000000003

>  <m_primary>  (1) 
energy

>  <rmsd>  (1) 
5.1019146831507625

>  <m_score__min__rmsd>  (1) 
5.1019146831507625

>  <meeko>  (1) 
{"free_energy": -8.87, "intermolecular_energy": -11.56, "internal_energy": -3.18, "cluster_size": 16, "cluster_id": 3, "rank_in_cluster": 2}

>  <energy>  (1) 
-9.57

>  <cluster_rmsd>  (1) 
0.0

>  <cluster>  (1) 
1

$$$$

     RDKit          3D

 63 67  0  0  0  0  0  0  0  0999 V2000
  139.9470   73.3720  222.3950 O   0  0  0  0  0  0  0  0  0  0  0  0
  139.7980   72.1070  222.2800 C   0  0  0  0  0  0  0  0  0  0  0  0
  139.5330   71.5710  220.9990 N   0  0  0  0  0  0  0  0  0  0  0  0
  139.4460   72.4940  219.8620 C   0  0  0  0  0  0  0  0  0  0  0  0
  138.0360   72.8790  219.6050 C   0  0  0  0  0  0  0  0  0  0  0  0
  137.1710   72.5400  220.4520 O   0  0  0  0  0  0  0  0  0  0  0  0
  137.7430   73.6050  218.4230 N   0  0  0  0  0  0  0  0  0  0  0  0
  137.2890   73.1050  217.1240 C   0  0  0  0  0  0  0  0  0  0  0  0
  136.2480   74.1400  216.7260 C   0  0  0  0  0  0  0  0  0  0  0  0
  136.3940   75.2940  217.7260 C   0  0  0  0  0  0  0  0  0  0  0  0
  137.8200   75.0650  218.2130 C   0  0  1  0  0  0  0  0  0  0  0  0
  138.1160   75.7930  219.4680 C   0  0  0  0  0  0  0  0  0  0  0  0
  137.3650   75.3160  220.5590 N   0  0  0  0  0  0  0  0  0  0  0  0
  137.5670   75.8010  221.8450 C   0  0  0  0  0  0  0  0  0  0  0  0
  138.6650   76.7150  222.1560 C   0  0  0  0  0  0  0  0  0  0  0  0
  138.3300   78.0480  222.4190 C   0  0  0  0  0  0  0  0  0  0  0  0
  139.3390   78.9230  222.7650 C   0  0  0  0  0  0  0  0  0  0  0  0
  140.6620   78.5290  222.8580 C   0  0  0  0  0  0  0  0  0  0  0  0
  141.7040   79.4810  223.2250 C   0  0  0  0  0  0  0  0  0  0  0  0
  141.5020   80.5820  223.9940 N   0  0  0  0  0  0  0  0  0  0  0  0
  142.6620   81.2630  224.1550 C   0  0  0  0  0  0  0  0  0  0  0  0
  143.6080   80.5370  223.4490 C   0  0  0  0  0  0  0  0  0  0  0  0
  143.0250   79.4510  222.8800 N   0  0  0  0  0  0  0  0  0  0  0  0
  141.0010   77.2110  222.6000 C   0  0  0  0  0  0  0  0  0  0  0  0
  140.0050   76.2950  222.2470 C   0  0  0  0  0  0  0  0  0  0  0  0
  139.9080   71.2770  223.4780 C   0  0  0  0  0  0  0  0  0  0  0  0
  139.4910   69.9650  223.4450 C   0  0  0  0  0  0  0  0  0  0  0  0
  139.5560   69.1140  224.5270 C   0  0  0  0  0  0  0  0  0  0  0  0
  140.0700   69.6060  225.7160 C   0  0  0  0  0  0  0  0  0  0  0  0
  140.1430   68.7810  226.8000 C   0  0  0  0  0  0  0  0  0  0  0  0
  140.6630   69.2910  227.9920 C   0  0  0  0  0  0  0  0  0  0  0  0
  140.7490   68.4930  229.0840 F   0  0  0  0  0  0  0  0  0  0  0  0
  141.0880   70.6020  228.0520 C   0  0  0  0  0  0  0  0  0  0  0  0
  141.0010   71.4140  226.9360 C   0  0  0  0  0  0  0  0  0  0  0  0
  140.4870   70.9370  225.7330 C   0  0  0  0  0  0  0  0  0  0  0  0
  140.4020   71.7280  224.6440 N   0  0  0  0  0  0  0  0  0  0  0  0
  139.4080   70.5460  220.8990 H   0  0  0  0  0  0  0  0  0  0  0  0
  140.0321   73.3978  220.0850 H   0  0  0  0  0  0  0  0  0  0  0  0
  139.8439   71.9918  218.9678 H   0  0  0  0  0  0  0  0  0  0  0  0
  138.1154   73.0715  216.3988 H   0  0  0  0  0  0  0  0  0  0  0  0
  136.8983   72.0773  217.1589 H   0  0  0  0  0  0  0  0  0  0  0  0
  136.4350   74.4958  215.7021 H   0  0  0  0  0  0  0  0  0  0  0  0
  135.2326   73.7174  216.7445 H   0  0  0  0  0  0  0  0  0  0  0  0
  136.2853   76.2723  217.2350 H   0  0  0  0  0  0  0  0  0  0  0  0
  135.6355   75.3075  218.5225 H   0  0  0  0  0  0  0  0  0  0  0  0
  138.6144   75.4145  217.5372 H   0  0  0  0  0  0  0  0  0  0  0  0
  139.1853   75.6776  219.6987 H   0  0  0  0  0  0  0  0  0  0  0  0
  137.8466   76.8482  219.3132 H   0  0  0  0  0  0  0  0  0  0  0  0
  136.6060   74.6480  220.3770 H   0  0  0  0  0  0  0  0  0  0  0  0
  136.6406   76.3219  222.1286 H   0  0  0  0  0  0  0  0  0  0  0  0
  137.8535   74.8932  222.3962 H   0  0  0  0  0  0  0  0  0  0  0  0
  137.2867   78.3901  222.3515 H   0  0  0  0  0  0  0  0  0  0  0  0
  139.0823   79.9719  222.9745 H   0  0  0  0  0  0  0  0  0  0  0  0
  142.8191   82.1916  224.7233 H   0  0  0  0  0  0  0  0  0  0  0  0
  144.6723   80.8012  223.3626 H   0  0  0  0  0  0  0  0  0  0  0  0
  143.5000   78.7160  222.2840 H   0  0  0  0  0  0  0  0  0  0  0  0
  142.0494   76.8861  222.6725 H   0  0  0  0  0  0  0  0  0  0  0  0
  140.2688   75.2472  222.0406 H   0  0  0  0  0  0  0  0  0  0  0  0
  139.0828   69.5740  222.5013 H   0  0  0  0  0  0  0  0  0  0  0  0
  139.2094   68.0729  224.4489 H   0  0  0  0  0  0  0  0  0  0  0  0
  139.8001   67.7377  226.7369 H   0  0  0  0  0  0  0  0  0  0  0  0
  141.4976   71.0029  228.9909 H   0  0  0  0  0  0  0  0  0  0  0  0
  141.3445   72.4570  226.9999 H   0  0  0  0  0  0  0  0  0  0  0  0
  1  2  2  0
  2  3  1  0
  3  4  1  0
  4  5  1  0
  5  6  2  0
  5  7  1  0
  7  8  1  0
  8  9  1  0
  9 10  1  0
 10 11  1  0
 11 12  1  0
 12 13  1  0
 13 14  1  0
 14 15  1  0
 15 16  2  0
 16 17  1  0
 17 18  2  0
 18 19  1  0
 19 20  2  0
 20 21  1  0
 21 22  2  0
 22 23  1  0
 18 24  1  0
 24 25  2  0
  2 26  1  0
 26 27  2  0
 27 28  1  0
 28 29  2  0
 29 30  1  0
 30 31  2  0
 31 32  1  0
 31 33  1  0
 33 34  2  0
 34 35  1  0
 35 36  2  0
 11  7  1  0
 25 15  1  0
 36 26  1  0
 23 19  1  0
 35 29  1  0
  3 37  1  0
  4 38  1  0
  4 39  1  0
  8 40  1  0
  8 41  1  0
  9 42  1  0
  9 43  1  0
 10 44  1  0
 10 45  1  0
 11 46  1  6
 12 47  1  0
 12 48  1  0
 13 49  1  0
 14 50  1  0
 14 51  1  0
 16 52  1  0
 17 53  1  0
 21 54  1  0
 22 55  1  0
 23 56  1  0
 24 57  1  0
 25 58  1  0
 27 59  1  0
 28 60  1  0
 30 61  1  0
 33 62  1  0
 34 63  1  0
M  END
>  <smiles>  (2) 
O=C(NCC(=O)N1CCC[C@H]1CNCc1ccc(-c2ncc[nH]2)cc1)c1ccc2cc(F)ccc2n1

>  <score_type>  (2) 
oracle

>  <origin>  (2) 
autodockgpu

>  <m_score__min__energy>  (2) 
-9.5700000000000003

>  <m_primary>  (2) 
energy

>  <rmsd>  (2) 
3.54114145859782

>  <m_score__min__rmsd>  (2) 
3.54114145859782

>  <meeko>  (2) 
{"free_energy": -7.89, "intermolecular_energy": -10.57, "internal_energy": -2.43, "cluster_size": 16, "cluster_id": 3, "rank_in_cluster": 15}

>  <energy>  (2) 
-9.44

>  <cluster_rmsd>  (2) 
1.28

>  <cluster>  (2) 
1

$$$$

     RDKit          3D

 63 67  0  0  0  0  0  0  0  0999 V2000
  141.0930   71.7050  221.1410 O   0  0  0  0  0  0  0  0  0  0  0  0
  140.7800   72.6520  221.9420 C   0  0  0  0  0  0  0  0  0  0  0  0
  140.2400   72.3170  223.2050 N   0  0  0  0  0  0  0  0  0  0  0  0
  140.0680   70.8990  223.5360 C   0  0  0  0  0  0  0  0  0  0  0  0
  140.1860   70.6830  225.0000 C   0  0  0  0  0  0  0  0  0  0  0  0
  140.0640   71.6830  225.7530 O   0  0  0  0  0  0  0  0  0  0  0  0
  140.4300   69.3670  225.4670 N   0  0  0  0  0  0  0  0  0  0  0  0
  141.6130   68.8330  226.1420 C   0  0  0  0  0  0  0  0  0  0  0  0
  141.0000   67.9370  227.2080 C   0  0  0  0  0  0  0  0  0  0  0  0
  139.5080   67.8370  226.8700 C   0  0  0  0  0  0  0  0  0  0  0  0
  139.5300   68.1970  225.3890 C   0  0  1  0  0  0  0  0  0  0  0  0
  138.1910   68.5580  224.8710 C   0  0  0  0  0  0  0  0  0  0  0  0
  138.0270   68.2200  223.5140 N   0  0  0  0  0  0  0  0  0  0  0  0
  137.1020   68.8750  222.7110 C   0  0  0  0  0  0  0  0  0  0  0  0
  137.1010   70.3300  222.5710 C   0  0  0  0  0  0  0  0  0  0  0  0
  137.6160   70.8570  221.3820 C   0  0  0  0  0  0  0  0  0  0  0  0
  137.5830   72.2240  221.2000 C   0  0  0  0  0  0  0  0  0  0  0  0
  137.0620   73.0850  222.1490 C   0  0  0  0  0  0  0  0  0  0  0  0
  137.0450   74.5260  221.9240 C   0  0  0  0  0  0  0  0  0  0  0  0
  136.1480   75.1700  221.1340 N   0  0  0  0  0  0  0  0  0  0  0  0
  136.3940   76.5020  221.1300 C   0  0  0  0  0  0  0  0  0  0  0  0
  137.4910   76.6690  221.9590 C   0  0  0  0  0  0  0  0  0  0  0  0
  137.8910   75.4650  222.4450 N   0  0  0  0  0  0  0  0  0  0  0  0
  136.5510   72.5720  223.3290 C   0  0  0  0  0  0  0  0  0  0  0  0
  136.5670   71.1900  223.5480 C   0  0  0  0  0  0  0  0  0  0  0  0
  140.9960   74.0320  221.5140 C   0  0  0  0  0  0  0  0  0  0  0  0
  141.5140   74.2910  220.2660 C   0  0  0  0  0  0  0  0  0  0  0  0
  141.7530   75.5610  219.7850 C   0  0  0  0  0  0  0  0  0  0  0  0
  141.4540   76.6370  220.6030 C   0  0  0  0  0  0  0  0  0  0  0  0
  141.6830   77.9020  220.1470 C   0  0  0  0  0  0  0  0  0  0  0  0
  141.3770   78.9790  220.9840 C   0  0  0  0  0  0  0  0  0  0  0  0
  141.5930   80.2460  220.5550 F   0  0  0  0  0  0  0  0  0  0  0  0
  140.8570   78.7460  222.2400 C   0  0  0  0  0  0  0  0  0  0  0  0
  140.6360   77.4530  222.6740 C   0  0  0  0  0  0  0  0  0  0  0  0
  140.9300   76.3590  221.8650 C   0  0  0  0  0  0  0  0  0  0  0  0
  140.7160   75.0960  222.2880 N   0  0  0  0  0  0  0  0  0  0  0  0
  139.9810   73.0810  223.8580 H   0  0  0  0  0  0  0  0  0  0  0  0
  139.0737   70.5683  223.2013 H   0  0  0  0  0  0  0  0  0  0  0  0
  140.8539   70.3200  223.0290 H   0  0  0  0  0  0  0  0  0  0  0  0
  142.2408   68.2547  225.4481 H   0  0  0  0  0  0  0  0  0  0  0  0
  142.2773   69.6101  226.5479 H   0  0  0  0  0  0  0  0  0  0  0  0
  141.4650   66.9404  227.1831 H   0  0  0  0  0  0  0  0  0  0  0  0
  141.1578   68.3457  228.2170 H   0  0  0  0  0  0  0  0  0  0  0  0
  139.1223   66.8200  227.0344 H   0  0  0  0  0  0  0  0  0  0  0  0
  138.8563   68.4745  227.4856 H   0  0  0  0  0  0  0  0  0  0  0  0
  139.8427   67.3910  224.7088 H   0  0  0  0  0  0  0  0  0  0  0  0
  137.4298   68.0266  225.4611 H   0  0  0  0  0  0  0  0  0  0  0  0
  138.0827   69.6492  224.9584 H   0  0  0  0  0  0  0  0  0  0  0  0
  138.6580   67.5220  223.1030 H   0  0  0  0  0  0  0  0  0  0  0  0
  137.2281   68.4667  221.6974 H   0  0  0  0  0  0  0  0  0  0  0  0
  136.1572   68.6900  223.2430 H   0  0  0  0  0  0  0  0  0  0  0  0
  138.0376   70.1966  220.6099 H   0  0  0  0  0  0  0  0  0  0  0  0
  137.9855   72.6445  220.2666 H   0  0  0  0  0  0  0  0  0  0  0  0
  135.8419   77.2825  220.5859 H   0  0  0  0  0  0  0  0  0  0  0  0
  137.9675   77.6332  222.1896 H   0  0  0  0  0  0  0  0  0  0  0  0
  138.7010   75.2820  223.1010 H   0  0  0  0  0  0  0  0  0  0  0  0
  136.1344   73.2475  224.0907 H   0  0  0  0  0  0  0  0  0  0  0  0
  136.1623   70.7763  224.4835 H   0  0  0  0  0  0  0  0  0  0  0  0
  141.7509   73.4365  219.6150 H   0  0  0  0  0  0  0  0  0  0  0  0
  142.1699   75.7149  218.7788 H   0  0  0  0  0  0  0  0  0  0  0  0
  142.0992   78.0709  219.1429 H   0  0  0  0  0  0  0  0  0  0  0  0
  140.6171   79.5933  222.8992 H   0  0  0  0  0  0  0  0  0  0  0  0
  140.2197   77.2848  223.6782 H   0  0  0  0  0  0  0  0  0  0  0  0
  1  2  2  0
  2  3  1  0
  3  4  1  0
  4  5  1  0
  5  6  2  0
  5  7  1  0
  7  8  1  0
  8  9  1  0
  9 10  1  0
 10 11  1  0
 11 12  1  0
 12 13  1  0
 13 14  1  0
 14 15  1  0
 15 16  2  0
 16 17  1  0
 17 18  2  0
 18 19  1  0
 19 20  2  0
 20 21  1  0
 21 22  2  0
 22 23  1  0
 18 24  1  0
 24 25  2  0
  2 26  1  0
 26 27  2  0
 27 28  1  0
 28 29  2  0
 29 30  1  0
 30 31  2  0
 31 32  1  0
 31 33  1  0
 33 34  2  0
 34 35  1  0
 35 36  2  0
 11  7  1  0
 25 15  1  0
 36 26  1  0
 23 19  1  0
 35 29  1  0
  3 37  1  0
  4 38  1  0
  4 39  1  0
  8 40  1  0
  8 41  1  0
  9 42  1  0
  9 43  1  0
 10 44  1  0
 10 45  1  0
 11 46  1  6
 12 47  1  0
 12 48  1  0
 13 49  1  0
 14 50  1  0
 14 51  1  0
 16 52  1  0
 17 53  1  0
 21 54  1  0
 22 55  1  0
 23 56  1  0
 24 57  1  0
 25 58  1  0
 27 59  1  0
 28 60  1  0
 30 61  1  0
 33 62  1  0
 34 63  1  0
M  END
>  <smiles>  (3) 
O=C(NCC(=O)N1CCC[C@H]1CNCc1ccc(-c2ncc[nH]2)cc1)c1ccc2cc(F)ccc2n1

>  <score_type>  (3) 
oracle

>  <origin>  (3) 
autodockgpu

>  <m_score__min__energy>  (3) 
-9.5700000000000003

>  <m_primary>  (3) 
energy

>  <rmsd>  (3) 
9.649799440729655

>  <m_score__min__rmsd>  (3) 
9.649799440729655

>  <meeko>  (3) 
{"free_energy": -6.34, "intermolecular_energy": -9.03, "internal_energy": -4.27, "cluster_size": 1, "cluster_id": 15, "rank_in_cluster": 1}

>  <energy>  (3) 
-8.91

>  <cluster_rmsd>  (3) 
0.67

>  <cluster>  (3) 
1

$$$$

     RDKit          3D

 63 67  0  0  0  0  0  0  0  0999 V2000
  141.4680   77.7550  217.4480 O   0  0  0  0  0  0  0  0  0  0  0  0
  142.1000   77.4740  218.5240 C   0  0  0  0  0  0  0  0  0  0  0  0
  141.9970   78.3620  219.6200 N   0  0  0  0  0  0  0  0  0  0  0  0
  141.1650   79.5600  219.4690 C   0  0  0  0  0  0  0  0  0  0  0  0
  140.8250   80.1340  220.7950 C   0  0  0  0  0  0  0  0  0  0  0  0
  139.7660   80.8040  220.8910 O   0  0  0  0  0  0  0  0  0  0  0  0
  141.7120   79.8970  221.8760 N   0  0  0  0  0  0  0  0  0  0  0  0
  142.7120   80.7920  222.4610 C   0  0  0  0  0  0  0  0  0  0  0  0
  142.5480   80.5300  223.9500 C   0  0  0  0  0  0  0  0  0  0  0  0
  141.6390   79.3010  224.0670 C   0  0  0  0  0  0  0  0  0  0  0  0
  141.8380   78.6720  222.6930 C   0  0  1  0  0  0  0  0  0  0  0  0
  140.7930   77.6750  222.3660 C   0  0  0  0  0  0  0  0  0  0  0  0
  141.2740   76.6380  221.5440 N   0  0  0  0  0  0  0  0  0  0  0  0
  140.4120   75.7220  220.9550 C   0  0  0  0  0  0  0  0  0  0  0  0
  140.8340   74.3550  220.6540 C   0  0  0  0  0  0  0  0  0  0  0  0
  140.6170   73.8930  219.3510 C   0  0  0  0  0  0  0  0  0  0  0  0
  141.0500   72.6250  219.0240 C   0  0  0  0  0  0  0  0  0  0  0  0
  141.6850   71.8000  219.9340 C   0  0  0  0  0  0  0  0  0  0  0  0
  142.1280   70.4640  219.5540 C   0  0  0  0  0  0  0  0  0  0  0  0
  143.3600   69.9580  219.8200 N   0  0  0  0  0  0  0  0  0  0  0  0
  143.4640   68.6950  219.3400 C   0  0  0  0  0  0  0  0  0  0  0  0
  142.2360   68.4280  218.7580 C   0  0  0  0  0  0  0  0  0  0  0  0
  141.4190   69.5050  218.8860 N   0  0  0  0  0  0  0  0  0  0  0  0
  141.9030   72.2500  221.2250 C   0  0  0  0  0  0  0  0  0  0  0  0
  141.4790   73.5310  221.5940 C   0  0  0  0  0  0  0  0  0  0  0  0
  142.8980   76.2500  218.5700 C   0  0  0  0  0  0  0  0  0  0  0  0
  143.0740   75.5020  217.4280 C   0  0  0  0  0  0  0  0  0  0  0  0
  143.8070   74.3360  217.3830 C   0  0  0  0  0  0  0  0  0  0  0  0
  144.4000   73.8910  218.5520 C   0  0  0  0  0  0  0  0  0  0  0  0
  145.1290   72.7380  218.5310 C   0  0  0  0  0  0  0  0  0  0  0  0
  145.7220   72.3010  219.7180 C   0  0  0  0  0  0  0  0  0  0  0  0
  146.4530   71.1600  219.7250 F   0  0  0  0  0  0  0  0  0  0  0  0
  145.5610   73.0330  220.8770 C   0  0  0  0  0  0  0  0  0  0  0  0
  144.8160   74.1970  220.8670 C   0  0  0  0  0  0  0  0  0  0  0  0
  144.2120   74.6590  219.7010 C   0  0  0  0  0  0  0  0  0  0  0  0
  143.4840   75.7950  219.6910 N   0  0  0  0  0  0  0  0  0  0  0  0
  142.5100   78.1420  220.4940 H   0  0  0  0  0  0  0  0  0  0  0  0
  141.7150   80.3098  218.8814 H   0  0  0  0  0  0  0  0  0  0  0  0
  140.2332   79.2807  218.9554 H   0  0  0  0  0  0  0  0  0  0  0  0
  143.7256   80.5342  222.1202 H   0  0  0  0  0  0  0  0  0  0  0  0
  142.5767   81.8472  222.1814 H   0  0  0  0  0  0  0  0  0  0  0  0
  143.5255   80.3274  224.4121 H   0  0  0  0  0  0  0  0  0  0  0  0
  142.1164   81.4001  224.4663 H   0  0  0  0  0  0  0  0  0  0  0  0
  141.9684   78.6282  224.8725 H   0  0  0  0  0  0  0  0  0  0  0  0
  140.5926   79.5288  224.3181 H   0  0  0  0  0  0  0  0  0  0  0  0
  142.7678   78.0985  222.5640 H   0  0  0  0  0  0  0  0  0  0  0  0
  140.4180   77.2371  223.3028 H   0  0  0  0  0  0  0  0  0  0  0  0
  139.9960   78.1955  221.8147 H   0  0  0  0  0  0  0  0  0  0  0  0
  142.2770   76.6100  221.3270 H   0  0  0  0  0  0  0  0  0  0  0  0
  139.5445   75.6375  221.6260 H   0  0  0  0  0  0  0  0  0  0  0  0
  140.2659   76.1488  219.9518 H   0  0  0  0  0  0  0  0  0  0  0  0
  140.1132   74.5259  218.6056 H   0  0  0  0  0  0  0  0  0  0  0  0
  140.8840   72.2562  218.0010 H   0  0  0  0  0  0  0  0  0  0  0  0
  144.3354   68.0264  219.3997 H   0  0  0  0  0  0  0  0  0  0  0  0
  141.9629   67.4833  218.2650 H   0  0  0  0  0  0  0  0  0  0  0  0
  140.4230   69.5920  218.5390 H   0  0  0  0  0  0  0  0  0  0  0  0
  142.4075   71.6029  221.9576 H   0  0  0  0  0  0  0  0  0  0  0  0
  141.6499   73.8936  222.6184 H   0  0  0  0  0  0  0  0  0  0  0  0
  142.6029   75.8550  216.4988 H   0  0  0  0  0  0  0  0  0  0  0  0
  143.9179   73.7742  216.4438 H   0  0  0  0  0  0  0  0  0  0  0  0
  145.2473   72.1649  217.5996 H   0  0  0  0  0  0  0  0  0  0  0  0
  146.0273   72.6887  221.8119 H   0  0  0  0  0  0  0  0  0  0  0  0
  144.6980   74.7696  221.7987 H   0  0  0  0  0  0  0  0  0  0  0  0
  1  2  2  0
  2  3  1  0
  3  4  1  0
  4  5  1  0
  5  6  2  0
  5  7  1  0
  7  8  1  0
  8  9  1  0
  9 10  1  0
 10 11  1  0
 11 12  1  0
 12 13  1  0
 13 14  1  0
 14 15  1  0
 15 16  2  0
 16 17  1  0
 17 18  2  0
 18 19  1  0
 19 20  2  0
 20 21  1  0
 21 22  2  0
 22 23  1  0
 18 24  1  0
 24 25  2  0
  2 26  1  0
 26 27  2  0
 27 28  1  0
 28 29  2  0
 29 30  1  0
 30 31  2  0
 31 32  1  0
 31 33  1  0
 33 34  2  0
 34 35  1  0
 35 36  2  0
 11  7  1  0
 25 15  1  0
 36 26  1  0
 23 19  1  0
 35 29  1  0
  3 37  1  0
  4 38  1  0
  4 39  1  0
  8 40  1  0
  8 41  1  0
  9 42  1  0
  9 43  1  0
 10 44  1  0
 10 45  1  0
 11 46  1  1
 12 47  1  0
 12 48  1  0
 13 49  1  0
 14 50  1  0
 14 51  1  0
 16 52  1  0
 17 53  1  0
 21 54  1  0
 22 55  1  0
 23 56  1  0
 24 57  1  0
 25 58  1  0
 27 59  1  0
 28 60  1  0
 30 61  1  0
 33 62  1  0
 34 63  1  0
M  END
>  <smiles>  (4) 
O=C(NCC(=O)N1CCC[C@H]1CNCc1ccc(-c2ncc[nH]2)cc1)c1ccc2cc(F)ccc2n1

>  <score_type>  (4) 
oracle

>  <origin>  (4) 
autodockgpu

>  <m_score__min__energy>  (4) 
-9.5700000000000003

>  <m_primary>  (4) 
energy

>  <rmsd>  (4) 
8.10562209423775

>  <m_score__min__rmsd>  (4) 
8.10562209423775

>  <meeko>  (4) 
{"free_energy": -6.34, "intermolecular_energy": -9.02, "internal_energy": -5.07, "cluster_size": 5, "cluster_id": 16, "rank_in_cluster": 1}

>  <energy>  (4) 
-8.69

>  <cluster_rmsd>  (4) 
0.72

>  <cluster>  (4) 
1

$$$$

     RDKit          3D

 63 67  0  0  0  0  0  0  0  0999 V2000
  139.9370   73.6480  222.5200 O   0  0  0  0  0  0  0  0  0  0  0  0
  140.0700   72.3870  222.3620 C   0  0  0  0  0  0  0  0  0  0  0  0
  140.2500   71.8850  221.0520 N   0  0  0  0  0  0  0  0  0  0  0  0
  140.2780   72.8390  219.9380 C   0  0  0  0  0  0  0  0  0  0  0  0
  138.9210   73.3830  219.6800 C   0  0  0  0  0  0  0  0  0  0  0  0
  138.1500   72.7150  218.9450 O   0  0  0  0  0  0  0  0  0  0  0  0
  138.5710   74.6240  220.2710 N   0  0  0  0  0  0  0  0  0  0  0  0
  139.1440   75.9500  220.0370 C   0  0  0  0  0  0  0  0  0  0  0  0
  137.9080   76.8380  220.0270 C   0  0  0  0  0  0  0  0  0  0  0  0
  136.7530   75.9610  220.5250 C   0  0  0  0  0  0  0  0  0  0  0  0
  137.5230   74.8830  221.2790 C   0  0  1  0  0  0  0  0  0  0  0  0
  136.7020   73.6810  221.5500 C   0  0  0  0  0  0  0  0  0  0  0  0
  136.9540   73.1280  222.8200 N   0  0  0  0  0  0  0  0  0  0  0  0
  135.9300   72.6090  223.6010 C   0  0  0  0  0  0  0  0  0  0  0  0
  135.1880   73.4420  224.5460 C   0  0  0  0  0  0  0  0  0  0  0  0
  135.4620   74.8140  224.5390 C   0  0  0  0  0  0  0  0  0  0  0  0
  134.7420   75.6320  225.3850 C   0  0  0  0  0  0  0  0  0  0  0  0
  133.7670   75.1440  226.2340 C   0  0  0  0  0  0  0  0  0  0  0  0
  133.0260   76.0390  227.1170 C   0  0  0  0  0  0  0  0  0  0  0  0
  133.3770   77.3240  227.3790 N   0  0  0  0  0  0  0  0  0  0  0  0
  132.4910   77.8900  228.2330 C   0  0  0  0  0  0  0  0  0  0  0  0
  131.5610   76.8970  228.4990 C   0  0  0  0  0  0  0  0  0  0  0  0
  131.8860   75.7670  227.8190 N   0  0  0  0  0  0  0  0  0  0  0  0
  133.4890   73.7880  226.2470 C   0  0  0  0  0  0  0  0  0  0  0  0
  134.1980   72.9270  225.4030 C   0  0  0  0  0  0  0  0  0  0  0  0
  140.0310   71.5240  223.5410 C   0  0  0  0  0  0  0  0  0  0  0  0
  139.4270   70.2900  223.4690 C   0  0  0  0  0  0  0  0  0  0  0  0
  139.3420   69.4160  224.5320 C   0  0  0  0  0  0  0  0  0  0  0  0
  139.8970   69.8020  225.7410 C   0  0  0  0  0  0  0  0  0  0  0  0
  139.8240   68.9530  226.8060 C   0  0  0  0  0  0  0  0  0  0  0  0
  140.3880   69.3550  228.0200 C   0  0  0  0  0  0  0  0  0  0  0  0
  140.3320   68.5310  229.0940 F   0  0  0  0  0  0  0  0  0  0  0  0
  141.0000   70.5880  228.1180 C   0  0  0  0  0  0  0  0  0  0  0  0
  141.0580   71.4270  227.0210 C   0  0  0  0  0  0  0  0  0  0  0  0
  140.5050   71.0550  225.7980 C   0  0  0  0  0  0  0  0  0  0  0  0
  140.5610   71.8730  224.7270 N   0  0  0  0  0  0  0  0  0  0  0  0
  140.3550   70.8620  220.9160 H   0  0  0  0  0  0  0  0  0  0  0  0
  140.9575   73.6670  220.1884 H   0  0  0  0  0  0  0  0  0  0  0  0
  140.6283   72.3182  219.0346 H   0  0  0  0  0  0  0  0  0  0  0  0
  139.8331   76.2349  220.8457 H   0  0  0  0  0  0  0  0  0  0  0  0
  139.7422   76.0160  219.1162 H   0  0  0  0  0  0  0  0  0  0  0  0
  138.0505   77.6988  220.6968 H   0  0  0  0  0  0  0  0  0  0  0  0
  137.7066   77.2366  219.0217 H   0  0  0  0  0  0  0  0  0  0  0  0
  136.0785   76.5187  221.1914 H   0  0  0  0  0  0  0  0  0  0  0  0
  136.0929   75.5807  219.7315 H   0  0  0  0  0  0  0  0  0  0  0  0
  137.8761   75.1654  222.2818 H   0  0  0  0  0  0  0  0  0  0  0  0
  135.6395   73.9597  221.4917 H   0  0  0  0  0  0  0  0  0  0  0  0
  136.9644   72.9220  220.7982 H   0  0  0  0  0  0  0  0  0  0  0  0
  137.9290   73.0500  223.1350 H   0  0  0  0  0  0  0  0  0  0  0  0
  135.1870   72.1961  222.9028 H   0  0  0  0  0  0  0  0  0  0  0  0
  136.4695   71.9208  224.2683 H   0  0  0  0  0  0  0  0  0  0  0  0
  136.2334   75.2306  223.8746 H   0  0  0  0  0  0  0  0  0  0  0  0
  134.9516   76.7118  225.3837 H   0  0  0  0  0  0  0  0  0  0  0  0
  132.5062   78.9159  228.6297 H   0  0  0  0  0  0  0  0  0  0  0  0
  130.6900   77.0076  229.1617 H   0  0  0  0  0  0  0  0  0  0  0  0
  131.3600   74.8480  227.8280 H   0  0  0  0  0  0  0  0  0  0  0  0
  132.7139   73.3894  226.9181 H   0  0  0  0  0  0  0  0  0  0  0  0
  133.9819   71.8485  225.4092 H   0  0  0  0  0  0  0  0  0  0  0  0
  138.9868   69.9832  222.5087 H   0  0  0  0  0  0  0  0  0  0  0  0
  138.8473   68.4396  224.4230 H   0  0  0  0  0  0  0  0  0  0  0  0
  139.3322   67.9736  226.7116 H   0  0  0  0  0  0  0  0  0  0  0  0
  141.4437   70.9046  229.0735 H   0  0  0  0  0  0  0  0  0  0  0  0
  141.5499   72.4063  227.1156 H   0  0  0  0  0  0  0  0  0  0  0  0
  1  2  2  0
  2  3  1  0
  3  4  1  0
  4  5  1  0
  5  6  2  0
  5  7  1  0
  7  8  1  0
  8  9  1  0
  9 10  1  0
 10 11  1  0
 11 12  1  0
 12 13  1  0
 13 14  1  0
 14 15  1  0
 15 16  2  0
 16 17  1  0
 17 18  2  0
 18 19  1  0
 19 20  2  0
 20 21  1  0
 21 22  2  0
 22 23  1  0
 18 24  1  0
 24 25  2  0
  2 26  1  0
 26 27  2  0
 27 28  1  0
 28 29  2  0
 29 30  1  0
 30 31  2  0
 31 32  1  0
 31 33  1  0
 33 34  2  0
 34 35  1  0
 35 36  2  0
 11  7  1  0
 25 15  1  0
 36 26  1  0
 23 19  1  0
 35 29  1  0
  3 37  1  0
  4 38  1  0
  4 39  1  0
  8 40  1  0
  8 41  1  0
  9 42  1  0
  9 43  1  0
 10 44  1  0
 10 45  1  0
 11 46  1  1
 12 47  1  0
 12 48  1  0
 13 49  1  0
 14 50  1  0
 14 51  1  0
 16 52  1  0
 17 53  1  0
 21 54  1  0
 22 55  1  0
 23 56  1  0
 24 57  1  0
 25 58  1  0
 27 59  1  0
 28 60  1  0
 30 61  1  0
 33 62  1  0
 34 63  1  0
M  END
>  <smiles>  (5) 
O=C(NCC(=O)N1CCC[C@H]1CNCc1ccc(-c2ncc[nH]2)cc1)c1ccc2cc(F)ccc2n1

>  <score_type>  (5) 
oracle

>  <origin>  (5) 
autodockgpu

>  <m_score__min__energy>  (5) 
-9.5700000000000003

>  <m_primary>  (5) 
energy

>  <rmsd>  (5) 
5.681428535161996

>  <m_score__min__rmsd>  (5) 
5.681428535161996

>  <meeko>  (5) 
{"free_energy": -7.3, "intermolecular_energy": -9.99, "internal_energy": -2.83, "cluster_size": 2, "cluster_id": 6, "rank_in_cluster": 2}

>  <energy>  (5) 
-8.23

>  <cluster_rmsd>  (5) 
1.36

>  <cluster>  (5) 
1

$$$$

     RDKit          3D

 63 67  0  0  0  0  0  0  0  0999 V2000
  143.2860   74.0330  219.9380 O   0  0  0  0  0  0  0  0  0  0  0  0
  142.2000   74.6680  219.7060 C   0  0  0  0  0  0  0  0  0  0  0  0
  140.9700   74.0200  219.9620 N   0  0  0  0  0  0  0  0  0  0  0  0
  141.0000   72.6500  220.4850 C   0  0  0  0  0  0  0  0  0  0  0  0
  140.3160   72.5750  221.8000 C   0  0  0  0  0  0  0  0  0  0  0  0
  140.6980   73.3580  222.7070 O   0  0  0  0  0  0  0  0  0  0  0  0
  139.2740   71.6260  221.9620 N   0  0  0  0  0  0  0  0  0  0  0  0
  139.3350   70.2790  222.5300 C   0  0  0  0  0  0  0  0  0  0  0  0
  138.0540   70.2160  223.3480 C   0  0  0  0  0  0  0  0  0  0  0  0
  137.2390   71.4540  222.9550 C   0  0  0  0  0  0  0  0  0  0  0  0
  137.8500   71.7730  221.5960 C   0  0  1  0  0  0  0  0  0  0  0  0
  137.5320   73.1450  221.1370 C   0  0  0  0  0  0  0  0  0  0  0  0
  138.0540   74.1350  221.9900 N   0  0  0  0  0  0  0  0  0  0  0  0
  137.7990   75.4830  221.7760 C   0  0  0  0  0  0  0  0  0  0  0  0
  138.7490   76.5180  222.1840 C   0  0  0  0  0  0  0  0  0  0  0  0
  140.0830   76.1310  222.3470 C   0  0  0  0  0  0  0  0  0  0  0  0
  141.0110   77.0950  222.6830 C   0  0  0  0  0  0  0  0  0  0  0  0
  140.6670   78.4220  222.8660 C   0  0  0  0  0  0  0  0  0  0  0  0
  141.6740   79.4150  223.2230 C   0  0  0  0  0  0  0  0  0  0  0  0
  141.4260   80.5300  223.9580 N   0  0  0  0  0  0  0  0  0  0  0  0
  142.5620   81.2490  224.1200 C   0  0  0  0  0  0  0  0  0  0  0  0
  143.5420   80.5330  223.4510 C   0  0  0  0  0  0  0  0  0  0  0  0
  143.0020   79.4140  222.9030 N   0  0  0  0  0  0  0  0  0  0  0  0
  139.3480   78.8130  222.7070 C   0  0  0  0  0  0  0  0  0  0  0  0
  138.3800   77.8630  222.3650 C   0  0  0  0  0  0  0  0  0  0  0  0
  142.2830   76.0330  219.1880 C   0  0  0  0  0  0  0  0  0  0  0  0
  142.8860   76.2710  217.9750 C   0  0  0  0  0  0  0  0  0  0  0  0
  143.0100   77.5250  217.4150 C   0  0  0  0  0  0  0  0  0  0  0  0
  142.4980   78.6060  218.1130 C   0  0  0  0  0  0  0  0  0  0  0  0
  142.6110   79.8560  217.5780 C   0  0  0  0  0  0  0  0  0  0  0  0
  142.0900   80.9370  218.2940 C   0  0  0  0  0  0  0  0  0  0  0  0
  142.1860   82.1890  217.7850 F   0  0  0  0  0  0  0  0  0  0  0  0
  141.4800   80.7250  219.5130 C   0  0  0  0  0  0  0  0  0  0  0  0
  141.3820   79.4460  220.0300 C   0  0  0  0  0  0  0  0  0  0  0  0
  141.8900   78.3480  219.3420 C   0  0  0  0  0  0  0  0  0  0  0  0
  141.7950   77.1000  219.8450 N   0  0  0  0  0  0  0  0  0  0  0  0
  140.0850   74.5280  219.7730 H   0  0  0  0  0  0  0  0  0  0  0  0
  140.4915   71.9813  219.7749 H   0  0  0  0  0  0  0  0  0  0  0  0
  142.0486   72.3438  220.6140 H   0  0  0  0  0  0  0  0  0  0  0  0
  139.3419   69.5133  221.7403 H   0  0  0  0  0  0  0  0  0  0  0  0
  140.2444   70.0893  223.1190 H   0  0  0  0  0  0  0  0  0  0  0  0
  137.4942   69.2992  223.1112 H   0  0  0  0  0  0  0  0  0  0  0  0
  138.2660   70.1997  224.4273 H   0  0  0  0  0  0  0  0  0  0  0  0
  136.1663   71.2243  222.8735 H   0  0  0  0  0  0  0  0  0  0  0  0
  137.2826   72.2793  223.6809 H   0  0  0  0  0  0  0  0  0  0  0  0
  137.4991   71.1506  220.7596 H   0  0  0  0  0  0  0  0  0  0  0  0
  137.9551   73.2872  220.1316 H   0  0  0  0  0  0  0  0  0  0  0  0
  136.4371   73.2504  221.1346 H   0  0  0  0  0  0  0  0  0  0  0  0
  138.5740   73.8380  222.8250 H   0  0  0  0  0  0  0  0  0  0  0  0
  137.6571   75.6030  220.6918 H   0  0  0  0  0  0  0  0  0  0  0  0
  136.9463   75.6699  222.4453 H   0  0  0  0  0  0  0  0  0  0  0  0
  140.3853   75.0822  222.2105 H   0  0  0  0  0  0  0  0  0  0  0  0
  142.0624   76.7975  222.8099 H   0  0  0  0  0  0  0  0  0  0  0  0
  142.6812   82.1970  224.6651 H   0  0  0  0  0  0  0  0  0  0  0  0
  144.5992   80.8271  223.3752 H   0  0  0  0  0  0  0  0  0  0  0  0
  143.5080   78.6770  222.3360 H   0  0  0  0  0  0  0  0  0  0  0  0
  139.0629   79.8659  222.8490 H   0  0  0  0  0  0  0  0  0  0  0  0
  137.3307   78.1677  222.2377 H   0  0  0  0  0  0  0  0  0  0  0  0
  143.2923   75.4125  217.4202 H   0  0  0  0  0  0  0  0  0  0  0  0
  143.5019   77.6629  216.4408 H   0  0  0  0  0  0  0  0  0  0  0  0
  143.1010   80.0094  216.6052 H   0  0  0  0  0  0  0  0  0  0  0  0
  141.0700   81.5764  220.0760 H   0  0  0  0  0  0  0  0  0  0  0  0
  140.8932   79.2936  221.0036 H   0  0  0  0  0  0  0  0  0  0  0  0
  1  2  2  0
  2  3  1  0
  3  4  1  0
  4  5  1  0
  5  6  2  0
  5  7  1  0
  7  8  1  0
  8  9  1  0
  9 10  1  0
 10 11  1  0
 11 12  1  0
 12 13  1  0
 13 14  1  0
 14 15  1  0
 15 16  2  0
 16 17  1  0
 17 18  2  0
 18 19  1  0
 19 20  2  0
 20 21  1  0
 21 22  2  0
 22 23  1  0
 18 24  1  0
 24 25  2  0
  2 26  1  0
 26 27  2  0
 27 28  1  0
 28 29  2  0
 29 30  1  0
 30 31  2  0
 31 32  1  0
 31 33  1  0
 33 34  2  0
 34 35  1  0
 35 36  2  0
 11  7  1  0
 25 15  1  0
 36 26  1  0
 23 19  1  0
 35 29  1  0
  3 37  1  0
  4 38  1  0
  4 39  1  0
  8 40  1  0
  8 41  1  0
  9 42  1  0
  9 43  1  0
 10 44  1  0
 10 45  1  0
 11 46  1  6
 12 47  1  0
 12 48  1  0
 13 49  1  0
 14 50  1  0
 14 51  1  0
 16 52  1  0
 17 53  1  0
 21 54  1  0
 22 55  1  0
 23 56  1  0
 24 57  1  0
 25 58  1  0
 27 59  1  0
 28 60  1  0
 30 61  1  0
 33 62  1  0
 34 63  1  0
M  END
>  <smiles>  (6) 
O=C(NCC(=O)N1CCC[C@H]1CNCc1ccc(-c2ncc[nH]2)cc1)c1ccc2cc(F)ccc2n1

>  <score_type>  (6) 
oracle

>  <origin>  (6) 
autodockgpu

>  <m_score__min__energy>  (6) 
-9.5700000000000003

>  <m_primary>  (6) 
energy

>  <rmsd>  (6) 
8.485781771983394

>  <m_score__min__rmsd>  (6) 
8.485781771983394

>  <meeko>  (6) 
{"free_energy": -7.5, "intermolecular_energy": -10.18, "internal_energy": -3.57, "cluster_size": 3, "cluster_id": 11, "rank_in_cluster": 1}

>  <energy>  (6) 
-9.0

>  <cluster_rmsd>  (6) 
0.0

>  <cluster>  (6) 
2

$$$$

     RDKit          3D

 63 67  0  0  0  0  0  0  0  0999 V2000
  139.9660   72.9980  222.7830 O   0  0  0  0  0  0  0  0  0  0  0  0
  140.0120   71.7230  222.8740 C   0  0  0  0  0  0  0  0  0  0  0  0
  139.8390   70.9540  221.7000 N   0  0  0  0  0  0  0  0  0  0  0  0
  139.6190   71.6590  220.4330 C   0  0  0  0  0  0  0  0  0  0  0  0
  138.1990   72.0750  220.3040 C   0  0  0  0  0  0  0  0  0  0  0  0
  137.9450   73.0790  219.5910 O   0  0  0  0  0  0  0  0  0  0  0  0
  137.2130   71.3210  220.9890 N   0  0  0  0  0  0  0  0  0  0  0  0
  136.7550   69.9550  220.7330 C   0  0  0  0  0  0  0  0  0  0  0  0
  136.6150   69.3930  222.1400 C   0  0  0  0  0  0  0  0  0  0  0  0
  136.7550   70.5890  223.0900 C   0  0  0  0  0  0  0  0  0  0  0  0
  136.4010   71.7360  222.1510 C   0  0  1  0  0  0  0  0  0  0  0  0
  136.8190   73.0540  222.6800 C   0  0  0  0  0  0  0  0  0  0  0  0
  136.5830   74.1020  221.7710 N   0  0  0  0  0  0  0  0  0  0  0  0
  136.4760   75.4200  222.1950 C   0  0  0  0  0  0  0  0  0  0  0  0
  137.6500   76.2810  222.3280 C   0  0  0  0  0  0  0  0  0  0  0  0
  137.4280   77.6090  222.7110 C   0  0  0  0  0  0  0  0  0  0  0  0
  138.5190   78.4320  222.8940 C   0  0  0  0  0  0  0  0  0  0  0  0
  139.8180   77.9920  222.7090 C   0  0  0  0  0  0  0  0  0  0  0  0
  140.9490   78.8910  222.9080 C   0  0  0  0  0  0  0  0  0  0  0  0
  140.9130   80.0130  223.6710 N   0  0  0  0  0  0  0  0  0  0  0  0
  142.1180   80.6320  223.6580 C   0  0  0  0  0  0  0  0  0  0  0  0
  142.9190   79.8430  222.8470 C   0  0  0  0  0  0  0  0  0  0  0  0
  142.2080   78.7810  222.3880 N   0  0  0  0  0  0  0  0  0  0  0  0
  140.0460   76.6800  222.3290 C   0  0  0  0  0  0  0  0  0  0  0  0
  138.9640   75.8160  222.1360 C   0  0  0  0  0  0  0  0  0  0  0  0
  140.2420   71.1230  224.1870 C   0  0  0  0  0  0  0  0  0  0  0  0
  140.7170   71.8950  225.2220 C   0  0  0  0  0  0  0  0  0  0  0  0
  140.9640   71.4100  226.4880 C   0  0  0  0  0  0  0  0  0  0  0  0
  140.7210   70.0690  226.7330 C   0  0  0  0  0  0  0  0  0  0  0  0
  140.9590   69.5670  227.9790 C   0  0  0  0  0  0  0  0  0  0  0  0
  140.7090   68.2120  228.2120 C   0  0  0  0  0  0  0  0  0  0  0  0
  140.9360   67.6880  229.4410 F   0  0  0  0  0  0  0  0  0  0  0  0
  140.2330   67.4160  227.1910 C   0  0  0  0  0  0  0  0  0  0  0  0
  140.0010   67.9530  225.9390 C   0  0  0  0  0  0  0  0  0  0  0  0
  140.2400   69.2990  225.6740 C   0  0  0  0  0  0  0  0  0  0  0  0
  140.0140   69.8240  224.4520 N   0  0  0  0  0  0  0  0  0  0  0  0
  139.8720   69.9200  221.7680 H   0  0  0  0  0  0  0  0  0  0  0  0
  140.2612   72.5514  220.4000 H   0  0  0  0  0  0  0  0  0  0  0  0
  139.8658   70.9806  219.6030 H   0  0  0  0  0  0  0  0  0  0  0  0
  135.7905   69.9504  220.2041 H   0  0  0  0  0  0  0  0  0  0  0  0
  137.4347   69.3747  220.0917 H   0  0  0  0  0  0  0  0  0  0  0  0
  135.6306   68.9185  222.2656 H   0  0  0  0  0  0  0  0  0  0  0  0
  137.3760   68.6254  222.3444 H   0  0  0  0  0  0  0  0  0  0  0  0
  136.0509   70.5224  223.9325 H   0  0  0  0  0  0  0  0  0  0  0  0
  137.7406   70.6787  223.5703 H   0  0  0  0  0  0  0  0  0  0  0  0
  135.3270   71.8806  221.9625 H   0  0  0  0  0  0  0  0  0  0  0  0
  136.2581   73.2565  223.6043 H   0  0  0  0  0  0  0  0  0  0  0  0
  137.9026   73.0105  222.8639 H   0  0  0  0  0  0  0  0  0  0  0  0
  136.5610   73.8840  220.7670 H   0  0  0  0  0  0  0  0  0  0  0  0
  135.8040   75.9208  221.4825 H   0  0  0  0  0  0  0  0  0  0  0  0
  136.1500   75.3048  223.2392 H   0  0  0  0  0  0  0  0  0  0  0  0
  136.4063   77.9874  222.8625 H   0  0  0  0  0  0  0  0  0  0  0  0
  138.3509   79.4757  223.1979 H   0  0  0  0  0  0  0  0  0  0  0  0
  142.3997   81.5594  224.1781 H   0  0  0  0  0  0  0  0  0  0  0  0
  143.9737   80.0469  222.6105 H   0  0  0  0  0  0  0  0  0  0  0  0
  142.5560   78.0110  221.7500 H   0  0  0  0  0  0  0  0  0  0  0  0
  141.0743   76.3191  222.1796 H   0  0  0  0  0  0  0  0  0  0  0  0
  139.1399   74.7730  221.8341 H   0  0  0  0  0  0  0  0  0  0  0  0
  140.9107   72.9603  225.0279 H   0  0  0  0  0  0  0  0  0  0  0  0
  141.3437   72.0699  227.2820 H   0  0  0  0  0  0  0  0  0  0  0  0
  141.3394   70.2147  228.7827 H   0  0  0  0  0  0  0  0  0  0  0  0
  140.0372   66.3492  227.3741 H   0  0  0  0  0  0  0  0  0  0  0  0
  139.6202   67.3046  225.1362 H   0  0  0  0  0  0  0  0  0  0  0  0
  1  2  2  0
  2  3  1  0
  3  4  1  0
  4  5  1  0
  5  6  2  0
  5  7  1  0
  7  8  1  0
  8  9  1  0
  9 10  1  0
 10 11  1  0
 11 12  1  0
 12 13  1  0
 13 14  1  0
 14 15  1  0
 15 16  2  0
 16 17  1  0
 17 18  2  0
 18 19  1  0
 19 20  2  0
 20 21  1  0
 21 22  2  0
 22 23  1  0
 18 24  1  0
 24 25  2  0
  2 26  1  0
 26 27  2  0
 27 28  1  0
 28 29  2  0
 29 30  1  0
 30 31  2  0
 31 32  1  0
 31 33  1  0
 33 34  2  0
 34 35  1  0
 35 36  2  0
 11  7  1  0
 25 15  1  0
 36 26  1  0
 23 19  1  0
 35 29  1  0
  3 37  1  0
  4 38  1  0
  4 39  1  0
  8 40  1  0
  8 41  1  0
  9 42  1  0
  9 43  1  0
 10 44  1  0
 10 45  1  0
 11 46  1  6
 12 47  1  0
 12 48  1  0
 13 49  1  0
 14 50  1  0
 14 51  1  0
 16 52  1  0
 17 53  1  0
 21 54  1  0
 22 55  1  0
 23 56  1  0
 24 57  1  0
 25 58  1  0
 27 59  1  0
 28 60  1  0
 30 61  1  0
 33 62  1  0
 34 63  1  0
M  END
>  <smiles>  (7) 
O=C(NCC(=O)N1CCC[C@H]1CNCc1ccc(-c2ncc[nH]2)cc1)c1ccc2cc(F)ccc2n1

>  <score_type>  (7) 
oracle

>  <origin>  (7) 
autodockgpu

>  <m_score__min__energy>  (7) 
-9.5700000000000003

>  <m_primary>  (7) 
energy

>  <rmsd>  (7) 
5.3733899074968505

>  <m_score__min__rmsd>  (7) 
5.3733899074968505

>  <meeko>  (7) 
{"free_energy": -7.92, "intermolecular_energy": -10.6, "internal_energy": -3.34, "cluster_size": 16, "cluster_id": 3, "rank_in_cluster": 14}

>  <energy>  (7) 
-8.9

>  <cluster_rmsd>  (7) 
0.0

>  <cluster>  (7) 
3

$$$$

     RDKit          3D

 63 67  0  0  0  0  0  0  0  0999 V2000
  135.5040   69.8190  224.7270 O   0  0  0  0  0  0  0  0  0  0  0  0
  135.9320   70.7840  224.0040 C   0  0  0  0  0  0  0  0  0  0  0  0
  136.8120   70.4910  222.9370 N   0  0  0  0  0  0  0  0  0  0  0  0
  137.1880   69.0920  222.7100 C   0  0  0  0  0  0  0  0  0  0  0  0
  138.4660   68.7740  223.3950 C   0  0  0  0  0  0  0  0  0  0  0  0
  139.1200   67.7790  222.9880 O   0  0  0  0  0  0  0  0  0  0  0  0
  138.8770   69.6040  224.4680 N   0  0  0  0  0  0  0  0  0  0  0  0
  138.9090   69.3100  225.9010 C   0  0  0  0  0  0  0  0  0  0  0  0
  140.2240   69.9410  226.3320 C   0  0  0  0  0  0  0  0  0  0  0  0
  140.7030   70.7770  225.1380 C   0  0  0  0  0  0  0  0  0  0  0  0
  139.3880   70.9890  224.3980 C   0  0  1  0  0  0  0  0  0  0  0  0
  139.5880   71.4380  223.0010 C   0  0  0  0  0  0  0  0  0  0  0  0
  138.8550   72.6000  222.6960 N   0  0  0  0  0  0  0  0  0  0  0  0
  139.1790   73.3960  221.6050 C   0  0  0  0  0  0  0  0  0  0  0  0
  139.6960   74.7540  221.7730 C   0  0  0  0  0  0  0  0  0  0  0  0
  138.9040   75.6540  222.4940 C   0  0  0  0  0  0  0  0  0  0  0  0
  139.3880   76.9270  222.7110 C   0  0  0  0  0  0  0  0  0  0  0  0
  140.6200   77.3410  222.2410 C   0  0  0  0  0  0  0  0  0  0  0  0
  141.1000   78.6970  222.4870 C   0  0  0  0  0  0  0  0  0  0  0  0
  140.3760   79.6680  223.1010 N   0  0  0  0  0  0  0  0  0  0  0  0
  141.0960   80.8130  223.1810 C   0  0  0  0  0  0  0  0  0  0  0  0
  142.3120   80.5160  222.5860 C   0  0  0  0  0  0  0  0  0  0  0  0
  142.3170   79.2270  222.1620 N   0  0  0  0  0  0  0  0  0  0  0  0
  141.4100   76.4570  221.5260 C   0  0  0  0  0  0  0  0  0  0  0  0
  140.9530   75.1560  221.2870 C   0  0  0  0  0  0  0  0  0  0  0  0
  135.4900   72.1420  224.3150 C   0  0  0  0  0  0  0  0  0  0  0  0
  134.6170   72.3590  225.3560 C   0  0  0  0  0  0  0  0  0  0  0  0
  134.1480   73.6040  225.7150 C   0  0  0  0  0  0  0  0  0  0  0  0
  134.5800   74.7000  224.9870 C   0  0  0  0  0  0  0  0  0  0  0  0
  134.1280   75.9430  225.3250 C   0  0  0  0  0  0  0  0  0  0  0  0
  134.5720   77.0390  224.5810 C   0  0  0  0  0  0  0  0  0  0  0  0
  134.1400   78.2840  224.8960 F   0  0  0  0  0  0  0  0  0  0  0  0
  135.4470   76.8490  223.5320 C   0  0  0  0  0  0  0  0  0  0  0  0
  135.8880   75.5780  223.2130 C   0  0  0  0  0  0  0  0  0  0  0  0
  135.4640   74.4640  223.9340 C   0  0  0  0  0  0  0  0  0  0  0  0
  135.8930   73.2240  223.6240 N   0  0  0  0  0  0  0  0  0  0  0  0
  137.1650   71.2690  222.3490 H   0  0  0  0  0  0  0  0  0  0  0  0
  136.3957   68.4371  223.1017 H   0  0  0  0  0  0  0  0  0  0  0  0
  137.3166   68.9314  221.6294 H   0  0  0  0  0  0  0  0  0  0  0  0
  138.0565   69.7710  226.4214 H   0  0  0  0  0  0  0  0  0  0  0  0
  138.8387   68.2369  226.1322 H   0  0  0  0  0  0  0  0  0  0  0  0
  140.0695   70.5837  227.2112 H   0  0  0  0  0  0  0  0  0  0  0  0
  140.9646   69.1775  226.6124 H   0  0  0  0  0  0  0  0  0  0  0  0
  141.1445   71.7310  225.4619 H   0  0  0  0  0  0  0  0  0  0  0  0
  141.4946   70.3049  224.5375 H   0  0  0  0  0  0  0  0  0  0  0  0
  138.7306   71.7681  224.8115 H   0  0  0  0  0  0  0  0  0  0  0  0
  140.6573   71.6454  222.8473 H   0  0  0  0  0  0  0  0  0  0  0  0
  139.2312   70.6355  222.3387 H   0  0  0  0  0  0  0  0  0  0  0  0
  138.0230   72.8160  223.2580 H   0  0  0  0  0  0  0  0  0  0  0  0
  139.9394   72.8436  221.0335 H   0  0  0  0  0  0  0  0  0  0  0  0
  138.1963   73.5740  221.1438 H   0  0  0  0  0  0  0  0  0  0  0  0
  137.9183   75.3533  222.8788 H   0  0  0  0  0  0  0  0  0  0  0  0
  138.7710   77.6389  223.2789 H   0  0  0  0  0  0  0  0  0  0  0  0
  140.7832   81.7707  223.6225 H   0  0  0  0  0  0  0  0  0  0  0  0
  143.1491   81.2208  222.4741 H   0  0  0  0  0  0  0  0  0  0  0  0
  143.1080   78.7220  221.6730 H   0  0  0  0  0  0  0  0  0  0  0  0
  142.3924   76.7758  221.1475 H   0  0  0  0  0  0  0  0  0  0  0  0
  141.5761   74.4488  220.7198 H   0  0  0  0  0  0  0  0  0  0  0  0
  134.2738   71.4889  225.9349 H   0  0  0  0  0  0  0  0  0  0  0  0
  133.4498   73.7239  226.5565 H   0  0  0  0  0  0  0  0  0  0  0  0
  133.4299   76.0786  226.1642 H   0  0  0  0  0  0  0  0  0  0  0  0
  135.7956   77.7125  222.9465 H   0  0  0  0  0  0  0  0  0  0  0  0
  136.5868   75.4439  222.3741 H   0  0  0  0  0  0  0  0  0  0  0  0
  1  2  2  0
  2  3  1  0
  3  4  1  0
  4  5  1  0
  5  6  2  0
  5  7  1  0
  7  8  1  0
  8  9  1  0
  9 10  1  0
 10 11  1  0
 11 12  1  0
 12 13  1  0
 13 14  1  0
 14 15  1  0
 15 16  2  0
 16 17  1  0
 17 18  2  0
 18 19  1  0
 19 20  2  0
 20 21  1  0
 21 22  2  0
 22 23  1  0
 18 24  1  0
 24 25  2  0
  2 26  1  0
 26 27  2  0
 27 28  1  0
 28 29  2  0
 29 30  1  0
 30 31  2  0
 31 32  1  0
 31 33  1  0
 33 34  2  0
 34 35  1  0
 35 36  2  0
 11  7  1  0
 25 15  1  0
 36 26  1  0
 23 19  1  0
 35 29  1  0
  3 37  1  0
  4 38  1  0
  4 39  1  0
  8 40  1  0
  8 41  1  0
  9 42  1  0
  9 43  1  0
 10 44  1  0
 10 45  1  0
 11 46  1  1
 12 47  1  0
 12 48  1  0
 13 49  1  0
 14 50  1  0
 14 51  1  0
 16 52  1  0
 17 53  1  0
 21 54  1  0
 22 55  1  0
 23 56  1  0
 24 57  1  0
 25 58  1  0
 27 59  1  0
 28 60  1  0
 30 61  1  0
 33 62  1  0
 34 63  1  0
M  END
>  <smiles>  (8) 
O=C(NCC(=O)N1CCC[C@H]1CNCc1ccc(-c2ncc[nH]2)cc1)c1ccc2cc(F)ccc2n1

>  <score_type>  (8) 
oracle

>  <origin>  (8) 
autodockgpu

>  <m_score__min__energy>  (8) 
-9.5700000000000003

>  <m_primary>  (8) 
energy

>  <rmsd>  (8) 
7.518447772596918

>  <m_score__min__rmsd>  (8) 
7.518447772596918

>  <meeko>  (8) 
{"free_energy": -7.23, "intermolecular_energy": -9.91, "internal_energy": -3.81, "cluster_size": 3, "cluster_id": 10, "rank_in_cluster": 3}

>  <energy>  (8) 
-8.87

>  <cluster_rmsd>  (8) 
0.14

>  <cluster>  (8) 
3

$$$$

     RDKit          3D

 63 67  0  0  0  0  0  0  0  0999 V2000
  139.6180   73.1420  222.8160 O   0  0  0  0  0  0  0  0  0  0  0  0
  139.4940   71.8750  222.6950 C   0  0  0  0  0  0  0  0  0  0  0  0
  139.1210   71.3490  221.4370 N   0  0  0  0  0  0  0  0  0  0  0  0
  138.8990   72.2840  220.3290 C   0  0  0  0  0  0  0  0  0  0  0  0
  137.4710   72.6850  220.2590 C   0  0  0  0  0  0  0  0  0  0  0  0
  137.1190   73.4410  219.3180 O   0  0  0  0  0  0  0  0  0  0  0  0
  136.5870   72.1970  221.2550 N   0  0  0  0  0  0  0  0  0  0  0  0
  136.3520   70.8170  221.6820 C   0  0  0  0  0  0  0  0  0  0  0  0
  136.2470   70.9600  223.1930 C   0  0  0  0  0  0  0  0  0  0  0  0
  136.1690   72.4660  223.4710 C   0  0  0  0  0  0  0  0  0  0  0  0
  135.6780   72.9760  222.1210 C   0  0  1  0  0  0  0  0  0  0  0  0
  135.8710   74.4360  221.9600 C   0  0  0  0  0  0  0  0  0  0  0  0
  137.2270   74.8110  222.0150 N   0  0  0  0  0  0  0  0  0  0  0  0
  137.7300   75.8280  221.2140 C   0  0  0  0  0  0  0  0  0  0  0  0
  138.7900   76.7190  221.6820 C   0  0  0  0  0  0  0  0  0  0  0  0
  138.5430   78.0950  221.6150 C   0  0  0  0  0  0  0  0  0  0  0  0
  139.5040   78.9600  222.0960 C   0  0  0  0  0  0  0  0  0  0  0  0
  140.6980   78.5150  222.6340 C   0  0  0  0  0  0  0  0  0  0  0  0
  141.6940   79.4580  223.1310 C   0  0  0  0  0  0  0  0  0  0  0  0
  141.4150   80.5190  223.9310 N   0  0  0  0  0  0  0  0  0  0  0  0
  142.5480   81.2020  224.2200 C   0  0  0  0  0  0  0  0  0  0  0  0
  143.5590   80.5190  223.5630 C   0  0  0  0  0  0  0  0  0  0  0  0
  143.0400   79.4550  222.8980 N   0  0  0  0  0  0  0  0  0  0  0  0
  140.9500   77.1550  222.7030 C   0  0  0  0  0  0  0  0  0  0  0  0
  139.9980   76.2480  222.2270 C   0  0  0  0  0  0  0  0  0  0  0  0
  139.7430   71.0320  223.8630 C   0  0  0  0  0  0  0  0  0  0  0  0
  139.4380   69.6900  223.8190 C   0  0  0  0  0  0  0  0  0  0  0  0
  139.6370   68.8250  224.8730 C   0  0  0  0  0  0  0  0  0  0  0  0
  140.1750   69.3340  226.0440 C   0  0  0  0  0  0  0  0  0  0  0  0
  140.3800   68.4960  227.1000 C   0  0  0  0  0  0  0  0  0  0  0  0
  140.9230   69.0220  228.2750 C   0  0  0  0  0  0  0  0  0  0  0  0
  141.1380   68.2120  229.3390 F   0  0  0  0  0  0  0  0  0  0  0  0
  141.2370   70.3640  228.3450 C   0  0  0  0  0  0  0  0  0  0  0  0
  141.0180   71.1890  227.2570 C   0  0  0  0  0  0  0  0  0  0  0  0
  140.4780   70.6950  226.0730 C   0  0  0  0  0  0  0  0  0  0  0  0
  140.2630   71.4990  225.0110 N   0  0  0  0  0  0  0  0  0  0  0  0
  139.0150   70.3220  221.3330 H   0  0  0  0  0  0  0  0  0  0  0  0
  139.5185   73.1798  220.4828 H   0  0  0  0  0  0  0  0  0  0  0  0
  139.1736   71.7874  219.3867 H   0  0  0  0  0  0  0  0  0  0  0  0
  135.4198   70.4204  221.2534 H   0  0  0  0  0  0  0  0  0  0  0  0
  137.1356   70.1159  221.3588 H   0  0  0  0  0  0  0  0  0  0  0  0
  135.3419   70.4558  223.5626 H   0  0  0  0  0  0  0  0  0  0  0  0
  137.1072   70.5005  223.7018 H   0  0  0  0  0  0  0  0  0  0  0  0
  135.4536   72.6935  224.2751 H   0  0  0  0  0  0  0  0  0  0  0  0
  137.1117   72.9169  223.8146 H   0  0  0  0  0  0  0  0  0  0  0  0
  134.6021   72.8513  221.9287 H   0  0  0  0  0  0  0  0  0  0  0  0
  135.4602   74.7406  220.9861 H   0  0  0  0  0  0  0  0  0  0  0  0
  135.3528   74.9349  222.7922 H   0  0  0  0  0  0  0  0  0  0  0  0
  137.8300   74.3650  222.7160 H   0  0  0  0  0  0  0  0  0  0  0  0
  138.1117   75.3444  220.3027 H   0  0  0  0  0  0  0  0  0  0  0  0
  136.8701   76.5090  221.1311 H   0  0  0  0  0  0  0  0  0  0  0  0
  137.6041   78.4780  221.1886 H   0  0  0  0  0  0  0  0  0  0  0  0
  139.3139   80.0425  222.0500 H   0  0  0  0  0  0  0  0  0  0  0  0
  142.6449   82.1041  224.8419 H   0  0  0  0  0  0  0  0  0  0  0  0
  144.6231   80.7972  223.5780 H   0  0  0  0  0  0  0  0  0  0  0  0
  143.5710   78.7530  222.3090 H   0  0  0  0  0  0  0  0  0  0  0  0
  141.8953   76.7896  223.1306 H   0  0  0  0  0  0  0  0  0  0  0  0
  140.1938   75.1668  222.2788 H   0  0  0  0  0  0  0  0  0  0  0  0
  139.0112   69.2854  222.8894 H   0  0  0  0  0  0  0  0  0  0  0  0
  139.3759   67.7599  224.7871 H   0  0  0  0  0  0  0  0  0  0  0  0
  140.1234   67.4288  227.0283 H   0  0  0  0  0  0  0  0  0  0  0  0
  141.6633   70.7792  229.2701 H   0  0  0  0  0  0  0  0  0  0  0  0
  141.2755   72.2560  227.3286 H   0  0  0  0  0  0  0  0  0  0  0  0
  1  2  2  0
  2  3  1  0
  3  4  1  0
  4  5  1  0
  5  6  2  0
  5  7  1  0
  7  8  1  0
  8  9  1  0
  9 10  1  0
 10 11  1  0
 11 12  1  0
 12 13  1  0
 13 14  1  0
 14 15  1  0
 15 16  2  0
 16 17  1  0
 17 18  2  0
 18 19  1  0
 19 20  2  0
 20 21  1  0
 21 22  2  0
 22 23  1  0
 18 24  1  0
 24 25  2  0
  2 26  1  0
 26 27  2  0
 27 28  1  0
 28 29  2  0
 29 30  1  0
 30 31  2  0
 31 32  1  0
 31 33  1  0
 33 34  2  0
 34 35  1  0
 35 36  2  0
 11  7  1  0
 25 15  1  0
 36 26  1  0
 23 19  1  0
 35 29  1  0
  3 37  1  0
  4 38  1  0
  4 39  1  0
  8 40  1  0
  8 41  1  0
  9 42  1  0
  9 43  1  0
 10 44  1  0
 10 45  1  0
 11 46  1  6
 12 47  1  0
 12 48  1  0
 13 49  1  0
 14 50  1  0
 14 51  1  0
 16 52  1  0
 17 53  1  0
 21 54  1  0
 22 55  1  0
 23 56  1  0
 24 57  1  0
 25 58  1  0
 27 59  1  0
 28 60  1  0
 30 61  1  0
 33 62  1  0
 34 63  1  0
M  END
>  <smiles>  (9) 
O=C(NCC(=O)N1CCC[C@H]1CNCc1ccc(-c2ncc[nH]2)cc1)c1ccc2cc(F)ccc2n1

>  <score_type>  (9) 
oracle

>  <origin>  (9) 
autodockgpu

>  <m_score__min__energy>  (9) 
-9.5700000000000003

>  <m_primary>  (9) 
energy

>  <rmsd>  (9) 
4.6893441694816795

>  <m_score__min__rmsd>  (9) 
4.6893441694816795

>  <meeko>  (9) 
{"free_energy": -8.44, "intermolecular_energy": -11.13, "internal_energy": -2.88, "cluster_size": 16, "cluster_id": 3, "rank_in_cluster": 6}

>  <energy>  (9) 
-8.85

>  <cluster_rmsd>  (9) 
1.14

>  <cluster>  (9) 
3

$$$$

     RDKit          3D

 63 67  0  0  0  0  0  0  0  0999 V2000
  137.8080   69.5570  221.7510 O   0  0  0  0  0  0  0  0  0  0  0  0
  138.1570   70.6120  222.3850 C   0  0  0  0  0  0  0  0  0  0  0  0
  137.8140   71.8720  221.8420 N   0  0  0  0  0  0  0  0  0  0  0  0
  137.0710   71.9060  220.5780 C   0  0  0  0  0  0  0  0  0  0  0  0
  135.6470   72.2560  220.8140 C   0  0  0  0  0  0  0  0  0  0  0  0
  134.9370   72.5340  219.8140 O   0  0  0  0  0  0  0  0  0  0  0  0
  135.1690   72.2570  222.1490 N   0  0  0  0  0  0  0  0  0  0  0  0
  134.6710   71.1380  222.9500 C   0  0  0  0  0  0  0  0  0  0  0  0
  135.2850   71.4200  224.3140 C   0  0  0  0  0  0  0  0  0  0  0  0
  135.8710   72.8340  224.2300 C   0  0  0  0  0  0  0  0  0  0  0  0
  135.0630   73.4060  223.0720 C   0  0  1  0  0  0  0  0  0  0  0  0
  135.6690   74.6330  222.5060 C   0  0  0  0  0  0  0  0  0  0  0  0
  137.0720   74.5530  222.4200 N   0  0  0  0  0  0  0  0  0  0  0  0
  137.7800   75.2600  221.4580 C   0  0  0  0  0  0  0  0  0  0  0  0
  138.7780   76.2650  221.8240 C   0  0  0  0  0  0  0  0  0  0  0  0
  138.3080   77.5400  222.1550 C   0  0  0  0  0  0  0  0  0  0  0  0
  139.2210   78.4940  222.5530 C   0  0  0  0  0  0  0  0  0  0  0  0
  140.5770   78.2350  222.6320 C   0  0  0  0  0  0  0  0  0  0  0  0
  141.5150   79.2690  223.0550 C   0  0  0  0  0  0  0  0  0  0  0  0
  141.1950   80.3130  223.8600 N   0  0  0  0  0  0  0  0  0  0  0  0
  142.2800   81.0970  224.0700 C   0  0  0  0  0  0  0  0  0  0  0  0
  143.3030   80.4950  223.3560 C   0  0  0  0  0  0  0  0  0  0  0  0
  142.8390   79.3800  222.7350 N   0  0  0  0  0  0  0  0  0  0  0  0
  141.0500   76.9750  222.3060 C   0  0  0  0  0  0  0  0  0  0  0  0
  140.1540   75.9810  221.8990 C   0  0  0  0  0  0  0  0  0  0  0  0
  138.8910   70.4650  223.6400 C   0  0  0  0  0  0  0  0  0  0  0  0
  139.6270   71.5180  224.1320 C   0  0  0  0  0  0  0  0  0  0  0  0
  140.3520   71.4650  225.3030 C   0  0  0  0  0  0  0  0  0  0  0  0
  140.3380   70.2840  226.0270 C   0  0  0  0  0  0  0  0  0  0  0  0
  141.0480   70.2090  227.1890 C   0  0  0  0  0  0  0  0  0  0  0  0
  141.0260   69.0110  227.9090 C   0  0  0  0  0  0  0  0  0  0  0  0
  141.7210   68.9100  229.0670 F   0  0  0  0  0  0  0  0  0  0  0  0
  140.2950   67.9400  227.4370 C   0  0  0  0  0  0  0  0  0  0  0  0
  139.5860   68.0460  226.2550 C   0  0  0  0  0  0  0  0  0  0  0  0
  139.5880   69.2260  225.5150 C   0  0  0  0  0  0  0  0  0  0  0  0
  138.8960   69.3300  224.3620 N   0  0  0  0  0  0  0  0  0  0  0  0
  138.0960   72.7310  222.3500 H   0  0  0  0  0  0  0  0  0  0  0  0
  137.5223   72.6582  219.9143 H   0  0  0  0  0  0  0  0  0  0  0  0
  137.1176   70.9097  220.1141 H   0  0  0  0  0  0  0  0  0  0  0  0
  133.5721   71.1407  222.9991 H   0  0  0  0  0  0  0  0  0  0  0  0
  134.9356   70.1512  222.5423 H   0  0  0  0  0  0  0  0  0  0  0  0
  134.5143   71.3717  225.0973 H   0  0  0  0  0  0  0  0  0  0  0  0
  136.0567   70.6788  224.5693 H   0  0  0  0  0  0  0  0  0  0  0  0
  135.7030   73.3982  225.1592 H   0  0  0  0  0  0  0  0  0  0  0  0
  136.9612   72.8688  224.0873 H   0  0  0  0  0  0  0  0  0  0  0  0
  134.0428   73.7334  223.3209 H   0  0  0  0  0  0  0  0  0  0  0  0
  135.2626   74.7934  221.4965 H   0  0  0  0  0  0  0  0  0  0  0  0
  135.4232   75.4675  223.1792 H   0  0  0  0  0  0  0  0  0  0  0  0
  137.5760   74.0120  223.1330 H   0  0  0  0  0  0  0  0  0  0  0  0
  138.3046   74.5109  220.8468 H   0  0  0  0  0  0  0  0  0  0  0  0
  136.9939   75.8696  220.9885 H   0  0  0  0  0  0  0  0  0  0  0  0
  137.2351   77.7764  222.0992 H   0  0  0  0  0  0  0  0  0  0  0  0
  138.8571   79.4979  222.8173 H   0  0  0  0  0  0  0  0  0  0  0  0
  142.3363   82.0131  224.6762 H   0  0  0  0  0  0  0  0  0  0  0  0
  144.3374   80.8651  223.3003 H   0  0  0  0  0  0  0  0  0  0  0  0
  143.3920   78.7180  222.1210 H   0  0  0  0  0  0  0  0  0  0  0  0
  142.1264   76.7566  222.3669 H   0  0  0  0  0  0  0  0  0  0  0  0
  140.5246   74.9787  221.6379 H   0  0  0  0  0  0  0  0  0  0  0  0
  139.6375   72.4562  223.5578 H   0  0  0  0  0  0  0  0  0  0  0  0
  140.9256   72.3360  225.6528 H   0  0  0  0  0  0  0  0  0  0  0  0
  141.6253   71.0722  227.5517 H   0  0  0  0  0  0  0  0  0  0  0  0
  140.2764   66.9975  228.0039 H   0  0  0  0  0  0  0  0  0  0  0  0
  139.0095   67.1823  225.8921 H   0  0  0  0  0  0  0  0  0  0  0  0
  1  2  2  0
  2  3  1  0
  3  4  1  0
  4  5  1  0
  5  6  2  0
  5  7  1  0
  7  8  1  0
  8  9  1  0
  9 10  1  0
 10 11  1  0
 11 12  1  0
 12 13  1  0
 13 14  1  0
 14 15  1  0
 15 16  2  0
 16 17  1  0
 17 18  2  0
 18 19  1  0
 19 20  2  0
 20 21  1  0
 21 22  2  0
 22 23  1  0
 18 24  1  0
 24 25  2  0
  2 26  1  0
 26 27  2  0
 27 28  1  0
 28 29  2  0
 29 30  1  0
 30 31  2  0
 31 32  1  0
 31 33  1  0
 33 34  2  0
 34 35  1  0
 35 36  2  0
 11  7  1  0
 25 15  1  0
 36 26  1  0
 23 19  1  0
 35 29  1  0
  3 37  1  0
  4 38  1  0
  4 39  1  0
  8 40  1  0
  8 41  1  0
  9 42  1  0
  9 43  1  0
 10 44  1  0
 10 45  1  0
 11 46  1  1
 12 47  1  0
 12 48  1  0
 13 49  1  0
 14 50  1  0
 14 51  1  0
 16 52  1  0
 17 53  1  0
 21 54  1  0
 22 55  1  0
 23 56  1  0
 24 57  1  0
 25 58  1  0
 27 59  1  0
 28 60  1  0
 30 61  1  0
 33 62  1  0
 34 63  1  0
M  END
>  <smiles>  (10) 
O=C(NCC(=O)N1CCC[C@H]1CNCc1ccc(-c2ncc[nH]2)cc1)c1ccc2cc(F)ccc2n1

>  <score_type>  (10) 
oracle

>  <origin>  (10) 
autodockgpu

>  <m_score__min__energy>  (10) 
-9.5700000000000003

>  <m_primary>  (10) 
energy

>  <rmsd>  (10) 
5.390478839497464

>  <m_score__min__rmsd>  (10) 
5.390478839497464

>  <meeko>  (10) 
{"free_energy": -8.1, "intermolecular_energy": -10.79, "internal_energy": -2.95, "cluster_size": 16, "cluster_id": 3, "rank_in_cluster": 13}

>  <energy>  (10) 
-8.71

>  <cluster_rmsd>  (10) 
1.25

>  <cluster>  (10) 
3

$$$$

     RDKit          3D

 63 67  0  0  0  0  0  0  0  0999 V2000
  139.7660   73.1470  220.6230 O   0  0  0  0  0  0  0  0  0  0  0  0
  139.6250   73.3550  221.8770 C   0  0  0  0  0  0  0  0  0  0  0  0
  139.3730   74.6740  222.3190 N   0  0  0  0  0  0  0  0  0  0  0  0
  139.2830   75.7400  221.3160 C   0  0  0  0  0  0  0  0  0  0  0  0
  140.5220   76.5570  221.3050 C   0  0  0  0  0  0  0  0  0  0  0  0
  141.0990   76.7650  222.4030 O   0  0  0  0  0  0  0  0  0  0  0  0
  140.9850   77.0580  220.0620 N   0  0  0  0  0  0  0  0  0  0  0  0
  140.8720   78.4110  219.5140 C   0  0  0  0  0  0  0  0  0  0  0  0
  142.2390   78.6160  218.8770 C   0  0  0  0  0  0  0  0  0  0  0  0
  142.9230   77.2440  218.8930 C   0  0  0  0  0  0  0  0  0  0  0  0
  141.7120   76.3260  219.0040 C   0  0  1  0  0  0  0  0  0  0  0  0
  142.0750   74.9540  219.4250 C   0  0  0  0  0  0  0  0  0  0  0  0
  142.8980   74.9390  220.5670 N   0  0  0  0  0  0  0  0  0  0  0  0
  144.1600   74.3600  220.5420 C   0  0  0  0  0  0  0  0  0  0  0  0
  144.3540   72.9560  220.1830 C   0  0  0  0  0  0  0  0  0  0  0  0
  145.5970   72.5990  219.6500 C   0  0  0  0  0  0  0  0  0  0  0  0
  145.8260   71.2720  219.3480 C   0  0  0  0  0  0  0  0  0  0  0  0
  144.8740   70.2910  219.5530 C   0  0  0  0  0  0  0  0  0  0  0  0
  145.1500   68.8980  219.2200 C   0  0  0  0  0  0  0  0  0  0  0  0
  146.0260   68.1070  219.8920 N   0  0  0  0  0  0  0  0  0  0  0  0
  146.0590   66.8690  219.3430 C   0  0  0  0  0  0  0  0  0  0  0  0
  145.1580   66.9160  218.2910 C   0  0  0  0  0  0  0  0  0  0  0  0
  144.6030   68.1520  218.2140 N   0  0  0  0  0  0  0  0  0  0  0  0
  143.6410   70.6360  220.0800 C   0  0  0  0  0  0  0  0  0  0  0  0
  143.3720   71.9710  220.3990 C   0  0  0  0  0  0  0  0  0  0  0  0
  139.7300   72.2200  222.7920 C   0  0  0  0  0  0  0  0  0  0  0  0
  139.1730   71.0090  222.4510 C   0  0  0  0  0  0  0  0  0  0  0  0
  139.2220   69.8900  223.2540 C   0  0  0  0  0  0  0  0  0  0  0  0
  139.8690   69.9900  224.4750 C   0  0  0  0  0  0  0  0  0  0  0  0
  139.9290   68.8950  225.2860 C   0  0  0  0  0  0  0  0  0  0  0  0
  140.5850   69.0100  226.5150 C   0  0  0  0  0  0  0  0  0  0  0  0
  140.6600   67.9380  227.3400 F   0  0  0  0  0  0  0  0  0  0  0  0
  141.1520   70.2140  226.8810 C   0  0  0  0  0  0  0  0  0  0  0  0
  141.0740   71.3060  226.0370 C   0  0  0  0  0  0  0  0  0  0  0  0
  140.4280   71.2240  224.8070 C   0  0  0  0  0  0  0  0  0  0  0  0
  140.3510   72.2890  223.9830 N   0  0  0  0  0  0  0  0  0  0  0  0
  139.2610   74.8500  223.3350 H   0  0  0  0  0  0  0  0  0  0  0  0
  139.1387   75.2898  220.3228 H   0  0  0  0  0  0  0  0  0  0  0  0
  138.4328   76.3910  221.5676 H   0  0  0  0  0  0  0  0  0  0  0  0
  140.0695   78.4717  218.7641 H   0  0  0  0  0  0  0  0  0  0  0  0
  140.6172   79.1719  220.2664 H   0  0  0  0  0  0  0  0  0  0  0  0
  142.1289   78.9761  217.8435 H   0  0  0  0  0  0  0  0  0  0  0  0
  142.8293   79.3667  219.4229 H   0  0  0  0  0  0  0  0  0  0  0  0
  143.4866   77.0612  217.9662 H   0  0  0  0  0  0  0  0  0  0  0  0
  143.6686   77.1148  219.6914 H   0  0  0  0  0  0  0  0  0  0  0  0
  141.1594   76.1535  218.0687 H   0  0  0  0  0  0  0  0  0  0  0  0
  141.1524   74.3981  219.6481 H   0  0  0  0  0  0  0  0  0  0  0  0
  142.6384   74.4905  218.6017 H   0  0  0  0  0  0  0  0  0  0  0  0
  142.5770   75.4300  221.4100 H   0  0  0  0  0  0  0  0  0  0  0  0
  144.7557   74.9472  219.8276 H   0  0  0  0  0  0  0  0  0  0  0  0
  144.4442   74.3716  221.6046 H   0  0  0  0  0  0  0  0  0  0  0  0
  146.3737   73.3581  219.4756 H   0  0  0  0  0  0  0  0  0  0  0  0
  146.8016   70.9845  218.9290 H   0  0  0  0  0  0  0  0  0  0  0  0
  146.6692   66.0116  219.6631 H   0  0  0  0  0  0  0  0  0  0  0  0
  144.9272   66.0766  217.6186 H   0  0  0  0  0  0  0  0  0  0  0  0
  143.8830   68.4830  217.5110 H   0  0  0  0  0  0  0  0  0  0  0  0
  142.8761   69.8633  220.2471 H   0  0  0  0  0  0  0  0  0  0  0  0
  142.3942   72.2508  220.8182 H   0  0  0  0  0  0  0  0  0  0  0  0
  138.6590   70.9294  221.4817 H   0  0  0  0  0  0  0  0  0  0  0  0
  138.7604   68.9441  222.9345 H   0  0  0  0  0  0  0  0  0  0  0  0
  139.4714   67.9427  224.9798 H   0  0  0  0  0  0  0  0  0  0  0  0
  141.6680   70.3050  227.8482 H   0  0  0  0  0  0  0  0  0  0  0  0
  141.5314   72.2583  226.3435 H   0  0  0  0  0  0  0  0  0  0  0  0
  1  2  2  0
  2  3  1  0
  3  4  1  0
  4  5  1  0
  5  6  2  0
  5  7  1  0
  7  8  1  0
  8  9  1  0
  9 10  1  0
 10 11  1  0
 11 12  1  0
 12 13  1  0
 13 14  1  0
 14 15  1  0
 15 16  2  0
 16 17  1  0
 17 18  2  0
 18 19  1  0
 19 20  2  0
 20 21  1  0
 21 22  2  0
 22 23  1  0
 18 24  1  0
 24 25  2  0
  2 26  1  0
 26 27  2  0
 27 28  1  0
 28 29  2  0
 29 30  1  0
 30 31  2  0
 31 32  1  0
 31 33  1  0
 33 34  2  0
 34 35  1  0
 35 36  2  0
 11  7  1  0
 25 15  1  0
 36 26  1  0
 23 19  1  0
 35 29  1  0
  3 37  1  0
  4 38  1  0
  4 39  1  0
  8 40  1  0
  8 41  1  0
  9 42  1  0
  9 43  1  0
 10 44  1  0
 10 45  1  0
 11 46  1  6
 12 47  1  0
 12 48  1  0
 13 49  1  0
 14 50  1  0
 14 51  1  0
 16 52  1  0
 17 53  1  0
 21 54  1  0
 22 55  1  0
 23 56  1  0
 24 57  1  0
 25 58  1  0
 27 59  1  0
 28 60  1  0
 30 61  1  0
 33 62  1  0
 34 63  1  0
M  END
>  <smiles>  (11) 
O=C(NCC(=O)N1CCC[C@H]1CNCc1ccc(-c2ncc[nH]2)cc1)c1ccc2cc(F)ccc2n1

>  <score_type>  (11) 
oracle

>  <origin>  (11) 
autodockgpu

>  <m_score__min__energy>  (11) 
-9.5700000000000003

>  <m_primary>  (11) 
energy

>  <rmsd>  (11) 
5.674593119383467

>  <m_score__min__rmsd>  (11) 
5.674593119383467

>  <meeko>  (11) 
{"free_energy": -8.69, "intermolecular_energy": -11.37, "internal_energy": -2.88, "cluster_size": 5, "cluster_id": 1, "rank_in_cluster": 4}

>  <energy>  (11) 
-8.66

>  <cluster_rmsd>  (11) 
0.84

>  <cluster>  (11) 
3

$$$$

     RDKit          3D

 63 67  0  0  0  0  0  0  0  0999 V2000
  141.0030   78.4790  217.8540 O   0  0  0  0  0  0  0  0  0  0  0  0
  141.7960   78.1910  218.8140 C   0  0  0  0  0  0  0  0  0  0  0  0
  141.8850   79.0830  219.9080 N   0  0  0  0  0  0  0  0  0  0  0  0
  141.0600   80.2940  219.8870 C   0  0  0  0  0  0  0  0  0  0  0  0
  141.3040   81.1170  221.0990 C   0  0  0  0  0  0  0  0  0  0  0  0
  142.1280   80.6860  221.9450 O   0  0  0  0  0  0  0  0  0  0  0  0
  140.5950   82.3380  221.2350 N   0  0  0  0  0  0  0  0  0  0  0  0
  141.0700   83.7060  221.0290 C   0  0  0  0  0  0  0  0  0  0  0  0
  139.8910   84.3530  220.3160 C   0  0  0  0  0  0  0  0  0  0  0  0
  138.7350   83.3510  220.4170 C   0  0  0  0  0  0  0  0  0  0  0  0
  139.1810   82.5260  221.6180 C   0  0  1  0  0  0  0  0  0  0  0  0
  138.4570   81.2390  221.7250 C   0  0  0  0  0  0  0  0  0  0  0  0
  138.2780   80.8290  223.0600 N   0  0  0  0  0  0  0  0  0  0  0  0
  139.2140   80.0310  223.7040 C   0  0  0  0  0  0  0  0  0  0  0  0
  139.5480   78.6930  223.2170 C   0  0  0  0  0  0  0  0  0  0  0  0
  138.4860   77.8820  222.8030 C   0  0  0  0  0  0  0  0  0  0  0  0
  138.7730   76.6330  222.2920 C   0  0  0  0  0  0  0  0  0  0  0  0
  140.0670   76.1590  222.1780 C   0  0  0  0  0  0  0  0  0  0  0  0
  140.3340   74.8320  221.6350 C   0  0  0  0  0  0  0  0  0  0  0  0
  140.0860   73.6700  222.2900 N   0  0  0  0  0  0  0  0  0  0  0  0
  140.4410   72.6110  221.5230 C   0  0  0  0  0  0  0  0  0  0  0  0
  140.9250   73.1630  220.3480 C   0  0  0  0  0  0  0  0  0  0  0  0
  140.8620   74.5170  220.4140 N   0  0  0  0  0  0  0  0  0  0  0  0
  141.1230   76.9560  222.5860 C   0  0  0  0  0  0  0  0  0  0  0  0
  140.8710   78.2290  223.1080 C   0  0  0  0  0  0  0  0  0  0  0  0
  142.5720   76.9540  218.7370 C   0  0  0  0  0  0  0  0  0  0  0  0
  142.8470   76.3920  217.5110 C   0  0  0  0  0  0  0  0  0  0  0  0
  143.5660   75.2280  217.3480 C   0  0  0  0  0  0  0  0  0  0  0  0
  144.0400   74.5870  218.4800 C   0  0  0  0  0  0  0  0  0  0  0  0
  144.7550   73.4330  218.3410 C   0  0  0  0  0  0  0  0  0  0  0  0
  145.2270   72.7980  219.4930 C   0  0  0  0  0  0  0  0  0  0  0  0
  145.9410   71.6510  219.3840 F   0  0  0  0  0  0  0  0  0  0  0  0
  144.9650   73.3410  220.7340 C   0  0  0  0  0  0  0  0  0  0  0  0
  144.2380   74.5120  220.8430 C   0  0  0  0  0  0  0  0  0  0  0  0
  143.7530   75.1690  219.7150 C   0  0  0  0  0  0  0  0  0  0  0  0
  143.0430   76.3110  219.8200 N   0  0  0  0  0  0  0  0  0  0  0  0
  142.5290   78.8560  220.6890 H   0  0  0  0  0  0  0  0  0  0  0  0
  141.3089   80.8849  218.9932 H   0  0  0  0  0  0  0  0  0  0  0  0
  140.0003   79.9995  219.8671 H   0  0  0  0  0  0  0  0  0  0  0  0
  141.2785   84.2042  221.9873 H   0  0  0  0  0  0  0  0  0  0  0  0
  142.0129   83.7654  220.4656 H   0  0  0  0  0  0  0  0  0  0  0  0
  139.6203   85.2997  220.8065 H   0  0  0  0  0  0  0  0  0  0  0  0
  140.1321   84.5860  219.2683 H   0  0  0  0  0  0  0  0  0  0  0  0
  137.7761   83.8560  220.6056 H   0  0  0  0  0  0  0  0  0  0  0  0
  138.5559   82.7665  219.5025 H   0  0  0  0  0  0  0  0  0  0  0  0
  139.0038   82.9852  222.6018 H   0  0  0  0  0  0  0  0  0  0  0  0
  137.4688   81.3503  221.2549 H   0  0  0  0  0  0  0  0  0  0  0  0
  139.0624   80.4726  221.2189 H   0  0  0  0  0  0  0  0  0  0  0  0
  137.4690   81.1900  223.5800 H   0  0  0  0  0  0  0  0  0  0  0  0
  140.1545   80.6014  223.7109 H   0  0  0  0  0  0  0  0  0  0  0  0
  138.7182   79.8147  224.6618 H   0  0  0  0  0  0  0  0  0  0  0  0
  137.4462   78.2320  222.8830 H   0  0  0  0  0  0  0  0  0  0  0  0
  137.9424   75.9910  221.9634 H   0  0  0  0  0  0  0  0  0  0  0  0
  140.3620   71.5439  221.7780 H   0  0  0  0  0  0  0  0  0  0  0  0
  141.3039   72.5892  219.4894 H   0  0  0  0  0  0  0  0  0  0  0  0
  141.1610   75.2040  219.6660 H   0  0  0  0  0  0  0  0  0  0  0  0
  142.1565   76.5894  222.5000 H   0  0  0  0  0  0  0  0  0  0  0  0
  141.7066   78.8663  223.4328 H   0  0  0  0  0  0  0  0  0  0  0  0
  142.4717   76.9007  216.6108 H   0  0  0  0  0  0  0  0  0  0  0  0
  143.7583   74.8189  216.3452 H   0  0  0  0  0  0  0  0  0  0  0  0
  144.9553   73.0121  217.3447 H   0  0  0  0  0  0  0  0  0  0  0  0
  145.3360   72.8402  221.6404 H   0  0  0  0  0  0  0  0  0  0  0  0
  144.0389   74.9327  221.8397 H   0  0  0  0  0  0  0  0  0  0  0  0
  1  2  2  0
  2  3  1  0
  3  4  1  0
  4  5  1  0
  5  6  2  0
  5  7  1  0
  7  8  1  0
  8  9  1  0
  9 10  1  0
 10 11  1  0
 11 12  1  0
 12 13  1  0
 13 14  1  0
 14 15  1  0
 15 16  2  0
 16 17  1  0
 17 18  2  0
 18 19  1  0
 19 20  2  0
 20 21  1  0
 21 22  2  0
 22 23  1  0
 18 24  1  0
 24 25  2  0
  2 26  1  0
 26 27  2  0
 27 28  1  0
 28 29  2  0
 29 30  1  0
 30 31  2  0
 31 32  1  0
 31 33  1  0
 33 34  2  0
 34 35  1  0
 35 36  2  0
 11  7  1  0
 25 15  1  0
 36 26  1  0
 23 19  1  0
 35 29  1  0
  3 37  1  0
  4 38  1  0
  4 39  1  0
  8 40  1  0
  8 41  1  0
  9 42  1  0
  9 43  1  0
 10 44  1  0
 10 45  1  0
 11 46  1  1
 12 47  1  0
 12 48  1  0
 13 49  1  0
 14 50  1  0
 14 51  1  0
 16 52  1  0
 17 53  1  0
 21 54  1  0
 22 55  1  0
 23 56  1  0
 24 57  1  0
 25 58  1  0
 27 59  1  0
 28 60  1  0
 30 61  1  0
 33 62  1  0
 34 63  1  0
M  END
>  <smiles>  (12) 
O=C(NCC(=O)N1CCC[C@H]1CNCc1ccc(-c2ncc[nH]2)cc1)c1ccc2cc(F)ccc2n1

>  <score_type>  (12) 
oracle

>  <origin>  (12) 
autodockgpu

>  <m_score__min__energy>  (12) 
-9.5700000000000003

>  <m_primary>  (12) 
energy

>  <rmsd>  (12) 
7.871585768223194

>  <m_score__min__rmsd>  (12) 
7.871585768223194

>  <meeko>  (12) 
{"free_energy": -6.4, "intermolecular_energy": -9.08, "internal_energy": -4.48, "cluster_size": 1, "cluster_id": 14, "rank_in_cluster": 1}

>  <energy>  (12) 
-8.44

>  <cluster_rmsd>  (12) 
1.02

>  <cluster>  (12) 
3

$$$$

     RDKit          3D

 63 67  0  0  0  0  0  0  0  0999 V2000
  138.9580   70.4500  221.4190 O   0  0  0  0  0  0  0  0  0  0  0  0
  139.0680   71.3520  222.3190 C   0  0  0  0  0  0  0  0  0  0  0  0
  138.6990   72.6780  221.9960 N   0  0  0  0  0  0  0  0  0  0  0  0
  138.2060   72.9540  220.6430 C   0  0  0  0  0  0  0  0  0  0  0  0
  139.0760   73.9430  219.9570 C   0  0  0  0  0  0  0  0  0  0  0  0
  138.6180   74.5200  218.9380 O   0  0  0  0  0  0  0  0  0  0  0  0
  140.3690   74.1800  220.4870 N   0  0  0  0  0  0  0  0  0  0  0  0
  141.6200   73.4710  220.2160 C   0  0  0  0  0  0  0  0  0  0  0  0
  142.6250   74.6100  220.1330 C   0  0  0  0  0  0  0  0  0  0  0  0
  141.8910   75.8600  220.6330 C   0  0  0  0  0  0  0  0  0  0  0  0
  140.7760   75.2220  221.4530 C   0  0  1  0  0  0  0  0  0  0  0  0
  139.6740   76.1670  221.7480 C   0  0  0  0  0  0  0  0  0  0  0  0
  138.7070   75.6170  222.6100 N   0  0  0  0  0  0  0  0  0  0  0  0
  137.3520   75.6780  222.3110 C   0  0  0  0  0  0  0  0  0  0  0  0
  136.3310   75.3420  223.3020 C   0  0  0  0  0  0  0  0  0  0  0  0
  135.7110   76.4070  223.9650 C   0  0  0  0  0  0  0  0  0  0  0  0
  134.7090   76.1240  224.8690 C   0  0  0  0  0  0  0  0  0  0  0  0
  134.3020   74.8310  225.1430 C   0  0  0  0  0  0  0  0  0  0  0  0
  133.2400   74.5680  226.1080 C   0  0  0  0  0  0  0  0  0  0  0  0
  133.1470   73.4410  226.8600 N   0  0  0  0  0  0  0  0  0  0  0  0
  132.0540   73.4950  227.6580 C   0  0  0  0  0  0  0  0  0  0  0  0
  131.4590   74.7140  227.3720 C   0  0  0  0  0  0  0  0  0  0  0  0
  132.1810   75.3700  226.4270 N   0  0  0  0  0  0  0  0  0  0  0  0
  134.9110   73.7720  224.4920 C   0  0  0  0  0  0  0  0  0  0  0  0
  135.9300   74.0200  223.5670 C   0  0  0  0  0  0  0  0  0  0  0  0
  139.5670   70.9690  223.6380 C   0  0  0  0  0  0  0  0  0  0  0  0
  140.3240   71.8550  224.3700 C   0  0  0  0  0  0  0  0  0  0  0  0
  140.8370   71.5750  225.6180 C   0  0  0  0  0  0  0  0  0  0  0  0
  140.5770   70.3310  226.1670 C   0  0  0  0  0  0  0  0  0  0  0  0
  141.0750   70.0320  227.4020 C   0  0  0  0  0  0  0  0  0  0  0  0
  140.8050   68.7720  227.9440 C   0  0  0  0  0  0  0  0  0  0  0  0
  141.2870   68.4500  229.1680 F   0  0  0  0  0  0  0  0  0  0  0  0
  140.0490   67.8650  227.2300 C   0  0  0  0  0  0  0  0  0  0  0  0
  139.5580   68.1970  225.9810 C   0  0  0  0  0  0  0  0  0  0  0  0
  139.8090   69.4430  225.4130 C   0  0  0  0  0  0  0  0  0  0  0  0
  139.3310   69.7680  224.1950 N   0  0  0  0  0  0  0  0  0  0  0  0
  138.7890   73.4150  222.7200 H   0  0  0  0  0  0  0  0  0  0  0  0
  138.1973   72.0185  220.0644 H   0  0  0  0  0  0  0  0  0  0  0  0
  137.1896   73.3684  220.7155 H   0  0  0  0  0  0  0  0  0  0  0  0
  141.8700   72.7775  221.0324 H   0  0  0  0  0  0  0  0  0  0  0  0
  141.5858   72.8462  219.3113 H   0  0  0  0  0  0  0  0  0  0  0  0
  143.4962   74.3980  220.7703 H   0  0  0  0  0  0  0  0  0  0  0  0
  142.9964   74.7450  219.1064 H   0  0  0  0  0  0  0  0  0  0  0  0
  142.5423   76.4909  221.2557 H   0  0  0  0  0  0  0  0  0  0  0  0
  141.5441   76.5354  219.8371 H   0  0  0  0  0  0  0  0  0  0  0  0
  141.0659   74.8677  222.4532 H   0  0  0  0  0  0  0  0  0  0  0  0
  140.0972   77.0656  222.2206 H   0  0  0  0  0  0  0  0  0  0  0  0
  139.1758   76.4060  220.7969 H   0  0  0  0  0  0  0  0  0  0  0  0
  139.0250   75.1020  223.4400 H   0  0  0  0  0  0  0  0  0  0  0  0
  137.1505   76.7131  221.9979 H   0  0  0  0  0  0  0  0  0  0  0  0
  137.2381   74.8696  221.5738 H   0  0  0  0  0  0  0  0  0  0  0  0
  136.0159   77.4457  223.7696 H   0  0  0  0  0  0  0  0  0  0  0  0
  134.2155   76.9569  225.3912 H   0  0  0  0  0  0  0  0  0  0  0  0
  131.7124   72.7360  228.3772 H   0  0  0  0  0  0  0  0  0  0  0  0
  130.5390   75.0935  227.8407 H   0  0  0  0  0  0  0  0  0  0  0  0
  131.9690   76.3210  226.0130 H   0  0  0  0  0  0  0  0  0  0  0  0
  134.5946   72.7395  224.7015 H   0  0  0  0  0  0  0  0  0  0  0  0
  136.4175   73.1821  223.0471 H   0  0  0  0  0  0  0  0  0  0  0  0
  140.5315   72.8433  223.9339 H   0  0  0  0  0  0  0  0  0  0  0  0
  141.4364   72.3192  226.1628 H   0  0  0  0  0  0  0  0  0  0  0  0
  141.6757   70.7663  227.9587 H   0  0  0  0  0  0  0  0  0  0  0  0
  139.8361   66.8736  227.6564 H   0  0  0  0  0  0  0  0  0  0  0  0
  138.9572   67.4622  225.4251 H   0  0  0  0  0  0  0  0  0  0  0  0
  1  2  2  0
  2  3  1  0
  3  4  1  0
  4  5  1  0
  5  6  2  0
  5  7  1  0
  7  8  1  0
  8  9  1  0
  9 10  1  0
 10 11  1  0
 11 12  1  0
 12 13  1  0
 13 14  1  0
 14 15  1  0
 15 16  2  0
 16 17  1  0
 17 18  2  0
 18 19  1  0
 19 20  2  0
 20 21  1  0
 21 22  2  0
 22 23  1  0
 18 24  1  0
 24 25  2  0
  2 26  1  0
 26 27  2  0
 27 28  1  0
 28 29  2  0
 29 30  1  0
 30 31  2  0
 31 32  1  0
 31 33  1  0
 33 34  2  0
 34 35  1  0
 35 36  2  0
 11  7  1  0
 25 15  1  0
 36 26  1  0
 23 19  1  0
 35 29  1  0
  3 37  1  0
  4 38  1  0
  4 39  1  0
  8 40  1  0
  8 41  1  0
  9 42  1  0
  9 43  1  0
 10 44  1  0
 10 45  1  0
 11 46  1  1
 12 47  1  0
 12 48  1  0
 13 49  1  0
 14 50  1  0
 14 51  1  0
 16 52  1  0
 17 53  1  0
 21 54  1  0
 22 55  1  0
 23 56  1  0
 24 57  1  0
 25 58  1  0
 27 59  1  0
 28 60  1  0
 30 61  1  0
 33 62  1  0
 34 63  1  0
M  END
>  <smiles>  (13) 
O=C(NCC(=O)N1CCC[C@H]1CNCc1ccc(-c2ncc[nH]2)cc1)c1ccc2cc(F)ccc2n1

>  <score_type>  (13) 
oracle

>  <origin>  (13) 
autodockgpu

>  <m_score__min__energy>  (13) 
-9.5700000000000003

>  <m_primary>  (13) 
energy

>  <rmsd>  (13) 
4.8825441714125

>  <m_score__min__rmsd>  (13) 
4.8825441714125

>  <meeko>  (13) 
{"free_energy": -8.22, "intermolecular_energy": -10.9, "internal_energy": -2.78, "cluster_size": 2, "cluster_id": 6, "rank_in_cluster": 1}

>  <energy>  (13) 
-8.44

>  <cluster_rmsd>  (13) 
1.43

>  <cluster>  (13) 
3

$$$$

     RDKit          3D

 63 67  0  0  0  0  0  0  0  0999 V2000
  138.5400   70.7790  221.7920 O   0  0  0  0  0  0  0  0  0  0  0  0
  139.1350   71.3150  222.7890 C   0  0  0  0  0  0  0  0  0  0  0  0
  139.4750   72.6850  222.7180 N   0  0  0  0  0  0  0  0  0  0  0  0
  139.1250   73.4270  221.5020 C   0  0  0  0  0  0  0  0  0  0  0  0
  139.6450   74.8160  221.5660 C   0  0  0  0  0  0  0  0  0  0  0  0
  140.8280   74.9830  221.9590 O   0  0  0  0  0  0  0  0  0  0  0  0
  138.7820   75.8740  221.1840 N   0  0  0  0  0  0  0  0  0  0  0  0
  137.6240   75.8420  220.2890 C   0  0  0  0  0  0  0  0  0  0  0  0
  136.6300   76.7360  221.0150 C   0  0  0  0  0  0  0  0  0  0  0  0
  137.4170   77.4160  222.1420 C   0  0  0  0  0  0  0  0  0  0  0  0
  138.8390   77.2880  221.6090 C   0  0  1  0  0  0  0  0  0  0  0  0
  139.8610   77.5140  222.6560 C   0  0  0  0  0  0  0  0  0  0  0  0
  141.1730   77.4940  222.1440 N   0  0  0  0  0  0  0  0  0  0  0  0
  141.5960   78.4200  221.1990 C   0  0  0  0  0  0  0  0  0  0  0  0
  142.0640   78.0070  219.8770 C   0  0  0  0  0  0  0  0  0  0  0  0
  142.1960   79.0070  218.9060 C   0  0  0  0  0  0  0  0  0  0  0  0
  142.6840   78.6560  217.6650 C   0  0  0  0  0  0  0  0  0  0  0  0
  143.0420   77.3580  217.3490 C   0  0  0  0  0  0  0  0  0  0  0  0
  143.5520   77.0230  216.0240 C   0  0  0  0  0  0  0  0  0  0  0  0
  144.0310   75.8020  215.6720 N   0  0  0  0  0  0  0  0  0  0  0  0
  144.4280   75.8070  214.3770 C   0  0  0  0  0  0  0  0  0  0  0  0
  144.1760   77.0930  213.9270 C   0  0  0  0  0  0  0  0  0  0  0  0
  143.6420   77.8370  214.9300 N   0  0  0  0  0  0  0  0  0  0  0  0
  142.9140   76.3640  218.3030 C   0  0  0  0  0  0  0  0  0  0  0  0
  142.4240   76.6820  219.5740 C   0  0  0  0  0  0  0  0  0  0  0  0
  139.4340   70.4850  223.9550 C   0  0  0  0  0  0  0  0  0  0  0  0
  139.0530   69.1630  223.9720 C   0  0  0  0  0  0  0  0  0  0  0  0
  139.2920   68.3120  225.0300 C   0  0  0  0  0  0  0  0  0  0  0  0
  139.9520   68.8150  226.1380 C   0  0  0  0  0  0  0  0  0  0  0  0
  140.1980   67.9910  227.1970 C   0  0  0  0  0  0  0  0  0  0  0  0
  140.8650   68.5120  228.3090 C   0  0  0  0  0  0  0  0  0  0  0  0
  141.1230   67.7150  229.3730 F   0  0  0  0  0  0  0  0  0  0  0  0
  141.2570   69.8350  228.3160 C   0  0  0  0  0  0  0  0  0  0  0  0
  140.9930   70.6460  227.2280 C   0  0  0  0  0  0  0  0  0  0  0  0
  140.3310   70.1570  226.1060 C   0  0  0  0  0  0  0  0  0  0  0  0
  140.0720   70.9480  225.0440 N   0  0  0  0  0  0  0  0  0  0  0  0
  139.9600   73.1250  223.5220 H   0  0  0  0  0  0  0  0  0  0  0  0
  139.5618   72.9179  220.6302 H   0  0  0  0  0  0  0  0  0  0  0  0
  138.0292   73.4637  221.4136 H   0  0  0  0  0  0  0  0  0  0  0  0
  137.8750   76.2477  219.2978 H   0  0  0  0  0  0  0  0  0  0  0  0
  137.2448   74.8279  220.0946 H   0  0  0  0  0  0  0  0  0  0  0  0
  136.2201   77.4897  220.3265 H   0  0  0  0  0  0  0  0  0  0  0  0
  135.7811   76.1577  221.4087 H   0  0  0  0  0  0  0  0  0  0  0  0
  137.1229   78.4689  222.2639 H   0  0  0  0  0  0  0  0  0  0  0  0
  137.2610   76.9763  223.1382 H   0  0  0  0  0  0  0  0  0  0  0  0
  139.1227   78.0144  220.8332 H   0  0  0  0  0  0  0  0  0  0  0  0
  139.6788   78.4942  223.1207 H   0  0  0  0  0  0  0  0  0  0  0  0
  139.7757   76.6968  223.3874 H   0  0  0  0  0  0  0  0  0  0  0  0
  141.8420   76.8210  222.5360 H   0  0  0  0  0  0  0  0  0  0  0  0
  140.7473   79.0988  221.0290 H   0  0  0  0  0  0  0  0  0  0  0  0
  142.5115   78.8222  221.6574 H   0  0  0  0  0  0  0  0  0  0  0  0
  141.9171   80.0477  219.1278 H   0  0  0  0  0  0  0  0  0  0  0  0
  142.7926   79.4371  216.8981 H   0  0  0  0  0  0  0  0  0  0  0  0
  144.8576   74.9708  213.8059 H   0  0  0  0  0  0  0  0  0  0  0  0
  144.3783   77.4572  212.9089 H   0  0  0  0  0  0  0  0  0  0  0  0
  143.3490   78.8530  214.8810 H   0  0  0  0  0  0  0  0  0  0  0  0
  143.1963   75.3283  218.0630 H   0  0  0  0  0  0  0  0  0  0  0  0
  142.3203   75.8957  220.3362 H   0  0  0  0  0  0  0  0  0  0  0  0
  138.5282   68.7626  223.0920 H   0  0  0  0  0  0  0  0  0  0  0  0
  138.9670   67.2617  224.9947 H   0  0  0  0  0  0  0  0  0  0  0  0
  139.8781   66.9387  227.1761 H   0  0  0  0  0  0  0  0  0  0  0  0
  141.7818   70.2461  229.1910 H   0  0  0  0  0  0  0  0  0  0  0  0
  141.3125   71.6984  227.2497 H   0  0  0  0  0  0  0  0  0  0  0  0
  1  2  2  0
  2  3  1  0
  3  4  1  0
  4  5  1  0
  5  6  2  0
  5  7  1  0
  7  8  1  0
  8  9  1  0
  9 10  1  0
 10 11  1  0
 11 12  1  0
 12 13  1  0
 13 14  1  0
 14 15  1  0
 15 16  2  0
 16 17  1  0
 17 18  2  0
 18 19  1  0
 19 20  2  0
 20 21  1  0
 21 22  2  0
 22 23  1  0
 18 24  1  0
 24 25  2  0
  2 26  1  0
 26 27  2  0
 27 28  1  0
 28 29  2  0
 29 30  1  0
 30 31  2  0
 31 32  1  0
 31 33  1  0
 33 34  2  0
 34 35  1  0
 35 36  2  0
 11  7  1  0
 25 15  1  0
 36 26  1  0
 23 19  1  0
 35 29  1  0
  3 37  1  0
  4 38  1  0
  4 39  1  0
  8 40  1  0
  8 41  1  0
  9 42  1  0
  9 43  1  0
 10 44  1  0
 10 45  1  0
 11 46  1  6
 12 47  1  0
 12 48  1  0
 13 49  1  0
 14 50  1  0
 14 51  1  0
 16 52  1  0
 17 53  1  0
 21 54  1  0
 22 55  1  0
 23 56  1  0
 24 57  1  0
 25 58  1  0
 27 59  1  0
 28 60  1  0
 30 61  1  0
 33 62  1  0
 34 63  1  0
M  END
>  <smiles>  (14) 
O=C(NCC(=O)N1CCC[C@H]1CNCc1ccc(-c2ncc[nH]2)cc1)c1ccc2cc(F)ccc2n1

>  <score_type>  (14) 
oracle

>  <origin>  (14) 
autodockgpu

>  <m_score__min__energy>  (14) 
-9.5700000000000003

>  <m_primary>  (14) 
energy

>  <rmsd>  (14) 
3.4388176678119273

>  <m_score__min__rmsd>  (14) 
3.4388176678119273

>  <meeko>  (14) 
{"free_energy": -8.02, "intermolecular_energy": -10.7, "internal_energy": -2.52, "cluster_size": 1, "cluster_id": 9, "rank_in_cluster": 1}

>  <energy>  (14) 
-8.25

>  <cluster_rmsd>  (14) 
1.75

>  <cluster>  (14) 
3

$$$$

     RDKit          3D

 63 67  0  0  0  0  0  0  0  0999 V2000
  139.4720   70.7030  221.3580 O   0  0  0  0  0  0  0  0  0  0  0  0
  139.5690   71.3390  222.4640 C   0  0  0  0  0  0  0  0  0  0  0  0
  139.5740   72.7520  222.4330 N   0  0  0  0  0  0  0  0  0  0  0  0
  139.4650   73.4200  221.1320 C   0  0  0  0  0  0  0  0  0  0  0  0
  140.1880   74.7170  221.1450 C   0  0  0  0  0  0  0  0  0  0  0  0
  140.4690   75.2220  222.2620 O   0  0  0  0  0  0  0  0  0  0  0  0
  140.5200   75.3130  219.9020 N   0  0  0  0  0  0  0  0  0  0  0  0
  141.8380   75.6620  219.3700 C   0  0  0  0  0  0  0  0  0  0  0  0
  141.7170   75.2480  217.9110 C   0  0  0  0  0  0  0  0  0  0  0  0
  140.2330   74.9390  217.6800 C   0  0  0  0  0  0  0  0  0  0  0  0
  139.6010   75.7270  218.8210 C   0  0  1  0  0  0  0  0  0  0  0  0
  138.2040   75.3160  219.0910 C   0  0  0  0  0  0  0  0  0  0  0  0
  137.3350   76.4140  219.2340 N   0  0  0  0  0  0  0  0  0  0  0  0
  137.1910   77.0700  220.4490 C   0  0  0  0  0  0  0  0  0  0  0  0
  138.3210   77.7220  221.1090 C   0  0  0  0  0  0  0  0  0  0  0  0
  139.1300   78.5480  220.3210 C   0  0  0  0  0  0  0  0  0  0  0  0
  140.1750   79.2150  220.9260 C   0  0  0  0  0  0  0  0  0  0  0  0
  140.4490   79.0930  222.2760 C   0  0  0  0  0  0  0  0  0  0  0  0
  141.5630   79.8120  222.8830 C   0  0  0  0  0  0  0  0  0  0  0  0
  141.4280   80.8360  223.7650 N   0  0  0  0  0  0  0  0  0  0  0  0
  142.6450   81.2930  224.1460 C   0  0  0  0  0  0  0  0  0  0  0  0
  143.5570   80.5060  223.4620 C   0  0  0  0  0  0  0  0  0  0  0  0
  142.9000   79.6020  222.6900 N   0  0  0  0  0  0  0  0  0  0  0  0
  139.6530   78.2770  223.0630 C   0  0  0  0  0  0  0  0  0  0  0  0
  138.5840   77.5860  222.4840 C   0  0  0  0  0  0  0  0  0  0  0  0
  139.6690   70.5740  223.7060 C   0  0  0  0  0  0  0  0  0  0  0  0
  139.1560   69.2990  223.7700 C   0  0  0  0  0  0  0  0  0  0  0  0
  139.2040   68.5110  224.9000 C   0  0  0  0  0  0  0  0  0  0  0  0
  139.8030   69.0320  226.0350 C   0  0  0  0  0  0  0  0  0  0  0  0
  139.8610   68.2690  227.1650 C   0  0  0  0  0  0  0  0  0  0  0  0
  140.4680   68.8070  228.3030 C   0  0  0  0  0  0  0  0  0  0  0  0
  140.5410   68.0710  229.4380 F   0  0  0  0  0  0  0  0  0  0  0  0
  140.9900   70.0840  228.2640 C   0  0  0  0  0  0  0  0  0  0  0  0
  140.9150   70.8330  227.1050 C   0  0  0  0  0  0  0  0  0  0  0  0
  140.3170   70.3250  225.9540 C   0  0  0  0  0  0  0  0  0  0  0  0
  140.2440   71.0550  224.8220 N   0  0  0  0  0  0  0  0  0  0  0  0
  139.6560   73.2740  223.3260 H   0  0  0  0  0  0  0  0  0  0  0  0
  139.8994   72.7724  220.3562 H   0  0  0  0  0  0  0  0  0  0  0  0
  138.4024   73.6099  220.9202 H   0  0  0  0  0  0  0  0  0  0  0  0
  142.0328   76.7406  219.4635 H   0  0  0  0  0  0  0  0  0  0  0  0
  142.6703   75.1749  219.8991 H   0  0  0  0  0  0  0  0  0  0  0  0
  142.0436   76.0669  217.2532 H   0  0  0  0  0  0  0  0  0  0  0  0
  142.3494   74.3765  217.6861 H   0  0  0  0  0  0  0  0  0  0  0  0
  139.8913   75.3010  216.6991 H   0  0  0  0  0  0  0  0  0  0  0  0
  139.9850   73.8674  217.6722 H   0  0  0  0  0  0  0  0  0  0  0  0
  139.5070   76.8103  218.6547 H   0  0  0  0  0  0  0  0  0  0  0  0
  137.8517   74.6944  218.2546 H   0  0  0  0  0  0  0  0  0  0  0  0
  138.1977   74.7602  220.0402 H   0  0  0  0  0  0  0  0  0  0  0  0
  136.8570   76.7720  218.3980 H   0  0  0  0  0  0  0  0  0  0  0  0
  136.4326   77.8509  220.2909 H   0  0  0  0  0  0  0  0  0  0  0  0
  136.9642   76.2420  221.1367 H   0  0  0  0  0  0  0  0  0  0  0  0
  138.9372   78.6628  219.2441 H   0  0  0  0  0  0  0  0  0  0  0  0
  140.8135   79.8675  220.3124 H   0  0  0  0  0  0  0  0  0  0  0  0
  142.8622   82.1122  224.8472 H   0  0  0  0  0  0  0  0  0  0  0  0
  144.6507   80.5993  223.5335 H   0  0  0  0  0  0  0  0  0  0  0  0
  143.3330   78.8720  222.0580 H   0  0  0  0  0  0  0  0  0  0  0  0
  139.8608   78.1731  224.1382 H   0  0  0  0  0  0  0  0  0  0  0  0
  137.9488   76.9361  223.1038 H   0  0  0  0  0  0  0  0  0  0  0  0
  138.6807   68.8850  222.8685 H   0  0  0  0  0  0  0  0  0  0  0  0
  138.7784   67.4967  224.9003 H   0  0  0  0  0  0  0  0  0  0  0  0
  139.4393   67.2531  227.1797 H   0  0  0  0  0  0  0  0  0  0  0  0
  141.4680   70.5076  229.1596 H   0  0  0  0  0  0  0  0  0  0  0  0
  141.3354   71.8494  227.0911 H   0  0  0  0  0  0  0  0  0  0  0  0
  1  2  2  0
  2  3  1  0
  3  4  1  0
  4  5  1  0
  5  6  2  0
  5  7  1  0
  7  8  1  0
  8  9  1  0
  9 10  1  0
 10 11  1  0
 11 12  1  0
 12 13  1  0
 13 14  1  0
 14 15  1  0
 15 16  2  0
 16 17  1  0
 17 18  2  0
 18 19  1  0
 19 20  2  0
 20 21  1  0
 21 22  2  0
 22 23  1  0
 18 24  1  0
 24 25  2  0
  2 26  1  0
 26 27  2  0
 27 28  1  0
 28 29  2  0
 29 30  1  0
 30 31  2  0
 31 32  1  0
 31 33  1  0
 33 34  2  0
 34 35  1  0
 35 36  2  0
 11  7  1  0
 25 15  1  0
 36 26  1  0
 23 19  1  0
 35 29  1  0
  3 37  1  0
  4 38  1  0
  4 39  1  0
  8 40  1  0
  8 41  1  0
  9 42  1  0
  9 43  1  0
 10 44  1  0
 10 45  1  0
 11 46  1  6
 12 47  1  0
 12 48  1  0
 13 49  1  0
 14 50  1  0
 14 51  1  0
 16 52  1  0
 17 53  1  0
 21 54  1  0
 22 55  1  0
 23 56  1  0
 24 57  1  0
 25 58  1  0
 27 59  1  0
 28 60  1  0
 30 61  1  0
 33 62  1  0
 34 63  1  0
M  END
>  <smiles>  (15) 
O=C(NCC(=O)N1CCC[C@H]1CNCc1ccc(-c2ncc[nH]2)cc1)c1ccc2cc(F)ccc2n1

>  <score_type>  (15) 
oracle

>  <origin>  (15) 
autodockgpu

>  <m_score__min__energy>  (15) 
-9.5700000000000003

>  <m_primary>  (15) 
energy

>  <rmsd>  (15) 
2.9929335709496794

>  <m_score__min__rmsd>  (15) 
2.9929335709496794

>  <meeko>  (15) 
{"free_energy": -8.01, "intermolecular_energy": -10.7, "internal_energy": -2.61, "cluster_size": 2, "cluster_id": 7, "rank_in_cluster": 2}

>  <energy>  (15) 
-8.22

>  <cluster_rmsd>  (15) 
1.34

>  <cluster>  (15) 
3

$$$$

     RDKit          3D

 63 67  0  0  0  0  0  0  0  0999 V2000
  137.1180   76.7780  220.8240 O   0  0  0  0  0  0  0  0  0  0  0  0
  137.9160   76.5520  221.7970 C   0  0  0  0  0  0  0  0  0  0  0  0
  137.9880   75.2420  222.3230 N   0  0  0  0  0  0  0  0  0  0  0  0
  137.1440   74.2040  221.7230 C   0  0  0  0  0  0  0  0  0  0  0  0
  137.9510   73.0070  221.3750 C   0  0  0  0  0  0  0  0  0  0  0  0
  138.1650   72.7770  220.1570 O   0  0  0  0  0  0  0  0  0  0  0  0
  138.4310   72.1910  222.4300 N   0  0  0  0  0  0  0  0  0  0  0  0
  137.7350   71.1400  223.1720 C   0  0  0  0  0  0  0  0  0  0  0  0
  138.8100   70.0710  223.3040 C   0  0  0  0  0  0  0  0  0  0  0  0
  140.1180   70.7290  222.8470 C   0  0  0  0  0  0  0  0  0  0  0  0
  139.7760   72.2010  223.0430 C   0  0  1  0  0  0  0  0  0  0  0  0
  140.7070   73.1010  222.3250 C   0  0  0  0  0  0  0  0  0  0  0  0
  140.8450   72.7650  220.9650 N   0  0  0  0  0  0  0  0  0  0  0  0
  141.8990   73.2500  220.2030 C   0  0  0  0  0  0  0  0  0  0  0  0
  142.0220   74.6700  219.8790 C   0  0  0  0  0  0  0  0  0  0  0  0
  140.8350   75.3970  219.7340 C   0  0  0  0  0  0  0  0  0  0  0  0
  140.9200   76.7500  219.4780 C   0  0  0  0  0  0  0  0  0  0  0  0
  142.1310   77.4060  219.3570 C   0  0  0  0  0  0  0  0  0  0  0  0
  142.1840   78.8380  219.0840 C   0  0  0  0  0  0  0  0  0  0  0  0
  141.4570   79.7740  219.7470 N   0  0  0  0  0  0  0  0  0  0  0  0
  141.7270   81.0100  219.2630 C   0  0  0  0  0  0  0  0  0  0  0  0
  142.6620   80.8090  218.2600 C   0  0  0  0  0  0  0  0  0  0  0  0
  142.9420   79.4850  218.1490 N   0  0  0  0  0  0  0  0  0  0  0  0
  143.3100   76.6940  219.4990 C   0  0  0  0  0  0  0  0  0  0  0  0
  143.2640   75.3210  219.7600 C   0  0  0  0  0  0  0  0  0  0  0  0
  138.7170   77.6590  222.3180 C   0  0  0  0  0  0  0  0  0  0  0  0
  138.0950   78.7640  222.8520 C   0  0  0  0  0  0  0  0  0  0  0  0
  138.7720   79.8520  223.3610 C   0  0  0  0  0  0  0  0  0  0  0  0
  140.1560   79.8310  223.3350 C   0  0  0  0  0  0  0  0  0  0  0  0
  140.8460   80.8970  223.8340 C   0  0  0  0  0  0  0  0  0  0  0  0
  142.2430   80.8630  223.8010 C   0  0  0  0  0  0  0  0  0  0  0  0
  142.9530   81.9080  224.2900 F   0  0  0  0  0  0  0  0  0  0  0  0
  142.8900   79.7660  223.2710 C   0  0  0  0  0  0  0  0  0  0  0  0
  142.1640   78.7010  222.7730 C   0  0  0  0  0  0  0  0  0  0  0  0
  140.7720   78.7040  222.7910 C   0  0  0  0  0  0  0  0  0  0  0  0
  140.0620   77.6650  222.3050 N   0  0  0  0  0  0  0  0  0  0  0  0
  138.6320   75.0530  223.1140 H   0  0  0  0  0  0  0  0  0  0  0  0
  136.3614   73.9157  222.4403 H   0  0  0  0  0  0  0  0  0  0  0  0
  136.6910   74.6043  220.8040 H   0  0  0  0  0  0  0  0  0  0  0  0
  137.4069   71.4992  224.1586 H   0  0  0  0  0  0  0  0  0  0  0  0
  136.8185   70.7848  222.6781 H   0  0  0  0  0  0  0  0  0  0  0  0
  138.8936   69.7399  224.3497 H   0  0  0  0  0  0  0  0  0  0  0  0
  138.5724   69.1834  222.6992 H   0  0  0  0  0  0  0  0  0  0  0  0
  140.9672   70.4228  223.4756 H   0  0  0  0  0  0  0  0  0  0  0  0
  140.4302   70.4644  221.8260 H   0  0  0  0  0  0  0  0  0  0  0  0
  139.8331   72.5684  224.0783 H   0  0  0  0  0  0  0  0  0  0  0  0
  140.3268   74.1307  222.3965 H   0  0  0  0  0  0  0  0  0  0  0  0
  141.6964   72.9999  222.7949 H   0  0  0  0  0  0  0  0  0  0  0  0
  140.1860   72.0910  220.5580 H   0  0  0  0  0  0  0  0  0  0  0  0
  142.8200   72.9735  220.7372 H   0  0  0  0  0  0  0  0  0  0  0  0
  141.7026   72.8009  219.2183 H   0  0  0  0  0  0  0  0  0  0  0  0
  139.8570   74.9012  219.8221 H   0  0  0  0  0  0  0  0  0  0  0  0
  139.9906   77.3277  219.3661 H   0  0  0  0  0  0  0  0  0  0  0  0
  141.2970   81.9667  219.5945 H   0  0  0  0  0  0  0  0  0  0  0  0
  143.1104   81.6035  217.6455 H   0  0  0  0  0  0  0  0  0  0  0  0
  143.6170   79.0330  217.4700 H   0  0  0  0  0  0  0  0  0  0  0  0
  144.2790   77.2064  219.4069 H   0  0  0  0  0  0  0  0  0  0  0  0
  144.1977   74.7503  219.8722 H   0  0  0  0  0  0  0  0  0  0  0  0
  136.9953   78.7804  222.8741 H   0  0  0  0  0  0  0  0  0  0  0  0
  138.2275   80.7129  223.7762 H   0  0  0  0  0  0  0  0  0  0  0  0
  140.3146   81.7642  224.2531 H   0  0  0  0  0  0  0  0  0  0  0  0
  143.9894   79.7389  223.2447 H   0  0  0  0  0  0  0  0  0  0  0  0
  142.6962   77.8341  222.3543 H   0  0  0  0  0  0  0  0  0  0  0  0
  1  2  2  0
  2  3  1  0
  3  4  1  0
  4  5  1  0
  5  6  2  0
  5  7  1  0
  7  8  1  0
  8  9  1  0
  9 10  1  0
 10 11  1  0
 11 12  1  0
 12 13  1  0
 13 14  1  0
 14 15  1  0
 15 16  2  0
 16 17  1  0
 17 18  2  0
 18 19  1  0
 19 20  2  0
 20 21  1  0
 21 22  2  0
 22 23  1  0
 18 24  1  0
 24 25  2  0
  2 26  1  0
 26 27  2  0
 27 28  1  0
 28 29  2  0
 29 30  1  0
 30 31  2  0
 31 32  1  0
 31 33  1  0
 33 34  2  0
 34 35  1  0
 35 36  2  0
 11  7  1  0
 25 15  1  0
 36 26  1  0
 23 19  1  0
 35 29  1  0
  3 37  1  0
  4 38  1  0
  4 39  1  0
  8 40  1  0
  8 41  1  0
  9 42  1  0
  9 43  1  0
 10 44  1  0
 10 45  1  0
 11 46  1  1
 12 47  1  0
 12 48  1  0
 13 49  1  0
 14 50  1  0
 14 51  1  0
 16 52  1  0
 17 53  1  0
 21 54  1  0
 22 55  1  0
 23 56  1  0
 24 57  1  0
 25 58  1  0
 27 59  1  0
 28 60  1  0
 30 61  1  0
 33 62  1  0
 34 63  1  0
M  END
>  <smiles>  (16) 
O=C(NCC(=O)N1CCC[C@H]1CNCc1ccc(-c2ncc[nH]2)cc1)c1ccc2cc(F)ccc2n1

>  <score_type>  (16) 
oracle

>  <origin>  (16) 
autodockgpu

>  <m_score__min__energy>  (16) 
-9.5700000000000003

>  <m_primary>  (16) 
energy

>  <rmsd>  (16) 
7.903021437401449

>  <m_score__min__rmsd>  (16) 
7.903021437401449

>  <meeko>  (16) 
{"free_energy": -6.62, "intermolecular_energy": -9.3, "internal_energy": -3.97, "cluster_size": 4, "cluster_id": 13, "rank_in_cluster": 1}

>  <energy>  (16) 
-8.18

>  <cluster_rmsd>  (16) 
1.61

>  <cluster>  (16) 
3

$$$$

     RDKit          3D

 63 67  0  0  0  0  0  0  0  0999 V2000
  141.4260   71.9730  221.7030 O   0  0  0  0  0  0  0  0  0  0  0  0
  140.4670   72.2420  222.5040 C   0  0  0  0  0  0  0  0  0  0  0  0
  139.6260   73.3400  222.2080 N   0  0  0  0  0  0  0  0  0  0  0  0
  139.8950   74.1150  220.9930 C   0  0  0  0  0  0  0  0  0  0  0  0
  140.7940   75.2590  221.2870 C   0  0  0  0  0  0  0  0  0  0  0  0
  140.4410   76.0690  222.1810 O   0  0  0  0  0  0  0  0  0  0  0  0
  141.9970   75.3750  220.5450 N   0  0  0  0  0  0  0  0  0  0  0  0
  142.9380   74.3280  220.1450 C   0  0  0  0  0  0  0  0  0  0  0  0
  143.2900   74.7370  218.7220 C   0  0  0  0  0  0  0  0  0  0  0  0
  142.7120   76.1450  218.5310 C   0  0  0  0  0  0  0  0  0  0  0  0
  142.5990   76.6010  219.9810 C   0  0  1  0  0  0  0  0  0  0  0  0
  141.7150   77.7790  220.1390 C   0  0  0  0  0  0  0  0  0  0  0  0
  142.1970   78.6930  221.0950 N   0  0  0  0  0  0  0  0  0  0  0  0
  141.8490   78.5910  222.4350 C   0  0  0  0  0  0  0  0  0  0  0  0
  140.6700   79.2680  222.9750 C   0  0  0  0  0  0  0  0  0  0  0  0
  140.8380   80.5850  223.4180 C   0  0  0  0  0  0  0  0  0  0  0  0
  139.7330   81.2660  223.8860 C   0  0  0  0  0  0  0  0  0  0  0  0
  138.4750   80.6940  223.9340 C   0  0  0  0  0  0  0  0  0  0  0  0
  137.3300   81.4430  224.4370 C   0  0  0  0  0  0  0  0  0  0  0  0
  137.0840   81.6790  225.7520 N   0  0  0  0  0  0  0  0  0  0  0  0
  135.9470   82.4010  225.8960 C   0  0  0  0  0  0  0  0  0  0  0  0
  135.4860   82.6100  224.6060 C   0  0  0  0  0  0  0  0  0  0  0  0
  136.3270   82.0260  223.7150 N   0  0  0  0  0  0  0  0  0  0  0  0
  138.3020   79.3910  223.4980 C   0  0  0  0  0  0  0  0  0  0  0  0
  139.3980   78.6690  223.0150 C   0  0  0  0  0  0  0  0  0  0  0  0
  140.2850   71.4030  223.6870 C   0  0  0  0  0  0  0  0  0  0  0  0
  139.5980   70.2140  223.5860 C   0  0  0  0  0  0  0  0  0  0  0  0
  139.3780   69.3650  224.6500 C   0  0  0  0  0  0  0  0  0  0  0  0
  139.8760   69.7280  225.8900 C   0  0  0  0  0  0  0  0  0  0  0  0
  139.6690   68.9030  226.9560 C   0  0  0  0  0  0  0  0  0  0  0  0
  140.1770   69.2820  228.2020 C   0  0  0  0  0  0  0  0  0  0  0  0
  139.9870   68.4800  229.2780 F   0  0  0  0  0  0  0  0  0  0  0  0
  140.8690   70.4690  228.3290 C   0  0  0  0  0  0  0  0  0  0  0  0
  141.0620   71.2840  227.2300 C   0  0  0  0  0  0  0  0  0  0  0  0
  140.5690   70.9360  225.9760 C   0  0  0  0  0  0  0  0  0  0  0  0
  140.7570   71.7310  224.9030 N   0  0  0  0  0  0  0  0  0  0  0  0
  138.8480   73.5660  222.8560 H   0  0  0  0  0  0  0  0  0  0  0  0
  140.3731   73.4627  220.2474 H   0  0  0  0  0  0  0  0  0  0  0  0
  138.9425   74.5051  220.6050 H   0  0  0  0  0  0  0  0  0  0  0  0
  143.8286   74.3246  220.7906 H   0  0  0  0  0  0  0  0  0  0  0  0
  142.5256   73.3112  220.2225 H   0  0  0  0  0  0  0  0  0  0  0  0
  144.3816   74.7505  218.5872 H   0  0  0  0  0  0  0  0  0  0  0  0
  142.8791   74.0298  217.9864 H   0  0  0  0  0  0  0  0  0  0  0  0
  143.3935   76.7886  217.9553 H   0  0  0  0  0  0  0  0  0  0  0  0
  141.7689   76.1794  217.9660 H   0  0  0  0  0  0  0  0  0  0  0  0
  143.5366   76.9373  220.4477 H   0  0  0  0  0  0  0  0  0  0  0  0
  141.6355   78.2924  219.1694 H   0  0  0  0  0  0  0  0  0  0  0  0
  140.7366   77.4170  220.4878 H   0  0  0  0  0  0  0  0  0  0  0  0
  142.8760   79.4030  220.7940 H   0  0  0  0  0  0  0  0  0  0  0  0
  141.7108   77.5188  222.6383 H   0  0  0  0  0  0  0  0  0  0  0  0
  142.6736   79.1220  222.9331 H   0  0  0  0  0  0  0  0  0  0  0  0
  141.8272   81.0656  223.3936 H   0  0  0  0  0  0  0  0  0  0  0  0
  139.8574   82.3021  224.2337 H   0  0  0  0  0  0  0  0  0  0  0  0
  135.4886   82.7467  226.8343 H   0  0  0  0  0  0  0  0  0  0  0  0
  134.5742   83.1664  224.3432 H   0  0  0  0  0  0  0  0  0  0  0  0
  136.2310   82.0200  222.6610 H   0  0  0  0  0  0  0  0  0  0  0  0
  137.3059   78.9255  223.5315 H   0  0  0  0  0  0  0  0  0  0  0  0
  139.2655   77.6340  222.6668 H   0  0  0  0  0  0  0  0  0  0  0  0
  139.2024   69.9252  222.6011 H   0  0  0  0  0  0  0  0  0  0  0  0
  138.8221   68.4251  224.5174 H   0  0  0  0  0  0  0  0  0  0  0  0
  139.1146   67.9603  226.8380 H   0  0  0  0  0  0  0  0  0  0  0  0
  141.2687   70.7677  229.3093 H   0  0  0  0  0  0  0  0  0  0  0  0
  141.6164   72.2267  227.3487 H   0  0  0  0  0  0  0  0  0  0  0  0
  1  2  2  0
  2  3  1  0
  3  4  1  0
  4  5  1  0
  5  6  2  0
  5  7  1  0
  7  8  1  0
  8  9  1  0
  9 10  1  0
 10 11  1  0
 11 12  1  0
 12 13  1  0
 13 14  1  0
 14 15  1  0
 15 16  2  0
 16 17  1  0
 17 18  2  0
 18 19  1  0
 19 20  2  0
 20 21  1  0
 21 22  2  0
 22 23  1  0
 18 24  1  0
 24 25  2  0
  2 26  1  0
 26 27  2  0
 27 28  1  0
 28 29  2  0
 29 30  1  0
 30 31  2  0
 31 32  1  0
 31 33  1  0
 33 34  2  0
 34 35  1  0
 35 36  2  0
 11  7  1  0
 25 15  1  0
 36 26  1  0
 23 19  1  0
 35 29  1  0
  3 37  1  0
  4 38  1  0
  4 39  1  0
  8 40  1  0
  8 41  1  0
  9 42  1  0
  9 43  1  0
 10 44  1  0
 10 45  1  0
 11 46  1  1
 12 47  1  0
 12 48  1  0
 13 49  1  0
 14 50  1  0
 14 51  1  0
 16 52  1  0
 17 53  1  0
 21 54  1  0
 22 55  1  0
 23 56  1  0
 24 57  1  0
 25 58  1  0
 27 59  1  0
 28 60  1  0
 30 61  1  0
 33 62  1  0
 34 63  1  0
M  END
>  <smiles>  (17) 
O=C(NCC(=O)N1CCC[C@H]1CNCc1ccc(-c2ncc[nH]2)cc1)c1ccc2cc(F)ccc2n1

>  <score_type>  (17) 
oracle

>  <origin>  (17) 
autodockgpu

>  <m_score__min__energy>  (17) 
-9.5700000000000003

>  <m_primary>  (17) 
energy

>  <rmsd>  (17) 
2.571550192955415

>  <m_score__min__rmsd>  (17) 
2.571550192955415

>  <meeko>  (17) 
{"free_energy": -9.0, "intermolecular_energy": -11.68, "internal_energy": -1.7, "cluster_size": 1, "cluster_id": 2, "rank_in_cluster": 1}

>  <energy>  (17) 
-8.16

>  <cluster_rmsd>  (17) 
1.06

>  <cluster>  (17) 
3

$$$$

     RDKit          3D

 63 67  0  0  0  0  0  0  0  0999 V2000
  139.9360   73.5530  222.6960 O   0  0  0  0  0  0  0  0  0  0  0  0
  140.2180   72.3160  222.5300 C   0  0  0  0  0  0  0  0  0  0  0  0
  140.5570   71.8680  221.2330 N   0  0  0  0  0  0  0  0  0  0  0  0
  140.5710   72.8460  220.1400 C   0  0  0  0  0  0  0  0  0  0  0  0
  139.1880   73.1870  219.7220 C   0  0  0  0  0  0  0  0  0  0  0  0
  139.0180   74.2460  219.0650 O   0  0  0  0  0  0  0  0  0  0  0  0
  138.1400   72.3050  220.0860 N   0  0  0  0  0  0  0  0  0  0  0  0
  138.1180   70.8420  220.0660 C   0  0  0  0  0  0  0  0  0  0  0  0
  137.3890   70.5120  221.3600 C   0  0  0  0  0  0  0  0  0  0  0  0
  136.8230   71.8390  221.8770 C   0  0  0  0  0  0  0  0  0  0  0  0
  136.7950   72.6540  220.5890 C   0  0  1  0  0  0  0  0  0  0  0  0
  136.6540   74.1070  220.8380 C   0  0  0  0  0  0  0  0  0  0  0  0
  137.3750   74.5340  221.9700 N   0  0  0  0  0  0  0  0  0  0  0  0
  137.2230   75.8150  222.4840 C   0  0  0  0  0  0  0  0  0  0  0  0
  138.3570   76.7290  222.6140 C   0  0  0  0  0  0  0  0  0  0  0  0
  138.0780   78.0360  223.0290 C   0  0  0  0  0  0  0  0  0  0  0  0
  139.1330   78.9070  223.2090 C   0  0  0  0  0  0  0  0  0  0  0  0
  140.4470   78.5340  222.9920 C   0  0  0  0  0  0  0  0  0  0  0  0
  141.5370   79.4820  223.1900 C   0  0  0  0  0  0  0  0  0  0  0  0
  141.4320   80.6380  223.8950 N   0  0  0  0  0  0  0  0  0  0  0  0
  142.6150   81.2990  223.8970 C   0  0  0  0  0  0  0  0  0  0  0  0
  143.4740   80.5010  223.1580 C   0  0  0  0  0  0  0  0  0  0  0  0
  142.8190   79.3940  222.7260 N   0  0  0  0  0  0  0  0  0  0  0  0
  140.7310   77.2430  222.5810 C   0  0  0  0  0  0  0  0  0  0  0  0
  139.6870   76.3310  222.3890 C   0  0  0  0  0  0  0  0  0  0  0  0
  140.1770   71.4270  223.6890 C   0  0  0  0  0  0  0  0  0  0  0  0
  139.6480   70.1620  223.5660 C   0  0  0  0  0  0  0  0  0  0  0  0
  139.5670   69.2620  224.6060 C   0  0  0  0  0  0  0  0  0  0  0  0
  140.0460   69.6500  225.8460 C   0  0  0  0  0  0  0  0  0  0  0  0
  139.9750   68.7750  226.8900 C   0  0  0  0  0  0  0  0  0  0  0  0
  140.4620   69.1800  228.1360 C   0  0  0  0  0  0  0  0  0  0  0  0
  140.4050   68.3300  229.1890 F   0  0  0  0  0  0  0  0  0  0  0  0
  140.9970   70.4430  228.2860 C   0  0  0  0  0  0  0  0  0  0  0  0
  141.0540   71.3090  227.2090 C   0  0  0  0  0  0  0  0  0  0  0  0
  140.5780   70.9350  225.9550 C   0  0  0  0  0  0  0  0  0  0  0  0
  140.6330   71.7790  224.9040 N   0  0  0  0  0  0  0  0  0  0  0  0
  140.7830   70.8660  221.0910 H   0  0  0  0  0  0  0  0  0  0  0  0
  141.0810   73.7595  220.4796 H   0  0  0  0  0  0  0  0  0  0  0  0
  141.1018   72.4087  219.2815 H   0  0  0  0  0  0  0  0  0  0  0  0
  137.5686   70.4636  219.1914 H   0  0  0  0  0  0  0  0  0  0  0  0
  139.1169   70.3870  219.9944 H   0  0  0  0  0  0  0  0  0  0  0  0
  136.5745   69.7980  221.1683 H   0  0  0  0  0  0  0  0  0  0  0  0
  138.0633   70.0483  222.0950 H   0  0  0  0  0  0  0  0  0  0  0  0
  135.8150   71.7129  222.2991 H   0  0  0  0  0  0  0  0  0  0  0  0
  137.4014   72.2952  222.6939 H   0  0  0  0  0  0  0  0  0  0  0  0
  135.9551   72.4420  219.9110 H   0  0  0  0  0  0  0  0  0  0  0  0
  137.0241   74.6530  219.9577 H   0  0  0  0  0  0  0  0  0  0  0  0
  135.5893   74.3119  221.0237 H   0  0  0  0  0  0  0  0  0  0  0  0
  137.9690   73.8530  222.4580 H   0  0  0  0  0  0  0  0  0  0  0  0
  136.4890   76.3218  221.8402 H   0  0  0  0  0  0  0  0  0  0  0  0
  136.9593   75.6172  223.5334 H   0  0  0  0  0  0  0  0  0  0  0  0
  137.0425   78.3613  223.2075 H   0  0  0  0  0  0  0  0  0  0  0  0
  138.9212   79.9354  223.5370 H   0  0  0  0  0  0  0  0  0  0  0  0
  142.8438   82.2603  224.3803 H   0  0  0  0  0  0  0  0  0  0  0  0
  144.5298   80.7309  222.9523 H   0  0  0  0  0  0  0  0  0  0  0  0
  143.2200   78.6070  222.1410 H   0  0  0  0  0  0  0  0  0  0  0  0
  141.7725   76.9354  222.4061 H   0  0  0  0  0  0  0  0  0  0  0  0
  139.9065   75.3038  222.0624 H   0  0  0  0  0  0  0  0  0  0  0  0
  139.2683   69.8521  222.5812 H   0  0  0  0  0  0  0  0  0  0  0  0
  139.1336   68.2623  224.4554 H   0  0  0  0  0  0  0  0  0  0  0  0
  139.5438   67.7722  226.7543 H   0  0  0  0  0  0  0  0  0  0  0  0
  141.3799   70.7626  229.2664 H   0  0  0  0  0  0  0  0  0  0  0  0
  141.4836   72.3124  227.3457 H   0  0  0  0  0  0  0  0  0  0  0  0
  1  2  2  0
  2  3  1  0
  3  4  1  0
  4  5  1  0
  5  6  2  0
  5  7  1  0
  7  8  1  0
  8  9  1  0
  9 10  1  0
 10 11  1  0
 11 12  1  0
 12 13  1  0
 13 14  1  0
 14 15  1  0
 15 16  2  0
 16 17  1  0
 17 18  2  0
 18 19  1  0
 19 20  2  0
 20 21  1  0
 21 22  2  0
 22 23  1  0
 18 24  1  0
 24 25  2  0
  2 26  1  0
 26 27  2  0
 27 28  1  0
 28 29  2  0
 29 30  1  0
 30 31  2  0
 31 32  1  0
 31 33  1  0
 33 34  2  0
 34 35  1  0
 35 36  2  0
 11  7  1  0
 25 15  1  0
 36 26  1  0
 23 19  1  0
 35 29  1  0
  3 37  1  0
  4 38  1  0
  4 39  1  0
  8 40  1  0
  8 41  1  0
  9 42  1  0
  9 43  1  0
 10 44  1  0
 10 45  1  0
 11 46  1  6
 12 47  1  0
 12 48  1  0
 13 49  1  0
 14 50  1  0
 14 51  1  0
 16 52  1  0
 17 53  1  0
 21 54  1  0
 22 55  1  0
 23 56  1  0
 24 57  1  0
 25 58  1  0
 27 59  1  0
 28 60  1  0
 30 61  1  0
 33 62  1  0
 34 63  1  0
M  END
>  <smiles>  (18) 
O=C(NCC(=O)N1CCC[C@H]1CNCc1ccc(-c2ncc[nH]2)cc1)c1ccc2cc(F)ccc2n1

>  <score_type>  (18) 
oracle

>  <origin>  (18) 
autodockgpu

>  <m_score__min__energy>  (18) 
-9.5700000000000003

>  <m_primary>  (18) 
energy

>  <rmsd>  (18) 
4.3406817912201925

>  <m_score__min__rmsd>  (18) 
4.3406817912201925

>  <meeko>  (18) 
{"free_energy": -8.66, "intermolecular_energy": -11.34, "internal_energy": -3.08, "cluster_size": 16, "cluster_id": 3, "rank_in_cluster": 5}

>  <energy>  (18) 
-8.13

>  <cluster_rmsd>  (18) 
0.6

>  <cluster>  (18) 
3

$$$$

     RDKit          3D

 63 67  0  0  0  0  0  0  0  0999 V2000
  141.1170   71.8230  221.7580 O   0  0  0  0  0  0  0  0  0  0  0  0
  140.1870   72.0120  222.6150 C   0  0  0  0  0  0  0  0  0  0  0  0
  139.2760   73.0730  222.4010 N   0  0  0  0  0  0  0  0  0  0  0  0
  139.4420   73.9020  221.2030 C   0  0  0  0  0  0  0  0  0  0  0  0
  140.6290   74.7850  221.3360 C   0  0  0  0  0  0  0  0  0  0  0  0
  141.7370   74.2450  221.5830 O   0  0  0  0  0  0  0  0  0  0  0  0
  140.4470   76.1820  221.1790 N   0  0  0  0  0  0  0  0  0  0  0  0
  139.6960   77.1140  222.0210 C   0  0  0  0  0  0  0  0  0  0  0  0
  140.6110   78.3290  222.0530 C   0  0  0  0  0  0  0  0  0  0  0  0
  141.6930   78.0720  220.9970 C   0  0  0  0  0  0  0  0  0  0  0  0
  140.9860   77.0520  220.1130 C   0  0  1  0  0  0  0  0  0  0  0  0
  141.9210   76.3260  219.2220 C   0  0  0  0  0  0  0  0  0  0  0  0
  142.9690   75.7060  219.9280 N   0  0  0  0  0  0  0  0  0  0  0  0
  144.0630   75.1610  219.2690 C   0  0  0  0  0  0  0  0  0  0  0  0
  144.3370   73.7240  219.2950 C   0  0  0  0  0  0  0  0  0  0  0  0
  145.0070   73.1830  218.1930 C   0  0  0  0  0  0  0  0  0  0  0  0
  145.3240   71.8400  218.2110 C   0  0  0  0  0  0  0  0  0  0  0  0
  145.0010   71.0170  219.2740 C   0  0  0  0  0  0  0  0  0  0  0  0
  145.3490   69.6010  219.2590 C   0  0  0  0  0  0  0  0  0  0  0  0
  144.6790   68.6380  219.9420 N   0  0  0  0  0  0  0  0  0  0  0  0
  145.2440   67.4260  219.7240 C   0  0  0  0  0  0  0  0  0  0  0  0
  146.3050   67.6710  218.8670 C   0  0  0  0  0  0  0  0  0  0  0  0
  146.3710   68.9970  218.5830 N   0  0  0  0  0  0  0  0  0  0  0  0
  144.3370   71.5460  220.3690 C   0  0  0  0  0  0  0  0  0  0  0  0
  144.0000   72.9030  220.3870 C   0  0  0  0  0  0  0  0  0  0  0  0
  140.1090   71.1240  223.7730 C   0  0  0  0  0  0  0  0  0  0  0  0
  139.4820   69.9040  223.6610 C   0  0  0  0  0  0  0  0  0  0  0  0
  139.3600   69.0080  224.7010 C   0  0  0  0  0  0  0  0  0  0  0  0
  139.8990   69.3540  225.9290 C   0  0  0  0  0  0  0  0  0  0  0  0
  139.7900   68.4830  226.9730 C   0  0  0  0  0  0  0  0  0  0  0  0
  140.3390   68.8450  228.2060 C   0  0  0  0  0  0  0  0  0  0  0  0
  140.2450   67.9980  229.2590 F   0  0  0  0  0  0  0  0  0  0  0  0
  140.9720   70.0630  228.3440 C   0  0  0  0  0  0  0  0  0  0  0  0
  141.0670   70.9260  227.2680 C   0  0  0  0  0  0  0  0  0  0  0  0
  140.5310   70.5940  226.0260 C   0  0  0  0  0  0  0  0  0  0  0  0
  140.6230   71.4350  224.9760 N   0  0  0  0  0  0  0  0  0  0  0  0
  138.5210   73.2330  223.0940 H   0  0  0  0  0  0  0  0  0  0  0  0
  139.5739   73.2492  220.3275 H   0  0  0  0  0  0  0  0  0  0  0  0
  138.5467   74.5291  221.0800 H   0  0  0  0  0  0  0  0  0  0  0  0
  138.7221   77.3601  221.5727 H   0  0  0  0  0  0  0  0  0  0  0  0
  139.4584   76.7144  223.0179 H   0  0  0  0  0  0  0  0  0  0  0  0
  140.0455   79.2398  221.8068 H   0  0  0  0  0  0  0  0  0  0  0  0
  141.0494   78.4768  223.0510 H   0  0  0  0  0  0  0  0  0  0  0  0
  141.9421   78.9875  220.4404 H   0  0  0  0  0  0  0  0  0  0  0  0
  142.6576   77.7340  221.4036 H   0  0  0  0  0  0  0  0  0  0  0  0
  140.2499   77.4645  219.4073 H   0  0  0  0  0  0  0  0  0  0  0  0
  141.3593   75.5542  218.6754 H   0  0  0  0  0  0  0  0  0  0  0  0
  142.3692   77.0619  218.5381 H   0  0  0  0  0  0  0  0  0  0  0  0
  142.9460   75.7250  220.9550 H   0  0  0  0  0  0  0  0  0  0  0  0
  143.9551   75.4365  218.2095 H   0  0  0  0  0  0  0  0  0  0  0  0
  144.9092   75.5718  219.8392 H   0  0  0  0  0  0  0  0  0  0  0  0
  145.2750   73.8132  217.3321 H   0  0  0  0  0  0  0  0  0  0  0  0
  145.8529   71.4086  217.3483 H   0  0  0  0  0  0  0  0  0  0  0  0
  144.9286   66.4569  220.1379 H   0  0  0  0  0  0  0  0  0  0  0  0
  146.9911   66.9056  218.4754 H   0  0  0  0  0  0  0  0  0  0  0  0
  147.0770   69.4780  217.9570 H   0  0  0  0  0  0  0  0  0  0  0  0
  144.0760   70.9010  221.2209 H   0  0  0  0  0  0  0  0  0  0  0  0
  143.4722   73.3281  221.2535 H   0  0  0  0  0  0  0  0  0  0  0  0
  139.0539   69.6284  222.6859 H   0  0  0  0  0  0  0  0  0  0  0  0
  138.8486   68.0444  224.5597 H   0  0  0  0  0  0  0  0  0  0  0  0
  139.2807   67.5162  226.8470 H   0  0  0  0  0  0  0  0  0  0  0  0
  141.4032   70.3489  229.3147 H   0  0  0  0  0  0  0  0  0  0  0  0
  141.5755   71.8931  227.3952 H   0  0  0  0  0  0  0  0  0  0  0  0
  1  2  2  0
  2  3  1  0
  3  4  1  0
  4  5  1  0
  5  6  2  0
  5  7  1  0
  7  8  1  0
  8  9  1  0
  9 10  1  0
 10 11  1  0
 11 12  1  0
 12 13  1  0
 13 14  1  0
 14 15  1  0
 15 16  2  0
 16 17  1  0
 17 18  2  0
 18 19  1  0
 19 20  2  0
 20 21  1  0
 21 22  2  0
 22 23  1  0
 18 24  1  0
 24 25  2  0
  2 26  1  0
 26 27  2  0
 27 28  1  0
 28 29  2  0
 29 30  1  0
 30 31  2  0
 31 32  1  0
 31 33  1  0
 33 34  2  0
 34 35  1  0
 35 36  2  0
 11  7  1  0
 25 15  1  0
 36 26  1  0
 23 19  1  0
 35 29  1  0
  3 37  1  0
  4 38  1  0
  4 39  1  0
  8 40  1  0
  8 41  1  0
  9 42  1  0
  9 43  1  0
 10 44  1  0
 10 45  1  0
 11 46  1  6
 12 47  1  0
 12 48  1  0
 13 49  1  0
 14 50  1  0
 14 51  1  0
 16 52  1  0
 17 53  1  0
 21 54  1  0
 22 55  1  0
 23 56  1  0
 24 57  1  0
 25 58  1  0
 27 59  1  0
 28 60  1  0
 30 61  1  0
 33 62  1  0
 34 63  1  0
M  END
>  <smiles>  (19) 
O=C(NCC(=O)N1CCC[C@H]1CNCc1ccc(-c2ncc[nH]2)cc1)c1ccc2cc(F)ccc2n1

>  <score_type>  (19) 
oracle

>  <origin>  (19) 
autodockgpu

>  <m_score__min__energy>  (19) 
-9.5700000000000003

>  <m_primary>  (19) 
energy

>  <rmsd>  (19) 
5.433790582002919

>  <m_score__min__rmsd>  (19) 
5.433790582002919

>  <meeko>  (19) 
{"free_energy": -9.44, "intermolecular_energy": -12.13, "internal_energy": -2.2, "cluster_size": 5, "cluster_id": 1, "rank_in_cluster": 2}

>  <energy>  (19) 
-8.1

>  <cluster_rmsd>  (19) 
1.49

>  <cluster>  (19) 
3

$$$$

     RDKit          3D

 63 67  0  0  0  0  0  0  0  0999 V2000
  141.5840   76.3920  217.8200 O   0  0  0  0  0  0  0  0  0  0  0  0
  142.4710   76.4760  218.7370 C   0  0  0  0  0  0  0  0  0  0  0  0
  142.5910   77.6890  219.4530 N   0  0  0  0  0  0  0  0  0  0  0  0
  141.6880   78.7920  219.1100 C   0  0  0  0  0  0  0  0  0  0  0  0
  140.8990   79.2130  220.2950 C   0  0  0  0  0  0  0  0  0  0  0  0
  139.6800   79.4730  220.1270 O   0  0  0  0  0  0  0  0  0  0  0  0
  141.5610   79.3000  221.5460 N   0  0  0  0  0  0  0  0  0  0  0  0
  142.5040   80.3130  222.0210 C   0  0  0  0  0  0  0  0  0  0  0  0
  142.0600   80.5170  223.4620 C   0  0  0  0  0  0  0  0  0  0  0  0
  141.0580   79.3960  223.7590 C   0  0  0  0  0  0  0  0  0  0  0  0
  141.4520   78.3780  222.6950 C   0  0  1  0  0  0  0  0  0  0  0  0
  140.4110   77.3450  222.4830 C   0  0  0  0  0  0  0  0  0  0  0  0
  140.9320   76.1570  221.9370 N   0  0  0  0  0  0  0  0  0  0  0  0
  140.1190   75.2450  221.2780 C   0  0  0  0  0  0  0  0  0  0  0  0
  140.6300   73.9560  220.8130 C   0  0  0  0  0  0  0  0  0  0  0  0
  140.3260   73.5850  219.4990 C   0  0  0  0  0  0  0  0  0  0  0  0
  140.8360   72.3980  219.0160 C   0  0  0  0  0  0  0  0  0  0  0  0
  141.6310   71.5670  219.7840 C   0  0  0  0  0  0  0  0  0  0  0  0
  142.1520   70.3170  219.2420 C   0  0  0  0  0  0  0  0  0  0  0  0
  143.1760   69.6110  219.7870 N   0  0  0  0  0  0  0  0  0  0  0  0
  143.4240   68.4990  219.0540 C   0  0  0  0  0  0  0  0  0  0  0  0
  142.5040   68.5360  218.0190 C   0  0  0  0  0  0  0  0  0  0  0  0
  141.7280   69.6440  218.1310 N   0  0  0  0  0  0  0  0  0  0  0  0
  141.9360   71.9260  221.0860 C   0  0  0  0  0  0  0  0  0  0  0  0
  141.4380   73.1240  221.6100 C   0  0  0  0  0  0  0  0  0  0  0  0
  143.3170   75.3130  219.0020 C   0  0  0  0  0  0  0  0  0  0  0  0
  144.0090   75.2240  220.1880 C   0  0  0  0  0  0  0  0  0  0  0  0
  144.8300   74.1670  220.5160 C   0  0  0  0  0  0  0  0  0  0  0  0
  144.9670   73.1360  219.6020 C   0  0  0  0  0  0  0  0  0  0  0  0
  145.7750   72.0800  219.9060 C   0  0  0  0  0  0  0  0  0  0  0  0
  145.9040   71.0470  218.9740 C   0  0  0  0  0  0  0  0  0  0  0  0
  146.6990   69.9860  219.2510 F   0  0  0  0  0  0  0  0  0  0  0  0
  145.2200   71.1130  217.7770 C   0  0  0  0  0  0  0  0  0  0  0  0
  144.4090   72.1960  217.4970 C   0  0  0  0  0  0  0  0  0  0  0  0
  144.2600   73.2420  218.4040 C   0  0  0  0  0  0  0  0  0  0  0  0
  143.4680   74.2990  218.1310 N   0  0  0  0  0  0  0  0  0  0  0  0
  143.3110   77.7640  220.1970 H   0  0  0  0  0  0  0  0  0  0  0  0
  142.2812   79.6454  218.7496 H   0  0  0  0  0  0  0  0  0  0  0  0
  140.9948   78.4507  218.3270 H   0  0  0  0  0  0  0  0  0  0  0  0
  143.5403   79.9474  221.9712 H   0  0  0  0  0  0  0  0  0  0  0  0
  142.4980   81.2361  221.4228 H   0  0  0  0  0  0  0  0  0  0  0  0
  142.9227   80.4481  224.1410 H   0  0  0  0  0  0  0  0  0  0  0  0
  141.6085   81.5095  223.6074 H   0  0  0  0  0  0  0  0  0  0  0  0
  141.1892   78.9931  224.7741 H   0  0  0  0  0  0  0  0  0  0  0  0
  140.0029   79.7055  223.7272 H   0  0  0  0  0  0  0  0  0  0  0  0
  142.3464   77.7783  222.9197 H   0  0  0  0  0  0  0  0  0  0  0  0
  139.9429   77.1125  223.4509 H   0  0  0  0  0  0  0  0  0  0  0  0
  139.6808   77.7493  221.7665 H   0  0  0  0  0  0  0  0  0  0  0  0
  141.9480   76.0050  221.9720 H   0  0  0  0  0  0  0  0  0  0  0  0
  139.2883   75.0196  221.9630 H   0  0  0  0  0  0  0  0  0  0  0  0
  139.9010   75.7651  220.3336 H   0  0  0  0  0  0  0  0  0  0  0  0
  139.6947   74.2253  218.8654 H   0  0  0  0  0  0  0  0  0  0  0  0
  140.6020   72.1017  217.9828 H   0  0  0  0  0  0  0  0  0  0  0  0
  144.1904   67.7323  219.2404 H   0  0  0  0  0  0  0  0  0  0  0  0
  142.4155   67.7801  217.2248 H   0  0  0  0  0  0  0  0  0  0  0  0
  140.9410   69.9370  217.4850 H   0  0  0  0  0  0  0  0  0  0  0  0
  142.5672   71.2722  221.7058 H   0  0  0  0  0  0  0  0  0  0  0  0
  141.6777   73.4150  222.6434 H   0  0  0  0  0  0  0  0  0  0  0  0
  143.9008   76.0424  220.9150 H   0  0  0  0  0  0  0  0  0  0  0  0
  145.3623   74.1430  221.4783 H   0  0  0  0  0  0  0  0  0  0  0  0
  146.3135   72.0424  220.8644 H   0  0  0  0  0  0  0  0  0  0  0  0
  145.3210   70.3000  217.0429 H   0  0  0  0  0  0  0  0  0  0  0  0
  143.8704   72.2326  216.5386 H   0  0  0  0  0  0  0  0  0  0  0  0
  1  2  2  0
  2  3  1  0
  3  4  1  0
  4  5  1  0
  5  6  2  0
  5  7  1  0
  7  8  1  0
  8  9  1  0
  9 10  1  0
 10 11  1  0
 11 12  1  0
 12 13  1  0
 13 14  1  0
 14 15  1  0
 15 16  2  0
 16 17  1  0
 17 18  2  0
 18 19  1  0
 19 20  2  0
 20 21  1  0
 21 22  2  0
 22 23  1  0
 18 24  1  0
 24 25  2  0
  2 26  1  0
 26 27  2  0
 27 28  1  0
 28 29  2  0
 29 30  1  0
 30 31  2  0
 31 32  1  0
 31 33  1  0
 33 34  2  0
 34 35  1  0
 35 36  2  0
 11  7  1  0
 25 15  1  0
 36 26  1  0
 23 19  1  0
 35 29  1  0
  3 37  1  0
  4 38  1  0
  4 39  1  0
  8 40  1  0
  8 41  1  0
  9 42  1  0
  9 43  1  0
 10 44  1  0
 10 45  1  0
 11 46  1  1
 12 47  1  0
 12 48  1  0
 13 49  1  0
 14 50  1  0
 14 51  1  0
 16 52  1  0
 17 53  1  0
 21 54  1  0
 22 55  1  0
 23 56  1  0
 24 57  1  0
 25 58  1  0
 27 59  1  0
 28 60  1  0
 30 61  1  0
 33 62  1  0
 34 63  1  0
M  END
>  <smiles>  (20) 
O=C(NCC(=O)N1CCC[C@H]1CNCc1ccc(-c2ncc[nH]2)cc1)c1ccc2cc(F)ccc2n1

>  <score_type>  (20) 
oracle

>  <origin>  (20) 
autodockgpu

>  <m_score__min__energy>  (20) 
-9.5700000000000003

>  <m_primary>  (20) 
energy

>  <rmsd>  (20) 
8.117392517397152

>  <m_score__min__rmsd>  (20) 
8.117392517397152

>  <meeko>  (20) 
{"free_energy": -6.21, "intermolecular_energy": -8.9, "internal_energy": -4.08, "cluster_size": 5, "cluster_id": 16, "rank_in_cluster": 4}

>  <energy>  (20) 
-7.92

>  <cluster_rmsd>  (20) 
0.8

>  <cluster>  (20) 
3

$$$$

     RDKit          3D

 63 67  0  0  0  0  0  0  0  0999 V2000
  136.7710   75.5470  220.6050 O   0  0  0  0  0  0  0  0  0  0  0  0
  137.7080   75.4580  221.4720 C   0  0  0  0  0  0  0  0  0  0  0  0
  138.0560   74.1780  221.9610 N   0  0  0  0  0  0  0  0  0  0  0  0
  137.3270   73.0140  221.4480 C   0  0  0  0  0  0  0  0  0  0  0  0
  138.0590   71.7590  221.7540 C   0  0  0  0  0  0  0  0  0  0  0  0
  138.1580   70.9000  220.8410 O   0  0  0  0  0  0  0  0  0  0  0  0
  138.6010   71.5980  223.0540 N   0  0  0  0  0  0  0  0  0  0  0  0
  137.9470   71.1210  224.2730 C   0  0  0  0  0  0  0  0  0  0  0  0
  139.0200   70.2370  224.8900 C   0  0  0  0  0  0  0  0  0  0  0  0
  140.3000   70.5020  224.0890 C   0  0  0  0  0  0  0  0  0  0  0  0
  139.9830   71.8710  223.4990 C   0  0  1  0  0  0  0  0  0  0  0  0
  140.8730   72.2230  222.3680 C   0  0  0  0  0  0  0  0  0  0  0  0
  140.7040   73.5530  221.9410 N   0  0  0  0  0  0  0  0  0  0  0  0
  140.7240   73.8900  220.5940 C   0  0  0  0  0  0  0  0  0  0  0  0
  141.0980   75.2300  220.1430 C   0  0  0  0  0  0  0  0  0  0  0  0
  140.1500   75.9390  219.3960 C   0  0  0  0  0  0  0  0  0  0  0  0
  140.4550   77.2240  218.9990 C   0  0  0  0  0  0  0  0  0  0  0  0
  141.6580   77.8300  219.3110 C   0  0  0  0  0  0  0  0  0  0  0  0
  141.9480   79.1910  218.8730 C   0  0  0  0  0  0  0  0  0  0  0  0
  141.2900   80.2950  219.3090 N   0  0  0  0  0  0  0  0  0  0  0  0
  141.7900   81.4070  218.7190 C   0  0  0  0  0  0  0  0  0  0  0  0
  142.7990   80.9500  217.8860 C   0  0  0  0  0  0  0  0  0  0  0  0
  142.8970   79.5990  217.9780 N   0  0  0  0  0  0  0  0  0  0  0  0
  142.6010   77.1350  220.0490 C   0  0  0  0  0  0  0  0  0  0  0  0
  142.3270   75.8290  220.4700 C   0  0  0  0  0  0  0  0  0  0  0  0
  138.3730   76.6820  221.9140 C   0  0  0  0  0  0  0  0  0  0  0  0
  137.7250   77.8910  221.8110 C   0  0  0  0  0  0  0  0  0  0  0  0
  138.2780   79.0920  222.2000 C   0  0  0  0  0  0  0  0  0  0  0  0
  139.5600   79.0820  222.7240 C   0  0  0  0  0  0  0  0  0  0  0  0
  140.1280   80.2590  223.1150 C   0  0  0  0  0  0  0  0  0  0  0  0
  141.4220   80.2330  223.6430 C   0  0  0  0  0  0  0  0  0  0  0  0
  142.0090   81.3880  224.0400 F   0  0  0  0  0  0  0  0  0  0  0  0
  142.0930   79.0330  223.7560 C   0  0  0  0  0  0  0  0  0  0  0  0
  141.4920   77.8570  223.3510 C   0  0  0  0  0  0  0  0  0  0  0  0
  140.2040   77.8480  222.8220 C   0  0  0  0  0  0  0  0  0  0  0  0
  139.6160   76.7010  222.4260 N   0  0  0  0  0  0  0  0  0  0  0  0
  138.8120   74.0990  222.6670 H   0  0  0  0  0  0  0  0  0  0  0  0
  136.3327   72.9754  221.9168 H   0  0  0  0  0  0  0  0  0  0  0  0
  137.2311   73.1100  220.3564 H   0  0  0  0  0  0  0  0  0  0  0  0
  137.6874   71.9569  224.9393 H   0  0  0  0  0  0  0  0  0  0  0  0
  136.9971   70.5979  224.0882 H   0  0  0  0  0  0  0  0  0  0  0  0
  139.1699   70.4999  225.9475 H   0  0  0  0  0  0  0  0  0  0  0  0
  138.7358   69.1750  224.8544 H   0  0  0  0  0  0  0  0  0  0  0  0
  141.1861   70.5360  224.7399 H   0  0  0  0  0  0  0  0  0  0  0  0
  140.5427   69.7285  223.3455 H   0  0  0  0  0  0  0  0  0  0  0  0
  140.1109   72.7236  224.1822 H   0  0  0  0  0  0  0  0  0  0  0  0
  141.9172   72.0846  222.6849 H   0  0  0  0  0  0  0  0  0  0  0  0
  140.6152   71.5664  221.5239 H   0  0  0  0  0  0  0  0  0  0  0  0
  140.4930   74.2710  222.6450 H   0  0  0  0  0  0  0  0  0  0  0  0
  141.4257   73.1939  220.1112 H   0  0  0  0  0  0  0  0  0  0  0  0
  139.6588   73.8406  220.3241 H   0  0  0  0  0  0  0  0  0  0  0  0
  139.1848   75.4821  219.1320 H   0  0  0  0  0  0  0  0  0  0  0  0
  139.7142   77.7874  218.4127 H   0  0  0  0  0  0  0  0  0  0  0  0
  141.4655   82.4474  218.8686 H   0  0  0  0  0  0  0  0  0  0  0  0
  143.4269   81.5870  217.2457 H   0  0  0  0  0  0  0  0  0  0  0  0
  143.5770   78.9750  217.4600 H   0  0  0  0  0  0  0  0  0  0  0  0
  143.5613   77.6074  220.3032 H   0  0  0  0  0  0  0  0  0  0  0  0
  143.0725   75.2716  221.0562 H   0  0  0  0  0  0  0  0  0  0  0  0
  136.7070   77.8998  221.3943 H   0  0  0  0  0  0  0  0  0  0  0  0
  137.7167   80.0324  222.0971 H   0  0  0  0  0  0  0  0  0  0  0  0
  139.5798   81.2076  223.0170 H   0  0  0  0  0  0  0  0  0  0  0  0
  143.1117   79.0125  224.1706 H   0  0  0  0  0  0  0  0  0  0  0  0
  142.0417   76.9092  223.4483 H   0  0  0  0  0  0  0  0  0  0  0  0
  1  2  2  0
  2  3  1  0
  3  4  1  0
  4  5  1  0
  5  6  2  0
  5  7  1  0
  7  8  1  0
  8  9  1  0
  9 10  1  0
 10 11  1  0
 11 12  1  0
 12 13  1  0
 13 14  1  0
 14 15  1  0
 15 16  2  0
 16 17  1  0
 17 18  2  0
 18 19  1  0
 19 20  2  0
 20 21  1  0
 21 22  2  0
 22 23  1  0
 18 24  1  0
 24 25  2  0
  2 26  1  0
 26 27  2  0
 27 28  1  0
 28 29  2  0
 29 30  1  0
 30 31  2  0
 31 32  1  0
 31 33  1  0
 33 34  2  0
 34 35  1  0
 35 36  2  0
 11  7  1  0
 25 15  1  0
 36 26  1  0
 23 19  1  0
 35 29  1  0
  3 37  1  0
  4 38  1  0
  4 39  1  0
  8 40  1  0
  8 41  1  0
  9 42  1  0
  9 43  1  0
 10 44  1  0
 10 45  1  0
 11 46  1  1
 12 47  1  0
 12 48  1  0
 13 49  1  0
 14 50  1  0
 14 51  1  0
 16 52  1  0
 17 53  1  0
 21 54  1  0
 22 55  1  0
 23 56  1  0
 24 57  1  0
 25 58  1  0
 27 59  1  0
 28 60  1  0
 30 61  1  0
 33 62  1  0
 34 63  1  0
M  END
>  <smiles>  (21) 
O=C(NCC(=O)N1CCC[C@H]1CNCc1ccc(-c2ncc[nH]2)cc1)c1ccc2cc(F)ccc2n1

>  <score_type>  (21) 
oracle

>  <origin>  (21) 
autodockgpu

>  <m_score__min__energy>  (21) 
-9.5700000000000003

>  <m_primary>  (21) 
energy

>  <rmsd>  (21) 
7.6305233905914704

>  <m_score__min__rmsd>  (21) 
7.6305233905914704

>  <meeko>  (21) 
{"free_energy": -6.45, "intermolecular_energy": -9.14, "internal_energy": -4.45, "cluster_size": 4, "cluster_id": 13, "rank_in_cluster": 2}

>  <energy>  (21) 
-7.89

>  <cluster_rmsd>  (21) 
1.72

>  <cluster>  (21) 
3

$$$$

     RDKit          3D

 63 67  0  0  0  0  0  0  0  0999 V2000
  140.3390   71.6370  221.0530 O   0  0  0  0  0  0  0  0  0  0  0  0
  140.0530   72.1920  222.1690 C   0  0  0  0  0  0  0  0  0  0  0  0
  139.7220   73.5670  222.1750 N   0  0  0  0  0  0  0  0  0  0  0  0
  139.7190   74.2880  220.8990 C   0  0  0  0  0  0  0  0  0  0  0  0
  139.9540   75.7380  221.1140 C   0  0  0  0  0  0  0  0  0  0  0  0
  139.7240   76.2070  222.2580 O   0  0  0  0  0  0  0  0  0  0  0  0
  140.4220   76.5120  220.0220 N   0  0  0  0  0  0  0  0  0  0  0  0
  139.8120   77.6870  219.3970 C   0  0  0  0  0  0  0  0  0  0  0  0
  141.0160   78.5830  219.1500 C   0  0  0  0  0  0  0  0  0  0  0  0
  142.2520   77.7150  219.4210 C   0  0  0  0  0  0  0  0  0  0  0  0
  141.6620   76.3220  219.2420 C   0  0  1  0  0  0  0  0  0  0  0  0
  142.5220   75.2620  219.8150 C   0  0  0  0  0  0  0  0  0  0  0  0
  143.8590   75.6750  219.9690 N   0  0  0  0  0  0  0  0  0  0  0  0
  144.8280   74.8190  220.4740 C   0  0  0  0  0  0  0  0  0  0  0  0
  144.7960   73.3810  220.2100 C   0  0  0  0  0  0  0  0  0  0  0  0
  143.7750   72.6430  220.8200 C   0  0  0  0  0  0  0  0  0  0  0  0
  143.6890   71.2930  220.5500 C   0  0  0  0  0  0  0  0  0  0  0  0
  144.5720   70.6490  219.7030 C   0  0  0  0  0  0  0  0  0  0  0  0
  144.4520   69.2190  219.4420 C   0  0  0  0  0  0  0  0  0  0  0  0
  145.3720   68.2910  219.8100 N   0  0  0  0  0  0  0  0  0  0  0  0
  144.9740   67.0540  219.4260 C   0  0  0  0  0  0  0  0  0  0  0  0
  143.7550   67.2470  218.7960 C   0  0  0  0  0  0  0  0  0  0  0  0
  143.4350   68.5660  218.8040 N   0  0  0  0  0  0  0  0  0  0  0  0
  145.5840   71.3720  219.0950 C   0  0  0  0  0  0  0  0  0  0  0  0
  145.7030   72.7430  219.3450 C   0  0  0  0  0  0  0  0  0  0  0  0
  140.0810   71.3800  223.3840 C   0  0  0  0  0  0  0  0  0  0  0  0
  139.5950   70.0930  223.3610 C   0  0  0  0  0  0  0  0  0  0  0  0
  139.5800   69.2600  224.4590 C   0  0  0  0  0  0  0  0  0  0  0  0
  140.0840   69.7460  225.6540 C   0  0  0  0  0  0  0  0  0  0  0  0
  140.0790   68.9390  226.7540 C   0  0  0  0  0  0  0  0  0  0  0  0
  140.5900   69.4420  227.9540 C   0  0  0  0  0  0  0  0  0  0  0  0
  140.5980   68.6620  229.0610 F   0  0  0  0  0  0  0  0  0  0  0  0
  141.0840   70.7300  228.0030 C   0  0  0  0  0  0  0  0  0  0  0  0
  141.0750   71.5240  226.8720 C   0  0  0  0  0  0  0  0  0  0  0  0
  140.5730   71.0520  225.6620 C   0  0  0  0  0  0  0  0  0  0  0  0
  140.5640   71.8260  224.5570 N   0  0  0  0  0  0  0  0  0  0  0  0
  139.4920   74.0240  223.0780 H   0  0  0  0  0  0  0  0  0  0  0  0
  140.5145   73.8851  220.2549 H   0  0  0  0  0  0  0  0  0  0  0  0
  138.7370   74.1563  220.4212 H   0  0  0  0  0  0  0  0  0  0  0  0
  139.3120   77.4222  218.4537 H   0  0  0  0  0  0  0  0  0  0  0  0
  139.0307   78.1578  220.0118 H   0  0  0  0  0  0  0  0  0  0  0  0
  141.0200   78.9395  218.1094 H   0  0  0  0  0  0  0  0  0  0  0  0
  140.9972   79.4710  219.7989 H   0  0  0  0  0  0  0  0  0  0  0  0
  143.0535   77.9124  218.6940 H   0  0  0  0  0  0  0  0  0  0  0  0
  142.7268   77.8882  220.3980 H   0  0  0  0  0  0  0  0  0  0  0  0
  141.5321   75.9922  218.2007 H   0  0  0  0  0  0  0  0  0  0  0  0
  142.1244   74.9802  220.8011 H   0  0  0  0  0  0  0  0  0  0  0  0
  142.5138   74.4121  219.1167 H   0  0  0  0  0  0  0  0  0  0  0  0
  144.1250   76.6080  219.6320 H   0  0  0  0  0  0  0  0  0  0  0  0
  145.7925   75.1826  220.0900 H   0  0  0  0  0  0  0  0  0  0  0  0
  144.6379   74.8627  221.5566 H   0  0  0  0  0  0  0  0  0  0  0  0
  143.0581   73.1281  221.4987 H   0  0  0  0  0  0  0  0  0  0  0  0
  142.8887   70.7074  221.0259 H   0  0  0  0  0  0  0  0  0  0  0  0
  145.5039   66.1026  219.5808 H   0  0  0  0  0  0  0  0  0  0  0  0
  143.1384   66.4499  218.3550 H   0  0  0  0  0  0  0  0  0  0  0  0
  142.5640   69.0110  218.3970 H   0  0  0  0  0  0  0  0  0  0  0  0
  146.2914   70.8704  218.4182 H   0  0  0  0  0  0  0  0  0  0  0  0
  146.5058   73.3221  218.8652 H   0  0  0  0  0  0  0  0  0  0  0  0
  139.1955   69.7067  222.4117 H   0  0  0  0  0  0  0  0  0  0  0  0
  139.1791   68.2381  224.3882 H   0  0  0  0  0  0  0  0  0  0  0  0
  139.6815   67.9149  226.6979 H   0  0  0  0  0  0  0  0  0  0  0  0
  141.4867   71.1263  228.9468 H   0  0  0  0  0  0  0  0  0  0  0  0
  141.4719   72.5483  226.9287 H   0  0  0  0  0  0  0  0  0  0  0  0
  1  2  2  0
  2  3  1  0
  3  4  1  0
  4  5  1  0
  5  6  2  0
  5  7  1  0
  7  8  1  0
  8  9  1  0
  9 10  1  0
 10 11  1  0
 11 12  1  0
 12 13  1  0
 13 14  1  0
 14 15  1  0
 15 16  2  0
 16 17  1  0
 17 18  2  0
 18 19  1  0
 19 20  2  0
 20 21  1  0
 21 22  2  0
 22 23  1  0
 18 24  1  0
 24 25  2  0
  2 26  1  0
 26 27  2  0
 27 28  1  0
 28 29  2  0
 29 30  1  0
 30 31  2  0
 31 32  1  0
 31 33  1  0
 33 34  2  0
 34 35  1  0
 35 36  2  0
 11  7  1  0
 25 15  1  0
 36 26  1  0
 23 19  1  0
 35 29  1  0
  3 37  1  0
  4 38  1  0
  4 39  1  0
  8 40  1  0
  8 41  1  0
  9 42  1  0
  9 43  1  0
 10 44  1  0
 10 45  1  0
 11 46  1  6
 12 47  1  0
 12 48  1  0
 13 49  1  0
 14 50  1  0
 14 51  1  0
 16 52  1  0
 17 53  1  0
 21 54  1  0
 22 55  1  0
 23 56  1  0
 24 57  1  0
 25 58  1  0
 27 59  1  0
 28 60  1  0
 30 61  1  0
 33 62  1  0
 34 63  1  0
M  END
>  <smiles>  (22) 
O=C(NCC(=O)N1CCC[C@H]1CNCc1ccc(-c2ncc[nH]2)cc1)c1ccc2cc(F)ccc2n1

>  <score_type>  (22) 
oracle

>  <origin>  (22) 
autodockgpu

>  <m_score__min__energy>  (22) 
-9.5700000000000003

>  <m_primary>  (22) 
energy

>  <rmsd>  (22) 
5.302590815423788

>  <m_score__min__rmsd>  (22) 
5.302590815423788

>  <meeko>  (22) 
{"free_energy": -8.91, "intermolecular_energy": -11.59, "internal_energy": -2.23, "cluster_size": 5, "cluster_id": 1, "rank_in_cluster": 3}

>  <energy>  (22) 
-7.76

>  <cluster_rmsd>  (22) 
1.86

>  <cluster>  (22) 
3

$$$$

     RDKit          3D

 63 67  0  0  0  0  0  0  0  0999 V2000
  140.0850   72.9930  222.6300 O   0  0  0  0  0  0  0  0  0  0  0  0
  140.2280   71.7260  222.7340 C   0  0  0  0  0  0  0  0  0  0  0  0
  140.2840   70.9530  221.5510 N   0  0  0  0  0  0  0  0  0  0  0  0
  140.1770   71.6440  220.2620 C   0  0  0  0  0  0  0  0  0  0  0  0
  138.7560   71.9130  219.9260 C   0  0  0  0  0  0  0  0  0  0  0  0
  138.5130   72.5570  218.8740 O   0  0  0  0  0  0  0  0  0  0  0  0
  137.7560   71.4320  220.8080 N   0  0  0  0  0  0  0  0  0  0  0  0
  137.5540   70.0760  221.3210 C   0  0  0  0  0  0  0  0  0  0  0  0
  137.1860   70.3330  222.7740 C   0  0  0  0  0  0  0  0  0  0  0  0
  136.9520   71.8440  222.8920 C   0  0  0  0  0  0  0  0  0  0  0  0
  136.6600   72.1970  221.4380 C   0  0  1  0  0  0  0  0  0  0  0  0
  136.7700   73.6490  221.1720 C   0  0  0  0  0  0  0  0  0  0  0  0
  137.4750   74.3320  222.1820 N   0  0  0  0  0  0  0  0  0  0  0  0
  137.2880   75.6900  222.4040 C   0  0  0  0  0  0  0  0  0  0  0  0
  138.4180   76.6090  222.5320 C   0  0  0  0  0  0  0  0  0  0  0  0
  138.1290   77.9290  222.8950 C   0  0  0  0  0  0  0  0  0  0  0  0
  139.1790   78.8060  223.0720 C   0  0  0  0  0  0  0  0  0  0  0  0
  140.4980   78.4280  222.9020 C   0  0  0  0  0  0  0  0  0  0  0  0
  141.5830   79.3830  223.0950 C   0  0  0  0  0  0  0  0  0  0  0  0
  141.4600   80.5600  223.7610 N   0  0  0  0  0  0  0  0  0  0  0  0
  142.6420   81.2220  223.7700 C   0  0  0  0  0  0  0  0  0  0  0  0
  143.5190   80.4040  223.0760 C   0  0  0  0  0  0  0  0  0  0  0  0
  142.8750   79.2820  222.6630 N   0  0  0  0  0  0  0  0  0  0  0  0
  140.7920   77.1240  222.5420 C   0  0  0  0  0  0  0  0  0  0  0  0
  139.7540   76.2050  222.3540 C   0  0  0  0  0  0  0  0  0  0  0  0
  140.3290   71.1390  224.0680 C   0  0  0  0  0  0  0  0  0  0  0  0
  140.8100   71.8910  225.1150 C   0  0  0  0  0  0  0  0  0  0  0  0
  140.9410   71.4160  226.4030 C   0  0  0  0  0  0  0  0  0  0  0  0
  140.5670   70.1070  226.6570 C   0  0  0  0  0  0  0  0  0  0  0  0
  140.6880   69.6160  227.9240 C   0  0  0  0  0  0  0  0  0  0  0  0
  140.3070   68.2930  228.1670 C   0  0  0  0  0  0  0  0  0  0  0  0
  140.4170   67.7800  229.4160 F   0  0  0  0  0  0  0  0  0  0  0  0
  139.8220   67.5180  227.1340 C   0  0  0  0  0  0  0  0  0  0  0  0
  139.7100   68.0440  225.8600 C   0  0  0  0  0  0  0  0  0  0  0  0
  140.0820   69.3570  225.5860 C   0  0  0  0  0  0  0  0  0  0  0  0
  139.9740   69.8710  224.3430 N   0  0  0  0  0  0  0  0  0  0  0  0
  140.3970   69.9250  221.6280 H   0  0  0  0  0  0  0  0  0  0  0  0
  140.7216   72.5981  220.3177 H   0  0  0  0  0  0  0  0  0  0  0  0
  140.6094   71.0022  219.4802 H   0  0  0  0  0  0  0  0  0  0  0  0
  136.7388   69.5652  220.7876 H   0  0  0  0  0  0  0  0  0  0  0  0
  138.4297   69.4221  221.1966 H   0  0  0  0  0  0  0  0  0  0  0  0
  136.2710   69.7830  223.0392 H   0  0  0  0  0  0  0  0  0  0  0  0
  137.9801   69.9946  223.4558 H   0  0  0  0  0  0  0  0  0  0  0  0
  136.0964   72.0723  223.5446 H   0  0  0  0  0  0  0  0  0  0  0  0
  137.7873   72.4026  223.3394 H   0  0  0  0  0  0  0  0  0  0  0  0
  135.6439   71.9634  221.0874 H   0  0  0  0  0  0  0  0  0  0  0  0
  137.2951   73.7934  220.2163 H   0  0  0  0  0  0  0  0  0  0  0  0
  135.7504   74.0605  221.1404 H   0  0  0  0  0  0  0  0  0  0  0  0
  138.0850   73.7900  222.8050 H   0  0  0  0  0  0  0  0  0  0  0  0
  136.6813   76.0603  221.5645 H   0  0  0  0  0  0  0  0  0  0  0  0
  136.8569   75.7054  223.4159 H   0  0  0  0  0  0  0  0  0  0  0  0
  137.0893   78.2595  223.0359 H   0  0  0  0  0  0  0  0  0  0  0  0
  138.9587   79.8448  223.3591 H   0  0  0  0  0  0  0  0  0  0  0  0
  142.8586   82.1979  224.2290 H   0  0  0  0  0  0  0  0  0  0  0  0
  144.5790   80.6298  222.8877 H   0  0  0  0  0  0  0  0  0  0  0  0
  143.2890   78.4780  222.1120 H   0  0  0  0  0  0  0  0  0  0  0  0
  141.8377   76.8116  222.4043 H   0  0  0  0  0  0  0  0  0  0  0  0
  139.9821   75.1678  222.0674 H   0  0  0  0  0  0  0  0  0  0  0  0
  141.1071   72.9307  224.9131 H   0  0  0  0  0  0  0  0  0  0  0  0
  141.3315   72.0586  227.2059 H   0  0  0  0  0  0  0  0  0  0  0  0
  141.0768   70.2472  228.7366 H   0  0  0  0  0  0  0  0  0  0  0  0
  139.5230   66.4767  227.3246 H   0  0  0  0  0  0  0  0  0  0  0  0
  139.3196   67.4130  225.0480 H   0  0  0  0  0  0  0  0  0  0  0  0
  1  2  2  0
  2  3  1  0
  3  4  1  0
  4  5  1  0
  5  6  2  0
  5  7  1  0
  7  8  1  0
  8  9  1  0
  9 10  1  0
 10 11  1  0
 11 12  1  0
 12 13  1  0
 13 14  1  0
 14 15  1  0
 15 16  2  0
 16 17  1  0
 17 18  2  0
 18 19  1  0
 19 20  2  0
 20 21  1  0
 21 22  2  0
 22 23  1  0
 18 24  1  0
 24 25  2  0
  2 26  1  0
 26 27  2  0
 27 28  1  0
 28 29  2  0
 29 30  1  0
 30 31  2  0
 31 32  1  0
 31 33  1  0
 33 34  2  0
 34 35  1  0
 35 36  2  0
 11  7  1  0
 25 15  1  0
 36 26  1  0
 23 19  1  0
 35 29  1  0
  3 37  1  0
  4 38  1  0
  4 39  1  0
  8 40  1  0
  8 41  1  0
  9 42  1  0
  9 43  1  0
 10 44  1  0
 10 45  1  0
 11 46  1  6
 12 47  1  0
 12 48  1  0
 13 49  1  0
 14 50  1  0
 14 51  1  0
 16 52  1  0
 17 53  1  0
 21 54  1  0
 22 55  1  0
 23 56  1  0
 24 57  1  0
 25 58  1  0
 27 59  1  0
 28 60  1  0
 30 61  1  0
 33 62  1  0
 34 63  1  0
M  END
>  <smiles>  (23) 
O=C(NCC(=O)N1CCC[C@H]1CNCc1ccc(-c2ncc[nH]2)cc1)c1ccc2cc(F)ccc2n1

>  <score_type>  (23) 
oracle

>  <origin>  (23) 
autodockgpu

>  <m_score__min__energy>  (23) 
-9.5700000000000003

>  <m_primary>  (23) 
energy

>  <rmsd>  (23) 
5.04865441706037

>  <m_score__min__rmsd>  (23) 
5.04865441706037

>  <meeko>  (23) 
{"free_energy": -8.9, "intermolecular_energy": -11.59, "internal_energy": -3.14, "cluster_size": 16, "cluster_id": 3, "rank_in_cluster": 1}

>  <energy>  (23) 
-8.59

>  <cluster_rmsd>  (23) 
0.0

>  <cluster>  (23) 
4

$$$$

     RDKit          3D

 63 67  0  0  0  0  0  0  0  0999 V2000
  140.3150   73.0440  222.7220 O   0  0  0  0  0  0  0  0  0  0  0  0
  140.3290   71.7690  222.8200 C   0  0  0  0  0  0  0  0  0  0  0  0
  140.2760   71.0000  221.6350 N   0  0  0  0  0  0  0  0  0  0  0  0
  140.2100   71.7030  220.3500 C   0  0  0  0  0  0  0  0  0  0  0  0
  138.8130   72.0940  220.0360 C   0  0  0  0  0  0  0  0  0  0  0  0
  138.6350   73.0800  219.2760 O   0  0  0  0  0  0  0  0  0  0  0  0
  137.7590   71.3380  220.6100 N   0  0  0  0  0  0  0  0  0  0  0  0
  137.2580   70.0180  220.2260 C   0  0  0  0  0  0  0  0  0  0  0  0
  137.0160   69.3590  221.5760 C   0  0  0  0  0  0  0  0  0  0  0  0
  137.1560   70.4730  222.6210 C   0  0  0  0  0  0  0  0  0  0  0  0
  136.9030   71.7030  221.7570 C   0  0  1  0  0  0  0  0  0  0  0  0
  137.3480   72.9560  222.4080 C   0  0  0  0  0  0  0  0  0  0  0  0
  137.2900   74.0650  221.5420 N   0  0  0  0  0  0  0  0  0  0  0  0
  137.0860   75.3510  222.0250 C   0  0  0  0  0  0  0  0  0  0  0  0
  138.1970   76.2800  222.2270 C   0  0  0  0  0  0  0  0  0  0  0  0
  137.8810   77.5600  222.6940 C   0  0  0  0  0  0  0  0  0  0  0  0
  138.9130   78.4420  222.9420 C   0  0  0  0  0  0  0  0  0  0  0  0
  140.2390   78.1060  222.7430 C   0  0  0  0  0  0  0  0  0  0  0  0
  141.3040   79.0650  223.0130 C   0  0  0  0  0  0  0  0  0  0  0  0
  141.1810   80.1380  223.8350 N   0  0  0  0  0  0  0  0  0  0  0  0
  142.3420   80.8340  223.8780 C   0  0  0  0  0  0  0  0  0  0  0  0
  143.2070   80.1460  223.0430 C   0  0  0  0  0  0  0  0  0  0  0  0
  142.5760   79.0670  222.5140 N   0  0  0  0  0  0  0  0  0  0  0  0
  140.5600   76.8410  222.2800 C   0  0  0  0  0  0  0  0  0  0  0  0
  139.5410   75.9190  222.0190 C   0  0  0  0  0  0  0  0  0  0  0  0
  140.4010   71.1690  224.1510 C   0  0  0  0  0  0  0  0  0  0  0  0
  140.9200   71.8900  225.2020 C   0  0  0  0  0  0  0  0  0  0  0  0
  141.0270   71.4000  226.4860 C   0  0  0  0  0  0  0  0  0  0  0  0
  140.5880   70.1110  226.7330 C   0  0  0  0  0  0  0  0  0  0  0  0
  140.6850   69.6060  227.9970 C   0  0  0  0  0  0  0  0  0  0  0  0
  140.2390   68.3030  228.2320 C   0  0  0  0  0  0  0  0  0  0  0  0
  140.3230   67.7770  229.4780 F   0  0  0  0  0  0  0  0  0  0  0  0
  139.7140   67.5590  227.1940 C   0  0  0  0  0  0  0  0  0  0  0  0
  139.6290   68.0980  225.9240 C   0  0  0  0  0  0  0  0  0  0  0  0
  140.0650   69.3930  225.6580 C   0  0  0  0  0  0  0  0  0  0  0  0
  139.9830   69.9190  224.4180 N   0  0  0  0  0  0  0  0  0  0  0  0
  140.2840   69.9650  221.7080 H   0  0  0  0  0  0  0  0  0  0  0  0
  140.8351   72.6067  220.4005 H   0  0  0  0  0  0  0  0  0  0  0  0
  140.5745   71.0299  219.5600 H   0  0  0  0  0  0  0  0  0  0  0  0
  136.3251   70.0982  219.6487 H   0  0  0  0  0  0  0  0  0  0  0  0
  137.9470   69.4562  219.5783 H   0  0  0  0  0  0  0  0  0  0  0  0
  136.0063   68.9243  221.6137 H   0  0  0  0  0  0  0  0  0  0  0  0
  137.7296   68.5422  221.7595 H   0  0  0  0  0  0  0  0  0  0  0  0
  136.4053   70.3768  223.4193 H   0  0  0  0  0  0  0  0  0  0  0  0
  138.1174   70.4799  223.1555 H   0  0  0  0  0  0  0  0  0  0  0  0
  135.8483   71.9124  221.5251 H   0  0  0  0  0  0  0  0  0  0  0  0
  136.7005   73.1518  223.2754 H   0  0  0  0  0  0  0  0  0  0  0  0
  138.3977   72.8216  222.7082 H   0  0  0  0  0  0  0  0  0  0  0  0
  137.4720   73.9160  220.5420 H   0  0  0  0  0  0  0  0  0  0  0  0
  136.3972   75.8406  221.3208 H   0  0  0  0  0  0  0  0  0  0  0  0
  136.7462   75.1640  223.0544 H   0  0  0  0  0  0  0  0  0  0  0  0
  136.8348   77.8566  222.8596 H   0  0  0  0  0  0  0  0  0  0  0  0
  138.6715   79.4495  223.3116 H   0  0  0  0  0  0  0  0  0  0  0  0
  142.5526   81.7483  224.4521 H   0  0  0  0  0  0  0  0  0  0  0  0
  144.2496   80.4315  222.8391 H   0  0  0  0  0  0  0  0  0  0  0  0
  142.9860   78.3580  221.8420 H   0  0  0  0  0  0  0  0  0  0  0  0
  141.6118   76.5624  222.1182 H   0  0  0  0  0  0  0  0  0  0  0  0
  139.7901   74.9126  221.6515 H   0  0  0  0  0  0  0  0  0  0  0  0
  141.2690   72.9147  225.0065 H   0  0  0  0  0  0  0  0  0  0  0  0
  141.4499   72.0169  227.2926 H   0  0  0  0  0  0  0  0  0  0  0  0
  141.1053   70.2118  228.8133 H   0  0  0  0  0  0  0  0  0  0  0  0
  139.3620   66.5333  227.3785 H   0  0  0  0  0  0  0  0  0  0  0  0
  139.2087   67.4920  225.1078 H   0  0  0  0  0  0  0  0  0  0  0  0
  1  2  2  0
  2  3  1  0
  3  4  1  0
  4  5  1  0
  5  6  2  0
  5  7  1  0
  7  8  1  0
  8  9  1  0
  9 10  1  0
 10 11  1  0
 11 12  1  0
 12 13  1  0
 13 14  1  0
 14 15  1  0
 15 16  2  0
 16 17  1  0
 17 18  2  0
 18 19  1  0
 19 20  2  0
 20 21  1  0
 21 22  2  0
 22 23  1  0
 18 24  1  0
 24 25  2  0
  2 26  1  0
 26 27  2  0
 27 28  1  0
 28 29  2  0
 29 30  1  0
 30 31  2  0
 31 32  1  0
 31 33  1  0
 33 34  2  0
 34 35  1  0
 35 36  2  0
 11  7  1  0
 25 15  1  0
 36 26  1  0
 23 19  1  0
 35 29  1  0
  3 37  1  0
  4 38  1  0
  4 39  1  0
  8 40  1  0
  8 41  1  0
  9 42  1  0
  9 43  1  0
 10 44  1  0
 10 45  1  0
 11 46  1  6
 12 47  1  0
 12 48  1  0
 13 49  1  0
 14 50  1  0
 14 51  1  0
 16 52  1  0
 17 53  1  0
 21 54  1  0
 22 55  1  0
 23 56  1  0
 24 57  1  0
 25 58  1  0
 27 59  1  0
 28 60  1  0
 30 61  1  0
 33 62  1  0
 34 63  1  0
M  END
>  <smiles>  (24) 
O=C(NCC(=O)N1CCC[C@H]1CNCc1ccc(-c2ncc[nH]2)cc1)c1ccc2cc(F)ccc2n1

>  <score_type>  (24) 
oracle

>  <origin>  (24) 
autodockgpu

>  <m_score__min__energy>  (24) 
-9.5700000000000003

>  <m_primary>  (24) 
energy

>  <rmsd>  (24) 
5.185995467858236

>  <m_score__min__rmsd>  (24) 
5.185995467858236

>  <meeko>  (24) 
{"free_energy": -8.13, "intermolecular_energy": -10.82, "internal_energy": -3.26, "cluster_size": 16, "cluster_id": 3, "rank_in_cluster": 12}

>  <energy>  (24) 
-6.67

>  <cluster_rmsd>  (24) 
1.68

>  <cluster>  (24) 
4

$$$$

     RDKit          3D

 63 67  0  0  0  0  0  0  0  0999 V2000
  142.3870   73.5460  220.3080 O   0  0  0  0  0  0  0  0  0  0  0  0
  141.4380   74.2870  219.8770 C   0  0  0  0  0  0  0  0  0  0  0  0
  140.1280   73.7560  219.8390 N   0  0  0  0  0  0  0  0  0  0  0  0
  139.9220   72.3790  220.2990 C   0  0  0  0  0  0  0  0  0  0  0  0
  139.6710   72.3450  221.7620 C   0  0  0  0  0  0  0  0  0  0  0  0
  140.3660   73.0940  222.4940 O   0  0  0  0  0  0  0  0  0  0  0  0
  138.6650   71.4730  222.2500 N   0  0  0  0  0  0  0  0  0  0  0  0
  138.8110   70.1620  222.8830 C   0  0  0  0  0  0  0  0  0  0  0  0
  137.7790   70.2260  223.9990 C   0  0  0  0  0  0  0  0  0  0  0  0
  136.9450   71.4850  223.7330 C   0  0  0  0  0  0  0  0  0  0  0  0
  137.2030   71.6830  222.2440 C   0  0  1  0  0  0  0  0  0  0  0  0
  136.8370   73.0410  221.7800 C   0  0  0  0  0  0  0  0  0  0  0  0
  137.6670   74.0400  222.3230 N   0  0  0  0  0  0  0  0  0  0  0  0
  137.5200   75.3750  221.9690 C   0  0  0  0  0  0  0  0  0  0  0  0
  138.5740   76.3560  222.2240 C   0  0  0  0  0  0  0  0  0  0  0  0
  138.1820   77.6920  222.3630 C   0  0  0  0  0  0  0  0  0  0  0  0
  139.1470   78.6330  222.6540 C   0  0  0  0  0  0  0  0  0  0  0  0
  140.4810   78.3030  222.8070 C   0  0  0  0  0  0  0  0  0  0  0  0
  141.4760   79.3250  223.1120 C   0  0  0  0  0  0  0  0  0  0  0  0
  141.2300   80.4430  223.8420 N   0  0  0  0  0  0  0  0  0  0  0  0
  142.3540   81.1930  223.9490 C   0  0  0  0  0  0  0  0  0  0  0  0
  143.3230   80.4920  223.2500 C   0  0  0  0  0  0  0  0  0  0  0  0
  142.7900   79.3530  222.7380 N   0  0  0  0  0  0  0  0  0  0  0  0
  140.8780   76.9840  222.6700 C   0  0  0  0  0  0  0  0  0  0  0  0
  139.9270   76.0010  222.3770 C   0  0  0  0  0  0  0  0  0  0  0  0
  141.7520   75.6480  219.4470 C   0  0  0  0  0  0  0  0  0  0  0  0
  142.9290   75.9030  218.7800 C   0  0  0  0  0  0  0  0  0  0  0  0
  143.3050   77.1550  218.3420 C   0  0  0  0  0  0  0  0  0  0  0  0
  142.4510   78.2170  218.5870 C   0  0  0  0  0  0  0  0  0  0  0  0
  142.8030   79.4650  218.1630 C   0  0  0  0  0  0  0  0  0  0  0  0
  141.9320   80.5270  218.4160 C   0  0  0  0  0  0  0  0  0  0  0  0
  142.2570   81.7760  218.0050 F   0  0  0  0  0  0  0  0  0  0  0  0
  140.7460   80.2980  219.0840 C   0  0  0  0  0  0  0  0  0  0  0  0
  140.4160   79.0220  219.5010 C   0  0  0  0  0  0  0  0  0  0  0  0
  141.2630   77.9430  219.2640 C   0  0  0  0  0  0  0  0  0  0  0  0
  140.9420   76.6980  219.6720 N   0  0  0  0  0  0  0  0  0  0  0  0
  139.3550   74.3510  219.4880 H   0  0  0  0  0  0  0  0  0  0  0  0
  139.0561   71.9490  219.7742 H   0  0  0  0  0  0  0  0  0  0  0  0
  140.8288   71.7951  220.0827 H   0  0  0  0  0  0  0  0  0  0  0  0
  138.5839   69.3505  222.1760 H   0  0  0  0  0  0  0  0  0  0  0  0
  139.8315   69.9544  223.2372 H   0  0  0  0  0  0  0  0  0  0  0  0
  137.1384   69.3320  223.9787 H   0  0  0  0  0  0  0  0  0  0  0  0
  138.2580   70.2621  224.9886 H   0  0  0  0  0  0  0  0  0  0  0  0
  135.8781   71.3162  223.9409 H   0  0  0  0  0  0  0  0  0  0  0  0
  137.2076   72.3488  224.3615 H   0  0  0  0  0  0  0  0  0  0  0  0
  136.6249   71.0329  221.5708 H   0  0  0  0  0  0  0  0  0  0  0  0
  136.9185   73.0727  220.6835 H   0  0  0  0  0  0  0  0  0  0  0  0
  135.8092   73.2424  222.1161 H   0  0  0  0  0  0  0  0  0  0  0  0
  138.3440   73.7730  223.0480 H   0  0  0  0  0  0  0  0  0  0  0  0
  137.3390   75.3897  220.8841 H   0  0  0  0  0  0  0  0  0  0  0  0
  136.7183   75.7103  222.6435 H   0  0  0  0  0  0  0  0  0  0  0  0
  137.1285   77.9848  222.2429 H   0  0  0  0  0  0  0  0  0  0  0  0
  138.8446   79.6844  222.7686 H   0  0  0  0  0  0  0  0  0  0  0  0
  142.4713   82.1510  224.4767 H   0  0  0  0  0  0  0  0  0  0  0  0
  144.3687   80.8107  223.1279 H   0  0  0  0  0  0  0  0  0  0  0  0
  143.2920   78.6210  222.1590 H   0  0  0  0  0  0  0  0  0  0  0  0
  141.9365   76.7102  222.7910 H   0  0  0  0  0  0  0  0  0  0  0  0
  140.2366   74.9513  222.2663 H   0  0  0  0  0  0  0  0  0  0  0  0
  143.6081   75.0598  218.5854 H   0  0  0  0  0  0  0  0  0  0  0  0
  144.2572   77.3061  217.8124 H   0  0  0  0  0  0  0  0  0  0  0  0
  143.7525   79.6312  217.6332 H   0  0  0  0  0  0  0  0  0  0  0  0
  140.0605   81.1344  219.2854 H   0  0  0  0  0  0  0  0  0  0  0  0
  139.4660   78.8561  220.0302 H   0  0  0  0  0  0  0  0  0  0  0  0
  1  2  2  0
  2  3  1  0
  3  4  1  0
  4  5  1  0
  5  6  2  0
  5  7  1  0
  7  8  1  0
  8  9  1  0
  9 10  1  0
 10 11  1  0
 11 12  1  0
 12 13  1  0
 13 14  1  0
 14 15  1  0
 15 16  2  0
 16 17  1  0
 17 18  2  0
 18 19  1  0
 19 20  2  0
 20 21  1  0
 21 22  2  0
 22 23  1  0
 18 24  1  0
 24 25  2  0
  2 26  1  0
 26 27  2  0
 27 28  1  0
 28 29  2  0
 29 30  1  0
 30 31  2  0
 31 32  1  0
 31 33  1  0
 33 34  2  0
 34 35  1  0
 35 36  2  0
 11  7  1  0
 25 15  1  0
 36 26  1  0
 23 19  1  0
 35 29  1  0
  3 37  1  0
  4 38  1  0
  4 39  1  0
  8 40  1  0
  8 41  1  0
  9 42  1  0
  9 43  1  0
 10 44  1  0
 10 45  1  0
 11 46  1  6
 12 47  1  0
 12 48  1  0
 13 49  1  0
 14 50  1  0
 14 51  1  0
 16 52  1  0
 17 53  1  0
 21 54  1  0
 22 55  1  0
 23 56  1  0
 24 57  1  0
 25 58  1  0
 27 59  1  0
 28 60  1  0
 30 61  1  0
 33 62  1  0
 34 63  1  0
M  END
>  <smiles>  (25) 
O=C(NCC(=O)N1CCC[C@H]1CNCc1ccc(-c2ncc[nH]2)cc1)c1ccc2cc(F)ccc2n1

>  <score_type>  (25) 
oracle

>  <origin>  (25) 
autodockgpu

>  <m_score__min__energy>  (25) 
-9.5700000000000003

>  <m_primary>  (25) 
energy

>  <rmsd>  (25) 
8.373921683603688

>  <m_score__min__rmsd>  (25) 
8.373921683603688

>  <meeko>  (25) 
{"free_energy": -7.02, "intermolecular_energy": -9.7, "internal_energy": -3.79, "cluster_size": 3, "cluster_id": 11, "rank_in_cluster": 2}

>  <energy>  (25) 
-8.27

>  <cluster_rmsd>  (25) 
0.0

>  <cluster>  (25) 
5

$$$$

     RDKit          3D

 63 67  0  0  0  0  0  0  0  0999 V2000
  140.8680   73.1720  222.4030 O   0  0  0  0  0  0  0  0  0  0  0  0
  139.9750   72.2580  222.4630 C   0  0  0  0  0  0  0  0  0  0  0  0
  139.0460   72.1500  221.4020 N   0  0  0  0  0  0  0  0  0  0  0  0
  139.1560   73.0900  220.2820 C   0  0  0  0  0  0  0  0  0  0  0  0
  137.9460   73.9460  220.1930 C   0  0  0  0  0  0  0  0  0  0  0  0
  136.8500   73.4520  220.5620 O   0  0  0  0  0  0  0  0  0  0  0  0
  138.0920   75.2660  219.6980 N   0  0  0  0  0  0  0  0  0  0  0  0
  138.0030   75.7480  218.3190 C   0  0  0  0  0  0  0  0  0  0  0  0
  137.2330   77.0510  218.4810 C   0  0  0  0  0  0  0  0  0  0  0  0
  137.1820   77.3270  219.9890 C   0  0  0  0  0  0  0  0  0  0  0  0
  138.3680   76.4970  220.4670 C   0  0  1  0  0  0  0  0  0  0  0  0
  138.3420   76.2570  221.9280 C   0  0  0  0  0  0  0  0  0  0  0  0
  139.4630   75.5340  222.3770 N   0  0  0  0  0  0  0  0  0  0  0  0
  140.7420   76.0700  222.3200 C   0  0  0  0  0  0  0  0  0  0  0  0
  141.0750   77.1640  221.4090 C   0  0  0  0  0  0  0  0  0  0  0  0
  140.9100   78.4680  221.8900 C   0  0  0  0  0  0  0  0  0  0  0  0
  141.2630   79.5200  221.0710 C   0  0  0  0  0  0  0  0  0  0  0  0
  141.7700   79.3310  219.7980 C   0  0  0  0  0  0  0  0  0  0  0  0
  142.1310   80.4670  218.9580 C   0  0  0  0  0  0  0  0  0  0  0  0
  141.6910   81.7370  219.1530 N   0  0  0  0  0  0  0  0  0  0  0  0
  142.2030   82.5630  218.2090 C   0  0  0  0  0  0  0  0  0  0  0  0
  142.9900   81.7510  217.4080 C   0  0  0  0  0  0  0  0  0  0  0  0
  142.9480   80.4730  217.8630 N   0  0  0  0  0  0  0  0  0  0  0  0
  141.9360   78.0440  219.3150 C   0  0  0  0  0  0  0  0  0  0  0  0
  141.5900   76.9520  220.1170 C   0  0  0  0  0  0  0  0  0  0  0  0
  139.9560   71.3700  223.6240 C   0  0  0  0  0  0  0  0  0  0  0  0
  139.3320   70.1470  223.5420 C   0  0  0  0  0  0  0  0  0  0  0  0
  139.2640   69.2510  224.5880 C   0  0  0  0  0  0  0  0  0  0  0  0
  139.8590   69.6010  225.7880 C   0  0  0  0  0  0  0  0  0  0  0  0
  139.8040   68.7300  226.8360 C   0  0  0  0  0  0  0  0  0  0  0  0
  140.4080   69.0970  228.0420 C   0  0  0  0  0  0  0  0  0  0  0  0
  140.3690   68.2500  229.0990 F   0  0  0  0  0  0  0  0  0  0  0  0
  141.0410   70.3180  228.1490 C   0  0  0  0  0  0  0  0  0  0  0  0
  141.0800   71.1800  227.0700 C   0  0  0  0  0  0  0  0  0  0  0  0
  140.4870   70.8450  225.8550 C   0  0  0  0  0  0  0  0  0  0  0  0
  140.5250   71.6850  224.8010 N   0  0  0  0  0  0  0  0  0  0  0  0
  138.3170   71.4140  221.4460 H   0  0  0  0  0  0  0  0  0  0  0  0
  140.0393   73.7282  220.4319 H   0  0  0  0  0  0  0  0  0  0  0  0
  139.2526   72.5169  219.3481 H   0  0  0  0  0  0  0  0  0  0  0  0
  139.0018   75.9255  217.8936 H   0  0  0  0  0  0  0  0  0  0  0  0
  137.5231   75.0347  217.6328 H   0  0  0  0  0  0  0  0  0  0  0  0
  137.7520   77.8690  217.9600 H   0  0  0  0  0  0  0  0  0  0  0  0
  136.2235   76.9788  218.0502 H   0  0  0  0  0  0  0  0  0  0  0  0
  137.3193   78.3957  220.2106 H   0  0  0  0  0  0  0  0  0  0  0  0
  136.2245   77.0742  220.4679 H   0  0  0  0  0  0  0  0  0  0  0  0
  139.3579   76.9513  220.3132 H   0  0  0  0  0  0  0  0  0  0  0  0
  138.3189   77.2280  222.4443 H   0  0  0  0  0  0  0  0  0  0  0  0
  137.4471   75.6577  222.1517 H   0  0  0  0  0  0  0  0  0  0  0  0
  139.3100   74.6190  222.8190 H   0  0  0  0  0  0  0  0  0  0  0  0
  140.9724   76.4300  223.3336 H   0  0  0  0  0  0  0  0  0  0  0  0
  141.3286   75.2351  221.9090 H   0  0  0  0  0  0  0  0  0  0  0  0
  140.5082   78.6495  222.8978 H   0  0  0  0  0  0  0  0  0  0  0  0
  141.1367   80.5471  221.4438 H   0  0  0  0  0  0  0  0  0  0  0  0
  142.0312   83.6442  218.1016 H   0  0  0  0  0  0  0  0  0  0  0  0
  143.5636   82.0916  216.5334 H   0  0  0  0  0  0  0  0  0  0  0  0
  143.4490   79.6360  217.4520 H   0  0  0  0  0  0  0  0  0  0  0  0
  142.3385   77.8812  218.3043 H   0  0  0  0  0  0  0  0  0  0  0  0
  141.7204   75.9277  219.7379 H   0  0  0  0  0  0  0  0  0  0  0  0
  138.8606   69.8679  222.5882 H   0  0  0  0  0  0  0  0  0  0  0  0
  138.7511   68.2848  224.4721 H   0  0  0  0  0  0  0  0  0  0  0  0
  139.2955   67.7599  226.7345 H   0  0  0  0  0  0  0  0  0  0  0  0
  141.5169   70.6067  229.0978 H   0  0  0  0  0  0  0  0  0  0  0  0
  141.5892   72.1496  227.1724 H   0  0  0  0  0  0  0  0  0  0  0  0
  1  2  2  0
  2  3  1  0
  3  4  1  0
  4  5  1  0
  5  6  2  0
  5  7  1  0
  7  8  1  0
  8  9  1  0
  9 10  1  0
 10 11  1  0
 11 12  1  0
 12 13  1  0
 13 14  1  0
 14 15  1  0
 15 16  2  0
 16 17  1  0
 17 18  2  0
 18 19  1  0
 19 20  2  0
 20 21  1  0
 21 22  2  0
 22 23  1  0
 18 24  1  0
 24 25  2  0
  2 26  1  0
 26 27  2  0
 27 28  1  0
 28 29  2  0
 29 30  1  0
 30 31  2  0
 31 32  1  0
 31 33  1  0
 33 34  2  0
 34 35  1  0
 35 36  2  0
 11  7  1  0
 25 15  1  0
 36 26  1  0
 23 19  1  0
 35 29  1  0
  3 37  1  0
  4 38  1  0
  4 39  1  0
  8 40  1  0
  8 41  1  0
  9 42  1  0
  9 43  1  0
 10 44  1  0
 10 45  1  0
 11 46  1  6
 12 47  1  0
 12 48  1  0
 13 49  1  0
 14 50  1  0
 14 51  1  0
 16 52  1  0
 17 53  1  0
 21 54  1  0
 22 55  1  0
 23 56  1  0
 24 57  1  0
 25 58  1  0
 27 59  1  0
 28 60  1  0
 30 61  1  0
 33 62  1  0
 34 63  1  0
M  END
>  <smiles>  (26) 
O=C(NCC(=O)N1CCC[C@H]1CNCc1ccc(-c2ncc[nH]2)cc1)c1ccc2cc(F)ccc2n1

>  <score_type>  (26) 
oracle

>  <origin>  (26) 
autodockgpu

>  <m_score__min__energy>  (26) 
-9.5700000000000003

>  <m_primary>  (26) 
energy

>  <rmsd>  (26) 
2.8365634217487283

>  <m_score__min__rmsd>  (26) 
2.8365634217487283

>  <meeko>  (26) 
{"free_energy": -8.05, "intermolecular_energy": -10.73, "internal_energy": -2.87, "cluster_size": 2, "cluster_id": 8, "rank_in_cluster": 1}

>  <energy>  (26) 
-8.22

>  <cluster_rmsd>  (26) 
0.0

>  <cluster>  (26) 
6

$$$$

     RDKit          3D

 63 67  0  0  0  0  0  0  0  0999 V2000
  135.5550   68.9330  224.9390 O   0  0  0  0  0  0  0  0  0  0  0  0
  135.8180   70.0360  224.3480 C   0  0  0  0  0  0  0  0  0  0  0  0
  136.6840   70.0150  223.2300 N   0  0  0  0  0  0  0  0  0  0  0  0
  137.2340   68.7250  222.8000 C   0  0  0  0  0  0  0  0  0  0  0  0
  138.4820   68.4140  223.5430 C   0  0  0  0  0  0  0  0  0  0  0  0
  139.1380   67.4000  223.1900 O   0  0  0  0  0  0  0  0  0  0  0  0
  138.8630   69.2720  224.6050 N   0  0  0  0  0  0  0  0  0  0  0  0
  139.0070   68.9670  226.0290 C   0  0  0  0  0  0  0  0  0  0  0  0
  140.2710   69.7310  226.3960 C   0  0  0  0  0  0  0  0  0  0  0  0
  140.5890   70.6260  225.1920 C   0  0  0  0  0  0  0  0  0  0  0  0
  139.2190   70.7040  224.5300 C   0  0  1  0  0  0  0  0  0  0  0  0
  139.2890   71.1870  223.1320 C   0  0  0  0  0  0  0  0  0  0  0  0
  138.4110   72.2590  222.8850 N   0  0  0  0  0  0  0  0  0  0  0  0
  138.6150   73.1340  221.8260 C   0  0  0  0  0  0  0  0  0  0  0  0
  139.1670   74.4720  222.0320 C   0  0  0  0  0  0  0  0  0  0  0  0
  140.5360   74.6410  221.7980 C   0  0  0  0  0  0  0  0  0  0  0  0
  141.0760   75.9030  221.9350 C   0  0  0  0  0  0  0  0  0  0  0  0
  140.3140   76.9990  222.2950 C   0  0  0  0  0  0  0  0  0  0  0  0
  140.9190   78.3190  222.4330 C   0  0  0  0  0  0  0  0  0  0  0  0
  140.2900   79.4010  222.9610 N   0  0  0  0  0  0  0  0  0  0  0  0
  141.1130   80.4760  222.9520 C   0  0  0  0  0  0  0  0  0  0  0  0
  142.2960   80.0200  222.3920 C   0  0  0  0  0  0  0  0  0  0  0  0
  142.1800   78.7050  222.0750 N   0  0  0  0  0  0  0  0  0  0  0  0
  138.9590   76.8410  222.5290 C   0  0  0  0  0  0  0  0  0  0  0  0
  138.3760   75.5760  222.3990 C   0  0  0  0  0  0  0  0  0  0  0  0
  135.2120   71.2660  224.8560 C   0  0  0  0  0  0  0  0  0  0  0  0
  134.1940   71.1990  225.7790 C   0  0  0  0  0  0  0  0  0  0  0  0
  133.5650   72.3060  226.3070 C   0  0  0  0  0  0  0  0  0  0  0  0
  133.9810   73.5570  225.8840 C   0  0  0  0  0  0  0  0  0  0  0  0
  133.3730   74.6670  226.3930 C   0  0  0  0  0  0  0  0  0  0  0  0
  133.8020   75.9230  225.9570 C   0  0  0  0  0  0  0  0  0  0  0  0
  133.2160   77.0420  226.4470 F   0  0  0  0  0  0  0  0  0  0  0  0
  134.8210   76.0180  225.0310 C   0  0  0  0  0  0  0  0  0  0  0  0
  135.4190   74.8750  224.5340 C   0  0  0  0  0  0  0  0  0  0  0  0
  135.0130   73.6090  224.9470 C   0  0  0  0  0  0  0  0  0  0  0  0
  135.5960   72.4930  224.4620 N   0  0  0  0  0  0  0  0  0  0  0  0
  136.9040   70.9070  222.7480 H   0  0  0  0  0  0  0  0  0  0  0  0
  136.4932   67.9346  222.9911 H   0  0  0  0  0  0  0  0  0  0  0  0
  137.4652   68.7788  221.7259 H   0  0  0  0  0  0  0  0  0  0  0  0
  138.1416   69.3286  226.6037 H   0  0  0  0  0  0  0  0  0  0  0  0
  139.0636   67.8901  226.2461 H   0  0  0  0  0  0  0  0  0  0  0  0
  140.1001   70.3440  227.2932 H   0  0  0  0  0  0  0  0  0  0  0  0
  141.1034   69.0480  226.6211 H   0  0  0  0  0  0  0  0  0  0  0  0
  140.9443   71.6183  225.5069 H   0  0  0  0  0  0  0  0  0  0  0  0
  141.3906   70.2479  224.5405 H   0  0  0  0  0  0  0  0  0  0  0  0
  138.5076   71.4039  224.9926 H   0  0  0  0  0  0  0  0  0  0  0  0
  140.3171   71.5188  222.9250 H   0  0  0  0  0  0  0  0  0  0  0  0
  138.9915   70.3550  222.4768 H   0  0  0  0  0  0  0  0  0  0  0  0
  137.5680   72.3450  223.4650 H   0  0  0  0  0  0  0  0  0  0  0  0
  139.2947   72.6227  221.1284 H   0  0  0  0  0  0  0  0  0  0  0  0
  137.5873   73.3516  221.4999 H   0  0  0  0  0  0  0  0  0  0  0  0
  141.1673   73.7870  221.5113 H   0  0  0  0  0  0  0  0  0  0  0  0
  142.1516   76.0423  221.7512 H   0  0  0  0  0  0  0  0  0  0  0  0
  140.8908   81.4916  223.3114 H   0  0  0  0  0  0  0  0  0  0  0  0
  143.1951   80.6324  222.2287 H   0  0  0  0  0  0  0  0  0  0  0  0
  142.9200   78.0900  221.6340 H   0  0  0  0  0  0  0  0  0  0  0  0
  138.3433   77.7062  222.8159 H   0  0  0  0  0  0  0  0  0  0  0  0
  137.2996   75.4446  222.5837 H   0  0  0  0  0  0  0  0  0  0  0  0
  133.8631   70.2051  226.1148 H   0  0  0  0  0  0  0  0  0  0  0  0
  132.7553   72.1986  227.0438 H   0  0  0  0  0  0  0  0  0  0  0  0
  132.5624   74.5751  227.1309 H   0  0  0  0  0  0  0  0  0  0  0  0
  135.1586   77.0069  224.6872 H   0  0  0  0  0  0  0  0  0  0  0  0
  136.2313   74.9676  223.7980 H   0  0  0  0  0  0  0  0  0  0  0  0
  1  2  2  0
  2  3  1  0
  3  4  1  0
  4  5  1  0
  5  6  2  0
  5  7  1  0
  7  8  1  0
  8  9  1  0
  9 10  1  0
 10 11  1  0
 11 12  1  0
 12 13  1  0
 13 14  1  0
 14 15  1  0
 15 16  2  0
 16 17  1  0
 17 18  2  0
 18 19  1  0
 19 20  2  0
 20 21  1  0
 21 22  2  0
 22 23  1  0
 18 24  1  0
 24 25  2  0
  2 26  1  0
 26 27  2  0
 27 28  1  0
 28 29  2  0
 29 30  1  0
 30 31  2  0
 31 32  1  0
 31 33  1  0
 33 34  2  0
 34 35  1  0
 35 36  2  0
 11  7  1  0
 25 15  1  0
 36 26  1  0
 23 19  1  0
 35 29  1  0
  3 37  1  0
  4 38  1  0
  4 39  1  0
  8 40  1  0
  8 41  1  0
  9 42  1  0
  9 43  1  0
 10 44  1  0
 10 45  1  0
 11 46  1  1
 12 47  1  0
 12 48  1  0
 13 49  1  0
 14 50  1  0
 14 51  1  0
 16 52  1  0
 17 53  1  0
 21 54  1  0
 22 55  1  0
 23 56  1  0
 24 57  1  0
 25 58  1  0
 27 59  1  0
 28 60  1  0
 30 61  1  0
 33 62  1  0
 34 63  1  0
M  END
>  <smiles>  (27) 
O=C(NCC(=O)N1CCC[C@H]1CNCc1ccc(-c2ncc[nH]2)cc1)c1ccc2cc(F)ccc2n1

>  <score_type>  (27) 
oracle

>  <origin>  (27) 
autodockgpu

>  <m_score__min__energy>  (27) 
-9.5700000000000003

>  <m_primary>  (27) 
energy

>  <rmsd>  (27) 
7.633045220384667

>  <m_score__min__rmsd>  (27) 
7.633045220384667

>  <meeko>  (27) 
{"free_energy": -7.86, "intermolecular_energy": -10.55, "internal_energy": -3.59, "cluster_size": 3, "cluster_id": 10, "rank_in_cluster": 1}

>  <energy>  (27) 
-7.3

>  <cluster_rmsd>  (27) 
1.94

>  <cluster>  (27) 
6

$$$$

     RDKit          3D

 63 67  0  0  0  0  0  0  0  0999 V2000
  141.5540   71.7800  221.5850 O   0  0  0  0  0  0  0  0  0  0  0  0
  140.6570   72.2400  222.3720 C   0  0  0  0  0  0  0  0  0  0  0  0
  140.0040   73.4450  222.0230 N   0  0  0  0  0  0  0  0  0  0  0  0
  140.3860   74.1060  220.7710 C   0  0  0  0  0  0  0  0  0  0  0  0
  139.4360   73.7610  219.6830 C   0  0  0  0  0  0  0  0  0  0  0  0
  139.4930   72.6010  219.2000 O   0  0  0  0  0  0  0  0  0  0  0  0
  138.5210   74.7540  219.2510 N   0  0  0  0  0  0  0  0  0  0  0  0
  138.6300   75.6780  218.1220 C   0  0  0  0  0  0  0  0  0  0  0  0
  137.2170   75.6680  217.5580 C   0  0  0  0  0  0  0  0  0  0  0  0
  136.3550   74.9320  218.5910 C   0  0  0  0  0  0  0  0  0  0  0  0
  137.2110   75.0970  219.8410 C   0  0  1  0  0  0  0  0  0  0  0  0
  136.8250   74.1620  220.9230 C   0  0  0  0  0  0  0  0  0  0  0  0
  137.2670   74.5890  222.1890 N   0  0  0  0  0  0  0  0  0  0  0  0
  137.0890   75.8980  222.6150 C   0  0  0  0  0  0  0  0  0  0  0  0
  138.2130   76.8270  222.7310 C   0  0  0  0  0  0  0  0  0  0  0  0
  137.9160   78.1450  223.0940 C   0  0  0  0  0  0  0  0  0  0  0  0
  138.9590   79.0320  223.2600 C   0  0  0  0  0  0  0  0  0  0  0  0
  140.2800   78.6640  223.0780 C   0  0  0  0  0  0  0  0  0  0  0  0
  141.3590   79.6290  223.2590 C   0  0  0  0  0  0  0  0  0  0  0  0
  142.6490   79.4150  222.8960 N   0  0  0  0  0  0  0  0  0  0  0  0
  143.4080   80.4970  223.1940 C   0  0  0  0  0  0  0  0  0  0  0  0
  142.5320   81.4070  223.7640 C   0  0  0  0  0  0  0  0  0  0  0  0
  141.2820   80.8790  223.8050 N   0  0  0  0  0  0  0  0  0  0  0  0
  140.5820   77.3620  222.7170 C   0  0  0  0  0  0  0  0  0  0  0  0
  139.5500   76.4340  222.5410 C   0  0  0  0  0  0  0  0  0  0  0  0
  140.3500   71.5000  223.5940 C   0  0  0  0  0  0  0  0  0  0  0  0
  139.5850   70.3580  223.5310 C   0  0  0  0  0  0  0  0  0  0  0  0
  139.2450   69.6020  224.6330 C   0  0  0  0  0  0  0  0  0  0  0  0
  139.7000   70.0150  225.8740 C   0  0  0  0  0  0  0  0  0  0  0  0
  139.3760   69.2820  226.9780 C   0  0  0  0  0  0  0  0  0  0  0  0
  139.8420   69.7100  228.2240 C   0  0  0  0  0  0  0  0  0  0  0  0
  139.5350   69.0000  229.3360 F   0  0  0  0  0  0  0  0  0  0  0  0
  140.6110   70.8520  228.3140 C   0  0  0  0  0  0  0  0  0  0  0  0
  140.9230   71.5740  227.1770 C   0  0  0  0  0  0  0  0  0  0  0  0
  140.4740   71.1740  225.9220 C   0  0  0  0  0  0  0  0  0  0  0  0
  140.7780   71.8780  224.8120 N   0  0  0  0  0  0  0  0  0  0  0  0
  139.2780   73.8250  222.6590 H   0  0  0  0  0  0  0  0  0  0  0  0
  140.3814   75.1956  220.9221 H   0  0  0  0  0  0  0  0  0  0  0  0
  141.3913   73.7643  220.4836 H   0  0  0  0  0  0  0  0  0  0  0  0
  138.9179   76.6852  218.4577 H   0  0  0  0  0  0  0  0  0  0  0  0
  139.3988   75.3903  217.3898 H   0  0  0  0  0  0  0  0  0  0  0  0
  136.8532   76.6969  217.4200 H   0  0  0  0  0  0  0  0  0  0  0  0
  137.1786   75.1742  216.5758 H   0  0  0  0  0  0  0  0  0  0  0  0
  135.3696   75.4066  218.7088 H   0  0  0  0  0  0  0  0  0  0  0  0
  136.1217   73.8888  218.3314 H   0  0  0  0  0  0  0  0  0  0  0  0
  137.1458   76.0778  220.3347 H   0  0  0  0  0  0  0  0  0  0  0  0
  135.7283   74.0785  220.9422 H   0  0  0  0  0  0  0  0  0  0  0  0
  137.3014   73.1931  220.7125 H   0  0  0  0  0  0  0  0  0  0  0  0
  137.6650   73.8910  222.8300 H   0  0  0  0  0  0  0  0  0  0  0  0
  136.3782   76.3582  221.9128 H   0  0  0  0  0  0  0  0  0  0  0  0
  136.7857   75.7644  223.6639 H   0  0  0  0  0  0  0  0  0  0  0  0
  136.8747   78.4665  223.2436 H   0  0  0  0  0  0  0  0  0  0  0  0
  138.7323   80.0693  223.5474 H   0  0  0  0  0  0  0  0  0  0  0  0
  144.4867   80.6254  223.0209 H   0  0  0  0  0  0  0  0  0  0  0  0
  142.8081   82.4074  224.1287 H   0  0  0  0  0  0  0  0  0  0  0  0
  140.4090   81.3430  224.1860 H   0  0  0  0  0  0  0  0  0  0  0  0
  141.6289   77.0585  222.5692 H   0  0  0  0  0  0  0  0  0  0  0  0
  139.7840   75.3981  222.2543 H   0  0  0  0  0  0  0  0  0  0  0  0
  139.2240   70.0293  222.5453 H   0  0  0  0  0  0  0  0  0  0  0  0
  138.6296   68.6962  224.5292 H   0  0  0  0  0  0  0  0  0  0  0  0
  138.7615   68.3740  226.8893 H   0  0  0  0  0  0  0  0  0  0  0  0
  140.9775   71.1895  229.2947 H   0  0  0  0  0  0  0  0  0  0  0  0
  141.5378   72.4818  227.2661 H   0  0  0  0  0  0  0  0  0  0  0  0
  1  2  2  0
  2  3  1  0
  3  4  1  0
  4  5  1  0
  5  6  2  0
  5  7  1  0
  7  8  1  0
  8  9  1  0
  9 10  1  0
 10 11  1  0
 11 12  1  0
 12 13  1  0
 13 14  1  0
 14 15  1  0
 15 16  2  0
 16 17  1  0
 17 18  2  0
 18 19  1  0
 19 20  2  0
 20 21  1  0
 21 22  2  0
 22 23  1  0
 18 24  1  0
 24 25  2  0
  2 26  1  0
 26 27  2  0
 27 28  1  0
 28 29  2  0
 29 30  1  0
 30 31  2  0
 31 32  1  0
 31 33  1  0
 33 34  2  0
 34 35  1  0
 35 36  2  0
 11  7  1  0
 25 15  1  0
 36 26  1  0
 23 19  1  0
 35 29  1  0
  3 37  1  0
  4 38  1  0
  4 39  1  0
  8 40  1  0
  8 41  1  0
  9 42  1  0
  9 43  1  0
 10 44  1  0
 10 45  1  0
 11 46  1  1
 12 47  1  0
 12 48  1  0
 13 49  1  0
 14 50  1  0
 14 51  1  0
 16 52  1  0
 17 53  1  0
 21 54  1  0
 22 55  1  0
 23 56  1  0
 24 57  1  0
 25 58  1  0
 27 59  1  0
 28 60  1  0
 30 61  1  0
 33 62  1  0
 34 63  1  0
M  END
>  <smiles>  (28) 
O=C(NCC(=O)N1CCC[C@H]1CNCc1ccc(-c2ncc[nH]2)cc1)c1ccc2cc(F)ccc2n1

>  <score_type>  (28) 
oracle

>  <origin>  (28) 
autodockgpu

>  <m_score__min__energy>  (28) 
-9.5700000000000003

>  <m_primary>  (28) 
energy

>  <rmsd>  (28) 
3.5391506338354217

>  <m_score__min__rmsd>  (28) 
3.5391506338354217

>  <meeko>  (28) 
{"free_energy": -7.76, "intermolecular_energy": -10.45, "internal_energy": -2.69, "cluster_size": 16, "cluster_id": 3, "rank_in_cluster": 16}

>  <energy>  (28) 
-8.07

>  <cluster_rmsd>  (28) 
0.0

>  <cluster>  (28) 
7

$$$$

     RDKit          3D

 63 67  0  0  0  0  0  0  0  0999 V2000
  135.3090   77.1220  222.8240 O   0  0  0  0  0  0  0  0  0  0  0  0
  136.5170   76.7210  222.9450 C   0  0  0  0  0  0  0  0  0  0  0  0
  136.7540   75.3460  223.1750 N   0  0  0  0  0  0  0  0  0  0  0  0
  135.5990   74.4460  223.2610 C   0  0  0  0  0  0  0  0  0  0  0  0
  135.8810   73.1620  222.5700 C   0  0  0  0  0  0  0  0  0  0  0  0
  135.6390   72.0960  223.1900 O   0  0  0  0  0  0  0  0  0  0  0  0
  136.4080   73.2100  221.2540 N   0  0  0  0  0  0  0  0  0  0  0  0
  135.6940   73.2690  219.9780 C   0  0  0  0  0  0  0  0  0  0  0  0
  136.5290   74.2650  219.1870 C   0  0  0  0  0  0  0  0  0  0  0  0
  137.8080   74.4870  220.0030 C   0  0  0  0  0  0  0  0  0  0  0  0
  137.8280   73.2180  220.8460 C   0  0  1  0  0  0  0  0  0  0  0  0
  138.7400   73.3200  222.0080 C   0  0  0  0  0  0  0  0  0  0  0  0
  139.5360   74.4810  221.9700 N   0  0  0  0  0  0  0  0  0  0  0  0
  140.6070   74.5960  221.0940 C   0  0  0  0  0  0  0  0  0  0  0  0
  140.9680   75.8770  220.4880 C   0  0  0  0  0  0  0  0  0  0  0  0
  139.9250   76.7670  220.2080 C   0  0  0  0  0  0  0  0  0  0  0  0
  140.2390   78.0030  219.6820 C   0  0  0  0  0  0  0  0  0  0  0  0
  141.5420   78.3880  219.4220 C   0  0  0  0  0  0  0  0  0  0  0  0
  141.8380   79.7020  218.8630 C   0  0  0  0  0  0  0  0  0  0  0  0
  141.2400   80.8560  219.2560 N   0  0  0  0  0  0  0  0  0  0  0  0
  141.7290   81.9040  218.5500 C   0  0  0  0  0  0  0  0  0  0  0  0
  142.6670   81.3540  217.6910 C   0  0  0  0  0  0  0  0  0  0  0  0
  142.7350   80.0120  217.8800 N   0  0  0  0  0  0  0  0  0  0  0  0
  142.5790   77.5130  219.6960 C   0  0  0  0  0  0  0  0  0  0  0  0
  142.2990   76.2510  220.2310 C   0  0  0  0  0  0  0  0  0  0  0  0
  137.5960   77.7020  222.8390 C   0  0  0  0  0  0  0  0  0  0  0  0
  137.3080   79.0060  222.5070 C   0  0  0  0  0  0  0  0  0  0  0  0
  138.2620   79.9930  222.3820 C   0  0  0  0  0  0  0  0  0  0  0  0
  139.5860   79.6530  222.6030 C   0  0  0  0  0  0  0  0  0  0  0  0
  140.5470   80.6140  222.4850 C   0  0  0  0  0  0  0  0  0  0  0  0
  141.8790   80.2580  222.7110 C   0  0  0  0  0  0  0  0  0  0  0  0
  142.8540   81.1930  222.6010 F   0  0  0  0  0  0  0  0  0  0  0  0
  142.1940   78.9570  223.0460 C   0  0  0  0  0  0  0  0  0  0  0  0
  141.1980   78.0050  223.1580 C   0  0  0  0  0  0  0  0  0  0  0  0
  139.8620   78.3280  222.9390 C   0  0  0  0  0  0  0  0  0  0  0  0
  138.8890   77.4000  223.0480 N   0  0  0  0  0  0  0  0  0  0  0  0
  137.7310   75.0150  223.2770 H   0  0  0  0  0  0  0  0  0  0  0  0
  135.3759   74.2451  224.3192 H   0  0  0  0  0  0  0  0  0  0  0  0
  134.7383   74.9279  222.7741 H   0  0  0  0  0  0  0  0  0  0  0  0
  135.6749   72.2853  219.4860 H   0  0  0  0  0  0  0  0  0  0  0  0
  134.6375   73.5591  220.0766 H   0  0  0  0  0  0  0  0  0  0  0  0
  136.7743   73.8559  218.1958 H   0  0  0  0  0  0  0  0  0  0  0  0
  135.9855   75.2077  219.0256 H   0  0  0  0  0  0  0  0  0  0  0  0
  138.6947   74.5579  219.3559 H   0  0  0  0  0  0  0  0  0  0  0  0
  137.8233   75.4213  220.5833 H   0  0  0  0  0  0  0  0  0  0  0  0
  138.1894   72.3140  220.3340 H   0  0  0  0  0  0  0  0  0  0  0  0
  138.1379   73.3354  222.9284 H   0  0  0  0  0  0  0  0  0  0  0  0
  139.4148   72.4517  221.9798 H   0  0  0  0  0  0  0  0  0  0  0  0
  139.2660   75.2790  222.5580 H   0  0  0  0  0  0  0  0  0  0  0  0
  141.4954   74.2524  221.6442 H   0  0  0  0  0  0  0  0  0  0  0  0
  140.2642   74.0138  220.2260 H   0  0  0  0  0  0  0  0  0  0  0  0
  138.8791   76.4875  220.4028 H   0  0  0  0  0  0  0  0  0  0  0  0
  139.4239   78.7079  219.4614 H   0  0  0  0  0  0  0  0  0  0  0  0
  141.4432   82.9625  218.6394 H   0  0  0  0  0  0  0  0  0  0  0  0
  143.2672   81.9209  216.9641 H   0  0  0  0  0  0  0  0  0  0  0  0
  143.3610   79.3290  217.3670 H   0  0  0  0  0  0  0  0  0  0  0  0
  143.6190   77.8087  219.4939 H   0  0  0  0  0  0  0  0  0  0  0  0
  143.1194   75.5518  220.4504 H   0  0  0  0  0  0  0  0  0  0  0  0
  136.2563   79.2762  222.3313 H   0  0  0  0  0  0  0  0  0  0  0  0
  137.9795   81.0218  222.1142 H   0  0  0  0  0  0  0  0  0  0  0  0
  140.2790   81.6468  222.2177 H   0  0  0  0  0  0  0  0  0  0  0  0
  143.2424   78.6762  223.2247 H   0  0  0  0  0  0  0  0  0  0  0  0
  141.4665   76.9723  223.4254 H   0  0  0  0  0  0  0  0  0  0  0  0
  1  2  2  0
  2  3  1  0
  3  4  1  0
  4  5  1  0
  5  6  2  0
  5  7  1  0
  7  8  1  0
  8  9  1  0
  9 10  1  0
 10 11  1  0
 11 12  1  0
 12 13  1  0
 13 14  1  0
 14 15  1  0
 15 16  2  0
 16 17  1  0
 17 18  2  0
 18 19  1  0
 19 20  2  0
 20 21  1  0
 21 22  2  0
 22 23  1  0
 18 24  1  0
 24 25  2  0
  2 26  1  0
 26 27  2  0
 27 28  1  0
 28 29  2  0
 29 30  1  0
 30 31  2  0
 31 32  1  0
 31 33  1  0
 33 34  2  0
 34 35  1  0
 35 36  2  0
 11  7  1  0
 25 15  1  0
 36 26  1  0
 23 19  1  0
 35 29  1  0
  3 37  1  0
  4 38  1  0
  4 39  1  0
  8 40  1  0
  8 41  1  0
  9 42  1  0
  9 43  1  0
 10 44  1  0
 10 45  1  0
 11 46  1  6
 12 47  1  0
 12 48  1  0
 13 49  1  0
 14 50  1  0
 14 51  1  0
 16 52  1  0
 17 53  1  0
 21 54  1  0
 22 55  1  0
 23 56  1  0
 24 57  1  0
 25 58  1  0
 27 59  1  0
 28 60  1  0
 30 61  1  0
 33 62  1  0
 34 63  1  0
M  END
>  <smiles>  (29) 
O=C(NCC(=O)N1CCC[C@H]1CNCc1ccc(-c2ncc[nH]2)cc1)c1ccc2cc(F)ccc2n1

>  <score_type>  (29) 
oracle

>  <origin>  (29) 
autodockgpu

>  <m_score__min__energy>  (29) 
-9.5700000000000003

>  <m_primary>  (29) 
energy

>  <rmsd>  (29) 
7.246357179979417

>  <m_score__min__rmsd>  (29) 
7.246357179979417

>  <meeko>  (29) 
{"free_energy": -5.65, "intermolecular_energy": -8.33, "internal_energy": -5.0, "cluster_size": 4, "cluster_id": 13, "rank_in_cluster": 4}

>  <energy>  (29) 
-8.01

>  <cluster_rmsd>  (29) 
1.62

>  <cluster>  (29) 
7

$$$$

     RDKit          3D

 63 67  0  0  0  0  0  0  0  0999 V2000
  135.4930   77.0520  222.5920 O   0  0  0  0  0  0  0  0  0  0  0  0
  136.7000   76.6680  222.7710 C   0  0  0  0  0  0  0  0  0  0  0  0
  136.9550   75.2860  222.9230 N   0  0  0  0  0  0  0  0  0  0  0  0
  135.8200   74.3580  222.8640 C   0  0  0  0  0  0  0  0  0  0  0  0
  136.2800   72.9870  222.5260 C   0  0  0  0  0  0  0  0  0  0  0  0
  136.1310   72.0880  223.3920 O   0  0  0  0  0  0  0  0  0  0  0  0
  136.8600   72.7690  221.2510 N   0  0  0  0  0  0  0  0  0  0  0  0
  136.2000   72.6050  219.9540 C   0  0  0  0  0  0  0  0  0  0  0  0
  137.1020   73.4090  219.0300 C   0  0  0  0  0  0  0  0  0  0  0  0
  138.3550   73.7450  219.8470 C   0  0  0  0  0  0  0  0  0  0  0  0
  138.2940   72.6590  220.9140 C   0  0  1  0  0  0  0  0  0  0  0  0
  139.1630   72.9540  222.0770 C   0  0  0  0  0  0  0  0  0  0  0  0
  139.7780   74.2170  221.9850 N   0  0  0  0  0  0  0  0  0  0  0  0
  140.9500   74.4000  221.2620 C   0  0  0  0  0  0  0  0  0  0  0  0
  141.2340   75.6550  220.5660 C   0  0  0  0  0  0  0  0  0  0  0  0
  140.1660   76.5430  220.3910 C   0  0  0  0  0  0  0  0  0  0  0  0
  140.4140   77.7560  219.7830 C   0  0  0  0  0  0  0  0  0  0  0  0
  141.6730   78.1210  219.3430 C   0  0  0  0  0  0  0  0  0  0  0  0
  141.8990   79.4110  218.7020 C   0  0  0  0  0  0  0  0  0  0  0  0
  141.1600   80.5260  218.9380 N   0  0  0  0  0  0  0  0  0  0  0  0
  141.6170   81.5600  218.1920 C   0  0  0  0  0  0  0  0  0  0  0  0
  142.6820   81.0440  217.4730 C   0  0  0  0  0  0  0  0  0  0  0  0
  142.8560   79.7340  217.7810 N   0  0  0  0  0  0  0  0  0  0  0  0
  142.7350   77.2470  219.5120 C   0  0  0  0  0  0  0  0  0  0  0  0
  142.5220   76.0080  220.1250 C   0  0  0  0  0  0  0  0  0  0  0  0
  137.7580   77.6760  222.8090 C   0  0  0  0  0  0  0  0  0  0  0  0
  137.4390   79.0110  222.7030 C   0  0  0  0  0  0  0  0  0  0  0  0
  138.3720   80.0250  222.7260 C   0  0  0  0  0  0  0  0  0  0  0  0
  139.7060   79.6830  222.8640 C   0  0  0  0  0  0  0  0  0  0  0  0
  140.6470   80.6710  222.8890 C   0  0  0  0  0  0  0  0  0  0  0  0
  141.9900   80.3100  223.0300 C   0  0  0  0  0  0  0  0  0  0  0  0
  142.9440   81.2710  223.0590 F   0  0  0  0  0  0  0  0  0  0  0  0
  142.3360   78.9790  223.1380 C   0  0  0  0  0  0  0  0  0  0  0  0
  141.3600   78.0000  223.1090 C   0  0  0  0  0  0  0  0  0  0  0  0
  140.0140   78.3260  222.9710 C   0  0  0  0  0  0  0  0  0  0  0  0
  139.0610   77.3720  222.9420 N   0  0  0  0  0  0  0  0  0  0  0  0
  137.9310   74.9680  223.0710 H   0  0  0  0  0  0  0  0  0  0  0  0
  135.3176   74.3394  223.8424 H   0  0  0  0  0  0  0  0  0  0  0  0
  135.1239   74.6998  222.0839 H   0  0  0  0  0  0  0  0  0  0  0  0
  136.1648   71.5469  219.6554 H   0  0  0  0  0  0  0  0  0  0  0  0
  135.1516   72.9380  219.9470 H   0  0  0  0  0  0  0  0  0  0  0  0
  137.3713   72.8130  218.1455 H   0  0  0  0  0  0  0  0  0  0  0  0
  136.6003   74.3194  218.6703 H   0  0  0  0  0  0  0  0  0  0  0  0
  139.2686   73.6659  219.2395 H   0  0  0  0  0  0  0  0  0  0  0  0
  138.3824   74.7718  220.2407 H   0  0  0  0  0  0  0  0  0  0  0  0
  138.6412   71.6641  220.5984 H   0  0  0  0  0  0  0  0  0  0  0  0
  138.5510   72.9256  222.9906 H   0  0  0  0  0  0  0  0  0  0  0  0
  139.9595   72.1957  222.0994 H   0  0  0  0  0  0  0  0  0  0  0  0
  139.3050   75.0250  222.4070 H   0  0  0  0  0  0  0  0  0  0  0  0
  141.7778   74.2440  221.9694 H   0  0  0  0  0  0  0  0  0  0  0  0
  140.8252   73.6924  220.4291 H   0  0  0  0  0  0  0  0  0  0  0  0
  139.1533   76.2797  220.7303 H   0  0  0  0  0  0  0  0  0  0  0  0
  139.5795   78.4588  219.6430 H   0  0  0  0  0  0  0  0  0  0  0  0
  141.2264   82.5879  218.1635 H   0  0  0  0  0  0  0  0  0  0  0  0
  143.2958   81.6118  216.7583 H   0  0  0  0  0  0  0  0  0  0  0  0
  143.5920   79.0810  217.3880 H   0  0  0  0  0  0  0  0  0  0  0  0
  143.7410   77.5264  219.1656 H   0  0  0  0  0  0  0  0  0  0  0  0
  143.3612   75.3102  220.2621 H   0  0  0  0  0  0  0  0  0  0  0  0
  136.3790   79.2839  222.5937 H   0  0  0  0  0  0  0  0  0  0  0  0
  138.0648   81.0775  222.6371 H   0  0  0  0  0  0  0  0  0  0  0  0
  140.3552   81.7279  222.8002 H   0  0  0  0  0  0  0  0  0  0  0  0
  143.3931   78.6952  223.2477 H   0  0  0  0  0  0  0  0  0  0  0  0
  141.6530   76.9434  223.1967 H   0  0  0  0  0  0  0  0  0  0  0  0
  1  2  2  0
  2  3  1  0
  3  4  1  0
  4  5  1  0
  5  6  2  0
  5  7  1  0
  7  8  1  0
  8  9  1  0
  9 10  1  0
 10 11  1  0
 11 12  1  0
 12 13  1  0
 13 14  1  0
 14 15  1  0
 15 16  2  0
 16 17  1  0
 17 18  2  0
 18 19  1  0
 19 20  2  0
 20 21  1  0
 21 22  2  0
 22 23  1  0
 18 24  1  0
 24 25  2  0
  2 26  1  0
 26 27  2  0
 27 28  1  0
 28 29  2  0
 29 30  1  0
 30 31  2  0
 31 32  1  0
 31 33  1  0
 33 34  2  0
 34 35  1  0
 35 36  2  0
 11  7  1  0
 25 15  1  0
 36 26  1  0
 23 19  1  0
 35 29  1  0
  3 37  1  0
  4 38  1  0
  4 39  1  0
  8 40  1  0
  8 41  1  0
  9 42  1  0
  9 43  1  0
 10 44  1  0
 10 45  1  0
 11 46  1  6
 12 47  1  0
 12 48  1  0
 13 49  1  0
 14 50  1  0
 14 51  1  0
 16 52  1  0
 17 53  1  0
 21 54  1  0
 22 55  1  0
 23 56  1  0
 24 57  1  0
 25 58  1  0
 27 59  1  0
 28 60  1  0
 30 61  1  0
 33 62  1  0
 34 63  1  0
M  END
>  <smiles>  (30) 
O=C(NCC(=O)N1CCC[C@H]1CNCc1ccc(-c2ncc[nH]2)cc1)c1ccc2cc(F)ccc2n1

>  <score_type>  (30) 
oracle

>  <origin>  (30) 
autodockgpu

>  <m_score__min__energy>  (30) 
-9.5700000000000003

>  <m_primary>  (30) 
energy

>  <rmsd>  (30) 
7.248370499945058

>  <m_score__min__rmsd>  (30) 
7.248370499945058

>  <meeko>  (30) 
{"free_energy": -6.18, "intermolecular_energy": -8.86, "internal_energy": -4.46, "cluster_size": 4, "cluster_id": 13, "rank_in_cluster": 3}

>  <energy>  (30) 
-8.05

>  <cluster_rmsd>  (30) 
0.0

>  <cluster>  (30) 
8

$$$$

     RDKit          3D

 63 67  0  0  0  0  0  0  0  0999 V2000
  140.3880   73.3810  222.7010 O   0  0  0  0  0  0  0  0  0  0  0  0
  140.2590   72.1210  222.5270 C   0  0  0  0  0  0  0  0  0  0  0  0
  140.1870   71.6250  221.2050 N   0  0  0  0  0  0  0  0  0  0  0  0
  140.2670   72.5810  220.0970 C   0  0  0  0  0  0  0  0  0  0  0  0
  139.2980   72.2300  219.0290 C   0  0  0  0  0  0  0  0  0  0  0  0
  139.4550   71.1360  218.4290 O   0  0  0  0  0  0  0  0  0  0  0  0
  138.2530   73.1460  218.7430 N   0  0  0  0  0  0  0  0  0  0  0  0
  137.8740   73.7410  217.4610 C   0  0  0  0  0  0  0  0  0  0  0  0
  136.3540   73.6920  217.5200 C   0  0  0  0  0  0  0  0  0  0  0  0
  135.9980   73.3100  218.9610 C   0  0  0  0  0  0  0  0  0  0  0  0
  137.2730   73.7240  219.6860 C   0  0  1  0  0  0  0  0  0  0  0  0
  137.3800   73.1270  221.0360 C   0  0  0  0  0  0  0  0  0  0  0  0
  137.8190   74.0510  222.0030 N   0  0  0  0  0  0  0  0  0  0  0  0
  137.5830   75.4130  221.8640 C   0  0  0  0  0  0  0  0  0  0  0  0
  138.6310   76.4020  222.1120 C   0  0  0  0  0  0  0  0  0  0  0  0
  138.2440   77.6020  222.7190 C   0  0  0  0  0  0  0  0  0  0  0  0
  139.2170   78.5340  223.0120 C   0  0  0  0  0  0  0  0  0  0  0  0
  140.5540   78.3250  222.7250 C   0  0  0  0  0  0  0  0  0  0  0  0
  141.5570   79.3340  223.0460 C   0  0  0  0  0  0  0  0  0  0  0  0
  141.3210   80.4380  223.8000 N   0  0  0  0  0  0  0  0  0  0  0  0
  142.4490   81.1780  223.9180 C   0  0  0  0  0  0  0  0  0  0  0  0
  143.4110   80.4860  223.2000 C   0  0  0  0  0  0  0  0  0  0  0  0
  142.8690   79.3610  222.6670 N   0  0  0  0  0  0  0  0  0  0  0  0
  140.9450   77.1410  222.1230 C   0  0  0  0  0  0  0  0  0  0  0  0
  139.9860   76.1710  221.8130 C   0  0  0  0  0  0  0  0  0  0  0  0
  140.1930   71.2540  223.7020 C   0  0  0  0  0  0  0  0  0  0  0  0
  139.6100   70.0110  223.6070 C   0  0  0  0  0  0  0  0  0  0  0  0
  139.5030   69.1330  224.6640 C   0  0  0  0  0  0  0  0  0  0  0  0
  140.0100   69.5230  225.8920 C   0  0  0  0  0  0  0  0  0  0  0  0
  139.9140   68.6700  226.9520 C   0  0  0  0  0  0  0  0  0  0  0  0
  140.4300   69.0770  228.1860 C   0  0  0  0  0  0  0  0  0  0  0  0
  140.3490   68.2490  229.2550 F   0  0  0  0  0  0  0  0  0  0  0  0
  141.0200   70.3190  228.3070 C   0  0  0  0  0  0  0  0  0  0  0  0
  141.1020   71.1610  227.2150 C   0  0  0  0  0  0  0  0  0  0  0  0
  140.5970   70.7860  225.9730 C   0  0  0  0  0  0  0  0  0  0  0  0
  140.6770   71.6080  224.9060 N   0  0  0  0  0  0  0  0  0  0  0  0
  140.0790   70.6030  221.0570 H   0  0  0  0  0  0  0  0  0  0  0  0
  140.0398   73.5894  220.4733 H   0  0  0  0  0  0  0  0  0  0  0  0
  141.2829   72.5500  219.6763 H   0  0  0  0  0  0  0  0  0  0  0  0
  138.2367   74.7763  217.3791 H   0  0  0  0  0  0  0  0  0  0  0  0
  138.2989   73.2205  216.5901 H   0  0  0  0  0  0  0  0  0  0  0  0
  135.9301   74.6757  217.2698 H   0  0  0  0  0  0  0  0  0  0  0  0
  135.9465   72.9678  216.7993 H   0  0  0  0  0  0  0  0  0  0  0  0
  135.1244   73.8707  219.3250 H   0  0  0  0  0  0  0  0  0  0  0  0
  135.7169   72.2553  219.0977 H   0  0  0  0  0  0  0  0  0  0  0  0
  137.3751   74.8002  219.8896 H   0  0  0  0  0  0  0  0  0  0  0  0
  136.3908   72.7489  221.3335 H   0  0  0  0  0  0  0  0  0  0  0  0
  138.1246   72.3189  220.9850 H   0  0  0  0  0  0  0  0  0  0  0  0
  138.2610   73.6930  222.8590 H   0  0  0  0  0  0  0  0  0  0  0  0
  137.2524   75.5657  220.8260 H   0  0  0  0  0  0  0  0  0  0  0  0
  136.8732   75.6130  222.6802 H   0  0  0  0  0  0  0  0  0  0  0  0
  137.1879   77.7973  222.9569 H   0  0  0  0  0  0  0  0  0  0  0  0
  138.9192   79.4782  223.4914 H   0  0  0  0  0  0  0  0  0  0  0  0
  142.5744   82.1238  224.4654 H   0  0  0  0  0  0  0  0  0  0  0  0
  144.4580   80.8012  223.0797 H   0  0  0  0  0  0  0  0  0  0  0  0
  143.3630   78.6390  222.0710 H   0  0  0  0  0  0  0  0  0  0  0  0
  142.0053   76.9639  221.8895 H   0  0  0  0  0  0  0  0  0  0  0  0
  140.2912   75.2281  221.3357 H   0  0  0  0  0  0  0  0  0  0  0  0
  139.2064   69.7005  222.6319 H   0  0  0  0  0  0  0  0  0  0  0  0
  139.0278   68.1493  224.5355 H   0  0  0  0  0  0  0  0  0  0  0  0
  139.4410   67.6834  226.8384 H   0  0  0  0  0  0  0  0  0  0  0  0
  141.4267   70.6397  229.2774 H   0  0  0  0  0  0  0  0  0  0  0  0
  141.5757   72.1472  227.3290 H   0  0  0  0  0  0  0  0  0  0  0  0
  1  2  2  0
  2  3  1  0
  3  4  1  0
  4  5  1  0
  5  6  2  0
  5  7  1  0
  7  8  1  0
  8  9  1  0
  9 10  1  0
 10 11  1  0
 11 12  1  0
 12 13  1  0
 13 14  1  0
 14 15  1  0
 15 16  2  0
 16 17  1  0
 17 18  2  0
 18 19  1  0
 19 20  2  0
 20 21  1  0
 21 22  2  0
 22 23  1  0
 18 24  1  0
 24 25  2  0
  2 26  1  0
 26 27  2  0
 27 28  1  0
 28 29  2  0
 29 30  1  0
 30 31  2  0
 31 32  1  0
 31 33  1  0
 33 34  2  0
 34 35  1  0
 35 36  2  0
 11  7  1  0
 25 15  1  0
 36 26  1  0
 23 19  1  0
 35 29  1  0
  3 37  1  0
  4 38  1  0
  4 39  1  0
  8 40  1  0
  8 41  1  0
  9 42  1  0
  9 43  1  0
 10 44  1  0
 10 45  1  0
 11 46  1  1
 12 47  1  0
 12 48  1  0
 13 49  1  0
 14 50  1  0
 14 51  1  0
 16 52  1  0
 17 53  1  0
 21 54  1  0
 22 55  1  0
 23 56  1  0
 24 57  1  0
 25 58  1  0
 27 59  1  0
 28 60  1  0
 30 61  1  0
 33 62  1  0
 34 63  1  0
M  END
>  <smiles>  (31) 
O=C(NCC(=O)N1CCC[C@H]1CNCc1ccc(-c2ncc[nH]2)cc1)c1ccc2cc(F)ccc2n1

>  <score_type>  (31) 
oracle

>  <origin>  (31) 
autodockgpu

>  <m_score__min__energy>  (31) 
-9.5700000000000003

>  <m_primary>  (31) 
energy

>  <rmsd>  (31) 
3.851380906059329

>  <m_score__min__rmsd>  (31) 
3.851380906059329

>  <meeko>  (31) 
{"free_energy": -8.71, "intermolecular_energy": -11.39, "internal_energy": -2.71, "cluster_size": 16, "cluster_id": 3, "rank_in_cluster": 4}

>  <energy>  (31) 
-7.26

>  <cluster_rmsd>  (31) 
1.08

>  <cluster>  (31) 
8

$$$$

     RDKit          3D

 63 67  0  0  0  0  0  0  0  0999 V2000
  140.3650   73.6460  222.3470 O   0  0  0  0  0  0  0  0  0  0  0  0
  140.3010   72.3770  222.1950 C   0  0  0  0  0  0  0  0  0  0  0  0
  140.3170   71.8520  220.8830 N   0  0  0  0  0  0  0  0  0  0  0  0
  140.4100   72.7890  219.7590 C   0  0  0  0  0  0  0  0  0  0  0  0
  141.7900   72.8180  219.2110 C   0  0  0  0  0  0  0  0  0  0  0  0
  141.9340   72.6550  217.9730 O   0  0  0  0  0  0  0  0  0  0  0  0
  142.8650   73.0270  220.1120 N   0  0  0  0  0  0  0  0  0  0  0  0
  143.6840   72.0390  220.8140 C   0  0  0  0  0  0  0  0  0  0  0  0
  145.0780   72.6390  220.7060 C   0  0  0  0  0  0  0  0  0  0  0  0
  144.8840   74.0640  220.1740 C   0  0  0  0  0  0  0  0  0  0  0  0
  143.4320   74.3150  220.5620 C   0  0  1  0  0  0  0  0  0  0  0  0
  142.8410   75.4660  219.8420 C   0  0  0  0  0  0  0  0  0  0  0  0
  141.8590   76.1320  220.5990 N   0  0  0  0  0  0  0  0  0  0  0  0
  140.5510   76.2480  220.1480 C   0  0  0  0  0  0  0  0  0  0  0  0
  139.4100   76.0420  221.0400 C   0  0  0  0  0  0  0  0  0  0  0  0
  139.3790   76.7950  222.2190 C   0  0  0  0  0  0  0  0  0  0  0  0
  138.2900   76.6600  223.0560 C   0  0  0  0  0  0  0  0  0  0  0  0
  137.2390   75.8080  222.7710 C   0  0  0  0  0  0  0  0  0  0  0  0
  136.1040   75.6880  223.6810 C   0  0  0  0  0  0  0  0  0  0  0  0
  135.1320   76.6250  223.8240 N   0  0  0  0  0  0  0  0  0  0  0  0
  134.2210   76.2220  224.7410 C   0  0  0  0  0  0  0  0  0  0  0  0
  134.6650   74.9820  225.1710 C   0  0  0  0  0  0  0  0  0  0  0  0
  135.8140   74.6540  224.5260 N   0  0  0  0  0  0  0  0  0  0  0  0
  137.2630   75.0590  221.6070 C   0  0  0  0  0  0  0  0  0  0  0  0
  138.3490   75.1710  220.7330 C   0  0  0  0  0  0  0  0  0  0  0  0
  140.2160   71.5320  223.3850 C   0  0  0  0  0  0  0  0  0  0  0  0
  139.6340   70.2880  223.3030 C   0  0  0  0  0  0  0  0  0  0  0  0
  139.5080   69.4300  224.3740 C   0  0  0  0  0  0  0  0  0  0  0  0
  139.9960   69.8420  225.6030 C   0  0  0  0  0  0  0  0  0  0  0  0
  139.8830   69.0080  226.6770 C   0  0  0  0  0  0  0  0  0  0  0  0
  140.3790   69.4380  227.9110 C   0  0  0  0  0  0  0  0  0  0  0  0
  140.2810   68.6290  228.9930 F   0  0  0  0  0  0  0  0  0  0  0  0
  140.9670   70.6810  228.0190 C   0  0  0  0  0  0  0  0  0  0  0  0
  141.0680   71.5040  226.9130 C   0  0  0  0  0  0  0  0  0  0  0  0
  140.5830   71.1060  225.6700 C   0  0  0  0  0  0  0  0  0  0  0  0
  140.6800   71.9080  224.5900 N   0  0  0  0  0  0  0  0  0  0  0  0
  140.2630   70.8240  220.7530 H   0  0  0  0  0  0  0  0  0  0  0  0
  139.7141   72.4736  218.9677 H   0  0  0  0  0  0  0  0  0  0  0  0
  140.1509   73.7964  220.1167 H   0  0  0  0  0  0  0  0  0  0  0  0
  143.3738   71.9383  221.8645 H   0  0  0  0  0  0  0  0  0  0  0  0
  143.6070   71.0248  220.3950 H   0  0  0  0  0  0  0  0  0  0  0  0
  145.5618   72.6622  221.6936 H   0  0  0  0  0  0  0  0  0  0  0  0
  145.7223   72.0448  220.0414 H   0  0  0  0  0  0  0  0  0  0  0  0
  145.5637   74.7760  220.6650 H   0  0  0  0  0  0  0  0  0  0  0  0
  145.0974   74.1840  219.1016 H   0  0  0  0  0  0  0  0  0  0  0  0
  143.2605   74.5764  221.6166 H   0  0  0  0  0  0  0  0  0  0  0  0
  143.6427   76.1792  219.5996 H   0  0  0  0  0  0  0  0  0  0  0  0
  142.3554   75.0775  218.9347 H   0  0  0  0  0  0  0  0  0  0  0  0
  142.1100   76.4740  221.5350 H   0  0  0  0  0  0  0  0  0  0  0  0
  140.4509   77.2677  219.7478 H   0  0  0  0  0  0  0  0  0  0  0  0
  140.4649   75.3968  219.4566 H   0  0  0  0  0  0  0  0  0  0  0  0
  140.2029   77.4782  222.4726 H   0  0  0  0  0  0  0  0  0  0  0  0
  138.2570   77.2513  223.9829 H   0  0  0  0  0  0  0  0  0  0  0  0
  133.3223   76.7625  225.0730 H   0  0  0  0  0  0  0  0  0  0  0  0
  134.1617   74.3564  225.9229 H   0  0  0  0  0  0  0  0  0  0  0  0
  136.3810   73.7690  224.6490 H   0  0  0  0  0  0  0  0  0  0  0  0
  136.4315   74.3787  221.3706 H   0  0  0  0  0  0  0  0  0  0  0  0
  138.3735   74.5786  219.8065 H   0  0  0  0  0  0  0  0  0  0  0  0
  139.2473   69.9596  222.3270 H   0  0  0  0  0  0  0  0  0  0  0  0
  139.0329   68.4449  224.2560 H   0  0  0  0  0  0  0  0  0  0  0  0
  139.4120   68.0193  226.5740 H   0  0  0  0  0  0  0  0  0  0  0  0
  141.3575   71.0191  228.9902 H   0  0  0  0  0  0  0  0  0  0  0  0
  141.5404   72.4919  227.0168 H   0  0  0  0  0  0  0  0  0  0  0  0
  1  2  2  0
  2  3  1  0
  3  4  1  0
  4  5  1  0
  5  6  2  0
  5  7  1  0
  7  8  1  0
  8  9  1  0
  9 10  1  0
 10 11  1  0
 11 12  1  0
 12 13  1  0
 13 14  1  0
 14 15  1  0
 15 16  2  0
 16 17  1  0
 17 18  2  0
 18 19  1  0
 19 20  2  0
 20 21  1  0
 21 22  2  0
 22 23  1  0
 18 24  1  0
 24 25  2  0
  2 26  1  0
 26 27  2  0
 27 28  1  0
 28 29  2  0
 29 30  1  0
 30 31  2  0
 31 32  1  0
 31 33  1  0
 33 34  2  0
 34 35  1  0
 35 36  2  0
 11  7  1  0
 25 15  1  0
 36 26  1  0
 23 19  1  0
 35 29  1  0
  3 37  1  0
  4 38  1  0
  4 39  1  0
  8 40  1  0
  8 41  1  0
  9 42  1  0
  9 43  1  0
 10 44  1  0
 10 45  1  0
 11 46  1  1
 12 47  1  0
 12 48  1  0
 13 49  1  0
 14 50  1  0
 14 51  1  0
 16 52  1  0
 17 53  1  0
 21 54  1  0
 22 55  1  0
 23 56  1  0
 24 57  1  0
 25 58  1  0
 27 59  1  0
 28 60  1  0
 30 61  1  0
 33 62  1  0
 34 63  1  0
M  END
>  <smiles>  (32) 
O=C(NCC(=O)N1CCC[C@H]1CNCc1ccc(-c2ncc[nH]2)cc1)c1ccc2cc(F)ccc2n1

>  <score_type>  (32) 
oracle

>  <origin>  (32) 
autodockgpu

>  <m_score__min__energy>  (32) 
-9.5700000000000003

>  <m_primary>  (32) 
energy

>  <rmsd>  (32) 
4.2913354585149275

>  <m_score__min__rmsd>  (32) 
4.2913354585149275

>  <meeko>  (32) 
{"free_energy": -8.59, "intermolecular_energy": -11.27, "internal_energy": -2.5, "cluster_size": 2, "cluster_id": 4, "rank_in_cluster": 1}

>  <energy>  (32) 
-8.02

>  <cluster_rmsd>  (32) 
0.0

>  <cluster>  (32) 
9

$$$$

     RDKit          3D

 63 67  0  0  0  0  0  0  0  0999 V2000
  141.8330   73.1110  220.8240 O   0  0  0  0  0  0  0  0  0  0  0  0
  141.0650   73.8780  221.5000 C   0  0  0  0  0  0  0  0  0  0  0  0
  140.0820   73.2900  222.3300 N   0  0  0  0  0  0  0  0  0  0  0  0
  139.9950   71.8270  222.3750 C   0  0  0  0  0  0  0  0  0  0  0  0
  139.0900   71.3880  223.4670 C   0  0  0  0  0  0  0  0  0  0  0  0
  137.9220   71.8530  223.4840 O   0  0  0  0  0  0  0  0  0  0  0  0
  139.5920   70.4740  224.4280 N   0  0  0  0  0  0  0  0  0  0  0  0
  140.5420   70.7100  225.5160 C   0  0  0  0  0  0  0  0  0  0  0  0
  139.9360   69.9040  226.6550 C   0  0  0  0  0  0  0  0  0  0  0  0
  138.8200   69.0590  226.0290 C   0  0  0  0  0  0  0  0  0  0  0  0
  139.2660   69.0400  224.5710 C   0  0  1  0  0  0  0  0  0  0  0  0
  138.1840   68.6210  223.6510 C   0  0  0  0  0  0  0  0  0  0  0  0
  137.0570   69.4610  223.7220 N   0  0  0  0  0  0  0  0  0  0  0  0
  136.0830   69.2850  224.6950 C   0  0  0  0  0  0  0  0  0  0  0  0
  135.3010   70.4080  225.2110 C   0  0  0  0  0  0  0  0  0  0  0  0
  134.6800   70.2360  226.4530 C   0  0  0  0  0  0  0  0  0  0  0  0
  133.9770   71.2950  226.9880 C   0  0  0  0  0  0  0  0  0  0  0  0
  133.8660   72.5130  226.3420 C   0  0  0  0  0  0  0  0  0  0  0  0
  133.1130   73.6110  226.9370 C   0  0  0  0  0  0  0  0  0  0  0  0
  133.2980   74.9220  226.6350 N   0  0  0  0  0  0  0  0  0  0  0  0
  132.4480   75.6960  227.3520 C   0  0  0  0  0  0  0  0  0  0  0  0
  131.7150   74.8080  228.1220 C   0  0  0  0  0  0  0  0  0  0  0  0
  132.1190   73.5360  227.8720 N   0  0  0  0  0  0  0  0  0  0  0  0
  134.4780   72.6910  225.1130 C   0  0  0  0  0  0  0  0  0  0  0  0
  135.2000   71.6400  224.5390 C   0  0  0  0  0  0  0  0  0  0  0  0
  141.2400   75.3250  221.3850 C   0  0  0  0  0  0  0  0  0  0  0  0
  141.8600   75.8550  220.2770 C   0  0  0  0  0  0  0  0  0  0  0  0
  142.0690   77.2040  220.0890 C   0  0  0  0  0  0  0  0  0  0  0  0
  141.6300   78.0770  221.0720 C   0  0  0  0  0  0  0  0  0  0  0  0
  141.8270   79.4160  220.9070 C   0  0  0  0  0  0  0  0  0  0  0  0
  141.3790   80.2850  221.9060 C   0  0  0  0  0  0  0  0  0  0  0  0
  141.5610   81.6200  221.7670 F   0  0  0  0  0  0  0  0  0  0  0  0
  140.7550   79.7780  223.0270 C   0  0  0  0  0  0  0  0  0  0  0  0
  140.5700   78.4150  223.1660 C   0  0  0  0  0  0  0  0  0  0  0  0
  141.0050   77.5240  222.1890 C   0  0  0  0  0  0  0  0  0  0  0  0
  140.8250   76.1940  222.3230 N   0  0  0  0  0  0  0  0  0  0  0  0
  139.4540   73.9060  222.8780 H   0  0  0  0  0  0  0  0  0  0  0  0
  139.6064   71.4587  221.4141 H   0  0  0  0  0  0  0  0  0  0  0  0
  140.9991   71.4188  222.5625 H   0  0  0  0  0  0  0  0  0  0  0  0
  141.5451   70.3408  225.2562 H   0  0  0  0  0  0  0  0  0  0  0  0
  140.6825   71.7744  225.7553 H   0  0  0  0  0  0  0  0  0  0  0  0
  140.6976   69.2540  227.1105 H   0  0  0  0  0  0  0  0  0  0  0  0
  139.5479   70.5585  227.4493 H   0  0  0  0  0  0  0  0  0  0  0  0
  138.7895   68.0462  226.4570 H   0  0  0  0  0  0  0  0  0  0  0  0
  137.8047   69.4499  226.1915 H   0  0  0  0  0  0  0  0  0  0  0  0
  140.0750   68.3344  224.3310 H   0  0  0  0  0  0  0  0  0  0  0  0
  138.5711   68.6372  222.6215 H   0  0  0  0  0  0  0  0  0  0  0  0
  137.8659   67.6111  223.9492 H   0  0  0  0  0  0  0  0  0  0  0  0
  137.0010   70.2610  223.0790 H   0  0  0  0  0  0  0  0  0  0  0  0
  135.3588   68.5676  224.2817 H   0  0  0  0  0  0  0  0  0  0  0  0
  136.6783   68.9912  225.5721 H   0  0  0  0  0  0  0  0  0  0  0  0
  134.7508   69.2786  226.9900 H   0  0  0  0  0  0  0  0  0  0  0  0
  133.4866   71.1663  227.9642 H   0  0  0  0  0  0  0  0  0  0  0  0
  132.3592   76.7921  227.3279 H   0  0  0  0  0  0  0  0  0  0  0  0
  130.9230   75.0913  228.8309 H   0  0  0  0  0  0  0  0  0  0  0  0
  131.7400   72.6510  228.3120 H   0  0  0  0  0  0  0  0  0  0  0  0
  134.3966   73.6554  224.5901 H   0  0  0  0  0  0  0  0  0  0  0  0
  135.6886   71.7763  223.5629 H   0  0  0  0  0  0  0  0  0  0  0  0
  142.2087   75.1624  219.4968 H   0  0  0  0  0  0  0  0  0  0  0  0
  142.5703   77.5777  219.1840 H   0  0  0  0  0  0  0  0  0  0  0  0
  142.3275   79.8039  220.0075 H   0  0  0  0  0  0  0  0  0  0  0  0
  140.4030   80.4613  223.8139 H   0  0  0  0  0  0  0  0  0  0  0  0
  140.0696   78.0273  224.0656 H   0  0  0  0  0  0  0  0  0  0  0  0
  1  2  2  0
  2  3  1  0
  3  4  1  0
  4  5  1  0
  5  6  2  0
  5  7  1  0
  7  8  1  0
  8  9  1  0
  9 10  1  0
 10 11  1  0
 11 12  1  0
 12 13  1  0
 13 14  1  0
 14 15  1  0
 15 16  2  0
 16 17  1  0
 17 18  2  0
 18 19  1  0
 19 20  2  0
 20 21  1  0
 21 22  2  0
 22 23  1  0
 18 24  1  0
 24 25  2  0
  2 26  1  0
 26 27  2  0
 27 28  1  0
 28 29  2  0
 29 30  1  0
 30 31  2  0
 31 32  1  0
 31 33  1  0
 33 34  2  0
 34 35  1  0
 35 36  2  0
 11  7  1  0
 25 15  1  0
 36 26  1  0
 23 19  1  0
 35 29  1  0
  3 37  1  0
  4 38  1  0
  4 39  1  0
  8 40  1  0
  8 41  1  0
  9 42  1  0
  9 43  1  0
 10 44  1  0
 10 45  1  0
 11 46  1  1
 12 47  1  0
 12 48  1  0
 13 49  1  0
 14 50  1  0
 14 51  1  0
 16 52  1  0
 17 53  1  0
 21 54  1  0
 22 55  1  0
 23 56  1  0
 24 57  1  0
 25 58  1  0
 27 59  1  0
 28 60  1  0
 30 61  1  0
 33 62  1  0
 34 63  1  0
M  END
>  <smiles>  (33) 
O=C(NCC(=O)N1CCC[C@H]1CNCc1ccc(-c2ncc[nH]2)cc1)c1ccc2cc(F)ccc2n1

>  <score_type>  (33) 
oracle

>  <origin>  (33) 
autodockgpu

>  <m_score__min__energy>  (33) 
-9.5700000000000003

>  <m_primary>  (33) 
energy

>  <rmsd>  (33) 
9.825156221482745

>  <m_score__min__rmsd>  (33) 
9.825156221482745

>  <meeko>  (33) 
{"free_energy": -8.27, "intermolecular_energy": -10.96, "internal_energy": -2.37, "cluster_size": 1, "cluster_id": 5, "rank_in_cluster": 1}

>  <energy>  (33) 
-7.86

>  <cluster_rmsd>  (33) 
0.0

>  <cluster>  (33) 
10

$$$$

     RDKit          3D

 63 67  0  0  0  0  0  0  0  0999 V2000
  143.4170   76.2970  219.8170 O   0  0  0  0  0  0  0  0  0  0  0  0
  142.2780   76.7750  219.4850 C   0  0  0  0  0  0  0  0  0  0  0  0
  141.1640   75.9050  219.4490 N   0  0  0  0  0  0  0  0  0  0  0  0
  141.3700   74.4960  219.7980 C   0  0  0  0  0  0  0  0  0  0  0  0
  140.0780   73.7630  219.8100 C   0  0  0  0  0  0  0  0  0  0  0  0
  139.1520   74.1950  219.0780 O   0  0  0  0  0  0  0  0  0  0  0  0
  139.9610   72.6230  220.6440 N   0  0  0  0  0  0  0  0  0  0  0  0
  140.9940   71.6710  221.0550 C   0  0  0  0  0  0  0  0  0  0  0  0
  140.6560   71.4390  222.5200 C   0  0  0  0  0  0  0  0  0  0  0  0
  139.2840   72.0860  222.7450 C   0  0  0  0  0  0  0  0  0  0  0  0
  138.7490   72.1140  221.3180 C   0  0  1  0  0  0  0  0  0  0  0  0
  137.5980   73.0320  221.1610 C   0  0  0  0  0  0  0  0  0  0  0  0
  137.6460   74.1190  222.0540 N   0  0  0  0  0  0  0  0  0  0  0  0
  137.6270   75.4310  221.6000 C   0  0  0  0  0  0  0  0  0  0  0  0
  138.6840   76.3790  221.9490 C   0  0  0  0  0  0  0  0  0  0  0  0
  138.3440   77.7370  221.9630 C   0  0  0  0  0  0  0  0  0  0  0  0
  139.3070   78.6510  222.3370 C   0  0  0  0  0  0  0  0  0  0  0  0
  140.5890   78.2740  222.6930 C   0  0  0  0  0  0  0  0  0  0  0  0
  141.5830   79.2680  223.0810 C   0  0  0  0  0  0  0  0  0  0  0  0
  141.4440   80.1260  224.1230 N   0  0  0  0  0  0  0  0  0  0  0  0
  142.5350   80.9230  224.2260 C   0  0  0  0  0  0  0  0  0  0  0  0
  143.3710   80.5250  223.1950 C   0  0  0  0  0  0  0  0  0  0  0  0
  142.7920   79.5160  222.4950 N   0  0  0  0  0  0  0  0  0  0  0  0
  140.9330   76.9320  222.6810 C   0  0  0  0  0  0  0  0  0  0  0  0
  139.9830   75.9760  222.3080 C   0  0  0  0  0  0  0  0  0  0  0  0
  142.1820   78.1970  219.1600 C   0  0  0  0  0  0  0  0  0  0  0  0
  142.6410   78.6560  217.9460 C   0  0  0  0  0  0  0  0  0  0  0  0
  142.5920   79.9790  217.5600 C   0  0  0  0  0  0  0  0  0  0  0  0
  142.0510   80.8980  218.4430 C   0  0  0  0  0  0  0  0  0  0  0  0
  141.9930   82.2120  218.0820 C   0  0  0  0  0  0  0  0  0  0  0  0
  141.4440   83.1290  218.9830 C   0  0  0  0  0  0  0  0  0  0  0  0
  141.3740   84.4400  218.6490 F   0  0  0  0  0  0  0  0  0  0  0  0
  140.9770   82.6930  220.2060 C   0  0  0  0  0  0  0  0  0  0  0  0
  141.0490   81.3550  220.5440 C   0  0  0  0  0  0  0  0  0  0  0  0
  141.5900   80.4170  219.6690 C   0  0  0  0  0  0  0  0  0  0  0  0
  141.6610   79.1110  219.9980 N   0  0  0  0  0  0  0  0  0  0  0  0
  140.2380   76.2860  219.1780 H   0  0  0  0  0  0  0  0  0  0  0  0
  142.0398   74.0348  219.0572 H   0  0  0  0  0  0  0  0  0  0  0  0
  141.8161   74.4422  220.8021 H   0  0  0  0  0  0  0  0  0  0  0  0
  140.9273   70.7369  220.4779 H   0  0  0  0  0  0  0  0  0  0  0  0
  142.0190   72.0352  220.8916 H   0  0  0  0  0  0  0  0  0  0  0  0
  140.6103   70.3613  222.7357 H   0  0  0  0  0  0  0  0  0  0  0  0
  141.4193   71.8723  223.1830 H   0  0  0  0  0  0  0  0  0  0  0  0
  138.6502   71.4742  223.4038 H   0  0  0  0  0  0  0  0  0  0  0  0
  139.3172   73.0677  223.2401 H   0  0  0  0  0  0  0  0  0  0  0  0
  138.3517   71.1600  220.9410 H   0  0  0  0  0  0  0  0  0  0  0  0
  137.5958   73.4213  220.1322 H   0  0  0  0  0  0  0  0  0  0  0  0
  136.6841   72.4606  221.3810 H   0  0  0  0  0  0  0  0  0  0  0  0
  137.6250   73.9250  223.0630 H   0  0  0  0  0  0  0  0  0  0  0  0
  137.6088   75.3782  220.5014 H   0  0  0  0  0  0  0  0  0  0  0  0
  136.7548   75.8483  222.1245 H   0  0  0  0  0  0  0  0  0  0  0  0
  137.3330   78.0673  221.6824 H   0  0  0  0  0  0  0  0  0  0  0  0
  139.0455   79.7194  222.3527 H   0  0  0  0  0  0  0  0  0  0  0  0
  142.7176   81.7147  224.9676 H   0  0  0  0  0  0  0  0  0  0  0  0
  144.3567   80.9615  222.9764 H   0  0  0  0  0  0  0  0  0  0  0  0
  143.1960   79.0130  221.6560 H   0  0  0  0  0  0  0  0  0  0  0  0
  141.9492   76.6198  222.9637 H   0  0  0  0  0  0  0  0  0  0  0  0
  140.2514   74.9093  222.2953 H   0  0  0  0  0  0  0  0  0  0  0  0
  143.0711   77.9263  217.2442 H   0  0  0  0  0  0  0  0  0  0  0  0
  142.9723   80.2955  216.5775 H   0  0  0  0  0  0  0  0  0  0  0  0
  142.3701   82.5430  217.1031 H   0  0  0  0  0  0  0  0  0  0  0  0
  140.5452   83.4142  220.9155 H   0  0  0  0  0  0  0  0  0  0  0  0
  140.6717   81.0248  221.5231 H   0  0  0  0  0  0  0  0  0  0  0  0
  1  2  2  0
  2  3  1  0
  3  4  1  0
  4  5  1  0
  5  6  2  0
  5  7  1  0
  7  8  1  0
  8  9  1  0
  9 10  1  0
 10 11  1  0
 11 12  1  0
 12 13  1  0
 13 14  1  0
 14 15  1  0
 15 16  2  0
 16 17  1  0
 17 18  2  0
 18 19  1  0
 19 20  2  0
 20 21  1  0
 21 22  2  0
 22 23  1  0
 18 24  1  0
 24 25  2  0
  2 26  1  0
 26 27  2  0
 27 28  1  0
 28 29  2  0
 29 30  1  0
 30 31  2  0
 31 32  1  0
 31 33  1  0
 33 34  2  0
 34 35  1  0
 35 36  2  0
 11  7  1  0
 25 15  1  0
 36 26  1  0
 23 19  1  0
 35 29  1  0
  3 37  1  0
  4 38  1  0
  4 39  1  0
  8 40  1  0
  8 41  1  0
  9 42  1  0
  9 43  1  0
 10 44  1  0
 10 45  1  0
 11 46  1  6
 12 47  1  0
 12 48  1  0
 13 49  1  0
 14 50  1  0
 14 51  1  0
 16 52  1  0
 17 53  1  0
 21 54  1  0
 22 55  1  0
 23 56  1  0
 24 57  1  0
 25 58  1  0
 27 59  1  0
 28 60  1  0
 30 61  1  0
 33 62  1  0
 34 63  1  0
M  END
>  <smiles>  (34) 
O=C(NCC(=O)N1CCC[C@H]1CNCc1ccc(-c2ncc[nH]2)cc1)c1ccc2cc(F)ccc2n1

>  <score_type>  (34) 
oracle

>  <origin>  (34) 
autodockgpu

>  <m_score__min__energy>  (34) 
-9.5700000000000003

>  <m_primary>  (34) 
energy

>  <rmsd>  (34) 
9.06700557954979

>  <m_score__min__rmsd>  (34) 
9.06700557954979

>  <meeko>  (34) 
{"free_energy": -6.49, "intermolecular_energy": -9.18, "internal_energy": -4.33, "cluster_size": 3, "cluster_id": 11, "rank_in_cluster": 3}

>  <energy>  (34) 
-7.63

>  <cluster_rmsd>  (34) 
0.29

>  <cluster>  (34) 
10

$$$$

     RDKit          3D

 63 67  0  0  0  0  0  0  0  0999 V2000
  142.6570   79.1800  218.5490 O   0  0  0  0  0  0  0  0  0  0  0  0
  142.1160   78.1330  219.0430 C   0  0  0  0  0  0  0  0  0  0  0  0
  140.8730   78.2620  219.7060 N   0  0  0  0  0  0  0  0  0  0  0  0
  140.2650   79.5940  219.7900 C   0  0  0  0  0  0  0  0  0  0  0  0
  140.2010   80.0540  221.2000 C   0  0  0  0  0  0  0  0  0  0  0  0
  139.1420   80.6090  221.5900 O   0  0  0  0  0  0  0  0  0  0  0  0
  141.3350   79.8450  222.0260 N   0  0  0  0  0  0  0  0  0  0  0  0
  142.4090   80.7770  222.3700 C   0  0  0  0  0  0  0  0  0  0  0  0
  142.6260   80.4890  223.8480 C   0  0  0  0  0  0  0  0  0  0  0  0
  141.8250   79.2170  224.1530 C   0  0  0  0  0  0  0  0  0  0  0  0
  141.7080   78.6160  222.7570 C   0  0  1  0  0  0  0  0  0  0  0  0
  140.6580   77.5760  222.6710 C   0  0  0  0  0  0  0  0  0  0  0  0
  141.0730   76.4470  221.9420 N   0  0  0  0  0  0  0  0  0  0  0  0
  140.1820   75.4400  221.5940 C   0  0  0  0  0  0  0  0  0  0  0  0
  140.6430   74.1140  221.1850 C   0  0  0  0  0  0  0  0  0  0  0  0
  140.8810   73.9150  219.8210 C   0  0  0  0  0  0  0  0  0  0  0  0
  141.3650   72.6890  219.4110 C   0  0  0  0  0  0  0  0  0  0  0  0
  141.6170   71.6580  220.2970 C   0  0  0  0  0  0  0  0  0  0  0  0
  142.1260   70.3740  219.8280 C   0  0  0  0  0  0  0  0  0  0  0  0
  143.4410   70.0380  219.7860 N   0  0  0  0  0  0  0  0  0  0  0  0
  143.5910   68.7810  219.3040 C   0  0  0  0  0  0  0  0  0  0  0  0
  142.3040   68.3390  219.0440 C   0  0  0  0  0  0  0  0  0  0  0  0
  141.4090   69.3090  219.3630 N   0  0  0  0  0  0  0  0  0  0  0  0
  141.3830   71.8480  221.6490 C   0  0  0  0  0  0  0  0  0  0  0  0
  140.8940   73.0780  222.1020 C   0  0  0  0  0  0  0  0  0  0  0  0
  142.8060   76.8520  218.9000 C   0  0  0  0  0  0  0  0  0  0  0  0
  142.8920   76.2530  217.6640 C   0  0  0  0  0  0  0  0  0  0  0  0
  143.5200   75.0470  217.4400 C   0  0  0  0  0  0  0  0  0  0  0  0
  144.0980   74.4000  218.5200 C   0  0  0  0  0  0  0  0  0  0  0  0
  144.7240   73.2050  218.3210 C   0  0  0  0  0  0  0  0  0  0  0  0
  145.3030   72.5640  219.4200 C   0  0  0  0  0  0  0  0  0  0  0  0
  145.9320   71.3760  219.2500 F   0  0  0  0  0  0  0  0  0  0  0  0
  145.2300   73.1430  220.6700 C   0  0  0  0  0  0  0  0  0  0  0  0
  144.5880   74.3550  220.8400 C   0  0  0  0  0  0  0  0  0  0  0  0
  144.0020   75.0200  219.7660 C   0  0  0  0  0  0  0  0  0  0  0  0
  143.3750   76.2030  219.9310 N   0  0  0  0  0  0  0  0  0  0  0  0
  140.4300   77.4170  220.1120 H   0  0  0  0  0  0  0  0  0  0  0  0
  140.8688   80.3040  219.2057 H   0  0  0  0  0  0  0  0  0  0  0  0
  139.2422   79.5417  219.3885 H   0  0  0  0  0  0  0  0  0  0  0  0
  143.3181   80.5705  221.7861 H   0  0  0  0  0  0  0  0  0  0  0  0
  142.1654   81.8283  222.1569 H   0  0  0  0  0  0  0  0  0  0  0  0
  143.6944   80.3262  224.0528 H   0  0  0  0  0  0  0  0  0  0  0  0
  142.2984   81.3314  224.4749 H   0  0  0  0  0  0  0  0  0  0  0  0
  142.3691   78.5496  224.8374 H   0  0  0  0  0  0  0  0  0  0  0  0
  140.8631   79.3927  224.6568 H   0  0  0  0  0  0  0  0  0  0  0  0
  142.6008   78.0880  222.3907 H   0  0  0  0  0  0  0  0  0  0  0  0
  140.3919   77.2589  223.6902 H   0  0  0  0  0  0  0  0  0  0  0  0
  139.7973   78.0144  222.1446 H   0  0  0  0  0  0  0  0  0  0  0  0
  142.0430   76.4100  221.6060 H   0  0  0  0  0  0  0  0  0  0  0  0
  139.5326   75.2857  222.4683 H   0  0  0  0  0  0  0  0  0  0  0  0
  139.7381   75.8302  220.6663 H   0  0  0  0  0  0  0  0  0  0  0  0
  140.6871   74.7162  219.0927 H   0  0  0  0  0  0  0  0  0  0  0  0
  141.5572   72.5264  218.3402 H   0  0  0  0  0  0  0  0  0  0  0  0
  144.5311   68.2304  219.1520 H   0  0  0  0  0  0  0  0  0  0  0  0
  142.0456   67.3493  218.6393 H   0  0  0  0  0  0  0  0  0  0  0  0
  140.3550   69.2560  219.2710 H   0  0  0  0  0  0  0  0  0  0  0  0
  141.5808   71.0353  222.3634 H   0  0  0  0  0  0  0  0  0  0  0  0
  140.7061   73.2345  223.1745 H   0  0  0  0  0  0  0  0  0  0  0  0
  142.4333   76.7661  216.8059 H   0  0  0  0  0  0  0  0  0  0  0  0
  143.5612   74.6101  216.4313 H   0  0  0  0  0  0  0  0  0  0  0  0
  144.7723   72.7556  217.3182 H   0  0  0  0  0  0  0  0  0  0  0  0
  145.6846   72.6379  221.5350 H   0  0  0  0  0  0  0  0  0  0  0  0
  144.5390   74.8032  221.8434 H   0  0  0  0  0  0  0  0  0  0  0  0
  1  2  2  0
  2  3  1  0
  3  4  1  0
  4  5  1  0
  5  6  2  0
  5  7  1  0
  7  8  1  0
  8  9  1  0
  9 10  1  0
 10 11  1  0
 11 12  1  0
 12 13  1  0
 13 14  1  0
 14 15  1  0
 15 16  2  0
 16 17  1  0
 17 18  2  0
 18 19  1  0
 19 20  2  0
 20 21  1  0
 21 22  2  0
 22 23  1  0
 18 24  1  0
 24 25  2  0
  2 26  1  0
 26 27  2  0
 27 28  1  0
 28 29  2  0
 29 30  1  0
 30 31  2  0
 31 32  1  0
 31 33  1  0
 33 34  2  0
 34 35  1  0
 35 36  2  0
 11  7  1  0
 25 15  1  0
 36 26  1  0
 23 19  1  0
 35 29  1  0
  3 37  1  0
  4 38  1  0
  4 39  1  0
  8 40  1  0
  8 41  1  0
  9 42  1  0
  9 43  1  0
 10 44  1  0
 10 45  1  0
 11 46  1  6
 12 47  1  0
 12 48  1  0
 13 49  1  0
 14 50  1  0
 14 51  1  0
 16 52  1  0
 17 53  1  0
 21 54  1  0
 22 55  1  0
 23 56  1  0
 24 57  1  0
 25 58  1  0
 27 59  1  0
 28 60  1  0
 30 61  1  0
 33 62  1  0
 34 63  1  0
M  END
>  <smiles>  (35) 
O=C(NCC(=O)N1CCC[C@H]1CNCc1ccc(-c2ncc[nH]2)cc1)c1ccc2cc(F)ccc2n1

>  <score_type>  (35) 
oracle

>  <origin>  (35) 
autodockgpu

>  <m_score__min__energy>  (35) 
-9.5700000000000003

>  <m_primary>  (35) 
energy

>  <rmsd>  (35) 
8.188888144152036

>  <m_score__min__rmsd>  (35) 
8.188888144152036

>  <meeko>  (35) 
{"free_energy": -6.3, "intermolecular_energy": -8.99, "internal_energy": -4.96, "cluster_size": 5, "cluster_id": 16, "rank_in_cluster": 2}

>  <energy>  (35) 
-7.23

>  <cluster_rmsd>  (35) 
0.83

>  <cluster>  (35) 
10

$$$$

     RDKit          3D

 63 67  0  0  0  0  0  0  0  0999 V2000
  141.5260   71.9090  221.4980 O   0  0  0  0  0  0  0  0  0  0  0  0
  140.5490   72.2890  222.2310 C   0  0  0  0  0  0  0  0  0  0  0  0
  139.7930   73.4110  221.8210 N   0  0  0  0  0  0  0  0  0  0  0  0
  140.1640   74.0820  220.5710 C   0  0  0  0  0  0  0  0  0  0  0  0
  139.1530   73.8230  219.5150 C   0  0  0  0  0  0  0  0  0  0  0  0
  139.2120   72.7270  218.9020 O   0  0  0  0  0  0  0  0  0  0  0  0
  138.1810   74.8220  219.2570 N   0  0  0  0  0  0  0  0  0  0  0  0
  138.1330   75.8010  218.1690 C   0  0  0  0  0  0  0  0  0  0  0  0
  136.6570   75.7980  217.7980 C   0  0  0  0  0  0  0  0  0  0  0  0
  135.9460   75.0010  218.8990 C   0  0  0  0  0  0  0  0  0  0  0  0
  136.9590   75.1190  220.0310 C   0  0  1  0  0  0  0  0  0  0  0  0
  136.7280   74.1280  221.1070 C   0  0  0  0  0  0  0  0  0  0  0  0
  137.0490   74.6300  222.3830 N   0  0  0  0  0  0  0  0  0  0  0  0
  136.9290   75.9810  222.6810 C   0  0  0  0  0  0  0  0  0  0  0  0
  138.0980   76.8570  222.7560 C   0  0  0  0  0  0  0  0  0  0  0  0
  137.8670   78.2040  223.0570 C   0  0  0  0  0  0  0  0  0  0  0  0
  138.9530   79.0440  223.1840 C   0  0  0  0  0  0  0  0  0  0  0  0
  140.2540   78.6030  223.0220 C   0  0  0  0  0  0  0  0  0  0  0  0
  141.3800   79.5200  223.1620 C   0  0  0  0  0  0  0  0  0  0  0  0
  141.3240   80.7110  223.8120 N   0  0  0  0  0  0  0  0  0  0  0  0
  142.5290   81.3280  223.7680 C   0  0  0  0  0  0  0  0  0  0  0  0
  143.3500   80.4680  223.0570 C   0  0  0  0  0  0  0  0  0  0  0  0
  142.6510   79.3650  222.6860 N   0  0  0  0  0  0  0  0  0  0  0  0
  140.4910   77.2720  222.7250 C   0  0  0  0  0  0  0  0  0  0  0  0
  139.4140   76.3890  222.5890 C   0  0  0  0  0  0  0  0  0  0  0  0
  140.2620   71.5460  223.4570 C   0  0  0  0  0  0  0  0  0  0  0  0
  139.4820   70.4140  223.4060 C   0  0  0  0  0  0  0  0  0  0  0  0
  139.1590   69.6570  224.5110 C   0  0  0  0  0  0  0  0  0  0  0  0
  139.6470   70.0580  225.7440 C   0  0  0  0  0  0  0  0  0  0  0  0
  139.3400   69.3230  226.8520 C   0  0  0  0  0  0  0  0  0  0  0  0
  139.8390   69.7400  228.0880 C   0  0  0  0  0  0  0  0  0  0  0  0
  139.5500   69.0280  229.2050 F   0  0  0  0  0  0  0  0  0  0  0  0
  140.6240   70.8720  228.1660 C   0  0  0  0  0  0  0  0  0  0  0  0
  140.9180   71.5960  227.0260 C   0  0  0  0  0  0  0  0  0  0  0  0
  140.4360   71.2080  225.7790 C   0  0  0  0  0  0  0  0  0  0  0  0
  140.7220   71.9130  224.6660 N   0  0  0  0  0  0  0  0  0  0  0  0
  139.0020   73.7270  222.4130 H   0  0  0  0  0  0  0  0  0  0  0  0
  140.2305   75.1655  220.7490 H   0  0  0  0  0  0  0  0  0  0  0  0
  141.1349   73.6897  220.2342 H   0  0  0  0  0  0  0  0  0  0  0  0
  138.4558   76.7949  218.5124 H   0  0  0  0  0  0  0  0  0  0  0  0
  138.7999   75.5595  217.3282 H   0  0  0  0  0  0  0  0  0  0  0  0
  136.2702   76.8271  217.7606 H   0  0  0  0  0  0  0  0  0  0  0  0
  136.4917   75.3513  216.8065 H   0  0  0  0  0  0  0  0  0  0  0  0
  134.9812   75.4549  219.1694 H   0  0  0  0  0  0  0  0  0  0  0  0
  135.6889   73.9680  218.6218 H   0  0  0  0  0  0  0  0  0  0  0  0
  136.9522   76.0745  220.5760 H   0  0  0  0  0  0  0  0  0  0  0  0
  135.6665   73.8396  221.0986 H   0  0  0  0  0  0  0  0  0  0  0  0
  137.3837   73.2664  220.9131 H   0  0  0  0  0  0  0  0  0  0  0  0
  137.3100   73.9640  223.1200 H   0  0  0  0  0  0  0  0  0  0  0  0
  136.2693   76.4102  221.9125 H   0  0  0  0  0  0  0  0  0  0  0  0
  136.5828   75.9614  223.7249 H   0  0  0  0  0  0  0  0  0  0  0  0
  136.8431   78.5837  223.1892 H   0  0  0  0  0  0  0  0  0  0  0  0
  138.7784   80.1035  223.4229 H   0  0  0  0  0  0  0  0  0  0  0  0
  142.7978   82.3019  224.2030 H   0  0  0  0  0  0  0  0  0  0  0  0
  144.4100   80.6515  222.8274 H   0  0  0  0  0  0  0  0  0  0  0  0
  143.0150   78.5380  222.1330 H   0  0  0  0  0  0  0  0  0  0  0  0
  141.5217   76.9099  222.5964 H   0  0  0  0  0  0  0  0  0  0  0  0
  139.5962   75.3304  222.3519 H   0  0  0  0  0  0  0  0  0  0  0  0
  139.0941   70.0950  222.4273 H   0  0  0  0  0  0  0  0  0  0  0  0
  138.5309   68.7589  224.4168 H   0  0  0  0  0  0  0  0  0  0  0  0
  138.7135   68.4222  226.7734 H   0  0  0  0  0  0  0  0  0  0  0  0
  141.0175   71.1996  229.1396 H   0  0  0  0  0  0  0  0  0  0  0  0
  141.5450   72.4963  227.1056 H   0  0  0  0  0  0  0  0  0  0  0  0
  1  2  2  0
  2  3  1  0
  3  4  1  0
  4  5  1  0
  5  6  2  0
  5  7  1  0
  7  8  1  0
  8  9  1  0
  9 10  1  0
 10 11  1  0
 11 12  1  0
 12 13  1  0
 13 14  1  0
 14 15  1  0
 15 16  2  0
 16 17  1  0
 17 18  2  0
 18 19  1  0
 19 20  2  0
 20 21  1  0
 21 22  2  0
 22 23  1  0
 18 24  1  0
 24 25  2  0
  2 26  1  0
 26 27  2  0
 27 28  1  0
 28 29  2  0
 29 30  1  0
 30 31  2  0
 31 32  1  0
 31 33  1  0
 33 34  2  0
 34 35  1  0
 35 36  2  0
 11  7  1  0
 25 15  1  0
 36 26  1  0
 23 19  1  0
 35 29  1  0
  3 37  1  0
  4 38  1  0
  4 39  1  0
  8 40  1  0
  8 41  1  0
  9 42  1  0
  9 43  1  0
 10 44  1  0
 10 45  1  0
 11 46  1  1
 12 47  1  0
 12 48  1  0
 13 49  1  0
 14 50  1  0
 14 51  1  0
 16 52  1  0
 17 53  1  0
 21 54  1  0
 22 55  1  0
 23 56  1  0
 24 57  1  0
 25 58  1  0
 27 59  1  0
 28 60  1  0
 30 61  1  0
 33 62  1  0
 34 63  1  0
M  END
>  <smiles>  (36) 
O=C(NCC(=O)N1CCC[C@H]1CNCc1ccc(-c2ncc[nH]2)cc1)c1ccc2cc(F)ccc2n1

>  <score_type>  (36) 
oracle

>  <origin>  (36) 
autodockgpu

>  <m_score__min__energy>  (36) 
-9.5700000000000003

>  <m_primary>  (36) 
energy

>  <rmsd>  (36) 
3.644728433354242

>  <m_score__min__rmsd>  (36) 
3.644728433354242

>  <meeko>  (36) 
{"free_energy": -8.18, "intermolecular_energy": -10.86, "internal_energy": -2.77, "cluster_size": 16, "cluster_id": 3, "rank_in_cluster": 10}

>  <energy>  (36) 
-7.5

>  <cluster_rmsd>  (36) 
0.0

>  <cluster>  (36) 
11

$$$$

     RDKit          3D

 63 67  0  0  0  0  0  0  0  0999 V2000
  142.5440   79.2310  218.5160 O   0  0  0  0  0  0  0  0  0  0  0  0
  142.0030   78.1840  219.0110 C   0  0  0  0  0  0  0  0  0  0  0  0
  140.7510   78.3100  219.6560 N   0  0  0  0  0  0  0  0  0  0  0  0
  140.1330   79.6380  219.7220 C   0  0  0  0  0  0  0  0  0  0  0  0
  140.1490   80.1560  221.1140 C   0  0  0  0  0  0  0  0  0  0  0  0
  139.1480   80.8070  221.5100 O   0  0  0  0  0  0  0  0  0  0  0  0
  141.2880   79.8900  221.9150 N   0  0  0  0  0  0  0  0  0  0  0  0
  142.3710   80.7940  222.3060 C   0  0  0  0  0  0  0  0  0  0  0  0
  142.5980   80.4150  223.7620 C   0  0  0  0  0  0  0  0  0  0  0  0
  141.7920   79.1320  223.9960 C   0  0  0  0  0  0  0  0  0  0  0  0
  141.6600   78.6180  222.5670 C   0  0  1  0  0  0  0  0  0  0  0  0
  140.6020   77.5910  222.4280 C   0  0  0  0  0  0  0  0  0  0  0  0
  141.0780   76.3990  221.8490 N   0  0  0  0  0  0  0  0  0  0  0  0
  140.2140   75.3800  221.4740 C   0  0  0  0  0  0  0  0  0  0  0  0
  140.7090   74.0930  220.9860 C   0  0  0  0  0  0  0  0  0  0  0  0
  141.0370   73.1300  221.9470 C   0  0  0  0  0  0  0  0  0  0  0  0
  141.4590   71.8900  221.5160 C   0  0  0  0  0  0  0  0  0  0  0  0
  141.5720   71.5700  220.1750 C   0  0  0  0  0  0  0  0  0  0  0  0
  142.0240   70.2490  219.7550 C   0  0  0  0  0  0  0  0  0  0  0  0
  143.3250   69.8610  219.7080 N   0  0  0  0  0  0  0  0  0  0  0  0
  143.4200   68.5800  219.2780 C   0  0  0  0  0  0  0  0  0  0  0  0
  142.1130   68.1760  219.0570 C   0  0  0  0  0  0  0  0  0  0  0  0
  141.2600   69.1920  219.3460 N   0  0  0  0  0  0  0  0  0  0  0  0
  141.2500   72.5180  219.2180 C   0  0  0  0  0  0  0  0  0  0  0  0
  140.8160   73.7860  219.6180 C   0  0  0  0  0  0  0  0  0  0  0  0
  142.7030   76.9070  218.8850 C   0  0  0  0  0  0  0  0  0  0  0  0
  142.7420   76.2620  217.6710 C   0  0  0  0  0  0  0  0  0  0  0  0
  143.3760   75.0550  217.4650 C   0  0  0  0  0  0  0  0  0  0  0  0
  144.0090   74.4580  218.5420 C   0  0  0  0  0  0  0  0  0  0  0  0
  144.6430   73.2630  218.3610 C   0  0  0  0  0  0  0  0  0  0  0  0
  145.2780   72.6710  219.4570 C   0  0  0  0  0  0  0  0  0  0  0  0
  145.9150   71.4860  219.3050 F   0  0  0  0  0  0  0  0  0  0  0  0
  145.2530   73.2980  220.6860 C   0  0  0  0  0  0  0  0  0  0  0  0
  144.6030   74.5090  220.8380 C   0  0  0  0  0  0  0  0  0  0  0  0
  143.9600   75.1240  219.7660 C   0  0  0  0  0  0  0  0  0  0  0  0
  143.3250   76.3050  219.9140 N   0  0  0  0  0  0  0  0  0  0  0  0
  140.3080   77.4650  220.0620 H   0  0  0  0  0  0  0  0  0  0  0  0
  140.6915   80.3288  219.0732 H   0  0  0  0  0  0  0  0  0  0  0  0
  139.0885   79.5591  219.3860 H   0  0  0  0  0  0  0  0  0  0  0  0
  143.2741   80.6184  221.7030 H   0  0  0  0  0  0  0  0  0  0  0  0
  142.1322   81.8577  222.1592 H   0  0  0  0  0  0  0  0  0  0  0  0
  143.6670   80.2338  223.9475 H   0  0  0  0  0  0  0  0  0  0  0  0
  142.2805   81.2195  224.4417 H   0  0  0  0  0  0  0  0  0  0  0  0
  142.3376   78.4211  224.6339 H   0  0  0  0  0  0  0  0  0  0  0  0
  140.8354   79.2820  224.5179 H   0  0  0  0  0  0  0  0  0  0  0  0
  142.5468   78.1089  222.1616 H   0  0  0  0  0  0  0  0  0  0  0  0
  140.1999   77.3620  223.4259 H   0  0  0  0  0  0  0  0  0  0  0  0
  139.8269   77.9987  221.7624 H   0  0  0  0  0  0  0  0  0  0  0  0
  142.0810   76.3230  221.6400 H   0  0  0  0  0  0  0  0  0  0  0  0
  139.5950   75.1590  222.3561 H   0  0  0  0  0  0  0  0  0  0  0  0
  139.7313   75.7998  220.5791 H   0  0  0  0  0  0  0  0  0  0  0  0
  140.9600   73.3568  223.0206 H   0  0  0  0  0  0  0  0  0  0  0  0
  141.7152   71.1273  222.2661 H   0  0  0  0  0  0  0  0  0  0  0  0
  144.3363   67.9885  219.1352 H   0  0  0  0  0  0  0  0  0  0  0  0
  141.8114   67.1801  218.7004 H   0  0  0  0  0  0  0  0  0  0  0  0
  140.2040   69.1760  219.2720 H   0  0  0  0  0  0  0  0  0  0  0  0
  141.3352   72.2749  218.1486 H   0  0  0  0  0  0  0  0  0  0  0  0
  140.5584   74.5429  218.8625 H   0  0  0  0  0  0  0  0  0  0  0  0
  142.2387   76.7361  216.8155 H   0  0  0  0  0  0  0  0  0  0  0  0
  143.3788   74.5798  216.4729 H   0  0  0  0  0  0  0  0  0  0  0  0
  144.6542   72.7763  217.3746 H   0  0  0  0  0  0  0  0  0  0  0  0
  145.7523   72.8324  221.5485 H   0  0  0  0  0  0  0  0  0  0  0  0
  144.5934   74.9961  221.8242 H   0  0  0  0  0  0  0  0  0  0  0  0
  1  2  2  0
  2  3  1  0
  3  4  1  0
  4  5  1  0
  5  6  2  0
  5  7  1  0
  7  8  1  0
  8  9  1  0
  9 10  1  0
 10 11  1  0
 11 12  1  0
 12 13  1  0
 13 14  1  0
 14 15  1  0
 15 16  2  0
 16 17  1  0
 17 18  2  0
 18 19  1  0
 19 20  2  0
 20 21  1  0
 21 22  2  0
 22 23  1  0
 18 24  1  0
 24 25  2  0
  2 26  1  0
 26 27  2  0
 27 28  1  0
 28 29  2  0
 29 30  1  0
 30 31  2  0
 31 32  1  0
 31 33  1  0
 33 34  2  0
 34 35  1  0
 35 36  2  0
 11  7  1  0
 25 15  1  0
 36 26  1  0
 23 19  1  0
 35 29  1  0
  3 37  1  0
  4 38  1  0
  4 39  1  0
  8 40  1  0
  8 41  1  0
  9 42  1  0
  9 43  1  0
 10 44  1  0
 10 45  1  0
 11 46  1  6
 12 47  1  0
 12 48  1  0
 13 49  1  0
 14 50  1  0
 14 51  1  0
 16 52  1  0
 17 53  1  0
 21 54  1  0
 22 55  1  0
 23 56  1  0
 24 57  1  0
 25 58  1  0
 27 59  1  0
 28 60  1  0
 30 61  1  0
 33 62  1  0
 34 63  1  0
M  END
>  <smiles>  (37) 
O=C(NCC(=O)N1CCC[C@H]1CNCc1ccc(-c2ncc[nH]2)cc1)c1ccc2cc(F)ccc2n1

>  <score_type>  (37) 
oracle

>  <origin>  (37) 
autodockgpu

>  <m_score__min__energy>  (37) 
-9.5700000000000003

>  <m_primary>  (37) 
energy

>  <rmsd>  (37) 
8.102411539036627

>  <m_score__min__rmsd>  (37) 
8.102411539036627

>  <meeko>  (37) 
{"free_energy": -6.21, "intermolecular_energy": -8.9, "internal_energy": -4.88, "cluster_size": 5, "cluster_id": 16, "rank_in_cluster": 3}

>  <energy>  (37) 
-7.02

>  <cluster_rmsd>  (37) 
0.67

>  <cluster>  (37) 
11

$$$$

     RDKit          3D

 63 67  0  0  0  0  0  0  0  0999 V2000
  140.6860   71.4850  221.2760 O   0  0  0  0  0  0  0  0  0  0  0  0
  140.2190   72.0140  222.3420 C   0  0  0  0  0  0  0  0  0  0  0  0
  139.7740   73.3550  222.2930 N   0  0  0  0  0  0  0  0  0  0  0  0
  139.8680   74.0740  221.0180 C   0  0  0  0  0  0  0  0  0  0  0  0
  138.5310   74.1990  220.3860 C   0  0  0  0  0  0  0  0  0  0  0  0
  138.3190   75.1980  219.6520 O   0  0  0  0  0  0  0  0  0  0  0  0
  137.5690   73.1890  220.6430 N   0  0  0  0  0  0  0  0  0  0  0  0
  137.4070   71.8850  219.9990 C   0  0  0  0  0  0  0  0  0  0  0  0
  137.0860   70.9790  221.1780 C   0  0  0  0  0  0  0  0  0  0  0  0
  136.8320   71.9110  222.3700 C   0  0  0  0  0  0  0  0  0  0  0  0
  136.4840   73.2060  221.6450 C   0  0  1  0  0  0  0  0  0  0  0  0
  136.5620   74.3910  222.5300 C   0  0  0  0  0  0  0  0  0  0  0  0
  136.5270   75.6030  221.8140 N   0  0  0  0  0  0  0  0  0  0  0  0
  136.6270   76.8280  222.4600 C   0  0  0  0  0  0  0  0  0  0  0  0
  137.9060   77.5260  222.5880 C   0  0  0  0  0  0  0  0  0  0  0  0
  137.8660   78.8550  223.0220 C   0  0  0  0  0  0  0  0  0  0  0  0
  139.0600   79.5240  223.2000 C   0  0  0  0  0  0  0  0  0  0  0  0
  140.2850   78.9290  222.9640 C   0  0  0  0  0  0  0  0  0  0  0  0
  141.5280   79.6660  223.1610 C   0  0  0  0  0  0  0  0  0  0  0  0
  141.6400   80.7970  223.9050 N   0  0  0  0  0  0  0  0  0  0  0  0
  142.9190   81.2430  223.8940 C   0  0  0  0  0  0  0  0  0  0  0  0
  143.6110   80.3370  223.1060 C   0  0  0  0  0  0  0  0  0  0  0  0
  142.7640   79.3750  222.6570 N   0  0  0  0  0  0  0  0  0  0  0  0
  140.3330   77.6130  222.5340 C   0  0  0  0  0  0  0  0  0  0  0  0
  139.1430   76.9030  222.3430 C   0  0  0  0  0  0  0  0  0  0  0  0
  140.1660   71.2070  223.5600 C   0  0  0  0  0  0  0  0  0  0  0  0
  139.6010   69.9520  223.5280 C   0  0  0  0  0  0  0  0  0  0  0  0
  139.5070   69.1270  224.6280 C   0  0  0  0  0  0  0  0  0  0  0  0
  140.0090   69.5860  225.8340 C   0  0  0  0  0  0  0  0  0  0  0  0
  139.9250   68.7860  226.9360 C   0  0  0  0  0  0  0  0  0  0  0  0
  140.4350   69.2630  228.1470 C   0  0  0  0  0  0  0  0  0  0  0  0
  140.3670   68.4880  229.2570 F   0  0  0  0  0  0  0  0  0  0  0  0
  141.0060   70.5180  228.2060 C   0  0  0  0  0  0  0  0  0  0  0  0
  141.0760   71.3050  227.0720 C   0  0  0  0  0  0  0  0  0  0  0  0
  140.5770   70.8600  225.8510 C   0  0  0  0  0  0  0  0  0  0  0  0
  140.6440   71.6280  224.7440 N   0  0  0  0  0  0  0  0  0  0  0  0
  139.3960   73.7910  223.1560 H   0  0  0  0  0  0  0  0  0  0  0  0
  140.2769   75.0789  221.1995 H   0  0  0  0  0  0  0  0  0  0  0  0
  140.5273   73.5099  220.3419 H   0  0  0  0  0  0  0  0  0  0  0  0
  136.5819   71.8997  219.2716 H   0  0  0  0  0  0  0  0  0  0  0  0
  138.2888   71.5648  219.4246 H   0  0  0  0  0  0  0  0  0  0  0  0
  136.1898   70.3777  220.9651 H   0  0  0  0  0  0  0  0  0  0  0  0
  137.9081   70.2775  221.3828 H   0  0  0  0  0  0  0  0  0  0  0  0
  135.9961   71.5566  222.9910 H   0  0  0  0  0  0  0  0  0  0  0  0
  137.6735   71.9929  223.0737 H   0  0  0  0  0  0  0  0  0  0  0  0
  135.4603   73.2674  221.2471 H   0  0  0  0  0  0  0  0  0  0  0  0
  135.7105   74.3679  223.2260 H   0  0  0  0  0  0  0  0  0  0  0  0
  137.5227   74.3463  223.0639 H   0  0  0  0  0  0  0  0  0  0  0  0
  136.4970   75.5650  220.7880 H   0  0  0  0  0  0  0  0  0  0  0  0
  135.9515   77.5144  221.9284 H   0  0  0  0  0  0  0  0  0  0  0  0
  136.3989   76.5628  223.5029 H   0  0  0  0  0  0  0  0  0  0  0  0
  136.9058   79.3551  223.2168 H   0  0  0  0  0  0  0  0  0  0  0  0
  139.0358   80.5691  223.5422 H   0  0  0  0  0  0  0  0  0  0  0  0
  143.3215   82.1323  224.4011 H   0  0  0  0  0  0  0  0  0  0  0  0
  144.6859   80.3893  222.8782 H   0  0  0  0  0  0  0  0  0  0  0  0
  143.0090   78.5530  222.0360 H   0  0  0  0  0  0  0  0  0  0  0  0
  141.3021   77.1287  222.3437 H   0  0  0  0  0  0  0  0  0  0  0  0
  139.1746   75.8579  222.0013 H   0  0  0  0  0  0  0  0  0  0  0  0
  139.2019   69.5870  222.5701 H   0  0  0  0  0  0  0  0  0  0  0  0
  139.0459   68.1314  224.5500 H   0  0  0  0  0  0  0  0  0  0  0  0
  139.4663   67.7882  226.8730 H   0  0  0  0  0  0  0  0  0  0  0  0
  141.4069   70.8934  229.1591 H   0  0  0  0  0  0  0  0  0  0  0  0
  141.5351   72.3026  227.1355 H   0  0  0  0  0  0  0  0  0  0  0  0
  1  2  2  0
  2  3  1  0
  3  4  1  0
  4  5  1  0
  5  6  2  0
  5  7  1  0
  7  8  1  0
  8  9  1  0
  9 10  1  0
 10 11  1  0
 11 12  1  0
 12 13  1  0
 13 14  1  0
 14 15  1  0
 15 16  2  0
 16 17  1  0
 17 18  2  0
 18 19  1  0
 19 20  2  0
 20 21  1  0
 21 22  2  0
 22 23  1  0
 18 24  1  0
 24 25  2  0
  2 26  1  0
 26 27  2  0
 27 28  1  0
 28 29  2  0
 29 30  1  0
 30 31  2  0
 31 32  1  0
 31 33  1  0
 33 34  2  0
 34 35  1  0
 35 36  2  0
 11  7  1  0
 25 15  1  0
 36 26  1  0
 23 19  1  0
 35 29  1  0
  3 37  1  0
  4 38  1  0
  4 39  1  0
  8 40  1  0
  8 41  1  0
  9 42  1  0
  9 43  1  0
 10 44  1  0
 10 45  1  0
 11 46  1  6
 12 47  1  0
 12 48  1  0
 13 49  1  0
 14 50  1  0
 14 51  1  0
 16 52  1  0
 17 53  1  0
 21 54  1  0
 22 55  1  0
 23 56  1  0
 24 57  1  0
 25 58  1  0
 27 59  1  0
 28 60  1  0
 30 61  1  0
 33 62  1  0
 34 63  1  0
M  END
>  <smiles>  (38) 
O=C(NCC(=O)N1CCC[C@H]1CNCc1ccc(-c2ncc[nH]2)cc1)c1ccc2cc(F)ccc2n1

>  <score_type>  (38) 
oracle

>  <origin>  (38) 
autodockgpu

>  <m_score__min__energy>  (38) 
-9.5700000000000003

>  <m_primary>  (38) 
energy

>  <rmsd>  (38) 
4.129573150131466

>  <m_score__min__rmsd>  (38) 
4.129573150131466

>  <meeko>  (38) 
{"free_energy": -8.22, "intermolecular_energy": -10.9, "internal_energy": -3.03, "cluster_size": 16, "cluster_id": 3, "rank_in_cluster": 9}

>  <energy>  (38) 
-6.49

>  <cluster_rmsd>  (38) 
1.38

>  <cluster>  (38) 
11

$$$$

     RDKit          3D

 63 67  0  0  0  0  0  0  0  0999 V2000
  139.3320   70.6770  221.2410 O   0  0  0  0  0  0  0  0  0  0  0  0
  139.1900   71.4730  222.2320 C   0  0  0  0  0  0  0  0  0  0  0  0
  138.6020   72.7390  222.0030 N   0  0  0  0  0  0  0  0  0  0  0  0
  138.1820   73.0750  220.6390 C   0  0  0  0  0  0  0  0  0  0  0  0
  139.0650   74.1180  220.0590 C   0  0  0  0  0  0  0  0  0  0  0  0
  139.7800   73.8010  219.0740 O   0  0  0  0  0  0  0  0  0  0  0  0
  139.0540   75.4090  220.6450 N   0  0  0  0  0  0  0  0  0  0  0  0
  137.9760   76.3970  220.6770 C   0  0  0  0  0  0  0  0  0  0  0  0
  138.0730   76.9360  222.0970 C   0  0  0  0  0  0  0  0  0  0  0  0
  139.3850   76.3850  222.6700 C   0  0  0  0  0  0  0  0  0  0  0  0
  140.1450   76.0770  221.3850 C   0  0  1  0  0  0  0  0  0  0  0  0
  141.2990   75.1770  221.6090 C   0  0  0  0  0  0  0  0  0  0  0  0
  141.9900   74.8770  220.4190 N   0  0  0  0  0  0  0  0  0  0  0  0
  143.3310   74.5180  220.4310 C   0  0  0  0  0  0  0  0  0  0  0  0
  143.7590   73.1410  220.1900 C   0  0  0  0  0  0  0  0  0  0  0  0
  142.7820   72.1430  220.2850 C   0  0  0  0  0  0  0  0  0  0  0  0
  143.1440   70.8400  220.0130 C   0  0  0  0  0  0  0  0  0  0  0  0
  144.4330   70.4890  219.6550 C   0  0  0  0  0  0  0  0  0  0  0  0
  144.7820   69.1010  219.3770 C   0  0  0  0  0  0  0  0  0  0  0  0
  145.9150   68.4910  219.8130 N   0  0  0  0  0  0  0  0  0  0  0  0
  145.9490   67.2040  219.3920 C   0  0  0  0  0  0  0  0  0  0  0  0
  144.7810   67.0300  218.6680 C   0  0  0  0  0  0  0  0  0  0  0  0
  144.0680   68.1850  218.6570 N   0  0  0  0  0  0  0  0  0  0  0  0
  145.4060   71.4700  219.5590 C   0  0  0  0  0  0  0  0  0  0  0  0
  145.0750   72.8030  219.8260 C   0  0  0  0  0  0  0  0  0  0  0  0
  139.6400   71.0370  223.5520 C   0  0  0  0  0  0  0  0  0  0  0  0
  140.4060   71.8760  224.3280 C   0  0  0  0  0  0  0  0  0  0  0  0
  140.8750   71.5440  225.5810 C   0  0  0  0  0  0  0  0  0  0  0  0
  140.5570   70.2960  226.0880 C   0  0  0  0  0  0  0  0  0  0  0  0
  141.0100   69.9460  227.3270 C   0  0  0  0  0  0  0  0  0  0  0  0
  140.6820   68.6830  227.8260 C   0  0  0  0  0  0  0  0  0  0  0  0
  141.1180   68.3100  229.0530 F   0  0  0  0  0  0  0  0  0  0  0  0
  139.9150   67.8230  227.0670 C   0  0  0  0  0  0  0  0  0  0  0  0
  139.4690   68.2050  225.8160 C   0  0  0  0  0  0  0  0  0  0  0  0
  139.7800   69.4560  225.2900 C   0  0  0  0  0  0  0  0  0  0  0  0
  139.3460   69.8310  224.0690 N   0  0  0  0  0  0  0  0  0  0  0  0
  138.4870   73.3910  222.8010 H   0  0  0  0  0  0  0  0  0  0  0  0
  138.2313   72.1716  220.0133 H   0  0  0  0  0  0  0  0  0  0  0  0
  137.1527   73.4616  220.6715 H   0  0  0  0  0  0  0  0  0  0  0  0
  138.1429   77.1930  219.9364 H   0  0  0  0  0  0  0  0  0  0  0  0
  136.9885   75.9799  220.4304 H   0  0  0  0  0  0  0  0  0  0  0  0
  138.0920   78.0358  222.0878 H   0  0  0  0  0  0  0  0  0  0  0  0
  137.2083   76.6297  222.7040 H   0  0  0  0  0  0  0  0  0  0  0  0
  139.9080   77.1358  223.2805 H   0  0  0  0  0  0  0  0  0  0  0  0
  139.2636   75.5262  223.3465 H   0  0  0  0  0  0  0  0  0  0  0  0
  140.6064   76.9425  220.8870 H   0  0  0  0  0  0  0  0  0  0  0  0
  141.9953   75.6639  222.3077 H   0  0  0  0  0  0  0  0  0  0  0  0
  140.9107   74.2319  222.0164 H   0  0  0  0  0  0  0  0  0  0  0  0
  141.4620   74.8600  219.5380 H   0  0  0  0  0  0  0  0  0  0  0  0
  143.8232   75.1339  219.6639 H   0  0  0  0  0  0  0  0  0  0  0  0
  143.6045   74.6675  221.4859 H   0  0  0  0  0  0  0  0  0  0  0  0
  141.7492   72.3921  220.5700 H   0  0  0  0  0  0  0  0  0  0  0  0
  142.3800   70.0517  220.0834 H   0  0  0  0  0  0  0  0  0  0  0  0
  146.7345   66.4582  219.5837 H   0  0  0  0  0  0  0  0  0  0  0  0
  144.4765   66.0949  218.1752 H   0  0  0  0  0  0  0  0  0  0  0  0
  143.1350   68.3520  218.1840 H   0  0  0  0  0  0  0  0  0  0  0  0
  146.4342   71.2024  219.2742 H   0  0  0  0  0  0  0  0  0  0  0  0
  145.8436   73.5864  219.7513 H   0  0  0  0  0  0  0  0  0  0  0  0
  140.6586   72.8681  223.9257 H   0  0  0  0  0  0  0  0  0  0  0  0
  141.4851   72.2514  226.1619 H   0  0  0  0  0  0  0  0  0  0  0  0
  141.6201   70.6433  227.9199 H   0  0  0  0  0  0  0  0  0  0  0  0
  139.6572   66.8283  227.4597 H   0  0  0  0  0  0  0  0  0  0  0  0
  138.8570   67.5078  225.2249 H   0  0  0  0  0  0  0  0  0  0  0  0
  1  2  2  0
  2  3  1  0
  3  4  1  0
  4  5  1  0
  5  6  2  0
  5  7  1  0
  7  8  1  0
  8  9  1  0
  9 10  1  0
 10 11  1  0
 11 12  1  0
 12 13  1  0
 13 14  1  0
 14 15  1  0
 15 16  2  0
 16 17  1  0
 17 18  2  0
 18 19  1  0
 19 20  2  0
 20 21  1  0
 21 22  2  0
 22 23  1  0
 18 24  1  0
 24 25  2  0
  2 26  1  0
 26 27  2  0
 27 28  1  0
 28 29  2  0
 29 30  1  0
 30 31  2  0
 31 32  1  0
 31 33  1  0
 33 34  2  0
 34 35  1  0
 35 36  2  0
 11  7  1  0
 25 15  1  0
 36 26  1  0
 23 19  1  0
 35 29  1  0
  3 37  1  0
  4 38  1  0
  4 39  1  0
  8 40  1  0
  8 41  1  0
  9 42  1  0
  9 43  1  0
 10 44  1  0
 10 45  1  0
 11 46  1  6
 12 47  1  0
 12 48  1  0
 13 49  1  0
 14 50  1  0
 14 51  1  0
 16 52  1  0
 17 53  1  0
 21 54  1  0
 22 55  1  0
 23 56  1  0
 24 57  1  0
 25 58  1  0
 27 59  1  0
 28 60  1  0
 30 61  1  0
 33 62  1  0
 34 63  1  0
M  END
>  <smiles>  (39) 
O=C(NCC(=O)N1CCC[C@H]1CNCc1ccc(-c2ncc[nH]2)cc1)c1ccc2cc(F)ccc2n1

>  <score_type>  (39) 
oracle

>  <origin>  (39) 
autodockgpu

>  <m_score__min__energy>  (39) 
-9.5700000000000003

>  <m_primary>  (39) 
energy

>  <rmsd>  (39) 
5.7243459385145306

>  <m_score__min__rmsd>  (39) 
5.7243459385145306

>  <meeko>  (39) 
{"free_energy": -8.23, "intermolecular_energy": -10.91, "internal_energy": -2.79, "cluster_size": 5, "cluster_id": 1, "rank_in_cluster": 5}

>  <energy>  (39) 
-6.79

>  <cluster_rmsd>  (39) 
0.0

>  <cluster>  (39) 
12

$$$$

     RDKit          3D

 63 67  0  0  0  0  0  0  0  0999 V2000
  139.9490   73.0060  222.7080 O   0  0  0  0  0  0  0  0  0  0  0  0
  139.8710   71.7370  222.8430 C   0  0  0  0  0  0  0  0  0  0  0  0
  139.5200   70.9570  221.7170 N   0  0  0  0  0  0  0  0  0  0  0  0
  139.2660   71.6450  220.4470 C   0  0  0  0  0  0  0  0  0  0  0  0
  137.8080   71.7490  220.1880 C   0  0  0  0  0  0  0  0  0  0  0  0
  137.4390   72.0880  219.0350 O   0  0  0  0  0  0  0  0  0  0  0  0
  136.9160   71.4620  221.2520 N   0  0  0  0  0  0  0  0  0  0  0  0
  136.5920   70.1700  221.8600 C   0  0  0  0  0  0  0  0  0  0  0  0
  136.5350   70.5160  223.3410 C   0  0  0  0  0  0  0  0  0  0  0  0
  136.5730   72.0470  223.4190 C   0  0  0  0  0  0  0  0  0  0  0  0
  136.0870   72.4130  222.0210 C   0  0  1  0  0  0  0  0  0  0  0  0
  136.3810   73.8200  221.6670 C   0  0  0  0  0  0  0  0  0  0  0  0
  137.6810   74.2110  222.0400 N   0  0  0  0  0  0  0  0  0  0  0  0
  138.4550   75.0250  221.2240 C   0  0  0  0  0  0  0  0  0  0  0  0
  139.1460   76.2030  221.7470 C   0  0  0  0  0  0  0  0  0  0  0  0
  140.4690   76.4020  221.3370 C   0  0  0  0  0  0  0  0  0  0  0  0
  141.1300   77.5310  221.7740 C   0  0  0  0  0  0  0  0  0  0  0  0
  140.5330   78.4650  222.6000 C   0  0  0  0  0  0  0  0  0  0  0  0
  141.2630   79.6470  223.0460 C   0  0  0  0  0  0  0  0  0  0  0  0
  142.3550   79.6160  223.8520 N   0  0  0  0  0  0  0  0  0  0  0  0
  142.8040   80.8730  224.0840 C   0  0  0  0  0  0  0  0  0  0  0  0
  141.9420   81.7000  223.3830 C   0  0  0  0  0  0  0  0  0  0  0  0
  141.0010   80.9540  222.7490 N   0  0  0  0  0  0  0  0  0  0  0  0
  139.2240   78.2750  223.0110 C   0  0  0  0  0  0  0  0  0  0  0  0
  138.5220   77.1430  222.5870 C   0  0  0  0  0  0  0  0  0  0  0  0
  140.1490   71.1520  224.1540 C   0  0  0  0  0  0  0  0  0  0  0  0
  140.6900   71.9300  225.1520 C   0  0  0  0  0  0  0  0  0  0  0  0
  140.9860   71.4600  226.4130 C   0  0  0  0  0  0  0  0  0  0  0  0
  140.7240   70.1290  226.6930 C   0  0  0  0  0  0  0  0  0  0  0  0
  141.0090   69.6430  227.9350 C   0  0  0  0  0  0  0  0  0  0  0  0
  140.7390   68.2980  228.2040 C   0  0  0  0  0  0  0  0  0  0  0  0
  141.0120   67.7890  229.4300 F   0  0  0  0  0  0  0  0  0  0  0  0
  140.1960   67.4970  227.2200 C   0  0  0  0  0  0  0  0  0  0  0  0
  139.9180   68.0190  225.9710 C   0  0  0  0  0  0  0  0  0  0  0  0
  140.1750   69.3540  225.6720 C   0  0  0  0  0  0  0  0  0  0  0  0
  139.9040   69.8640  224.4530 N   0  0  0  0  0  0  0  0  0  0  0  0
  139.4520   69.9270  221.8200 H   0  0  0  0  0  0  0  0  0  0  0  0
  139.6977   72.6558  220.4915 H   0  0  0  0  0  0  0  0  0  0  0  0
  139.7290   71.0672  219.6335 H   0  0  0  0  0  0  0  0  0  0  0  0
  135.6232   69.7923  221.5012 H   0  0  0  0  0  0  0  0  0  0  0  0
  137.3142   69.3758  221.6199 H   0  0  0  0  0  0  0  0  0  0  0  0
  135.6053   70.1335  223.7874 H   0  0  0  0  0  0  0  0  0  0  0  0
  137.3720   70.0635  223.8930 H   0  0  0  0  0  0  0  0  0  0  0  0
  135.8961   72.4302  224.1968 H   0  0  0  0  0  0  0  0  0  0  0  0
  137.5542   72.4665  223.6858 H   0  0  0  0  0  0  0  0  0  0  0  0
  135.0006   72.3458  221.8625 H   0  0  0  0  0  0  0  0  0  0  0  0
  136.2758   73.9390  220.5785 H   0  0  0  0  0  0  0  0  0  0  0  0
  135.6710   74.4571  222.2148 H   0  0  0  0  0  0  0  0  0  0  0  0
  138.0270   73.9410  222.9690 H   0  0  0  0  0  0  0  0  0  0  0  0
  139.2315   74.3785  220.7893 H   0  0  0  0  0  0  0  0  0  0  0  0
  137.7026   75.4716  220.5573 H   0  0  0  0  0  0  0  0  0  0  0  0
  140.9703   75.6748  220.6813 H   0  0  0  0  0  0  0  0  0  0  0  0
  142.1696   77.6940  221.4537 H   0  0  0  0  0  0  0  0  0  0  0  0
  143.6670   81.1723  224.6969 H   0  0  0  0  0  0  0  0  0  0  0  0
  142.0096   82.7973  223.3455 H   0  0  0  0  0  0  0  0  0  0  0  0
  140.2120   81.3120  222.1400 H   0  0  0  0  0  0  0  0  0  0  0  0
  138.7389   79.0117  223.6682 H   0  0  0  0  0  0  0  0  0  0  0  0
  137.4821   76.9874  222.9101 H   0  0  0  0  0  0  0  0  0  0  0  0
  140.8980   72.9872  224.9304 H   0  0  0  0  0  0  0  0  0  0  0  0
  141.4185   72.1236  227.1763 H   0  0  0  0  0  0  0  0  0  0  0  0
  141.4418   70.2950  228.7081 H   0  0  0  0  0  0  0  0  0  0  0  0
  139.9836   66.4385  227.4308 H   0  0  0  0  0  0  0  0  0  0  0  0
  139.4852   67.3669  225.1981 H   0  0  0  0  0  0  0  0  0  0  0  0
  1  2  2  0
  2  3  1  0
  3  4  1  0
  4  5  1  0
  5  6  2  0
  5  7  1  0
  7  8  1  0
  8  9  1  0
  9 10  1  0
 10 11  1  0
 11 12  1  0
 12 13  1  0
 13 14  1  0
 14 15  1  0
 15 16  2  0
 16 17  1  0
 17 18  2  0
 18 19  1  0
 19 20  2  0
 20 21  1  0
 21 22  2  0
 22 23  1  0
 18 24  1  0
 24 25  2  0
  2 26  1  0
 26 27  2  0
 27 28  1  0
 28 29  2  0
 29 30  1  0
 30 31  2  0
 31 32  1  0
 31 33  1  0
 33 34  2  0
 34 35  1  0
 35 36  2  0
 11  7  1  0
 25 15  1  0
 36 26  1  0
 23 19  1  0
 35 29  1  0
  3 37  1  0
  4 38  1  0
  4 39  1  0
  8 40  1  0
  8 41  1  0
  9 42  1  0
  9 43  1  0
 10 44  1  0
 10 45  1  0
 11 46  1  1
 12 47  1  0
 12 48  1  0
 13 49  1  0
 14 50  1  0
 14 51  1  0
 16 52  1  0
 17 53  1  0
 21 54  1  0
 22 55  1  0
 23 56  1  0
 24 57  1  0
 25 58  1  0
 27 59  1  0
 28 60  1  0
 30 61  1  0
 33 62  1  0
 34 63  1  0
M  END
>  <smiles>  (40) 
O=C(NCC(=O)N1CCC[C@H]1CNCc1ccc(-c2ncc[nH]2)cc1)c1ccc2cc(F)ccc2n1

>  <score_type>  (40) 
oracle

>  <origin>  (40) 
autodockgpu

>  <m_score__min__energy>  (40) 
-9.5700000000000003

>  <m_primary>  (40) 
energy

>  <rmsd>  (40) 
5.265127505336753

>  <m_score__min__rmsd>  (40) 
5.265127505336753

>  <meeko>  (40) 
{"free_energy": -8.16, "intermolecular_energy": -10.85, "internal_energy": -3.26, "cluster_size": 16, "cluster_id": 3, "rank_in_cluster": 11}

>  <energy>  (40) 
-6.62

>  <cluster_rmsd>  (40) 
0.0

>  <cluster>  (40) 
13

$$$$

     RDKit          3D

 63 67  0  0  0  0  0  0  0  0999 V2000
  138.7430   70.5500  221.3890 O   0  0  0  0  0  0  0  0  0  0  0  0
  138.5270   71.2820  222.4150 C   0  0  0  0  0  0  0  0  0  0  0  0
  137.6830   72.4080  222.2760 N   0  0  0  0  0  0  0  0  0  0  0  0
  137.0940   72.6780  220.9610 C   0  0  0  0  0  0  0  0  0  0  0  0
  135.6160   72.7890  221.0590 C   0  0  0  0  0  0  0  0  0  0  0  0
  134.9800   71.7920  221.4880 O   0  0  0  0  0  0  0  0  0  0  0  0
  135.0060   74.0070  220.6660 N   0  0  0  0  0  0  0  0  0  0  0  0
  134.4300   74.3720  219.3710 C   0  0  0  0  0  0  0  0  0  0  0  0
  133.1750   75.1290  219.7780 C   0  0  0  0  0  0  0  0  0  0  0  0
  133.2890   75.3550  221.2910 C   0  0  0  0  0  0  0  0  0  0  0  0
  134.7950   75.2190  221.4820 C   0  0  1  0  0  0  0  0  0  0  0  0
  135.1710   75.0090  222.8990 C   0  0  0  0  0  0  0  0  0  0  0  0
  136.5650   75.0030  223.0930 N   0  0  0  0  0  0  0  0  0  0  0  0
  137.4350   75.4710  222.1160 C   0  0  0  0  0  0  0  0  0  0  0  0
  138.4350   76.4960  222.4070 C   0  0  0  0  0  0  0  0  0  0  0  0
  139.7800   76.1200  222.3160 C   0  0  0  0  0  0  0  0  0  0  0  0
  140.7470   77.0780  222.5360 C   0  0  0  0  0  0  0  0  0  0  0  0
  140.4340   78.3900  222.8440 C   0  0  0  0  0  0  0  0  0  0  0  0
  141.4830   79.3770  223.0730 C   0  0  0  0  0  0  0  0  0  0  0  0
  141.3570   80.4570  223.8860 N   0  0  0  0  0  0  0  0  0  0  0  0
  142.5010   81.1810  223.8890 C   0  0  0  0  0  0  0  0  0  0  0  0
  143.3590   80.5040  223.0370 C   0  0  0  0  0  0  0  0  0  0  0  0
  142.7390   79.4040  222.5380 N   0  0  0  0  0  0  0  0  0  0  0  0
  139.1060   78.7700  222.9370 C   0  0  0  0  0  0  0  0  0  0  0  0
  138.0970   77.8260  222.7190 C   0  0  0  0  0  0  0  0  0  0  0  0
  139.1610   70.9210  223.6810 C   0  0  0  0  0  0  0  0  0  0  0  0
  140.0410   71.7920  224.2820 C   0  0  0  0  0  0  0  0  0  0  0  0
  140.6850   71.5300  225.4720 C   0  0  0  0  0  0  0  0  0  0  0  0
  140.4330   70.3220  226.1000 C   0  0  0  0  0  0  0  0  0  0  0  0
  141.0600   70.0410  227.2780 C   0  0  0  0  0  0  0  0  0  0  0  0
  140.7960   68.8180  227.9000 C   0  0  0  0  0  0  0  0  0  0  0  0
  141.4050   68.5140  229.0720 F   0  0  0  0  0  0  0  0  0  0  0  0
  139.9190   67.9270  227.3180 C   0  0  0  0  0  0  0  0  0  0  0  0
  139.2980   68.2390  226.1230 C   0  0  0  0  0  0  0  0  0  0  0  0
  139.5400   69.4490  225.4780 C   0  0  0  0  0  0  0  0  0  0  0  0
  138.9350   69.7540  224.3110 N   0  0  0  0  0  0  0  0  0  0  0  0
  137.5060   73.0080  223.1040 H   0  0  0  0  0  0  0  0  0  0  0  0
  137.5016   73.6219  220.5700 H   0  0  0  0  0  0  0  0  0  0  0  0
  137.3415   71.8458  220.2856 H   0  0  0  0  0  0  0  0  0  0  0  0
  135.1143   75.0141  218.7971 H   0  0  0  0  0  0  0  0  0  0  0  0
  134.2324   73.5096  218.7173 H   0  0  0  0  0  0  0  0  0  0  0  0
  133.1222   76.0929  219.2506 H   0  0  0  0  0  0  0  0  0  0  0  0
  132.2648   74.5668  219.5222 H   0  0  0  0  0  0  0  0  0  0  0  0
  132.9320   76.3546  221.5799 H   0  0  0  0  0  0  0  0  0  0  0  0
  132.6864   74.6677  221.9029 H   0  0  0  0  0  0  0  0  0  0  0  0
  135.3911   76.0997  221.2010 H   0  0  0  0  0  0  0  0  0  0  0  0
  134.7345   75.8180  223.5031 H   0  0  0  0  0  0  0  0  0  0  0  0
  134.7876   74.0239  223.2034 H   0  0  0  0  0  0  0  0  0  0  0  0
  136.9320   74.7080  224.0060 H   0  0  0  0  0  0  0  0  0  0  0  0
  137.9883   74.5942  221.7484 H   0  0  0  0  0  0  0  0  0  0  0  0
  136.7553   75.9948  221.4278 H   0  0  0  0  0  0  0  0  0  0  0  0
  140.0593   75.0838  222.0745 H   0  0  0  0  0  0  0  0  0  0  0  0
  141.8058   76.7886  222.4640 H   0  0  0  0  0  0  0  0  0  0  0  0
  142.7053   82.1066  224.4471 H   0  0  0  0  0  0  0  0  0  0  0  0
  144.3882   80.8117  222.8004 H   0  0  0  0  0  0  0  0  0  0  0  0
  143.1470   78.6970  221.8620 H   0  0  0  0  0  0  0  0  0  0  0  0
  138.8453   79.8103  223.1814 H   0  0  0  0  0  0  0  0  0  0  0  0
  137.0403   78.1230  222.7914 H   0  0  0  0  0  0  0  0  0  0  0  0
  140.2418   72.7521  223.7841 H   0  0  0  0  0  0  0  0  0  0  0  0
  141.3803   72.2607  225.9109 H   0  0  0  0  0  0  0  0  0  0  0  0
  141.7584   70.7615  227.7287 H   0  0  0  0  0  0  0  0  0  0  0  0
  139.7126   66.9635  227.8069 H   0  0  0  0  0  0  0  0  0  0  0  0
  138.5996   67.5179  225.6733 H   0  0  0  0  0  0  0  0  0  0  0  0
  1  2  2  0
  2  3  1  0
  3  4  1  0
  4  5  1  0
  5  6  2  0
  5  7  1  0
  7  8  1  0
  8  9  1  0
  9 10  1  0
 10 11  1  0
 11 12  1  0
 12 13  1  0
 13 14  1  0
 14 15  1  0
 15 16  2  0
 16 17  1  0
 17 18  2  0
 18 19  1  0
 19 20  2  0
 20 21  1  0
 21 22  2  0
 22 23  1  0
 18 24  1  0
 24 25  2  0
  2 26  1  0
 26 27  2  0
 27 28  1  0
 28 29  2  0
 29 30  1  0
 30 31  2  0
 31 32  1  0
 31 33  1  0
 33 34  2  0
 34 35  1  0
 35 36  2  0
 11  7  1  0
 25 15  1  0
 36 26  1  0
 23 19  1  0
 35 29  1  0
  3 37  1  0
  4 38  1  0
  4 39  1  0
  8 40  1  0
  8 41  1  0
  9 42  1  0
  9 43  1  0
 10 44  1  0
 10 45  1  0
 11 46  1  6
 12 47  1  0
 12 48  1  0
 13 49  1  0
 14 50  1  0
 14 51  1  0
 16 52  1  0
 17 53  1  0
 21 54  1  0
 22 55  1  0
 23 56  1  0
 24 57  1  0
 25 58  1  0
 27 59  1  0
 28 60  1  0
 30 61  1  0
 33 62  1  0
 34 63  1  0
M  END
>  <smiles>  (41) 
O=C(NCC(=O)N1CCC[C@H]1CNCc1ccc(-c2ncc[nH]2)cc1)c1ccc2cc(F)ccc2n1

>  <score_type>  (41) 
oracle

>  <origin>  (41) 
autodockgpu

>  <m_score__min__energy>  (41) 
-9.5700000000000003

>  <m_primary>  (41) 
energy

>  <rmsd>  (41) 
4.912993176800401

>  <m_score__min__rmsd>  (41) 
4.912993176800401

>  <meeko>  (41) 
{"free_energy": -8.25, "intermolecular_energy": -10.94, "internal_energy": -2.33, "cluster_size": 16, "cluster_id": 3, "rank_in_cluster": 8}

>  <energy>  (41) 
-6.45

>  <cluster_rmsd>  (41) 
1.06

>  <cluster>  (41) 
13

$$$$

     RDKit          3D

 63 67  0  0  0  0  0  0  0  0999 V2000
  140.6550   77.9020  217.3050 O   0  0  0  0  0  0  0  0  0  0  0  0
  141.5970   77.7650  218.1590 C   0  0  0  0  0  0  0  0  0  0  0  0
  142.5160   76.7050  217.9860 N   0  0  0  0  0  0  0  0  0  0  0  0
  142.3450   75.8150  216.8340 C   0  0  0  0  0  0  0  0  0  0  0  0
  143.0920   74.5470  217.0330 C   0  0  0  0  0  0  0  0  0  0  0  0
  142.5980   73.6900  217.8100 O   0  0  0  0  0  0  0  0  0  0  0  0
  144.3160   74.3730  216.3390 N   0  0  0  0  0  0  0  0  0  0  0  0
  145.0650   75.3410  215.5360 C   0  0  0  0  0  0  0  0  0  0  0  0
  146.5030   75.0540  215.9440 C   0  0  0  0  0  0  0  0  0  0  0  0
  146.4610   73.7550  216.7570 C   0  0  0  0  0  0  0  0  0  0  0  0
  145.1500   73.1560  216.2630 C   0  0  1  0  0  0  0  0  0  0  0  0
  144.6460   72.0810  217.1480 C   0  0  0  0  0  0  0  0  0  0  0  0
  145.6270   71.6140  218.0440 N   0  0  0  0  0  0  0  0  0  0  0  0
  145.5890   71.9400  219.3930 C   0  0  0  0  0  0  0  0  0  0  0  0
  144.4320   72.6070  219.9900 C   0  0  0  0  0  0  0  0  0  0  0  0
  144.4580   74.0050  220.0400 C   0  0  0  0  0  0  0  0  0  0  0  0
  143.3600   74.6640  220.5520 C   0  0  0  0  0  0  0  0  0  0  0  0
  142.2430   73.9940  221.0150 C   0  0  0  0  0  0  0  0  0  0  0  0
  141.0990   74.7240  221.5510 C   0  0  0  0  0  0  0  0  0  0  0  0
  139.8890   74.1680  221.8170 N   0  0  0  0  0  0  0  0  0  0  0  0
  139.0390   75.1010  222.3060 C   0  0  0  0  0  0  0  0  0  0  0  0
  139.7720   76.2770  222.3370 C   0  0  0  0  0  0  0  0  0  0  0  0
  141.0290   76.0490  221.8760 N   0  0  0  0  0  0  0  0  0  0  0  0
  142.2090   72.6100  220.9680 C   0  0  0  0  0  0  0  0  0  0  0  0
  143.3040   71.9070  220.4550 C   0  0  0  0  0  0  0  0  0  0  0  0
  141.6800   78.7110  219.2700 C   0  0  0  0  0  0  0  0  0  0  0  0
  141.6420   80.0650  219.0230 C   0  0  0  0  0  0  0  0  0  0  0  0
  141.7180   81.0240  220.0100 C   0  0  0  0  0  0  0  0  0  0  0  0
  141.8380   80.6040  221.3240 C   0  0  0  0  0  0  0  0  0  0  0  0
  141.9150   81.5370  222.3160 C   0  0  0  0  0  0  0  0  0  0  0  0
  142.0360   81.0980  223.6370 C   0  0  0  0  0  0  0  0  0  0  0  0
  142.1130   82.0030  224.6420 F   0  0  0  0  0  0  0  0  0  0  0  0
  142.0760   79.7460  223.9110 C   0  0  0  0  0  0  0  0  0  0  0  0
  141.9960   78.8240  222.8840 C   0  0  0  0  0  0  0  0  0  0  0  0
  141.8750   79.2290  221.5570 C   0  0  0  0  0  0  0  0  0  0  0  0
  141.7970   78.3300  220.5540 N   0  0  0  0  0  0  0  0  0  0  0  0
  143.2810   76.5860  218.6770 H   0  0  0  0  0  0  0  0  0  0  0  0
  141.2759   75.5882  216.7089 H   0  0  0  0  0  0  0  0  0  0  0  0
  142.7365   76.3185  215.9378 H   0  0  0  0  0  0  0  0  0  0  0  0
  144.9138   75.1685  214.4602 H   0  0  0  0  0  0  0  0  0  0  0  0
  144.7586   76.3842  215.7033 H   0  0  0  0  0  0  0  0  0  0  0  0
  147.1349   74.9266  215.0527 H   0  0  0  0  0  0  0  0  0  0  0  0
  146.9282   75.8822  216.5299 H   0  0  0  0  0  0  0  0  0  0  0  0
  147.3169   73.1040  216.5256 H   0  0  0  0  0  0  0  0  0  0  0  0
  146.5172   73.8958  217.8465 H   0  0  0  0  0  0  0  0  0  0  0  0
  145.1948   72.6610  215.2817 H   0  0  0  0  0  0  0  0  0  0  0  0
  143.7963   72.4709  217.7276 H   0  0  0  0  0  0  0  0  0  0  0  0
  144.3476   71.2361  216.5100 H   0  0  0  0  0  0  0  0  0  0  0  0
  146.3410   70.9640  217.6940 H   0  0  0  0  0  0  0  0  0  0  0  0
  145.7202   70.9965  219.9432 H   0  0  0  0  0  0  0  0  0  0  0  0
  146.3696   72.7112  219.4698 H   0  0  0  0  0  0  0  0  0  0  0  0
  145.3334   74.5652  219.6795 H   0  0  0  0  0  0  0  0  0  0  0  0
  143.3736   75.7631  220.5935 H   0  0  0  0  0  0  0  0  0  0  0  0
  137.9925   74.9570  222.6126 H   0  0  0  0  0  0  0  0  0  0  0  0
  139.3924   77.2496  222.6833 H   0  0  0  0  0  0  0  0  0  0  0  0
  141.8100   76.7580  221.7850 H   0  0  0  0  0  0  0  0  0  0  0  0
  141.3249   72.0663  221.3324 H   0  0  0  0  0  0  0  0  0  0  0  0
  143.2831   70.8079  220.4152 H   0  0  0  0  0  0  0  0  0  0  0  0
  141.5456   80.4000  217.9797 H   0  0  0  0  0  0  0  0  0  0  0  0
  141.6842   82.0948  219.7605 H   0  0  0  0  0  0  0  0  0  0  0  0
  141.8825   82.6112  222.0813 H   0  0  0  0  0  0  0  0  0  0  0  0
  142.1720   79.4005  224.9509 H   0  0  0  0  0  0  0  0  0  0  0  0
  142.0285   77.7500  223.1195 H   0  0  0  0  0  0  0  0  0  0  0  0
  1  2  2  0
  2  3  1  0
  3  4  1  0
  4  5  1  0
  5  6  2  0
  5  7  1  0
  7  8  1  0
  8  9  1  0
  9 10  1  0
 10 11  1  0
 11 12  1  0
 12 13  1  0
 13 14  1  0
 14 15  1  0
 15 16  2  0
 16 17  1  0
 17 18  2  0
 18 19  1  0
 19 20  2  0
 20 21  1  0
 21 22  2  0
 22 23  1  0
 18 24  1  0
 24 25  2  0
  2 26  1  0
 26 27  2  0
 27 28  1  0
 28 29  2  0
 29 30  1  0
 30 31  2  0
 31 32  1  0
 31 33  1  0
 33 34  2  0
 34 35  1  0
 35 36  2  0
 11  7  1  0
 25 15  1  0
 36 26  1  0
 23 19  1  0
 35 29  1  0
  3 37  1  0
  4 38  1  0
  4 39  1  0
  8 40  1  0
  8 41  1  0
  9 42  1  0
  9 43  1  0
 10 44  1  0
 10 45  1  0
 11 46  1  6
 12 47  1  0
 12 48  1  0
 13 49  1  0
 14 50  1  0
 14 51  1  0
 16 52  1  0
 17 53  1  0
 21 54  1  0
 22 55  1  0
 23 56  1  0
 24 57  1  0
 25 58  1  0
 27 59  1  0
 28 60  1  0
 30 61  1  0
 33 62  1  0
 34 63  1  0
M  END
>  <smiles>  (42) 
O=C(NCC(=O)N1CCC[C@H]1CNCc1ccc(-c2ncc[nH]2)cc1)c1ccc2cc(F)ccc2n1

>  <score_type>  (42) 
oracle

>  <origin>  (42) 
autodockgpu

>  <m_score__min__energy>  (42) 
-9.5700000000000003

>  <m_primary>  (42) 
energy

>  <rmsd>  (42) 
9.400464729097594

>  <m_score__min__rmsd>  (42) 
9.400464729097594

>  <meeko>  (42) 
{"free_energy": -6.79, "intermolecular_energy": -9.48, "internal_energy": -3.49, "cluster_size": 1, "cluster_id": 12, "rank_in_cluster": 1}

>  <energy>  (42) 
-6.18

>  <cluster_rmsd>  (42) 
1.44

>  <cluster>  (42) 
13

$$$$

     RDKit          3D

 63 67  0  0  0  0  0  0  0  0999 V2000
  138.1450   72.2090  221.7530 O   0  0  0  0  0  0  0  0  0  0  0  0
  139.3140   72.1740  222.2690 C   0  0  0  0  0  0  0  0  0  0  0  0
  140.3530   72.9000  221.6420 N   0  0  0  0  0  0  0  0  0  0  0  0
  140.0360   73.6620  220.4300 C   0  0  0  0  0  0  0  0  0  0  0  0
  141.1790   74.5250  220.0390 C   0  0  0  0  0  0  0  0  0  0  0  0
  142.2850   74.3280  220.6040 O   0  0  0  0  0  0  0  0  0  0  0  0
  140.9610   75.5210  219.0540 N   0  0  0  0  0  0  0  0  0  0  0  0
  140.0590   75.4960  217.9020 C   0  0  0  0  0  0  0  0  0  0  0  0
  139.4920   76.9080  217.9050 C   0  0  0  0  0  0  0  0  0  0  0  0
  140.3320   77.6990  218.9140 C   0  0  0  0  0  0  0  0  0  0  0  0
  141.5980   76.8510  218.9530 C   0  0  1  0  0  0  0  0  0  0  0  0
  142.4480   77.1510  220.1280 C   0  0  0  0  0  0  0  0  0  0  0  0
  142.2010   78.4300  220.6620 N   0  0  0  0  0  0  0  0  0  0  0  0
  141.5100   78.5960  221.8540 C   0  0  0  0  0  0  0  0  0  0  0  0
  140.2490   77.9030  222.1140 C   0  0  0  0  0  0  0  0  0  0  0  0
  140.3190   76.5320  222.3840 C   0  0  0  0  0  0  0  0  0  0  0  0
  139.1510   75.8600  222.6820 C   0  0  0  0  0  0  0  0  0  0  0  0
  137.9220   76.4930  222.7190 C   0  0  0  0  0  0  0  0  0  0  0  0
  136.7070   75.7510  223.0350 C   0  0  0  0  0  0  0  0  0  0  0  0
  135.5050   76.3240  223.3020 N   0  0  0  0  0  0  0  0  0  0  0  0
  134.5750   75.3720  223.5570 C   0  0  0  0  0  0  0  0  0  0  0  0
  135.2500   74.1680  223.4370 C   0  0  0  0  0  0  0  0  0  0  0  0
  136.5500   74.3960  223.1190 N   0  0  0  0  0  0  0  0  0  0  0  0
  137.8450   77.8490  222.4520 C   0  0  0  0  0  0  0  0  0  0  0  0
  139.0080   78.5640  222.1480 C   0  0  0  0  0  0  0  0  0  0  0  0
  139.5200   71.3850  223.4830 C   0  0  0  0  0  0  0  0  0  0  0  0
  139.0930   70.0780  223.5330 C   0  0  0  0  0  0  0  0  0  0  0  0
  139.2440   69.2660  224.6360 C   0  0  0  0  0  0  0  0  0  0  0  0
  139.8610   69.7940  225.7580 C   0  0  0  0  0  0  0  0  0  0  0  0
  140.0210   69.0080  226.8610 C   0  0  0  0  0  0  0  0  0  0  0  0
  140.6460   69.5540  227.9860 C   0  0  0  0  0  0  0  0  0  0  0  0
  140.8180   68.7950  229.0940 F   0  0  0  0  0  0  0  0  0  0  0  0
  141.0830   70.8620  227.9600 C   0  0  0  0  0  0  0  0  0  0  0  0
  140.9070   71.6340  226.8280 C   0  0  0  0  0  0  0  0  0  0  0  0
  140.2890   71.1200  225.6910 C   0  0  0  0  0  0  0  0  0  0  0  0
  140.1160   71.8730  224.5850 N   0  0  0  0  0  0  0  0  0  0  0  0
  141.3040   72.8720  222.0550 H   0  0  0  0  0  0  0  0  0  0  0  0
  139.8152   72.9620  219.6107 H   0  0  0  0  0  0  0  0  0  0  0  0
  139.1634   74.3006  220.6318 H   0  0  0  0  0  0  0  0  0  0  0  0
  140.6071   75.2886  216.9711 H   0  0  0  0  0  0  0  0  0  0  0  0
  139.2899   74.7118  217.9611 H   0  0  0  0  0  0  0  0  0  0  0  0
  139.5760   77.3556  216.9037 H   0  0  0  0  0  0  0  0  0  0  0  0
  138.4261   76.9133  218.1765 H   0  0  0  0  0  0  0  0  0  0  0  0
  140.5382   78.7193  218.5584 H   0  0  0  0  0  0  0  0  0  0  0  0
  139.8511   77.8472  219.8921 H   0  0  0  0  0  0  0  0  0  0  0  0
  142.2908   76.9929  218.1105 H   0  0  0  0  0  0  0  0  0  0  0  0
  142.2504   76.3998  220.9069 H   0  0  0  0  0  0  0  0  0  0  0  0
  143.4965   77.1251  219.7963 H   0  0  0  0  0  0  0  0  0  0  0  0
  142.6060   79.2450  220.1860 H   0  0  0  0  0  0  0  0  0  0  0  0
  142.1998   78.2945  222.6560 H   0  0  0  0  0  0  0  0  0  0  0  0
  141.1918   79.6474  221.7958 H   0  0  0  0  0  0  0  0  0  0  0  0
  141.2826   76.0020  222.3593 H   0  0  0  0  0  0  0  0  0  0  0  0
  139.1993   74.7825  222.8978 H   0  0  0  0  0  0  0  0  0  0  0  0
  133.5140   75.5225  223.8055 H   0  0  0  0  0  0  0  0  0  0  0  0
  134.7994   73.1746  223.5784 H   0  0  0  0  0  0  0  0  0  0  0  0
  137.3030   73.6690  222.9640 H   0  0  0  0  0  0  0  0  0  0  0  0
  136.8726   78.3625  222.4788 H   0  0  0  0  0  0  0  0  0  0  0  0
  138.9522   79.6419  221.9358 H   0  0  0  0  0  0  0  0  0  0  0  0
  138.6034   69.6576  222.6422 H   0  0  0  0  0  0  0  0  0  0  0  0
  138.8843   68.2265  224.6257 H   0  0  0  0  0  0  0  0  0  0  0  0
  139.6659   67.9669  226.8653 H   0  0  0  0  0  0  0  0  0  0  0  0
  141.5741   71.2926  228.8451 H   0  0  0  0  0  0  0  0  0  0  0  0
  141.2620   72.6751  226.8248 H   0  0  0  0  0  0  0  0  0  0  0  0
  1  2  2  0
  2  3  1  0
  3  4  1  0
  4  5  1  0
  5  6  2  0
  5  7  1  0
  7  8  1  0
  8  9  1  0
  9 10  1  0
 10 11  1  0
 11 12  1  0
 12 13  1  0
 13 14  1  0
 14 15  1  0
 15 16  2  0
 16 17  1  0
 17 18  2  0
 18 19  1  0
 19 20  2  0
 20 21  1  0
 21 22  2  0
 22 23  1  0
 18 24  1  0
 24 25  2  0
  2 26  1  0
 26 27  2  0
 27 28  1  0
 28 29  2  0
 29 30  1  0
 30 31  2  0
 31 32  1  0
 31 33  1  0
 33 34  2  0
 34 35  1  0
 35 36  2  0
 11  7  1  0
 25 15  1  0
 36 26  1  0
 23 19  1  0
 35 29  1  0
  3 37  1  0
  4 38  1  0
  4 39  1  0
  8 40  1  0
  8 41  1  0
  9 42  1  0
  9 43  1  0
 10 44  1  0
 10 45  1  0
 11 46  1  6
 12 47  1  0
 12 48  1  0
 13 49  1  0
 14 50  1  0
 14 51  1  0
 16 52  1  0
 17 53  1  0
 21 54  1  0
 22 55  1  0
 23 56  1  0
 24 57  1  0
 25 58  1  0
 27 59  1  0
 28 60  1  0
 30 61  1  0
 33 62  1  0
 34 63  1  0
M  END
>  <smiles>  (43) 
O=C(NCC(=O)N1CCC[C@H]1CNCc1ccc(-c2ncc[nH]2)cc1)c1ccc2cc(F)ccc2n1

>  <score_type>  (43) 
oracle

>  <origin>  (43) 
autodockgpu

>  <m_score__min__energy>  (43) 
-9.5700000000000003

>  <m_primary>  (43) 
energy

>  <rmsd>  (43) 
2.715366362913489

>  <m_score__min__rmsd>  (43) 
2.715366362913489

>  <meeko>  (43) 
{"free_energy": -6.67, "intermolecular_energy": -9.35, "internal_energy": -3.75, "cluster_size": 2, "cluster_id": 4, "rank_in_cluster": 2}

>  <energy>  (43) 
-5.65

>  <cluster_rmsd>  (43) 
1.6

>  <cluster>  (43) 
13

$$$$

     RDKit          3D

 63 67  0  0  0  0  0  0  0  0999 V2000
  139.8700   73.5060  222.6920 O   0  0  0  0  0  0  0  0  0  0  0  0
  140.2200   72.2860  222.5420 C   0  0  0  0  0  0  0  0  0  0  0  0
  140.6200   71.8510  221.2570 N   0  0  0  0  0  0  0  0  0  0  0  0
  140.6160   72.8240  220.1600 C   0  0  0  0  0  0  0  0  0  0  0  0
  139.3000   72.8360  219.4730 C   0  0  0  0  0  0  0  0  0  0  0  0
  138.6840   71.7450  219.3650 O   0  0  0  0  0  0  0  0  0  0  0  0
  138.8130   74.0720  218.9770 N   0  0  0  0  0  0  0  0  0  0  0  0
  139.2700   74.8470  217.8230 C   0  0  0  0  0  0  0  0  0  0  0  0
  137.9600   75.3210  217.2130 C   0  0  0  0  0  0  0  0  0  0  0  0
  136.8700   74.9870  218.2380 C   0  0  0  0  0  0  0  0  0  0  0  0
  137.7020   74.8870  219.5110 C   0  0  1  0  0  0  0  0  0  0  0  0
  136.9840   74.2000  220.6080 C   0  0  0  0  0  0  0  0  0  0  0  0
  137.4880   74.5370  221.8790 N   0  0  0  0  0  0  0  0  0  0  0  0
  137.3320   75.8120  222.4050 C   0  0  0  0  0  0  0  0  0  0  0  0
  138.4630   76.7280  222.5470 C   0  0  0  0  0  0  0  0  0  0  0  0
  138.1820   78.0250  222.9890 C   0  0  0  0  0  0  0  0  0  0  0  0
  139.2340   78.8960  223.1810 C   0  0  0  0  0  0  0  0  0  0  0  0
  140.5480   78.5330  222.9500 C   0  0  0  0  0  0  0  0  0  0  0  0
  141.6370   79.4810  223.1610 C   0  0  0  0  0  0  0  0  0  0  0  0
  141.5390   80.6080  223.9110 N   0  0  0  0  0  0  0  0  0  0  0  0
  142.7170   81.2770  223.9140 C   0  0  0  0  0  0  0  0  0  0  0  0
  143.5660   80.5150  223.1270 C   0  0  0  0  0  0  0  0  0  0  0  0
  142.9090   79.4190  222.6660 N   0  0  0  0  0  0  0  0  0  0  0  0
  140.8350   77.2510  222.5120 C   0  0  0  0  0  0  0  0  0  0  0  0
  139.7940   76.3390  222.3080 C   0  0  0  0  0  0  0  0  0  0  0  0
  140.1910   71.3990  223.7030 C   0  0  0  0  0  0  0  0  0  0  0  0
  139.6520   70.1380  223.5920 C   0  0  0  0  0  0  0  0  0  0  0  0
  139.5820   69.2410  224.6350 C   0  0  0  0  0  0  0  0  0  0  0  0
  140.0820   69.6300  225.8670 C   0  0  0  0  0  0  0  0  0  0  0  0
  140.0210   68.7570  226.9140 C   0  0  0  0  0  0  0  0  0  0  0  0
  140.5300   69.1630  228.1510 C   0  0  0  0  0  0  0  0  0  0  0  0
  140.4840   68.3160  229.2070 F   0  0  0  0  0  0  0  0  0  0  0  0
  141.0750   70.4230  228.2890 C   0  0  0  0  0  0  0  0  0  0  0  0
  141.1220   71.2850  227.2100 C   0  0  0  0  0  0  0  0  0  0  0  0
  140.6240   70.9110  225.9640 C   0  0  0  0  0  0  0  0  0  0  0  0
  140.6690   71.7520  224.9100 N   0  0  0  0  0  0  0  0  0  0  0  0
  140.9020   70.8610  221.1270 H   0  0  0  0  0  0  0  0  0  0  0  0
  140.8207   73.8259  220.5654 H   0  0  0  0  0  0  0  0  0  0  0  0
  141.3914   72.5402  219.4332 H   0  0  0  0  0  0  0  0  0  0  0  0
  139.8946   75.6968  218.1357 H   0  0  0  0  0  0  0  0  0  0  0  0
  139.8981   74.2721  217.1266 H   0  0  0  0  0  0  0  0  0  0  0  0
  137.9937   76.4053  217.0308 H   0  0  0  0  0  0  0  0  0  0  0  0
  137.7664   74.8332  216.2463 H   0  0  0  0  0  0  0  0  0  0  0  0
  136.1187   75.7875  218.3064 H   0  0  0  0  0  0  0  0  0  0  0  0
  136.2829   74.0867  218.0039 H   0  0  0  0  0  0  0  0  0  0  0  0
  137.9837   75.8458  219.9707 H   0  0  0  0  0  0  0  0  0  0  0  0
  135.9215   74.4814  220.5643 H   0  0  0  0  0  0  0  0  0  0  0  0
  137.1227   73.1175  220.4707 H   0  0  0  0  0  0  0  0  0  0  0  0
  137.9170   73.7970  222.4480 H   0  0  0  0  0  0  0  0  0  0  0  0
  136.5983   76.3233  221.7645 H   0  0  0  0  0  0  0  0  0  0  0  0
  137.0669   75.6028  223.4519 H   0  0  0  0  0  0  0  0  0  0  0  0
  137.1462   78.3429  223.1790 H   0  0  0  0  0  0  0  0  0  0  0  0
  139.0198   79.9167  223.5307 H   0  0  0  0  0  0  0  0  0  0  0  0
  142.9493   82.2206  224.4294 H   0  0  0  0  0  0  0  0  0  0  0  0
  144.6156   80.7611  222.9082 H   0  0  0  0  0  0  0  0  0  0  0  0
  143.3020   78.6580  222.0430 H   0  0  0  0  0  0  0  0  0  0  0  0
  141.8768   76.9512  222.3253 H   0  0  0  0  0  0  0  0  0  0  0  0
  140.0157   75.3189  221.9611 H   0  0  0  0  0  0  0  0  0  0  0  0
  139.2542   69.8284  222.6143 H   0  0  0  0  0  0  0  0  0  0  0  0
  139.1412   68.2432  224.4935 H   0  0  0  0  0  0  0  0  0  0  0  0
  139.5813   67.7567  226.7875 H   0  0  0  0  0  0  0  0  0  0  0  0
  141.4741   70.7430  229.2628 H   0  0  0  0  0  0  0  0  0  0  0  0
  141.5610   72.2855  227.3374 H   0  0  0  0  0  0  0  0  0  0  0  0
  1  2  2  0
  2  3  1  0
  3  4  1  0
  4  5  1  0
  5  6  2  0
  5  7  1  0
  7  8  1  0
  8  9  1  0
  9 10  1  0
 10 11  1  0
 11 12  1  0
 12 13  1  0
 13 14  1  0
 14 15  1  0
 15 16  2  0
 16 17  1  0
 17 18  2  0
 18 19  1  0
 19 20  2  0
 20 21  1  0
 21 22  2  0
 22 23  1  0
 18 24  1  0
 24 25  2  0
  2 26  1  0
 26 27  2  0
 27 28  1  0
 28 29  2  0
 29 30  1  0
 30 31  2  0
 31 32  1  0
 31 33  1  0
 33 34  2  0
 34 35  1  0
 35 36  2  0
 11  7  1  0
 25 15  1  0
 36 26  1  0
 23 19  1  0
 35 29  1  0
  3 37  1  0
  4 38  1  0
  4 39  1  0
  8 40  1  0
  8 41  1  0
  9 42  1  0
  9 43  1  0
 10 44  1  0
 10 45  1  0
 11 46  1  1
 12 47  1  0
 12 48  1  0
 13 49  1  0
 14 50  1  0
 14 51  1  0
 16 52  1  0
 17 53  1  0
 21 54  1  0
 22 55  1  0
 23 56  1  0
 24 57  1  0
 25 58  1  0
 27 59  1  0
 28 60  1  0
 30 61  1  0
 33 62  1  0
 34 63  1  0
M  END
>  <smiles>  (44) 
O=C(NCC(=O)N1CCC[C@H]1CNCc1ccc(-c2ncc[nH]2)cc1)c1ccc2cc(F)ccc2n1

>  <score_type>  (44) 
oracle

>  <origin>  (44) 
autodockgpu

>  <m_score__min__energy>  (44) 
-9.5700000000000003

>  <m_primary>  (44) 
energy

>  <rmsd>  (44) 
3.4820371378500226

>  <m_score__min__rmsd>  (44) 
3.4820371378500226

>  <meeko>  (44) 
{"free_energy": -8.44, "intermolecular_energy": -11.12, "internal_energy": -2.84, "cluster_size": 16, "cluster_id": 3, "rank_in_cluster": 7}

>  <energy>  (44) 
-6.4

>  <cluster_rmsd>  (44) 
0.0

>  <cluster>  (44) 
14

$$$$

     RDKit          3D

 63 67  0  0  0  0  0  0  0  0999 V2000
  139.7170   72.9820  222.3740 O   0  0  0  0  0  0  0  0  0  0  0  0
  139.2190   71.8590  222.7280 C   0  0  0  0  0  0  0  0  0  0  0  0
  138.2440   71.2590  221.8980 N   0  0  0  0  0  0  0  0  0  0  0  0
  137.8530   71.9550  220.6680 C   0  0  0  0  0  0  0  0  0  0  0  0
  136.4370   72.3950  220.7410 C   0  0  0  0  0  0  0  0  0  0  0  0
  135.9320   72.9190  219.7160 O   0  0  0  0  0  0  0  0  0  0  0  0
  135.7360   72.2020  221.9580 N   0  0  0  0  0  0  0  0  0  0  0  0
  135.2300   70.9600  222.5430 C   0  0  0  0  0  0  0  0  0  0  0  0
  135.5630   71.1380  224.0170 C   0  0  0  0  0  0  0  0  0  0  0  0
  135.9980   72.6000  224.1790 C   0  0  0  0  0  0  0  0  0  0  0  0
  135.3470   73.2250  222.9510 C   0  0  1  0  0  0  0  0  0  0  0  0
  135.9060   74.5570  222.6270 C   0  0  0  0  0  0  0  0  0  0  0  0
  137.2880   74.5140  222.3620 N   0  0  0  0  0  0  0  0  0  0  0  0
  137.8850   75.4060  221.4810 C   0  0  0  0  0  0  0  0  0  0  0  0
  138.8030   76.4450  221.9460 C   0  0  0  0  0  0  0  0  0  0  0  0
  140.1720   76.2070  221.7820 C   0  0  0  0  0  0  0  0  0  0  0  0
  141.0600   77.1900  222.1650 C   0  0  0  0  0  0  0  0  0  0  0  0
  140.6450   78.3940  222.7050 C   0  0  0  0  0  0  0  0  0  0  0  0
  141.6130   79.4110  223.1020 C   0  0  0  0  0  0  0  0  0  0  0  0
  141.3100   80.5160  223.8300 N   0  0  0  0  0  0  0  0  0  0  0  0
  142.4210   81.2640  224.0350 C   0  0  0  0  0  0  0  0  0  0  0  0
  143.4420   80.5750  223.4000 C   0  0  0  0  0  0  0  0  0  0  0  0
  142.9510   79.4450  222.8300 N   0  0  0  0  0  0  0  0  0  0  0  0
  139.2920   78.6370  222.8720 C   0  0  0  0  0  0  0  0  0  0  0  0
  138.3610   77.6640  222.4930 C   0  0  0  0  0  0  0  0  0  0  0  0
  139.6830   71.2480  223.9730 C   0  0  0  0  0  0  0  0  0  0  0  0
  140.6090   71.9010  224.7540 C   0  0  0  0  0  0  0  0  0  0  0  0
  141.1020   71.3960  225.9380 C   0  0  0  0  0  0  0  0  0  0  0  0
  140.6390   70.1640  226.3670 C   0  0  0  0  0  0  0  0  0  0  0  0
  141.1140   69.6460  227.5360 C   0  0  0  0  0  0  0  0  0  0  0  0
  140.6380   68.4010  227.9570 C   0  0  0  0  0  0  0  0  0  0  0  0
  141.0920   67.8640  229.1150 F   0  0  0  0  0  0  0  0  0  0  0  0
  139.7090   67.7260  227.1910 C   0  0  0  0  0  0  0  0  0  0  0  0
  139.2470   68.2770  226.0110 C   0  0  0  0  0  0  0  0  0  0  0  0
  139.7010   69.5150  225.5640 C   0  0  0  0  0  0  0  0  0  0  0  0
  139.2510   70.0530  224.4120 N   0  0  0  0  0  0  0  0  0  0  0  0
  137.8350   70.3490  222.1820 H   0  0  0  0  0  0  0  0  0  0  0  0
  138.4980   72.8354  220.5308 H   0  0  0  0  0  0  0  0  0  0  0  0
  137.9650   71.2636  219.8198 H   0  0  0  0  0  0  0  0  0  0  0  0
  134.1455   70.8596  222.3887 H   0  0  0  0  0  0  0  0  0  0  0  0
  135.6666   70.0534  222.0987 H   0  0  0  0  0  0  0  0  0  0  0  0
  134.6777   70.9318  224.6364 H   0  0  0  0  0  0  0  0  0  0  0  0
  136.3543   70.4445  224.3377 H   0  0  0  0  0  0  0  0  0  0  0  0
  135.6100   73.0376  225.1106 H   0  0  0  0  0  0  0  0  0  0  0  0
  137.0859   72.7485  224.2450 H   0  0  0  0  0  0  0  0  0  0  0  0
  134.2696   73.4294  223.0368 H   0  0  0  0  0  0  0  0  0  0  0  0
  135.3890   74.9496  221.7390 H   0  0  0  0  0  0  0  0  0  0  0  0
  135.7547   75.2041  223.5035 H   0  0  0  0  0  0  0  0  0  0  0  0
  137.8670   73.8490  222.8890 H   0  0  0  0  0  0  0  0  0  0  0  0
  138.4472   74.7973  220.7575 H   0  0  0  0  0  0  0  0  0  0  0  0
  137.0264   75.9937  221.1240 H   0  0  0  0  0  0  0  0  0  0  0  0
  140.5315   75.2580  221.3575 H   0  0  0  0  0  0  0  0  0  0  0  0
  142.1376   77.0102  222.0364 H   0  0  0  0  0  0  0  0  0  0  0  0
  142.4963   82.2129  224.5863 H   0  0  0  0  0  0  0  0  0  0  0  0
  144.4935   80.8959  223.3633 H   0  0  0  0  0  0  0  0  0  0  0  0
  143.4960   78.7230  222.2790 H   0  0  0  0  0  0  0  0  0  0  0  0
  138.9508   79.5908  223.3007 H   0  0  0  0  0  0  0  0  0  0  0  0
  137.2848   77.8515  222.6224 H   0  0  0  0  0  0  0  0  0  0  0  0
  140.9762   72.8807  224.4144 H   0  0  0  0  0  0  0  0  0  0  0  0
  141.8433   71.9569  226.5261 H   0  0  0  0  0  0  0  0  0  0  0  0
  141.8554   70.1959  228.1343 H   0  0  0  0  0  0  0  0  0  0  0  0
  139.3350   66.7456  227.5212 H   0  0  0  0  0  0  0  0  0  0  0  0
  138.5058   67.7266  225.4129 H   0  0  0  0  0  0  0  0  0  0  0  0
  1  2  2  0
  2  3  1  0
  3  4  1  0
  4  5  1  0
  5  6  2  0
  5  7  1  0
  7  8  1  0
  8  9  1  0
  9 10  1  0
 10 11  1  0
 11 12  1  0
 12 13  1  0
 13 14  1  0
 14 15  1  0
 15 16  2  0
 16 17  1  0
 17 18  2  0
 18 19  1  0
 19 20  2  0
 20 21  1  0
 21 22  2  0
 22 23  1  0
 18 24  1  0
 24 25  2  0
  2 26  1  0
 26 27  2  0
 27 28  1  0
 28 29  2  0
 29 30  1  0
 30 31  2  0
 31 32  1  0
 31 33  1  0
 33 34  2  0
 34 35  1  0
 35 36  2  0
 11  7  1  0
 25 15  1  0
 36 26  1  0
 23 19  1  0
 35 29  1  0
  3 37  1  0
  4 38  1  0
  4 39  1  0
  8 40  1  0
  8 41  1  0
  9 42  1  0
  9 43  1  0
 10 44  1  0
 10 45  1  0
 11 46  1  1
 12 47  1  0
 12 48  1  0
 13 49  1  0
 14 50  1  0
 14 51  1  0
 16 52  1  0
 17 53  1  0
 21 54  1  0
 22 55  1  0
 23 56  1  0
 24 57  1  0
 25 58  1  0
 27 59  1  0
 28 60  1  0
 30 61  1  0
 33 62  1  0
 34 63  1  0
M  END
>  <smiles>  (45) 
O=C(NCC(=O)N1CCC[C@H]1CNCc1ccc(-c2ncc[nH]2)cc1)c1ccc2cc(F)ccc2n1

>  <score_type>  (45) 
oracle

>  <origin>  (45) 
autodockgpu

>  <m_score__min__energy>  (45) 
-9.5700000000000003

>  <m_primary>  (45) 
energy

>  <rmsd>  (45) 
5.3703776522609985

>  <m_score__min__rmsd>  (45) 
5.3703776522609985

>  <meeko>  (45) 
{"free_energy": -8.85, "intermolecular_energy": -11.54, "internal_energy": -3.19, "cluster_size": 16, "cluster_id": 3, "rank_in_cluster": 3}

>  <energy>  (45) 
-6.34

>  <cluster_rmsd>  (45) 
0.0

>  <cluster>  (45) 
15

$$$$

     RDKit          3D

 63 67  0  0  0  0  0  0  0  0999 V2000
  141.4610   72.9420  221.8540 O   0  0  0  0  0  0  0  0  0  0  0  0
  140.4400   72.1760  221.9230 C   0  0  0  0  0  0  0  0  0  0  0  0
  139.6320   72.0200  220.7730 N   0  0  0  0  0  0  0  0  0  0  0  0
  140.0080   72.7430  219.5550 C   0  0  0  0  0  0  0  0  0  0  0  0
  140.0860   74.2030  219.8140 C   0  0  0  0  0  0  0  0  0  0  0  0
  141.2270   74.7260  219.8900 O   0  0  0  0  0  0  0  0  0  0  0  0
  138.8740   74.9240  219.9620 N   0  0  0  0  0  0  0  0  0  0  0  0
  137.8500   75.2210  218.9590 C   0  0  0  0  0  0  0  0  0  0  0  0
  136.5620   75.0130  219.7420 C   0  0  0  0  0  0  0  0  0  0  0  0
  136.9780   74.8700  221.2110 C   0  0  0  0  0  0  0  0  0  0  0  0
  138.3390   75.5560  221.1860 C   0  0  1  0  0  0  0  0  0  0  0  0
  139.1580   75.2390  222.3780 C   0  0  0  0  0  0  0  0  0  0  0  0
  140.4720   75.7340  222.2790 N   0  0  0  0  0  0  0  0  0  0  0  0
  140.7810   77.0420  222.6260 C   0  0  0  0  0  0  0  0  0  0  0  0
  141.0880   78.0520  221.6150 C   0  0  0  0  0  0  0  0  0  0  0  0
  141.6730   79.2430  222.0590 C   0  0  0  0  0  0  0  0  0  0  0  0
  142.0200   80.1950  221.1220 C   0  0  0  0  0  0  0  0  0  0  0  0
  141.8080   80.0130  219.7680 C   0  0  0  0  0  0  0  0  0  0  0  0
  142.1850   81.0410  218.8050 C   0  0  0  0  0  0  0  0  0  0  0  0
  141.7330   82.3210  218.8310 N   0  0  0  0  0  0  0  0  0  0  0  0
  142.2650   83.0300  217.8070 C   0  0  0  0  0  0  0  0  0  0  0  0
  143.0780   82.1340  217.1320 C   0  0  0  0  0  0  0  0  0  0  0  0
  143.0310   80.9200  217.7380 N   0  0  0  0  0  0  0  0  0  0  0  0
  141.2300   78.8370  219.3200 C   0  0  0  0  0  0  0  0  0  0  0  0
  140.8650   77.8490  220.2410 C   0  0  0  0  0  0  0  0  0  0  0  0
  140.1570   71.4970  223.1870 C   0  0  0  0  0  0  0  0  0  0  0  0
  139.3200   70.4060  223.2080 C   0  0  0  0  0  0  0  0  0  0  0  0
  138.9970   69.7100  224.3530 C   0  0  0  0  0  0  0  0  0  0  0  0
  139.5460   70.1340  225.5520 C   0  0  0  0  0  0  0  0  0  0  0  0
  139.2390   69.4610  226.6980 C   0  0  0  0  0  0  0  0  0  0  0  0
  139.8000   69.9000  227.9000 C   0  0  0  0  0  0  0  0  0  0  0  0
  139.5140   69.2490  229.0540 F   0  0  0  0  0  0  0  0  0  0  0  0
  140.6430   70.9930  227.9060 C   0  0  0  0  0  0  0  0  0  0  0  0
  140.9340   71.6550  226.7280 C   0  0  0  0  0  0  0  0  0  0  0  0
  140.3920   71.2430  225.5150 C   0  0  0  0  0  0  0  0  0  0  0  0
  140.6750   71.8880  224.3640 N   0  0  0  0  0  0  0  0  0  0  0  0
  138.8000   71.4020  220.8240 H   0  0  0  0  0  0  0  0  0  0  0  0
  140.9893   72.3845  219.2107 H   0  0  0  0  0  0  0  0  0  0  0  0
  139.2434   72.5608  218.7854 H   0  0  0  0  0  0  0  0  0  0  0  0
  137.9342   76.2566  218.5978 H   0  0  0  0  0  0  0  0  0  0  0  0
  137.9230   74.5973  218.0559 H   0  0  0  0  0  0  0  0  0  0  0  0
  135.8945   75.8783  219.6164 H   0  0  0  0  0  0  0  0  0  0  0  0
  136.0157   74.1255  219.3900 H   0  0  0  0  0  0  0  0  0  0  0  0
  136.2763   75.3855  221.8832 H   0  0  0  0  0  0  0  0  0  0  0  0
  136.9947   73.8348  221.5826 H   0  0  0  0  0  0  0  0  0  0  0  0
  138.3165   76.6557  221.1928 H   0  0  0  0  0  0  0  0  0  0  0  0
  138.6795   75.6842  223.2628 H   0  0  0  0  0  0  0  0  0  0  0  0
  139.2197   74.1437  222.4582 H   0  0  0  0  0  0  0  0  0  0  0  0
  141.2210   75.0850  222.0100 H   0  0  0  0  0  0  0  0  0  0  0  0
  139.9191   77.4236  223.1930 H   0  0  0  0  0  0  0  0  0  0  0  0
  141.7454   76.9262  223.1423 H   0  0  0  0  0  0  0  0  0  0  0  0
  141.8522   79.4165  223.1303 H   0  0  0  0  0  0  0  0  0  0  0  0
  142.4820   81.1325  221.4649 H   0  0  0  0  0  0  0  0  0  0  0  0
  142.0895   84.0883  217.5639 H   0  0  0  0  0  0  0  0  0  0  0  0
  143.6732   82.3710  216.2378 H   0  0  0  0  0  0  0  0  0  0  0  0
  143.5480   80.0440  217.4460 H   0  0  0  0  0  0  0  0  0  0  0  0
  141.0586   78.6803  218.2448 H   0  0  0  0  0  0  0  0  0  0  0  0
  140.4038   76.9138  219.8908 H   0  0  0  0  0  0  0  0  0  0  0  0
  138.8832   70.0694  222.2562 H   0  0  0  0  0  0  0  0  0  0  0  0
  138.3221   68.8421  224.3157 H   0  0  0  0  0  0  0  0  0  0  0  0
  138.5648   68.5921  226.6764 H   0  0  0  0  0  0  0  0  0  0  0  0
  141.0850   71.3386  228.8521 H   0  0  0  0  0  0  0  0  0  0  0  0
  141.6073   72.5246  226.7502 H   0  0  0  0  0  0  0  0  0  0  0  0
  1  2  2  0
  2  3  1  0
  3  4  1  0
  4  5  1  0
  5  6  2  0
  5  7  1  0
  7  8  1  0
  8  9  1  0
  9 10  1  0
 10 11  1  0
 11 12  1  0
 12 13  1  0
 13 14  1  0
 14 15  1  0
 15 16  2  0
 16 17  1  0
 17 18  2  0
 18 19  1  0
 19 20  2  0
 20 21  1  0
 21 22  2  0
 22 23  1  0
 18 24  1  0
 24 25  2  0
  2 26  1  0
 26 27  2  0
 27 28  1  0
 28 29  2  0
 29 30  1  0
 30 31  2  0
 31 32  1  0
 31 33  1  0
 33 34  2  0
 34 35  1  0
 35 36  2  0
 11  7  1  0
 25 15  1  0
 36 26  1  0
 23 19  1  0
 35 29  1  0
  3 37  1  0
  4 38  1  0
  4 39  1  0
  8 40  1  0
  8 41  1  0
  9 42  1  0
  9 43  1  0
 10 44  1  0
 10 45  1  0
 11 46  1  6
 12 47  1  0
 12 48  1  0
 13 49  1  0
 14 50  1  0
 14 51  1  0
 16 52  1  0
 17 53  1  0
 21 54  1  0
 22 55  1  0
 23 56  1  0
 24 57  1  0
 25 58  1  0
 27 59  1  0
 28 60  1  0
 30 61  1  0
 33 62  1  0
 34 63  1  0
M  END
>  <smiles>  (46) 
O=C(NCC(=O)N1CCC[C@H]1CNCc1ccc(-c2ncc[nH]2)cc1)c1ccc2cc(F)ccc2n1

>  <score_type>  (46) 
oracle

>  <origin>  (46) 
autodockgpu

>  <m_score__min__energy>  (46) 
-9.5700000000000003

>  <m_primary>  (46) 
energy

>  <rmsd>  (46) 
2.96224529895897

>  <m_score__min__rmsd>  (46) 
2.96224529895897

>  <meeko>  (46) 
{"free_energy": -7.26, "intermolecular_energy": -9.94, "internal_energy": -3.38, "cluster_size": 2, "cluster_id": 8, "rank_in_cluster": 2}

>  <energy>  (46) 
-6.34

>  <cluster_rmsd>  (46) 
0.0

>  <cluster>  (46) 
16

$$$$

     RDKit          3D

 63 67  0  0  0  0  0  0  0  0999 V2000
  140.4730   72.0260  221.0930 O   0  0  0  0  0  0  0  0  0  0  0  0
  140.0710   72.4880  222.2150 C   0  0  0  0  0  0  0  0  0  0  0  0
  139.6470   73.8360  222.2780 N   0  0  0  0  0  0  0  0  0  0  0  0
  139.6870   74.6360  221.0500 C   0  0  0  0  0  0  0  0  0  0  0  0
  140.5190   75.8510  221.2410 C   0  0  0  0  0  0  0  0  0  0  0  0
  140.9460   76.0940  222.3990 O   0  0  0  0  0  0  0  0  0  0  0  0
  140.7840   76.6670  220.1130 N   0  0  0  0  0  0  0  0  0  0  0  0
  140.2670   77.9990  219.7970 C   0  0  0  0  0  0  0  0  0  0  0  0
  141.4980   78.7000  219.2400 C   0  0  0  0  0  0  0  0  0  0  0  0
  142.5540   77.6060  219.0430 C   0  0  0  0  0  0  0  0  0  0  0  0
  141.6670   76.3690  218.9660 C   0  0  1  0  0  0  0  0  0  0  0  0
  142.4260   75.1120  219.1600 C   0  0  0  0  0  0  0  0  0  0  0  0
  143.1230   75.0850  220.3830 N   0  0  0  0  0  0  0  0  0  0  0  0
  144.3820   74.5090  220.4860 C   0  0  0  0  0  0  0  0  0  0  0  0
  144.6050   73.0930  220.1960 C   0  0  0  0  0  0  0  0  0  0  0  0
  143.5470   72.2150  220.4540 C   0  0  0  0  0  0  0  0  0  0  0  0
  143.7100   70.8810  220.1450 C   0  0  0  0  0  0  0  0  0  0  0  0
  144.8770   70.3860  219.5930 C   0  0  0  0  0  0  0  0  0  0  0  0
  145.0160   68.9680  219.2800 C   0  0  0  0  0  0  0  0  0  0  0  0
  145.9610   68.1520  219.8140 N   0  0  0  0  0  0  0  0  0  0  0  0
  145.8290   66.8950  219.3270 C   0  0  0  0  0  0  0  0  0  0  0  0
  144.7520   66.9570  218.4580 C   0  0  0  0  0  0  0  0  0  0  0  0
  144.2550   68.2200  218.4270 N   0  0  0  0  0  0  0  0  0  0  0  0
  145.9290   71.2480  219.3350 C   0  0  0  0  0  0  0  0  0  0  0  0
  145.8010   72.6080  219.6350 C   0  0  0  0  0  0  0  0  0  0  0  0
  140.0680   71.6030  223.3780 C   0  0  0  0  0  0  0  0  0  0  0  0
  139.5710   70.3250  223.2670 C   0  0  0  0  0  0  0  0  0  0  0  0
  139.5270   69.4270  224.3110 C   0  0  0  0  0  0  0  0  0  0  0  0
  140.0110   69.8330  225.5440 C   0  0  0  0  0  0  0  0  0  0  0  0
  139.9770   68.9610  226.5920 C   0  0  0  0  0  0  0  0  0  0  0  0
  140.4680   69.3850  227.8300 C   0  0  0  0  0  0  0  0  0  0  0  0
  140.4470   68.5380  228.8870 F   0  0  0  0  0  0  0  0  0  0  0  0
  140.9720   70.6620  227.9680 C   0  0  0  0  0  0  0  0  0  0  0  0
  140.9930   71.5230  226.8870 C   0  0  0  0  0  0  0  0  0  0  0  0
  140.5110   71.1320  225.6410 C   0  0  0  0  0  0  0  0  0  0  0  0
  140.5310   71.9720  224.5860 N   0  0  0  0  0  0  0  0  0  0  0  0
  139.3230   74.2180  223.1860 H   0  0  0  0  0  0  0  0  0  0  0  0
  140.1147   74.0296  220.2380 H   0  0  0  0  0  0  0  0  0  0  0  0
  138.6624   74.9457  220.7966 H   0  0  0  0  0  0  0  0  0  0  0  0
  139.4642   77.9472  219.0467 H   0  0  0  0  0  0  0  0  0  0  0  0
  139.8189   78.5140  220.6595 H   0  0  0  0  0  0  0  0  0  0  0  0
  141.2621   79.1810  218.2793 H   0  0  0  0  0  0  0  0  0  0  0  0
  141.8555   79.4875  219.9197 H   0  0  0  0  0  0  0  0  0  0  0  0
  143.1237   77.7549  218.1139 H   0  0  0  0  0  0  0  0  0  0  0  0
  143.3242   77.5679  219.8274 H   0  0  0  0  0  0  0  0  0  0  0  0
  141.1661   76.2031  218.0008 H   0  0  0  0  0  0  0  0  0  0  0  0
  141.7214   74.2676  219.1371 H   0  0  0  0  0  0  0  0  0  0  0  0
  143.1683   75.0422  218.3512 H   0  0  0  0  0  0  0  0  0  0  0  0
  142.7110   75.5650  221.1930 H   0  0  0  0  0  0  0  0  0  0  0  0
  145.0363   75.0714  219.8036 H   0  0  0  0  0  0  0  0  0  0  0  0
  144.5753   74.5600  221.5677 H   0  0  0  0  0  0  0  0  0  0  0  0
  142.6069   72.5802  220.8931 H   0  0  0  0  0  0  0  0  0  0  0  0
  142.8816   70.1855  220.3449 H   0  0  0  0  0  0  0  0  0  0  0  0
  146.4438   66.0155  219.5691 H   0  0  0  0  0  0  0  0  0  0  0  0
  144.3579   66.1088  217.8790 H   0  0  0  0  0  0  0  0  0  0  0  0
  143.4340   68.5660  217.8550 H   0  0  0  0  0  0  0  0  0  0  0  0
  146.8619   70.8648  218.8958 H   0  0  0  0  0  0  0  0  0  0  0  0
  146.6339   73.2975  219.4327 H   0  0  0  0  0  0  0  0  0  0  0  0
  139.1866   70.0015  222.2884 H   0  0  0  0  0  0  0  0  0  0  0  0
  139.1188   68.4154  224.1694 H   0  0  0  0  0  0  0  0  0  0  0  0
  139.5720   67.9461  226.4657 H   0  0  0  0  0  0  0  0  0  0  0  0
  141.3586   70.9961  228.9421 H   0  0  0  0  0  0  0  0  0  0  0  0
  141.3987   72.5375  227.0138 H   0  0  0  0  0  0  0  0  0  0  0  0
  1  2  2  0
  2  3  1  0
  3  4  1  0
  4  5  1  0
  5  6  2  0
  5  7  1  0
  7  8  1  0
  8  9  1  0
  9 10  1  0
 10 11  1  0
 11 12  1  0
 12 13  1  0
 13 14  1  0
 14 15  1  0
 15 16  2  0
 16 17  1  0
 17 18  2  0
 18 19  1  0
 19 20  2  0
 20 21  1  0
 21 22  2  0
 22 23  1  0
 18 24  1  0
 24 25  2  0
  2 26  1  0
 26 27  2  0
 27 28  1  0
 28 29  2  0
 29 30  1  0
 30 31  2  0
 31 32  1  0
 31 33  1  0
 33 34  2  0
 34 35  1  0
 35 36  2  0
 11  7  1  0
 25 15  1  0
 36 26  1  0
 23 19  1  0
 35 29  1  0
  3 37  1  0
  4 38  1  0
  4 39  1  0
  8 40  1  0
  8 41  1  0
  9 42  1  0
  9 43  1  0
 10 44  1  0
 10 45  1  0
 11 46  1  6
 12 47  1  0
 12 48  1  0
 13 49  1  0
 14 50  1  0
 14 51  1  0
 16 52  1  0
 17 53  1  0
 21 54  1  0
 22 55  1  0
 23 56  1  0
 24 57  1  0
 25 58  1  0
 27 59  1  0
 28 60  1  0
 30 61  1  0
 33 62  1  0
 34 63  1  0
M  END
>  <smiles>  (47) 
O=C(NCC(=O)N1CCC[C@H]1CNCc1ccc(-c2ncc[nH]2)cc1)c1ccc2cc(F)ccc2n1

>  <score_type>  (47) 
oracle

>  <origin>  (47) 
autodockgpu

>  <m_score__min__energy>  (47) 
-9.5700000000000003

>  <m_primary>  (47) 
energy

>  <rmsd>  (47) 
5.4530428452648145

>  <m_score__min__rmsd>  (47) 
5.4530428452648145

>  <meeko>  (47) 
{"free_energy": -9.57, "intermolecular_energy": -12.25, "internal_energy": -2.75, "cluster_size": 5, "cluster_id": 1, "rank_in_cluster": 1}

>  <energy>  (47) 
-6.3

>  <cluster_rmsd>  (47) 
0.77

>  <cluster>  (47) 
16

$$$$

     RDKit          3D

 63 67  0  0  0  0  0  0  0  0999 V2000
  135.5910   68.9240  224.5910 O   0  0  0  0  0  0  0  0  0  0  0  0
  135.8230   70.0520  224.0340 C   0  0  0  0  0  0  0  0  0  0  0  0
  136.6210   70.0770  222.8670 N   0  0  0  0  0  0  0  0  0  0  0  0
  137.1420   68.8070  222.3510 C   0  0  0  0  0  0  0  0  0  0  0  0
  138.4570   68.4910  222.9640 C   0  0  0  0  0  0  0  0  0  0  0  0
  139.1960   67.6620  222.3740 O   0  0  0  0  0  0  0  0  0  0  0  0
  138.8050   69.1370  224.1770 N   0  0  0  0  0  0  0  0  0  0  0  0
  138.8380   68.5930  225.5350 C   0  0  0  0  0  0  0  0  0  0  0  0
  140.1080   69.2110  226.1000 C   0  0  0  0  0  0  0  0  0  0  0  0
  140.5490   70.2730  225.0860 C   0  0  0  0  0  0  0  0  0  0  0  0
  139.2320   70.5390  224.3670 C   0  0  1  0  0  0  0  0  0  0  0  0
  139.4200   71.2430  223.0780 C   0  0  0  0  0  0  0  0  0  0  0  0
  138.4820   72.2740  222.8830 N   0  0  0  0  0  0  0  0  0  0  0  0
  138.6080   73.1800  221.8380 C   0  0  0  0  0  0  0  0  0  0  0  0
  139.1540   74.5210  222.0460 C   0  0  0  0  0  0  0  0  0  0  0  0
  140.5190   74.6990  221.7970 C   0  0  0  0  0  0  0  0  0  0  0  0
  141.0530   75.9640  221.9360 C   0  0  0  0  0  0  0  0  0  0  0  0
  140.2890   77.0530  222.3140 C   0  0  0  0  0  0  0  0  0  0  0  0
  140.8870   78.3760  222.4540 C   0  0  0  0  0  0  0  0  0  0  0  0
  140.2520   79.4530  222.9820 N   0  0  0  0  0  0  0  0  0  0  0  0
  141.0700   80.5330  222.9750 C   0  0  0  0  0  0  0  0  0  0  0  0
  142.2560   80.0830  222.4160 C   0  0  0  0  0  0  0  0  0  0  0  0
  142.1460   78.7680  222.0970 N   0  0  0  0  0  0  0  0  0  0  0  0
  138.9370   76.8840  222.5630 C   0  0  0  0  0  0  0  0  0  0  0  0
  138.3600   75.6170  222.4310 C   0  0  0  0  0  0  0  0  0  0  0  0
  135.2520   71.2580  224.6280 C   0  0  0  0  0  0  0  0  0  0  0  0
  134.2840   71.1530  225.6010 C   0  0  0  0  0  0  0  0  0  0  0  0
  133.6900   72.2370  226.2110 C   0  0  0  0  0  0  0  0  0  0  0  0
  134.0900   73.5050  225.8230 C   0  0  0  0  0  0  0  0  0  0  0  0
  133.5150   74.5920  226.4140 C   0  0  0  0  0  0  0  0  0  0  0  0
  133.9280   75.8660  226.0130 C   0  0  0  0  0  0  0  0  0  0  0  0
  133.3750   76.9630  226.5830 F   0  0  0  0  0  0  0  0  0  0  0  0
  134.8960   75.9990  225.0390 C   0  0  0  0  0  0  0  0  0  0  0  0
  135.4600   74.8780  224.4590 C   0  0  0  0  0  0  0  0  0  0  0  0
  135.0710   73.5960  224.8360 C   0  0  0  0  0  0  0  0  0  0  0  0
  135.6200   72.5010  224.2700 N   0  0  0  0  0  0  0  0  0  0  0  0
  136.8160   70.9890  222.4120 H   0  0  0  0  0  0  0  0  0  0  0  0
  136.4306   68.0021  222.5877 H   0  0  0  0  0  0  0  0  0  0  0  0
  137.2714   68.8943  221.2621 H   0  0  0  0  0  0  0  0  0  0  0  0
  137.9535   68.9037  226.1104 H   0  0  0  0  0  0  0  0  0  0  0  0
  138.8295   67.4936  225.5698 H   0  0  0  0  0  0  0  0  0  0  0  0
  139.9053   69.6756  227.0762 H   0  0  0  0  0  0  0  0  0  0  0  0
  140.8900   68.4532  226.2554 H   0  0  0  0  0  0  0  0  0  0  0  0
  140.9286   71.1770  225.5847 H   0  0  0  0  0  0  0  0  0  0  0  0
  141.3742   69.9624  224.4284 H   0  0  0  0  0  0  0  0  0  0  0  0
  138.5241   71.1920  224.8985 H   0  0  0  0  0  0  0  0  0  0  0  0
  140.4304   71.6774  223.0578 H   0  0  0  0  0  0  0  0  0  0  0  0
  139.2788   70.5072  222.2726 H   0  0  0  0  0  0  0  0  0  0  0  0
  137.6540   72.3050  223.4900 H   0  0  0  0  0  0  0  0  0  0  0  0
  139.2497   72.6977  221.0859 H   0  0  0  0  0  0  0  0  0  0  0  0
  137.5591   73.3908  221.5825 H   0  0  0  0  0  0  0  0  0  0  0  0
  141.1519   73.8506  221.4974 H   0  0  0  0  0  0  0  0  0  0  0  0
  142.1251   76.1114  221.7390 H   0  0  0  0  0  0  0  0  0  0  0  0
  140.8424   81.5472  223.3349 H   0  0  0  0  0  0  0  0  0  0  0  0
  143.1526   80.6995  222.2549 H   0  0  0  0  0  0  0  0  0  0  0  0
  142.8900   78.1570  221.6560 H   0  0  0  0  0  0  0  0  0  0  0  0
  138.3194   77.7432  222.8635 H   0  0  0  0  0  0  0  0  0  0  0  0
  137.2868   75.4774  222.6279 H   0  0  0  0  0  0  0  0  0  0  0  0
  133.9662   70.1461  225.9095 H   0  0  0  0  0  0  0  0  0  0  0  0
  132.9199   72.0989  226.9842 H   0  0  0  0  0  0  0  0  0  0  0  0
  132.7438   74.4687  227.1886 H   0  0  0  0  0  0  0  0  0  0  0  0
  135.2204   77.0013  224.7226 H   0  0  0  0  0  0  0  0  0  0  0  0
  136.2312   75.0017  223.6845 H   0  0  0  0  0  0  0  0  0  0  0  0
  1  2  2  0
  2  3  1  0
  3  4  1  0
  4  5  1  0
  5  6  2  0
  5  7  1  0
  7  8  1  0
  8  9  1  0
  9 10  1  0
 10 11  1  0
 11 12  1  0
 12 13  1  0
 13 14  1  0
 14 15  1  0
 15 16  2  0
 16 17  1  0
 17 18  2  0
 18 19  1  0
 19 20  2  0
 20 21  1  0
 21 22  2  0
 22 23  1  0
 18 24  1  0
 24 25  2  0
  2 26  1  0
 26 27  2  0
 27 28  1  0
 28 29  2  0
 29 30  1  0
 30 31  2  0
 31 32  1  0
 31 33  1  0
 33 34  2  0
 34 35  1  0
 35 36  2  0
 11  7  1  0
 25 15  1  0
 36 26  1  0
 23 19  1  0
 35 29  1  0
  3 37  1  0
  4 38  1  0
  4 39  1  0
  8 40  1  0
  8 41  1  0
  9 42  1  0
  9 43  1  0
 10 44  1  0
 10 45  1  0
 11 46  1  1
 12 47  1  0
 12 48  1  0
 13 49  1  0
 14 50  1  0
 14 51  1  0
 16 52  1  0
 17 53  1  0
 21 54  1  0
 22 55  1  0
 23 56  1  0
 24 57  1  0
 25 58  1  0
 27 59  1  0
 28 60  1  0
 30 61  1  0
 33 62  1  0
 34 63  1  0
M  END
>  <smiles>  (48) 
O=C(NCC(=O)N1CCC[C@H]1CNCc1ccc(-c2ncc[nH]2)cc1)c1ccc2cc(F)ccc2n1

>  <score_type>  (48) 
oracle

>  <origin>  (48) 
autodockgpu

>  <m_score__min__energy>  (48) 
-9.5700000000000003

>  <m_primary>  (48) 
energy

>  <rmsd>  (48) 
7.568921090774261

>  <m_score__min__rmsd>  (48) 
7.568921090774261

>  <meeko>  (48) 
{"free_energy": -7.63, "intermolecular_energy": -10.31, "internal_energy": -3.8, "cluster_size": 3, "cluster_id": 10, "rank_in_cluster": 2}

>  <energy>  (48) 
-6.21

>  <cluster_rmsd>  (48) 
0.78

>  <cluster>  (48) 
16

$$$$

     RDKit          3D

 63 67  0  0  0  0  0  0  0  0999 V2000
  140.7180   73.0460  222.7230 O   0  0  0  0  0  0  0  0  0  0  0  0
  140.2000   71.8910  222.9040 C   0  0  0  0  0  0  0  0  0  0  0  0
  139.5250   71.2750  221.8250 N   0  0  0  0  0  0  0  0  0  0  0  0
  139.4560   71.9920  220.5470 C   0  0  0  0  0  0  0  0  0  0  0  0
  140.7400   71.8760  219.8100 C   0  0  0  0  0  0  0  0  0  0  0  0
  140.9480   70.8230  219.1550 O   0  0  0  0  0  0  0  0  0  0  0  0
  141.6570   72.9540  219.8870 N   0  0  0  0  0  0  0  0  0  0  0  0
  142.8260   73.1100  220.7540 C   0  0  0  0  0  0  0  0  0  0  0  0
  143.8490   73.7230  219.8090 C   0  0  0  0  0  0  0  0  0  0  0  0
  143.0780   74.1080  218.5410 C   0  0  0  0  0  0  0  0  0  0  0  0
  141.6600   74.2000  219.0920 C   0  0  1  0  0  0  0  0  0  0  0  0
  140.6320   74.1820  218.0260 C   0  0  0  0  0  0  0  0  0  0  0  0
  139.4280   74.7910  218.4250 N   0  0  0  0  0  0  0  0  0  0  0  0
  139.1310   75.0000  219.7650 C   0  0  0  0  0  0  0  0  0  0  0  0
  139.8100   76.0300  220.5500 C   0  0  0  0  0  0  0  0  0  0  0  0
  140.4790   77.0350  219.8420 C   0  0  0  0  0  0  0  0  0  0  0  0
  141.0860   78.0480  220.5550 C   0  0  0  0  0  0  0  0  0  0  0  0
  141.0600   78.1010  221.9360 C   0  0  0  0  0  0  0  0  0  0  0  0
  141.7150   79.1850  222.6580 C   0  0  0  0  0  0  0  0  0  0  0  0
  141.0650   80.1160  223.4020 N   0  0  0  0  0  0  0  0  0  0  0  0
  141.9490   80.9870  223.9450 C   0  0  0  0  0  0  0  0  0  0  0  0
  143.1920   80.5590  223.5070 C   0  0  0  0  0  0  0  0  0  0  0  0
  143.0520   79.4610  222.7220 N   0  0  0  0  0  0  0  0  0  0  0  0
  140.4010   77.1100  222.6440 C   0  0  0  0  0  0  0  0  0  0  0  0
  139.7710   76.0670  221.9560 C   0  0  0  0  0  0  0  0  0  0  0  0
  140.3300   71.2630  224.2180 C   0  0  0  0  0  0  0  0  0  0  0  0
  140.9150   71.9530  225.2540 C   0  0  0  0  0  0  0  0  0  0  0  0
  141.0810   71.4370  226.5210 C   0  0  0  0  0  0  0  0  0  0  0  0
  140.6320   70.1490  226.7660 C   0  0  0  0  0  0  0  0  0  0  0  0
  140.7870   69.6180  228.0130 C   0  0  0  0  0  0  0  0  0  0  0  0
  140.3300   68.3180  228.2450 C   0  0  0  0  0  0  0  0  0  0  0  0
  140.4690   67.7660  229.4750 F   0  0  0  0  0  0  0  0  0  0  0  0
  139.7390   67.6040  227.2230 C   0  0  0  0  0  0  0  0  0  0  0  0
  139.5970   68.1700  225.9690 C   0  0  0  0  0  0  0  0  0  0  0  0
  140.0420   69.4620  225.7060 C   0  0  0  0  0  0  0  0  0  0  0  0
  139.9040   70.0150  224.4830 N   0  0  0  0  0  0  0  0  0  0  0  0
  139.1000   70.3400  221.9670 H   0  0  0  0  0  0  0  0  0  0  0  0
  138.6486   71.5630  219.9354 H   0  0  0  0  0  0  0  0  0  0  0  0
  139.2586   73.0553  220.7482 H   0  0  0  0  0  0  0  0  0  0  0  0
  142.6098   73.7819  221.5977 H   0  0  0  0  0  0  0  0  0  0  0  0
  143.1607   72.1698  221.2167 H   0  0  0  0  0  0  0  0  0  0  0  0
  144.3039   74.6147  220.2649 H   0  0  0  0  0  0  0  0  0  0  0  0
  144.6636   73.0182  219.5860 H   0  0  0  0  0  0  0  0  0  0  0  0
  143.4191   75.0721  218.1359 H   0  0  0  0  0  0  0  0  0  0  0  0
  143.1981   73.4067  217.7021 H   0  0  0  0  0  0  0  0  0  0  0  0
  141.4236   75.1238  219.6403 H   0  0  0  0  0  0  0  0  0  0  0  0
  141.0243   74.7181  217.1492 H   0  0  0  0  0  0  0  0  0  0  0  0
  140.4119   73.1297  217.7932 H   0  0  0  0  0  0  0  0  0  0  0  0
  138.7950   75.1480  217.6980 H   0  0  0  0  0  0  0  0  0  0  0  0
  138.0570   75.2333  219.8113 H   0  0  0  0  0  0  0  0  0  0  0  0
  139.4921   74.0722  220.2329 H   0  0  0  0  0  0  0  0  0  0  0  0
  140.5198   77.0175  218.7429 H   0  0  0  0  0  0  0  0  0  0  0  0
  141.6101   78.8430  220.0042 H   0  0  0  0  0  0  0  0  0  0  0  0
  141.7280   81.8477  224.5933 H   0  0  0  0  0  0  0  0  0  0  0  0
  144.1498   81.0380  223.7583 H   0  0  0  0  0  0  0  0  0  0  0  0
  143.8270   78.9170  222.2470 H   0  0  0  0  0  0  0  0  0  0  0  0
  140.3729   77.1426  223.7432 H   0  0  0  0  0  0  0  0  0  0  0  0
  139.2461   75.2773  222.5135 H   0  0  0  0  0  0  0  0  0  0  0  0
  141.2709   72.9756  225.0601 H   0  0  0  0  0  0  0  0  0  0  0  0
  141.5565   72.0308  227.3155 H   0  0  0  0  0  0  0  0  0  0  0  0
  141.2608   70.1998  228.8174 H   0  0  0  0  0  0  0  0  0  0  0  0
  139.3794   66.5807  227.4062 H   0  0  0  0  0  0  0  0  0  0  0  0
  139.1235   67.5880  225.1646 H   0  0  0  0  0  0  0  0  0  0  0  0
  1  2  2  0
  2  3  1  0
  3  4  1  0
  4  5  1  0
  5  6  2  0
  5  7  1  0
  7  8  1  0
  8  9  1  0
  9 10  1  0
 10 11  1  0
 11 12  1  0
 12 13  1  0
 13 14  1  0
 14 15  1  0
 15 16  2  0
 16 17  1  0
 17 18  2  0
 18 19  1  0
 19 20  2  0
 20 21  1  0
 21 22  2  0
 22 23  1  0
 18 24  1  0
 24 25  2  0
  2 26  1  0
 26 27  2  0
 27 28  1  0
 28 29  2  0
 29 30  1  0
 30 31  2  0
 31 32  1  0
 31 33  1  0
 33 34  2  0
 34 35  1  0
 35 36  2  0
 11  7  1  0
 25 15  1  0
 36 26  1  0
 23 19  1  0
 35 29  1  0
  3 37  1  0
  4 38  1  0
  4 39  1  0
  8 40  1  0
  8 41  1  0
  9 42  1  0
  9 43  1  0
 10 44  1  0
 10 45  1  0
 11 46  1  1
 12 47  1  0
 12 48  1  0
 13 49  1  0
 14 50  1  0
 14 51  1  0
 16 52  1  0
 17 53  1  0
 21 54  1  0
 22 55  1  0
 23 56  1  0
 24 57  1  0
 25 58  1  0
 27 59  1  0
 28 60  1  0
 30 61  1  0
 33 62  1  0
 34 63  1  0
M  END
>  <smiles>  (49) 
O=C(NCC(=O)N1CCC[C@H]1CNCc1ccc(-c2ncc[nH]2)cc1)c1ccc2cc(F)ccc2n1

>  <score_type>  (49) 
oracle

>  <origin>  (49) 
autodockgpu

>  <m_score__min__energy>  (49) 
-9.5700000000000003

>  <m_primary>  (49) 
energy

>  <rmsd>  (49) 
4.282176309428672

>  <m_score__min__rmsd>  (49) 
4.282176309428672

>  <meeko>  (49) 
{"free_energy": -8.07, "intermolecular_energy": -10.76, "internal_energy": -2.38, "cluster_size": 2, "cluster_id": 7, "rank_in_cluster": 1}

>  <energy>  (49) 
-6.21

>  <cluster_rmsd>  (49) 
0.94

>  <cluster>  (49) 
16

$$$$

     RDKit          3D

 63 67  0  0  0  0  0  0  0  0999 V2000
  142.9630   78.7940  218.3000 O   0  0  0  0  0  0  0  0  0  0  0  0
  142.3880   77.7490  218.7620 C   0  0  0  0  0  0  0  0  0  0  0  0
  141.0870   77.8760  219.3000 N   0  0  0  0  0  0  0  0  0  0  0  0
  140.4590   79.2010  219.2990 C   0  0  0  0  0  0  0  0  0  0  0  0
  140.1680   79.6460  220.6850 C   0  0  0  0  0  0  0  0  0  0  0  0
  138.9970   80.0190  220.9490 O   0  0  0  0  0  0  0  0  0  0  0  0
  141.2240   79.6280  221.6310 N   0  0  0  0  0  0  0  0  0  0  0  0
  142.1610   80.6940  221.9880 C   0  0  0  0  0  0  0  0  0  0  0  0
  142.2490   80.5540  223.5000 C   0  0  0  0  0  0  0  0  0  0  0  0
  141.5490   79.2340  223.8440 C   0  0  0  0  0  0  0  0  0  0  0  0
  141.6380   78.5110  222.5060 C   0  0  1  0  0  0  0  0  0  0  0  0
  140.7080   77.3610  222.4170 C   0  0  0  0  0  0  0  0  0  0  0  0
  141.2190   76.3130  221.6280 N   0  0  0  0  0  0  0  0  0  0  0  0
  140.4050   75.2820  221.1790 C   0  0  0  0  0  0  0  0  0  0  0  0
  140.9620   74.0180  220.6970 C   0  0  0  0  0  0  0  0  0  0  0  0
  141.4490   73.1270  221.6600 C   0  0  0  0  0  0  0  0  0  0  0  0
  141.9340   71.9070  221.2400 C   0  0  0  0  0  0  0  0  0  0  0  0
  141.9580   71.5380  219.9070 C   0  0  0  0  0  0  0  0  0  0  0  0
  142.4810   70.2390  219.4980 C   0  0  0  0  0  0  0  0  0  0  0  0
  143.7210   69.7780  219.8070 N   0  0  0  0  0  0  0  0  0  0  0  0
  143.9080   68.5430  219.2840 C   0  0  0  0  0  0  0  0  0  0  0  0
  142.7240   68.2450  218.6300 C   0  0  0  0  0  0  0  0  0  0  0  0
  141.8520   69.2780  218.7580 N   0  0  0  0  0  0  0  0  0  0  0  0
  141.4790   72.4140  218.9480 C   0  0  0  0  0  0  0  0  0  0  0  0
  140.9770   73.6610  219.3370 C   0  0  0  0  0  0  0  0  0  0  0  0
  143.1020   76.4750  218.7110 C   0  0  0  0  0  0  0  0  0  0  0  0
  143.2110   75.7960  217.5190 C   0  0  0  0  0  0  0  0  0  0  0  0
  143.8620   74.5890  217.3820 C   0  0  0  0  0  0  0  0  0  0  0  0
  144.4420   74.0280  218.5080 C   0  0  0  0  0  0  0  0  0  0  0  0
  145.0920   72.8340  218.3960 C   0  0  0  0  0  0  0  0  0  0  0  0
  145.6720   72.2790  219.5400 C   0  0  0  0  0  0  0  0  0  0  0  0
  146.3240   71.0950  219.4570 F   0  0  0  0  0  0  0  0  0  0  0  0
  145.5770   72.9400  220.7470 C   0  0  0  0  0  0  0  0  0  0  0  0
  144.9120   74.1490  220.8300 C   0  0  0  0  0  0  0  0  0  0  0  0
  144.3230   74.7280  219.7080 C   0  0  0  0  0  0  0  0  0  0  0  0
  143.6730   75.9080  219.7880 N   0  0  0  0  0  0  0  0  0  0  0  0
  140.6160   77.0330  219.6800 H   0  0  0  0  0  0  0  0  0  0  0  0
  141.1397   79.9226  218.8237 H   0  0  0  0  0  0  0  0  0  0  0  0
  139.5130   79.1430  218.7407 H   0  0  0  0  0  0  0  0  0  0  0  0
  143.1419   80.5372  221.5155 H   0  0  0  0  0  0  0  0  0  0  0  0
  141.8403   81.6924  221.6557 H   0  0  0  0  0  0  0  0  0  0  0  0
  143.3009   80.5236  223.8204 H   0  0  0  0  0  0  0  0  0  0  0  0
  141.7766   81.4056  224.0115 H   0  0  0  0  0  0  0  0  0  0  0  0
  142.0812   78.6874  224.6364 H   0  0  0  0  0  0  0  0  0  0  0  0
  140.5271   79.3472  224.2351 H   0  0  0  0  0  0  0  0  0  0  0  0
  142.6119   78.0532  222.2780 H   0  0  0  0  0  0  0  0  0  0  0  0
  140.5209   76.9795  223.4316 H   0  0  0  0  0  0  0  0  0  0  0  0
  139.7822   77.7164  221.9409 H   0  0  0  0  0  0  0  0  0  0  0  0
  142.2000   76.3590  221.3270 H   0  0  0  0  0  0  0  0  0  0  0  0
  139.7382   75.0272  222.0159 H   0  0  0  0  0  0  0  0  0  0  0  0
  139.9678   75.7095  220.2646 H   0  0  0  0  0  0  0  0  0  0  0  0
  141.4449   73.3940  222.7271 H   0  0  0  0  0  0  0  0  0  0  0  0
  142.3159   71.2011  221.9922 H   0  0  0  0  0  0  0  0  0  0  0  0
  144.8061   67.9127  219.3617 H   0  0  0  0  0  0  0  0  0  0  0  0
  142.5203   67.3101  218.0874 H   0  0  0  0  0  0  0  0  0  0  0  0
  140.8710   69.3350  218.3640 H   0  0  0  0  0  0  0  0  0  0  0  0
  141.4929   72.1311  217.8851 H   0  0  0  0  0  0  0  0  0  0  0  0
  140.5946   74.3612  218.5797 H   0  0  0  0  0  0  0  0  0  0  0  0
  142.7523   76.2422  216.6243 H   0  0  0  0  0  0  0  0  0  0  0  0
  143.9194   74.0852  216.4058 H   0  0  0  0  0  0  0  0  0  0  0  0
  145.1582   72.3191  217.4262 H   0  0  0  0  0  0  0  0  0  0  0  0
  146.0326   72.5029  221.6478 H   0  0  0  0  0  0  0  0  0  0  0  0
  144.8466   74.6636  221.8000 H   0  0  0  0  0  0  0  0  0  0  0  0
  1  2  2  0
  2  3  1  0
  3  4  1  0
  4  5  1  0
  5  6  2  0
  5  7  1  0
  7  8  1  0
  8  9  1  0
  9 10  1  0
 10 11  1  0
 11 12  1  0
 12 13  1  0
 13 14  1  0
 14 15  1  0
 15 16  2  0
 16 17  1  0
 17 18  2  0
 18 19  1  0
 19 20  2  0
 20 21  1  0
 21 22  2  0
 22 23  1  0
 18 24  1  0
 24 25  2  0
  2 26  1  0
 26 27  2  0
 27 28  1  0
 28 29  2  0
 29 30  1  0
 30 31  2  0
 31 32  1  0
 31 33  1  0
 33 34  2  0
 34 35  1  0
 35 36  2  0
 11  7  1  0
 25 15  1  0
 36 26  1  0
 23 19  1  0
 35 29  1  0
  3 37  1  0
  4 38  1  0
  4 39  1  0
  8 40  1  0
  8 41  1  0
  9 42  1  0
  9 43  1  0
 10 44  1  0
 10 45  1  0
 11 46  1  6
 12 47  1  0
 12 48  1  0
 13 49  1  0
 14 50  1  0
 14 51  1  0
 16 52  1  0
 17 53  1  0
 21 54  1  0
 22 55  1  0
 23 56  1  0
 24 57  1  0
 25 58  1  0
 27 59  1  0
 28 60  1  0
 30 61  1  0
 33 62  1  0
 34 63  1  0
M  END
>  <smiles>  (50) 
O=C(NCC(=O)N1CCC[C@H]1CNCc1ccc(-c2ncc[nH]2)cc1)c1ccc2cc(F)ccc2n1

>  <score_type>  (50) 
oracle

>  <origin>  (50) 
autodockgpu

>  <m_score__min__energy>  (50) 
-9.5700000000000003

>  <m_primary>  (50) 
energy

>  <rmsd>  (50) 
8.065384724607059

>  <m_score__min__rmsd>  (50) 
8.065384724607059

>  <meeko>  (50) 
{"free_energy": -6.14, "intermolecular_energy": -8.83, "internal_energy": -5.13, "cluster_size": 5, "cluster_id": 16, "rank_in_cluster": 5}

>  <energy>  (50) 
-6.14

>  <cluster_rmsd>  (50) 
0.69

>  <cluster>  (50) 
16

$$$$
