
     RDKit          3D

 79 84  0  0  0  0  0  0  0  0999 V2000
  144.0620   82.8410  216.5540 C   0  0  0  0  0  0  0  0  0  0  0  0
  142.3920   82.4860  217.0460 S   0  0  0  0  0  0  0  0  0  0  0  0
  141.9160   83.6170  217.9400 O   0  0  0  0  0  0  0  0  0  0  0  0
  141.5200   82.3960  215.8070 O   0  0  0  0  0  0  0  0  0  0  0  0
  142.2740   81.0120  217.9790 C   0  0  0  0  0  0  0  0  0  0  0  0
  142.5600   79.7670  217.4610 C   0  0  0  0  0  0  0  0  0  0  0  0
  142.4550   78.6210  218.2220 C   0  0  0  0  0  0  0  0  0  0  0  0
  142.0520   78.7580  219.5390 C   0  0  0  0  0  0  0  0  0  0  0  0
  141.9010   77.6030  220.4620 C   0  0  0  0  0  0  0  0  0  0  0  0
  141.7400   76.3260  219.6620 C   0  0  0  0  0  0  0  0  0  0  0  0
  141.7650   75.1840  220.6510 C   0  0  0  0  0  0  0  0  0  0  0  0
  140.7400   75.3620  221.6810 N   0  0  0  0  0  0  0  0  0  0  0  0
  139.7790   74.3500  221.9660 C   0  0  0  0  0  0  0  0  0  0  0  0
  138.5020   74.4500  221.5560 N   0  0  0  0  0  0  0  0  0  0  0  0
  137.5780   73.4970  221.8210 C   0  0  0  0  0  0  0  0  0  0  0  0
  136.2340   73.6230  221.3700 N   0  0  0  0  0  0  0  0  0  0  0  0
  135.2570   74.4340  222.0490 C   0  0  1  0  0  0  0  0  0  0  0  0
  134.1280   73.6270  222.6280 C   0  0  0  0  0  0  0  0  0  0  0  0
  134.4760   73.0370  223.9760 C   0  0  0  0  0  0  0  0  0  0  0  0
  135.0300   74.0790  224.9190 C   0  0  2  0  0  0  0  0  0  0  0  0
  134.3260   74.1940  226.1560 N   0  0  0  0  0  0  0  0  0  0  0  0
  135.0770   75.4460  224.2650 C   0  0  0  0  0  0  0  0  0  0  0  0
  135.9470   75.3180  223.0590 C   0  0  0  0  0  0  0  0  0  0  0  0
  137.9810   72.4090  222.5300 N   0  0  0  0  0  0  0  0  0  0  0  0
  139.2500   72.2700  222.9580 C   0  0  0  0  0  0  0  0  0  0  0  0
  139.6410   71.1180  223.6970 N   0  0  0  0  0  0  0  0  0  0  0  0
  138.8340   69.9380  223.5760 C   0  0  0  0  0  0  0  0  0  0  0  0
  139.1820   68.8400  224.5280 C   0  0  0  0  0  0  0  0  0  0  0  0
  139.7510   69.3280  225.8100 C   0  0  0  0  0  0  0  0  0  0  0  0
  139.4600   68.6300  226.9450 C   0  0  0  0  0  0  0  0  0  0  0  0
  140.0050   69.1050  228.1400 C   0  0  0  0  0  0  0  0  0  0  0  0
  140.7980   70.2270  228.1540 C   0  0  0  0  0  0  0  0  0  0  0  0
  141.0800   70.9160  226.9960 C   0  0  0  0  0  0  0  0  0  0  0  0
  140.5500   70.4580  225.8180 C   0  0  0  0  0  0  0  0  0  0  0  0
  140.8270   71.1710  224.5370 C   0  0  0  0  0  0  0  0  0  0  0  0
  140.1340   73.2650  222.6590 N   0  0  0  0  0  0  0  0  0  0  0  0
  140.7630   76.6260  222.3930 C   0  0  0  0  0  0  0  0  0  0  0  0
  140.7230   77.7480  221.3740 C   0  0  0  0  0  0  0  0  0  0  0  0
  141.7560   80.0120  220.0850 C   0  0  0  0  0  0  0  0  0  0  0  0
  141.8660   81.1480  219.3090 C   0  0  0  0  0  0  0  0  0  0  0  0
  144.6875   82.9740  217.4490 H   0  0  0  0  0  0  0  0  0  0  0  0
  144.4529   82.0059  215.9542 H   0  0  0  0  0  0  0  0  0  0  0  0
  144.0794   83.7629  215.9542 H   0  0  0  0  0  0  0  0  0  0  0  0
  142.8808   79.6849  216.4120 H   0  0  0  0  0  0  0  0  0  0  0  0
  142.6837   77.6326  217.7968 H   0  0  0  0  0  0  0  0  0  0  0  0
  142.8094   77.5670  221.0813 H   0  0  0  0  0  0  0  0  0  0  0  0
  140.7826   76.3368  219.1204 H   0  0  0  0  0  0  0  0  0  0  0  0
  142.5446   76.2220  218.9192 H   0  0  0  0  0  0  0  0  0  0  0  0
  141.5785   74.2408  220.1167 H   0  0  0  0  0  0  0  0  0  0  0  0
  142.7515   75.1618  221.1372 H   0  0  0  0  0  0  0  0  0  0  0  0
  135.9640   73.0980  220.5070 H   0  0  0  0  0  0  0  0  0  0  0  0
  134.7688   75.0862  221.3099 H   0  0  0  0  0  0  0  0  0  0  0  0
  133.8873   72.8075  221.9348 H   0  0  0  0  0  0  0  0  0  0  0  0
  133.2699   74.3009  222.7673 H   0  0  0  0  0  0  0  0  0  0  0  0
  135.2292   72.2478  223.8354 H   0  0  0  0  0  0  0  0  0  0  0  0
  133.5549   72.6305  224.4191 H   0  0  0  0  0  0  0  0  0  0  0  0
  136.0441   73.7212  225.1507 H   0  0  0  0  0  0  0  0  0  0  0  0
  133.8580   75.1080  226.2810 H   0  0  0  0  0  0  0  0  0  0  0  0
  133.7060   73.3930  226.3990 H   0  0  0  0  0  0  0  0  0  0  0  0
  135.5013   76.1844  224.9612 H   0  0  0  0  0  0  0  0  0  0  0  0
  134.0680   75.7862  223.9892 H   0  0  0  0  0  0  0  0  0  0  0  0
  136.9102   74.8700  223.3446 H   0  0  0  0  0  0  0  0  0  0  0  0
  136.1271   76.3116  222.6227 H   0  0  0  0  0  0  0  0  0  0  0  0
  137.7854   70.2215  223.7492 H   0  0  0  0  0  0  0  0  0  0  0  0
  139.0154   69.5412  222.5662 H   0  0  0  0  0  0  0  0  0  0  0  0
  138.2692   68.2668  224.7476 H   0  0  0  0  0  0  0  0  0  0  0  0
  139.9541   68.2238  224.0441 H   0  0  0  0  0  0  0  0  0  0  0  0
  138.8242   67.7327  226.9204 H   0  0  0  0  0  0  0  0  0  0  0  0
  139.7969   68.5747  229.0810 H   0  0  0  0  0  0  0  0  0  0  0  0
  141.2153   70.5813  229.1082 H   0  0  0  0  0  0  0  0  0  0  0  0
  141.7160   71.8133  227.0157 H   0  0  0  0  0  0  0  0  0  0  0  0
  141.0830   72.2200  224.7471 H   0  0  0  0  0  0  0  0  0  0  0  0
  141.6696   70.6893  224.0194 H   0  0  0  0  0  0  0  0  0  0  0  0
  139.8884   76.6950  223.0565 H   0  0  0  0  0  0  0  0  0  0  0  0
  141.6755   76.7006  223.0028 H   0  0  0  0  0  0  0  0  0  0  0  0
  139.7924   77.6866  220.7908 H   0  0  0  0  0  0  0  0  0  0  0  0
  140.7586   78.7220  221.8840 H   0  0  0  0  0  0  0  0  0  0  0  0
  141.4352   80.0924  221.1341 H   0  0  0  0  0  0  0  0  0  0  0  0
  141.6375   82.1390  219.7281 H   0  0  0  0  0  0  0  0  0  0  0  0
  1  2  1  0
  2  3  2  0
  2  4  2  0
  2  5  1  0
  5  6  2  0
  6  7  1  0
  7  8  2  0
  8  9  1  0
  9 10  1  0
 10 11  1  0
 11 12  1  0
 12 13  1  0
 13 14  2  0
 14 15  1  0
 15 16  1  0
 16 17  1  0
 17 18  1  0
 18 19  1  0
 19 20  1  0
 20 21  1  0
 20 22  1  0
 22 23  1  0
 15 24  2  0
 24 25  1  0
 25 26  1  0
 26 27  1  0
 27 28  1  0
 28 29  1  0
 29 30  2  0
 30 31  1  0
 31 32  2  0
 32 33  1  0
 33 34  2  0
 34 35  1  0
 25 36  2  0
 12 37  1  0
 37 38  1  0
  8 39  1  0
 39 40  2  0
 40  5  1  0
 38  9  1  0
 36 13  1  0
 23 17  1  0
 35 26  1  0
 34 29  1  0
  1 41  1  0
  1 42  1  0
  1 43  1  0
  6 44  1  0
  7 45  1  0
  9 46  1  0
 10 47  1  0
 10 48  1  0
 11 49  1  0
 11 50  1  0
 16 51  1  0
 17 52  1  6
 18 53  1  0
 18 54  1  0
 19 55  1  0
 19 56  1  0
 20 57  1  1
 21 58  1  0
 21 59  1  0
 22 60  1  0
 22 61  1  0
 23 62  1  0
 23 63  1  0
 27 64  1  0
 27 65  1  0
 28 66  1  0
 28 67  1  0
 30 68  1  0
 31 69  1  0
 32 70  1  0
 33 71  1  0
 35 72  1  0
 35 73  1  0
 37 74  1  0
 37 75  1  0
 38 76  1  0
 38 77  1  0
 39 78  1  0
 40 79  1  0
M  END
>  <smiles>  (1) 
CS(=O)(=O)c1ccc(C2CCN(c3nc(N[C@H]4CC[C@H](N)CC4)nc(N4CCc5ccccc5C4)n3)CC2)cc1

>  <score_type>  (1) 
oracle

>  <origin>  (1) 
autodockgpu

>  <m_score__min__energy>  (1) 
-10.390000000000001

>  <m_primary>  (1) 
energy

>  <rmsd>  (1) 
10.424606292895199

>  <m_score__min__rmsd>  (1) 
10.424606292895199

>  <meeko>  (1) 
{"free_energy": -9.53, "intermolecular_energy": -11.62, "internal_energy": -1.66, "cluster_size": 12, "cluster_id": 4, "rank_in_cluster": 2}

>  <energy>  (1) 
-10.39

>  <cluster_rmsd>  (1) 
0.0

>  <cluster>  (1) 
1

$$$$

     RDKit          3D

 79 84  0  0  0  0  0  0  0  0999 V2000
  142.5420   81.7000  215.1400 C   0  0  0  0  0  0  0  0  0  0  0  0
  142.4860   82.3000  216.8120 S   0  0  0  0  0  0  0  0  0  0  0  0
  143.8220   82.9500  217.1230 O   0  0  0  0  0  0  0  0  0  0  0  0
  141.3680   83.3200  216.9340 O   0  0  0  0  0  0  0  0  0  0  0  0
  142.2610   81.0130  217.9720 C   0  0  0  0  0  0  0  0  0  0  0  0
  141.8250   81.2280  219.2620 C   0  0  0  0  0  0  0  0  0  0  0  0
  141.6580   80.1910  220.1570 C   0  0  0  0  0  0  0  0  0  0  0  0
  141.9430   78.9100  219.7170 C   0  0  0  0  0  0  0  0  0  0  0  0
  141.8040   77.7090  220.5810 C   0  0  0  0  0  0  0  0  0  0  0  0
  141.6270   76.4760  219.7160 C   0  0  0  0  0  0  0  0  0  0  0  0
  141.6650   75.2830  220.6430 C   0  0  0  0  0  0  0  0  0  0  0  0
  140.6580   75.4090  221.6980 N   0  0  0  0  0  0  0  0  0  0  0  0
  139.6990   74.3840  221.9450 C   0  0  0  0  0  0  0  0  0  0  0  0
  138.4270   74.4880  221.5220 N   0  0  0  0  0  0  0  0  0  0  0  0
  137.5040   73.5240  221.7510 C   0  0  0  0  0  0  0  0  0  0  0  0
  136.1660   73.6550  221.2870 N   0  0  0  0  0  0  0  0  0  0  0  0
  135.1850   74.4690  221.9570 C   0  0  1  0  0  0  0  0  0  0  0  0
  134.0850   73.6600  222.5860 C   0  0  0  0  0  0  0  0  0  0  0  0
  134.4710   73.1250  223.9460 C   0  0  0  0  0  0  0  0  0  0  0  0
  135.0200   74.2110  224.8420 C   0  0  2  0  0  0  0  0  0  0  0  0
  134.3380   74.3550  226.0880 N   0  0  0  0  0  0  0  0  0  0  0  0
  135.0260   75.5550  224.1400 C   0  0  0  0  0  0  0  0  0  0  0  0
  135.8750   75.4020  222.9210 C   0  0  0  0  0  0  0  0  0  0  0  0
  137.9060   72.4200  222.4370 N   0  0  0  0  0  0  0  0  0  0  0  0
  139.1690   72.2770  222.8770 C   0  0  0  0  0  0  0  0  0  0  0  0
  139.5570   71.1090  223.5910 N   0  0  0  0  0  0  0  0  0  0  0  0
  138.7390   69.9380  223.4580 C   0  0  0  0  0  0  0  0  0  0  0  0
  139.0870   68.8200  224.3850 C   0  0  0  0  0  0  0  0  0  0  0  0
  139.6740   69.2790  225.6700 C   0  0  0  0  0  0  0  0  0  0  0  0
  139.3890   68.5640  226.7960 C   0  0  0  0  0  0  0  0  0  0  0  0
  139.9510   69.0120  227.9930 C   0  0  0  0  0  0  0  0  0  0  0  0
  140.7540   70.1260  228.0180 C   0  0  0  0  0  0  0  0  0  0  0  0
  141.0310   70.8340  226.8700 C   0  0  0  0  0  0  0  0  0  0  0  0
  140.4830   70.4020  225.6890 C   0  0  0  0  0  0  0  0  0  0  0  0
  140.7530   71.1350  224.4190 C   0  0  0  0  0  0  0  0  0  0  0  0
  140.0510   73.2840  222.6140 N   0  0  0  0  0  0  0  0  0  0  0  0
  140.6970   76.6320  222.4750 C   0  0  0  0  0  0  0  0  0  0  0  0
  140.6430   77.8070  221.5180 C   0  0  0  0  0  0  0  0  0  0  0  0
  142.3870   78.6690  218.4120 C   0  0  0  0  0  0  0  0  0  0  0  0
  142.5490   79.7180  217.5310 C   0  0  0  0  0  0  0  0  0  0  0  0
  142.6443   80.6048  215.1467 H   0  0  0  0  0  0  0  0  0  0  0  0
  141.6140   81.9784  214.6192 H   0  0  0  0  0  0  0  0  0  0  0  0
  143.4025   82.1454  214.6192 H   0  0  0  0  0  0  0  0  0  0  0  0
  141.6039   82.2553  219.5871 H   0  0  0  0  0  0  0  0  0  0  0  0
  141.3106   80.3760  221.1842 H   0  0  0  0  0  0  0  0  0  0  0  0
  142.7216   77.6393  221.1836 H   0  0  0  0  0  0  0  0  0  0  0  0
  140.6612   76.5171  219.1912 H   0  0  0  0  0  0  0  0  0  0  0  0
  142.4192   76.4103  218.9556 H   0  0  0  0  0  0  0  0  0  0  0  0
  141.4665   74.3697  220.0629 H   0  0  0  0  0  0  0  0  0  0  0  0
  142.6594   75.2327  221.1105 H   0  0  0  0  0  0  0  0  0  0  0  0
  135.9030   73.1310  220.4210 H   0  0  0  0  0  0  0  0  0  0  0  0
  134.6686   75.0844  221.2055 H   0  0  0  0  0  0  0  0  0  0  0  0
  133.8484   72.8120  221.9266 H   0  0  0  0  0  0  0  0  0  0  0  0
  133.2157   74.3208  222.7190 H   0  0  0  0  0  0  0  0  0  0  0  0
  135.2385   72.3475  223.8179 H   0  0  0  0  0  0  0  0  0  0  0  0
  133.5674   72.7148  224.4207 H   0  0  0  0  0  0  0  0  0  0  0  0
  136.0454   73.8820  225.0664 H   0  0  0  0  0  0  0  0  0  0  0  0
  134.0470   73.4540  226.5060 H   0  0  0  0  0  0  0  0  0  0  0  0
  134.7940   74.9850  226.7810 H   0  0  0  0  0  0  0  0  0  0  0  0
  135.4486   76.3257  224.8014 H   0  0  0  0  0  0  0  0  0  0  0  0
  134.0049   75.8652  223.8731 H   0  0  0  0  0  0  0  0  0  0  0  0
  136.8530   74.9845  223.2025 H   0  0  0  0  0  0  0  0  0  0  0  0
  136.0249   76.3830  222.4465 H   0  0  0  0  0  0  0  0  0  0  0  0
  137.6948   70.2271  223.6480 H   0  0  0  0  0  0  0  0  0  0  0  0
  138.9069   69.5582  222.4394 H   0  0  0  0  0  0  0  0  0  0  0  0
  138.1715   68.2508  224.6037 H   0  0  0  0  0  0  0  0  0  0  0  0
  139.8485   68.2063  223.8815 H   0  0  0  0  0  0  0  0  0  0  0  0
  138.7445   67.6732  226.7625 H   0  0  0  0  0  0  0  0  0  0  0  0
  139.7484   68.4666  228.9265 H   0  0  0  0  0  0  0  0  0  0  0  0
  141.1843   70.4591  228.9740 H   0  0  0  0  0  0  0  0  0  0  0  0
  141.6761   71.7245  226.8992 H   0  0  0  0  0  0  0  0  0  0  0  0
  141.0218   72.1774  224.6453 H   0  0  0  0  0  0  0  0  0  0  0  0
  141.5851   70.6546  223.8835 H   0  0  0  0  0  0  0  0  0  0  0  0
  139.8341   76.6674  223.1562 H   0  0  0  0  0  0  0  0  0  0  0  0
  141.6200   76.6720  223.0720 H   0  0  0  0  0  0  0  0  0  0  0  0
  139.7026   77.7785  220.9480 H   0  0  0  0  0  0  0  0  0  0  0  0
  140.6897   78.7523  222.0786 H   0  0  0  0  0  0  0  0  0  0  0  0
  142.6072   77.6411  218.0881 H   0  0  0  0  0  0  0  0  0  0  0  0
  142.8975   79.5393  216.5031 H   0  0  0  0  0  0  0  0  0  0  0  0
  1  2  1  0
  2  3  2  0
  2  4  2  0
  2  5  1  0
  5  6  2  0
  6  7  1  0
  7  8  2  0
  8  9  1  0
  9 10  1  0
 10 11  1  0
 11 12  1  0
 12 13  1  0
 13 14  2  0
 14 15  1  0
 15 16  1  0
 16 17  1  0
 17 18  1  0
 18 19  1  0
 19 20  1  0
 20 21  1  0
 20 22  1  0
 22 23  1  0
 15 24  2  0
 24 25  1  0
 25 26  1  0
 26 27  1  0
 27 28  1  0
 28 29  1  0
 29 30  2  0
 30 31  1  0
 31 32  2  0
 32 33  1  0
 33 34  2  0
 34 35  1  0
 25 36  2  0
 12 37  1  0
 37 38  1  0
  8 39  1  0
 39 40  2  0
 40  5  1  0
 38  9  1  0
 36 13  1  0
 23 17  1  0
 35 26  1  0
 34 29  1  0
  1 41  1  0
  1 42  1  0
  1 43  1  0
  6 44  1  0
  7 45  1  0
  9 46  1  0
 10 47  1  0
 10 48  1  0
 11 49  1  0
 11 50  1  0
 16 51  1  0
 17 52  1  6
 18 53  1  0
 18 54  1  0
 19 55  1  0
 19 56  1  0
 20 57  1  1
 21 58  1  0
 21 59  1  0
 22 60  1  0
 22 61  1  0
 23 62  1  0
 23 63  1  0
 27 64  1  0
 27 65  1  0
 28 66  1  0
 28 67  1  0
 30 68  1  0
 31 69  1  0
 32 70  1  0
 33 71  1  0
 35 72  1  0
 35 73  1  0
 37 74  1  0
 37 75  1  0
 38 76  1  0
 38 77  1  0
 39 78  1  0
 40 79  1  0
M  END
>  <smiles>  (2) 
CS(=O)(=O)c1ccc(C2CCN(c3nc(N[C@H]4CC[C@H](N)CC4)nc(N4CCc5ccccc5C4)n3)CC2)cc1

>  <score_type>  (2) 
oracle

>  <origin>  (2) 
autodockgpu

>  <m_score__min__energy>  (2) 
-10.390000000000001

>  <m_primary>  (2) 
energy

>  <rmsd>  (2) 
10.571469401591449

>  <m_score__min__rmsd>  (2) 
10.571469401591449

>  <meeko>  (2) 
{"free_energy": -9.39, "intermolecular_energy": -11.47, "internal_energy": -1.65, "cluster_size": 12, "cluster_id": 4, "rank_in_cluster": 7}

>  <energy>  (2) 
-10.21

>  <cluster_rmsd>  (2) 
0.9

>  <cluster>  (2) 
1

$$$$

     RDKit          3D

 79 84  0  0  0  0  0  0  0  0999 V2000
  141.4830   82.3210  221.7950 C   0  0  0  0  0  0  0  0  0  0  0  0
  141.7790   80.9140  222.8400 S   0  0  0  0  0  0  0  0  0  0  0  0
  143.1370   80.3390  222.4810 O   0  0  0  0  0  0  0  0  0  0  0  0
  141.7690   81.3660  224.2900 O   0  0  0  0  0  0  0  0  0  0  0  0
  140.6030   79.6440  222.5930 C   0  0  0  0  0  0  0  0  0  0  0  0
  139.2430   79.8530  222.6600 C   0  0  0  0  0  0  0  0  0  0  0  0
  138.3390   78.8290  222.4620 C   0  0  0  0  0  0  0  0  0  0  0  0
  138.8430   77.5700  222.1900 C   0  0  0  0  0  0  0  0  0  0  0  0
  137.9780   76.3850  221.9570 C   0  0  0  0  0  0  0  0  0  0  0  0
  137.1120   76.1360  223.1770 C   0  0  0  0  0  0  0  0  0  0  0  0
  136.1450   75.0350  222.8110 C   0  0  0  0  0  0  0  0  0  0  0  0
  136.8600   73.8450  222.3470 N   0  0  0  0  0  0  0  0  0  0  0  0
  136.6360   72.5620  222.9280 C   0  0  0  0  0  0  0  0  0  0  0  0
  135.4150   72.0010  222.9560 N   0  0  0  0  0  0  0  0  0  0  0  0
  135.1880   70.7850  223.5070 C   0  0  0  0  0  0  0  0  0  0  0  0
  133.8870   70.2090  223.5170 N   0  0  0  0  0  0  0  0  0  0  0  0
  132.8270   70.6960  224.3620 C   0  0  1  0  0  0  0  0  0  0  0  0
  133.1070   70.4960  225.8260 C   0  0  0  0  0  0  0  0  0  0  0  0
  133.9760   71.5920  226.4000 C   0  0  0  0  0  0  0  0  0  0  0  0
  133.4440   72.9650  226.0610 C   0  0  2  0  0  0  0  0  0  0  0  0
  133.2000   73.8030  227.1910 N   0  0  0  0  0  0  0  0  0  0  0  0
  132.1700   72.8770  225.2440 C   0  0  0  0  0  0  0  0  0  0  0  0
  132.5050   72.1250  223.9990 C   0  0  0  0  0  0  0  0  0  0  0  0
  136.2510   70.1290  224.0430 N   0  0  0  0  0  0  0  0  0  0  0  0
  137.4890   70.6560  224.0350 C   0  0  0  0  0  0  0  0  0  0  0  0
  138.5810   69.9430  224.6050 N   0  0  0  0  0  0  0  0  0  0  0  0
  138.4280   68.5320  224.8100 C   0  0  0  0  0  0  0  0  0  0  0  0
  139.5260   67.8870  225.5920 C   0  0  0  0  0  0  0  0  0  0  0  0
  140.1700   68.8010  226.5690 C   0  0  0  0  0  0  0  0  0  0  0  0
  140.6100   68.2720  227.7460 C   0  0  0  0  0  0  0  0  0  0  0  0
  141.2130   69.1480  228.6510 C   0  0  0  0  0  0  0  0  0  0  0  0
  141.3500   70.4820  228.3530 C   0  0  0  0  0  0  0  0  0  0  0  0
  140.8990   70.9970  227.1580 C   0  0  0  0  0  0  0  0  0  0  0  0
  140.3050   70.1440  226.2630 C   0  0  0  0  0  0  0  0  0  0  0  0
  139.8010   70.6540  224.9550 C   0  0  0  0  0  0  0  0  0  0  0  0
  137.6530   71.8850  223.4660 N   0  0  0  0  0  0  0  0  0  0  0  0
  137.8020   74.0470  221.2640 C   0  0  0  0  0  0  0  0  0  0  0  0
  138.7650   75.1460  221.6690 C   0  0  0  0  0  0  0  0  0  0  0  0
  140.2220   77.3350  222.1180 C   0  0  0  0  0  0  0  0  0  0  0  0
  141.1110   78.3710  222.3190 C   0  0  0  0  0  0  0  0  0  0  0  0
  141.2964   83.2079  222.4183 H   0  0  0  0  0  0  0  0  0  0  0  0
  142.3636   82.4978  221.1600 H   0  0  0  0  0  0  0  0  0  0  0  0
  140.6058   82.1280  221.1600 H   0  0  0  0  0  0  0  0  0  0  0  0
  138.8672   80.8637  222.8773 H   0  0  0  0  0  0  0  0  0  0  0  0
  137.2551   79.0080  222.5186 H   0  0  0  0  0  0  0  0  0  0  0  0
  137.3609   76.6087  221.0743 H   0  0  0  0  0  0  0  0  0  0  0  0
  137.7366   75.8239  224.0270 H   0  0  0  0  0  0  0  0  0  0  0  0
  136.5752   77.0497  223.4720 H   0  0  0  0  0  0  0  0  0  0  0  0
  135.5458   74.7731  223.6955 H   0  0  0  0  0  0  0  0  0  0  0  0
  135.4951   75.3935  221.9992 H   0  0  0  0  0  0  0  0  0  0  0  0
  133.7120   69.4000  222.8780 H   0  0  0  0  0  0  0  0  0  0  0  0
  131.9269   70.0917  224.1762 H   0  0  0  0  0  0  0  0  0  0  0  0
  133.6196   69.5319  225.9594 H   0  0  0  0  0  0  0  0  0  0  0  0
  132.1445   70.5169  226.3582 H   0  0  0  0  0  0  0  0  0  0  0  0
  134.9919   71.4925  225.9900 H   0  0  0  0  0  0  0  0  0  0  0  0
  133.9797   71.4874  227.4950 H   0  0  0  0  0  0  0  0  0  0  0  0
  134.2516   73.4303  225.4768 H   0  0  0  0  0  0  0  0  0  0  0  0
  132.5760   74.6020  226.9840 H   0  0  0  0  0  0  0  0  0  0  0  0
  132.9360   73.3090  228.0700 H   0  0  0  0  0  0  0  0  0  0  0  0
  131.8118   73.8860  224.9918 H   0  0  0  0  0  0  0  0  0  0  0  0
  131.3741   72.3694  225.8087 H   0  0  0  0  0  0  0  0  0  0  0  0
  133.3761   72.5873  223.5116 H   0  0  0  0  0  0  0  0  0  0  0  0
  131.6500   72.1500  223.3074 H   0  0  0  0  0  0  0  0  0  0  0  0
  137.4826   68.3653  225.3470 H   0  0  0  0  0  0  0  0  0  0  0  0
  138.4487   68.0712  223.8114 H   0  0  0  0  0  0  0  0  0  0  0  0
  139.1069   67.0302  226.1400 H   0  0  0  0  0  0  0  0  0  0  0  0
  140.3008   67.5822  224.8731 H   0  0  0  0  0  0  0  0  0  0  0  0
  140.4950   67.2018  227.9729 H   0  0  0  0  0  0  0  0  0  0  0  0
  141.5826   68.7654  229.6138 H   0  0  0  0  0  0  0  0  0  0  0  0
  141.8290   71.1515  229.0826 H   0  0  0  0  0  0  0  0  0  0  0  0
  141.0124   72.0665  226.9269 H   0  0  0  0  0  0  0  0  0  0  0  0
  139.5896   71.7304  225.0361 H   0  0  0  0  0  0  0  0  0  0  0  0
  140.5608   70.4917  224.1763 H   0  0  0  0  0  0  0  0  0  0  0  0
  138.3575   73.1164  221.0759 H   0  0  0  0  0  0  0  0  0  0  0  0
  137.2679   74.3309  220.3453 H   0  0  0  0  0  0  0  0  0  0  0  0
  139.3189   74.8408  222.5690 H   0  0  0  0  0  0  0  0  0  0  0  0
  139.4828   75.3358  220.8574 H   0  0  0  0  0  0  0  0  0  0  0  0
  140.5966   76.3237  221.9010 H   0  0  0  0  0  0  0  0  0  0  0  0
  142.1961   78.1988  222.2648 H   0  0  0  0  0  0  0  0  0  0  0  0
  1  2  1  0
  2  3  2  0
  2  4  2  0
  2  5  1  0
  5  6  2  0
  6  7  1  0
  7  8  2  0
  8  9  1  0
  9 10  1  0
 10 11  1  0
 11 12  1  0
 12 13  1  0
 13 14  2  0
 14 15  1  0
 15 16  1  0
 16 17  1  0
 17 18  1  0
 18 19  1  0
 19 20  1  0
 20 21  1  0
 20 22  1  0
 22 23  1  0
 15 24  2  0
 24 25  1  0
 25 26  1  0
 26 27  1  0
 27 28  1  0
 28 29  1  0
 29 30  2  0
 30 31  1  0
 31 32  2  0
 32 33  1  0
 33 34  2  0
 34 35  1  0
 25 36  2  0
 12 37  1  0
 37 38  1  0
  8 39  1  0
 39 40  2  0
 40  5  1  0
 38  9  1  0
 36 13  1  0
 23 17  1  0
 35 26  1  0
 34 29  1  0
  1 41  1  0
  1 42  1  0
  1 43  1  0
  6 44  1  0
  7 45  1  0
  9 46  1  0
 10 47  1  0
 10 48  1  0
 11 49  1  0
 11 50  1  0
 16 51  1  0
 17 52  1  6
 18 53  1  0
 18 54  1  0
 19 55  1  0
 19 56  1  0
 20 57  1  6
 21 58  1  0
 21 59  1  0
 22 60  1  0
 22 61  1  0
 23 62  1  0
 23 63  1  0
 27 64  1  0
 27 65  1  0
 28 66  1  0
 28 67  1  0
 30 68  1  0
 31 69  1  0
 32 70  1  0
 33 71  1  0
 35 72  1  0
 35 73  1  0
 37 74  1  0
 37 75  1  0
 38 76  1  0
 38 77  1  0
 39 78  1  0
 40 79  1  0
M  END
>  <smiles>  (3) 
CS(=O)(=O)c1ccc(C2CCN(c3nc(N[C@H]4CC[C@H](N)CC4)nc(N4CCc5ccccc5C4)n3)CC2)cc1

>  <score_type>  (3) 
oracle

>  <origin>  (3) 
autodockgpu

>  <m_score__min__energy>  (3) 
-10.390000000000001

>  <m_primary>  (3) 
energy

>  <rmsd>  (3) 
8.016166075460932

>  <m_score__min__rmsd>  (3) 
8.016166075460932

>  <meeko>  (3) 
{"free_energy": -10.16, "intermolecular_energy": -12.25, "internal_energy": -1.79, "cluster_size": 18, "cluster_id": 2, "rank_in_cluster": 4}

>  <energy>  (3) 
-10.17

>  <cluster_rmsd>  (3) 
1.02

>  <cluster>  (3) 
1

$$$$

     RDKit          3D

 79 84  0  0  0  0  0  0  0  0999 V2000
  134.7630   81.7800  226.3440 C   0  0  0  0  0  0  0  0  0  0  0  0
  136.3890   82.2220  225.7790 S   0  0  0  0  0  0  0  0  0  0  0  0
  136.2650   83.4660  224.9180 O   0  0  0  0  0  0  0  0  0  0  0  0
  137.2710   82.5050  226.9810 O   0  0  0  0  0  0  0  0  0  0  0  0
  137.1050   80.9790  224.7810 C   0  0  0  0  0  0  0  0  0  0  0  0
  138.4660   80.8500  224.5970 C   0  0  0  0  0  0  0  0  0  0  0  0
  139.0020   79.8590  223.8020 C   0  0  0  0  0  0  0  0  0  0  0  0
  138.1250   78.9830  223.1860 C   0  0  0  0  0  0  0  0  0  0  0  0
  138.5740   77.8730  222.3050 C   0  0  0  0  0  0  0  0  0  0  0  0
  137.9160   76.5780  222.7400 C   0  0  0  0  0  0  0  0  0  0  0  0
  138.2780   75.5360  221.7070 C   0  0  0  0  0  0  0  0  0  0  0  0
  139.7310   75.4330  221.5560 N   0  0  0  0  0  0  0  0  0  0  0  0
  140.4110   74.1880  221.6820 C   0  0  0  0  0  0  0  0  0  0  0  0
  139.9170   73.1830  222.4270 N   0  0  0  0  0  0  0  0  0  0  0  0
  140.5540   71.9950  222.5580 C   0  0  0  0  0  0  0  0  0  0  0  0
  140.0060   70.9450  223.3460 N   0  0  0  0  0  0  0  0  0  0  0  0
  139.7590   71.0790  224.7580 C   0  0  1  0  0  0  0  0  0  0  0  0
  138.8160   70.0350  225.2890 C   0  0  0  0  0  0  0  0  0  0  0  0
  139.5160   68.7330  225.6030 C   0  0  0  0  0  0  0  0  0  0  0  0
  140.7380   68.9480  226.4660 C   0  0  2  0  0  0  0  0  0  0  0  0
  140.7430   68.2050  227.6850 N   0  0  0  0  0  0  0  0  0  0  0  0
  140.9290   70.4150  226.7970 C   0  0  0  0  0  0  0  0  0  0  0  0
  141.0730   71.1370  225.4990 C   0  0  0  0  0  0  0  0  0  0  0  0
  141.7350   71.8390  221.9010 N   0  0  0  0  0  0  0  0  0  0  0  0
  142.2630   72.8190  221.1460 C   0  0  0  0  0  0  0  0  0  0  0  0
  143.5010   72.6230  220.4710 N   0  0  0  0  0  0  0  0  0  0  0  0
  144.5780   73.5220  220.7700 C   0  0  0  0  0  0  0  0  0  0  0  0
  145.7730   73.3860  219.8840 C   0  0  0  0  0  0  0  0  0  0  0  0
  145.4430   72.9150  218.5150 C   0  0  0  0  0  0  0  0  0  0  0  0
  146.1880   73.3930  217.4770 C   0  0  0  0  0  0  0  0  0  0  0  0
  145.8610   72.9370  216.1980 C   0  0  0  0  0  0  0  0  0  0  0  0
  144.8330   72.0460  216.0110 C   0  0  0  0  0  0  0  0  0  0  0  0
  144.0940   71.5750  217.0730 C   0  0  0  0  0  0  0  0  0  0  0  0
  144.4070   72.0170  218.3330 C   0  0  0  0  0  0  0  0  0  0  0  0
  143.6350   71.5360  219.5150 C   0  0  0  0  0  0  0  0  0  0  0  0
  141.5730   73.9920  221.0540 N   0  0  0  0  0  0  0  0  0  0  0  0
  140.4320   76.6700  221.2690 C   0  0  0  0  0  0  0  0  0  0  0  0
  140.0580   77.6880  222.3290 C   0  0  0  0  0  0  0  0  0  0  0  0
  136.7400   79.0950  223.3590 C   0  0  0  0  0  0  0  0  0  0  0  0
  136.2210   80.0930  224.1570 C   0  0  0  0  0  0  0  0  0  0  0  0
  134.7457   81.7753  227.4438 H   0  0  0  0  0  0  0  0  0  0  0  0
  134.0329   82.5123  225.9689 H   0  0  0  0  0  0  0  0  0  0  0  0
  134.5040   80.7789  225.9689 H   0  0  0  0  0  0  0  0  0  0  0  0
  139.1427   81.5575  225.0985 H   0  0  0  0  0  0  0  0  0  0  0  0
  140.0892   79.7677  223.6621 H   0  0  0  0  0  0  0  0  0  0  0  0
  138.2804   78.1378  221.2785 H   0  0  0  0  0  0  0  0  0  0  0  0
  138.2906   76.2766  223.7294 H   0  0  0  0  0  0  0  0  0  0  0  0
  136.8250   76.6958  222.8164 H   0  0  0  0  0  0  0  0  0  0  0  0
  137.8787   74.5611  222.0235 H   0  0  0  0  0  0  0  0  0  0  0  0
  137.8443   75.8333  220.7408 H   0  0  0  0  0  0  0  0  0  0  0  0
  139.7790   70.0470  222.8620 H   0  0  0  0  0  0  0  0  0  0  0  0
  139.2327   72.0292  224.9316 H   0  0  0  0  0  0  0  0  0  0  0  0
  138.0382   69.8450  224.5347 H   0  0  0  0  0  0  0  0  0  0  0  0
  138.3842   70.4181  226.2254 H   0  0  0  0  0  0  0  0  0  0  0  0
  139.8248   68.2581  224.6601 H   0  0  0  0  0  0  0  0  0  0  0  0
  138.8143   68.0918  226.1566 H   0  0  0  0  0  0  0  0  0  0  0  0
  141.5703   68.5741  225.8516 H   0  0  0  0  0  0  0  0  0  0  0  0
  140.2370   67.3040  227.6220 H   0  0  0  0  0  0  0  0  0  0  0  0
  141.6700   68.1080  228.1500 H   0  0  0  0  0  0  0  0  0  0  0  0
  141.8339   70.5503  227.4076 H   0  0  0  0  0  0  0  0  0  0  0  0
  140.0749   70.8036  227.3711 H   0  0  0  0  0  0  0  0  0  0  0  0
  141.8585   70.6585  224.8956 H   0  0  0  0  0  0  0  0  0  0  0  0
  141.3499   72.1853  225.6847 H   0  0  0  0  0  0  0  0  0  0  0  0
  144.1999   74.5510  220.6788 H   0  0  0  0  0  0  0  0  0  0  0  0
  144.9165   73.2719  221.7863 H   0  0  0  0  0  0  0  0  0  0  0  0
  146.2626   74.3680  219.8061 H   0  0  0  0  0  0  0  0  0  0  0  0
  146.4288   72.6286  220.3382 H   0  0  0  0  0  0  0  0  0  0  0  0
  147.0097   74.1059  217.6401 H   0  0  0  0  0  0  0  0  0  0  0  0
  146.4337   73.2959  215.3302 H   0  0  0  0  0  0  0  0  0  0  0  0
  144.5954   71.7020  214.9935 H   0  0  0  0  0  0  0  0  0  0  0  0
  143.2721   70.8612  216.9146 H   0  0  0  0  0  0  0  0  0  0  0  0
  142.6370   71.2040  219.1927 H   0  0  0  0  0  0  0  0  0  0  0  0
  144.1635   70.6931  219.9844 H   0  0  0  0  0  0  0  0  0  0  0  0
  141.5178   76.4950  221.2884 H   0  0  0  0  0  0  0  0  0  0  0  0
  140.1517   77.0413  220.2722 H   0  0  0  0  0  0  0  0  0  0  0  0
  140.3709   77.3251  223.3191 H   0  0  0  0  0  0  0  0  0  0  0  0
  140.5610   78.6452  222.1271 H   0  0  0  0  0  0  0  0  0  0  0  0
  136.0649   78.3859  222.8576 H   0  0  0  0  0  0  0  0  0  0  0  0
  135.1346   80.1900  224.2996 H   0  0  0  0  0  0  0  0  0  0  0  0
  1  2  1  0
  2  3  2  0
  2  4  2  0
  2  5  1  0
  5  6  2  0
  6  7  1  0
  7  8  2  0
  8  9  1  0
  9 10  1  0
 10 11  1  0
 11 12  1  0
 12 13  1  0
 13 14  2  0
 14 15  1  0
 15 16  1  0
 16 17  1  0
 17 18  1  0
 18 19  1  0
 19 20  1  0
 20 21  1  0
 20 22  1  0
 22 23  1  0
 15 24  2  0
 24 25  1  0
 25 26  1  0
 26 27  1  0
 27 28  1  0
 28 29  1  0
 29 30  2  0
 30 31  1  0
 31 32  2  0
 32 33  1  0
 33 34  2  0
 34 35  1  0
 25 36  2  0
 12 37  1  0
 37 38  1  0
  8 39  1  0
 39 40  2  0
 40  5  1  0
 38  9  1  0
 36 13  1  0
 23 17  1  0
 35 26  1  0
 34 29  1  0
  1 41  1  0
  1 42  1  0
  1 43  1  0
  6 44  1  0
  7 45  1  0
  9 46  1  0
 10 47  1  0
 10 48  1  0
 11 49  1  0
 11 50  1  0
 16 51  1  0
 17 52  1  6
 18 53  1  0
 18 54  1  0
 19 55  1  0
 19 56  1  0
 20 57  1  6
 21 58  1  0
 21 59  1  0
 22 60  1  0
 22 61  1  0
 23 62  1  0
 23 63  1  0
 27 64  1  0
 27 65  1  0
 28 66  1  0
 28 67  1  0
 30 68  1  0
 31 69  1  0
 32 70  1  0
 33 71  1  0
 35 72  1  0
 35 73  1  0
 37 74  1  0
 37 75  1  0
 38 76  1  0
 38 77  1  0
 39 78  1  0
 40 79  1  0
M  END
>  <smiles>  (4) 
CS(=O)(=O)c1ccc(C2CCN(c3nc(N[C@H]4CC[C@H](N)CC4)nc(N4CCc5ccccc5C4)n3)CC2)cc1

>  <score_type>  (4) 
oracle

>  <origin>  (4) 
autodockgpu

>  <m_score__min__energy>  (4) 
-10.390000000000001

>  <m_primary>  (4) 
energy

>  <rmsd>  (4) 
9.000613815737474

>  <m_score__min__rmsd>  (4) 
9.000613815737474

>  <meeko>  (4) 
{"free_energy": -9.35, "intermolecular_energy": -11.44, "internal_energy": -1.38, "cluster_size": 3, "cluster_id": 5, "rank_in_cluster": 1}

>  <energy>  (4) 
-9.89

>  <cluster_rmsd>  (4) 
1.31

>  <cluster>  (4) 
1

$$$$

     RDKit          3D

 79 84  0  0  0  0  0  0  0  0999 V2000
  145.1430   71.1000  219.6510 C   0  0  0  0  0  0  0  0  0  0  0  0
  145.4880   72.8160  219.9570 S   0  0  0  0  0  0  0  0  0  0  0  0
  146.2740   72.9130  221.2520 O   0  0  0  0  0  0  0  0  0  0  0  0
  146.3070   73.3680  218.8050 O   0  0  0  0  0  0  0  0  0  0  0  0
  144.0320   73.7580  220.1710 C   0  0  0  0  0  0  0  0  0  0  0  0
  142.9120   73.2800  220.8180 C   0  0  0  0  0  0  0  0  0  0  0  0
  141.7760   74.0470  220.9700 C   0  0  0  0  0  0  0  0  0  0  0  0
  141.7920   75.3290  220.4500 C   0  0  0  0  0  0  0  0  0  0  0  0
  140.6340   76.2560  220.5470 C   0  0  0  0  0  0  0  0  0  0  0  0
  140.6480   76.9520  221.8940 C   0  0  0  0  0  0  0  0  0  0  0  0
  139.5560   77.9950  221.8590 C   0  0  0  0  0  0  0  0  0  0  0  0
  138.2660   77.3900  221.5270 N   0  0  0  0  0  0  0  0  0  0  0  0
  137.1170   77.5710  222.3510 C   0  0  0  0  0  0  0  0  0  0  0  0
  136.1630   76.6290  222.4530 N   0  0  0  0  0  0  0  0  0  0  0  0
  135.0660   76.7880  223.2300 C   0  0  0  0  0  0  0  0  0  0  0  0
  134.0740   75.7730  223.3260 N   0  0  0  0  0  0  0  0  0  0  0  0
  134.2490   74.5860  224.1220 C   0  0  1  0  0  0  0  0  0  0  0  0
  134.9240   74.8580  225.4380 C   0  0  0  0  0  0  0  0  0  0  0  0
  133.9540   75.3410  226.4930 C   0  0  0  0  0  0  0  0  0  0  0  0
  132.7470   74.4380  226.6000 C   0  0  2  0  0  0  0  0  0  0  0  0
  132.5110   73.9140  227.9070 N   0  0  0  0  0  0  0  0  0  0  0  0
  132.8360   73.2790  225.6270 C   0  0  0  0  0  0  0  0  0  0  0  0
  132.9280   73.8680  224.2590 C   0  0  0  0  0  0  0  0  0  0  0  0
  134.9490   77.9520  223.9230 N   0  0  0  0  0  0  0  0  0  0  0  0
  135.8820   78.9200  223.8490 C   0  0  0  0  0  0  0  0  0  0  0  0
  135.7310   80.1270  224.5880 N   0  0  0  0  0  0  0  0  0  0  0  0
  136.8580   81.0100  224.6680 C   0  0  0  0  0  0  0  0  0  0  0  0
  136.6960   82.1500  225.6200 C   0  0  0  0  0  0  0  0  0  0  0  0
  135.8010   81.8420  226.7640 C   0  0  0  0  0  0  0  0  0  0  0  0
  136.0910   82.4050  227.9720 C   0  0  0  0  0  0  0  0  0  0  0  0
  135.2370   82.1020  229.0360 C   0  0  0  0  0  0  0  0  0  0  0  0
  134.1580   81.2720  228.8550 C   0  0  0  0  0  0  0  0  0  0  0  0
  133.8830   80.7140  227.6270 C   0  0  0  0  0  0  0  0  0  0  0  0
  134.7150   81.0050  226.5770 C   0  0  0  0  0  0  0  0  0  0  0  0
  134.4590   80.4250  225.2270 C   0  0  0  0  0  0  0  0  0  0  0  0
  136.9640   78.6990  223.0480 N   0  0  0  0  0  0  0  0  0  0  0  0
  138.2250   76.5990  220.3110 C   0  0  0  0  0  0  0  0  0  0  0  0
  139.3220   75.5550  220.3840 C   0  0  0  0  0  0  0  0  0  0  0  0
  142.9170   75.8350  219.7890 C   0  0  0  0  0  0  0  0  0  0  0  0
  144.0450   75.0530  219.6450 C   0  0  0  0  0  0  0  0  0  0  0  0
  145.0366   70.5708  220.6095 H   0  0  0  0  0  0  0  0  0  0  0  0
  144.2089   71.0105  219.0771 H   0  0  0  0  0  0  0  0  0  0  0  0
  145.9699   70.6564  219.0771 H   0  0  0  0  0  0  0  0  0  0  0  0
  142.9250   72.2579  221.2244 H   0  0  0  0  0  0  0  0  0  0  0  0
  140.8882   73.6533  221.4866 H   0  0  0  0  0  0  0  0  0  0  0  0
  140.7356   76.9825  219.7273 H   0  0  0  0  0  0  0  0  0  0  0  0
  140.4525   76.2262  222.6971 H   0  0  0  0  0  0  0  0  0  0  0  0
  141.6274   77.4131  222.0893 H   0  0  0  0  0  0  0  0  0  0  0  0
  139.4851   78.4753  222.8461 H   0  0  0  0  0  0  0  0  0  0  0  0
  139.8046   78.7380  221.0869 H   0  0  0  0  0  0  0  0  0  0  0  0
  133.1870   75.9130  222.7900 H   0  0  0  0  0  0  0  0  0  0  0  0
  134.9441   73.9137  223.5978 H   0  0  0  0  0  0  0  0  0  0  0  0
  135.6948   75.6281  225.2874 H   0  0  0  0  0  0  0  0  0  0  0  0
  135.3627   73.9135  225.7921 H   0  0  0  0  0  0  0  0  0  0  0  0
  133.6181   76.3550  226.2305 H   0  0  0  0  0  0  0  0  0  0  0  0
  134.4726   75.3355  227.4630 H   0  0  0  0  0  0  0  0  0  0  0  0
  131.8986   75.0926  226.3515 H   0  0  0  0  0  0  0  0  0  0  0  0
  132.8160   72.9320  228.0190 H   0  0  0  0  0  0  0  0  0  0  0  0
  132.8190   74.5190  228.6970 H   0  0  0  0  0  0  0  0  0  0  0  0
  131.9388   72.6477  225.7075 H   0  0  0  0  0  0  0  0  0  0  0  0
  133.7110   72.6488  225.8441 H   0  0  0  0  0  0  0  0  0  0  0  0
  132.1035   74.5802  224.1077 H   0  0  0  0  0  0  0  0  0  0  0  0
  132.8582   73.0702  223.5049 H   0  0  0  0  0  0  0  0  0  0  0  0
  137.7317   80.4215  224.9848 H   0  0  0  0  0  0  0  0  0  0  0  0
  136.9730   81.4556  223.6689 H   0  0  0  0  0  0  0  0  0  0  0  0
  137.6871   82.4175  226.0152 H   0  0  0  0  0  0  0  0  0  0  0  0
  136.2339   82.9765  225.0603 H   0  0  0  0  0  0  0  0  0  0  0  0
  136.9587   83.0682  228.1030 H   0  0  0  0  0  0  0  0  0  0  0  0
  135.4312   82.5330  230.0292 H   0  0  0  0  0  0  0  0  0  0  0  0
  133.5005   81.0487  229.7081 H   0  0  0  0  0  0  0  0  0  0  0  0
  133.0163   80.0504  227.4915 H   0  0  0  0  0  0  0  0  0  0  0  0
  133.8723   79.5001  225.3287 H   0  0  0  0  0  0  0  0  0  0  0  0
  133.8965   81.1453  224.6148 H   0  0  0  0  0  0  0  0  0  0  0  0
  137.2465   76.1045  220.2220 H   0  0  0  0  0  0  0  0  0  0  0  0
  138.3751   77.2453  219.4336 H   0  0  0  0  0  0  0  0  0  0  0  0
  139.1464   74.8916  221.2437 H   0  0  0  0  0  0  0  0  0  0  0  0
  139.3291   74.9506  219.4650 H   0  0  0  0  0  0  0  0  0  0  0  0
  142.9022   76.8575  219.3836 H   0  0  0  0  0  0  0  0  0  0  0  0
  144.9350   75.4404  219.1275 H   0  0  0  0  0  0  0  0  0  0  0  0
  1  2  1  0
  2  3  2  0
  2  4  2  0
  2  5  1  0
  5  6  2  0
  6  7  1  0
  7  8  2  0
  8  9  1  0
  9 10  1  0
 10 11  1  0
 11 12  1  0
 12 13  1  0
 13 14  2  0
 14 15  1  0
 15 16  1  0
 16 17  1  0
 17 18  1  0
 18 19  1  0
 19 20  1  0
 20 21  1  0
 20 22  1  0
 22 23  1  0
 15 24  2  0
 24 25  1  0
 25 26  1  0
 26 27  1  0
 27 28  1  0
 28 29  1  0
 29 30  2  0
 30 31  1  0
 31 32  2  0
 32 33  1  0
 33 34  2  0
 34 35  1  0
 25 36  2  0
 12 37  1  0
 37 38  1  0
  8 39  1  0
 39 40  2  0
 40  5  1  0
 38  9  1  0
 36 13  1  0
 23 17  1  0
 35 26  1  0
 34 29  1  0
  1 41  1  0
  1 42  1  0
  1 43  1  0
  6 44  1  0
  7 45  1  0
  9 46  1  0
 10 47  1  0
 10 48  1  0
 11 49  1  0
 11 50  1  0
 16 51  1  0
 17 52  1  6
 18 53  1  0
 18 54  1  0
 19 55  1  0
 19 56  1  0
 20 57  1  6
 21 58  1  0
 21 59  1  0
 22 60  1  0
 22 61  1  0
 23 62  1  0
 23 63  1  0
 27 64  1  0
 27 65  1  0
 28 66  1  0
 28 67  1  0
 30 68  1  0
 31 69  1  0
 32 70  1  0
 33 71  1  0
 35 72  1  0
 35 73  1  0
 37 74  1  0
 37 75  1  0
 38 76  1  0
 38 77  1  0
 39 78  1  0
 40 79  1  0
M  END
>  <smiles>  (5) 
CS(=O)(=O)c1ccc(C2CCN(c3nc(N[C@H]4CC[C@H](N)CC4)nc(N4CCc5ccccc5C4)n3)CC2)cc1

>  <score_type>  (5) 
oracle

>  <origin>  (5) 
autodockgpu

>  <m_score__min__energy>  (5) 
-10.390000000000001

>  <m_primary>  (5) 
energy

>  <rmsd>  (5) 
7.521452899825818

>  <m_score__min__rmsd>  (5) 
7.521452899825818

>  <meeko>  (5) 
{"free_energy": -9.04, "intermolecular_energy": -11.12, "internal_energy": -1.54, "cluster_size": 1, "cluster_id": 8, "rank_in_cluster": 1}

>  <energy>  (5) 
-10.37

>  <cluster_rmsd>  (5) 
0.0

>  <cluster>  (5) 
2

$$$$

     RDKit          3D

 79 84  0  0  0  0  0  0  0  0999 V2000
  141.8260   82.1230  221.6340 C   0  0  0  0  0  0  0  0  0  0  0  0
  141.9270   80.8830  222.9020 S   0  0  0  0  0  0  0  0  0  0  0  0
  143.2920   80.2260  222.8090 O   0  0  0  0  0  0  0  0  0  0  0  0
  141.7590   81.5480  224.2570 O   0  0  0  0  0  0  0  0  0  0  0  0
  140.7360   79.6210  222.6950 C   0  0  0  0  0  0  0  0  0  0  0  0
  139.4240   79.7480  223.1000 C   0  0  0  0  0  0  0  0  0  0  0  0
  138.5070   78.7320  222.9240 C   0  0  0  0  0  0  0  0  0  0  0  0
  138.9450   77.5670  222.3200 C   0  0  0  0  0  0  0  0  0  0  0  0
  138.0580   76.4010  222.0720 C   0  0  0  0  0  0  0  0  0  0  0  0
  137.2230   76.1230  223.3070 C   0  0  0  0  0  0  0  0  0  0  0  0
  136.2310   75.0460  222.9310 C   0  0  0  0  0  0  0  0  0  0  0  0
  136.9180   73.8630  222.4100 N   0  0  0  0  0  0  0  0  0  0  0  0
  136.6930   72.5660  222.9550 C   0  0  0  0  0  0  0  0  0  0  0  0
  135.4770   71.9920  222.9400 N   0  0  0  0  0  0  0  0  0  0  0  0
  135.2490   70.7610  223.4560 C   0  0  0  0  0  0  0  0  0  0  0  0
  133.9540   70.1730  223.4210 N   0  0  0  0  0  0  0  0  0  0  0  0
  132.9210   70.5060  224.3680 C   0  0  1  0  0  0  0  0  0  0  0  0
  133.3500   70.3040  225.7950 C   0  0  0  0  0  0  0  0  0  0  0  0
  134.1300   71.4820  226.3330 C   0  0  0  0  0  0  0  0  0  0  0  0
  133.4120   72.7890  226.0900 C   0  0  2  0  0  0  0  0  0  0  0  0
  133.1700   73.5620  227.2650 N   0  0  0  0  0  0  0  0  0  0  0  0
  132.0910   72.5690  225.3790 C   0  0  0  0  0  0  0  0  0  0  0  0
  132.4030   71.8940  224.0850 C   0  0  0  0  0  0  0  0  0  0  0  0
  136.3050   70.1020  224.0030 N   0  0  0  0  0  0  0  0  0  0  0  0
  137.5380   70.6410  224.0380 C   0  0  0  0  0  0  0  0  0  0  0  0
  138.6230   69.9250  224.6170 N   0  0  0  0  0  0  0  0  0  0  0  0
  138.4600   68.5160  224.8280 C   0  0  0  0  0  0  0  0  0  0  0  0
  139.5500   67.8690  225.6190 C   0  0  0  0  0  0  0  0  0  0  0  0
  140.1940   68.7850  226.5960 C   0  0  0  0  0  0  0  0  0  0  0  0
  140.6240   68.2590  227.7780 C   0  0  0  0  0  0  0  0  0  0  0  0
  141.2260   69.1360  228.6830 C   0  0  0  0  0  0  0  0  0  0  0  0
  141.3710   70.4680  228.3790 C   0  0  0  0  0  0  0  0  0  0  0  0
  140.9310   70.9790  227.1790 C   0  0  0  0  0  0  0  0  0  0  0  0
  140.3380   70.1250  226.2840 C   0  0  0  0  0  0  0  0  0  0  0  0
  139.8440   70.6310  224.9710 C   0  0  0  0  0  0  0  0  0  0  0  0
  137.7030   71.8850  223.5020 N   0  0  0  0  0  0  0  0  0  0  0  0
  137.8340   74.0890  221.3090 C   0  0  0  0  0  0  0  0  0  0  0  0
  138.8220   75.1630  221.7230 C   0  0  0  0  0  0  0  0  0  0  0  0
  140.2730   77.4160  221.9010 C   0  0  0  0  0  0  0  0  0  0  0  0
  141.1770   78.4420  222.0860 C   0  0  0  0  0  0  0  0  0  0  0  0
  141.7451   83.1168  222.0986 H   0  0  0  0  0  0  0  0  0  0  0  0
  142.7304   82.0829  221.0091 H   0  0  0  0  0  0  0  0  0  0  0  0
  140.9400   81.9371  221.0091 H   0  0  0  0  0  0  0  0  0  0  0  0
  139.0995   80.6849  223.5764 H   0  0  0  0  0  0  0  0  0  0  0  0
  137.4633   78.8446  223.2527 H   0  0  0  0  0  0  0  0  0  0  0  0
  137.4195   76.6602  221.2146 H   0  0  0  0  0  0  0  0  0  0  0  0
  137.8664   75.7749  224.1285 H   0  0  0  0  0  0  0  0  0  0  0  0
  136.7071   77.0330  223.6474 H   0  0  0  0  0  0  0  0  0  0  0  0
  135.6515   74.7629  223.8221 H   0  0  0  0  0  0  0  0  0  0  0  0
  135.5648   75.4389  222.1488 H   0  0  0  0  0  0  0  0  0  0  0  0
  133.7620   69.4730  222.6690 H   0  0  0  0  0  0  0  0  0  0  0  0
  132.0855   69.8027  224.2363 H   0  0  0  0  0  0  0  0  0  0  0  0
  133.9829   69.4060  225.8502 H   0  0  0  0  0  0  0  0  0  0  0  0
  132.4422   70.1945  226.4065 H   0  0  0  0  0  0  0  0  0  0  0  0
  135.1106   71.5167  225.8357 H   0  0  0  0  0  0  0  0  0  0  0  0
  134.2419   71.3504  227.4193 H   0  0  0  0  0  0  0  0  0  0  0  0
  134.1055   73.3634  225.4583 H   0  0  0  0  0  0  0  0  0  0  0  0
  132.6080   74.4130  227.0910 H   0  0  0  0  0  0  0  0  0  0  0  0
  132.8350   73.0280  228.0950 H   0  0  0  0  0  0  0  0  0  0  0  0
  131.5962   73.5336  225.1929 H   0  0  0  0  0  0  0  0  0  0  0  0
  131.4122   71.9556  225.9897 H   0  0  0  0  0  0  0  0  0  0  0  0
  133.1680   72.4699  223.5436 H   0  0  0  0  0  0  0  0  0  0  0  0
  131.4939   71.8331  223.4688 H   0  0  0  0  0  0  0  0  0  0  0  0
  137.5108   68.3577  225.3608 H   0  0  0  0  0  0  0  0  0  0  0  0
  138.4827   68.0498  223.8319 H   0  0  0  0  0  0  0  0  0  0  0  0
  139.1233   67.0171  226.1687 H   0  0  0  0  0  0  0  0  0  0  0  0
  140.3271   67.5566  224.9059 H   0  0  0  0  0  0  0  0  0  0  0  0
  140.5021   67.1904  228.0088 H   0  0  0  0  0  0  0  0  0  0  0  0
  141.5880   68.7561  229.6498 H   0  0  0  0  0  0  0  0  0  0  0  0
  141.8479   71.1390  229.1086 H   0  0  0  0  0  0  0  0  0  0  0  0
  141.0520   72.0466  226.9433 H   0  0  0  0  0  0  0  0  0  0  0  0
  139.6376   71.7089  225.0458 H   0  0  0  0  0  0  0  0  0  0  0  0
  140.6075   70.4609  224.1976 H   0  0  0  0  0  0  0  0  0  0  0  0
  138.3723   73.1584  221.0762 H   0  0  0  0  0  0  0  0  0  0  0  0
  137.2793   74.4092  220.4147 H   0  0  0  0  0  0  0  0  0  0  0  0
  139.3959   74.8222  222.5973 H   0  0  0  0  0  0  0  0  0  0  0  0
  139.5206   75.3706  220.8990 H   0  0  0  0  0  0  0  0  0  0  0  0
  140.5955   76.4787  221.4241 H   0  0  0  0  0  0  0  0  0  0  0  0
  142.2225   78.3347  221.7613 H   0  0  0  0  0  0  0  0  0  0  0  0
  1  2  1  0
  2  3  2  0
  2  4  2  0
  2  5  1  0
  5  6  2  0
  6  7  1  0
  7  8  2  0
  8  9  1  0
  9 10  1  0
 10 11  1  0
 11 12  1  0
 12 13  1  0
 13 14  2  0
 14 15  1  0
 15 16  1  0
 16 17  1  0
 17 18  1  0
 18 19  1  0
 19 20  1  0
 20 21  1  0
 20 22  1  0
 22 23  1  0
 15 24  2  0
 24 25  1  0
 25 26  1  0
 26 27  1  0
 27 28  1  0
 28 29  1  0
 29 30  2  0
 30 31  1  0
 31 32  2  0
 32 33  1  0
 33 34  2  0
 34 35  1  0
 25 36  2  0
 12 37  1  0
 37 38  1  0
  8 39  1  0
 39 40  2  0
 40  5  1  0
 38  9  1  0
 36 13  1  0
 23 17  1  0
 35 26  1  0
 34 29  1  0
  1 41  1  0
  1 42  1  0
  1 43  1  0
  6 44  1  0
  7 45  1  0
  9 46  1  0
 10 47  1  0
 10 48  1  0
 11 49  1  0
 11 50  1  0
 16 51  1  0
 17 52  1  6
 18 53  1  0
 18 54  1  0
 19 55  1  0
 19 56  1  0
 20 57  1  6
 21 58  1  0
 21 59  1  0
 22 60  1  0
 22 61  1  0
 23 62  1  0
 23 63  1  0
 27 64  1  0
 27 65  1  0
 28 66  1  0
 28 67  1  0
 30 68  1  0
 31 69  1  0
 32 70  1  0
 33 71  1  0
 35 72  1  0
 35 73  1  0
 37 74  1  0
 37 75  1  0
 38 76  1  0
 38 77  1  0
 39 78  1  0
 40 79  1  0
M  END
>  <smiles>  (6) 
CS(=O)(=O)c1ccc(C2CCN(c3nc(N[C@H]4CC[C@H](N)CC4)nc(N4CCc5ccccc5C4)n3)CC2)cc1

>  <score_type>  (6) 
oracle

>  <origin>  (6) 
autodockgpu

>  <m_score__min__energy>  (6) 
-10.390000000000001

>  <m_primary>  (6) 
energy

>  <rmsd>  (6) 
8.010899678696731

>  <m_score__min__rmsd>  (6) 
8.010899678696731

>  <meeko>  (6) 
{"free_energy": -10.08, "intermolecular_energy": -12.17, "internal_energy": -1.78, "cluster_size": 18, "cluster_id": 2, "rank_in_cluster": 10}

>  <energy>  (6) 
-10.22

>  <cluster_rmsd>  (6) 
0.44

>  <cluster>  (6) 
2

$$$$

     RDKit          3D

 79 84  0  0  0  0  0  0  0  0999 V2000
  140.8700   80.9440  222.6000 C   0  0  0  0  0  0  0  0  0  0  0  0
  142.0710   79.8980  221.8130 S   0  0  0  0  0  0  0  0  0  0  0  0
  142.3540   80.4630  220.4330 O   0  0  0  0  0  0  0  0  0  0  0  0
  143.3410   79.8900  222.6450 O   0  0  0  0  0  0  0  0  0  0  0  0
  141.4850   78.2670  221.5870 C   0  0  0  0  0  0  0  0  0  0  0  0
  141.8330   77.4830  220.5080 C   0  0  0  0  0  0  0  0  0  0  0  0
  141.3520   76.1990  220.3570 C   0  0  0  0  0  0  0  0  0  0  0  0
  140.4990   75.7110  221.3320 C   0  0  0  0  0  0  0  0  0  0  0  0
  139.9140   74.3460  221.2860 C   0  0  0  0  0  0  0  0  0  0  0  0
  138.5480   74.3540  221.9450 C   0  0  0  0  0  0  0  0  0  0  0  0
  137.9430   72.9890  221.7120 C   0  0  0  0  0  0  0  0  0  0  0  0
  138.8280   71.9330  222.2090 N   0  0  0  0  0  0  0  0  0  0  0  0
  138.3720   70.9430  223.1260 C   0  0  0  0  0  0  0  0  0  0  0  0
  139.2090   70.0410  223.6680 N   0  0  0  0  0  0  0  0  0  0  0  0
  138.7900   69.0920  224.5380 C   0  0  0  0  0  0  0  0  0  0  0  0
  139.6980   68.1530  225.1030 N   0  0  0  0  0  0  0  0  0  0  0  0
  140.6450   68.5060  226.1290 C   0  0  1  0  0  0  0  0  0  0  0  0
  141.5210   69.6660  225.7420 C   0  0  0  0  0  0  0  0  0  0  0  0
  140.8540   70.9990  225.9940 C   0  0  0  0  0  0  0  0  0  0  0  0
  140.2990   71.0930  227.3960 C   0  0  2  0  0  0  0  0  0  0  0  0
  140.7780   72.2050  228.1520 N   0  0  0  0  0  0  0  0  0  0  0  0
  140.5710   69.8250  228.1830 C   0  0  0  0  0  0  0  0  0  0  0  0
  139.9220   68.7060  227.4380 C   0  0  0  0  0  0  0  0  0  0  0  0
  137.4690   69.0740  224.8600 N   0  0  0  0  0  0  0  0  0  0  0  0
  136.5990   69.9590  224.3410 C   0  0  0  0  0  0  0  0  0  0  0  0
  135.2220   69.9130  224.6990 N   0  0  0  0  0  0  0  0  0  0  0  0
  134.2610   69.7270  223.6500 C   0  0  0  0  0  0  0  0  0  0  0  0
  132.8360   69.8910  224.0670 C   0  0  0  0  0  0  0  0  0  0  0  0
  132.6570   70.8380  225.1970 C   0  0  0  0  0  0  0  0  0  0  0  0
  131.5270   71.6020  225.2190 C   0  0  0  0  0  0  0  0  0  0  0  0
  131.3780   72.4860  226.2900 C   0  0  0  0  0  0  0  0  0  0  0  0
  132.3360   72.5690  227.2700 C   0  0  0  0  0  0  0  0  0  0  0  0
  133.4700   71.7890  227.2300 C   0  0  0  0  0  0  0  0  0  0  0  0
  133.6250   70.9180  226.1820 C   0  0  0  0  0  0  0  0  0  0  0  0
  134.8360   70.0520  226.0940 C   0  0  0  0  0  0  0  0  0  0  0  0
  137.0830   70.8890  223.4690 N   0  0  0  0  0  0  0  0  0  0  0  0
  140.1900   71.9550  221.7110 C   0  0  0  0  0  0  0  0  0  0  0  0
  140.7720   73.3310  221.9720 C   0  0  0  0  0  0  0  0  0  0  0  0
  140.1320   76.4900  222.4350 C   0  0  0  0  0  0  0  0  0  0  0  0
  140.6220   77.7730  222.5710 C   0  0  0  0  0  0  0  0  0  0  0  0
  140.9686   80.8581  223.6922 H   0  0  0  0  0  0  0  0  0  0  0  0
  141.0387   81.9881  222.2976 H   0  0  0  0  0  0  0  0  0  0  0  0
  139.8590   80.6335  222.2976 H   0  0  0  0  0  0  0  0  0  0  0  0
  142.5129   77.8925  219.7464 H   0  0  0  0  0  0  0  0  0  0  0  0
  141.6367   75.5835  219.4909 H   0  0  0  0  0  0  0  0  0  0  0  0
  139.8374   74.0644  220.2254 H   0  0  0  0  0  0  0  0  0  0  0  0
  138.6490   74.5443  223.0237 H   0  0  0  0  0  0  0  0  0  0  0  0
  137.9109   75.1454  221.5233 H   0  0  0  0  0  0  0  0  0  0  0  0
  136.9788   72.9279  222.2379 H   0  0  0  0  0  0  0  0  0  0  0  0
  137.8005   72.8478  220.6305 H   0  0  0  0  0  0  0  0  0  0  0  0
  139.6600   67.1720  224.7460 H   0  0  0  0  0  0  0  0  0  0  0  0
  141.3485   67.6703  226.2585 H   0  0  0  0  0  0  0  0  0  0  0  0
  141.7597   69.5869  224.6711 H   0  0  0  0  0  0  0  0  0  0  0  0
  142.4293   69.6224  226.3609 H   0  0  0  0  0  0  0  0  0  0  0  0
  140.0306   71.1264  225.2759 H   0  0  0  0  0  0  0  0  0  0  0  0
  141.6106   71.7881  225.8724 H   0  0  0  0  0  0  0  0  0  0  0  0
  139.2187   71.2388  227.2485 H   0  0  0  0  0  0  0  0  0  0  0  0
  141.2750   72.9100  227.5800 H   0  0  0  0  0  0  0  0  0  0  0  0
  140.0900   72.6360  228.8050 H   0  0  0  0  0  0  0  0  0  0  0  0
  140.1418   69.9067  229.1925 H   0  0  0  0  0  0  0  0  0  0  0  0
  141.6520   69.6522  228.2908 H   0  0  0  0  0  0  0  0  0  0  0  0
  138.8681   68.9541  227.2436 H   0  0  0  0  0  0  0  0  0  0  0  0
  139.9703   67.7834  228.0351 H   0  0  0  0  0  0  0  0  0  0  0  0
  134.4723   70.4613  222.8587 H   0  0  0  0  0  0  0  0  0  0  0  0
  134.3668   68.6844  223.3156 H   0  0  0  0  0  0  0  0  0  0  0  0
  132.2614   70.2631  223.2060 H   0  0  0  0  0  0  0  0  0  0  0  0
  132.4826   68.9071  224.4090 H   0  0  0  0  0  0  0  0  0  0  0  0
  130.7665   71.5252  224.4279 H   0  0  0  0  0  0  0  0  0  0  0  0
  130.4831   73.1229  226.3490 H   0  0  0  0  0  0  0  0  0  0  0  0
  132.1948   73.2726  228.1037 H   0  0  0  0  0  0  0  0  0  0  0  0
  134.2328   71.8627  228.0191 H   0  0  0  0  0  0  0  0  0  0  0  0
  135.6595   70.5120  226.6599 H   0  0  0  0  0  0  0  0  0  0  0  0
  134.6143   69.0612  226.5173 H   0  0  0  0  0  0  0  0  0  0  0  0
  140.7886   71.1933  222.2321 H   0  0  0  0  0  0  0  0  0  0  0  0
  140.2022   71.7374  220.6328 H   0  0  0  0  0  0  0  0  0  0  0  0
  140.7875   73.5284  223.0540 H   0  0  0  0  0  0  0  0  0  0  0  0
  141.8010   73.3847  221.5870 H   0  0  0  0  0  0  0  0  0  0  0  0
  139.4516   76.0789  223.1952 H   0  0  0  0  0  0  0  0  0  0  0  0
  140.3401   78.3937  223.4343 H   0  0  0  0  0  0  0  0  0  0  0  0
  1  2  1  0
  2  3  2  0
  2  4  2  0
  2  5  1  0
  5  6  2  0
  6  7  1  0
  7  8  2  0
  8  9  1  0
  9 10  1  0
 10 11  1  0
 11 12  1  0
 12 13  1  0
 13 14  2  0
 14 15  1  0
 15 16  1  0
 16 17  1  0
 17 18  1  0
 18 19  1  0
 19 20  1  0
 20 21  1  0
 20 22  1  0
 22 23  1  0
 15 24  2  0
 24 25  1  0
 25 26  1  0
 26 27  1  0
 27 28  1  0
 28 29  1  0
 29 30  2  0
 30 31  1  0
 31 32  2  0
 32 33  1  0
 33 34  2  0
 34 35  1  0
 25 36  2  0
 12 37  1  0
 37 38  1  0
  8 39  1  0
 39 40  2  0
 40  5  1  0
 38  9  1  0
 36 13  1  0
 23 17  1  0
 35 26  1  0
 34 29  1  0
  1 41  1  0
  1 42  1  0
  1 43  1  0
  6 44  1  0
  7 45  1  0
  9 46  1  0
 10 47  1  0
 10 48  1  0
 11 49  1  0
 11 50  1  0
 16 51  1  0
 17 52  1  1
 18 53  1  0
 18 54  1  0
 19 55  1  0
 19 56  1  0
 20 57  1  6
 21 58  1  0
 21 59  1  0
 22 60  1  0
 22 61  1  0
 23 62  1  0
 23 63  1  0
 27 64  1  0
 27 65  1  0
 28 66  1  0
 28 67  1  0
 30 68  1  0
 31 69  1  0
 32 70  1  0
 33 71  1  0
 35 72  1  0
 35 73  1  0
 37 74  1  0
 37 75  1  0
 38 76  1  0
 38 77  1  0
 39 78  1  0
 40 79  1  0
M  END
>  <smiles>  (7) 
CS(=O)(=O)c1ccc(C2CCN(c3nc(N[C@H]4CC[C@H](N)CC4)nc(N4CCc5ccccc5C4)n3)CC2)cc1

>  <score_type>  (7) 
oracle

>  <origin>  (7) 
autodockgpu

>  <m_score__min__energy>  (7) 
-10.390000000000001

>  <m_primary>  (7) 
energy

>  <rmsd>  (7) 
6.981891196341537

>  <m_score__min__rmsd>  (7) 
6.981891196341537

>  <meeko>  (7) 
{"free_energy": -9.78, "intermolecular_energy": -11.87, "internal_energy": -1.76, "cluster_size": 4, "cluster_id": 3, "rank_in_cluster": 2}

>  <energy>  (7) 
-10.17

>  <cluster_rmsd>  (7) 
0.86

>  <cluster>  (7) 
2

$$$$

     RDKit          3D

 79 84  0  0  0  0  0  0  0  0999 V2000
  143.2790   80.1360  222.9240 C   0  0  0  0  0  0  0  0  0  0  0  0
  141.8560   80.0430  221.8640 S   0  0  0  0  0  0  0  0  0  0  0  0
  140.7230   80.8010  222.5330 O   0  0  0  0  0  0  0  0  0  0  0  0
  142.1930   80.6790  220.5280 O   0  0  0  0  0  0  0  0  0  0  0  0
  141.3050   78.4010  221.6320 C   0  0  0  0  0  0  0  0  0  0  0  0
  141.8150   77.5640  220.6630 C   0  0  0  0  0  0  0  0  0  0  0  0
  141.3590   76.2720  220.5030 C   0  0  0  0  0  0  0  0  0  0  0  0
  140.3620   75.8320  221.3560 C   0  0  0  0  0  0  0  0  0  0  0  0
  139.7850   74.4640  221.2880 C   0  0  0  0  0  0  0  0  0  0  0  0
  138.4130   74.4550  221.9340 C   0  0  0  0  0  0  0  0  0  0  0  0
  137.8190   73.0900  221.6790 C   0  0  0  0  0  0  0  0  0  0  0  0
  138.7050   72.0340  222.1710 N   0  0  0  0  0  0  0  0  0  0  0  0
  138.2460   71.0300  223.0720 C   0  0  0  0  0  0  0  0  0  0  0  0
  139.0810   70.1170  223.6000 N   0  0  0  0  0  0  0  0  0  0  0  0
  138.6590   69.1560  224.4550 C   0  0  0  0  0  0  0  0  0  0  0  0
  139.5640   68.2060  225.0060 N   0  0  0  0  0  0  0  0  0  0  0  0
  140.4140   68.5010  226.1300 C   0  0  1  0  0  0  0  0  0  0  0  0
  141.5100   69.4740  225.7950 C   0  0  0  0  0  0  0  0  0  0  0  0
  141.0430   70.9100  225.8580 C   0  0  0  0  0  0  0  0  0  0  0  0
  140.3330   71.2130  227.1560 C   0  0  2  0  0  0  0  0  0  0  0  0
  140.8840   72.3030  227.8950 N   0  0  0  0  0  0  0  0  0  0  0  0
  140.2880   69.9950  228.0580 C   0  0  0  0  0  0  0  0  0  0  0  0
  139.5690   68.9260  227.3060 C   0  0  0  0  0  0  0  0  0  0  0  0
  137.3370   69.1350  224.7760 N   0  0  0  0  0  0  0  0  0  0  0  0
  136.4690   70.0300  224.2690 C   0  0  0  0  0  0  0  0  0  0  0  0
  135.0920   69.9820  224.6260 N   0  0  0  0  0  0  0  0  0  0  0  0
  134.1260   69.9520  223.5670 C   0  0  0  0  0  0  0  0  0  0  0  0
  132.7060   70.1060  224.0070 C   0  0  0  0  0  0  0  0  0  0  0  0
  132.5560   70.9150  225.2440 C   0  0  0  0  0  0  0  0  0  0  0  0
  131.4490   71.7030  225.3620 C   0  0  0  0  0  0  0  0  0  0  0  0
  131.3270   72.4550  226.5330 C   0  0  0  0  0  0  0  0  0  0  0  0
  132.2880   72.3920  227.5120 C   0  0  0  0  0  0  0  0  0  0  0  0
  133.3990   71.5890  227.3730 C   0  0  0  0  0  0  0  0  0  0  0  0
  133.5270   70.8470  226.2270 C   0  0  0  0  0  0  0  0  0  0  0  0
  134.7120   69.9630  226.0290 C   0  0  0  0  0  0  0  0  0  0  0  0
  136.9560   70.9730  223.4130 N   0  0  0  0  0  0  0  0  0  0  0  0
  140.0710   72.0690  221.6870 C   0  0  0  0  0  0  0  0  0  0  0  0
  140.6420   73.4450  221.9710 C   0  0  0  0  0  0  0  0  0  0  0  0
  139.8300   76.6640  222.3470 C   0  0  0  0  0  0  0  0  0  0  0  0
  140.2980   77.9540  222.4930 C   0  0  0  0  0  0  0  0  0  0  0  0
  142.9553   80.1148  223.9751 H   0  0  0  0  0  0  0  0  0  0  0  0
  143.9399   79.2791  222.7266 H   0  0  0  0  0  0  0  0  0  0  0  0
  143.8228   81.0716  222.7266 H   0  0  0  0  0  0  0  0  0  0  0  0
  142.6082   77.9369  219.9983 H   0  0  0  0  0  0  0  0  0  0  0  0
  141.7733   75.6144  219.7246 H   0  0  0  0  0  0  0  0  0  0  0  0
  139.7205   74.1960  220.2231 H   0  0  0  0  0  0  0  0  0  0  0  0
  138.5027   74.6328  223.0158 H   0  0  0  0  0  0  0  0  0  0  0  0
  137.7748   75.2473  221.5157 H   0  0  0  0  0  0  0  0  0  0  0  0
  136.8503   73.0167  222.1951 H   0  0  0  0  0  0  0  0  0  0  0  0
  137.6876   72.9612  220.5945 H   0  0  0  0  0  0  0  0  0  0  0  0
  139.5990   67.2600  224.5620 H   0  0  0  0  0  0  0  0  0  0  0  0
  140.9484   67.5826  226.4145 H   0  0  0  0  0  0  0  0  0  0  0  0
  141.8704   69.2638  224.7772 H   0  0  0  0  0  0  0  0  0  0  0  0
  142.3101   69.3480  226.5392 H   0  0  0  0  0  0  0  0  0  0  0  0
  140.3523   71.0967  225.0225 H   0  0  0  0  0  0  0  0  0  0  0  0
  141.9278   71.5602  225.7927 H   0  0  0  0  0  0  0  0  0  0  0  0
  139.3196   71.5077  226.8457 H   0  0  0  0  0  0  0  0  0  0  0  0
  141.2820   73.0480  227.2970 H   0  0  0  0  0  0  0  0  0  0  0  0
  140.2810   72.6830  228.6550 H   0  0  0  0  0  0  0  0  0  0  0  0
  139.7490   70.2319  228.9871 H   0  0  0  0  0  0  0  0  0  0  0  0
  141.3025   69.6698  228.3318 H   0  0  0  0  0  0  0  0  0  0  0  0
  138.6041   69.3130  226.9464 H   0  0  0  0  0  0  0  0  0  0  0  0
  139.3885   68.0642  227.9654 H   0  0  0  0  0  0  0  0  0  0  0  0
  134.3583   70.7700  222.8692 H   0  0  0  0  0  0  0  0  0  0  0  0
  134.2009   68.9548  223.1088 H   0  0  0  0  0  0  0  0  0  0  0  0
  132.1419   70.5958  223.1996 H   0  0  0  0  0  0  0  0  0  0  0  0
  132.3239   69.0988  224.2294 H   0  0  0  0  0  0  0  0  0  0  0  0
  130.6863   71.7445  224.5704 H   0  0  0  0  0  0  0  0  0  0  0  0
  130.4508   73.1053  226.6725 H   0  0  0  0  0  0  0  0  0  0  0  0
  132.1685   72.9942  228.4247 H   0  0  0  0  0  0  0  0  0  0  0  0
  134.1643   71.5443  228.1618 H   0  0  0  0  0  0  0  0  0  0  0  0
  135.5495   70.3272  226.6422 H   0  0  0  0  0  0  0  0  0  0  0  0
  134.4615   68.9353  226.3307 H   0  0  0  0  0  0  0  0  0  0  0  0
  140.6687   71.3042  222.2046 H   0  0  0  0  0  0  0  0  0  0  0  0
  140.0955   71.8643  220.6065 H   0  0  0  0  0  0  0  0  0  0  0  0
  140.6448   73.6291  223.0555 H   0  0  0  0  0  0  0  0  0  0  0  0
  141.6747   73.5093  221.5977 H   0  0  0  0  0  0  0  0  0  0  0  0
  139.0372   76.2892  223.0111 H   0  0  0  0  0  0  0  0  0  0  0  0
  139.8878   78.6161  223.2697 H   0  0  0  0  0  0  0  0  0  0  0  0
  1  2  1  0
  2  3  2  0
  2  4  2  0
  2  5  1  0
  5  6  2  0
  6  7  1  0
  7  8  2  0
  8  9  1  0
  9 10  1  0
 10 11  1  0
 11 12  1  0
 12 13  1  0
 13 14  2  0
 14 15  1  0
 15 16  1  0
 16 17  1  0
 17 18  1  0
 18 19  1  0
 19 20  1  0
 20 21  1  0
 20 22  1  0
 22 23  1  0
 15 24  2  0
 24 25  1  0
 25 26  1  0
 26 27  1  0
 27 28  1  0
 28 29  1  0
 29 30  2  0
 30 31  1  0
 31 32  2  0
 32 33  1  0
 33 34  2  0
 34 35  1  0
 25 36  2  0
 12 37  1  0
 37 38  1  0
  8 39  1  0
 39 40  2  0
 40  5  1  0
 38  9  1  0
 36 13  1  0
 23 17  1  0
 35 26  1  0
 34 29  1  0
  1 41  1  0
  1 42  1  0
  1 43  1  0
  6 44  1  0
  7 45  1  0
  9 46  1  0
 10 47  1  0
 10 48  1  0
 11 49  1  0
 11 50  1  0
 16 51  1  0
 17 52  1  1
 18 53  1  0
 18 54  1  0
 19 55  1  0
 19 56  1  0
 20 57  1  6
 21 58  1  0
 21 59  1  0
 22 60  1  0
 22 61  1  0
 23 62  1  0
 23 63  1  0
 27 64  1  0
 27 65  1  0
 28 66  1  0
 28 67  1  0
 30 68  1  0
 31 69  1  0
 32 70  1  0
 33 71  1  0
 35 72  1  0
 35 73  1  0
 37 74  1  0
 37 75  1  0
 38 76  1  0
 38 77  1  0
 39 78  1  0
 40 79  1  0
M  END
>  <smiles>  (8) 
CS(=O)(=O)c1ccc(C2CCN(c3nc(N[C@H]4CC[C@H](N)CC4)nc(N4CCc5ccccc5C4)n3)CC2)cc1

>  <score_type>  (8) 
oracle

>  <origin>  (8) 
autodockgpu

>  <m_score__min__energy>  (8) 
-10.390000000000001

>  <m_primary>  (8) 
energy

>  <rmsd>  (8) 
7.0570164240490305

>  <m_score__min__rmsd>  (8) 
7.0570164240490305

>  <meeko>  (8) 
{"free_energy": -9.73, "intermolecular_energy": -11.82, "internal_energy": -1.82, "cluster_size": 4, "cluster_id": 3, "rank_in_cluster": 4}

>  <energy>  (8) 
-10.16

>  <cluster_rmsd>  (8) 
0.64

>  <cluster>  (8) 
2

$$$$

     RDKit          3D

 79 84  0  0  0  0  0  0  0  0999 V2000
  145.3050   67.5170  217.9360 C   0  0  0  0  0  0  0  0  0  0  0  0
  145.5520   68.7590  219.1820 S   0  0  0  0  0  0  0  0  0  0  0  0
  145.9710   68.0610  220.4640 O   0  0  0  0  0  0  0  0  0  0  0  0
  146.6440   69.7090  218.7240 O   0  0  0  0  0  0  0  0  0  0  0  0
  144.0880   69.6450  219.5370 C   0  0  0  0  0  0  0  0  0  0  0  0
  144.0840   70.8870  220.1340 C   0  0  0  0  0  0  0  0  0  0  0  0
  142.9120   71.5620  220.4030 C   0  0  0  0  0  0  0  0  0  0  0  0
  141.7220   70.9490  220.0500 C   0  0  0  0  0  0  0  0  0  0  0  0
  140.3920   71.5700  220.2850 C   0  0  0  0  0  0  0  0  0  0  0  0
  140.3670   72.9650  219.6910 C   0  0  0  0  0  0  0  0  0  0  0  0
  138.9460   73.4660  219.8120 C   0  0  0  0  0  0  0  0  0  0  0  0
  138.4900   73.4120  221.2020 N   0  0  0  0  0  0  0  0  0  0  0  0
  137.9540   74.5570  221.8600 C   0  0  0  0  0  0  0  0  0  0  0  0
  136.8440   74.4840  222.6160 N   0  0  0  0  0  0  0  0  0  0  0  0
  136.3220   75.5630  223.2450 C   0  0  0  0  0  0  0  0  0  0  0  0
  135.1500   75.4580  224.0450 N   0  0  0  0  0  0  0  0  0  0  0  0
  135.1280   74.7640  225.3060 C   0  0  1  0  0  0  0  0  0  0  0  0
  134.6410   75.6250  226.4390 C   0  0  0  0  0  0  0  0  0  0  0  0
  133.1320   75.6730  226.5160 C   0  0  0  0  0  0  0  0  0  0  0  0
  132.5240   74.2900  226.4940 C   0  0  2  0  0  0  0  0  0  0  0  0
  131.6740   73.9970  227.6030 N   0  0  0  0  0  0  0  0  0  0  0  0
  133.5930   73.2180  226.4120 C   0  0  0  0  0  0  0  0  0  0  0  0
  134.3640   73.4710  225.1590 C   0  0  0  0  0  0  0  0  0  0  0  0
  136.9630   76.7530  223.0900 N   0  0  0  0  0  0  0  0  0  0  0  0
  138.0760   76.8680  222.3430 C   0  0  0  0  0  0  0  0  0  0  0  0
  138.7240   78.1270  222.2020 N   0  0  0  0  0  0  0  0  0  0  0  0
  138.9240   78.6350  220.8750 C   0  0  0  0  0  0  0  0  0  0  0  0
  139.7840   79.8530  220.7920 C   0  0  0  0  0  0  0  0  0  0  0  0
  140.8000   79.9340  221.8720 C   0  0  0  0  0  0  0  0  0  0  0  0
  142.0080   80.4930  221.5730 C   0  0  0  0  0  0  0  0  0  0  0  0
  142.9500   80.5590  222.6020 C   0  0  0  0  0  0  0  0  0  0  0  0
  142.6560   80.0790  223.8550 C   0  0  0  0  0  0  0  0  0  0  0  0
  141.4300   79.5190  224.1360 C   0  0  0  0  0  0  0  0  0  0  0  0
  140.4990   79.4490  223.1320 C   0  0  0  0  0  0  0  0  0  0  0  0
  139.1560   78.8510  223.3870 C   0  0  0  0  0  0  0  0  0  0  0  0
  138.5520   75.7440  221.7340 N   0  0  0  0  0  0  0  0  0  0  0  0
  138.6120   72.1290  221.8650 C   0  0  0  0  0  0  0  0  0  0  0  0
  140.0500   71.6610  221.7380 C   0  0  0  0  0  0  0  0  0  0  0  0
  141.7020   69.6880  219.4430 C   0  0  0  0  0  0  0  0  0  0  0  0
  142.8850   69.0280  219.1820 C   0  0  0  0  0  0  0  0  0  0  0  0
  145.1121   66.5473  218.4181 H   0  0  0  0  0  0  0  0  0  0  0  0
  144.4441   67.7925  217.3092 H   0  0  0  0  0  0  0  0  0  0  0  0
  146.2058   67.4422  217.3092 H   0  0  0  0  0  0  0  0  0  0  0  0
  145.0431   71.3533  220.4037 H   0  0  0  0  0  0  0  0  0  0  0  0
  142.9223   72.5526  220.8812 H   0  0  0  0  0  0  0  0  0  0  0  0
  139.6458   70.9232  219.8004 H   0  0  0  0  0  0  0  0  0  0  0  0
  141.0498   73.6251  220.2460 H   0  0  0  0  0  0  0  0  0  0  0  0
  140.6929   72.9525  218.6405 H   0  0  0  0  0  0  0  0  0  0  0  0
  138.8995   74.5064  219.4578 H   0  0  0  0  0  0  0  0  0  0  0  0
  138.2935   72.8233  219.2027 H   0  0  0  0  0  0  0  0  0  0  0  0
  134.2790   75.9110  223.6850 H   0  0  0  0  0  0  0  0  0  0  0  0
  136.1620   74.5131  225.5853 H   0  0  0  0  0  0  0  0  0  0  0  0
  135.0205   76.6473  226.2947 H   0  0  0  0  0  0  0  0  0  0  0  0
  135.0119   75.1873  227.3775 H   0  0  0  0  0  0  0  0  0  0  0  0
  132.7497   76.2435  225.6567 H   0  0  0  0  0  0  0  0  0  0  0  0
  132.8536   76.1535  227.4655 H   0  0  0  0  0  0  0  0  0  0  0  0
  131.8965   74.2863  225.5906 H   0  0  0  0  0  0  0  0  0  0  0  0
  130.7640   73.5880  227.3280 H   0  0  0  0  0  0  0  0  0  0  0  0
  132.1210   73.4800  228.3890 H   0  0  0  0  0  0  0  0  0  0  0  0
  133.1280   72.2218  226.3756 H   0  0  0  0  0  0  0  0  0  0  0  0
  134.2511   73.2493  227.2929 H   0  0  0  0  0  0  0  0  0  0  0  0
  133.6709   73.5467  224.3082 H   0  0  0  0  0  0  0  0  0  0  0  0
  135.0654   72.6427  224.9801 H   0  0  0  0  0  0  0  0  0  0  0  0
  139.3937   77.8432  220.2730 H   0  0  0  0  0  0  0  0  0  0  0  0
  137.9315   78.9318  220.5050 H   0  0  0  0  0  0  0  0  0  0  0  0
  140.3051   79.8462  219.8233 H   0  0  0  0  0  0  0  0  0  0  0  0
  139.1226   80.7249  220.9032 H   0  0  0  0  0  0  0  0  0  0  0  0
  142.2303   80.8750  220.5657 H   0  0  0  0  0  0  0  0  0  0  0  0
  143.9385   81.0003  222.4069 H   0  0  0  0  0  0  0  0  0  0  0  0
  143.4145   80.1432  224.6490 H   0  0  0  0  0  0  0  0  0  0  0  0
  141.2028   79.1368  225.1422 H   0  0  0  0  0  0  0  0  0  0  0  0
  139.2171   78.1587  224.2396 H   0  0  0  0  0  0  0  0  0  0  0  0
  138.4337   79.6478  223.6180 H   0  0  0  0  0  0  0  0  0  0  0  0
  138.3473   72.2329  222.9276 H   0  0  0  0  0  0  0  0  0  0  0  0
  137.9334   71.3975  221.4020 H   0  0  0  0  0  0  0  0  0  0  0  0
  140.7195   72.3802  222.2326 H   0  0  0  0  0  0  0  0  0  0  0  0
  140.1703   70.6777  222.2162 H   0  0  0  0  0  0  0  0  0  0  0  0
  140.7422   69.2228  219.1738 H   0  0  0  0  0  0  0  0  0  0  0  0
  142.8816   68.0370  218.7046 H   0  0  0  0  0  0  0  0  0  0  0  0
  1  2  1  0
  2  3  2  0
  2  4  2  0
  2  5  1  0
  5  6  2  0
  6  7  1  0
  7  8  2  0
  8  9  1  0
  9 10  1  0
 10 11  1  0
 11 12  1  0
 12 13  1  0
 13 14  2  0
 14 15  1  0
 15 16  1  0
 16 17  1  0
 17 18  1  0
 18 19  1  0
 19 20  1  0
 20 21  1  0
 20 22  1  0
 22 23  1  0
 15 24  2  0
 24 25  1  0
 25 26  1  0
 26 27  1  0
 27 28  1  0
 28 29  1  0
 29 30  2  0
 30 31  1  0
 31 32  2  0
 32 33  1  0
 33 34  2  0
 34 35  1  0
 25 36  2  0
 12 37  1  0
 37 38  1  0
  8 39  1  0
 39 40  2  0
 40  5  1  0
 38  9  1  0
 36 13  1  0
 23 17  1  0
 35 26  1  0
 34 29  1  0
  1 41  1  0
  1 42  1  0
  1 43  1  0
  6 44  1  0
  7 45  1  0
  9 46  1  0
 10 47  1  0
 10 48  1  0
 11 49  1  0
 11 50  1  0
 16 51  1  0
 17 52  1  1
 18 53  1  0
 18 54  1  0
 19 55  1  0
 19 56  1  0
 20 57  1  6
 21 58  1  0
 21 59  1  0
 22 60  1  0
 22 61  1  0
 23 62  1  0
 23 63  1  0
 27 64  1  0
 27 65  1  0
 28 66  1  0
 28 67  1  0
 30 68  1  0
 31 69  1  0
 32 70  1  0
 33 71  1  0
 35 72  1  0
 35 73  1  0
 37 74  1  0
 37 75  1  0
 38 76  1  0
 38 77  1  0
 39 78  1  0
 40 79  1  0
M  END
>  <smiles>  (9) 
CS(=O)(=O)c1ccc(C2CCN(c3nc(N[C@H]4CC[C@H](N)CC4)nc(N4CCc5ccccc5C4)n3)CC2)cc1

>  <score_type>  (9) 
oracle

>  <origin>  (9) 
autodockgpu

>  <m_score__min__energy>  (9) 
-10.390000000000001

>  <m_primary>  (9) 
energy

>  <rmsd>  (9) 
6.040343981000593

>  <m_score__min__rmsd>  (9) 
6.040343981000593

>  <meeko>  (9) 
{"free_energy": -9.09, "intermolecular_energy": -11.17, "internal_energy": -1.36, "cluster_size": 1, "cluster_id": 7, "rank_in_cluster": 1}

>  <energy>  (9) 
-10.15

>  <cluster_rmsd>  (9) 
0.7

>  <cluster>  (9) 
2

$$$$

     RDKit          3D

 79 84  0  0  0  0  0  0  0  0999 V2000
  141.7160   82.3930  215.4690 C   0  0  0  0  0  0  0  0  0  0  0  0
  142.3760   82.5600  217.1100 S   0  0  0  0  0  0  0  0  0  0  0  0
  143.8540   82.8860  216.9900 O   0  0  0  0  0  0  0  0  0  0  0  0
  141.6490   83.6870  217.8220 O   0  0  0  0  0  0  0  0  0  0  0  0
  142.2510   81.0800  218.0310 C   0  0  0  0  0  0  0  0  0  0  0  0
  142.5750   79.8430  217.5170 C   0  0  0  0  0  0  0  0  0  0  0  0
  142.4640   78.6920  218.2690 C   0  0  0  0  0  0  0  0  0  0  0  0
  142.0140   78.8150  219.5720 C   0  0  0  0  0  0  0  0  0  0  0  0
  141.8510   77.6530  220.4850 C   0  0  0  0  0  0  0  0  0  0  0  0
  141.7010   76.3820  219.6720 C   0  0  0  0  0  0  0  0  0  0  0  0
  141.7130   75.2320  220.6530 C   0  0  0  0  0  0  0  0  0  0  0  0
  140.6750   75.4030  221.6710 N   0  0  0  0  0  0  0  0  0  0  0  0
  139.7100   74.3880  221.9360 C   0  0  0  0  0  0  0  0  0  0  0  0
  138.4400   74.4890  221.5040 N   0  0  0  0  0  0  0  0  0  0  0  0
  137.5120   73.5340  221.7510 C   0  0  0  0  0  0  0  0  0  0  0  0
  136.1770   73.6610  221.2770 N   0  0  0  0  0  0  0  0  0  0  0  0
  135.1940   74.4870  221.9290 C   0  0  1  0  0  0  0  0  0  0  0  0
  134.1010   73.6890  222.5840 C   0  0  0  0  0  0  0  0  0  0  0  0
  134.4950   73.1920  223.9560 C   0  0  0  0  0  0  0  0  0  0  0  0
  135.0410   74.3040  224.8200 C   0  0  2  0  0  0  0  0  0  0  0  0
  134.3640   74.4780  226.0650 N   0  0  0  0  0  0  0  0  0  0  0  0
  135.0370   75.6290  224.0830 C   0  0  0  0  0  0  0  0  0  0  0  0
  135.8820   75.4490  222.8650 C   0  0  0  0  0  0  0  0  0  0  0  0
  137.9050   72.4440  222.4620 N   0  0  0  0  0  0  0  0  0  0  0  0
  139.1660   72.3050  222.9120 C   0  0  0  0  0  0  0  0  0  0  0  0
  139.5450   71.1510  223.6530 N   0  0  0  0  0  0  0  0  0  0  0  0
  138.7150   69.9860  223.5530 C   0  0  0  0  0  0  0  0  0  0  0  0
  139.0560   68.8870  224.5070 C   0  0  0  0  0  0  0  0  0  0  0  0
  139.6530   69.3730  225.7770 C   0  0  0  0  0  0  0  0  0  0  0  0
  139.3650   68.6890  226.9220 C   0  0  0  0  0  0  0  0  0  0  0  0
  139.9350   69.1620  228.1050 C   0  0  0  0  0  0  0  0  0  0  0  0
  140.7500   70.2680  228.1000 C   0  0  0  0  0  0  0  0  0  0  0  0
  141.0280   70.9440  226.9330 C   0  0  0  0  0  0  0  0  0  0  0  0
  140.4720   70.4870  225.7660 C   0  0  0  0  0  0  0  0  0  0  0  0
  140.7440   71.1860  224.4760 C   0  0  0  0  0  0  0  0  0  0  0  0
  140.0540   73.3020  222.6310 N   0  0  0  0  0  0  0  0  0  0  0  0
  140.6890   76.6610  222.3930 C   0  0  0  0  0  0  0  0  0  0  0  0
  140.6620   77.7910  221.3830 C   0  0  0  0  0  0  0  0  0  0  0  0
  141.6790   80.0610  220.1140 C   0  0  0  0  0  0  0  0  0  0  0  0
  141.7960   81.2020  219.3470 C   0  0  0  0  0  0  0  0  0  0  0  0
  140.6511   82.1236  215.5277 H   0  0  0  0  0  0  0  0  0  0  0  0
  141.8238   83.3467  214.9316 H   0  0  0  0  0  0  0  0  0  0  0  0
  142.2644   81.6053  214.9316 H   0  0  0  0  0  0  0  0  0  0  0  0
  142.9318   79.7716  216.4789 H   0  0  0  0  0  0  0  0  0  0  0  0
  142.7243   77.7099  217.8475 H   0  0  0  0  0  0  0  0  0  0  0  0
  142.7507   77.6122  221.1165 H   0  0  0  0  0  0  0  0  0  0  0  0
  140.7510   76.3970  219.1177 H   0  0  0  0  0  0  0  0  0  0  0  0
  142.5153   76.2840  218.9390 H   0  0  0  0  0  0  0  0  0  0  0  0
  141.5330   74.2929  220.1093 H   0  0  0  0  0  0  0  0  0  0  0  0
  142.6932   75.2055  221.1515 H   0  0  0  0  0  0  0  0  0  0  0  0
  135.9170   73.1240  220.4180 H   0  0  0  0  0  0  0  0  0  0  0  0
  134.6714   75.0790  221.1632 H   0  0  0  0  0  0  0  0  0  0  0  0
  133.8663   72.8226  221.9482 H   0  0  0  0  0  0  0  0  0  0  0  0
  133.2289   74.3487  222.7034 H   0  0  0  0  0  0  0  0  0  0  0  0
  135.2663   72.4156  223.8455 H   0  0  0  0  0  0  0  0  0  0  0  0
  133.5957   72.7892  224.4450 H   0  0  0  0  0  0  0  0  0  0  0  0
  136.0689   73.9858  225.0483 H   0  0  0  0  0  0  0  0  0  0  0  0
  134.6850   75.3040  226.5980 H   0  0  0  0  0  0  0  0  0  0  0  0
  133.3250   74.4100  226.0260 H   0  0  0  0  0  0  0  0  0  0  0  0
  135.4579   76.4190  224.7223 H   0  0  0  0  0  0  0  0  0  0  0  0
  134.0132   75.9264  223.8121 H   0  0  0  0  0  0  0  0  0  0  0  0
  136.8636   75.0449  223.1534 H   0  0  0  0  0  0  0  0  0  0  0  0
  136.0240   76.4180  222.3642 H   0  0  0  0  0  0  0  0  0  0  0  0
  137.6747   70.2905  223.7401 H   0  0  0  0  0  0  0  0  0  0  0  0
  138.8745   69.5791  222.5436 H   0  0  0  0  0  0  0  0  0  0  0  0
  138.1358   68.3328  224.7438 H   0  0  0  0  0  0  0  0  0  0  0  0
  139.8086   68.2525  224.0161 H   0  0  0  0  0  0  0  0  0  0  0  0
  138.7123   67.8037  226.9131 H   0  0  0  0  0  0  0  0  0  0  0  0
  139.7292   68.6430  229.0528 H   0  0  0  0  0  0  0  0  0  0  0  0
  141.1885   70.6199  229.0455 H   0  0  0  0  0  0  0  0  0  0  0  0
  141.6806   71.8295  226.9369 H   0  0  0  0  0  0  0  0  0  0  0  0
  141.0235   72.2311  224.6752 H   0  0  0  0  0  0  0  0  0  0  0  0
  141.5693   70.6841  223.9497 H   0  0  0  0  0  0  0  0  0  0  0  0
  139.8060   76.7248  223.0459 H   0  0  0  0  0  0  0  0  0  0  0  0
  141.5937   76.7306  223.0148 H   0  0  0  0  0  0  0  0  0  0  0  0
  139.7387   77.7347  220.7877 H   0  0  0  0  0  0  0  0  0  0  0  0
  140.6914   78.7608  221.9013 H   0  0  0  0  0  0  0  0  0  0  0  0
  141.3222   80.1308  221.1522 H   0  0  0  0  0  0  0  0  0  0  0  0
  141.5367   82.1870  219.7625 H   0  0  0  0  0  0  0  0  0  0  0  0
  1  2  1  0
  2  3  2  0
  2  4  2  0
  2  5  1  0
  5  6  2  0
  6  7  1  0
  7  8  2  0
  8  9  1  0
  9 10  1  0
 10 11  1  0
 11 12  1  0
 12 13  1  0
 13 14  2  0
 14 15  1  0
 15 16  1  0
 16 17  1  0
 17 18  1  0
 18 19  1  0
 19 20  1  0
 20 21  1  0
 20 22  1  0
 22 23  1  0
 15 24  2  0
 24 25  1  0
 25 26  1  0
 26 27  1  0
 27 28  1  0
 28 29  1  0
 29 30  2  0
 30 31  1  0
 31 32  2  0
 32 33  1  0
 33 34  2  0
 34 35  1  0
 25 36  2  0
 12 37  1  0
 37 38  1  0
  8 39  1  0
 39 40  2  0
 40  5  1  0
 38  9  1  0
 36 13  1  0
 23 17  1  0
 35 26  1  0
 34 29  1  0
  1 41  1  0
  1 42  1  0
  1 43  1  0
  6 44  1  0
  7 45  1  0
  9 46  1  0
 10 47  1  0
 10 48  1  0
 11 49  1  0
 11 50  1  0
 16 51  1  0
 17 52  1  6
 18 53  1  0
 18 54  1  0
 19 55  1  0
 19 56  1  0
 20 57  1  1
 21 58  1  0
 21 59  1  0
 22 60  1  0
 22 61  1  0
 23 62  1  0
 23 63  1  0
 27 64  1  0
 27 65  1  0
 28 66  1  0
 28 67  1  0
 30 68  1  0
 31 69  1  0
 32 70  1  0
 33 71  1  0
 35 72  1  0
 35 73  1  0
 37 74  1  0
 37 75  1  0
 38 76  1  0
 38 77  1  0
 39 78  1  0
 40 79  1  0
M  END
>  <smiles>  (10) 
CS(=O)(=O)c1ccc(C2CCN(c3nc(N[C@H]4CC[C@H](N)CC4)nc(N4CCc5ccccc5C4)n3)CC2)cc1

>  <score_type>  (10) 
oracle

>  <origin>  (10) 
autodockgpu

>  <m_score__min__energy>  (10) 
-10.390000000000001

>  <m_primary>  (10) 
energy

>  <rmsd>  (10) 
10.43866910296623

>  <m_score__min__rmsd>  (10) 
10.43866910296623

>  <meeko>  (10) 
{"free_energy": -9.34, "intermolecular_energy": -11.43, "internal_energy": -1.67, "cluster_size": 12, "cluster_id": 4, "rank_in_cluster": 9}

>  <energy>  (10) 
-10.15

>  <cluster_rmsd>  (10) 
0.64

>  <cluster>  (10) 
2

$$$$

     RDKit          3D

 79 84  0  0  0  0  0  0  0  0999 V2000
  141.4380   82.3350  221.6880 C   0  0  0  0  0  0  0  0  0  0  0  0
  141.7570   80.9780  222.7900 S   0  0  0  0  0  0  0  0  0  0  0  0
  143.1320   80.4220  222.4650 O   0  0  0  0  0  0  0  0  0  0  0  0
  141.7220   81.4850  224.2200 O   0  0  0  0  0  0  0  0  0  0  0  0
  140.6150   79.6710  222.5820 C   0  0  0  0  0  0  0  0  0  0  0  0
  139.3310   79.7040  223.0830 C   0  0  0  0  0  0  0  0  0  0  0  0
  138.4530   78.6560  222.9050 C   0  0  0  0  0  0  0  0  0  0  0  0
  138.9020   77.5540  222.1970 C   0  0  0  0  0  0  0  0  0  0  0  0
  138.0550   76.3610  221.9360 C   0  0  0  0  0  0  0  0  0  0  0  0
  137.1430   76.1120  223.1210 C   0  0  0  0  0  0  0  0  0  0  0  0
  136.1990   75.0010  222.7210 C   0  0  0  0  0  0  0  0  0  0  0  0
  136.9420   73.8140  222.2930 N   0  0  0  0  0  0  0  0  0  0  0  0
  136.7050   72.5330  222.8710 C   0  0  0  0  0  0  0  0  0  0  0  0
  135.4810   71.9760  222.8790 N   0  0  0  0  0  0  0  0  0  0  0  0
  135.2410   70.7610  223.4260 C   0  0  0  0  0  0  0  0  0  0  0  0
  133.9380   70.1890  223.4160 N   0  0  0  0  0  0  0  0  0  0  0  0
  132.8570   70.7010  224.2180 C   0  0  1  0  0  0  0  0  0  0  0  0
  133.0420   70.4350  225.6870 C   0  0  0  0  0  0  0  0  0  0  0  0
  133.9300   71.4620  226.3500 C   0  0  0  0  0  0  0  0  0  0  0  0
  133.4890   72.8730  226.0350 C   0  0  2  0  0  0  0  0  0  0  0  0
  133.2220   73.6820  227.1800 N   0  0  0  0  0  0  0  0  0  0  0  0
  132.2610   72.8810  225.1450 C   0  0  0  0  0  0  0  0  0  0  0  0
  132.6300   72.1560  223.8930 C   0  0  0  0  0  0  0  0  0  0  0  0
  136.2930   70.1010  223.9810 N   0  0  0  0  0  0  0  0  0  0  0  0
  137.5330   70.6250  223.9930 C   0  0  0  0  0  0  0  0  0  0  0  0
  138.6140   69.9080  224.5810 N   0  0  0  0  0  0  0  0  0  0  0  0
  138.4470   68.5000  224.7960 C   0  0  0  0  0  0  0  0  0  0  0  0
  139.5310   67.8540  225.5960 C   0  0  0  0  0  0  0  0  0  0  0  0
  140.1720   68.7720  226.5720 C   0  0  0  0  0  0  0  0  0  0  0  0
  140.5950   68.2500  227.7590 C   0  0  0  0  0  0  0  0  0  0  0  0
  141.1940   69.1300  228.6630 C   0  0  0  0  0  0  0  0  0  0  0  0
  141.3450   70.4600  228.3540 C   0  0  0  0  0  0  0  0  0  0  0  0
  140.9110   70.9670  227.1490 C   0  0  0  0  0  0  0  0  0  0  0  0
  140.3210   70.1110  226.2560 C   0  0  0  0  0  0  0  0  0  0  0  0
  139.8350   70.6130  224.9380 C   0  0  0  0  0  0  0  0  0  0  0  0
  137.7100   71.8520  223.4260 N   0  0  0  0  0  0  0  0  0  0  0  0
  137.9260   74.0190  221.2480 C   0  0  0  0  0  0  0  0  0  0  0  0
  138.8630   75.1270  221.6860 C   0  0  0  0  0  0  0  0  0  0  0  0
  140.2010   77.4990  221.6800 C   0  0  0  0  0  0  0  0  0  0  0  0
  141.0670   78.5570  221.8680 C   0  0  0  0  0  0  0  0  0  0  0  0
  141.2250   83.2411  222.2742 H   0  0  0  0  0  0  0  0  0  0  0  0
  142.3201   82.5075  221.0538 H   0  0  0  0  0  0  0  0  0  0  0  0
  140.5715   82.0964  221.0538 H   0  0  0  0  0  0  0  0  0  0  0  0
  138.9976   80.5917  223.6405 H   0  0  0  0  0  0  0  0  0  0  0  0
  137.4315   78.6940  223.3113 H   0  0  0  0  0  0  0  0  0  0  0  0
  137.4712   76.5750  221.0286 H   0  0  0  0  0  0  0  0  0  0  0  0
  137.7350   75.8086  223.9971 H   0  0  0  0  0  0  0  0  0  0  0  0
  136.5883   77.0230  223.3900 H   0  0  0  0  0  0  0  0  0  0  0  0
  135.5658   74.7389  223.5815 H   0  0  0  0  0  0  0  0  0  0  0  0
  135.5801   75.3504  221.8814 H   0  0  0  0  0  0  0  0  0  0  0  0
  133.7780   69.3640  222.7940 H   0  0  0  0  0  0  0  0  0  0  0  0
  131.9395   70.1523  223.9590 H   0  0  0  0  0  0  0  0  0  0  0  0
  133.4969   69.4412  225.8117 H   0  0  0  0  0  0  0  0  0  0  0  0
  132.0527   70.4878  226.1650 H   0  0  0  0  0  0  0  0  0  0  0  0
  134.9616   71.3236  225.9940 H   0  0  0  0  0  0  0  0  0  0  0  0
  133.8646   71.3185  227.4386 H   0  0  0  0  0  0  0  0  0  0  0  0
  134.3521   73.3154  225.5161 H   0  0  0  0  0  0  0  0  0  0  0  0
  132.6740   74.5330  226.9660 H   0  0  0  0  0  0  0  0  0  0  0  0
  132.8590   73.1760  228.0150 H   0  0  0  0  0  0  0  0  0  0  0  0
  131.9695   73.9156  224.9114 H   0  0  0  0  0  0  0  0  0  0  0  0
  131.4088   72.3970  225.6444 H   0  0  0  0  0  0  0  0  0  0  0  0
  133.5505   72.5884  223.4739 H   0  0  0  0  0  0  0  0  0  0  0  0
  131.8191   72.2504  223.1557 H   0  0  0  0  0  0  0  0  0  0  0  0
  137.4942   68.3453  225.3235 H   0  0  0  0  0  0  0  0  0  0  0  0
  138.4748   68.0301  223.8018 H   0  0  0  0  0  0  0  0  0  0  0  0
  139.0991   67.0057  226.1472 H   0  0  0  0  0  0  0  0  0  0  0  0
  140.3112   67.5367  224.8884 H   0  0  0  0  0  0  0  0  0  0  0  0
  140.4698   67.1827  227.9940 H   0  0  0  0  0  0  0  0  0  0  0  0
  141.5490   68.7538  229.6338 H   0  0  0  0  0  0  0  0  0  0  0  0
  141.8214   71.1326  229.0824 H   0  0  0  0  0  0  0  0  0  0  0  0
  141.0350   72.0334  226.9092 H   0  0  0  0  0  0  0  0  0  0  0  0
  139.6307   71.6916  225.0073 H   0  0  0  0  0  0  0  0  0  0  0  0
  140.6021   70.4383  224.1692 H   0  0  0  0  0  0  0  0  0  0  0  0
  138.4959   73.0920  221.0870 H   0  0  0  0  0  0  0  0  0  0  0  0
  137.4272   74.2948  220.3072 H   0  0  0  0  0  0  0  0  0  0  0  0
  139.3825   74.8303  222.6091 H   0  0  0  0  0  0  0  0  0  0  0  0
  139.6116   75.3189  220.9032 H   0  0  0  0  0  0  0  0  0  0  0  0
  140.5327   76.6106  221.1225 H   0  0  0  0  0  0  0  0  0  0  0  0
  142.0901   78.5246  221.4651 H   0  0  0  0  0  0  0  0  0  0  0  0
  1  2  1  0
  2  3  2  0
  2  4  2  0
  2  5  1  0
  5  6  2  0
  6  7  1  0
  7  8  2  0
  8  9  1  0
  9 10  1  0
 10 11  1  0
 11 12  1  0
 12 13  1  0
 13 14  2  0
 14 15  1  0
 15 16  1  0
 16 17  1  0
 17 18  1  0
 18 19  1  0
 19 20  1  0
 20 21  1  0
 20 22  1  0
 22 23  1  0
 15 24  2  0
 24 25  1  0
 25 26  1  0
 26 27  1  0
 27 28  1  0
 28 29  1  0
 29 30  2  0
 30 31  1  0
 31 32  2  0
 32 33  1  0
 33 34  2  0
 34 35  1  0
 25 36  2  0
 12 37  1  0
 37 38  1  0
  8 39  1  0
 39 40  2  0
 40  5  1  0
 38  9  1  0
 36 13  1  0
 23 17  1  0
 35 26  1  0
 34 29  1  0
  1 41  1  0
  1 42  1  0
  1 43  1  0
  6 44  1  0
  7 45  1  0
  9 46  1  0
 10 47  1  0
 10 48  1  0
 11 49  1  0
 11 50  1  0
 16 51  1  0
 17 52  1  6
 18 53  1  0
 18 54  1  0
 19 55  1  0
 19 56  1  0
 20 57  1  6
 21 58  1  0
 21 59  1  0
 22 60  1  0
 22 61  1  0
 23 62  1  0
 23 63  1  0
 27 64  1  0
 27 65  1  0
 28 66  1  0
 28 67  1  0
 30 68  1  0
 31 69  1  0
 32 70  1  0
 33 71  1  0
 35 72  1  0
 35 73  1  0
 37 74  1  0
 37 75  1  0
 38 76  1  0
 38 77  1  0
 39 78  1  0
 40 79  1  0
M  END
>  <smiles>  (11) 
CS(=O)(=O)c1ccc(C2CCN(c3nc(N[C@H]4CC[C@H](N)CC4)nc(N4CCc5ccccc5C4)n3)CC2)cc1

>  <score_type>  (11) 
oracle

>  <origin>  (11) 
autodockgpu

>  <m_score__min__energy>  (11) 
-10.390000000000001

>  <m_primary>  (11) 
energy

>  <rmsd>  (11) 
8.04843907896141

>  <m_score__min__rmsd>  (11) 
8.04843907896141

>  <meeko>  (11) 
{"free_energy": -10.15, "intermolecular_energy": -12.24, "internal_energy": -1.78, "cluster_size": 18, "cluster_id": 2, "rank_in_cluster": 5}

>  <energy>  (11) 
-10.1

>  <cluster_rmsd>  (11) 
0.86

>  <cluster>  (11) 
2

$$$$

     RDKit          3D

 79 84  0  0  0  0  0  0  0  0999 V2000
  143.4570   80.1870  223.0740 C   0  0  0  0  0  0  0  0  0  0  0  0
  141.8120   80.8360  222.9030 S   0  0  0  0  0  0  0  0  0  0  0  0
  141.4370   81.5160  224.2070 O   0  0  0  0  0  0  0  0  0  0  0  0
  141.7940   81.8420  221.7660 O   0  0  0  0  0  0  0  0  0  0  0  0
  140.6290   79.5810  222.6200 C   0  0  0  0  0  0  0  0  0  0  0  0
  139.2890   79.8390  222.4230 C   0  0  0  0  0  0  0  0  0  0  0  0
  138.3780   78.8260  222.2040 C   0  0  0  0  0  0  0  0  0  0  0  0
  138.8530   77.5260  222.1860 C   0  0  0  0  0  0  0  0  0  0  0  0
  137.9760   76.3480  221.9610 C   0  0  0  0  0  0  0  0  0  0  0  0
  137.1300   76.0970  223.1930 C   0  0  0  0  0  0  0  0  0  0  0  0
  136.1500   75.0040  222.8360 C   0  0  0  0  0  0  0  0  0  0  0  0
  136.8490   73.8120  222.3530 N   0  0  0  0  0  0  0  0  0  0  0  0
  136.6280   72.5280  222.9290 C   0  0  0  0  0  0  0  0  0  0  0  0
  135.4100   71.9590  222.9430 N   0  0  0  0  0  0  0  0  0  0  0  0
  135.1840   70.7400  223.4890 C   0  0  0  0  0  0  0  0  0  0  0  0
  133.8870   70.1560  223.4850 N   0  0  0  0  0  0  0  0  0  0  0  0
  132.8210   70.6200  224.3350 C   0  0  1  0  0  0  0  0  0  0  0  0
  133.0910   70.3790  225.7950 C   0  0  0  0  0  0  0  0  0  0  0  0
  133.9560   71.4570  226.4060 C   0  0  0  0  0  0  0  0  0  0  0  0
  133.4290   72.8400  226.1020 C   0  0  2  0  0  0  0  0  0  0  0  0
  133.1770   73.6470  227.2520 N   0  0  0  0  0  0  0  0  0  0  0  0
  132.1610   72.7770  225.2730 C   0  0  0  0  0  0  0  0  0  0  0  0
  132.5040   72.0590  224.0100 C   0  0  0  0  0  0  0  0  0  0  0  0
  136.2460   70.0900  224.0360 N   0  0  0  0  0  0  0  0  0  0  0  0
  137.4810   70.6250  224.0430 C   0  0  0  0  0  0  0  0  0  0  0  0
  138.5710   69.9170  224.6230 N   0  0  0  0  0  0  0  0  0  0  0  0
  138.4090   68.5120  224.8610 C   0  0  0  0  0  0  0  0  0  0  0  0
  139.5070   67.8790  225.6510 C   0  0  0  0  0  0  0  0  0  0  0  0
  140.1630   68.8110  226.6040 C   0  0  0  0  0  0  0  0  0  0  0  0
  140.6050   68.3050  227.7910 C   0  0  0  0  0  0  0  0  0  0  0  0
  141.2180   69.1980  228.6730 C   0  0  0  0  0  0  0  0  0  0  0  0
  141.3620   70.5230  228.3430 C   0  0  0  0  0  0  0  0  0  0  0  0
  140.9090   71.0140  227.1390 C   0  0  0  0  0  0  0  0  0  0  0  0
  140.3050   70.1450  226.2670 C   0  0  0  0  0  0  0  0  0  0  0  0
  139.7970   70.6280  224.9500 C   0  0  0  0  0  0  0  0  0  0  0  0
  137.6430   71.8550  223.4770 N   0  0  0  0  0  0  0  0  0  0  0  0
  137.7750   74.0160  221.2560 C   0  0  0  0  0  0  0  0  0  0  0  0
  138.7520   75.1070  221.6510 C   0  0  0  0  0  0  0  0  0  0  0  0
  140.2090   77.2420  222.3850 C   0  0  0  0  0  0  0  0  0  0  0  0
  141.1060   78.2670  222.6030 C   0  0  0  0  0  0  0  0  0  0  0  0
  143.7036   80.0897  224.1416 H   0  0  0  0  0  0  0  0  0  0  0  0
  143.5133   79.1993  222.5932 H   0  0  0  0  0  0  0  0  0  0  0  0
  144.1725   80.8702  222.5932 H   0  0  0  0  0  0  0  0  0  0  0  0
  138.9365   80.8808  222.4409 H   0  0  0  0  0  0  0  0  0  0  0  0
  137.3110   79.0441  222.0490 H   0  0  0  0  0  0  0  0  0  0  0  0
  137.3436   76.5802  221.0914 H   0  0  0  0  0  0  0  0  0  0  0  0
  137.7669   75.7756  224.0303 H   0  0  0  0  0  0  0  0  0  0  0  0
  136.6041   77.0120  223.5031 H   0  0  0  0  0  0  0  0  0  0  0  0
  135.5636   74.7406  223.7286 H   0  0  0  0  0  0  0  0  0  0  0  0
  135.4896   75.3718  222.0368 H   0  0  0  0  0  0  0  0  0  0  0  0
  133.7200   69.3590  222.8310 H   0  0  0  0  0  0  0  0  0  0  0  0
  131.9214   70.0226  224.1258 H   0  0  0  0  0  0  0  0  0  0  0  0
  133.6023   69.4112  225.9047 H   0  0  0  0  0  0  0  0  0  0  0  0
  132.1247   70.3860  226.3206 H   0  0  0  0  0  0  0  0  0  0  0  0
  134.9750   71.3676  226.0014 H   0  0  0  0  0  0  0  0  0  0  0  0
  133.9502   71.3217  227.4976 H   0  0  0  0  0  0  0  0  0  0  0  0
  134.2426   73.3197  225.5382 H   0  0  0  0  0  0  0  0  0  0  0  0
  132.5970   74.4800  227.0530 H   0  0  0  0  0  0  0  0  0  0  0  0
  132.8580   73.1340  228.1010 H   0  0  0  0  0  0  0  0  0  0  0  0
  131.8065   73.7933  225.0461 H   0  0  0  0  0  0  0  0  0  0  0  0
  131.3601   72.2553  225.8174 H   0  0  0  0  0  0  0  0  0  0  0  0
  133.3794   72.5331  223.5420 H   0  0  0  0  0  0  0  0  0  0  0  0
  131.6540   72.1046  223.3133 H   0  0  0  0  0  0  0  0  0  0  0  0
  137.4656   68.3642  225.4071 H   0  0  0  0  0  0  0  0  0  0  0  0
  138.4198   68.0278  223.8734 H   0  0  0  0  0  0  0  0  0  0  0  0
  139.0859   67.0375  226.2207 H   0  0  0  0  0  0  0  0  0  0  0  0
  140.2758   67.5538  224.9346 H   0  0  0  0  0  0  0  0  0  0  0  0
  140.4841   67.2410  228.0425 H   0  0  0  0  0  0  0  0  0  0  0  0
  141.5896   68.8356  229.6429 H   0  0  0  0  0  0  0  0  0  0  0  0
  141.8490   71.2059  229.0547 H   0  0  0  0  0  0  0  0  0  0  0  0
  141.0287   72.0771  226.8830 H   0  0  0  0  0  0  0  0  0  0  0  0
  139.5927   71.7073  225.0074 H   0  0  0  0  0  0  0  0  0  0  0  0
  140.5516   70.4431  224.1713 H   0  0  0  0  0  0  0  0  0  0  0  0
  138.3217   73.0833  221.0530 H   0  0  0  0  0  0  0  0  0  0  0  0
  137.2271   74.3096  220.3485 H   0  0  0  0  0  0  0  0  0  0  0  0
  139.3202   74.7929  222.5390 H   0  0  0  0  0  0  0  0  0  0  0  0
  139.4569   75.2983  220.8285 H   0  0  0  0  0  0  0  0  0  0  0  0
  140.5600   76.1996  222.3675 H   0  0  0  0  0  0  0  0  0  0  0  0
  142.1739   78.0550  222.7601 H   0  0  0  0  0  0  0  0  0  0  0  0
  1  2  1  0
  2  3  2  0
  2  4  2  0
  2  5  1  0
  5  6  2  0
  6  7  1  0
  7  8  2  0
  8  9  1  0
  9 10  1  0
 10 11  1  0
 11 12  1  0
 12 13  1  0
 13 14  2  0
 14 15  1  0
 15 16  1  0
 16 17  1  0
 17 18  1  0
 18 19  1  0
 19 20  1  0
 20 21  1  0
 20 22  1  0
 22 23  1  0
 15 24  2  0
 24 25  1  0
 25 26  1  0
 26 27  1  0
 27 28  1  0
 28 29  1  0
 29 30  2  0
 30 31  1  0
 31 32  2  0
 32 33  1  0
 33 34  2  0
 34 35  1  0
 25 36  2  0
 12 37  1  0
 37 38  1  0
  8 39  1  0
 39 40  2  0
 40  5  1  0
 38  9  1  0
 36 13  1  0
 23 17  1  0
 35 26  1  0
 34 29  1  0
  1 41  1  0
  1 42  1  0
  1 43  1  0
  6 44  1  0
  7 45  1  0
  9 46  1  0
 10 47  1  0
 10 48  1  0
 11 49  1  0
 11 50  1  0
 16 51  1  0
 17 52  1  6
 18 53  1  0
 18 54  1  0
 19 55  1  0
 19 56  1  0
 20 57  1  6
 21 58  1  0
 21 59  1  0
 22 60  1  0
 22 61  1  0
 23 62  1  0
 23 63  1  0
 27 64  1  0
 27 65  1  0
 28 66  1  0
 28 67  1  0
 30 68  1  0
 31 69  1  0
 32 70  1  0
 33 71  1  0
 35 72  1  0
 35 73  1  0
 37 74  1  0
 37 75  1  0
 38 76  1  0
 38 77  1  0
 39 78  1  0
 40 79  1  0
M  END
>  <smiles>  (12) 
CS(=O)(=O)c1ccc(C2CCN(c3nc(N[C@H]4CC[C@H](N)CC4)nc(N4CCc5ccccc5C4)n3)CC2)cc1

>  <score_type>  (12) 
oracle

>  <origin>  (12) 
autodockgpu

>  <m_score__min__energy>  (12) 
-10.390000000000001

>  <m_primary>  (12) 
energy

>  <rmsd>  (12) 
7.953649003919753

>  <m_score__min__rmsd>  (12) 
7.953649003919753

>  <meeko>  (12) 
{"free_energy": -10.17, "intermolecular_energy": -12.26, "internal_energy": -1.79, "cluster_size": 18, "cluster_id": 2, "rank_in_cluster": 3}

>  <energy>  (12) 
-10.09

>  <cluster_rmsd>  (12) 
0.54

>  <cluster>  (12) 
2

$$$$

     RDKit          3D

 79 84  0  0  0  0  0  0  0  0999 V2000
  141.5270   82.3390  221.7410 C   0  0  0  0  0  0  0  0  0  0  0  0
  141.8200   80.9100  222.7550 S   0  0  0  0  0  0  0  0  0  0  0  0
  143.1540   80.3110  222.3480 O   0  0  0  0  0  0  0  0  0  0  0  0
  141.8610   81.3360  224.2110 O   0  0  0  0  0  0  0  0  0  0  0  0
  140.6100   79.6700  222.5210 C   0  0  0  0  0  0  0  0  0  0  0  0
  139.2680   79.9450  222.3700 C   0  0  0  0  0  0  0  0  0  0  0  0
  138.3360   78.9440  222.1890 C   0  0  0  0  0  0  0  0  0  0  0  0
  138.7920   77.6380  222.1600 C   0  0  0  0  0  0  0  0  0  0  0  0
  137.8920   76.4710  221.9710 C   0  0  0  0  0  0  0  0  0  0  0  0
  137.0500   76.2680  223.2160 C   0  0  0  0  0  0  0  0  0  0  0  0
  136.0470   75.1840  222.8940 C   0  0  0  0  0  0  0  0  0  0  0  0
  136.7210   73.9680  222.4380 N   0  0  0  0  0  0  0  0  0  0  0  0
  136.4800   72.7030  223.0490 C   0  0  0  0  0  0  0  0  0  0  0  0
  135.2340   72.2270  223.2240 N   0  0  0  0  0  0  0  0  0  0  0  0
  134.9900   71.0290  223.8050 C   0  0  0  0  0  0  0  0  0  0  0  0
  133.6630   70.5440  223.9720 N   0  0  0  0  0  0  0  0  0  0  0  0
  133.0290   70.4380  225.2600 C   0  0  1  0  0  0  0  0  0  0  0  0
  133.9350   70.8360  226.3930 C   0  0  0  0  0  0  0  0  0  0  0  0
  133.9670   72.3320  226.6060 C   0  0  0  0  0  0  0  0  0  0  0  0
  132.5760   72.9150  226.7030 C   0  0  2  0  0  0  0  0  0  0  0  0
  132.3230   73.6550  227.8970 N   0  0  0  0  0  0  0  0  0  0  0  0
  131.5160   71.8380  226.5720 C   0  0  0  0  0  0  0  0  0  0  0  0
  131.7200   71.1890  225.2430 C   0  0  0  0  0  0  0  0  0  0  0  0
  136.0620   70.3000  224.2180 N   0  0  0  0  0  0  0  0  0  0  0  0
  137.3240   70.7400  224.0610 C   0  0  0  0  0  0  0  0  0  0  0  0
  138.4240   69.9530  224.5030 N   0  0  0  0  0  0  0  0  0  0  0  0
  138.2900   68.5260  224.4540 C   0  0  0  0  0  0  0  0  0  0  0  0
  139.3930   67.7680  225.1180 C   0  0  0  0  0  0  0  0  0  0  0  0
  140.0200   68.5040  226.2460 C   0  0  0  0  0  0  0  0  0  0  0  0
  140.4620   67.7800  227.3140 C   0  0  0  0  0  0  0  0  0  0  0  0
  141.0470   68.4910  228.3640 C   0  0  0  0  0  0  0  0  0  0  0  0
  141.1660   69.8580  228.3070 C   0  0  0  0  0  0  0  0  0  0  0  0
  140.7130   70.5700  227.2190 C   0  0  0  0  0  0  0  0  0  0  0  0
  140.1370   69.8810  226.1830 C   0  0  0  0  0  0  0  0  0  0  0  0
  139.6310   70.6070  224.9820 C   0  0  0  0  0  0  0  0  0  0  0  0
  137.5030   71.9560  223.4690 N   0  0  0  0  0  0  0  0  0  0  0  0
  137.6420   74.1250  221.3290 C   0  0  0  0  0  0  0  0  0  0  0  0
  138.6410   75.2070  221.6890 C   0  0  0  0  0  0  0  0  0  0  0  0
  140.1500   77.3360  222.3120 C   0  0  0  0  0  0  0  0  0  0  0  0
  141.0680   78.3490  222.4930 C   0  0  0  0  0  0  0  0  0  0  0  0
  141.3476   83.2138  222.3833 H   0  0  0  0  0  0  0  0  0  0  0  0
  142.4058   82.5244  221.1059 H   0  0  0  0  0  0  0  0  0  0  0  0
  140.6461   82.1636  221.1059 H   0  0  0  0  0  0  0  0  0  0  0  0
  138.9306   80.9917  222.3945 H   0  0  0  0  0  0  0  0  0  0  0  0
  137.2672   79.1762  222.0718 H   0  0  0  0  0  0  0  0  0  0  0  0
  137.2592   76.6929  221.0990 H   0  0  0  0  0  0  0  0  0  0  0  0
  137.6869   75.9567  224.0571 H   0  0  0  0  0  0  0  0  0  0  0  0
  136.5435   77.2004  223.5059 H   0  0  0  0  0  0  0  0  0  0  0  0
  135.4622   74.9546  223.7970 H   0  0  0  0  0  0  0  0  0  0  0  0
  135.3875   75.5429  222.0901 H   0  0  0  0  0  0  0  0  0  0  0  0
  133.1430   70.2580  223.1110 H   0  0  0  0  0  0  0  0  0  0  0  0
  132.8067   69.3783  225.4538 H   0  0  0  0  0  0  0  0  0  0  0  0
  134.9545   70.4891  226.1688 H   0  0  0  0  0  0  0  0  0  0  0  0
  133.5455   70.3743  227.3123 H   0  0  0  0  0  0  0  0  0  0  0  0
  134.4914   72.8009  225.7604 H   0  0  0  0  0  0  0  0  0  0  0  0
  134.4881   72.5313  227.5540 H   0  0  0  0  0  0  0  0  0  0  0  0
  132.5218   73.6225  225.8624 H   0  0  0  0  0  0  0  0  0  0  0  0
  131.7590   73.1370  228.5920 H   0  0  0  0  0  0  0  0  0  0  0  0
  133.1530   74.1190  228.3240 H   0  0  0  0  0  0  0  0  0  0  0  0
  130.5128   72.2861  226.6243 H   0  0  0  0  0  0  0  0  0  0  0  0
  131.5984   71.1030  227.3862 H   0  0  0  0  0  0  0  0  0  0  0  0
  131.7459   71.9580  224.4569 H   0  0  0  0  0  0  0  0  0  0  0  0
  130.8938   70.4922  225.0384 H   0  0  0  0  0  0  0  0  0  0  0  0
  137.3443   68.2544  224.9458 H   0  0  0  0  0  0  0  0  0  0  0  0
  138.3222   68.2492  223.3899 H   0  0  0  0  0  0  0  0  0  0  0  0
  138.9834   66.8227  225.5034 H   0  0  0  0  0  0  0  0  0  0  0  0
  140.1754   67.6051  224.3622 H   0  0  0  0  0  0  0  0  0  0  0  0
  140.3622   66.6850  227.3468 H   0  0  0  0  0  0  0  0  0  0  0  0
  141.4169   67.9497  229.2473 H   0  0  0  0  0  0  0  0  0  0  0  0
  141.6321   70.3944  229.1466 H   0  0  0  0  0  0  0  0  0  0  0  0
  140.8109   71.6650  227.1819 H   0  0  0  0  0  0  0  0  0  0  0  0
  139.4032   71.6491  225.2506 H   0  0  0  0  0  0  0  0  0  0  0  0
  140.3967   70.5950  224.1924 H   0  0  0  0  0  0  0  0  0  0  0  0
  138.1698   73.1772  221.1469 H   0  0  0  0  0  0  0  0  0  0  0  0
  137.0933   74.4041  220.4174 H   0  0  0  0  0  0  0  0  0  0  0  0
  139.2089   74.9054  222.5815 H   0  0  0  0  0  0  0  0  0  0  0  0
  139.3432   75.3631  220.8568 H   0  0  0  0  0  0  0  0  0  0  0  0
  140.4857   76.2888  222.2870 H   0  0  0  0  0  0  0  0  0  0  0  0
  142.1378   78.1228  222.6128 H   0  0  0  0  0  0  0  0  0  0  0  0
  1  2  1  0
  2  3  2  0
  2  4  2  0
  2  5  1  0
  5  6  2  0
  6  7  1  0
  7  8  2  0
  8  9  1  0
  9 10  1  0
 10 11  1  0
 11 12  1  0
 12 13  1  0
 13 14  2  0
 14 15  1  0
 15 16  1  0
 16 17  1  0
 17 18  1  0
 18 19  1  0
 19 20  1  0
 20 21  1  0
 20 22  1  0
 22 23  1  0
 15 24  2  0
 24 25  1  0
 25 26  1  0
 26 27  1  0
 27 28  1  0
 28 29  1  0
 29 30  2  0
 30 31  1  0
 31 32  2  0
 32 33  1  0
 33 34  2  0
 34 35  1  0
 25 36  2  0
 12 37  1  0
 37 38  1  0
  8 39  1  0
 39 40  2  0
 40  5  1  0
 38  9  1  0
 36 13  1  0
 23 17  1  0
 35 26  1  0
 34 29  1  0
  1 41  1  0
  1 42  1  0
  1 43  1  0
  6 44  1  0
  7 45  1  0
  9 46  1  0
 10 47  1  0
 10 48  1  0
 11 49  1  0
 11 50  1  0
 16 51  1  0
 17 52  1  1
 18 53  1  0
 18 54  1  0
 19 55  1  0
 19 56  1  0
 20 57  1  6
 21 58  1  0
 21 59  1  0
 22 60  1  0
 22 61  1  0
 23 62  1  0
 23 63  1  0
 27 64  1  0
 27 65  1  0
 28 66  1  0
 28 67  1  0
 30 68  1  0
 31 69  1  0
 32 70  1  0
 33 71  1  0
 35 72  1  0
 35 73  1  0
 37 74  1  0
 37 75  1  0
 38 76  1  0
 38 77  1  0
 39 78  1  0
 40 79  1  0
M  END
>  <smiles>  (13) 
CS(=O)(=O)c1ccc(C2CCN(c3nc(N[C@H]4CC[C@H](N)CC4)nc(N4CCc5ccccc5C4)n3)CC2)cc1

>  <score_type>  (13) 
oracle

>  <origin>  (13) 
autodockgpu

>  <m_score__min__energy>  (13) 
-10.390000000000001

>  <m_primary>  (13) 
energy

>  <rmsd>  (13) 
8.070107378898223

>  <m_score__min__rmsd>  (13) 
8.070107378898223

>  <meeko>  (13) 
{"free_energy": -10.37, "intermolecular_energy": -12.46, "internal_energy": -1.62, "cluster_size": 18, "cluster_id": 2, "rank_in_cluster": 1}

>  <energy>  (13) 
-10.09

>  <cluster_rmsd>  (13) 
0.68

>  <cluster>  (13) 
2

$$$$

     RDKit          3D

 79 84  0  0  0  0  0  0  0  0999 V2000
  141.5050   82.1540  221.6410 C   0  0  0  0  0  0  0  0  0  0  0  0
  141.6990   80.8220  222.8000 S   0  0  0  0  0  0  0  0  0  0  0  0
  143.0370   80.1570  222.5320 O   0  0  0  0  0  0  0  0  0  0  0  0
  141.6690   81.3860  224.2100 O   0  0  0  0  0  0  0  0  0  0  0  0
  140.4700   79.5940  222.6130 C   0  0  0  0  0  0  0  0  0  0  0  0
  139.1200   79.8590  222.6930 C   0  0  0  0  0  0  0  0  0  0  0  0
  138.1730   78.8670  222.5430 C   0  0  0  0  0  0  0  0  0  0  0  0
  138.6220   77.5800  222.3040 C   0  0  0  0  0  0  0  0  0  0  0  0
  137.7050   76.4240  222.1230 C   0  0  0  0  0  0  0  0  0  0  0  0
  136.9500   76.1640  223.4120 C   0  0  0  0  0  0  0  0  0  0  0  0
  135.9230   75.0980  223.1090 C   0  0  0  0  0  0  0  0  0  0  0  0
  136.5580   73.9040  222.5510 N   0  0  0  0  0  0  0  0  0  0  0  0
  136.3540   72.6120  223.1170 C   0  0  0  0  0  0  0  0  0  0  0  0
  135.1300   72.0610  223.2010 N   0  0  0  0  0  0  0  0  0  0  0  0
  134.9210   70.8360  223.7390 C   0  0  0  0  0  0  0  0  0  0  0  0
  133.6170   70.2720  223.8100 N   0  0  0  0  0  0  0  0  0  0  0  0
  132.6300   70.7120  224.7610 C   0  0  1  0  0  0  0  0  0  0  0  0
  133.1210   70.6590  226.1810 C   0  0  0  0  0  0  0  0  0  0  0  0
  133.9280   71.8810  226.5560 C   0  0  0  0  0  0  0  0  0  0  0  0
  133.2050   73.1600  226.2080 C   0  0  2  0  0  0  0  0  0  0  0  0
  133.0180   74.0550  227.3040 N   0  0  0  0  0  0  0  0  0  0  0  0
  131.8520   72.8760  225.5840 C   0  0  0  0  0  0  0  0  0  0  0  0
  132.1030   72.0660  224.3550 C   0  0  0  0  0  0  0  0  0  0  0  0
  136.0060   70.1590  224.2020 N   0  0  0  0  0  0  0  0  0  0  0  0
  137.2470   70.6750  224.1360 C   0  0  0  0  0  0  0  0  0  0  0  0
  138.3620   69.9400  224.6290 N   0  0  0  0  0  0  0  0  0  0  0  0
  138.2300   68.5160  224.7430 C   0  0  0  0  0  0  0  0  0  0  0  0
  139.3550   67.8350  225.4520 C   0  0  0  0  0  0  0  0  0  0  0  0
  140.0130   68.6910  226.4720 C   0  0  0  0  0  0  0  0  0  0  0  0
  140.4890   68.0900  227.6010 C   0  0  0  0  0  0  0  0  0  0  0  0
  141.1040   68.9120  228.5470 C   0  0  0  0  0  0  0  0  0  0  0  0
  141.2180   70.2640  228.3360 C   0  0  0  0  0  0  0  0  0  0  0  0
  140.7310   70.8520  227.1890 C   0  0  0  0  0  0  0  0  0  0  0  0
  140.1250   70.0530  226.2540 C   0  0  0  0  0  0  0  0  0  0  0  0
  139.5820   70.6420  224.9960 C   0  0  0  0  0  0  0  0  0  0  0  0
  137.3920   71.9130  223.5840 N   0  0  0  0  0  0  0  0  0  0  0  0
  137.4010   74.1120  221.3890 C   0  0  0  0  0  0  0  0  0  0  0  0
  138.4280   75.1750  221.7300 C   0  0  0  0  0  0  0  0  0  0  0  0
  139.9880   77.2880  222.2180 C   0  0  0  0  0  0  0  0  0  0  0  0
  140.9210   78.2920  222.3720 C   0  0  0  0  0  0  0  0  0  0  0  0
  141.3674   83.0986  222.1877 H   0  0  0  0  0  0  0  0  0  0  0  0
  142.4025   82.2236  221.0088 H   0  0  0  0  0  0  0  0  0  0  0  0
  140.6250   81.9647  221.0088 H   0  0  0  0  0  0  0  0  0  0  0  0
  138.7881   80.8906  222.8818 H   0  0  0  0  0  0  0  0  0  0  0  0
  137.0983   79.0913  222.6110 H   0  0  0  0  0  0  0  0  0  0  0  0
  137.0135   76.6868  221.3089 H   0  0  0  0  0  0  0  0  0  0  0  0
  137.6417   75.8126  224.1918 H   0  0  0  0  0  0  0  0  0  0  0  0
  136.4689   77.0823  223.7797 H   0  0  0  0  0  0  0  0  0  0  0  0
  135.4005   74.8270  224.0383 H   0  0  0  0  0  0  0  0  0  0  0  0
  135.2119   75.4955  222.3699 H   0  0  0  0  0  0  0  0  0  0  0  0
  133.3850   69.5080  223.1350 H   0  0  0  0  0  0  0  0  0  0  0  0
  131.7877   70.0048  224.7423 H   0  0  0  0  0  0  0  0  0  0  0  0
  133.7527   69.7668  226.3036 H   0  0  0  0  0  0  0  0  0  0  0  0
  132.2409   70.6223  226.8398 H   0  0  0  0  0  0  0  0  0  0  0  0
  134.8855   71.8549  226.0151 H   0  0  0  0  0  0  0  0  0  0  0  0
  134.0876   71.8641  227.6442 H   0  0  0  0  0  0  0  0  0  0  0  0
  133.8715   73.6589  225.4890 H   0  0  0  0  0  0  0  0  0  0  0  0
  132.9760   73.5810  228.2220 H   0  0  0  0  0  0  0  0  0  0  0  0
  133.6420   74.8900  227.3160 H   0  0  0  0  0  0  0  0  0  0  0  0
  131.3517   73.8193  225.3198 H   0  0  0  0  0  0  0  0  0  0  0  0
  131.2003   72.3351  226.2859 H   0  0  0  0  0  0  0  0  0  0  0  0
  132.8439   72.5759  223.7217 H   0  0  0  0  0  0  0  0  0  0  0  0
  131.1670   71.9472  223.7895 H   0  0  0  0  0  0  0  0  0  0  0  0
  137.3008   68.3017  225.2914 H   0  0  0  0  0  0  0  0  0  0  0  0
  138.2296   68.1229  223.7156 H   0  0  0  0  0  0  0  0  0  0  0  0
  138.9603   66.9379  225.9515 H   0  0  0  0  0  0  0  0  0  0  0  0
  140.1145   67.5890  224.6953 H   0  0  0  0  0  0  0  0  0  0  0  0
  140.3923   67.0057  227.7587 H   0  0  0  0  0  0  0  0  0  0  0  0
  141.5022   68.4712  229.4728 H   0  0  0  0  0  0  0  0  0  0  0  0
  141.7074   70.8895  229.0971 H   0  0  0  0  0  0  0  0  0  0  0  0
  140.8261   71.9359  227.0274 H   0  0  0  0  0  0  0  0  0  0  0  0
  139.3603   71.7077  225.1541 H   0  0  0  0  0  0  0  0  0  0  0  0
  140.3237   70.5418  224.1899 H   0  0  0  0  0  0  0  0  0  0  0  0
  137.9105   73.1732  221.1263 H   0  0  0  0  0  0  0  0  0  0  0  0
  136.7919   74.4345  220.5317 H   0  0  0  0  0  0  0  0  0  0  0  0
  139.0551   74.8307  222.5655 H   0  0  0  0  0  0  0  0  0  0  0  0
  139.0720   75.3700  220.8598 H   0  0  0  0  0  0  0  0  0  0  0  0
  140.3181   76.2562  222.0273 H   0  0  0  0  0  0  0  0  0  0  0  0
  141.9971   78.0735  222.3067 H   0  0  0  0  0  0  0  0  0  0  0  0
  1  2  1  0
  2  3  2  0
  2  4  2  0
  2  5  1  0
  5  6  2  0
  6  7  1  0
  7  8  2  0
  8  9  1  0
  9 10  1  0
 10 11  1  0
 11 12  1  0
 12 13  1  0
 13 14  2  0
 14 15  1  0
 15 16  1  0
 16 17  1  0
 17 18  1  0
 18 19  1  0
 19 20  1  0
 20 21  1  0
 20 22  1  0
 22 23  1  0
 15 24  2  0
 24 25  1  0
 25 26  1  0
 26 27  1  0
 27 28  1  0
 28 29  1  0
 29 30  2  0
 30 31  1  0
 31 32  2  0
 32 33  1  0
 33 34  2  0
 34 35  1  0
 25 36  2  0
 12 37  1  0
 37 38  1  0
  8 39  1  0
 39 40  2  0
 40  5  1  0
 38  9  1  0
 36 13  1  0
 23 17  1  0
 35 26  1  0
 34 29  1  0
  1 41  1  0
  1 42  1  0
  1 43  1  0
  6 44  1  0
  7 45  1  0
  9 46  1  0
 10 47  1  0
 10 48  1  0
 11 49  1  0
 11 50  1  0
 16 51  1  0
 17 52  1  1
 18 53  1  0
 18 54  1  0
 19 55  1  0
 19 56  1  0
 20 57  1  6
 21 58  1  0
 21 59  1  0
 22 60  1  0
 22 61  1  0
 23 62  1  0
 23 63  1  0
 27 64  1  0
 27 65  1  0
 28 66  1  0
 28 67  1  0
 30 68  1  0
 31 69  1  0
 32 70  1  0
 33 71  1  0
 35 72  1  0
 35 73  1  0
 37 74  1  0
 37 75  1  0
 38 76  1  0
 38 77  1  0
 39 78  1  0
 40 79  1  0
M  END
>  <smiles>  (14) 
CS(=O)(=O)c1ccc(C2CCN(c3nc(N[C@H]4CC[C@H](N)CC4)nc(N4CCc5ccccc5C4)n3)CC2)cc1

>  <score_type>  (14) 
oracle

>  <origin>  (14) 
autodockgpu

>  <m_score__min__energy>  (14) 
-10.390000000000001

>  <m_primary>  (14) 
energy

>  <rmsd>  (14) 
8.046457320889305

>  <m_score__min__rmsd>  (14) 
8.046457320889305

>  <meeko>  (14) 
{"free_energy": -10.07, "intermolecular_energy": -12.15, "internal_energy": -1.78, "cluster_size": 18, "cluster_id": 2, "rank_in_cluster": 12}

>  <energy>  (14) 
-10.08

>  <cluster_rmsd>  (14) 
0.66

>  <cluster>  (14) 
2

$$$$

     RDKit          3D

 79 84  0  0  0  0  0  0  0  0999 V2000
  141.4300   82.3810  221.6730 C   0  0  0  0  0  0  0  0  0  0  0  0
  141.8620   81.0600  222.7810 S   0  0  0  0  0  0  0  0  0  0  0  0
  143.3050   80.6750  222.5130 O   0  0  0  0  0  0  0  0  0  0  0  0
  141.7060   81.5450  224.2110 O   0  0  0  0  0  0  0  0  0  0  0  0
  140.8930   79.6290  222.5180 C   0  0  0  0  0  0  0  0  0  0  0  0
  141.4330   78.3680  222.3850 C   0  0  0  0  0  0  0  0  0  0  0  0
  140.6420   77.2570  222.1760 C   0  0  0  0  0  0  0  0  0  0  0  0
  139.2730   77.4450  222.1050 C   0  0  0  0  0  0  0  0  0  0  0  0
  138.3130   76.3320  221.8850 C   0  0  0  0  0  0  0  0  0  0  0  0
  137.4820   76.1200  223.1350 C   0  0  0  0  0  0  0  0  0  0  0  0
  136.4220   75.1010  222.7870 C   0  0  0  0  0  0  0  0  0  0  0  0
  137.0270   73.8720  222.2700 N   0  0  0  0  0  0  0  0  0  0  0  0
  136.7340   72.5970  222.8330 C   0  0  0  0  0  0  0  0  0  0  0  0
  135.4930   72.0790  222.8030 N   0  0  0  0  0  0  0  0  0  0  0  0
  135.1990   70.8690  223.3370 C   0  0  0  0  0  0  0  0  0  0  0  0
  133.8790   70.3400  223.2860 N   0  0  0  0  0  0  0  0  0  0  0  0
  132.8130   70.8260  224.1230 C   0  0  1  0  0  0  0  0  0  0  0  0
  133.0150   70.5000  225.5770 C   0  0  0  0  0  0  0  0  0  0  0  0
  133.9190   71.4950  226.2680 C   0  0  0  0  0  0  0  0  0  0  0  0
  133.4840   72.9190  226.0160 C   0  0  2  0  0  0  0  0  0  0  0  0
  133.2380   73.6840  227.1960 N   0  0  0  0  0  0  0  0  0  0  0  0
  132.2450   72.9710  225.1430 C   0  0  0  0  0  0  0  0  0  0  0  0
  132.5910   72.2940  223.8590 C   0  0  0  0  0  0  0  0  0  0  0  0
  136.2140   70.1740  223.9170 N   0  0  0  0  0  0  0  0  0  0  0  0
  137.4680   70.6570  223.9670 C   0  0  0  0  0  0  0  0  0  0  0  0
  138.5090   69.9040  224.5810 N   0  0  0  0  0  0  0  0  0  0  0  0
  138.2660   68.5150  224.8440 C   0  0  0  0  0  0  0  0  0  0  0  0
  139.3130   67.8390  225.6680 C   0  0  0  0  0  0  0  0  0  0  0  0
  140.0020   68.7540  226.6130 C   0  0  0  0  0  0  0  0  0  0  0  0
  140.3960   68.2500  227.8180 C   0  0  0  0  0  0  0  0  0  0  0  0
  141.0420   69.1270  228.6930 C   0  0  0  0  0  0  0  0  0  0  0  0
  141.2640   70.4350  228.3400 C   0  0  0  0  0  0  0  0  0  0  0  0
  140.8590   70.9240  227.1180 C   0  0  0  0  0  0  0  0  0  0  0  0
  140.2230   70.0710  226.2520 C   0  0  0  0  0  0  0  0  0  0  0  0
  139.7660   70.5540  224.9170 C   0  0  0  0  0  0  0  0  0  0  0  0
  137.7010   71.8820  223.4130 N   0  0  0  0  0  0  0  0  0  0  0  0
  137.9380   74.0310  221.1520 C   0  0  0  0  0  0  0  0  0  0  0  0
  138.9950   75.0470  221.5380 C   0  0  0  0  0  0  0  0  0  0  0  0
  138.7040   78.7170  222.2370 C   0  0  0  0  0  0  0  0  0  0  0  0
  139.5100   79.8180  222.4450 C   0  0  0  0  0  0  0  0  0  0  0  0
  141.1399   83.2680  222.2554 H   0  0  0  0  0  0  0  0  0  0  0  0
  142.2950   82.6254  221.0390 H   0  0  0  0  0  0  0  0  0  0  0  0
  140.5877   82.0671  221.0390 H   0  0  0  0  0  0  0  0  0  0  0  0
  142.5242   78.2439  222.4471 H   0  0  0  0  0  0  0  0  0  0  0  0
  141.0847   76.2557  222.0694 H   0  0  0  0  0  0  0  0  0  0  0  0
  137.6771   76.6192  221.0346 H   0  0  0  0  0  0  0  0  0  0  0  0
  138.1156   75.7435  223.9516 H   0  0  0  0  0  0  0  0  0  0  0  0
  137.0272   77.0634  223.4713 H   0  0  0  0  0  0  0  0  0  0  0  0
  135.8405   74.8637  223.6901 H   0  0  0  0  0  0  0  0  0  0  0  0
  135.7694   75.5249  222.0096 H   0  0  0  0  0  0  0  0  0  0  0  0
  133.6960   69.5660  222.6070 H   0  0  0  0  0  0  0  0  0  0  0  0
  131.8885   70.2933  223.8554 H   0  0  0  0  0  0  0  0  0  0  0  0
  133.4647   69.4993  225.6559 H   0  0  0  0  0  0  0  0  0  0  0  0
  132.0325   70.5391  226.0702 H   0  0  0  0  0  0  0  0  0  0  0  0
  134.9447   71.3645  225.8925 H   0  0  0  0  0  0  0  0  0  0  0  0
  133.8671   71.3087  227.3509 H   0  0  0  0  0  0  0  0  0  0  0  0
  134.3436   73.3760  225.5039 H   0  0  0  0  0  0  0  0  0  0  0  0
  132.6760   74.5350  227.0260 H   0  0  0  0  0  0  0  0  0  0  0  0
  132.9030   73.1440  228.0210 H   0  0  0  0  0  0  0  0  0  0  0  0
  131.9587   74.0162  224.9544 H   0  0  0  0  0  0  0  0  0  0  0  0
  131.3959   72.4733  225.6343 H   0  0  0  0  0  0  0  0  0  0  0  0
  133.5083   72.7370  223.4439 H   0  0  0  0  0  0  0  0  0  0  0  0
  131.7702   72.4222  223.1380 H   0  0  0  0  0  0  0  0  0  0  0  0
  137.3061   68.4304  225.3744 H   0  0  0  0  0  0  0  0  0  0  0  0
  138.2689   68.0105  223.8665 H   0  0  0  0  0  0  0  0  0  0  0  0
  138.8355   67.0348  226.2470 H   0  0  0  0  0  0  0  0  0  0  0  0
  140.0751   67.4555  224.9736 H   0  0  0  0  0  0  0  0  0  0  0  0
  140.2132   67.1996  228.0887 H   0  0  0  0  0  0  0  0  0  0  0  0
  141.3767   68.7651  229.6764 H   0  0  0  0  0  0  0  0  0  0  0  0
  141.7752   71.1052  229.0468 H   0  0  0  0  0  0  0  0  0  0  0  0
  141.0411   71.9734  226.8429 H   0  0  0  0  0  0  0  0  0  0  0  0
  139.6201   71.6438  224.9496 H   0  0  0  0  0  0  0  0  0  0  0  0
  140.5231   70.3128  224.1563 H   0  0  0  0  0  0  0  0  0  0  0  0
  138.4155   73.0672  220.9216 H   0  0  0  0  0  0  0  0  0  0  0  0
  137.3893   74.3750  220.2628 H   0  0  0  0  0  0  0  0  0  0  0  0
  139.5617   74.6811  222.4069 H   0  0  0  0  0  0  0  0  0  0  0  0
  139.6911   75.2036  220.7008 H   0  0  0  0  0  0  0  0  0  0  0  0
  137.6126   78.8394  222.1749 H   0  0  0  0  0  0  0  0  0  0  0  0
  139.0735   80.8221  222.5510 H   0  0  0  0  0  0  0  0  0  0  0  0
  1  2  1  0
  2  3  2  0
  2  4  2  0
  2  5  1  0
  5  6  2  0
  6  7  1  0
  7  8  2  0
  8  9  1  0
  9 10  1  0
 10 11  1  0
 11 12  1  0
 12 13  1  0
 13 14  2  0
 14 15  1  0
 15 16  1  0
 16 17  1  0
 17 18  1  0
 18 19  1  0
 19 20  1  0
 20 21  1  0
 20 22  1  0
 22 23  1  0
 15 24  2  0
 24 25  1  0
 25 26  1  0
 26 27  1  0
 27 28  1  0
 28 29  1  0
 29 30  2  0
 30 31  1  0
 31 32  2  0
 32 33  1  0
 33 34  2  0
 34 35  1  0
 25 36  2  0
 12 37  1  0
 37 38  1  0
  8 39  1  0
 39 40  2  0
 40  5  1  0
 38  9  1  0
 36 13  1  0
 23 17  1  0
 35 26  1  0
 34 29  1  0
  1 41  1  0
  1 42  1  0
  1 43  1  0
  6 44  1  0
  7 45  1  0
  9 46  1  0
 10 47  1  0
 10 48  1  0
 11 49  1  0
 11 50  1  0
 16 51  1  0
 17 52  1  6
 18 53  1  0
 18 54  1  0
 19 55  1  0
 19 56  1  0
 20 57  1  6
 21 58  1  0
 21 59  1  0
 22 60  1  0
 22 61  1  0
 23 62  1  0
 23 63  1  0
 27 64  1  0
 27 65  1  0
 28 66  1  0
 28 67  1  0
 30 68  1  0
 31 69  1  0
 32 70  1  0
 33 71  1  0
 35 72  1  0
 35 73  1  0
 37 74  1  0
 37 75  1  0
 38 76  1  0
 38 77  1  0
 39 78  1  0
 40 79  1  0
M  END
>  <smiles>  (15) 
CS(=O)(=O)c1ccc(C2CCN(c3nc(N[C@H]4CC[C@H](N)CC4)nc(N4CCc5ccccc5C4)n3)CC2)cc1

>  <score_type>  (15) 
oracle

>  <origin>  (15) 
autodockgpu

>  <m_score__min__energy>  (15) 
-10.390000000000001

>  <m_primary>  (15) 
energy

>  <rmsd>  (15) 
8.04499475476926

>  <m_score__min__rmsd>  (15) 
8.04499475476926

>  <meeko>  (15) 
{"free_energy": -9.98, "intermolecular_energy": -12.07, "internal_energy": -1.79, "cluster_size": 18, "cluster_id": 2, "rank_in_cluster": 15}

>  <energy>  (15) 
-10.07

>  <cluster_rmsd>  (15) 
0.64

>  <cluster>  (15) 
2

$$$$

     RDKit          3D

 79 84  0  0  0  0  0  0  0  0999 V2000
  139.6170   69.1640  228.2580 C   0  0  0  0  0  0  0  0  0  0  0  0
  139.9010   68.1280  226.8430 S   0  0  0  0  0  0  0  0  0  0  0  0
  141.3060   67.5630  226.9490 O   0  0  0  0  0  0  0  0  0  0  0  0
  138.8840   67.0010  226.8440 O   0  0  0  0  0  0  0  0  0  0  0  0
  139.8190   69.0170  225.3410 C   0  0  0  0  0  0  0  0  0  0  0  0
  139.1930   68.5330  224.2120 C   0  0  0  0  0  0  0  0  0  0  0  0
  139.1460   69.2580  223.0390 C   0  0  0  0  0  0  0  0  0  0  0  0
  139.7520   70.5030  223.0270 C   0  0  0  0  0  0  0  0  0  0  0  0
  139.7710   71.3820  221.8290 C   0  0  0  0  0  0  0  0  0  0  0  0
  141.1250   71.2940  221.1520 C   0  0  0  0  0  0  0  0  0  0  0  0
  141.0190   72.0700  219.8600 C   0  0  0  0  0  0  0  0  0  0  0  0
  140.5770   73.4420  220.1090 N   0  0  0  0  0  0  0  0  0  0  0  0
  141.3100   74.5660  219.6280 C   0  0  0  0  0  0  0  0  0  0  0  0
  142.3040   74.4310  218.7330 N   0  0  0  0  0  0  0  0  0  0  0  0
  143.0120   75.4890  218.2690 C   0  0  0  0  0  0  0  0  0  0  0  0
  144.0550   75.3200  217.3160 N   0  0  0  0  0  0  0  0  0  0  0  0
  143.8900   75.6260  215.9190 C   0  0  1  0  0  0  0  0  0  0  0  0
  142.8040   74.8140  215.2670 C   0  0  0  0  0  0  0  0  0  0  0  0
  141.4310   75.4060  215.4890 C   0  0  0  0  0  0  0  0  0  0  0  0
  141.3900   76.8750  215.1380 C   0  0  2  0  0  0  0  0  0  0  0  0
  140.4000   77.2290  214.1730 N   0  0  0  0  0  0  0  0  0  0  0  0
  142.7380   77.3630  214.6440 C   0  0  0  0  0  0  0  0  0  0  0  0
  143.7180   77.1150  215.7430 C   0  0  0  0  0  0  0  0  0  0  0  0
  142.6830   76.7210  218.7420 N   0  0  0  0  0  0  0  0  0  0  0  0
  141.6950   76.8980  219.6380 C   0  0  0  0  0  0  0  0  0  0  0  0
  141.3760   78.2010  220.1120 N   0  0  0  0  0  0  0  0  0  0  0  0
  141.8350   79.3250  219.3480 C   0  0  0  0  0  0  0  0  0  0  0  0
  141.6420   80.6530  220.0050 C   0  0  0  0  0  0  0  0  0  0  0  0
  141.6780   80.5880  221.4890 C   0  0  0  0  0  0  0  0  0  0  0  0
  142.2120   81.6470  222.1620 C   0  0  0  0  0  0  0  0  0  0  0  0
  142.2370   81.5670  223.5560 C   0  0  0  0  0  0  0  0  0  0  0  0
  141.7390   80.4630  224.2050 C   0  0  0  0  0  0  0  0  0  0  0  0
  141.2030   79.4050  223.5060 C   0  0  0  0  0  0  0  0  0  0  0  0
  141.1750   79.4740  222.1370 C   0  0  0  0  0  0  0  0  0  0  0  0
  140.6040   78.3530  221.3360 C   0  0  0  0  0  0  0  0  0  0  0  0
  141.0200   75.7930  220.0660 N   0  0  0  0  0  0  0  0  0  0  0  0
  139.3500   73.5900  220.8690 C   0  0  0  0  0  0  0  0  0  0  0  0
  139.4950   72.8140  222.1630 C   0  0  0  0  0  0  0  0  0  0  0  0
  140.3930   71.0130  224.1620 C   0  0  0  0  0  0  0  0  0  0  0  0
  140.4300   70.2740  225.3260 C   0  0  0  0  0  0  0  0  0  0  0  0
  139.7768   68.5812  229.1771 H   0  0  0  0  0  0  0  0  0  0  0  0
  140.3154   70.0136  228.2365 H   0  0  0  0  0  0  0  0  0  0  0  0
  138.5830   69.5387  228.2365 H   0  0  0  0  0  0  0  0  0  0  0  0
  138.7179   67.5415  224.2474 H   0  0  0  0  0  0  0  0  0  0  0  0
  138.6444   68.8607  222.1443 H   0  0  0  0  0  0  0  0  0  0  0  0
  138.9725   71.0289  221.1598 H   0  0  0  0  0  0  0  0  0  0  0  0
  141.8998   71.7353  221.7962 H   0  0  0  0  0  0  0  0  0  0  0  0
  141.4035   70.2470  220.9616 H   0  0  0  0  0  0  0  0  0  0  0  0
  142.0044   72.0923  219.3716 H   0  0  0  0  0  0  0  0  0  0  0  0
  140.2800   71.5751  219.2128 H   0  0  0  0  0  0  0  0  0  0  0  0
  144.9720   74.9590  217.6640 H   0  0  0  0  0  0  0  0  0  0  0  0
  144.8049   75.3286  215.3856 H   0  0  0  0  0  0  0  0  0  0  0  0
  142.8226   73.7973  215.6866 H   0  0  0  0  0  0  0  0  0  0  0  0
  142.9951   74.8060  214.1838 H   0  0  0  0  0  0  0  0  0  0  0  0
  141.1581   75.2851  216.5477 H   0  0  0  0  0  0  0  0  0  0  0  0
  140.7212   74.8782  214.8350 H   0  0  0  0  0  0  0  0  0  0  0  0
  141.1171   77.3687  216.0823 H   0  0  0  0  0  0  0  0  0  0  0  0
  139.5280   76.6780  214.2550 H   0  0  0  0  0  0  0  0  0  0  0  0
  140.2180   78.2490  214.0670 H   0  0  0  0  0  0  0  0  0  0  0  0
  142.6905   78.4378  214.4148 H   0  0  0  0  0  0  0  0  0  0  0  0
  143.0350   76.8363  213.7251 H   0  0  0  0  0  0  0  0  0  0  0  0
  143.3432   77.5564  216.6783 H   0  0  0  0  0  0  0  0  0  0  0  0
  144.6851   77.5742  215.4901 H   0  0  0  0  0  0  0  0  0  0  0  0
  142.9099   79.1917  219.1560 H   0  0  0  0  0  0  0  0  0  0  0  0
  141.2280   79.3433  218.4308 H   0  0  0  0  0  0  0  0  0  0  0  0
  142.4408   81.3291  219.6661 H   0  0  0  0  0  0  0  0  0  0  0  0
  140.6429   81.0142  219.7199 H   0  0  0  0  0  0  0  0  0  0  0  0
  142.6058   82.5257  221.6302 H   0  0  0  0  0  0  0  0  0  0  0  0
  142.6600   82.3970  224.1409 H   0  0  0  0  0  0  0  0  0  0  0  0
  141.7692   80.4238  225.3039 H   0  0  0  0  0  0  0  0  0  0  0  0
  140.8065   78.5249  224.0335 H   0  0  0  0  0  0  0  0  0  0  0  0
  140.6516   77.4217  221.9195 H   0  0  0  0  0  0  0  0  0  0  0  0
  139.5549   78.5717  221.0878 H   0  0  0  0  0  0  0  0  0  0  0  0
  139.1757   74.6533  221.0905 H   0  0  0  0  0  0  0  0  0  0  0  0
  138.4971   73.2058  220.2903 H   0  0  0  0  0  0  0  0  0  0  0  0
  140.3288   73.2253  222.7509 H   0  0  0  0  0  0  0  0  0  0  0  0
  138.5711   72.8918  222.7548 H   0  0  0  0  0  0  0  0  0  0  0  0
  140.8679   72.0045  224.1256 H   0  0  0  0  0  0  0  0  0  0  0  0
  140.9300   70.6658  226.2240 H   0  0  0  0  0  0  0  0  0  0  0  0
  1  2  1  0
  2  3  2  0
  2  4  2  0
  2  5  1  0
  5  6  2  0
  6  7  1  0
  7  8  2  0
  8  9  1  0
  9 10  1  0
 10 11  1  0
 11 12  1  0
 12 13  1  0
 13 14  2  0
 14 15  1  0
 15 16  1  0
 16 17  1  0
 17 18  1  0
 18 19  1  0
 19 20  1  0
 20 21  1  0
 20 22  1  0
 22 23  1  0
 15 24  2  0
 24 25  1  0
 25 26  1  0
 26 27  1  0
 27 28  1  0
 28 29  1  0
 29 30  2  0
 30 31  1  0
 31 32  2  0
 32 33  1  0
 33 34  2  0
 34 35  1  0
 25 36  2  0
 12 37  1  0
 37 38  1  0
  8 39  1  0
 39 40  2  0
 40  5  1  0
 38  9  1  0
 36 13  1  0
 23 17  1  0
 35 26  1  0
 34 29  1  0
  1 41  1  0
  1 42  1  0
  1 43  1  0
  6 44  1  0
  7 45  1  0
  9 46  1  0
 10 47  1  0
 10 48  1  0
 11 49  1  0
 11 50  1  0
 16 51  1  0
 17 52  1  6
 18 53  1  0
 18 54  1  0
 19 55  1  0
 19 56  1  0
 20 57  1  1
 21 58  1  0
 21 59  1  0
 22 60  1  0
 22 61  1  0
 23 62  1  0
 23 63  1  0
 27 64  1  0
 27 65  1  0
 28 66  1  0
 28 67  1  0
 30 68  1  0
 31 69  1  0
 32 70  1  0
 33 71  1  0
 35 72  1  0
 35 73  1  0
 37 74  1  0
 37 75  1  0
 38 76  1  0
 38 77  1  0
 39 78  1  0
 40 79  1  0
M  END
>  <smiles>  (16) 
CS(=O)(=O)c1ccc(C2CCN(c3nc(N[C@H]4CC[C@H](N)CC4)nc(N4CCc5ccccc5C4)n3)CC2)cc1

>  <score_type>  (16) 
oracle

>  <origin>  (16) 
autodockgpu

>  <m_score__min__energy>  (16) 
-10.390000000000001

>  <m_primary>  (16) 
energy

>  <rmsd>  (16) 
2.86792566370951

>  <m_score__min__rmsd>  (16) 
2.86792566370951

>  <meeko>  (16) 
{"free_energy": -8.25, "intermolecular_energy": -10.34, "internal_energy": -1.76, "cluster_size": 2, "cluster_id": 10, "rank_in_cluster": 2}

>  <energy>  (16) 
-10.07

>  <cluster_rmsd>  (16) 
0.52

>  <cluster>  (16) 
2

$$$$

     RDKit          3D

 79 84  0  0  0  0  0  0  0  0999 V2000
  142.5700   81.9500  215.3710 C   0  0  0  0  0  0  0  0  0  0  0  0
  142.5020   82.5220  217.0520 S   0  0  0  0  0  0  0  0  0  0  0  0
  143.8410   83.1530  217.3880 O   0  0  0  0  0  0  0  0  0  0  0  0
  141.3920   83.5500  217.1800 O   0  0  0  0  0  0  0  0  0  0  0  0
  142.2520   81.2170  218.1880 C   0  0  0  0  0  0  0  0  0  0  0  0
  141.7780   81.4110  219.4670 C   0  0  0  0  0  0  0  0  0  0  0  0
  141.5930   80.3610  220.3420 C   0  0  0  0  0  0  0  0  0  0  0  0
  141.8990   79.0880  219.8930 C   0  0  0  0  0  0  0  0  0  0  0  0
  141.7430   77.8730  220.7350 C   0  0  0  0  0  0  0  0  0  0  0  0
  141.6370   76.6470  219.8500 C   0  0  0  0  0  0  0  0  0  0  0  0
  141.6550   75.4440  220.7640 C   0  0  0  0  0  0  0  0  0  0  0  0
  140.5930   75.5350  221.7680 N   0  0  0  0  0  0  0  0  0  0  0  0
  139.6460   74.4870  221.9550 C   0  0  0  0  0  0  0  0  0  0  0  0
  138.3850   74.5840  221.4980 N   0  0  0  0  0  0  0  0  0  0  0  0
  137.4740   73.5970  221.6710 C   0  0  0  0  0  0  0  0  0  0  0  0
  136.1470   73.7200  221.1720 N   0  0  0  0  0  0  0  0  0  0  0  0
  135.1100   74.4230  221.8830 C   0  0  1  0  0  0  0  0  0  0  0  0
  134.2210   73.5060  222.6770 C   0  0  0  0  0  0  0  0  0  0  0  0
  134.8130   73.1560  224.0230 C   0  0  0  0  0  0  0  0  0  0  0  0
  135.2540   74.3870  224.7800 C   0  0  2  0  0  0  0  0  0  0  0  0
  134.6740   74.5270  226.0770 N   0  0  0  0  0  0  0  0  0  0  0  0
  134.9730   75.6510  223.9900 C   0  0  0  0  0  0  0  0  0  0  0  0
  135.7210   75.5320  222.7040 C   0  0  0  0  0  0  0  0  0  0  0  0
  137.8750   72.4780  222.3320 N   0  0  0  0  0  0  0  0  0  0  0  0
  139.1280   72.3430  222.8040 C   0  0  0  0  0  0  0  0  0  0  0  0
  139.5160   71.1590  223.4920 N   0  0  0  0  0  0  0  0  0  0  0  0
  138.6800   70.0010  223.3600 C   0  0  0  0  0  0  0  0  0  0  0  0
  139.0340   68.8650  224.2630 C   0  0  0  0  0  0  0  0  0  0  0  0
  139.6560   69.2970  225.5400 C   0  0  0  0  0  0  0  0  0  0  0  0
  139.3870   68.5690  226.6620 C   0  0  0  0  0  0  0  0  0  0  0  0
  139.9810   68.9920  227.8520 C   0  0  0  0  0  0  0  0  0  0  0  0
  140.8000   70.0940  227.8750 C   0  0  0  0  0  0  0  0  0  0  0  0
  141.0590   70.8160  226.7320 C   0  0  0  0  0  0  0  0  0  0  0  0
  140.4800   70.4080  225.5580 C   0  0  0  0  0  0  0  0  0  0  0  0
  140.7300   71.1570  224.2920 C   0  0  0  0  0  0  0  0  0  0  0  0
  139.9990   73.3720  222.5990 N   0  0  0  0  0  0  0  0  0  0  0  0
  140.5650   76.7500  222.5590 C   0  0  0  0  0  0  0  0  0  0  0  0
  140.5340   77.9350  221.6140 C   0  0  0  0  0  0  0  0  0  0  0  0
  142.3810   78.8670  218.5970 C   0  0  0  0  0  0  0  0  0  0  0  0
  142.5610   79.9300  217.7360 C   0  0  0  0  0  0  0  0  0  0  0  0
  142.6999   80.8577  215.3603 H   0  0  0  0  0  0  0  0  0  0  0  0
  141.6343   82.2130  214.8560 H   0  0  0  0  0  0  0  0  0  0  0  0
  143.4180   82.4251  214.8560 H   0  0  0  0  0  0  0  0  0  0  0  0
  141.5404   82.4322  219.7997 H   0  0  0  0  0  0  0  0  0  0  0  0
  141.2154   80.5294  221.3613 H   0  0  0  0  0  0  0  0  0  0  0  0
  142.6311   77.8156  221.3815 H   0  0  0  0  0  0  0  0  0  0  0  0
  140.6979   76.6734  219.2778 H   0  0  0  0  0  0  0  0  0  0  0  0
  142.4679   76.6075  219.1303 H   0  0  0  0  0  0  0  0  0  0  0  0
  141.5068   74.5338  220.1644 H   0  0  0  0  0  0  0  0  0  0  0  0
  142.6254   75.4096  221.2808 H   0  0  0  0  0  0  0  0  0  0  0  0
  135.9350   73.2760  220.2500 H   0  0  0  0  0  0  0  0  0  0  0  0
  134.4327   74.8836  221.1488 H   0  0  0  0  0  0  0  0  0  0  0  0
  134.0690   72.5785  222.1055 H   0  0  0  0  0  0  0  0  0  0  0  0
  133.2699   74.0296  222.8538 H   0  0  0  0  0  0  0  0  0  0  0  0
  135.6837   72.5016  223.8695 H   0  0  0  0  0  0  0  0  0  0  0  0
  134.0372   72.6498  224.6162 H   0  0  0  0  0  0  0  0  0  0  0  0
  136.3358   74.2441  224.9188 H   0  0  0  0  0  0  0  0  0  0  0  0
  134.4490   73.6230  226.5290 H   0  0  0  0  0  0  0  0  0  0  0  0
  135.1650   75.1820  226.7220 H   0  0  0  0  0  0  0  0  0  0  0  0
  135.3200   76.5321  224.5496 H   0  0  0  0  0  0  0  0  0  0  0  0
  133.8947   75.7716  223.8093 H   0  0  0  0  0  0  0  0  0  0  0  0
  136.7761   75.2998  222.9108 H   0  0  0  0  0  0  0  0  0  0  0  0
  135.6628   76.4807  222.1502 H   0  0  0  0  0  0  0  0  0  0  0  0
  137.6441   70.3005  223.5773 H   0  0  0  0  0  0  0  0  0  0  0  0
  138.8200   69.6342  222.3324 H   0  0  0  0  0  0  0  0  0  0  0  0
  138.1161   68.3048  224.4945 H   0  0  0  0  0  0  0  0  0  0  0  0
  139.7755   68.2488  223.7334 H   0  0  0  0  0  0  0  0  0  0  0  0
  138.7305   67.6870  226.6301 H   0  0  0  0  0  0  0  0  0  0  0  0
  139.7910   68.4363  228.7821 H   0  0  0  0  0  0  0  0  0  0  0  0
  141.2580   70.4059  228.8253 H   0  0  0  0  0  0  0  0  0  0  0  0
  141.7146   71.6989  226.7598 H   0  0  0  0  0  0  0  0  0  0  0  0
  141.0176   72.1923  224.5274 H   0  0  0  0  0  0  0  0  0  0  0  0
  141.5429   70.6737  223.7302 H   0  0  0  0  0  0  0  0  0  0  0  0
  139.6677   76.7586  223.1953 H   0  0  0  0  0  0  0  0  0  0  0  0
  141.4555   76.8028  223.2026 H   0  0  0  0  0  0  0  0  0  0  0  0
  139.6242   77.8939  220.9971 H   0  0  0  0  0  0  0  0  0  0  0  0
  140.5324   78.8740  222.1869 H   0  0  0  0  0  0  0  0  0  0  0  0
  142.6163   77.8450  218.2651 H   0  0  0  0  0  0  0  0  0  0  0  0
  142.9395   79.7687  216.7158 H   0  0  0  0  0  0  0  0  0  0  0  0
  1  2  1  0
  2  3  2  0
  2  4  2  0
  2  5  1  0
  5  6  2  0
  6  7  1  0
  7  8  2  0
  8  9  1  0
  9 10  1  0
 10 11  1  0
 11 12  1  0
 12 13  1  0
 13 14  2  0
 14 15  1  0
 15 16  1  0
 16 17  1  0
 17 18  1  0
 18 19  1  0
 19 20  1  0
 20 21  1  0
 20 22  1  0
 22 23  1  0
 15 24  2  0
 24 25  1  0
 25 26  1  0
 26 27  1  0
 27 28  1  0
 28 29  1  0
 29 30  2  0
 30 31  1  0
 31 32  2  0
 32 33  1  0
 33 34  2  0
 34 35  1  0
 25 36  2  0
 12 37  1  0
 37 38  1  0
  8 39  1  0
 39 40  2  0
 40  5  1  0
 38  9  1  0
 36 13  1  0
 23 17  1  0
 35 26  1  0
 34 29  1  0
  1 41  1  0
  1 42  1  0
  1 43  1  0
  6 44  1  0
  7 45  1  0
  9 46  1  0
 10 47  1  0
 10 48  1  0
 11 49  1  0
 11 50  1  0
 16 51  1  0
 17 52  1  6
 18 53  1  0
 18 54  1  0
 19 55  1  0
 19 56  1  0
 20 57  1  1
 21 58  1  0
 21 59  1  0
 22 60  1  0
 22 61  1  0
 23 62  1  0
 23 63  1  0
 27 64  1  0
 27 65  1  0
 28 66  1  0
 28 67  1  0
 30 68  1  0
 31 69  1  0
 32 70  1  0
 33 71  1  0
 35 72  1  0
 35 73  1  0
 37 74  1  0
 37 75  1  0
 38 76  1  0
 38 77  1  0
 39 78  1  0
 40 79  1  0
M  END
>  <smiles>  (17) 
CS(=O)(=O)c1ccc(C2CCN(c3nc(N[C@H]4CC[C@H](N)CC4)nc(N4CCc5ccccc5C4)n3)CC2)cc1

>  <score_type>  (17) 
oracle

>  <origin>  (17) 
autodockgpu

>  <m_score__min__energy>  (17) 
-10.390000000000001

>  <m_primary>  (17) 
energy

>  <rmsd>  (17) 
10.607048809707914

>  <m_score__min__rmsd>  (17) 
10.607048809707914

>  <meeko>  (17) 
{"free_energy": -9.23, "intermolecular_energy": -11.31, "internal_energy": -1.71, "cluster_size": 12, "cluster_id": 4, "rank_in_cluster": 10}

>  <energy>  (17) 
-10.02

>  <cluster_rmsd>  (17) 
0.87

>  <cluster>  (17) 
2

$$$$

     RDKit          3D

 79 84  0  0  0  0  0  0  0  0999 V2000
  141.4500   82.3520  221.7390 C   0  0  0  0  0  0  0  0  0  0  0  0
  141.7800   81.0030  222.8480 S   0  0  0  0  0  0  0  0  0  0  0  0
  143.2240   80.5780  222.6530 O   0  0  0  0  0  0  0  0  0  0  0  0
  141.5610   81.4730  224.2750 O   0  0  0  0  0  0  0  0  0  0  0  0
  140.7860   79.6070  222.5100 C   0  0  0  0  0  0  0  0  0  0  0  0
  141.2070   78.5520  221.7290 C   0  0  0  0  0  0  0  0  0  0  0  0
  140.3980   77.4630  221.4780 C   0  0  0  0  0  0  0  0  0  0  0  0
  139.1340   77.4580  222.0420 C   0  0  0  0  0  0  0  0  0  0  0  0
  138.1670   76.3460  221.8500 C   0  0  0  0  0  0  0  0  0  0  0  0
  137.3790   76.1270  223.1280 C   0  0  0  0  0  0  0  0  0  0  0  0
  136.3070   75.1100  222.8120 C   0  0  0  0  0  0  0  0  0  0  0  0
  136.8950   73.8840  222.2680 N   0  0  0  0  0  0  0  0  0  0  0  0
  136.6210   72.6060  222.8360 C   0  0  0  0  0  0  0  0  0  0  0  0
  135.3830   72.0790  222.8290 N   0  0  0  0  0  0  0  0  0  0  0  0
  135.1080   70.8670  223.3670 C   0  0  0  0  0  0  0  0  0  0  0  0
  133.7910   70.3280  223.3410 N   0  0  0  0  0  0  0  0  0  0  0  0
  132.7520   70.7700  224.2340 C   0  0  1  0  0  0  0  0  0  0  0  0
  133.0600   70.4830  225.6780 C   0  0  0  0  0  0  0  0  0  0  0  0
  133.9470   71.5390  226.2970 C   0  0  0  0  0  0  0  0  0  0  0  0
  133.4170   72.9320  226.0500 C   0  0  2  0  0  0  0  0  0  0  0  0
  133.2010   73.7040  227.2320 N   0  0  0  0  0  0  0  0  0  0  0  0
  132.1260   72.8990  225.2550 C   0  0  0  0  0  0  0  0  0  0  0  0
  132.4320   72.2190  223.9620 C   0  0  0  0  0  0  0  0  0  0  0  0
  136.1380   70.1780  223.9270 N   0  0  0  0  0  0  0  0  0  0  0  0
  137.3900   70.6700  223.9540 C   0  0  0  0  0  0  0  0  0  0  0  0
  138.4470   69.9230  224.5470 N   0  0  0  0  0  0  0  0  0  0  0  0
  138.2420   68.5190  224.7560 C   0  0  0  0  0  0  0  0  0  0  0  0
  139.3020   67.8420  225.5610 C   0  0  0  0  0  0  0  0  0  0  0  0
  139.9590   68.7390  226.5460 C   0  0  0  0  0  0  0  0  0  0  0  0
  140.3590   68.2010  227.7340 C   0  0  0  0  0  0  0  0  0  0  0  0
  140.9740   69.0620  228.6460 C   0  0  0  0  0  0  0  0  0  0  0  0
  141.1620   70.3880  228.3430 C   0  0  0  0  0  0  0  0  0  0  0  0
  140.7510   70.9120  227.1380 C   0  0  0  0  0  0  0  0  0  0  0  0
  140.1460   70.0750  226.2360 C   0  0  0  0  0  0  0  0  0  0  0  0
  139.6830   70.5940  224.9160 C   0  0  0  0  0  0  0  0  0  0  0  0
  137.6030   71.8960  223.3960 N   0  0  0  0  0  0  0  0  0  0  0  0
  137.7660   74.0470  221.1210 C   0  0  0  0  0  0  0  0  0  0  0  0
  138.8360   75.0620  221.4750 C   0  0  0  0  0  0  0  0  0  0  0  0
  138.6860   78.5180  222.8390 C   0  0  0  0  0  0  0  0  0  0  0  0
  139.5080   79.5990  223.0790 C   0  0  0  0  0  0  0  0  0  0  0  0
  141.2281   83.2589  222.3206 H   0  0  0  0  0  0  0  0  0  0  0  0
  142.3312   82.5294  221.1050 H   0  0  0  0  0  0  0  0  0  0  0  0
  140.5864   82.1026  221.1050 H   0  0  0  0  0  0  0  0  0  0  0  0
  142.2168   78.5792  221.2935 H   0  0  0  0  0  0  0  0  0  0  0  0
  140.7453   76.6281  220.8517 H   0  0  0  0  0  0  0  0  0  0  0  0
  137.5031   76.6381  221.0230 H   0  0  0  0  0  0  0  0  0  0  0  0
  138.0405   75.7461  223.9200 H   0  0  0  0  0  0  0  0  0  0  0  0
  136.9363   77.0687  223.4847 H   0  0  0  0  0  0  0  0  0  0  0  0
  135.7572   74.8678  223.7335 H   0  0  0  0  0  0  0  0  0  0  0  0
  135.6270   75.5376  222.0605 H   0  0  0  0  0  0  0  0  0  0  0  0
  133.5890   69.5820  222.6370 H   0  0  0  0  0  0  0  0  0  0  0  0
  131.8445   70.1823  224.0315 H   0  0  0  0  0  0  0  0  0  0  0  0
  133.5692   69.5102  225.7444 H   0  0  0  0  0  0  0  0  0  0  0  0
  132.1086   70.4773  226.2300 H   0  0  0  0  0  0  0  0  0  0  0  0
  134.9537   71.4586  225.8611 H   0  0  0  0  0  0  0  0  0  0  0  0
  133.9721   71.3704  227.3837 H   0  0  0  0  0  0  0  0  0  0  0  0
  134.2159   73.4263  225.4777 H   0  0  0  0  0  0  0  0  0  0  0  0
  132.6400   74.5580  227.0700 H   0  0  0  0  0  0  0  0  0  0  0  0
  132.8790   73.1700  228.0670 H   0  0  0  0  0  0  0  0  0  0  0  0
  131.7697   73.9229  225.0691 H   0  0  0  0  0  0  0  0  0  0  0  0
  131.3378   72.3640  225.8050 H   0  0  0  0  0  0  0  0  0  0  0  0
  133.2963   72.7045  223.4852 H   0  0  0  0  0  0  0  0  0  0  0  0
  131.5636   72.2886  223.2904 H   0  0  0  0  0  0  0  0  0  0  0  0
  137.2817   68.3875  225.2761 H   0  0  0  0  0  0  0  0  0  0  0  0
  138.2653   68.0521  223.7603 H   0  0  0  0  0  0  0  0  0  0  0  0
  138.8439   67.0029  226.1051 H   0  0  0  0  0  0  0  0  0  0  0  0
  140.0792   67.5075  224.8581 H   0  0  0  0  0  0  0  0  0  0  0  0
  140.2041   67.1364  227.9636 H   0  0  0  0  0  0  0  0  0  0  0  0
  141.3116   68.6733  229.6181 H   0  0  0  0  0  0  0  0  0  0  0  0
  141.6508   71.0447  229.0777 H   0  0  0  0  0  0  0  0  0  0  0  0
  140.9042   71.9760  226.9046 H   0  0  0  0  0  0  0  0  0  0  0  0
  139.5066   71.6774  224.9877 H   0  0  0  0  0  0  0  0  0  0  0  0
  140.4510   70.4014  224.1524 H   0  0  0  0  0  0  0  0  0  0  0  0
  138.2352   73.0841  220.8706 H   0  0  0  0  0  0  0  0  0  0  0  0
  137.1873   74.3942  220.2524 H   0  0  0  0  0  0  0  0  0  0  0  0
  139.4318   74.6927  222.3227 H   0  0  0  0  0  0  0  0  0  0  0  0
  139.5030   75.2218  220.6150 H   0  0  0  0  0  0  0  0  0  0  0  0
  137.6764   78.4887  223.2747 H   0  0  0  0  0  0  0  0  0  0  0  0
  139.1661   80.4369  223.7043 H   0  0  0  0  0  0  0  0  0  0  0  0
  1  2  1  0
  2  3  2  0
  2  4  2  0
  2  5  1  0
  5  6  2  0
  6  7  1  0
  7  8  2  0
  8  9  1  0
  9 10  1  0
 10 11  1  0
 11 12  1  0
 12 13  1  0
 13 14  2  0
 14 15  1  0
 15 16  1  0
 16 17  1  0
 17 18  1  0
 18 19  1  0
 19 20  1  0
 20 21  1  0
 20 22  1  0
 22 23  1  0
 15 24  2  0
 24 25  1  0
 25 26  1  0
 26 27  1  0
 27 28  1  0
 28 29  1  0
 29 30  2  0
 30 31  1  0
 31 32  2  0
 32 33  1  0
 33 34  2  0
 34 35  1  0
 25 36  2  0
 12 37  1  0
 37 38  1  0
  8 39  1  0
 39 40  2  0
 40  5  1  0
 38  9  1  0
 36 13  1  0
 23 17  1  0
 35 26  1  0
 34 29  1  0
  1 41  1  0
  1 42  1  0
  1 43  1  0
  6 44  1  0
  7 45  1  0
  9 46  1  0
 10 47  1  0
 10 48  1  0
 11 49  1  0
 11 50  1  0
 16 51  1  0
 17 52  1  6
 18 53  1  0
 18 54  1  0
 19 55  1  0
 19 56  1  0
 20 57  1  6
 21 58  1  0
 21 59  1  0
 22 60  1  0
 22 61  1  0
 23 62  1  0
 23 63  1  0
 27 64  1  0
 27 65  1  0
 28 66  1  0
 28 67  1  0
 30 68  1  0
 31 69  1  0
 32 70  1  0
 33 71  1  0
 35 72  1  0
 35 73  1  0
 37 74  1  0
 37 75  1  0
 38 76  1  0
 38 77  1  0
 39 78  1  0
 40 79  1  0
M  END
>  <smiles>  (18) 
CS(=O)(=O)c1ccc(C2CCN(c3nc(N[C@H]4CC[C@H](N)CC4)nc(N4CCc5ccccc5C4)n3)CC2)cc1

>  <score_type>  (18) 
oracle

>  <origin>  (18) 
autodockgpu

>  <m_score__min__energy>  (18) 
-10.390000000000001

>  <m_primary>  (18) 
energy

>  <rmsd>  (18) 
8.003533953672875

>  <m_score__min__rmsd>  (18) 
8.003533953672875

>  <meeko>  (18) 
{"free_energy": -9.98, "intermolecular_energy": -12.07, "internal_energy": -1.78, "cluster_size": 18, "cluster_id": 2, "rank_in_cluster": 16}

>  <energy>  (18) 
-10.01

>  <cluster_rmsd>  (18) 
0.85

>  <cluster>  (18) 
2

$$$$

     RDKit          3D

 79 84  0  0  0  0  0  0  0  0999 V2000
  143.4750   80.1640  223.0590 C   0  0  0  0  0  0  0  0  0  0  0  0
  141.8340   80.8240  222.8960 S   0  0  0  0  0  0  0  0  0  0  0  0
  141.4560   81.4750  224.2140 O   0  0  0  0  0  0  0  0  0  0  0  0
  141.8250   81.8550  221.7820 O   0  0  0  0  0  0  0  0  0  0  0  0
  140.6460   79.5810  222.5800 C   0  0  0  0  0  0  0  0  0  0  0  0
  139.4070   79.8430  222.0350 C   0  0  0  0  0  0  0  0  0  0  0  0
  138.4900   78.8400  221.7990 C   0  0  0  0  0  0  0  0  0  0  0  0
  138.8530   77.5450  222.1260 C   0  0  0  0  0  0  0  0  0  0  0  0
  137.9570   76.3780  221.9210 C   0  0  0  0  0  0  0  0  0  0  0  0
  137.1520   76.1230  223.1810 C   0  0  0  0  0  0  0  0  0  0  0  0
  136.1490   75.0430  222.8490 C   0  0  0  0  0  0  0  0  0  0  0  0
  136.8200   73.8490  222.3310 N   0  0  0  0  0  0  0  0  0  0  0  0
  136.6070   72.5620  222.9030 C   0  0  0  0  0  0  0  0  0  0  0  0
  135.3910   71.9860  222.9180 N   0  0  0  0  0  0  0  0  0  0  0  0
  135.1730   70.7650  223.4600 C   0  0  0  0  0  0  0  0  0  0  0  0
  133.8790   70.1740  223.4570 N   0  0  0  0  0  0  0  0  0  0  0  0
  132.8510   70.5470  224.3940 C   0  0  1  0  0  0  0  0  0  0  0  0
  133.2620   70.3420  225.8260 C   0  0  0  0  0  0  0  0  0  0  0  0
  134.0750   71.4980  226.3620 C   0  0  0  0  0  0  0  0  0  0  0  0
  133.4020   72.8260  226.1030 C   0  0  2  0  0  0  0  0  0  0  0  0
  133.1760   73.6150  227.2710 N   0  0  0  0  0  0  0  0  0  0  0  0
  132.0790   72.6430  225.3840 C   0  0  0  0  0  0  0  0  0  0  0  0
  132.3790   71.9490  224.0970 C   0  0  0  0  0  0  0  0  0  0  0  0
  136.2400   70.1170  224.0020 N   0  0  0  0  0  0  0  0  0  0  0  0
  137.4720   70.6590  224.0070 C   0  0  0  0  0  0  0  0  0  0  0  0
  138.5670   69.9550  224.5810 N   0  0  0  0  0  0  0  0  0  0  0  0
  138.4300   68.5400  224.7730 C   0  0  0  0  0  0  0  0  0  0  0  0
  139.5280   67.9030  225.5600 C   0  0  0  0  0  0  0  0  0  0  0  0
  140.1510   68.8170  226.5510 C   0  0  0  0  0  0  0  0  0  0  0  0
  140.5860   68.2830  227.7290 C   0  0  0  0  0  0  0  0  0  0  0  0
  141.1680   69.1590  228.6470 C   0  0  0  0  0  0  0  0  0  0  0  0
  141.2900   70.4970  228.3620 C   0  0  0  0  0  0  0  0  0  0  0  0
  140.8450   71.0160  227.1660 C   0  0  0  0  0  0  0  0  0  0  0  0
  140.2720   70.1640  226.2580 C   0  0  0  0  0  0  0  0  0  0  0  0
  139.7740   70.6780  224.9500 C   0  0  0  0  0  0  0  0  0  0  0  0
  137.6260   71.8920  223.4450 N   0  0  0  0  0  0  0  0  0  0  0  0
  137.7080   74.0540  221.2030 C   0  0  0  0  0  0  0  0  0  0  0  0
  138.7090   75.1320  221.5730 C   0  0  0  0  0  0  0  0  0  0  0  0
  140.1060   77.2570  222.6800 C   0  0  0  0  0  0  0  0  0  0  0  0
  141.0110   78.2720  222.9100 C   0  0  0  0  0  0  0  0  0  0  0  0
  143.7254   80.0633  224.1254 H   0  0  0  0  0  0  0  0  0  0  0  0
  143.5228   79.1767  222.5763 H   0  0  0  0  0  0  0  0  0  0  0  0
  144.1930   80.8433  222.5763 H   0  0  0  0  0  0  0  0  0  0  0  0
  139.1425   80.8802  221.7815 H   0  0  0  0  0  0  0  0  0  0  0  0
  137.5036   79.0618  221.3656 H   0  0  0  0  0  0  0  0  0  0  0  0
  137.2972   76.6250  221.0762 H   0  0  0  0  0  0  0  0  0  0  0  0
  137.8149   75.7874  223.9921 H   0  0  0  0  0  0  0  0  0  0  0  0
  136.6466   77.0400  223.5180 H   0  0  0  0  0  0  0  0  0  0  0  0
  135.5917   74.7767  223.7592 H   0  0  0  0  0  0  0  0  0  0  0  0
  135.4641   75.4243  222.0773 H   0  0  0  0  0  0  0  0  0  0  0  0
  133.6850   69.4420  222.7370 H   0  0  0  0  0  0  0  0  0  0  0  0
  131.9949   69.8692  224.2610 H   0  0  0  0  0  0  0  0  0  0  0  0
  133.8653   69.4246  225.8928 H   0  0  0  0  0  0  0  0  0  0  0  0
  132.3463   70.2664  226.4308 H   0  0  0  0  0  0  0  0  0  0  0  0
  135.0604   71.4970  225.8732 H   0  0  0  0  0  0  0  0  0  0  0  0
  134.1730   71.3712  227.4503 H   0  0  0  0  0  0  0  0  0  0  0  0
  134.1182   73.3727  225.4720 H   0  0  0  0  0  0  0  0  0  0  0  0
  132.6290   74.4740  227.0890 H   0  0  0  0  0  0  0  0  0  0  0  0
  132.8340   73.0960  228.1070 H   0  0  0  0  0  0  0  0  0  0  0  0
  131.6164   73.6215  225.1876 H   0  0  0  0  0  0  0  0  0  0  0  0
  131.3765   72.0562  225.9940 H   0  0  0  0  0  0  0  0  0  0  0  0
  133.1657   72.4965  223.5573 H   0  0  0  0  0  0  0  0  0  0  0  0
  131.4730   71.9123  223.4743 H   0  0  0  0  0  0  0  0  0  0  0  0
  137.4816   68.3568  225.2994 H   0  0  0  0  0  0  0  0  0  0  0  0
  138.4662   68.0877  223.7709 H   0  0  0  0  0  0  0  0  0  0  0  0
  139.1147   67.0364  226.0968 H   0  0  0  0  0  0  0  0  0  0  0  0
  140.3135   67.6143  224.8461 H   0  0  0  0  0  0  0  0  0  0  0  0
  140.4826   67.2095  227.9457 H   0  0  0  0  0  0  0  0  0  0  0  0
  141.5333   68.7730  229.6101 H   0  0  0  0  0  0  0  0  0  0  0  0
  141.7516   71.1667  229.1025 H   0  0  0  0  0  0  0  0  0  0  0  0
  140.9471   72.0887  226.9450 H   0  0  0  0  0  0  0  0  0  0  0  0
  139.5479   71.7509  225.0382 H   0  0  0  0  0  0  0  0  0  0  0  0
  140.5436   70.5314  224.1778 H   0  0  0  0  0  0  0  0  0  0  0  0
  138.2379   73.1181  220.9722 H   0  0  0  0  0  0  0  0  0  0  0  0
  137.1311   74.3608  220.3181 H   0  0  0  0  0  0  0  0  0  0  0  0
  139.3048   74.8043  222.4377 H   0  0  0  0  0  0  0  0  0  0  0  0
  139.3863   75.3239  220.7278 H   0  0  0  0  0  0  0  0  0  0  0  0
  140.3692   76.2192  222.9323 H   0  0  0  0  0  0  0  0  0  0  0  0
  141.9987   78.0565  223.3437 H   0  0  0  0  0  0  0  0  0  0  0  0
  1  2  1  0
  2  3  2  0
  2  4  2  0
  2  5  1  0
  5  6  2  0
  6  7  1  0
  7  8  2  0
  8  9  1  0
  9 10  1  0
 10 11  1  0
 11 12  1  0
 12 13  1  0
 13 14  2  0
 14 15  1  0
 15 16  1  0
 16 17  1  0
 17 18  1  0
 18 19  1  0
 19 20  1  0
 20 21  1  0
 20 22  1  0
 22 23  1  0
 15 24  2  0
 24 25  1  0
 25 26  1  0
 26 27  1  0
 27 28  1  0
 28 29  1  0
 29 30  2  0
 30 31  1  0
 31 32  2  0
 32 33  1  0
 33 34  2  0
 34 35  1  0
 25 36  2  0
 12 37  1  0
 37 38  1  0
  8 39  1  0
 39 40  2  0
 40  5  1  0
 38  9  1  0
 36 13  1  0
 23 17  1  0
 35 26  1  0
 34 29  1  0
  1 41  1  0
  1 42  1  0
  1 43  1  0
  6 44  1  0
  7 45  1  0
  9 46  1  0
 10 47  1  0
 10 48  1  0
 11 49  1  0
 11 50  1  0
 16 51  1  0
 17 52  1  6
 18 53  1  0
 18 54  1  0
 19 55  1  0
 19 56  1  0
 20 57  1  6
 21 58  1  0
 21 59  1  0
 22 60  1  0
 22 61  1  0
 23 62  1  0
 23 63  1  0
 27 64  1  0
 27 65  1  0
 28 66  1  0
 28 67  1  0
 30 68  1  0
 31 69  1  0
 32 70  1  0
 33 71  1  0
 35 72  1  0
 35 73  1  0
 37 74  1  0
 37 75  1  0
 38 76  1  0
 38 77  1  0
 39 78  1  0
 40 79  1  0
M  END
>  <smiles>  (19) 
CS(=O)(=O)c1ccc(C2CCN(c3nc(N[C@H]4CC[C@H](N)CC4)nc(N4CCc5ccccc5C4)n3)CC2)cc1

>  <score_type>  (19) 
oracle

>  <origin>  (19) 
autodockgpu

>  <m_score__min__energy>  (19) 
-10.390000000000001

>  <m_primary>  (19) 
energy

>  <rmsd>  (19) 
7.954930603733084

>  <m_score__min__rmsd>  (19) 
7.954930603733084

>  <meeko>  (19) 
{"free_energy": -10.01, "intermolecular_energy": -12.1, "internal_energy": -1.8, "cluster_size": 18, "cluster_id": 2, "rank_in_cluster": 14}

>  <energy>  (19) 
-9.98

>  <cluster_rmsd>  (19) 
0.7

>  <cluster>  (19) 
2

$$$$

     RDKit          3D

 79 84  0  0  0  0  0  0  0  0999 V2000
  141.5350   82.4610  221.7410 C   0  0  0  0  0  0  0  0  0  0  0  0
  141.8840   81.0190  222.7190 S   0  0  0  0  0  0  0  0  0  0  0  0
  143.2770   80.5350  222.3600 O   0  0  0  0  0  0  0  0  0  0  0  0
  141.8240   81.3930  224.1890 O   0  0  0  0  0  0  0  0  0  0  0  0
  140.7830   79.7050  222.3830 C   0  0  0  0  0  0  0  0  0  0  0  0
  139.6270   79.8590  221.6470 C   0  0  0  0  0  0  0  0  0  0  0  0
  138.7760   78.8020  221.4000 C   0  0  0  0  0  0  0  0  0  0  0  0
  139.1190   77.5650  221.9150 C   0  0  0  0  0  0  0  0  0  0  0  0
  138.2890   76.3480  221.7200 C   0  0  0  0  0  0  0  0  0  0  0  0
  137.2790   76.2320  222.8450 C   0  0  0  0  0  0  0  0  0  0  0  0
  136.3640   75.0810  222.4940 C   0  0  0  0  0  0  0  0  0  0  0  0
  137.1310   73.8550  222.2670 N   0  0  0  0  0  0  0  0  0  0  0  0
  136.8370   72.6470  222.9630 C   0  0  0  0  0  0  0  0  0  0  0  0
  135.5730   72.2360  223.1660 N   0  0  0  0  0  0  0  0  0  0  0  0
  135.2790   71.0920  223.8280 C   0  0  0  0  0  0  0  0  0  0  0  0
  133.9330   70.6750  224.0220 N   0  0  0  0  0  0  0  0  0  0  0  0
  133.3900   70.3790  225.3220 C   0  0  1  0  0  0  0  0  0  0  0  0
  134.1320   71.0640  226.4360 C   0  0  0  0  0  0  0  0  0  0  0  0
  133.6720   72.4890  226.6430 C   0  0  0  0  0  0  0  0  0  0  0  0
  132.1690   72.5810  226.7630 C   0  0  2  0  0  0  0  0  0  0  0  0
  131.7060   73.2090  227.9590 N   0  0  0  0  0  0  0  0  0  0  0  0
  131.5220   71.2140  226.6560 C   0  0  0  0  0  0  0  0  0  0  0  0
  131.9070   70.6560  225.3270 C   0  0  0  0  0  0  0  0  0  0  0  0
  136.3190   70.3500  224.2940 N   0  0  0  0  0  0  0  0  0  0  0  0
  137.5980   70.7270  224.1130 C   0  0  0  0  0  0  0  0  0  0  0  0
  138.6650   69.9280  224.6140 N   0  0  0  0  0  0  0  0  0  0  0  0
  138.4780   68.5060  224.6490 C   0  0  0  0  0  0  0  0  0  0  0  0
  139.5470   67.7500  225.3680 C   0  0  0  0  0  0  0  0  0  0  0  0
  140.1910   68.5290  226.4570 C   0  0  0  0  0  0  0  0  0  0  0  0
  140.5960   67.8550  227.5710 C   0  0  0  0  0  0  0  0  0  0  0  0
  141.1990   68.6060  228.5830 C   0  0  0  0  0  0  0  0  0  0  0  0
  141.3690   69.9620  228.4450 C   0  0  0  0  0  0  0  0  0  0  0  0
  140.9520   70.6230  227.3120 C   0  0  0  0  0  0  0  0  0  0  0  0
  140.3590   69.8940  226.3130 C   0  0  0  0  0  0  0  0  0  0  0  0
  139.8910   70.5650  225.0650 C   0  0  0  0  0  0  0  0  0  0  0  0
  137.8290   71.8900  223.4380 N   0  0  0  0  0  0  0  0  0  0  0  0
  138.2010   73.9430  221.2920 C   0  0  0  0  0  0  0  0  0  0  0  0
  139.1060   75.0960  221.6790 C   0  0  0  0  0  0  0  0  0  0  0  0
  140.2880   77.3860  222.6650 C   0  0  0  0  0  0  0  0  0  0  0  0
  141.1270   78.4540  222.9030 C   0  0  0  0  0  0  0  0  0  0  0  0
  141.3287   83.3133  222.4051 H   0  0  0  0  0  0  0  0  0  0  0  0
  142.4031   82.6924  221.1062 H   0  0  0  0  0  0  0  0  0  0  0  0
  140.6572   82.2699  221.1062 H   0  0  0  0  0  0  0  0  0  0  0  0
  139.3767   80.8522  221.2459 H   0  0  0  0  0  0  0  0  0  0  0  0
  137.8556   78.9382  220.8132 H   0  0  0  0  0  0  0  0  0  0  0  0
  137.7849   76.4567  220.7484 H   0  0  0  0  0  0  0  0  0  0  0  0
  137.7933   76.0304  223.7962 H   0  0  0  0  0  0  0  0  0  0  0  0
  136.7105   77.1663  222.9627 H   0  0  0  0  0  0  0  0  0  0  0  0
  135.6584   74.9164  223.3217 H   0  0  0  0  0  0  0  0  0  0  0  0
  135.8212   75.3322  221.5708 H   0  0  0  0  0  0  0  0  0  0  0  0
  133.3290   70.5860  223.1740 H   0  0  0  0  0  0  0  0  0  0  0  0
  133.5325   69.3070  225.5235 H   0  0  0  0  0  0  0  0  0  0  0  0
  135.2051   71.0707  226.1942 H   0  0  0  0  0  0  0  0  0  0  0  0
  133.9318   70.5085  227.3641 H   0  0  0  0  0  0  0  0  0  0  0  0
  133.9987   73.0967  225.7863 H   0  0  0  0  0  0  0  0  0  0  0  0
  134.1133   72.8582  227.5805 H   0  0  0  0  0  0  0  0  0  0  0  0
  131.8699   73.2217  225.9203 H   0  0  0  0  0  0  0  0  0  0  0  0
  131.3250   72.5430  228.6540 H   0  0  0  0  0  0  0  0  0  0  0  0
  132.3560   73.9010  228.3860 H   0  0  0  0  0  0  0  0  0  0  0  0
  130.4281   71.3066  226.7250 H   0  0  0  0  0  0  0  0  0  0  0  0
  131.8554   70.5553  227.4715 H   0  0  0  0  0  0  0  0  0  0  0  0
  131.6648   71.3828  224.5376 H   0  0  0  0  0  0  0  0  0  0  0  0
  131.3540   69.7235  225.1409 H   0  0  0  0  0  0  0  0  0  0  0  0
  137.5191   68.2993  225.1469 H   0  0  0  0  0  0  0  0  0  0  0  0
  138.5075   68.1645  223.6038 H   0  0  0  0  0  0  0  0  0  0  0  0
  139.1001   66.8445  225.8044 H   0  0  0  0  0  0  0  0  0  0  0  0
  140.3292   67.5145  224.6313 H   0  0  0  0  0  0  0  0  0  0  0  0
  140.4543   66.7685  227.6685 H   0  0  0  0  0  0  0  0  0  0  0  0
  141.5416   68.1057  229.5008 H   0  0  0  0  0  0  0  0  0  0  0  0
  141.8477   70.5308  229.2558 H   0  0  0  0  0  0  0  0  0  0  0  0
  141.0909   71.7094  227.2102 H   0  0  0  0  0  0  0  0  0  0  0  0
  139.7001   71.6291  225.2682 H   0  0  0  0  0  0  0  0  0  0  0  0
  140.6624   70.4779  224.2857 H   0  0  0  0  0  0  0  0  0  0  0  0
  138.7759   73.0052  221.2855 H   0  0  0  0  0  0  0  0  0  0  0  0
  137.7848   74.1094  220.2875 H   0  0  0  0  0  0  0  0  0  0  0  0
  139.5448   74.9068  222.6698 H   0  0  0  0  0  0  0  0  0  0  0  0
  139.9184   75.2002  220.9447 H   0  0  0  0  0  0  0  0  0  0  0  0
  140.5372   76.3920  223.0648 H   0  0  0  0  0  0  0  0  0  0  0  0
  142.0481   78.3242  223.4901 H   0  0  0  0  0  0  0  0  0  0  0  0
  1  2  1  0
  2  3  2  0
  2  4  2  0
  2  5  1  0
  5  6  2  0
  6  7  1  0
  7  8  2  0
  8  9  1  0
  9 10  1  0
 10 11  1  0
 11 12  1  0
 12 13  1  0
 13 14  2  0
 14 15  1  0
 15 16  1  0
 16 17  1  0
 17 18  1  0
 18 19  1  0
 19 20  1  0
 20 21  1  0
 20 22  1  0
 22 23  1  0
 15 24  2  0
 24 25  1  0
 25 26  1  0
 26 27  1  0
 27 28  1  0
 28 29  1  0
 29 30  2  0
 30 31  1  0
 31 32  2  0
 32 33  1  0
 33 34  2  0
 34 35  1  0
 25 36  2  0
 12 37  1  0
 37 38  1  0
  8 39  1  0
 39 40  2  0
 40  5  1  0
 38  9  1  0
 36 13  1  0
 23 17  1  0
 35 26  1  0
 34 29  1  0
  1 41  1  0
  1 42  1  0
  1 43  1  0
  6 44  1  0
  7 45  1  0
  9 46  1  0
 10 47  1  0
 10 48  1  0
 11 49  1  0
 11 50  1  0
 16 51  1  0
 17 52  1  1
 18 53  1  0
 18 54  1  0
 19 55  1  0
 19 56  1  0
 20 57  1  6
 21 58  1  0
 21 59  1  0
 22 60  1  0
 22 61  1  0
 23 62  1  0
 23 63  1  0
 27 64  1  0
 27 65  1  0
 28 66  1  0
 28 67  1  0
 30 68  1  0
 31 69  1  0
 32 70  1  0
 33 71  1  0
 35 72  1  0
 35 73  1  0
 37 74  1  0
 37 75  1  0
 38 76  1  0
 38 77  1  0
 39 78  1  0
 40 79  1  0
M  END
>  <smiles>  (20) 
CS(=O)(=O)c1ccc(C2CCN(c3nc(N[C@H]4CC[C@H](N)CC4)nc(N4CCc5ccccc5C4)n3)CC2)cc1

>  <score_type>  (20) 
oracle

>  <origin>  (20) 
autodockgpu

>  <m_score__min__energy>  (20) 
-10.390000000000001

>  <m_primary>  (20) 
energy

>  <rmsd>  (20) 
7.984123991388087

>  <m_score__min__rmsd>  (20) 
7.984123991388087

>  <meeko>  (20) 
{"free_energy": -10.22, "intermolecular_energy": -12.31, "internal_energy": -1.56, "cluster_size": 18, "cluster_id": 2, "rank_in_cluster": 2}

>  <energy>  (20) 
-9.98

>  <cluster_rmsd>  (20) 
0.69

>  <cluster>  (20) 
2

$$$$

     RDKit          3D

 79 84  0  0  0  0  0  0  0  0999 V2000
  138.0960   69.0470  224.9000 C   0  0  0  0  0  0  0  0  0  0  0  0
  136.7000   69.3990  223.8580 S   0  0  0  0  0  0  0  0  0  0  0  0
  136.9130   68.6910  222.5330 O   0  0  0  0  0  0  0  0  0  0  0  0
  135.4400   68.8840  224.5300 O   0  0  0  0  0  0  0  0  0  0  0  0
  136.5460   71.1040  223.5080 C   0  0  0  0  0  0  0  0  0  0  0  0
  135.6220   71.9200  224.1250 C   0  0  0  0  0  0  0  0  0  0  0  0
  135.5230   73.2630  223.8260 C   0  0  0  0  0  0  0  0  0  0  0  0
  136.3900   73.7770  222.8780 C   0  0  0  0  0  0  0  0  0  0  0  0
  136.3870   75.2050  222.4670 C   0  0  0  0  0  0  0  0  0  0  0  0
  137.8130   75.7070  222.3470 C   0  0  0  0  0  0  0  0  0  0  0  0
  137.7390   77.0990  221.7660 C   0  0  0  0  0  0  0  0  0  0  0  0
  136.8820   77.9610  222.5810 N   0  0  0  0  0  0  0  0  0  0  0  0
  137.3410   79.2120  223.0870 C   0  0  0  0  0  0  0  0  0  0  0  0
  138.4730   79.7840  222.6400 N   0  0  0  0  0  0  0  0  0  0  0  0
  138.9220   80.9710  223.1130 C   0  0  0  0  0  0  0  0  0  0  0  0
  140.1190   81.5590  222.6180 N   0  0  0  0  0  0  0  0  0  0  0  0
  141.2340   80.7780  222.1480 C   0  0  1  0  0  0  0  0  0  0  0  0
  141.8700   79.9540  223.2330 C   0  0  0  0  0  0  0  0  0  0  0  0
  141.1420   78.6500  223.4670 C   0  0  0  0  0  0  0  0  0  0  0  0
  140.9160   77.8940  222.1780 C   0  0  2  0  0  0  0  0  0  0  0  0
  141.4350   76.5650  222.1700 N   0  0  0  0  0  0  0  0  0  0  0  0
  141.4930   78.6420  220.9920 C   0  0  0  0  0  0  0  0  0  0  0  0
  140.8140   79.9700  220.9450 C   0  0  0  0  0  0  0  0  0  0  0  0
  138.1820   81.5860  224.0740 N   0  0  0  0  0  0  0  0  0  0  0  0
  137.0430   81.0470  224.5480 C   0  0  0  0  0  0  0  0  0  0  0  0
  136.2910   81.7170  225.5540 N   0  0  0  0  0  0  0  0  0  0  0  0
  136.9490   82.7380  226.3150 C   0  0  0  0  0  0  0  0  0  0  0  0
  136.1690   83.2540  227.4810 C   0  0  0  0  0  0  0  0  0  0  0  0
  135.2470   82.2470  228.0660 C   0  0  0  0  0  0  0  0  0  0  0  0
  135.0430   82.2750  229.4140 C   0  0  0  0  0  0  0  0  0  0  0  0
  134.1730   81.3200  229.9450 C   0  0  0  0  0  0  0  0  0  0  0  0
  133.5570   80.4010  229.1310 C   0  0  0  0  0  0  0  0  0  0  0  0
  133.7770   80.3900  227.7710 C   0  0  0  0  0  0  0  0  0  0  0  0
  134.6300   81.3240  227.2410 C   0  0  0  0  0  0  0  0  0  0  0  0
  134.9000   81.3530  225.7750 C   0  0  0  0  0  0  0  0  0  0  0  0
  136.6440   79.8490  224.0310 N   0  0  0  0  0  0  0  0  0  0  0  0
  135.5430   77.4690  222.8400 C   0  0  0  0  0  0  0  0  0  0  0  0
  135.6520   76.0790  223.4350 C   0  0  0  0  0  0  0  0  0  0  0  0
  137.3370   72.9670  222.2390 C   0  0  0  0  0  0  0  0  0  0  0  0
  137.4210   71.6250  222.5500 C   0  0  0  0  0  0  0  0  0  0  0  0
  137.7944   69.1230  225.9551 H   0  0  0  0  0  0  0  0  0  0  0  0
  138.4592   68.0292  224.6949 H   0  0  0  0  0  0  0  0  0  0  0  0
  138.8984   69.7709  224.6949 H   0  0  0  0  0  0  0  0  0  0  0  0
  134.9448   71.4882  224.8766 H   0  0  0  0  0  0  0  0  0  0  0  0
  134.7802   73.9034  224.3242 H   0  0  0  0  0  0  0  0  0  0  0  0
  135.8689   75.2580  221.4981 H   0  0  0  0  0  0  0  0  0  0  0  0
  138.2890   75.7354  223.3383 H   0  0  0  0  0  0  0  0  0  0  0  0
  138.4120   75.0435  221.7060 H   0  0  0  0  0  0  0  0  0  0  0  0
  138.7511   77.5283  221.7298 H   0  0  0  0  0  0  0  0  0  0  0  0
  137.3120   77.0349  220.7543 H   0  0  0  0  0  0  0  0  0  0  0  0
  140.1730   82.6030  222.6040 H   0  0  0  0  0  0  0  0  0  0  0  0
  142.0325   81.4645  221.8301 H   0  0  0  0  0  0  0  0  0  0  0  0
  141.8640   80.5347  224.1672 H   0  0  0  0  0  0  0  0  0  0  0  0
  142.8952   79.7137  222.9148 H   0  0  0  0  0  0  0  0  0  0  0  0
  140.1673   78.8644  223.9295 H   0  0  0  0  0  0  0  0  0  0  0  0
  141.7632   78.0251  224.1254 H   0  0  0  0  0  0  0  0  0  0  0  0
  139.8215   77.8180  222.0983 H   0  0  0  0  0  0  0  0  0  0  0  0
  142.0670   76.3720  221.3730 H   0  0  0  0  0  0  0  0  0  0  0  0
  141.8240   76.2270  223.0760 H   0  0  0  0  0  0  0  0  0  0  0  0
  141.2997   78.0852  220.0632 H   0  0  0  0  0  0  0  0  0  0  0  0
  142.5820   78.7600  221.0929 H   0  0  0  0  0  0  0  0  0  0  0  0
  139.7234   79.8275  220.9587 H   0  0  0  0  0  0  0  0  0  0  0  0
  141.0967   80.5001  220.0236 H   0  0  0  0  0  0  0  0  0  0  0  0
  137.8963   82.3258  226.6929 H   0  0  0  0  0  0  0  0  0  0  0  0
  137.0866   83.5907  225.6338 H   0  0  0  0  0  0  0  0  0  0  0  0
  136.8768   83.5730  228.2603 H   0  0  0  0  0  0  0  0  0  0  0  0
  135.5505   84.0868  227.1150 H   0  0  0  0  0  0  0  0  0  0  0  0
  135.5416   83.0170  230.0549 H   0  0  0  0  0  0  0  0  0  0  0  0
  133.9789   81.3037  231.0276 H   0  0  0  0  0  0  0  0  0  0  0  0
  132.8751   79.6598  229.5733 H   0  0  0  0  0  0  0  0  0  0  0  0
  133.2805   79.6501  227.1259 H   0  0  0  0  0  0  0  0  0  0  0  0
  134.7066   80.3591  225.3452 H   0  0  0  0  0  0  0  0  0  0  0  0
  134.2427   82.0909  225.2918 H   0  0  0  0  0  0  0  0  0  0  0  0
  135.0319   78.1375  223.5484 H   0  0  0  0  0  0  0  0  0  0  0  0
  134.9645   77.4361  221.9050 H   0  0  0  0  0  0  0  0  0  0  0  0
  136.2027   76.1245  224.3861 H   0  0  0  0  0  0  0  0  0  0  0  0
  134.6486   75.6704  223.6253 H   0  0  0  0  0  0  0  0  0  0  0  0
  138.0144   73.4007  221.4886 H   0  0  0  0  0  0  0  0  0  0  0  0
  138.1607   70.9789  222.0546 H   0  0  0  0  0  0  0  0  0  0  0  0
  1  2  1  0
  2  3  2  0
  2  4  2  0
  2  5  1  0
  5  6  2  0
  6  7  1  0
  7  8  2  0
  8  9  1  0
  9 10  1  0
 10 11  1  0
 11 12  1  0
 12 13  1  0
 13 14  2  0
 14 15  1  0
 15 16  1  0
 16 17  1  0
 17 18  1  0
 18 19  1  0
 19 20  1  0
 20 21  1  0
 20 22  1  0
 22 23  1  0
 15 24  2  0
 24 25  1  0
 25 26  1  0
 26 27  1  0
 27 28  1  0
 28 29  1  0
 29 30  2  0
 30 31  1  0
 31 32  2  0
 32 33  1  0
 33 34  2  0
 34 35  1  0
 25 36  2  0
 12 37  1  0
 37 38  1  0
  8 39  1  0
 39 40  2  0
 40  5  1  0
 38  9  1  0
 36 13  1  0
 23 17  1  0
 35 26  1  0
 34 29  1  0
  1 41  1  0
  1 42  1  0
  1 43  1  0
  6 44  1  0
  7 45  1  0
  9 46  1  0
 10 47  1  0
 10 48  1  0
 11 49  1  0
 11 50  1  0
 16 51  1  0
 17 52  1  6
 18 53  1  0
 18 54  1  0
 19 55  1  0
 19 56  1  0
 20 57  1  6
 21 58  1  0
 21 59  1  0
 22 60  1  0
 22 61  1  0
 23 62  1  0
 23 63  1  0
 27 64  1  0
 27 65  1  0
 28 66  1  0
 28 67  1  0
 30 68  1  0
 31 69  1  0
 32 70  1  0
 33 71  1  0
 35 72  1  0
 35 73  1  0
 37 74  1  0
 37 75  1  0
 38 76  1  0
 38 77  1  0
 39 78  1  0
 40 79  1  0
M  END
>  <smiles>  (21) 
CS(=O)(=O)c1ccc(C2CCN(c3nc(N[C@H]4CC[C@H](N)CC4)nc(N4CCc5ccccc5C4)n3)CC2)cc1

>  <score_type>  (21) 
oracle

>  <origin>  (21) 
autodockgpu

>  <m_score__min__energy>  (21) 
-10.390000000000001

>  <m_primary>  (21) 
energy

>  <rmsd>  (21) 
5.846826636970286

>  <m_score__min__rmsd>  (21) 
5.846826636970286

>  <meeko>  (21) 
{"free_energy": -8.51, "intermolecular_energy": -10.59, "internal_energy": -1.89, "cluster_size": 2, "cluster_id": 11, "rank_in_cluster": 1}

>  <energy>  (21) 
-9.61

>  <cluster_rmsd>  (21) 
0.87

>  <cluster>  (21) 
2

$$$$

     RDKit          3D

 79 84  0  0  0  0  0  0  0  0999 V2000
  141.8120   82.1080  221.6100 C   0  0  0  0  0  0  0  0  0  0  0  0
  141.9030   80.8280  222.8380 S   0  0  0  0  0  0  0  0  0  0  0  0
  143.2650   80.1670  222.7270 O   0  0  0  0  0  0  0  0  0  0  0  0
  141.7340   81.4500  224.2130 O   0  0  0  0  0  0  0  0  0  0  0  0
  140.7060   79.5800  222.5870 C   0  0  0  0  0  0  0  0  0  0  0  0
  139.3530   79.8350  222.5200 C   0  0  0  0  0  0  0  0  0  0  0  0
  138.4320   78.8270  222.3230 C   0  0  0  0  0  0  0  0  0  0  0  0
  138.9090   77.5350  222.1900 C   0  0  0  0  0  0  0  0  0  0  0  0
  138.0220   76.3630  221.9730 C   0  0  0  0  0  0  0  0  0  0  0  0
  137.1970   76.1080  223.2190 C   0  0  0  0  0  0  0  0  0  0  0  0
  136.2050   75.0220  222.8730 C   0  0  0  0  0  0  0  0  0  0  0  0
  136.8890   73.8300  222.3690 N   0  0  0  0  0  0  0  0  0  0  0  0
  136.6720   72.5430  222.9410 C   0  0  0  0  0  0  0  0  0  0  0  0
  135.4560   71.9700  222.9530 N   0  0  0  0  0  0  0  0  0  0  0  0
  135.2340   70.7490  223.4950 C   0  0  0  0  0  0  0  0  0  0  0  0
  133.9380   70.1610  223.4890 N   0  0  0  0  0  0  0  0  0  0  0  0
  132.8960   70.5650  224.3960 C   0  0  1  0  0  0  0  0  0  0  0  0
  133.2720   70.3760  225.8400 C   0  0  0  0  0  0  0  0  0  0  0  0
  134.0910   71.5280  226.3760 C   0  0  0  0  0  0  0  0  0  0  0  0
  133.4440   72.8610  226.0820 C   0  0  2  0  0  0  0  0  0  0  0  0
  133.2040   73.6720  227.2320 N   0  0  0  0  0  0  0  0  0  0  0  0
  132.1350   72.6870  225.3360 C   0  0  0  0  0  0  0  0  0  0  0  0
  132.4530   71.9690  224.0670 C   0  0  0  0  0  0  0  0  0  0  0  0
  136.2980   70.1000  224.0400 N   0  0  0  0  0  0  0  0  0  0  0  0
  137.5310   70.6390  224.0480 C   0  0  0  0  0  0  0  0  0  0  0  0
  138.6230   69.9330  224.6260 N   0  0  0  0  0  0  0  0  0  0  0  0
  138.4640   68.5280  224.8650 C   0  0  0  0  0  0  0  0  0  0  0  0
  139.5640   67.8960  225.6540 C   0  0  0  0  0  0  0  0  0  0  0  0
  140.2200   68.8290  226.6050 C   0  0  0  0  0  0  0  0  0  0  0  0
  140.6660   68.3250  227.7910 C   0  0  0  0  0  0  0  0  0  0  0  0
  141.2800   69.2180  228.6710 C   0  0  0  0  0  0  0  0  0  0  0  0
  141.4220   70.5440  228.3400 C   0  0  0  0  0  0  0  0  0  0  0  0
  140.9650   71.0330  227.1370 C   0  0  0  0  0  0  0  0  0  0  0  0
  140.3600   70.1630  226.2660 C   0  0  0  0  0  0  0  0  0  0  0  0
  139.8490   70.6450  224.9510 C   0  0  0  0  0  0  0  0  0  0  0  0
  137.6890   71.8720  223.4870 N   0  0  0  0  0  0  0  0  0  0  0  0
  137.7960   74.0360  221.2560 C   0  0  0  0  0  0  0  0  0  0  0  0
  138.7850   75.1190  221.6410 C   0  0  0  0  0  0  0  0  0  0  0  0
  140.2790   77.2530  222.2540 C   0  0  0  0  0  0  0  0  0  0  0  0
  141.1860   78.2730  222.4530 C   0  0  0  0  0  0  0  0  0  0  0  0
  141.7424   83.0875  222.1058 H   0  0  0  0  0  0  0  0  0  0  0  0
  142.7145   82.0783  220.9818 H   0  0  0  0  0  0  0  0  0  0  0  0
  140.9228   81.9509  220.9818 H   0  0  0  0  0  0  0  0  0  0  0  0
  138.9979   80.8707  222.6265 H   0  0  0  0  0  0  0  0  0  0  0  0
  137.3546   79.0431  222.2733 H   0  0  0  0  0  0  0  0  0  0  0  0
  137.3759   76.6048  221.1162 H   0  0  0  0  0  0  0  0  0  0  0  0
  137.8474   75.7781  224.0425 H   0  0  0  0  0  0  0  0  0  0  0  0
  136.6814   77.0236  223.5444 H   0  0  0  0  0  0  0  0  0  0  0  0
  135.6341   74.7553  223.7747 H   0  0  0  0  0  0  0  0  0  0  0  0
  135.5316   75.3984  222.0888 H   0  0  0  0  0  0  0  0  0  0  0  0
  133.7550   69.4070  222.7890 H   0  0  0  0  0  0  0  0  0  0  0  0
  132.0320   69.8991  224.2540 H   0  0  0  0  0  0  0  0  0  0  0  0
  133.8593   69.4507  225.9342 H   0  0  0  0  0  0  0  0  0  0  0  0
  132.3422   70.3236  226.4254 H   0  0  0  0  0  0  0  0  0  0  0  0
  135.0866   71.5047  225.9089 H   0  0  0  0  0  0  0  0  0  0  0  0
  134.1639   71.4168  227.4679 H   0  0  0  0  0  0  0  0  0  0  0  0
  134.1827   73.3867  225.4591 H   0  0  0  0  0  0  0  0  0  0  0  0
  132.6420   74.5170  227.0320 H   0  0  0  0  0  0  0  0  0  0  0  0
  132.8720   73.1660  228.0800 H   0  0  0  0  0  0  0  0  0  0  0  0
  131.6921   73.6692  225.1144 H   0  0  0  0  0  0  0  0  0  0  0  0
  131.4100   72.1203  225.9387 H   0  0  0  0  0  0  0  0  0  0  0  0
  133.2602   72.4960  223.5372 H   0  0  0  0  0  0  0  0  0  0  0  0
  131.5609   71.9367  223.4242 H   0  0  0  0  0  0  0  0  0  0  0  0
  137.5216   68.3789  225.4124 H   0  0  0  0  0  0  0  0  0  0  0  0
  138.4750   68.0438  223.8774 H   0  0  0  0  0  0  0  0  0  0  0  0
  139.1444   67.0545  226.2248 H   0  0  0  0  0  0  0  0  0  0  0  0
  140.3320   67.5707  224.9369 H   0  0  0  0  0  0  0  0  0  0  0  0
  140.5471   67.2610  228.0433 H   0  0  0  0  0  0  0  0  0  0  0  0
  141.6542   68.8561  229.6400 H   0  0  0  0  0  0  0  0  0  0  0  0
  141.9102   71.2279  229.0499 H   0  0  0  0  0  0  0  0  0  0  0  0
  141.0822   72.0962  226.8803 H   0  0  0  0  0  0  0  0  0  0  0  0
  139.6438   71.7241  225.0088 H   0  0  0  0  0  0  0  0  0  0  0  0
  140.6022   70.4605  224.1709 H   0  0  0  0  0  0  0  0  0  0  0  0
  138.3341   73.1019  221.0370 H   0  0  0  0  0  0  0  0  0  0  0  0
  137.2337   74.3378  220.3601 H   0  0  0  0  0  0  0  0  0  0  0  0
  139.3668   74.7958  222.5168 H   0  0  0  0  0  0  0  0  0  0  0  0
  139.4759   75.3120  220.8071 H   0  0  0  0  0  0  0  0  0  0  0  0
  140.6324   76.2170  222.1455 H   0  0  0  0  0  0  0  0  0  0  0  0
  142.2645   78.0629  222.5052 H   0  0  0  0  0  0  0  0  0  0  0  0
  1  2  1  0
  2  3  2  0
  2  4  2  0
  2  5  1  0
  5  6  2  0
  6  7  1  0
  7  8  2  0
  8  9  1  0
  9 10  1  0
 10 11  1  0
 11 12  1  0
 12 13  1  0
 13 14  2  0
 14 15  1  0
 15 16  1  0
 16 17  1  0
 17 18  1  0
 18 19  1  0
 19 20  1  0
 20 21  1  0
 20 22  1  0
 22 23  1  0
 15 24  2  0
 24 25  1  0
 25 26  1  0
 26 27  1  0
 27 28  1  0
 28 29  1  0
 29 30  2  0
 30 31  1  0
 31 32  2  0
 32 33  1  0
 33 34  2  0
 34 35  1  0
 25 36  2  0
 12 37  1  0
 37 38  1  0
  8 39  1  0
 39 40  2  0
 40  5  1  0
 38  9  1  0
 36 13  1  0
 23 17  1  0
 35 26  1  0
 34 29  1  0
  1 41  1  0
  1 42  1  0
  1 43  1  0
  6 44  1  0
  7 45  1  0
  9 46  1  0
 10 47  1  0
 10 48  1  0
 11 49  1  0
 11 50  1  0
 16 51  1  0
 17 52  1  6
 18 53  1  0
 18 54  1  0
 19 55  1  0
 19 56  1  0
 20 57  1  6
 21 58  1  0
 21 59  1  0
 22 60  1  0
 22 61  1  0
 23 62  1  0
 23 63  1  0
 27 64  1  0
 27 65  1  0
 28 66  1  0
 28 67  1  0
 30 68  1  0
 31 69  1  0
 32 70  1  0
 33 71  1  0
 35 72  1  0
 35 73  1  0
 37 74  1  0
 37 75  1  0
 38 76  1  0
 38 77  1  0
 39 78  1  0
 40 79  1  0
M  END
>  <smiles>  (22) 
CS(=O)(=O)c1ccc(C2CCN(c3nc(N[C@H]4CC[C@H](N)CC4)nc(N4CCc5ccccc5C4)n3)CC2)cc1

>  <score_type>  (22) 
oracle

>  <origin>  (22) 
autodockgpu

>  <m_score__min__energy>  (22) 
-10.390000000000001

>  <m_primary>  (22) 
energy

>  <rmsd>  (22) 
7.970766551625665

>  <m_score__min__rmsd>  (22) 
7.970766551625665

>  <meeko>  (22) 
{"free_energy": -10.15, "intermolecular_energy": -12.23, "internal_energy": -1.8, "cluster_size": 18, "cluster_id": 2, "rank_in_cluster": 6}

>  <energy>  (22) 
-9.49

>  <cluster_rmsd>  (22) 
0.86

>  <cluster>  (22) 
2

$$$$

     RDKit          3D

 79 84  0  0  0  0  0  0  0  0999 V2000
  142.7160   81.9720  215.1940 C   0  0  0  0  0  0  0  0  0  0  0  0
  142.4580   82.3200  216.9170 S   0  0  0  0  0  0  0  0  0  0  0  0
  143.6690   83.0800  217.4280 O   0  0  0  0  0  0  0  0  0  0  0  0
  141.2070   83.1670  217.0680 O   0  0  0  0  0  0  0  0  0  0  0  0
  142.3250   80.8650  217.8760 C   0  0  0  0  0  0  0  0  0  0  0  0
  142.5700   79.6050  217.3740 C   0  0  0  0  0  0  0  0  0  0  0  0
  142.4550   78.4750  218.1550 C   0  0  0  0  0  0  0  0  0  0  0  0
  142.0820   78.6420  219.4780 C   0  0  0  0  0  0  0  0  0  0  0  0
  141.9230   77.5070  220.4230 C   0  0  0  0  0  0  0  0  0  0  0  0
  141.7730   76.2130  219.6480 C   0  0  0  0  0  0  0  0  0  0  0  0
  141.7890   75.0920  220.6610 C   0  0  0  0  0  0  0  0  0  0  0  0
  140.7530   75.2900  221.6760 N   0  0  0  0  0  0  0  0  0  0  0  0
  139.7900   74.2810  221.9710 C   0  0  0  0  0  0  0  0  0  0  0  0
  138.5140   74.3780  221.5580 N   0  0  0  0  0  0  0  0  0  0  0  0
  137.5880   73.4290  221.8340 C   0  0  0  0  0  0  0  0  0  0  0  0
  136.2450   73.5510  221.3790 N   0  0  0  0  0  0  0  0  0  0  0  0
  135.2680   74.3710  222.0470 C   0  0  1  0  0  0  0  0  0  0  0  0
  134.1340   73.5730  222.6290 C   0  0  0  0  0  0  0  0  0  0  0  0
  134.4750   72.9940  223.9830 C   0  0  0  0  0  0  0  0  0  0  0  0
  135.0280   74.0430  224.9190 C   0  0  2  0  0  0  0  0  0  0  0  0
  134.3200   74.1710  226.1520 N   0  0  0  0  0  0  0  0  0  0  0  0
  135.0820   75.4040  224.2530 C   0  0  0  0  0  0  0  0  0  0  0  0
  135.9570   75.2620  223.0510 C   0  0  0  0  0  0  0  0  0  0  0  0
  137.9900   72.3490  222.5560 N   0  0  0  0  0  0  0  0  0  0  0  0
  139.2570   72.2150  222.9880 C   0  0  0  0  0  0  0  0  0  0  0  0
  139.6460   71.0710  223.7420 N   0  0  0  0  0  0  0  0  0  0  0  0
  138.8400   69.8900  223.6320 C   0  0  0  0  0  0  0  0  0  0  0  0
  139.1850   68.8030  224.5970 C   0  0  0  0  0  0  0  0  0  0  0  0
  139.7500   69.3050  225.8750 C   0  0  0  0  0  0  0  0  0  0  0  0
  139.4560   68.6210  227.0180 C   0  0  0  0  0  0  0  0  0  0  0  0
  139.9970   69.1100  228.2090 C   0  0  0  0  0  0  0  0  0  0  0  0
  140.7890   70.2310  228.2120 C   0  0  0  0  0  0  0  0  0  0  0  0
  141.0750   70.9080  227.0470 C   0  0  0  0  0  0  0  0  0  0  0  0
  140.5480   70.4350  225.8730 C   0  0  0  0  0  0  0  0  0  0  0  0
  140.8290   71.1330  224.5850 C   0  0  0  0  0  0  0  0  0  0  0  0
  140.1420   73.2050  222.6780 N   0  0  0  0  0  0  0  0  0  0  0  0
  140.7660   76.5670  222.3610 C   0  0  0  0  0  0  0  0  0  0  0  0
  140.7360   77.6690  221.3190 C   0  0  0  0  0  0  0  0  0  0  0  0
  141.8270   79.9120  220.0090 C   0  0  0  0  0  0  0  0  0  0  0  0
  141.9470   81.0320  219.2120 C   0  0  0  0  0  0  0  0  0  0  0  0
  143.3683   81.0922  215.0913 H   0  0  0  0  0  0  0  0  0  0  0  0
  141.7483   81.7692  214.7120 H   0  0  0  0  0  0  0  0  0  0  0  0
  143.1912   82.8391  214.7120 H   0  0  0  0  0  0  0  0  0  0  0  0
  142.8658   79.4981  216.3199 H   0  0  0  0  0  0  0  0  0  0  0  0
  142.6527   77.4750  217.7415 H   0  0  0  0  0  0  0  0  0  0  0  0
  142.8246   77.4856  221.0528 H   0  0  0  0  0  0  0  0  0  0  0  0
  140.8216   76.2106  219.0958 H   0  0  0  0  0  0  0  0  0  0  0  0
  142.5859   76.0950  218.9164 H   0  0  0  0  0  0  0  0  0  0  0  0
  141.6095   74.1375  220.1446 H   0  0  0  0  0  0  0  0  0  0  0  0
  142.7703   75.0815  221.1579 H   0  0  0  0  0  0  0  0  0  0  0  0
  135.9760   73.0160  220.5220 H   0  0  0  0  0  0  0  0  0  0  0  0
  134.7844   75.0178  221.3002 H   0  0  0  0  0  0  0  0  0  0  0  0
  133.8929   72.7482  221.9422 H   0  0  0  0  0  0  0  0  0  0  0  0
  133.2777   74.2510  222.7592 H   0  0  0  0  0  0  0  0  0  0  0  0
  135.2267   72.2017  223.8523 H   0  0  0  0  0  0  0  0  0  0  0  0
  133.5512   72.5936  224.4260 H   0  0  0  0  0  0  0  0  0  0  0  0
  136.0400   73.6842  225.1580 H   0  0  0  0  0  0  0  0  0  0  0  0
  134.3810   73.3310  226.7530 H   0  0  0  0  0  0  0  0  0  0  0  0
  134.4920   75.0520  226.6810 H   0  0  0  0  0  0  0  0  0  0  0  0
  135.5059   76.1473  224.9443 H   0  0  0  0  0  0  0  0  0  0  0  0
  134.0752   75.7451  223.9701 H   0  0  0  0  0  0  0  0  0  0  0  0
  136.9176   74.8136  223.3445 H   0  0  0  0  0  0  0  0  0  0  0  0
  136.1423   76.2508  222.6062 H   0  0  0  0  0  0  0  0  0  0  0  0
  137.7908   70.1752  223.7988 H   0  0  0  0  0  0  0  0  0  0  0  0
  139.0248   69.4819  222.6274 H   0  0  0  0  0  0  0  0  0  0  0  0
  138.2715   68.2323  224.8202 H   0  0  0  0  0  0  0  0  0  0  0  0
  139.9587   68.1816  224.1224 H   0  0  0  0  0  0  0  0  0  0  0  0
  138.8204   67.7233  227.0023 H   0  0  0  0  0  0  0  0  0  0  0  0
  139.7860   68.5908  229.1555 H   0  0  0  0  0  0  0  0  0  0  0  0
  141.2034   70.5959  229.1634 H   0  0  0  0  0  0  0  0  0  0  0  0
  141.7104   71.8058  227.0583 H   0  0  0  0  0  0  0  0  0  0  0  0
  141.0848   72.1842  224.7839 H   0  0  0  0  0  0  0  0  0  0  0  0
  141.6729   70.6449  224.0756 H   0  0  0  0  0  0  0  0  0  0  0  0
  139.8838   76.6479  223.0130 H   0  0  0  0  0  0  0  0  0  0  0  0
  141.6717   76.6554  222.9790 H   0  0  0  0  0  0  0  0  0  0  0  0
  139.8116   77.5952  220.7273 H   0  0  0  0  0  0  0  0  0  0  0  0
  140.7656   78.6530  221.8099 H   0  0  0  0  0  0  0  0  0  0  0  0
  141.5305   80.0172  221.0631 H   0  0  0  0  0  0  0  0  0  0  0  0
  141.7496   82.0348  219.6188 H   0  0  0  0  0  0  0  0  0  0  0  0
  1  2  1  0
  2  3  2  0
  2  4  2  0
  2  5  1  0
  5  6  2  0
  6  7  1  0
  7  8  2  0
  8  9  1  0
  9 10  1  0
 10 11  1  0
 11 12  1  0
 12 13  1  0
 13 14  2  0
 14 15  1  0
 15 16  1  0
 16 17  1  0
 17 18  1  0
 18 19  1  0
 19 20  1  0
 20 21  1  0
 20 22  1  0
 22 23  1  0
 15 24  2  0
 24 25  1  0
 25 26  1  0
 26 27  1  0
 27 28  1  0
 28 29  1  0
 29 30  2  0
 30 31  1  0
 31 32  2  0
 32 33  1  0
 33 34  2  0
 34 35  1  0
 25 36  2  0
 12 37  1  0
 37 38  1  0
  8 39  1  0
 39 40  2  0
 40  5  1  0
 38  9  1  0
 36 13  1  0
 23 17  1  0
 35 26  1  0
 34 29  1  0
  1 41  1  0
  1 42  1  0
  1 43  1  0
  6 44  1  0
  7 45  1  0
  9 46  1  0
 10 47  1  0
 10 48  1  0
 11 49  1  0
 11 50  1  0
 16 51  1  0
 17 52  1  6
 18 53  1  0
 18 54  1  0
 19 55  1  0
 19 56  1  0
 20 57  1  1
 21 58  1  0
 21 59  1  0
 22 60  1  0
 22 61  1  0
 23 62  1  0
 23 63  1  0
 27 64  1  0
 27 65  1  0
 28 66  1  0
 28 67  1  0
 30 68  1  0
 31 69  1  0
 32 70  1  0
 33 71  1  0
 35 72  1  0
 35 73  1  0
 37 74  1  0
 37 75  1  0
 38 76  1  0
 38 77  1  0
 39 78  1  0
 40 79  1  0
M  END
>  <smiles>  (23) 
CS(=O)(=O)c1ccc(C2CCN(c3nc(N[C@H]4CC[C@H](N)CC4)nc(N4CCc5ccccc5C4)n3)CC2)cc1

>  <score_type>  (23) 
oracle

>  <origin>  (23) 
autodockgpu

>  <m_score__min__energy>  (23) 
-10.390000000000001

>  <m_primary>  (23) 
energy

>  <rmsd>  (23) 
10.382757906161624

>  <m_score__min__rmsd>  (23) 
10.382757906161624

>  <meeko>  (23) 
{"free_energy": -9.47, "intermolecular_energy": -11.56, "internal_energy": -1.65, "cluster_size": 12, "cluster_id": 4, "rank_in_cluster": 5}

>  <energy>  (23) 
-9.81

>  <cluster_rmsd>  (23) 
0.0

>  <cluster>  (23) 
3

$$$$

     RDKit          3D

 79 84  0  0  0  0  0  0  0  0999 V2000
  143.4880   80.2420  223.1420 C   0  0  0  0  0  0  0  0  0  0  0  0
  141.8460   80.8960  222.9640 S   0  0  0  0  0  0  0  0  0  0  0  0
  141.4920   81.6310  224.2440 O   0  0  0  0  0  0  0  0  0  0  0  0
  141.8210   81.8550  221.7870 O   0  0  0  0  0  0  0  0  0  0  0  0
  140.6500   79.6400  222.7470 C   0  0  0  0  0  0  0  0  0  0  0  0
  139.3370   79.7720  223.1440 C   0  0  0  0  0  0  0  0  0  0  0  0
  138.4160   78.7620  222.9610 C   0  0  0  0  0  0  0  0  0  0  0  0
  138.8520   77.5950  222.3570 C   0  0  0  0  0  0  0  0  0  0  0  0
  137.9610   76.4340  222.1020 C   0  0  0  0  0  0  0  0  0  0  0  0
  137.1670   76.1150  223.3540 C   0  0  0  0  0  0  0  0  0  0  0  0
  136.1670   75.0460  222.9770 C   0  0  0  0  0  0  0  0  0  0  0  0
  136.8400   73.8830  222.3970 N   0  0  0  0  0  0  0  0  0  0  0  0
  136.6370   72.5680  222.9080 C   0  0  0  0  0  0  0  0  0  0  0  0
  135.4360   71.9660  222.8560 N   0  0  0  0  0  0  0  0  0  0  0  0
  135.2280   70.7180  223.3400 C   0  0  0  0  0  0  0  0  0  0  0  0
  133.9490   70.1000  223.2670 N   0  0  0  0  0  0  0  0  0  0  0  0
  132.9210   70.3180  224.2520 C   0  0  1  0  0  0  0  0  0  0  0  0
  133.3400   69.9050  225.6360 C   0  0  0  0  0  0  0  0  0  0  0  0
  134.1450   70.9750  226.3370 C   0  0  0  0  0  0  0  0  0  0  0  0
  133.4590   72.3200  226.2820 C   0  0  2  0  0  0  0  0  0  0  0  0
  133.2300   72.9230  227.5560 N   0  0  0  0  0  0  0  0  0  0  0  0
  132.1350   72.2340  225.5480 C   0  0  0  0  0  0  0  0  0  0  0  0
  132.4360   71.7440  224.1700 C   0  0  0  0  0  0  0  0  0  0  0  0
  136.2900   70.0720  223.8920 N   0  0  0  0  0  0  0  0  0  0  0  0
  137.5080   70.6400  223.9630 C   0  0  0  0  0  0  0  0  0  0  0  0
  138.6000   69.9370  224.5460 N   0  0  0  0  0  0  0  0  0  0  0  0
  138.4600   68.5220  224.7400 C   0  0  0  0  0  0  0  0  0  0  0  0
  139.5530   67.8870  225.5360 C   0  0  0  0  0  0  0  0  0  0  0  0
  140.1700   68.8030  226.5290 C   0  0  0  0  0  0  0  0  0  0  0  0
  140.5960   68.2720  227.7110 C   0  0  0  0  0  0  0  0  0  0  0  0
  141.1730   69.1500  228.6310 C   0  0  0  0  0  0  0  0  0  0  0  0
  141.2980   70.4870  228.3430 C   0  0  0  0  0  0  0  0  0  0  0  0
  140.8610   71.0030  227.1430 C   0  0  0  0  0  0  0  0  0  0  0  0
  140.2930   70.1490  226.2330 C   0  0  0  0  0  0  0  0  0  0  0  0
  139.8040   70.6600  224.9200 C   0  0  0  0  0  0  0  0  0  0  0  0
  137.6530   71.8990  223.4580 N   0  0  0  0  0  0  0  0  0  0  0  0
  137.7190   74.1470  221.2740 C   0  0  0  0  0  0  0  0  0  0  0  0
  138.7170   75.2100  221.6890 C   0  0  0  0  0  0  0  0  0  0  0  0
  140.1820   77.4390  221.9460 C   0  0  0  0  0  0  0  0  0  0  0  0
  141.0890   78.4600  222.1380 C   0  0  0  0  0  0  0  0  0  0  0  0
  143.7304   80.1455  224.2106 H   0  0  0  0  0  0  0  0  0  0  0  0
  143.5429   79.2534  222.6628 H   0  0  0  0  0  0  0  0  0  0  0  0
  144.2075   80.9222  222.6628 H   0  0  0  0  0  0  0  0  0  0  0  0
  139.0144   80.7096  223.6204 H   0  0  0  0  0  0  0  0  0  0  0  0
  137.3710   78.8795  223.2838 H   0  0  0  0  0  0  0  0  0  0  0  0
  137.2940   76.7169  221.2743 H   0  0  0  0  0  0  0  0  0  0  0  0
  137.8375   75.7447  224.1435 H   0  0  0  0  0  0  0  0  0  0  0  0
  136.6595   77.0120  223.7385 H   0  0  0  0  0  0  0  0  0  0  0  0
  135.6181   74.7327  223.8773 H   0  0  0  0  0  0  0  0  0  0  0  0
  135.4744   75.4603  222.2296 H   0  0  0  0  0  0  0  0  0  0  0  0
  133.7660   69.4650  222.4570 H   0  0  0  0  0  0  0  0  0  0  0  0
  132.0706   69.6596  224.0212 H   0  0  0  0  0  0  0  0  0  0  0  0
  133.9516   68.9936  225.5629 H   0  0  0  0  0  0  0  0  0  0  0  0
  132.4275   69.7314  226.2252 H   0  0  0  0  0  0  0  0  0  0  0  0
  135.1283   71.0567  225.8507 H   0  0  0  0  0  0  0  0  0  0  0  0
  134.2490   70.6873  227.3936 H   0  0  0  0  0  0  0  0  0  0  0  0
  134.1679   72.9618  225.7383 H   0  0  0  0  0  0  0  0  0  0  0  0
  132.2710   72.7770  227.9160 H   0  0  0  0  0  0  0  0  0  0  0  0
  133.9580   72.7390  228.2790 H   0  0  0  0  0  0  0  0  0  0  0  0
  131.6624   73.2262  225.5022 H   0  0  0  0  0  0  0  0  0  0  0  0
  131.4407   71.5553  226.0651 H   0  0  0  0  0  0  0  0  0  0  0  0
  133.2159   72.3735  223.7167 H   0  0  0  0  0  0  0  0  0  0  0  0
  131.5280   71.7932  223.5510 H   0  0  0  0  0  0  0  0  0  0  0  0
  137.5081   68.3406  225.2605 H   0  0  0  0  0  0  0  0  0  0  0  0
  138.5016   68.0670  223.7394 H   0  0  0  0  0  0  0  0  0  0  0  0
  139.1360   67.0217  226.0721 H   0  0  0  0  0  0  0  0  0  0  0  0
  140.3432   67.5969  224.8278 H   0  0  0  0  0  0  0  0  0  0  0  0
  140.4897   67.1993  227.9299 H   0  0  0  0  0  0  0  0  0  0  0  0
  141.5315   68.7663  229.5975 H   0  0  0  0  0  0  0  0  0  0  0  0
  141.7557   71.1583  229.0845 H   0  0  0  0  0  0  0  0  0  0  0  0
  140.9652   72.0751  226.9200 H   0  0  0  0  0  0  0  0  0  0  0  0
  139.5780   71.7333  225.0037 H   0  0  0  0  0  0  0  0  0  0  0  0
  140.5785   70.5113  224.1531 H   0  0  0  0  0  0  0  0  0  0  0  0
  138.2515   73.2261  220.9942 H   0  0  0  0  0  0  0  0  0  0  0  0
  137.1344   74.4936  220.4090 H   0  0  0  0  0  0  0  0  0  0  0  0
  139.3202   74.8438  222.5328 H   0  0  0  0  0  0  0  0  0  0  0  0
  139.3879   75.4460  220.8498 H   0  0  0  0  0  0  0  0  0  0  0  0
  140.5034   76.5011  221.4696 H   0  0  0  0  0  0  0  0  0  0  0  0
  142.1358   78.3486  221.8189 H   0  0  0  0  0  0  0  0  0  0  0  0
  1  2  1  0
  2  3  2  0
  2  4  2  0
  2  5  1  0
  5  6  2  0
  6  7  1  0
  7  8  2  0
  8  9  1  0
  9 10  1  0
 10 11  1  0
 11 12  1  0
 12 13  1  0
 13 14  2  0
 14 15  1  0
 15 16  1  0
 16 17  1  0
 17 18  1  0
 18 19  1  0
 19 20  1  0
 20 21  1  0
 20 22  1  0
 22 23  1  0
 15 24  2  0
 24 25  1  0
 25 26  1  0
 26 27  1  0
 27 28  1  0
 28 29  1  0
 29 30  2  0
 30 31  1  0
 31 32  2  0
 32 33  1  0
 33 34  2  0
 34 35  1  0
 25 36  2  0
 12 37  1  0
 37 38  1  0
  8 39  1  0
 39 40  2  0
 40  5  1  0
 38  9  1  0
 36 13  1  0
 23 17  1  0
 35 26  1  0
 34 29  1  0
  1 41  1  0
  1 42  1  0
  1 43  1  0
  6 44  1  0
  7 45  1  0
  9 46  1  0
 10 47  1  0
 10 48  1  0
 11 49  1  0
 11 50  1  0
 16 51  1  0
 17 52  1  6
 18 53  1  0
 18 54  1  0
 19 55  1  0
 19 56  1  0
 20 57  1  6
 21 58  1  0
 21 59  1  0
 22 60  1  0
 22 61  1  0
 23 62  1  0
 23 63  1  0
 27 64  1  0
 27 65  1  0
 28 66  1  0
 28 67  1  0
 30 68  1  0
 31 69  1  0
 32 70  1  0
 33 71  1  0
 35 72  1  0
 35 73  1  0
 37 74  1  0
 37 75  1  0
 38 76  1  0
 38 77  1  0
 39 78  1  0
 40 79  1  0
M  END
>  <smiles>  (24) 
CS(=O)(=O)c1ccc(C2CCN(c3nc(N[C@H]4CC[C@H](N)CC4)nc(N4CCc5ccccc5C4)n3)CC2)cc1

>  <score_type>  (24) 
oracle

>  <origin>  (24) 
autodockgpu

>  <m_score__min__energy>  (24) 
-10.390000000000001

>  <m_primary>  (24) 
energy

>  <rmsd>  (24) 
8.030082914858115

>  <m_score__min__rmsd>  (24) 
8.030082914858115

>  <meeko>  (24) 
{"free_energy": -10.02, "intermolecular_energy": -12.1, "internal_energy": -1.78, "cluster_size": 18, "cluster_id": 2, "rank_in_cluster": 13}

>  <energy>  (24) 
-9.78

>  <cluster_rmsd>  (24) 
0.44

>  <cluster>  (24) 
3

$$$$

     RDKit          3D

 79 84  0  0  0  0  0  0  0  0999 V2000
  144.0680   82.8250  216.6600 C   0  0  0  0  0  0  0  0  0  0  0  0
  142.3580   82.4230  216.9230 S   0  0  0  0  0  0  0  0  0  0  0  0
  141.6730   83.6440  217.5080 O   0  0  0  0  0  0  0  0  0  0  0  0
  141.7260   82.0570  215.5920 O   0  0  0  0  0  0  0  0  0  0  0  0
  142.1500   81.1210  218.0700 C   0  0  0  0  0  0  0  0  0  0  0  0
  141.7320   81.3200  219.3690 C   0  0  0  0  0  0  0  0  0  0  0  0
  141.5790   80.2710  220.2520 C   0  0  0  0  0  0  0  0  0  0  0  0
  141.8590   78.9960  219.7930 C   0  0  0  0  0  0  0  0  0  0  0  0
  141.7340   77.7840  220.6430 C   0  0  0  0  0  0  0  0  0  0  0  0
  141.6160   76.5530  219.7650 C   0  0  0  0  0  0  0  0  0  0  0  0
  141.6660   75.3540  220.6830 C   0  0  0  0  0  0  0  0  0  0  0  0
  140.6280   75.4410  221.7120 N   0  0  0  0  0  0  0  0  0  0  0  0
  139.6940   74.3860  221.9250 C   0  0  0  0  0  0  0  0  0  0  0  0
  138.4550   74.4210  221.4020 N   0  0  0  0  0  0  0  0  0  0  0  0
  137.5570   73.4270  221.5980 C   0  0  0  0  0  0  0  0  0  0  0  0
  136.2550   73.4840  221.0270 N   0  0  0  0  0  0  0  0  0  0  0  0
  135.1410   74.1140  221.6880 C   0  0  1  0  0  0  0  0  0  0  0  0
  134.3680   73.1670  222.5630 C   0  0  0  0  0  0  0  0  0  0  0  0
  134.9970   73.0020  223.9280 C   0  0  0  0  0  0  0  0  0  0  0  0
  135.2880   74.3350  224.5770 C   0  0  2  0  0  0  0  0  0  0  0  0
  134.6960   74.5120  225.8640 N   0  0  0  0  0  0  0  0  0  0  0  0
  134.8590   75.4870  223.6890 C   0  0  0  0  0  0  0  0  0  0  0  0
  135.6150   75.3520  222.4090 C   0  0  0  0  0  0  0  0  0  0  0  0
  137.9460   72.3670  222.3560 N   0  0  0  0  0  0  0  0  0  0  0  0
  139.1760   72.2950  222.8980 C   0  0  0  0  0  0  0  0  0  0  0  0
  139.5530   71.1710  223.6860 N   0  0  0  0  0  0  0  0  0  0  0  0
  138.7230   70.0020  223.6280 C   0  0  0  0  0  0  0  0  0  0  0  0
  139.0600   68.9430  224.6260 C   0  0  0  0  0  0  0  0  0  0  0  0
  139.6520   69.4790  225.8790 C   0  0  0  0  0  0  0  0  0  0  0  0
  139.3600   68.8400  227.0480 C   0  0  0  0  0  0  0  0  0  0  0  0
  139.9270   69.3600  228.2140 C   0  0  0  0  0  0  0  0  0  0  0  0
  140.7410   70.4650  228.1680 C   0  0  0  0  0  0  0  0  0  0  0  0
  141.0240   71.0950  226.9760 C   0  0  0  0  0  0  0  0  0  0  0  0
  140.4720   70.5920  225.8260 C   0  0  0  0  0  0  0  0  0  0  0  0
  140.7490   71.2390  224.5110 C   0  0  0  0  0  0  0  0  0  0  0  0
  140.0350   73.3280  222.6630 N   0  0  0  0  0  0  0  0  0  0  0  0
  140.6090   76.6590  222.4990 C   0  0  0  0  0  0  0  0  0  0  0  0
  140.5450   77.8400  221.5500 C   0  0  0  0  0  0  0  0  0  0  0  0
  142.2850   78.7720  218.4780 C   0  0  0  0  0  0  0  0  0  0  0  0
  142.4330   79.8320  217.6080 C   0  0  0  0  0  0  0  0  0  0  0  0
  144.5705   82.9431  217.6314 H   0  0  0  0  0  0  0  0  0  0  0  0
  144.5518   82.0161  216.0929 H   0  0  0  0  0  0  0  0  0  0  0  0
  144.1407   83.7647  216.0929 H   0  0  0  0  0  0  0  0  0  0  0  0
  141.5147   82.3428  219.7104 H   0  0  0  0  0  0  0  0  0  0  0  0
  141.2456   80.4425  221.2861 H   0  0  0  0  0  0  0  0  0  0  0  0
  142.6379   77.7363  221.2680 H   0  0  0  0  0  0  0  0  0  0  0  0
  140.6630   76.5697  219.2159 H   0  0  0  0  0  0  0  0  0  0  0  0
  142.4292   76.5171  219.0251 H   0  0  0  0  0  0  0  0  0  0  0  0
  141.5105   74.4401  220.0908 H   0  0  0  0  0  0  0  0  0  0  0  0
  142.6490   75.3293  221.1761 H   0  0  0  0  0  0  0  0  0  0  0  0
  136.1210   73.0440  220.0880 H   0  0  0  0  0  0  0  0  0  0  0  0
  134.4132   74.4275  220.9251 H   0  0  0  0  0  0  0  0  0  0  0  0
  134.3279   72.1840  222.0710 H   0  0  0  0  0  0  0  0  0  0  0  0
  133.3613   73.5870  222.7055 H   0  0  0  0  0  0  0  0  0  0  0  0
  135.9395   72.4450  223.8207 H   0  0  0  0  0  0  0  0  0  0  0  0
  134.2867   72.4581  224.5681 H   0  0  0  0  0  0  0  0  0  0  0  0
  136.3791   74.3333  224.7163 H   0  0  0  0  0  0  0  0  0  0  0  0
  135.0670   75.3280  226.3810 H   0  0  0  0  0  0  0  0  0  0  0  0
  133.6550   74.4640  225.8920 H   0  0  0  0  0  0  0  0  0  0  0  0
  135.0993   76.4461  224.1710 H   0  0  0  0  0  0  0  0  0  0  0  0
  133.7739   75.4635  223.5100 H   0  0  0  0  0  0  0  0  0  0  0  0
  136.6905   75.2654  222.6230 H   0  0  0  0  0  0  0  0  0  0  0  0
  135.4429   76.2378  221.7800 H   0  0  0  0  0  0  0  0  0  0  0  0
  137.6817   70.3131  223.7980 H   0  0  0  0  0  0  0  0  0  0  0  0
  138.8869   69.5554  222.6362 H   0  0  0  0  0  0  0  0  0  0  0  0
  138.1389   68.3984  224.8808 H   0  0  0  0  0  0  0  0  0  0  0  0
  139.8151   68.2901  224.1638 H   0  0  0  0  0  0  0  0  0  0  0  0
  138.7073   67.9549  227.0716 H   0  0  0  0  0  0  0  0  0  0  0  0
  139.7189   68.8784  229.1808 H   0  0  0  0  0  0  0  0  0  0  0  0
  141.1753   70.8545  229.1006 H   0  0  0  0  0  0  0  0  0  0  0  0
  141.6768   71.9799  226.9475 H   0  0  0  0  0  0  0  0  0  0  0  0
  141.0278   72.2912  224.6696 H   0  0  0  0  0  0  0  0  0  0  0  0
  141.5764   70.7170  224.0081 H   0  0  0  0  0  0  0  0  0  0  0  0
  139.7274   76.6627  223.1569 H   0  0  0  0  0  0  0  0  0  0  0  0
  141.5143   76.7219  223.1207 H   0  0  0  0  0  0  0  0  0  0  0  0
  139.6213   77.7884  220.9549 H   0  0  0  0  0  0  0  0  0  0  0  0
  140.5482   78.7816  222.1187 H   0  0  0  0  0  0  0  0  0  0  0  0
  142.5021   77.7486  218.1382 H   0  0  0  0  0  0  0  0  0  0  0  0
  142.7665   79.6668  216.5729 H   0  0  0  0  0  0  0  0  0  0  0  0
  1  2  1  0
  2  3  2  0
  2  4  2  0
  2  5  1  0
  5  6  2  0
  6  7  1  0
  7  8  2  0
  8  9  1  0
  9 10  1  0
 10 11  1  0
 11 12  1  0
 12 13  1  0
 13 14  2  0
 14 15  1  0
 15 16  1  0
 16 17  1  0
 17 18  1  0
 18 19  1  0
 19 20  1  0
 20 21  1  0
 20 22  1  0
 22 23  1  0
 15 24  2  0
 24 25  1  0
 25 26  1  0
 26 27  1  0
 27 28  1  0
 28 29  1  0
 29 30  2  0
 30 31  1  0
 31 32  2  0
 32 33  1  0
 33 34  2  0
 34 35  1  0
 25 36  2  0
 12 37  1  0
 37 38  1  0
  8 39  1  0
 39 40  2  0
 40  5  1  0
 38  9  1  0
 36 13  1  0
 23 17  1  0
 35 26  1  0
 34 29  1  0
  1 41  1  0
  1 42  1  0
  1 43  1  0
  6 44  1  0
  7 45  1  0
  9 46  1  0
 10 47  1  0
 10 48  1  0
 11 49  1  0
 11 50  1  0
 16 51  1  0
 17 52  1  6
 18 53  1  0
 18 54  1  0
 19 55  1  0
 19 56  1  0
 20 57  1  1
 21 58  1  0
 21 59  1  0
 22 60  1  0
 22 61  1  0
 23 62  1  0
 23 63  1  0
 27 64  1  0
 27 65  1  0
 28 66  1  0
 28 67  1  0
 30 68  1  0
 31 69  1  0
 32 70  1  0
 33 71  1  0
 35 72  1  0
 35 73  1  0
 37 74  1  0
 37 75  1  0
 38 76  1  0
 38 77  1  0
 39 78  1  0
 40 79  1  0
M  END
>  <smiles>  (25) 
CS(=O)(=O)c1ccc(C2CCN(c3nc(N[C@H]4CC[C@H](N)CC4)nc(N4CCc5ccccc5C4)n3)CC2)cc1

>  <score_type>  (25) 
oracle

>  <origin>  (25) 
autodockgpu

>  <m_score__min__energy>  (25) 
-10.390000000000001

>  <m_primary>  (25) 
energy

>  <rmsd>  (25) 
10.584981131223048

>  <m_score__min__rmsd>  (25) 
10.584981131223048

>  <meeko>  (25) 
{"free_energy": -9.14, "intermolecular_energy": -11.23, "internal_energy": -1.76, "cluster_size": 12, "cluster_id": 4, "rank_in_cluster": 12}

>  <energy>  (25) 
-9.78

>  <cluster_rmsd>  (25) 
0.22

>  <cluster>  (25) 
3

$$$$

     RDKit          3D

 79 84  0  0  0  0  0  0  0  0999 V2000
  141.5160   82.2480  221.6990 C   0  0  0  0  0  0  0  0  0  0  0  0
  141.7790   80.8510  222.7650 S   0  0  0  0  0  0  0  0  0  0  0  0
  143.1370   80.2590  222.4360 O   0  0  0  0  0  0  0  0  0  0  0  0
  141.7490   81.3190  224.2090 O   0  0  0  0  0  0  0  0  0  0  0  0
  140.5960   79.5900  222.5130 C   0  0  0  0  0  0  0  0  0  0  0  0
  139.2590   79.8440  222.2930 C   0  0  0  0  0  0  0  0  0  0  0  0
  138.3480   78.8260  222.0990 C   0  0  0  0  0  0  0  0  0  0  0  0
  138.8200   77.5250  222.1280 C   0  0  0  0  0  0  0  0  0  0  0  0
  137.9430   76.3420  221.9320 C   0  0  0  0  0  0  0  0  0  0  0  0
  137.1290   76.0960  223.1880 C   0  0  0  0  0  0  0  0  0  0  0  0
  136.1450   74.9960  222.8620 C   0  0  0  0  0  0  0  0  0  0  0  0
  136.8370   73.8040  222.3700 N   0  0  0  0  0  0  0  0  0  0  0  0
  136.6360   72.5230  222.9600 C   0  0  0  0  0  0  0  0  0  0  0  0
  135.4230   71.9440  223.0000 N   0  0  0  0  0  0  0  0  0  0  0  0
  135.2160   70.7290  223.5590 C   0  0  0  0  0  0  0  0  0  0  0  0
  133.9230   70.1350  223.5820 N   0  0  0  0  0  0  0  0  0  0  0  0
  132.8520   70.6330  224.4060 C   0  0  1  0  0  0  0  0  0  0  0  0
  133.1250   70.4780  225.8770 C   0  0  0  0  0  0  0  0  0  0  0  0
  133.9780   71.6000  226.4240 C   0  0  0  0  0  0  0  0  0  0  0  0
  133.4330   72.9570  226.0430 C   0  0  2  0  0  0  0  0  0  0  0  0
  133.1710   73.8240  227.1460 N   0  0  0  0  0  0  0  0  0  0  0  0
  132.1650   72.8310  225.2200 C   0  0  0  0  0  0  0  0  0  0  0  0
  132.5170   72.0470  224.0000 C   0  0  0  0  0  0  0  0  0  0  0  0
  136.2920   70.0910  224.0920 N   0  0  0  0  0  0  0  0  0  0  0  0
  137.5230   70.6350  224.0720 C   0  0  0  0  0  0  0  0  0  0  0  0
  138.6290   69.9410  224.6390 N   0  0  0  0  0  0  0  0  0  0  0  0
  138.4940   68.5300  224.8590 C   0  0  0  0  0  0  0  0  0  0  0  0
  139.6070   67.9060  225.6370 C   0  0  0  0  0  0  0  0  0  0  0  0
  140.2500   68.8380  226.5980 C   0  0  0  0  0  0  0  0  0  0  0  0
  140.7070   68.3260  227.7770 C   0  0  0  0  0  0  0  0  0  0  0  0
  141.3080   69.2180  228.6670 C   0  0  0  0  0  0  0  0  0  0  0  0
  141.4260   70.5500  228.3540 C   0  0  0  0  0  0  0  0  0  0  0  0
  140.9580   71.0480  227.1580 C   0  0  0  0  0  0  0  0  0  0  0  0
  140.3660   70.1790  226.2780 C   0  0  0  0  0  0  0  0  0  0  0  0
  139.8430   70.6690  224.9700 C   0  0  0  0  0  0  0  0  0  0  0  0
  137.6660   71.8620  223.4950 N   0  0  0  0  0  0  0  0  0  0  0  0
  137.7340   74.0040  221.2480 C   0  0  0  0  0  0  0  0  0  0  0  0
  138.7160   75.1020  221.6120 C   0  0  0  0  0  0  0  0  0  0  0  0
  140.1730   77.2450  222.3490 C   0  0  0  0  0  0  0  0  0  0  0  0
  141.0710   78.2750  222.5430 C   0  0  0  0  0  0  0  0  0  0  0  0
  141.3466   83.1477  222.3087 H   0  0  0  0  0  0  0  0  0  0  0  0
  142.4019   82.3967  221.0642 H   0  0  0  0  0  0  0  0  0  0  0  0
  140.6366   82.0644  221.0642 H   0  0  0  0  0  0  0  0  0  0  0  0
  138.9089   80.8866  222.2715 H   0  0  0  0  0  0  0  0  0  0  0  0
  137.2830   79.0409  221.9271 H   0  0  0  0  0  0  0  0  0  0  0  0
  137.2888   76.5655  221.0764 H   0  0  0  0  0  0  0  0  0  0  0  0
  137.7881   75.7829  224.0112 H   0  0  0  0  0  0  0  0  0  0  0  0
  136.6074   77.0108  223.5059 H   0  0  0  0  0  0  0  0  0  0  0  0
  135.5817   74.7360  223.7704 H   0  0  0  0  0  0  0  0  0  0  0  0
  135.4638   75.3557  222.0767 H   0  0  0  0  0  0  0  0  0  0  0  0
  133.7640   69.3040  222.9690 H   0  0  0  0  0  0  0  0  0  0  0  0
  131.9598   70.0134  224.2325 H   0  0  0  0  0  0  0  0  0  0  0  0
  133.6476   69.5241  226.0411 H   0  0  0  0  0  0  0  0  0  0  0  0
  132.1591   70.5028  226.4028 H   0  0  0  0  0  0  0  0  0  0  0  0
  134.9973   71.5003  226.0227 H   0  0  0  0  0  0  0  0  0  0  0  0
  133.9760   71.5268  227.5216 H   0  0  0  0  0  0  0  0  0  0  0  0
  134.2401   73.4146  225.4520 H   0  0  0  0  0  0  0  0  0  0  0  0
  133.2010   73.3460  228.0630 H   0  0  0  0  0  0  0  0  0  0  0  0
  133.6990   74.7220  227.1490 H   0  0  0  0  0  0  0  0  0  0  0  0
  131.7975   73.8282  224.9360 H   0  0  0  0  0  0  0  0  0  0  0  0
  131.3708   72.3312  225.7940 H   0  0  0  0  0  0  0  0  0  0  0  0
  133.3864   72.5047  223.5053 H   0  0  0  0  0  0  0  0  0  0  0  0
  131.6665   72.0423  223.3024 H   0  0  0  0  0  0  0  0  0  0  0  0
  137.5556   68.3576  225.4065 H   0  0  0  0  0  0  0  0  0  0  0  0
  138.5103   68.0594  223.8649 H   0  0  0  0  0  0  0  0  0  0  0  0
  139.2032   67.0504  226.1982 H   0  0  0  0  0  0  0  0  0  0  0  0
  140.3782   67.6024  224.9138 H   0  0  0  0  0  0  0  0  0  0  0  0
  140.6064   67.2570  228.0160 H   0  0  0  0  0  0  0  0  0  0  0  0
  141.6914   68.8497  229.6300 H   0  0  0  0  0  0  0  0  0  0  0  0
  141.9036   71.2325  229.0724 H   0  0  0  0  0  0  0  0  0  0  0  0
  141.0567   72.1163  226.9150 H   0  0  0  0  0  0  0  0  0  0  0  0
  139.6197   71.7437  225.0421 H   0  0  0  0  0  0  0  0  0  0  0  0
  140.5971   70.5070  224.1858 H   0  0  0  0  0  0  0  0  0  0  0  0
  138.2794   73.0722  221.0373 H   0  0  0  0  0  0  0  0  0  0  0  0
  137.1624   74.2888  220.3523 H   0  0  0  0  0  0  0  0  0  0  0  0
  139.3066   74.7963  222.4882 H   0  0  0  0  0  0  0  0  0  0  0  0
  139.4000   75.2903  220.7714 H   0  0  0  0  0  0  0  0  0  0  0  0
  140.5217   76.2019  222.3682 H   0  0  0  0  0  0  0  0  0  0  0  0
  142.1368   78.0662  222.7174 H   0  0  0  0  0  0  0  0  0  0  0  0
  1  2  1  0
  2  3  2  0
  2  4  2  0
  2  5  1  0
  5  6  2  0
  6  7  1  0
  7  8  2  0
  8  9  1  0
  9 10  1  0
 10 11  1  0
 11 12  1  0
 12 13  1  0
 13 14  2  0
 14 15  1  0
 15 16  1  0
 16 17  1  0
 17 18  1  0
 18 19  1  0
 19 20  1  0
 20 21  1  0
 20 22  1  0
 22 23  1  0
 15 24  2  0
 24 25  1  0
 25 26  1  0
 26 27  1  0
 27 28  1  0
 28 29  1  0
 29 30  2  0
 30 31  1  0
 31 32  2  0
 32 33  1  0
 33 34  2  0
 34 35  1  0
 25 36  2  0
 12 37  1  0
 37 38  1  0
  8 39  1  0
 39 40  2  0
 40  5  1  0
 38  9  1  0
 36 13  1  0
 23 17  1  0
 35 26  1  0
 34 29  1  0
  1 41  1  0
  1 42  1  0
  1 43  1  0
  6 44  1  0
  7 45  1  0
  9 46  1  0
 10 47  1  0
 10 48  1  0
 11 49  1  0
 11 50  1  0
 16 51  1  0
 17 52  1  6
 18 53  1  0
 18 54  1  0
 19 55  1  0
 19 56  1  0
 20 57  1  6
 21 58  1  0
 21 59  1  0
 22 60  1  0
 22 61  1  0
 23 62  1  0
 23 63  1  0
 27 64  1  0
 27 65  1  0
 28 66  1  0
 28 67  1  0
 30 68  1  0
 31 69  1  0
 32 70  1  0
 33 71  1  0
 35 72  1  0
 35 73  1  0
 37 74  1  0
 37 75  1  0
 38 76  1  0
 38 77  1  0
 39 78  1  0
 40 79  1  0
M  END
>  <smiles>  (26) 
CS(=O)(=O)c1ccc(C2CCN(c3nc(N[C@H]4CC[C@H](N)CC4)nc(N4CCc5ccccc5C4)n3)CC2)cc1

>  <score_type>  (26) 
oracle

>  <origin>  (26) 
autodockgpu

>  <m_score__min__energy>  (26) 
-10.390000000000001

>  <m_primary>  (26) 
energy

>  <rmsd>  (26) 
7.980212926624083

>  <m_score__min__rmsd>  (26) 
7.980212926624083

>  <meeko>  (26) 
{"free_energy": -10.07, "intermolecular_energy": -12.16, "internal_energy": -1.79, "cluster_size": 18, "cluster_id": 2, "rank_in_cluster": 11}

>  <energy>  (26) 
-9.73

>  <cluster_rmsd>  (26) 
0.59

>  <cluster>  (26) 
3

$$$$

     RDKit          3D

 79 84  0  0  0  0  0  0  0  0999 V2000
  130.9260   79.1240  227.3680 C   0  0  0  0  0  0  0  0  0  0  0  0
  132.1970   78.0020  227.9000 S   0  0  0  0  0  0  0  0  0  0  0  0
  133.1850   78.7810  228.7490 O   0  0  0  0  0  0  0  0  0  0  0  0
  131.5640   76.8930  228.7210 O   0  0  0  0  0  0  0  0  0  0  0  0
  133.0930   77.3290  226.5590 C   0  0  0  0  0  0  0  0  0  0  0  0
  133.2360   77.9730  225.3490 C   0  0  0  0  0  0  0  0  0  0  0  0
  133.9480   77.4140  224.3080 C   0  0  0  0  0  0  0  0  0  0  0  0
  134.5250   76.1740  224.5150 C   0  0  0  0  0  0  0  0  0  0  0  0
  135.3170   75.4660  223.4760 C   0  0  0  0  0  0  0  0  0  0  0  0
  135.2440   73.9690  223.7090 C   0  0  0  0  0  0  0  0  0  0  0  0
  135.9200   73.3090  222.5290 C   0  0  0  0  0  0  0  0  0  0  0  0
  137.2850   73.8100  222.3620 N   0  0  0  0  0  0  0  0  0  0  0  0
  138.4040   72.9300  222.2970 C   0  0  0  0  0  0  0  0  0  0  0  0
  138.5120   71.8620  223.1050 N   0  0  0  0  0  0  0  0  0  0  0  0
  139.5710   71.0180  223.0560 C   0  0  0  0  0  0  0  0  0  0  0  0
  139.6580   69.8900  223.9180 N   0  0  0  0  0  0  0  0  0  0  0  0
  139.2650   69.9350  225.3020 C   0  0  1  0  0  0  0  0  0  0  0  0
  138.9130   68.5820  225.8550 C   0  0  0  0  0  0  0  0  0  0  0  0
  140.1330   67.8060  226.2970 C   0  0  0  0  0  0  0  0  0  0  0  0
  141.0200   68.6250  227.2050 C   0  0  2  0  0  0  0  0  0  0  0  0
  141.2900   68.0260  228.4720 N   0  0  0  0  0  0  0  0  0  0  0  0
  140.4420   70.0070  227.4420 C   0  0  0  0  0  0  0  0  0  0  0  0
  140.3180   70.6590  226.1050 C   0  0  0  0  0  0  0  0  0  0  0  0
  140.5450   71.2850  222.1460 N   0  0  0  0  0  0  0  0  0  0  0  0
  140.4750   72.3440  221.3180 C   0  0  0  0  0  0  0  0  0  0  0  0
  141.5110   72.5950  220.3760 N   0  0  0  0  0  0  0  0  0  0  0  0
  141.8080   71.5710  219.4160 C   0  0  0  0  0  0  0  0  0  0  0  0
  143.0320   71.8150  218.5950 C   0  0  0  0  0  0  0  0  0  0  0  0
  144.0660   72.6150  219.3000 C   0  0  0  0  0  0  0  0  0  0  0  0
  145.3760   72.3340  219.0440 C   0  0  0  0  0  0  0  0  0  0  0  0
  146.3320   73.0970  219.7170 C   0  0  0  0  0  0  0  0  0  0  0  0
  145.9530   74.0840  220.5940 C   0  0  0  0  0  0  0  0  0  0  0  0
  144.6250   74.3520  220.8380 C   0  0  0  0  0  0  0  0  0  0  0  0
  143.6780   73.6080  220.1820 C   0  0  0  0  0  0  0  0  0  0  0  0
  142.2260   73.8600  220.4120 C   0  0  0  0  0  0  0  0  0  0  0  0
  139.3830   73.1560  221.4180 N   0  0  0  0  0  0  0  0  0  0  0  0
  137.4300   75.2500  222.2650 C   0  0  0  0  0  0  0  0  0  0  0  0
  136.7540   75.8800  223.4680 C   0  0  0  0  0  0  0  0  0  0  0  0
  134.3920   75.5020  225.7360 C   0  0  0  0  0  0  0  0  0  0  0  0
  133.6760   76.0750  226.7660 C   0  0  0  0  0  0  0  0  0  0  0  0
  130.4309   79.5610  228.2477 H   0  0  0  0  0  0  0  0  0  0  0  0
  131.3745   79.9261  226.7635 H   0  0  0  0  0  0  0  0  0  0  0  0
  130.1857   78.5795  226.7635 H   0  0  0  0  0  0  0  0  0  0  0  0
  132.7698   78.9595  225.2095 H   0  0  0  0  0  0  0  0  0  0  0  0
  134.0533   77.9367  223.3459 H   0  0  0  0  0  0  0  0  0  0  0  0
  134.8808   75.7344  222.5025 H   0  0  0  0  0  0  0  0  0  0  0  0
  135.7660   73.7050  224.6406 H   0  0  0  0  0  0  0  0  0  0  0  0
  134.2002   73.6350  223.8030 H   0  0  0  0  0  0  0  0  0  0  0  0
  135.9530   72.2220  222.6945 H   0  0  0  0  0  0  0  0  0  0  0  0
  135.3463   73.5419  221.6198 H   0  0  0  0  0  0  0  0  0  0  0  0
  140.0260   69.0000  223.5110 H   0  0  0  0  0  0  0  0  0  0  0  0
  138.3295   70.5084  225.3803 H   0  0  0  0  0  0  0  0  0  0  0  0
  138.3912   68.0066  225.0761 H   0  0  0  0  0  0  0  0  0  0  0  0
  138.2747   68.7356  226.7376 H   0  0  0  0  0  0  0  0  0  0  0  0
  140.7092   67.5114  225.4075 H   0  0  0  0  0  0  0  0  0  0  0  0
  139.7921   66.9230  226.8575 H   0  0  0  0  0  0  0  0  0  0  0  0
  141.9748   68.6870  226.6622 H   0  0  0  0  0  0  0  0  0  0  0  0
  141.1200   67.0050  228.4900 H   0  0  0  0  0  0  0  0  0  0  0  0
  142.1990   68.2860  228.9100 H   0  0  0  0  0  0  0  0  0  0  0  0
  141.1132   70.5923  228.0877 H   0  0  0  0  0  0  0  0  0  0  0  0
  139.4644   69.9449  227.9425 H   0  0  0  0  0  0  0  0  0  0  0  0
  141.2827   70.6084  225.5789 H   0  0  0  0  0  0  0  0  0  0  0  0
  140.0305   71.7133  226.2305 H   0  0  0  0  0  0  0  0  0  0  0  0
  141.9432   70.6233  219.9579 H   0  0  0  0  0  0  0  0  0  0  0  0
  140.9628   71.5531  218.7123 H   0  0  0  0  0  0  0  0  0  0  0  0
  143.4689   70.8428  218.3231 H   0  0  0  0  0  0  0  0  0  0  0  0
  142.7207   72.3928  217.7122 H   0  0  0  0  0  0  0  0  0  0  0  0
  145.6663   71.5414  218.3386 H   0  0  0  0  0  0  0  0  0  0  0  0
  147.4011   72.9056  219.5430 H   0  0  0  0  0  0  0  0  0  0  0  0
  146.7257   74.6716  221.1113 H   0  0  0  0  0  0  0  0  0  0  0  0
  144.3305   75.1440  221.5423 H   0  0  0  0  0  0  0  0  0  0  0  0
  142.0858   74.3343  221.3945 H   0  0  0  0  0  0  0  0  0  0  0  0
  141.8375   74.5271  219.6284 H   0  0  0  0  0  0  0  0  0  0  0  0
  138.4972   75.5164  222.2564 H   0  0  0  0  0  0  0  0  0  0  0  0
  136.9672   75.6153  221.3363 H   0  0  0  0  0  0  0  0  0  0  0  0
  137.2441   75.5367  224.3910 H   0  0  0  0  0  0  0  0  0  0  0  0
  136.8301   76.9759  223.4119 H   0  0  0  0  0  0  0  0  0  0  0  0
  134.8592   74.5157  225.8739 H   0  0  0  0  0  0  0  0  0  0  0  0
  133.5659   75.5566  227.7299 H   0  0  0  0  0  0  0  0  0  0  0  0
  1  2  1  0
  2  3  2  0
  2  4  2  0
  2  5  1  0
  5  6  2  0
  6  7  1  0
  7  8  2  0
  8  9  1  0
  9 10  1  0
 10 11  1  0
 11 12  1  0
 12 13  1  0
 13 14  2  0
 14 15  1  0
 15 16  1  0
 16 17  1  0
 17 18  1  0
 18 19  1  0
 19 20  1  0
 20 21  1  0
 20 22  1  0
 22 23  1  0
 15 24  2  0
 24 25  1  0
 25 26  1  0
 26 27  1  0
 27 28  1  0
 28 29  1  0
 29 30  2  0
 30 31  1  0
 31 32  2  0
 32 33  1  0
 33 34  2  0
 34 35  1  0
 25 36  2  0
 12 37  1  0
 37 38  1  0
  8 39  1  0
 39 40  2  0
 40  5  1  0
 38  9  1  0
 36 13  1  0
 23 17  1  0
 35 26  1  0
 34 29  1  0
  1 41  1  0
  1 42  1  0
  1 43  1  0
  6 44  1  0
  7 45  1  0
  9 46  1  0
 10 47  1  0
 10 48  1  0
 11 49  1  0
 11 50  1  0
 16 51  1  0
 17 52  1  6
 18 53  1  0
 18 54  1  0
 19 55  1  0
 19 56  1  0
 20 57  1  6
 21 58  1  0
 21 59  1  0
 22 60  1  0
 22 61  1  0
 23 62  1  0
 23 63  1  0
 27 64  1  0
 27 65  1  0
 28 66  1  0
 28 67  1  0
 30 68  1  0
 31 69  1  0
 32 70  1  0
 33 71  1  0
 35 72  1  0
 35 73  1  0
 37 74  1  0
 37 75  1  0
 38 76  1  0
 38 77  1  0
 39 78  1  0
 40 79  1  0
M  END
>  <smiles>  (27) 
CS(=O)(=O)c1ccc(C2CCN(c3nc(N[C@H]4CC[C@H](N)CC4)nc(N4CCc5ccccc5C4)n3)CC2)cc1

>  <score_type>  (27) 
oracle

>  <origin>  (27) 
autodockgpu

>  <m_score__min__energy>  (27) 
-10.390000000000001

>  <m_primary>  (27) 
energy

>  <rmsd>  (27) 
7.868871021988959

>  <m_score__min__rmsd>  (27) 
7.868871021988959

>  <meeko>  (27) 
{"free_energy": -8.81, "intermolecular_energy": -10.89, "internal_energy": -1.39, "cluster_size": 1, "cluster_id": 9, "rank_in_cluster": 1}

>  <energy>  (27) 
-9.55

>  <cluster_rmsd>  (27) 
0.0

>  <cluster>  (27) 
4

$$$$

     RDKit          3D

 79 84  0  0  0  0  0  0  0  0999 V2000
  144.0120   82.7850  216.4150 C   0  0  0  0  0  0  0  0  0  0  0  0
  142.3530   82.6640  217.0420 S   0  0  0  0  0  0  0  0  0  0  0  0
  142.0610   83.9200  217.8420 O   0  0  0  0  0  0  0  0  0  0  0  0
  141.3910   82.5530  215.8730 O   0  0  0  0  0  0  0  0  0  0  0  0
  142.1490   81.3080  218.1250 C   0  0  0  0  0  0  0  0  0  0  0  0
  141.6850   81.4380  219.4160 C   0  0  0  0  0  0  0  0  0  0  0  0
  141.5360   80.3480  220.2490 C   0  0  0  0  0  0  0  0  0  0  0  0
  141.8690   79.1030  219.7450 C   0  0  0  0  0  0  0  0  0  0  0  0
  141.7530   77.8510  220.5380 C   0  0  0  0  0  0  0  0  0  0  0  0
  141.4700   76.6840  219.6120 C   0  0  0  0  0  0  0  0  0  0  0  0
  141.5360   75.4310  220.4550 C   0  0  0  0  0  0  0  0  0  0  0  0
  140.6150   75.5160  221.5900 N   0  0  0  0  0  0  0  0  0  0  0  0
  139.6430   74.5060  221.8430 C   0  0  0  0  0  0  0  0  0  0  0  0
  138.3670   74.6340  221.4380 N   0  0  0  0  0  0  0  0  0  0  0  0
  137.4320   73.6840  221.6730 C   0  0  0  0  0  0  0  0  0  0  0  0
  136.0890   73.8400  221.2270 N   0  0  0  0  0  0  0  0  0  0  0  0
  135.1200   74.6320  221.9380 C   0  0  1  0  0  0  0  0  0  0  0  0
  134.0460   73.8020  222.5840 C   0  0  0  0  0  0  0  0  0  0  0  0
  134.4740   73.2480  223.9240 C   0  0  0  0  0  0  0  0  0  0  0  0
  135.0380   74.3240  224.8220 C   0  0  2  0  0  0  0  0  0  0  0  0
  134.3900   74.4410  226.0890 N   0  0  0  0  0  0  0  0  0  0  0  0
  135.0110   75.6790  224.1430 C   0  0  0  0  0  0  0  0  0  0  0  0
  135.8270   75.5560  222.8990 C   0  0  0  0  0  0  0  0  0  0  0  0
  137.8230   72.5690  222.3470 N   0  0  0  0  0  0  0  0  0  0  0  0
  139.0900   72.4020  222.7690 C   0  0  0  0  0  0  0  0  0  0  0  0
  139.4680   71.2230  223.4710 N   0  0  0  0  0  0  0  0  0  0  0  0
  138.6220   70.0710  223.3520 C   0  0  0  0  0  0  0  0  0  0  0  0
  138.9650   68.9420  224.2680 C   0  0  0  0  0  0  0  0  0  0  0  0
  139.5910   69.3840  225.5410 C   0  0  0  0  0  0  0  0  0  0  0  0
  139.3150   68.6710  226.6700 C   0  0  0  0  0  0  0  0  0  0  0  0
  139.9130   69.1030  227.8560 C   0  0  0  0  0  0  0  0  0  0  0  0
  140.7400   70.1980  227.8670 C   0  0  0  0  0  0  0  0  0  0  0  0
  141.0070   70.9050  226.7160 C   0  0  0  0  0  0  0  0  0  0  0  0
  140.4240   70.4880  225.5460 C   0  0  0  0  0  0  0  0  0  0  0  0
  140.6820   71.2200  224.2720 C   0  0  0  0  0  0  0  0  0  0  0  0
  139.9850   73.3960  222.5010 N   0  0  0  0  0  0  0  0  0  0  0  0
  140.7530   76.6840  222.4390 C   0  0  0  0  0  0  0  0  0  0  0  0
  140.6690   77.9210  221.5660 C   0  0  0  0  0  0  0  0  0  0  0  0
  142.3420   78.9480  218.4360 C   0  0  0  0  0  0  0  0  0  0  0  0
  142.4850   80.0490  217.6180 C   0  0  0  0  0  0  0  0  0  0  0  0
  144.7190   82.8366  217.2561 H   0  0  0  0  0  0  0  0  0  0  0  0
  144.2371   81.9009  215.8004 H   0  0  0  0  0  0  0  0  0  0  0  0
  144.1064   83.6924  215.8004 H   0  0  0  0  0  0  0  0  0  0  0  0
  141.4262   82.4384  219.7930 H   0  0  0  0  0  0  0  0  0  0  0  0
  141.1653   80.4647  221.2781 H   0  0  0  0  0  0  0  0  0  0  0  0
  142.7101   77.7138  221.0625 H   0  0  0  0  0  0  0  0  0  0  0  0
  140.4697   76.7882  219.1663 H   0  0  0  0  0  0  0  0  0  0  0  0
  142.2008   76.6459  218.7907 H   0  0  0  0  0  0  0  0  0  0  0  0
  141.2638   74.5646  219.8344 H   0  0  0  0  0  0  0  0  0  0  0  0
  142.5601   75.3205  220.8409 H   0  0  0  0  0  0  0  0  0  0  0  0
  135.8150   73.3510  220.3450 H   0  0  0  0  0  0  0  0  0  0  0  0
  134.5775   75.2542  221.2110 H   0  0  0  0  0  0  0  0  0  0  0  0
  133.7991   72.9627  221.9172 H   0  0  0  0  0  0  0  0  0  0  0  0
  133.1750   74.4524  222.7525 H   0  0  0  0  0  0  0  0  0  0  0  0
  135.2443   72.4796  223.7620 H   0  0  0  0  0  0  0  0  0  0  0  0
  133.5876   72.8217  224.4165 H   0  0  0  0  0  0  0  0  0  0  0  0
  136.0723   74.0013  225.0118 H   0  0  0  0  0  0  0  0  0  0  0  0
  134.1050   73.5310  226.4920 H   0  0  0  0  0  0  0  0  0  0  0  0
  134.8670   75.0520  226.7850 H   0  0  0  0  0  0  0  0  0  0  0  0
  135.4439   76.4430  224.8055 H   0  0  0  0  0  0  0  0  0  0  0  0
  133.9798   75.9823  223.9095 H   0  0  0  0  0  0  0  0  0  0  0  0
  136.8166   75.1443  223.1461 H   0  0  0  0  0  0  0  0  0  0  0  0
  135.9535   76.5465  222.4377 H   0  0  0  0  0  0  0  0  0  0  0  0
  137.5887   70.3823  223.5652 H   0  0  0  0  0  0  0  0  0  0  0  0
  138.7598   69.6912  222.3289 H   0  0  0  0  0  0  0  0  0  0  0  0
  138.0419   68.3931  224.5056 H   0  0  0  0  0  0  0  0  0  0  0  0
  139.7006   68.3124  223.7460 H   0  0  0  0  0  0  0  0  0  0  0  0
  138.6508   67.7944  226.6477 H   0  0  0  0  0  0  0  0  0  0  0  0
  139.7187   68.5591  228.7922 H   0  0  0  0  0  0  0  0  0  0  0  0
  141.1989   70.5174  228.8144 H   0  0  0  0  0  0  0  0  0  0  0  0
  141.6709   71.7819  226.7340 H   0  0  0  0  0  0  0  0  0  0  0  0
  140.9784   72.2554  224.4956 H   0  0  0  0  0  0  0  0  0  0  0  0
  141.4914   70.7236  223.7166 H   0  0  0  0  0  0  0  0  0  0  0  0
  139.9442   76.6994  223.1844 H   0  0  0  0  0  0  0  0  0  0  0  0
  141.7183   76.6572  222.9658 H   0  0  0  0  0  0  0  0  0  0  0  0
  139.6883   77.9586  221.0691 H   0  0  0  0  0  0  0  0  0  0  0  0
  140.7905   78.8250  222.1808 H   0  0  0  0  0  0  0  0  0  0  0  0
  142.5997   77.9469  218.0599 H   0  0  0  0  0  0  0  0  0  0  0  0
  142.8557   79.9390  216.5882 H   0  0  0  0  0  0  0  0  0  0  0  0
  1  2  1  0
  2  3  2  0
  2  4  2  0
  2  5  1  0
  5  6  2  0
  6  7  1  0
  7  8  2  0
  8  9  1  0
  9 10  1  0
 10 11  1  0
 11 12  1  0
 12 13  1  0
 13 14  2  0
 14 15  1  0
 15 16  1  0
 16 17  1  0
 17 18  1  0
 18 19  1  0
 19 20  1  0
 20 21  1  0
 20 22  1  0
 22 23  1  0
 15 24  2  0
 24 25  1  0
 25 26  1  0
 26 27  1  0
 27 28  1  0
 28 29  1  0
 29 30  2  0
 30 31  1  0
 31 32  2  0
 32 33  1  0
 33 34  2  0
 34 35  1  0
 25 36  2  0
 12 37  1  0
 37 38  1  0
  8 39  1  0
 39 40  2  0
 40  5  1  0
 38  9  1  0
 36 13  1  0
 23 17  1  0
 35 26  1  0
 34 29  1  0
  1 41  1  0
  1 42  1  0
  1 43  1  0
  6 44  1  0
  7 45  1  0
  9 46  1  0
 10 47  1  0
 10 48  1  0
 11 49  1  0
 11 50  1  0
 16 51  1  0
 17 52  1  6
 18 53  1  0
 18 54  1  0
 19 55  1  0
 19 56  1  0
 20 57  1  1
 21 58  1  0
 21 59  1  0
 22 60  1  0
 22 61  1  0
 23 62  1  0
 23 63  1  0
 27 64  1  0
 27 65  1  0
 28 66  1  0
 28 67  1  0
 30 68  1  0
 31 69  1  0
 32 70  1  0
 33 71  1  0
 35 72  1  0
 35 73  1  0
 37 74  1  0
 37 75  1  0
 38 76  1  0
 38 77  1  0
 39 78  1  0
 40 79  1  0
M  END
>  <smiles>  (28) 
CS(=O)(=O)c1ccc(C2CCN(c3nc(N[C@H]4CC[C@H](N)CC4)nc(N4CCc5ccccc5C4)n3)CC2)cc1

>  <score_type>  (28) 
oracle

>  <origin>  (28) 
autodockgpu

>  <m_score__min__energy>  (28) 
-10.390000000000001

>  <m_primary>  (28) 
energy

>  <rmsd>  (28) 
10.665787897226231

>  <m_score__min__rmsd>  (28) 
10.665787897226231

>  <meeko>  (28) 
{"free_energy": -9.35, "intermolecular_energy": -11.44, "internal_energy": -1.67, "cluster_size": 12, "cluster_id": 4, "rank_in_cluster": 8}

>  <energy>  (28) 
-9.53

>  <cluster_rmsd>  (28) 
0.4

>  <cluster>  (28) 
4

$$$$

     RDKit          3D

 79 84  0  0  0  0  0  0  0  0999 V2000
  141.0450   68.4310  228.3130 C   0  0  0  0  0  0  0  0  0  0  0  0
  140.4480   70.0860  228.0660 S   0  0  0  0  0  0  0  0  0  0  0  0
  139.1120   70.2140  228.7750 O   0  0  0  0  0  0  0  0  0  0  0  0
  141.4480   71.0650  228.6560 O   0  0  0  0  0  0  0  0  0  0  0  0
  140.1700   70.4470  226.3790 C   0  0  0  0  0  0  0  0  0  0  0  0
  139.2920   69.7350  225.5900 C   0  0  0  0  0  0  0  0  0  0  0  0
  139.0950   70.0430  224.2600 C   0  0  0  0  0  0  0  0  0  0  0  0
  139.8110   71.1030  223.7320 C   0  0  0  0  0  0  0  0  0  0  0  0
  139.6890   71.5360  222.3160 C   0  0  0  0  0  0  0  0  0  0  0  0
  141.0330   72.0240  221.8130 C   0  0  0  0  0  0  0  0  0  0  0  0
  140.8790   72.2840  220.3330 C   0  0  0  0  0  0  0  0  0  0  0  0
  139.7820   73.2200  220.0780 N   0  0  0  0  0  0  0  0  0  0  0  0
  139.9720   74.4050  219.3100 C   0  0  0  0  0  0  0  0  0  0  0  0
  139.9450   74.3900  217.9660 N   0  0  0  0  0  0  0  0  0  0  0  0
  140.1260   75.5080  217.2240 C   0  0  0  0  0  0  0  0  0  0  0  0
  140.0870   75.4670  215.8020 N   0  0  0  0  0  0  0  0  0  0  0  0
  141.2580   75.2370  214.9970 C   0  0  1  0  0  0  0  0  0  0  0  0
  142.1270   76.4570  214.8670 C   0  0  0  0  0  0  0  0  0  0  0  0
  143.0560   76.6290  216.0480 C   0  0  0  0  0  0  0  0  0  0  0  0
  143.8210   75.3620  216.3490 C   0  0  2  0  0  0  0  0  0  0  0  0
  145.2410   75.5140  216.3580 N   0  0  0  0  0  0  0  0  0  0  0  0
  143.4630   74.2560  215.3760 C   0  0  0  0  0  0  0  0  0  0  0  0
  141.9940   74.0230  215.5080 C   0  0  0  0  0  0  0  0  0  0  0  0
  140.3400   76.6760  217.8870 N   0  0  0  0  0  0  0  0  0  0  0  0
  140.3740   76.7340  219.2310 C   0  0  0  0  0  0  0  0  0  0  0  0
  140.5990   77.9720  219.8950 N   0  0  0  0  0  0  0  0  0  0  0  0
  141.4570   78.9290  219.2580 C   0  0  0  0  0  0  0  0  0  0  0  0
  141.8100   80.1140  220.0970 C   0  0  0  0  0  0  0  0  0  0  0  0
  141.8320   79.8200  221.5530 C   0  0  0  0  0  0  0  0  0  0  0  0
  142.7480   80.4750  222.3230 C   0  0  0  0  0  0  0  0  0  0  0  0
  142.7530   80.1840  223.6890 C   0  0  0  0  0  0  0  0  0  0  0  0
  141.8680   79.2780  224.2180 C   0  0  0  0  0  0  0  0  0  0  0  0
  140.9500   78.6280  223.4230 C   0  0  0  0  0  0  0  0  0  0  0  0
  140.9380   78.9060  222.0800 C   0  0  0  0  0  0  0  0  0  0  0  0
  139.9630   78.2280  221.1780 C   0  0  0  0  0  0  0  0  0  0  0  0
  140.1850   75.5730  219.9220 N   0  0  0  0  0  0  0  0  0  0  0  0
  138.4970   72.8680  220.6490 C   0  0  0  0  0  0  0  0  0  0  0  0
  138.6830   72.6290  222.1350 C   0  0  0  0  0  0  0  0  0  0  0  0
  140.7070   71.8400  224.5150 C   0  0  0  0  0  0  0  0  0  0  0  0
  140.8920   71.5180  225.8430 C   0  0  0  0  0  0  0  0  0  0  0  0
  141.1193   68.2251  229.3910 H   0  0  0  0  0  0  0  0  0  0  0  0
  140.3478   67.7169  227.8505 H   0  0  0  0  0  0  0  0  0  0  0  0
  142.0375   68.3264  227.8505 H   0  0  0  0  0  0  0  0  0  0  0  0
  138.7329   68.8979  226.0334 H   0  0  0  0  0  0  0  0  0  0  0  0
  138.3929   69.4659  223.6403 H   0  0  0  0  0  0  0  0  0  0  0  0
  139.3484   70.6620  221.7414 H   0  0  0  0  0  0  0  0  0  0  0  0
  141.3175   72.9510  222.3324 H   0  0  0  0  0  0  0  0  0  0  0  0
  141.8190   71.2780  222.0022 H   0  0  0  0  0  0  0  0  0  0  0  0
  141.8147   72.7111  219.9431 H   0  0  0  0  0  0  0  0  0  0  0  0
  140.6525   71.3319  219.8307 H   0  0  0  0  0  0  0  0  0  0  0  0
  139.1590   75.6110  215.3410 H   0  0  0  0  0  0  0  0  0  0  0  0
  140.9375   75.0253  213.9662 H   0  0  0  0  0  0  0  0  0  0  0  0
  141.4816   77.3446  214.7925 H   0  0  0  0  0  0  0  0  0  0  0  0
  142.7468   76.3340  213.9666 H   0  0  0  0  0  0  0  0  0  0  0  0
  142.4614   76.9044  216.9316 H   0  0  0  0  0  0  0  0  0  0  0  0
  143.7828   77.4164  215.7995 H   0  0  0  0  0  0  0  0  0  0  0  0
  143.5128   75.0978  217.3714 H   0  0  0  0  0  0  0  0  0  0  0  0
  145.5560   76.4310  216.7170 H   0  0  0  0  0  0  0  0  0  0  0  0
  145.7760   74.7200  216.7700 H   0  0  0  0  0  0  0  0  0  0  0  0
  144.0158   73.3384  215.6259 H   0  0  0  0  0  0  0  0  0  0  0  0
  143.7268   74.5365  214.3456 H   0  0  0  0  0  0  0  0  0  0  0  0
  141.7404   73.8555  216.5652 H   0  0  0  0  0  0  0  0  0  0  0  0
  141.7033   73.1378  214.9232 H   0  0  0  0  0  0  0  0  0  0  0  0
  142.3902   78.4183  218.9782 H   0  0  0  0  0  0  0  0  0  0  0  0
  140.8977   79.3180  218.3944 H   0  0  0  0  0  0  0  0  0  0  0  0
  142.8073   80.4686  219.7977 H   0  0  0  0  0  0  0  0  0  0  0  0
  141.0317   80.8734  219.9306 H   0  0  0  0  0  0  0  0  0  0  0  0
  143.4513   81.2000  221.8875 H   0  0  0  0  0  0  0  0  0  0  0  0
  143.4751   80.6871  224.3490 H   0  0  0  0  0  0  0  0  0  0  0  0
  141.8923   79.0670  225.2973 H   0  0  0  0  0  0  0  0  0  0  0  0
  140.2437   77.9036  223.8547 H   0  0  0  0  0  0  0  0  0  0  0  0
  139.6455   77.2758  221.6281 H   0  0  0  0  0  0  0  0  0  0  0  0
  139.0829   78.8718  221.0331 H   0  0  0  0  0  0  0  0  0  0  0  0
  137.7828   73.6896  220.4914 H   0  0  0  0  0  0  0  0  0  0  0  0
  138.1047   71.9607  220.1664 H   0  0  0  0  0  0  0  0  0  0  0  0
  139.0440   73.5496  222.6169 H   0  0  0  0  0  0  0  0  0  0  0  0
  137.7257   72.3410  222.5939 H   0  0  0  0  0  0  0  0  0  0  0  0
  141.2645   72.6775  224.0703 H   0  0  0  0  0  0  0  0  0  0  0  0
  141.5927   72.0915  226.4676 H   0  0  0  0  0  0  0  0  0  0  0  0
  1  2  1  0
  2  3  2  0
  2  4  2  0
  2  5  1  0
  5  6  2  0
  6  7  1  0
  7  8  2  0
  8  9  1  0
  9 10  1  0
 10 11  1  0
 11 12  1  0
 12 13  1  0
 13 14  2  0
 14 15  1  0
 15 16  1  0
 16 17  1  0
 17 18  1  0
 18 19  1  0
 19 20  1  0
 20 21  1  0
 20 22  1  0
 22 23  1  0
 15 24  2  0
 24 25  1  0
 25 26  1  0
 26 27  1  0
 27 28  1  0
 28 29  1  0
 29 30  2  0
 30 31  1  0
 31 32  2  0
 32 33  1  0
 33 34  2  0
 34 35  1  0
 25 36  2  0
 12 37  1  0
 37 38  1  0
  8 39  1  0
 39 40  2  0
 40  5  1  0
 38  9  1  0
 36 13  1  0
 23 17  1  0
 35 26  1  0
 34 29  1  0
  1 41  1  0
  1 42  1  0
  1 43  1  0
  6 44  1  0
  7 45  1  0
  9 46  1  0
 10 47  1  0
 10 48  1  0
 11 49  1  0
 11 50  1  0
 16 51  1  0
 17 52  1  6
 18 53  1  0
 18 54  1  0
 19 55  1  0
 19 56  1  0
 20 57  1  1
 21 58  1  0
 21 59  1  0
 22 60  1  0
 22 61  1  0
 23 62  1  0
 23 63  1  0
 27 64  1  0
 27 65  1  0
 28 66  1  0
 28 67  1  0
 30 68  1  0
 31 69  1  0
 32 70  1  0
 33 71  1  0
 35 72  1  0
 35 73  1  0
 37 74  1  0
 37 75  1  0
 38 76  1  0
 38 77  1  0
 39 78  1  0
 40 79  1  0
M  END
>  <smiles>  (29) 
CS(=O)(=O)c1ccc(C2CCN(c3nc(N[C@H]4CC[C@H](N)CC4)nc(N4CCc5ccccc5C4)n3)CC2)cc1

>  <score_type>  (29) 
oracle

>  <origin>  (29) 
autodockgpu

>  <m_score__min__energy>  (29) 
-10.390000000000001

>  <m_primary>  (29) 
energy

>  <rmsd>  (29) 
2.5665573566811224

>  <m_score__min__rmsd>  (29) 
2.5665573566811224

>  <meeko>  (29) 
{"free_energy": -8.54, "intermolecular_energy": -10.63, "internal_energy": -1.82, "cluster_size": 2, "cluster_id": 10, "rank_in_cluster": 1}

>  <energy>  (29) 
-9.51

>  <cluster_rmsd>  (29) 
0.44

>  <cluster>  (29) 
4

$$$$

     RDKit          3D

 79 84  0  0  0  0  0  0  0  0999 V2000
  144.0650   82.8020  216.5500 C   0  0  0  0  0  0  0  0  0  0  0  0
  142.3910   82.4410  217.0250 S   0  0  0  0  0  0  0  0  0  0  0  0
  141.8980   83.5750  217.9060 O   0  0  0  0  0  0  0  0  0  0  0  0
  141.5340   82.3400  215.7760 O   0  0  0  0  0  0  0  0  0  0  0  0
  142.2680   80.9730  217.9640 C   0  0  0  0  0  0  0  0  0  0  0  0
  142.5660   79.7260  217.4570 C   0  0  0  0  0  0  0  0  0  0  0  0
  142.4580   78.5840  218.2240 C   0  0  0  0  0  0  0  0  0  0  0  0
  142.0370   78.7270  219.5340 C   0  0  0  0  0  0  0  0  0  0  0  0
  141.8800   77.5770  220.4630 C   0  0  0  0  0  0  0  0  0  0  0  0
  141.7370   76.2940  219.6680 C   0  0  0  0  0  0  0  0  0  0  0  0
  141.7550   75.1580  220.6640 C   0  0  0  0  0  0  0  0  0  0  0  0
  140.7160   75.3370  221.6800 N   0  0  0  0  0  0  0  0  0  0  0  0
  139.7560   74.3210  221.9580 C   0  0  0  0  0  0  0  0  0  0  0  0
  138.4820   74.4160  221.5390 N   0  0  0  0  0  0  0  0  0  0  0  0
  137.5590   73.4600  221.7980 C   0  0  0  0  0  0  0  0  0  0  0  0
  136.2190   73.5810  221.3360 N   0  0  0  0  0  0  0  0  0  0  0  0
  135.2310   74.3800  222.0140 C   0  0  1  0  0  0  0  0  0  0  0  0
  134.1110   73.5600  222.5910 C   0  0  0  0  0  0  0  0  0  0  0  0
  134.4630   72.9740  223.9400 C   0  0  0  0  0  0  0  0  0  0  0  0
  135.0030   74.0230  224.8840 C   0  0  2  0  0  0  0  0  0  0  0  0
  134.2960   74.1300  226.1200 N   0  0  0  0  0  0  0  0  0  0  0  0
  135.0350   75.3900  224.2290 C   0  0  0  0  0  0  0  0  0  0  0  0
  135.9080   75.2730  223.0240 C   0  0  0  0  0  0  0  0  0  0  0  0
  137.9620   72.3740  222.5100 N   0  0  0  0  0  0  0  0  0  0  0  0
  139.2270   72.2400  222.9480 C   0  0  0  0  0  0  0  0  0  0  0  0
  139.6170   71.0900  223.6910 N   0  0  0  0  0  0  0  0  0  0  0  0
  138.8030   69.9140  223.5830 C   0  0  0  0  0  0  0  0  0  0  0  0
  139.1510   68.8200  224.5380 C   0  0  0  0  0  0  0  0  0  0  0  0
  139.7330   69.3110  225.8130 C   0  0  0  0  0  0  0  0  0  0  0  0
  139.4470   68.6220  226.9550 C   0  0  0  0  0  0  0  0  0  0  0  0
  140.0040   69.1010  228.1430 C   0  0  0  0  0  0  0  0  0  0  0  0
  140.8030   70.2180  228.1440 C   0  0  0  0  0  0  0  0  0  0  0  0
  141.0810   70.8990  226.9800 C   0  0  0  0  0  0  0  0  0  0  0  0
  140.5380   70.4370  225.8080 C   0  0  0  0  0  0  0  0  0  0  0  0
  140.8100   71.1400  224.5210 C   0  0  0  0  0  0  0  0  0  0  0  0
  140.1100   73.2380  222.6550 N   0  0  0  0  0  0  0  0  0  0  0  0
  140.7230   76.6040  222.3840 C   0  0  0  0  0  0  0  0  0  0  0  0
  140.6900   77.7210  221.3590 C   0  0  0  0  0  0  0  0  0  0  0  0
  141.7290   79.9830  220.0700 C   0  0  0  0  0  0  0  0  0  0  0  0
  141.8420   81.1140  219.2890 C   0  0  0  0  0  0  0  0  0  0  0  0
  144.6813   82.9349  217.4514 H   0  0  0  0  0  0  0  0  0  0  0  0
  144.4642   81.9693  215.9523 H   0  0  0  0  0  0  0  0  0  0  0  0
  144.0856   83.7252  215.9523 H   0  0  0  0  0  0  0  0  0  0  0  0
  142.8990   79.6390  216.4122 H   0  0  0  0  0  0  0  0  0  0  0  0
  142.6983   77.5944  217.8082 H   0  0  0  0  0  0  0  0  0  0  0  0
  142.7799   77.5500  221.0950 H   0  0  0  0  0  0  0  0  0  0  0  0
  140.7870   76.2962  219.1134 H   0  0  0  0  0  0  0  0  0  0  0  0
  142.5522   76.1903  218.9367 H   0  0  0  0  0  0  0  0  0  0  0  0
  141.5800   74.2107  220.1330 H   0  0  0  0  0  0  0  0  0  0  0  0
  142.7353   75.1436  221.1628 H   0  0  0  0  0  0  0  0  0  0  0  0
  135.9590   73.0610  220.4670 H   0  0  0  0  0  0  0  0  0  0  0  0
  134.7359   75.0258  221.2739 H   0  0  0  0  0  0  0  0  0  0  0  0
  133.8813   72.7377  221.8974 H   0  0  0  0  0  0  0  0  0  0  0  0
  133.2449   74.2240  222.7288 H   0  0  0  0  0  0  0  0  0  0  0  0
  135.2256   72.1936  223.8011 H   0  0  0  0  0  0  0  0  0  0  0  0
  133.5459   72.5566  224.3812 H   0  0  0  0  0  0  0  0  0  0  0  0
  136.0208   73.6774  225.1180 H   0  0  0  0  0  0  0  0  0  0  0  0
  134.4460   73.3250  226.7520 H   0  0  0  0  0  0  0  0  0  0  0  0
  134.3850   75.0440  226.6120 H   0  0  0  0  0  0  0  0  0  0  0  0
  135.4494   76.1336  224.9256 H   0  0  0  0  0  0  0  0  0  0  0  0
  134.0222   75.7173  223.9512 H   0  0  0  0  0  0  0  0  0  0  0  0
  136.8767   74.8378  223.3108 H   0  0  0  0  0  0  0  0  0  0  0  0
  136.0756   76.2687  222.5875 H   0  0  0  0  0  0  0  0  0  0  0  0
  137.7572   70.2044  223.7620 H   0  0  0  0  0  0  0  0  0  0  0  0
  138.9755   69.5103  222.5744 H   0  0  0  0  0  0  0  0  0  0  0  0
  138.2362   68.2540  224.7678 H   0  0  0  0  0  0  0  0  0  0  0  0
  139.9156   68.1964  224.0517 H   0  0  0  0  0  0  0  0  0  0  0  0
  138.8058   67.7283  226.9410 H   0  0  0  0  0  0  0  0  0  0  0  0
  139.8003   68.5775  229.0887 H   0  0  0  0  0  0  0  0  0  0  0  0
  141.2291   70.5755  229.0930 H   0  0  0  0  0  0  0  0  0  0  0  0
  141.7231   71.7921  226.9896 H   0  0  0  0  0  0  0  0  0  0  0  0
  141.0749   72.1884  224.7226 H   0  0  0  0  0  0  0  0  0  0  0  0
  141.6453   70.6495  223.9998 H   0  0  0  0  0  0  0  0  0  0  0  0
  139.8396   76.6717  223.0359 H   0  0  0  0  0  0  0  0  0  0  0  0
  141.6276   76.6868  223.0044 H   0  0  0  0  0  0  0  0  0  0  0  0
  139.7671   77.6521  220.7644 H   0  0  0  0  0  0  0  0  0  0  0  0
  140.7141   78.6978  221.8643 H   0  0  0  0  0  0  0  0  0  0  0  0
  141.3966   80.0679  221.1151 H   0  0  0  0  0  0  0  0  0  0  0  0
  141.6022   82.1061  219.6993 H   0  0  0  0  0  0  0  0  0  0  0  0
  1  2  1  0
  2  3  2  0
  2  4  2  0
  2  5  1  0
  5  6  2  0
  6  7  1  0
  7  8  2  0
  8  9  1  0
  9 10  1  0
 10 11  1  0
 11 12  1  0
 12 13  1  0
 13 14  2  0
 14 15  1  0
 15 16  1  0
 16 17  1  0
 17 18  1  0
 18 19  1  0
 19 20  1  0
 20 21  1  0
 20 22  1  0
 22 23  1  0
 15 24  2  0
 24 25  1  0
 25 26  1  0
 26 27  1  0
 27 28  1  0
 28 29  1  0
 29 30  2  0
 30 31  1  0
 31 32  2  0
 32 33  1  0
 33 34  2  0
 34 35  1  0
 25 36  2  0
 12 37  1  0
 37 38  1  0
  8 39  1  0
 39 40  2  0
 40  5  1  0
 38  9  1  0
 36 13  1  0
 23 17  1  0
 35 26  1  0
 34 29  1  0
  1 41  1  0
  1 42  1  0
  1 43  1  0
  6 44  1  0
  7 45  1  0
  9 46  1  0
 10 47  1  0
 10 48  1  0
 11 49  1  0
 11 50  1  0
 16 51  1  0
 17 52  1  6
 18 53  1  0
 18 54  1  0
 19 55  1  0
 19 56  1  0
 20 57  1  1
 21 58  1  0
 21 59  1  0
 22 60  1  0
 22 61  1  0
 23 62  1  0
 23 63  1  0
 27 64  1  0
 27 65  1  0
 28 66  1  0
 28 67  1  0
 30 68  1  0
 31 69  1  0
 32 70  1  0
 33 71  1  0
 35 72  1  0
 35 73  1  0
 37 74  1  0
 37 75  1  0
 38 76  1  0
 38 77  1  0
 39 78  1  0
 40 79  1  0
M  END
>  <smiles>  (30) 
CS(=O)(=O)c1ccc(C2CCN(c3nc(N[C@H]4CC[C@H](N)CC4)nc(N4CCc5ccccc5C4)n3)CC2)cc1

>  <score_type>  (30) 
oracle

>  <origin>  (30) 
autodockgpu

>  <m_score__min__energy>  (30) 
-10.390000000000001

>  <m_primary>  (30) 
energy

>  <rmsd>  (30) 
10.403523515741956

>  <m_score__min__rmsd>  (30) 
10.403523515741956

>  <meeko>  (30) 
{"free_energy": -9.51, "intermolecular_energy": -11.6, "internal_energy": -1.65, "cluster_size": 12, "cluster_id": 4, "rank_in_cluster": 3}

>  <energy>  (30) 
-9.48

>  <cluster_rmsd>  (30) 
0.26

>  <cluster>  (30) 
4

$$$$

     RDKit          3D

 79 84  0  0  0  0  0  0  0  0999 V2000
  141.4850   82.1590  221.6070 C   0  0  0  0  0  0  0  0  0  0  0  0
  141.6360   80.8900  222.8410 S   0  0  0  0  0  0  0  0  0  0  0  0
  142.9940   80.2330  222.6750 O   0  0  0  0  0  0  0  0  0  0  0  0
  141.5270   81.5230  224.2170 O   0  0  0  0  0  0  0  0  0  0  0  0
  140.4340   79.6360  222.6550 C   0  0  0  0  0  0  0  0  0  0  0  0
  139.0810   79.8610  222.7930 C   0  0  0  0  0  0  0  0  0  0  0  0
  138.1560   78.8490  222.6420 C   0  0  0  0  0  0  0  0  0  0  0  0
  138.6290   77.5840  222.3410 C   0  0  0  0  0  0  0  0  0  0  0  0
  137.7380   76.4100  222.1530 C   0  0  0  0  0  0  0  0  0  0  0  0
  136.9960   76.1190  223.4430 C   0  0  0  0  0  0  0  0  0  0  0  0
  135.9910   75.0340  223.1340 C   0  0  0  0  0  0  0  0  0  0  0  0
  136.6490   73.8600  222.5590 N   0  0  0  0  0  0  0  0  0  0  0  0
  136.4770   72.5580  223.1120 C   0  0  0  0  0  0  0  0  0  0  0  0
  135.2710   71.9660  223.1690 N   0  0  0  0  0  0  0  0  0  0  0  0
  135.0920   70.7310  223.6940 C   0  0  0  0  0  0  0  0  0  0  0  0
  133.8060   70.1240  223.7360 N   0  0  0  0  0  0  0  0  0  0  0  0
  132.8150   70.4670  224.7230 C   0  0  1  0  0  0  0  0  0  0  0  0
  133.3610   70.4640  226.1250 C   0  0  0  0  0  0  0  0  0  0  0  0
  134.0570   71.7600  226.4730 C   0  0  0  0  0  0  0  0  0  0  0  0
  133.2000   72.9620  226.1530 C   0  0  2  0  0  0  0  0  0  0  0  0
  132.9660   73.8360  227.2570 N   0  0  0  0  0  0  0  0  0  0  0  0
  131.8600   72.5460  225.5780 C   0  0  0  0  0  0  0  0  0  0  0  0
  132.1440   71.7620  224.3390 C   0  0  0  0  0  0  0  0  0  0  0  0
  136.1890   70.0860  224.1730 N   0  0  0  0  0  0  0  0  0  0  0  0
  137.4140   70.6430  224.1350 C   0  0  0  0  0  0  0  0  0  0  0  0
  138.5420   69.9410  224.6450 N   0  0  0  0  0  0  0  0  0  0  0  0
  138.4430   68.5170  224.7770 C   0  0  0  0  0  0  0  0  0  0  0  0
  139.5790   67.8730  225.5020 C   0  0  0  0  0  0  0  0  0  0  0  0
  140.2120   68.7580  226.5140 C   0  0  0  0  0  0  0  0  0  0  0  0
  140.6950   68.1840  227.6530 C   0  0  0  0  0  0  0  0  0  0  0  0
  141.2860   69.0330  228.5910 C   0  0  0  0  0  0  0  0  0  0  0  0
  141.3690   70.3840  228.3610 C   0  0  0  0  0  0  0  0  0  0  0  0
  140.8750   70.9440  227.2040 C   0  0  0  0  0  0  0  0  0  0  0  0
  140.2930   70.1180  226.2770 C   0  0  0  0  0  0  0  0  0  0  0  0
  139.7430   70.6770  225.0080 C   0  0  0  0  0  0  0  0  0  0  0  0
  137.5280   71.8900  223.5940 N   0  0  0  0  0  0  0  0  0  0  0  0
  137.4810   74.1000  221.3960 C   0  0  0  0  0  0  0  0  0  0  0  0
  138.4860   75.1810  221.7430 C   0  0  0  0  0  0  0  0  0  0  0  0
  139.9990   77.3320  222.1970 C   0  0  0  0  0  0  0  0  0  0  0  0
  140.9100   78.3560  222.3520 C   0  0  0  0  0  0  0  0  0  0  0  0
  141.3687   83.1363  222.0983 H   0  0  0  0  0  0  0  0  0  0  0  0
  142.3882   82.1694  220.9793 H   0  0  0  0  0  0  0  0  0  0  0  0
  140.6045   81.9571  220.9793 H   0  0  0  0  0  0  0  0  0  0  0  0
  138.7292   80.8759  223.0302 H   0  0  0  0  0  0  0  0  0  0  0  0
  137.0790   79.0411  222.7569 H   0  0  0  0  0  0  0  0  0  0  0  0
  137.0368   76.6665  221.3452 H   0  0  0  0  0  0  0  0  0  0  0  0
  137.6997   75.7745  224.2151 H   0  0  0  0  0  0  0  0  0  0  0  0
  136.4968   77.0224  223.8233 H   0  0  0  0  0  0  0  0  0  0  0  0
  135.4801   74.7413  224.0631 H   0  0  0  0  0  0  0  0  0  0  0  0
  135.2670   75.4238  222.4033 H   0  0  0  0  0  0  0  0  0  0  0  0
  133.5890   69.4020  223.0110 H   0  0  0  0  0  0  0  0  0  0  0  0
  132.0451   69.6814  224.7334 H   0  0  0  0  0  0  0  0  0  0  0  0
  134.0815   69.6385  226.2221 H   0  0  0  0  0  0  0  0  0  0  0  0
  132.5136   70.3414  226.8156 H   0  0  0  0  0  0  0  0  0  0  0  0
  134.9926   71.8269  225.8983 H   0  0  0  0  0  0  0  0  0  0  0  0
  134.2559   71.7609  227.5549 H   0  0  0  0  0  0  0  0  0  0  0  0
  133.7879   73.5224  225.4111 H   0  0  0  0  0  0  0  0  0  0  0  0
  132.8960   73.3450  228.1650 H   0  0  0  0  0  0  0  0  0  0  0  0
  133.5810   74.6760  227.3050 H   0  0  0  0  0  0  0  0  0  0  0  0
  131.2607   73.4355  225.3337 H   0  0  0  0  0  0  0  0  0  0  0  0
  131.2903   71.9451  226.3022 H   0  0  0  0  0  0  0  0  0  0  0  0
  132.8080   72.3406  223.6800 H   0  0  0  0  0  0  0  0  0  0  0  0
  131.2041   71.5514  223.8078 H   0  0  0  0  0  0  0  0  0  0  0  0
  137.5156   68.2879  225.3223 H   0  0  0  0  0  0  0  0  0  0  0  0
  138.4585   68.1102  223.7551 H   0  0  0  0  0  0  0  0  0  0  0  0
  139.2022   66.9742  226.0120 H   0  0  0  0  0  0  0  0  0  0  0  0
  140.3484   67.6348  224.7529 H   0  0  0  0  0  0  0  0  0  0  0  0
  140.6222   67.1000  227.8252 H   0  0  0  0  0  0  0  0  0  0  0  0
  141.6896   68.6146  229.5248 H   0  0  0  0  0  0  0  0  0  0  0  0
  141.8393   71.0317  229.1156 H   0  0  0  0  0  0  0  0  0  0  0  0
  140.9455   72.0275  227.0277 H   0  0  0  0  0  0  0  0  0  0  0  0
  139.4952   71.7392  225.1503 H   0  0  0  0  0  0  0  0  0  0  0  0
  140.4911   70.5838  224.2070 H   0  0  0  0  0  0  0  0  0  0  0  0
  138.0097   73.1757  221.1200 H   0  0  0  0  0  0  0  0  0  0  0  0
  136.8602   74.4192  220.5459 H   0  0  0  0  0  0  0  0  0  0  0  0
  139.1248   74.8416  222.5717 H   0  0  0  0  0  0  0  0  0  0  0  0
  139.1210   75.3992  220.8717 H   0  0  0  0  0  0  0  0  0  0  0  0
  140.3489   76.3164  221.9601 H   0  0  0  0  0  0  0  0  0  0  0  0
  141.9883   78.1700  222.2397 H   0  0  0  0  0  0  0  0  0  0  0  0
  1  2  1  0
  2  3  2  0
  2  4  2  0
  2  5  1  0
  5  6  2  0
  6  7  1  0
  7  8  2  0
  8  9  1  0
  9 10  1  0
 10 11  1  0
 11 12  1  0
 12 13  1  0
 13 14  2  0
 14 15  1  0
 15 16  1  0
 16 17  1  0
 17 18  1  0
 18 19  1  0
 19 20  1  0
 20 21  1  0
 20 22  1  0
 22 23  1  0
 15 24  2  0
 24 25  1  0
 25 26  1  0
 26 27  1  0
 27 28  1  0
 28 29  1  0
 29 30  2  0
 30 31  1  0
 31 32  2  0
 32 33  1  0
 33 34  2  0
 34 35  1  0
 25 36  2  0
 12 37  1  0
 37 38  1  0
  8 39  1  0
 39 40  2  0
 40  5  1  0
 38  9  1  0
 36 13  1  0
 23 17  1  0
 35 26  1  0
 34 29  1  0
  1 41  1  0
  1 42  1  0
  1 43  1  0
  6 44  1  0
  7 45  1  0
  9 46  1  0
 10 47  1  0
 10 48  1  0
 11 49  1  0
 11 50  1  0
 16 51  1  0
 17 52  1  1
 18 53  1  0
 18 54  1  0
 19 55  1  0
 19 56  1  0
 20 57  1  6
 21 58  1  0
 21 59  1  0
 22 60  1  0
 22 61  1  0
 23 62  1  0
 23 63  1  0
 27 64  1  0
 27 65  1  0
 28 66  1  0
 28 67  1  0
 30 68  1  0
 31 69  1  0
 32 70  1  0
 33 71  1  0
 35 72  1  0
 35 73  1  0
 37 74  1  0
 37 75  1  0
 38 76  1  0
 38 77  1  0
 39 78  1  0
 40 79  1  0
M  END
>  <smiles>  (31) 
CS(=O)(=O)c1ccc(C2CCN(c3nc(N[C@H]4CC[C@H](N)CC4)nc(N4CCc5ccccc5C4)n3)CC2)cc1

>  <score_type>  (31) 
oracle

>  <origin>  (31) 
autodockgpu

>  <m_score__min__energy>  (31) 
-10.390000000000001

>  <m_primary>  (31) 
energy

>  <rmsd>  (31) 
8.04436270806045

>  <m_score__min__rmsd>  (31) 
8.04436270806045

>  <meeko>  (31) 
{"free_energy": -10.09, "intermolecular_energy": -12.18, "internal_energy": -1.76, "cluster_size": 18, "cluster_id": 2, "rank_in_cluster": 8}

>  <energy>  (31) 
-9.47

>  <cluster_rmsd>  (31) 
0.67

>  <cluster>  (31) 
4

$$$$

     RDKit          3D

 79 84  0  0  0  0  0  0  0  0999 V2000
  134.9700   81.9390  225.3940 C   0  0  0  0  0  0  0  0  0  0  0  0
  136.7140   82.2390  225.2270 S   0  0  0  0  0  0  0  0  0  0  0  0
  136.8960   83.5230  224.4390 O   0  0  0  0  0  0  0  0  0  0  0  0
  137.3240   82.3820  226.6090 O   0  0  0  0  0  0  0  0  0  0  0  0
  137.5230   80.9720  224.3350 C   0  0  0  0  0  0  0  0  0  0  0  0
  138.8940   80.8880  224.2210 C   0  0  0  0  0  0  0  0  0  0  0  0
  139.5040   79.8770  223.5090 C   0  0  0  0  0  0  0  0  0  0  0  0
  138.6910   78.9340  222.9040 C   0  0  0  0  0  0  0  0  0  0  0  0
  139.2230   77.7970  222.1100 C   0  0  0  0  0  0  0  0  0  0  0  0
  138.1760   76.7030  222.0180 C   0  0  0  0  0  0  0  0  0  0  0  0
  138.7130   75.6630  221.0630 C   0  0  0  0  0  0  0  0  0  0  0  0
  140.0260   75.1820  221.4980 N   0  0  0  0  0  0  0  0  0  0  0  0
  140.2940   73.7950  221.6790 C   0  0  0  0  0  0  0  0  0  0  0  0
  139.9010   73.1360  222.7840 N   0  0  0  0  0  0  0  0  0  0  0  0
  140.1510   71.8190  222.9710 C   0  0  0  0  0  0  0  0  0  0  0  0
  139.7180   71.1430  224.1460 N   0  0  0  0  0  0  0  0  0  0  0  0
  140.3340   69.9310  224.6190 C   0  0  1  0  0  0  0  0  0  0  0  0
  141.3400   70.1730  225.7100 C   0  0  0  0  0  0  0  0  0  0  0  0
  140.6940   70.2950  227.0710 C   0  0  0  0  0  0  0  0  0  0  0  0
  139.7540   69.1470  227.3510 C   0  0  2  0  0  0  0  0  0  0  0  0
  140.0400   68.4220  228.5470 N   0  0  0  0  0  0  0  0  0  0  0  0
  139.7180   68.1680  226.1940 C   0  0  0  0  0  0  0  0  0  0  0  0
  139.2660   68.9330  224.9940 C   0  0  0  0  0  0  0  0  0  0  0  0
  140.8250   71.1610  221.9900 N   0  0  0  0  0  0  0  0  0  0  0  0
  141.2350   71.7830  220.8700 C   0  0  0  0  0  0  0  0  0  0  0  0
  141.9380   71.0650  219.8610 N   0  0  0  0  0  0  0  0  0  0  0  0
  141.4000   69.8050  219.4360 C   0  0  0  0  0  0  0  0  0  0  0  0
  142.2880   69.0170  218.5300 C   0  0  0  0  0  0  0  0  0  0  0  0
  143.7350   69.2660  218.7570 C   0  0  0  0  0  0  0  0  0  0  0  0
  144.5980   68.2250  218.5840 C   0  0  0  0  0  0  0  0  0  0  0  0
  145.9540   68.4800  218.8030 C   0  0  0  0  0  0  0  0  0  0  0  0
  146.3820   69.7310  219.1740 C   0  0  0  0  0  0  0  0  0  0  0  0
  145.4930   70.7700  219.3430 C   0  0  0  0  0  0  0  0  0  0  0  0
  144.1600   70.5290  219.1310 C   0  0  0  0  0  0  0  0  0  0  0  0
  143.1590   71.6210  219.3010 C   0  0  0  0  0  0  0  0  0  0  0  0
  140.9530   73.1110  220.7410 N   0  0  0  0  0  0  0  0  0  0  0  0
  141.0340   76.1990  221.7290 C   0  0  0  0  0  0  0  0  0  0  0  0
  140.4700   77.2180  222.7010 C   0  0  0  0  0  0  0  0  0  0  0  0
  137.2970   79.0000  223.0070 C   0  0  0  0  0  0  0  0  0  0  0  0
  136.7030   80.0190  223.7230 C   0  0  0  0  0  0  0  0  0  0  0  0
  134.7063   81.8936  226.4609 H   0  0  0  0  0  0  0  0  0  0  0  0
  134.4100   82.7540  224.9122 H   0  0  0  0  0  0  0  0  0  0  0  0
  134.7145   80.9837  224.9122 H   0  0  0  0  0  0  0  0  0  0  0  0
  139.5189   81.6487  224.7117 H   0  0  0  0  0  0  0  0  0  0  0  0
  140.5994   79.8217  223.4246 H   0  0  0  0  0  0  0  0  0  0  0  0
  139.4698   78.1902  221.1128 H   0  0  0  0  0  0  0  0  0  0  0  0
  138.0075   76.2560  223.0089 H   0  0  0  0  0  0  0  0  0  0  0  0
  137.2154   77.1052  221.6637 H   0  0  0  0  0  0  0  0  0  0  0  0
  138.0137   74.8148  221.0238 H   0  0  0  0  0  0  0  0  0  0  0  0
  138.8184   76.1206  220.0683 H   0  0  0  0  0  0  0  0  0  0  0  0
  138.9180   71.5600  224.6750 H   0  0  0  0  0  0  0  0  0  0  0  0
  140.9263   69.4975  223.7997 H   0  0  0  0  0  0  0  0  0  0  0  0
  141.8817   71.1050  225.4910 H   0  0  0  0  0  0  0  0  0  0  0  0
  142.0203   69.3090  225.7373 H   0  0  0  0  0  0  0  0  0  0  0  0
  140.1277   71.2371  227.1131 H   0  0  0  0  0  0  0  0  0  0  0  0
  141.4901   70.2777  227.8299 H   0  0  0  0  0  0  0  0  0  0  0  0
  138.7746   69.6291  227.4868 H   0  0  0  0  0  0  0  0  0  0  0  0
  139.9060   67.4000  228.4530 H   0  0  0  0  0  0  0  0  0  0  0  0
  140.9380   68.6630  229.0170 H   0  0  0  0  0  0  0  0  0  0  0  0
  139.0127   67.3521  226.4104 H   0  0  0  0  0  0  0  0  0  0  0  0
  140.7084   67.7199  226.0258 H   0  0  0  0  0  0  0  0  0  0  0  0
  138.3302   69.4630  225.2251 H   0  0  0  0  0  0  0  0  0  0  0  0
  139.0911   68.2422  224.1561 H   0  0  0  0  0  0  0  0  0  0  0  0
  141.2008   69.1986  220.3319 H   0  0  0  0  0  0  0  0  0  0  0  0
  140.4937   70.0355  218.8567 H   0  0  0  0  0  0  0  0  0  0  0  0
  142.0891   67.9472  218.6911 H   0  0  0  0  0  0  0  0  0  0  0  0
  142.0624   69.3321  217.5005 H   0  0  0  0  0  0  0  0  0  0  0  0
  144.2423   67.2279  218.2851 H   0  0  0  0  0  0  0  0  0  0  0  0
  146.6871   67.6696  218.6768 H   0  0  0  0  0  0  0  0  0  0  0  0
  147.4552   69.9070  219.3394 H   0  0  0  0  0  0  0  0  0  0  0  0
  145.8443   71.7689  219.6409 H   0  0  0  0  0  0  0  0  0  0  0  0
  143.5609   72.3863  219.9812 H   0  0  0  0  0  0  0  0  0  0  0  0
  142.9431   72.0806  218.3252 H   0  0  0  0  0  0  0  0  0  0  0  0
  141.9366   75.7376  222.1562 H   0  0  0  0  0  0  0  0  0  0  0  0
  141.3024   76.6882  220.7810 H   0  0  0  0  0  0  0  0  0  0  0  0
  140.2348   76.7282  223.6574 H   0  0  0  0  0  0  0  0  0  0  0  0
  141.2067   78.0145  222.8823 H   0  0  0  0  0  0  0  0  0  0  0  0
  136.6736   78.2381  222.5162 H   0  0  0  0  0  0  0  0  0  0  0  0
  135.6082   80.0803  223.8105 H   0  0  0  0  0  0  0  0  0  0  0  0
  1  2  1  0
  2  3  2  0
  2  4  2  0
  2  5  1  0
  5  6  2  0
  6  7  1  0
  7  8  2  0
  8  9  1  0
  9 10  1  0
 10 11  1  0
 11 12  1  0
 12 13  1  0
 13 14  2  0
 14 15  1  0
 15 16  1  0
 16 17  1  0
 17 18  1  0
 18 19  1  0
 19 20  1  0
 20 21  1  0
 20 22  1  0
 22 23  1  0
 15 24  2  0
 24 25  1  0
 25 26  1  0
 26 27  1  0
 27 28  1  0
 28 29  1  0
 29 30  2  0
 30 31  1  0
 31 32  2  0
 32 33  1  0
 33 34  2  0
 34 35  1  0
 25 36  2  0
 12 37  1  0
 37 38  1  0
  8 39  1  0
 39 40  2  0
 40  5  1  0
 38  9  1  0
 36 13  1  0
 23 17  1  0
 35 26  1  0
 34 29  1  0
  1 41  1  0
  1 42  1  0
  1 43  1  0
  6 44  1  0
  7 45  1  0
  9 46  1  0
 10 47  1  0
 10 48  1  0
 11 49  1  0
 11 50  1  0
 16 51  1  0
 17 52  1  6
 18 53  1  0
 18 54  1  0
 19 55  1  0
 19 56  1  0
 20 57  1  1
 21 58  1  0
 21 59  1  0
 22 60  1  0
 22 61  1  0
 23 62  1  0
 23 63  1  0
 27 64  1  0
 27 65  1  0
 28 66  1  0
 28 67  1  0
 30 68  1  0
 31 69  1  0
 32 70  1  0
 33 71  1  0
 35 72  1  0
 35 73  1  0
 37 74  1  0
 37 75  1  0
 38 76  1  0
 38 77  1  0
 39 78  1  0
 40 79  1  0
M  END
>  <smiles>  (32) 
CS(=O)(=O)c1ccc(C2CCN(c3nc(N[C@H]4CC[C@H](N)CC4)nc(N4CCc5ccccc5C4)n3)CC2)cc1

>  <score_type>  (32) 
oracle

>  <origin>  (32) 
autodockgpu

>  <m_score__min__energy>  (32) 
-10.390000000000001

>  <m_primary>  (32) 
energy

>  <rmsd>  (32) 
8.947894606677757

>  <m_score__min__rmsd>  (32) 
8.947894606677757

>  <meeko>  (32) 
{"free_energy": -9.28, "intermolecular_energy": -11.37, "internal_energy": -1.35, "cluster_size": 3, "cluster_id": 5, "rank_in_cluster": 2}

>  <energy>  (32) 
-9.42

>  <cluster_rmsd>  (32) 
0.67

>  <cluster>  (32) 
4

$$$$

     RDKit          3D

 79 84  0  0  0  0  0  0  0  0999 V2000
  136.5910   82.3090  226.9650 C   0  0  0  0  0  0  0  0  0  0  0  0
  136.3570   82.4500  225.2100 S   0  0  0  0  0  0  0  0  0  0  0  0
  134.8650   82.4180  224.9310 O   0  0  0  0  0  0  0  0  0  0  0  0
  136.9490   83.7660  224.7370 O   0  0  0  0  0  0  0  0  0  0  0  0
  137.0700   81.1160  224.3350 C   0  0  0  0  0  0  0  0  0  0  0  0
  138.4280   80.9840  224.1370 C   0  0  0  0  0  0  0  0  0  0  0  0
  138.9620   79.9190  223.4400 C   0  0  0  0  0  0  0  0  0  0  0  0
  138.0840   78.9740  222.9390 C   0  0  0  0  0  0  0  0  0  0  0  0
  138.5310   77.7820  222.1720 C   0  0  0  0  0  0  0  0  0  0  0  0
  137.7640   76.5590  222.6360 C   0  0  0  0  0  0  0  0  0  0  0  0
  138.1400   75.4290  221.7060 C   0  0  0  0  0  0  0  0  0  0  0  0
  139.5910   75.2350  221.6780 N   0  0  0  0  0  0  0  0  0  0  0  0
  140.1830   73.9650  221.9400 C   0  0  0  0  0  0  0  0  0  0  0  0
  140.9860   73.3620  221.0460 N   0  0  0  0  0  0  0  0  0  0  0  0
  141.5540   72.1550  221.2790 C   0  0  0  0  0  0  0  0  0  0  0  0
  142.4060   71.5400  220.3200 N   0  0  0  0  0  0  0  0  0  0  0  0
  143.5190   72.2250  219.7150 C   0  0  1  0  0  0  0  0  0  0  0  0
  143.1500   72.9260  218.4370 C   0  0  0  0  0  0  0  0  0  0  0  0
  142.5360   74.2850  218.6840 C   0  0  0  0  0  0  0  0  0  0  0  0
  143.3790   75.1210  219.6190 C   0  0  2  0  0  0  0  0  0  0  0  0
  143.7690   76.3890  219.0940 N   0  0  0  0  0  0  0  0  0  0  0  0
  144.6270   74.3760  220.0520 C   0  0  0  0  0  0  0  0  0  0  0  0
  144.1710   73.1280  220.7330 C   0  0  0  0  0  0  0  0  0  0  0  0
  141.2850   71.5530  222.4690 N   0  0  0  0  0  0  0  0  0  0  0  0
  140.4870   72.1240  223.3900 C   0  0  0  0  0  0  0  0  0  0  0  0
  140.2270   71.4680  224.6260 N   0  0  0  0  0  0  0  0  0  0  0  0
  140.9290   71.9270  225.7900 C   0  0  0  0  0  0  0  0  0  0  0  0
  140.7620   71.0700  227.0020 C   0  0  0  0  0  0  0  0  0  0  0  0
  140.5290   69.6370  226.6860 C   0  0  0  0  0  0  0  0  0  0  0  0
  141.0450   68.7020  227.5350 C   0  0  0  0  0  0  0  0  0  0  0  0
  140.8150   67.3620  227.2190 C   0  0  0  0  0  0  0  0  0  0  0  0
  140.0980   67.0170  226.0990 C   0  0  0  0  0  0  0  0  0  0  0  0
  139.5860   67.9760  225.2550 C   0  0  0  0  0  0  0  0  0  0  0  0
  139.8070   69.2950  225.5560 C   0  0  0  0  0  0  0  0  0  0  0  0
  139.2720   70.3720  224.6720 C   0  0  0  0  0  0  0  0  0  0  0  0
  139.9450   73.3400  223.0950 N   0  0  0  0  0  0  0  0  0  0  0  0
  140.3860   76.4070  221.3680 C   0  0  0  0  0  0  0  0  0  0  0  0
  139.9950   77.5160  222.3260 C   0  0  0  0  0  0  0  0  0  0  0  0
  136.7020   79.0890  223.1270 C   0  0  0  0  0  0  0  0  0  0  0  0
  136.1860   80.1600  223.8260 C   0  0  0  0  0  0  0  0  0  0  0  0
  135.7616   82.8088  227.4868 H   0  0  0  0  0  0  0  0  0  0  0  0
  136.6147   81.2462  227.2475 H   0  0  0  0  0  0  0  0  0  0  0  0
  137.5417   82.7847  227.2475 H   0  0  0  0  0  0  0  0  0  0  0  0
  139.1048   81.7487  224.5459 H   0  0  0  0  0  0  0  0  0  0  0  0
  140.0474   79.8248  223.2881 H   0  0  0  0  0  0  0  0  0  0  0  0
  138.3335   77.9913  221.1103 H   0  0  0  0  0  0  0  0  0  0  0  0
  138.0425   76.3071  223.6699 H   0  0  0  0  0  0  0  0  0  0  0  0
  136.6796   76.7422  222.6162 H   0  0  0  0  0  0  0  0  0  0  0  0
  137.6595   74.5023  222.0529 H   0  0  0  0  0  0  0  0  0  0  0  0
  137.8000   75.6819  220.6909 H   0  0  0  0  0  0  0  0  0  0  0  0
  142.2000   70.5500  220.0560 H   0  0  0  0  0  0  0  0  0  0  0  0
  144.2633   71.4771  219.4041 H   0  0  0  0  0  0  0  0  0  0  0  0
  142.4258   72.3050  217.8894 H   0  0  0  0  0  0  0  0  0  0  0  0
  144.0725   73.0743  217.8564 H   0  0  0  0  0  0  0  0  0  0  0  0
  141.5390   74.1496  219.1287 H   0  0  0  0  0  0  0  0  0  0  0  0
  142.4713   74.8109  217.7200 H   0  0  0  0  0  0  0  0  0  0  0  0
  142.7192   75.3118  220.4782 H   0  0  0  0  0  0  0  0  0  0  0  0
  143.9750   77.0930  219.8240 H   0  0  0  0  0  0  0  0  0  0  0  0
  144.4980   76.3640  218.3490 H   0  0  0  0  0  0  0  0  0  0  0  0
  145.2144   74.9936  220.7473 H   0  0  0  0  0  0  0  0  0  0  0  0
  145.2666   74.1426  219.1880 H   0  0  0  0  0  0  0  0  0  0  0  0
  143.4456   73.3811  221.5202 H   0  0  0  0  0  0  0  0  0  0  0  0
  145.0320   72.6160  221.1876 H   0  0  0  0  0  0  0  0  0  0  0  0
  142.0010   71.9713  225.5475 H   0  0  0  0  0  0  0  0  0  0  0  0
  140.4998   72.9077  226.0432 H   0  0  0  0  0  0  0  0  0  0  0  0
  141.6738   71.1483  227.6124 H   0  0  0  0  0  0  0  0  0  0  0  0
  139.8711   71.4331  227.5353 H   0  0  0  0  0  0  0  0  0  0  0  0
  141.6169   68.9913  228.4290 H   0  0  0  0  0  0  0  0  0  0  0  0
  141.2125   66.5730  227.8744 H   0  0  0  0  0  0  0  0  0  0  0  0
  139.9299   65.9538  225.8725 H   0  0  0  0  0  0  0  0  0  0  0  0
  139.0131   67.6909  224.3603 H   0  0  0  0  0  0  0  0  0  0  0  0
  139.1188   69.9741  223.6580 H   0  0  0  0  0  0  0  0  0  0  0  0
  138.3116   70.7336  225.0680 H   0  0  0  0  0  0  0  0  0  0  0  0
  141.4544   76.1733  221.4860 H   0  0  0  0  0  0  0  0  0  0  0  0
  140.2061   76.7227  220.3297 H   0  0  0  0  0  0  0  0  0  0  0  0
  140.2091   77.2062  223.3595 H   0  0  0  0  0  0  0  0  0  0  0  0
  140.5692   78.4272  222.1023 H   0  0  0  0  0  0  0  0  0  0  0  0
  136.0263   78.3241  222.7167 H   0  0  0  0  0  0  0  0  0  0  0  0
  135.1014   80.2600  223.9799 H   0  0  0  0  0  0  0  0  0  0  0  0
  1  2  1  0
  2  3  2  0
  2  4  2  0
  2  5  1  0
  5  6  2  0
  6  7  1  0
  7  8  2  0
  8  9  1  0
  9 10  1  0
 10 11  1  0
 11 12  1  0
 12 13  1  0
 13 14  2  0
 14 15  1  0
 15 16  1  0
 16 17  1  0
 17 18  1  0
 18 19  1  0
 19 20  1  0
 20 21  1  0
 20 22  1  0
 22 23  1  0
 15 24  2  0
 24 25  1  0
 25 26  1  0
 26 27  1  0
 27 28  1  0
 28 29  1  0
 29 30  2  0
 30 31  1  0
 31 32  2  0
 32 33  1  0
 33 34  2  0
 34 35  1  0
 25 36  2  0
 12 37  1  0
 37 38  1  0
  8 39  1  0
 39 40  2  0
 40  5  1  0
 38  9  1  0
 36 13  1  0
 23 17  1  0
 35 26  1  0
 34 29  1  0
  1 41  1  0
  1 42  1  0
  1 43  1  0
  6 44  1  0
  7 45  1  0
  9 46  1  0
 10 47  1  0
 10 48  1  0
 11 49  1  0
 11 50  1  0
 16 51  1  0
 17 52  1  6
 18 53  1  0
 18 54  1  0
 19 55  1  0
 19 56  1  0
 20 57  1  1
 21 58  1  0
 21 59  1  0
 22 60  1  0
 22 61  1  0
 23 62  1  0
 23 63  1  0
 27 64  1  0
 27 65  1  0
 28 66  1  0
 28 67  1  0
 30 68  1  0
 31 69  1  0
 32 70  1  0
 33 71  1  0
 35 72  1  0
 35 73  1  0
 37 74  1  0
 37 75  1  0
 38 76  1  0
 38 77  1  0
 39 78  1  0
 40 79  1  0
M  END
>  <smiles>  (33) 
CS(=O)(=O)c1ccc(C2CCN(c3nc(N[C@H]4CC[C@H](N)CC4)nc(N4CCc5ccccc5C4)n3)CC2)cc1

>  <score_type>  (33) 
oracle

>  <origin>  (33) 
autodockgpu

>  <m_score__min__energy>  (33) 
-10.390000000000001

>  <m_primary>  (33) 
energy

>  <rmsd>  (33) 
9.07103222022655

>  <m_score__min__rmsd>  (33) 
9.07103222022655

>  <meeko>  (33) 
{"free_energy": -9.89, "intermolecular_energy": -11.98, "internal_energy": -1.8, "cluster_size": 4, "cluster_id": 1, "rank_in_cluster": 4}

>  <energy>  (33) 
-9.39

>  <cluster_rmsd>  (33) 
0.7

>  <cluster>  (33) 
4

$$$$

     RDKit          3D

 79 84  0  0  0  0  0  0  0  0999 V2000
  133.2460   71.4160  226.8950 C   0  0  0  0  0  0  0  0  0  0  0  0
  133.4520   70.1060  225.7120 S   0  0  0  0  0  0  0  0  0  0  0  0
  133.3530   68.7840  226.4520 O   0  0  0  0  0  0  0  0  0  0  0  0
  132.3530   70.2040  224.6690 O   0  0  0  0  0  0  0  0  0  0  0  0
  135.0210   70.1450  224.9430 C   0  0  0  0  0  0  0  0  0  0  0  0
  135.7890   69.0190  224.7390 C   0  0  0  0  0  0  0  0  0  0  0  0
  137.0260   69.0820  224.1300 C   0  0  0  0  0  0  0  0  0  0  0  0
  137.4800   70.3240  223.7230 C   0  0  0  0  0  0  0  0  0  0  0  0
  138.7920   70.5270  223.0570 C   0  0  0  0  0  0  0  0  0  0  0  0
  139.6210   71.5190  223.8500 C   0  0  0  0  0  0  0  0  0  0  0  0
  140.9930   71.5470  223.2180 C   0  0  0  0  0  0  0  0  0  0  0  0
  140.9050   71.8660  221.7920 N   0  0  0  0  0  0  0  0  0  0  0  0
  141.6480   72.9370  221.2160 C   0  0  0  0  0  0  0  0  0  0  0  0
  142.7750   72.7190  220.5140 N   0  0  0  0  0  0  0  0  0  0  0  0
  143.4930   73.7260  219.9630 C   0  0  0  0  0  0  0  0  0  0  0  0
  144.6780   73.4690  219.2190 N   0  0  0  0  0  0  0  0  0  0  0  0
  144.8040   72.3540  218.3170 C   0  0  1  0  0  0  0  0  0  0  0  0
  145.3730   71.1280  218.9770 C   0  0  0  0  0  0  0  0  0  0  0  0
  144.3200   70.3290  219.7100 C   0  0  0  0  0  0  0  0  0  0  0  0
  143.1180   70.0510  218.8380 C   0  0  2  0  0  0  0  0  0  0  0  0
  142.7870   68.6690  218.7030 N   0  0  0  0  0  0  0  0  0  0  0  0
  143.2940   70.6390  217.4510 C   0  0  0  0  0  0  0  0  0  0  0  0
  143.4850   72.1100  217.6260 C   0  0  0  0  0  0  0  0  0  0  0  0
  143.0360   74.9950  220.1410 N   0  0  0  0  0  0  0  0  0  0  0  0
  141.9130   75.2550  220.8360 C   0  0  0  0  0  0  0  0  0  0  0  0
  141.4610   76.5940  221.0030 N   0  0  0  0  0  0  0  0  0  0  0  0
  141.5540   77.4790  219.8780 C   0  0  0  0  0  0  0  0  0  0  0  0
  141.2540   78.9110  220.1780 C   0  0  0  0  0  0  0  0  0  0  0  0
  141.5870   79.3040  221.5710 C   0  0  0  0  0  0  0  0  0  0  0  0
  142.0410   80.5720  221.7870 C   0  0  0  0  0  0  0  0  0  0  0  0
  142.3490   80.9220  223.1040 C   0  0  0  0  0  0  0  0  0  0  0  0
  142.1940   80.0170  224.1250 C   0  0  0  0  0  0  0  0  0  0  0  0
  141.7340   78.7410  223.8860 C   0  0  0  0  0  0  0  0  0  0  0  0
  141.4290   78.3890  222.5970 C   0  0  0  0  0  0  0  0  0  0  0  0
  140.9270   77.0190  222.2870 C   0  0  0  0  0  0  0  0  0  0  0  0
  141.2350   74.1970  221.3670 N   0  0  0  0  0  0  0  0  0  0  0  0
  140.0210   71.0290  221.0040 C   0  0  0  0  0  0  0  0  0  0  0  0
  138.6520   71.0340  221.6560 C   0  0  0  0  0  0  0  0  0  0  0  0
  136.7170   71.4810  223.9210 C   0  0  0  0  0  0  0  0  0  0  0  0
  135.4820   71.4000  224.5320 C   0  0  0  0  0  0  0  0  0  0  0  0
  133.3107   71.0043  227.9130 H   0  0  0  0  0  0  0  0  0  0  0  0
  134.0371   72.1668  226.7521 H   0  0  0  0  0  0  0  0  0  0  0  0
  132.2626   71.8878  226.7521 H   0  0  0  0  0  0  0  0  0  0  0  0
  135.4055   68.0429  225.0708 H   0  0  0  0  0  0  0  0  0  0  0  0
  137.6300   68.1761  223.9736 H   0  0  0  0  0  0  0  0  0  0  0  0
  139.2856   69.5448  223.0168 H   0  0  0  0  0  0  0  0  0  0  0  0
  139.1625   72.5178  223.8036 H   0  0  0  0  0  0  0  0  0  0  0  0
  139.6805   71.2257  224.9085 H   0  0  0  0  0  0  0  0  0  0  0  0
  141.6055   72.3101  223.7206 H   0  0  0  0  0  0  0  0  0  0  0  0
  141.4509   70.5529  223.3281 H   0  0  0  0  0  0  0  0  0  0  0  0
  145.4790   74.1280  219.3460 H   0  0  0  0  0  0  0  0  0  0  0  0
  145.5449   72.6109  217.5456 H   0  0  0  0  0  0  0  0  0  0  0  0
  146.1447   71.4396  219.6963 H   0  0  0  0  0  0  0  0  0  0  0  0
  145.7935   70.4864  218.1886 H   0  0  0  0  0  0  0  0  0  0  0  0
  143.9945   70.8961  220.5946 H   0  0  0  0  0  0  0  0  0  0  0  0
  144.7627   69.3645  219.9993 H   0  0  0  0  0  0  0  0  0  0  0  0
  142.2850   70.5368  219.3672 H   0  0  0  0  0  0  0  0  0  0  0  0
  141.8600   68.5060  218.2750 H   0  0  0  0  0  0  0  0  0  0  0  0
  143.5290   68.0670  218.2870 H   0  0  0  0  0  0  0  0  0  0  0  0
  142.4000   70.4433  216.8407 H   0  0  0  0  0  0  0  0  0  0  0  0
  144.1560   70.1877  216.9379 H   0  0  0  0  0  0  0  0  0  0  0  0
  142.6669   72.5182  218.2377 H   0  0  0  0  0  0  0  0  0  0  0  0
  143.4822   72.6051  216.6438 H   0  0  0  0  0  0  0  0  0  0  0  0
  142.5781   77.4204  219.4809 H   0  0  0  0  0  0  0  0  0  0  0  0
  140.7891   77.1473  219.1605 H   0  0  0  0  0  0  0  0  0  0  0  0
  141.8362   79.5409  219.4893 H   0  0  0  0  0  0  0  0  0  0  0  0
  140.1700   79.0491  220.0519 H   0  0  0  0  0  0  0  0  0  0  0  0
  142.1595   81.2878  220.9602 H   0  0  0  0  0  0  0  0  0  0  0  0
  142.7197   81.9337  223.3255 H   0  0  0  0  0  0  0  0  0  0  0  0
  142.4421   80.3170  225.1538 H   0  0  0  0  0  0  0  0  0  0  0  0
  141.6143   78.0218  224.7097 H   0  0  0  0  0  0  0  0  0  0  0  0
  141.2548   76.3207  223.0712 H   0  0  0  0  0  0  0  0  0  0  0  0
  139.8278   77.0284  222.2456 H   0  0  0  0  0  0  0  0  0  0  0  0
  139.9469   71.4263  219.9809 H   0  0  0  0  0  0  0  0  0  0  0  0
  140.4140   70.0027  220.9568 H   0  0  0  0  0  0  0  0  0  0  0  0
  138.2515   72.0584  221.6703 H   0  0  0  0  0  0  0  0  0  0  0  0
  137.9622   70.3912  221.0895 H   0  0  0  0  0  0  0  0  0  0  0  0
  137.1024   72.4563  223.5891 H   0  0  0  0  0  0  0  0  0  0  0  0
  134.8738   72.3024  224.6922 H   0  0  0  0  0  0  0  0  0  0  0  0
  1  2  1  0
  2  3  2  0
  2  4  2  0
  2  5  1  0
  5  6  2  0
  6  7  1  0
  7  8  2  0
  8  9  1  0
  9 10  1  0
 10 11  1  0
 11 12  1  0
 12 13  1  0
 13 14  2  0
 14 15  1  0
 15 16  1  0
 16 17  1  0
 17 18  1  0
 18 19  1  0
 19 20  1  0
 20 21  1  0
 20 22  1  0
 22 23  1  0
 15 24  2  0
 24 25  1  0
 25 26  1  0
 26 27  1  0
 27 28  1  0
 28 29  1  0
 29 30  2  0
 30 31  1  0
 31 32  2  0
 32 33  1  0
 33 34  2  0
 34 35  1  0
 25 36  2  0
 12 37  1  0
 37 38  1  0
  8 39  1  0
 39 40  2  0
 40  5  1  0
 38  9  1  0
 36 13  1  0
 23 17  1  0
 35 26  1  0
 34 29  1  0
  1 41  1  0
  1 42  1  0
  1 43  1  0
  6 44  1  0
  7 45  1  0
  9 46  1  0
 10 47  1  0
 10 48  1  0
 11 49  1  0
 11 50  1  0
 16 51  1  0
 17 52  1  6
 18 53  1  0
 18 54  1  0
 19 55  1  0
 19 56  1  0
 20 57  1  1
 21 58  1  0
 21 59  1  0
 22 60  1  0
 22 61  1  0
 23 62  1  0
 23 63  1  0
 27 64  1  0
 27 65  1  0
 28 66  1  0
 28 67  1  0
 30 68  1  0
 31 69  1  0
 32 70  1  0
 33 71  1  0
 35 72  1  0
 35 73  1  0
 37 74  1  0
 37 75  1  0
 38 76  1  0
 38 77  1  0
 39 78  1  0
 40 79  1  0
M  END
>  <smiles>  (34) 
CS(=O)(=O)c1ccc(C2CCN(c3nc(N[C@H]4CC[C@H](N)CC4)nc(N4CCc5ccccc5C4)n3)CC2)cc1

>  <score_type>  (34) 
oracle

>  <origin>  (34) 
autodockgpu

>  <m_score__min__energy>  (34) 
-10.390000000000001

>  <m_primary>  (34) 
energy

>  <rmsd>  (34) 
4.390356823660612

>  <m_score__min__rmsd>  (34) 
4.390356823660612

>  <meeko>  (34) 
{"free_energy": -8.1, "intermolecular_energy": -10.19, "internal_energy": -1.77, "cluster_size": 1, "cluster_id": 12, "rank_in_cluster": 1}

>  <energy>  (34) 
-9.35

>  <cluster_rmsd>  (34) 
0.51

>  <cluster>  (34) 
4

$$$$

     RDKit          3D

 79 84  0  0  0  0  0  0  0  0999 V2000
  136.4870   83.8710  224.3480 C   0  0  0  0  0  0  0  0  0  0  0  0
  136.4300   82.3220  225.2170 S   0  0  0  0  0  0  0  0  0  0  0  0
  137.2270   82.4740  226.5000 O   0  0  0  0  0  0  0  0  0  0  0  0
  134.9840   81.9880  225.5360 O   0  0  0  0  0  0  0  0  0  0  0  0
  137.1660   81.0230  224.3080 C   0  0  0  0  0  0  0  0  0  0  0  0
  138.5260   80.9110  224.1190 C   0  0  0  0  0  0  0  0  0  0  0  0
  139.0770   79.8740  223.3950 C   0  0  0  0  0  0  0  0  0  0  0  0
  138.2150   78.9350  222.8570 C   0  0  0  0  0  0  0  0  0  0  0  0
  138.6810   77.7720  222.0590 C   0  0  0  0  0  0  0  0  0  0  0  0
  137.7940   76.5730  222.3360 C   0  0  0  0  0  0  0  0  0  0  0  0
  138.2130   75.4870  221.3730 C   0  0  0  0  0  0  0  0  0  0  0  0
  139.6430   75.2000  221.4990 N   0  0  0  0  0  0  0  0  0  0  0  0
  140.1250   73.8790  221.7300 C   0  0  0  0  0  0  0  0  0  0  0  0
  140.7760   73.1870  220.7780 N   0  0  0  0  0  0  0  0  0  0  0  0
  141.2380   71.9300  220.9820 C   0  0  0  0  0  0  0  0  0  0  0  0
  141.9300   71.2210  219.9610 N   0  0  0  0  0  0  0  0  0  0  0  0
  143.0280   71.7920  219.2240 C   0  0  1  0  0  0  0  0  0  0  0  0
  143.1010   73.2890  219.3490 C   0  0  0  0  0  0  0  0  0  0  0  0
  143.8090   73.7260  220.6110 C   0  0  0  0  0  0  0  0  0  0  0  0
  145.1410   73.0330  220.7770 C   0  0  2  0  0  0  0  0  0  0  0  0
  146.2560   73.9130  220.9200 N   0  0  0  0  0  0  0  0  0  0  0  0
  145.4200   72.0900  219.6230 C   0  0  0  0  0  0  0  0  0  0  0  0
  144.3100   71.0910  219.6020 C   0  0  0  0  0  0  0  0  0  0  0  0
  141.0220   71.3710  222.2030 N   0  0  0  0  0  0  0  0  0  0  0  0
  140.3750   72.0300  223.1820 C   0  0  0  0  0  0  0  0  0  0  0  0
  140.1670   71.4170  224.4490 N   0  0  0  0  0  0  0  0  0  0  0  0
  140.9470   71.8850  225.5580 C   0  0  0  0  0  0  0  0  0  0  0  0
  140.8240   71.0680  226.8020 C   0  0  0  0  0  0  0  0  0  0  0  0
  140.5310   69.6350  226.5410 C   0  0  0  0  0  0  0  0  0  0  0  0
  141.0660   68.7080  227.3870 C   0  0  0  0  0  0  0  0  0  0  0  0
  140.7780   67.3670  227.1240 C   0  0  0  0  0  0  0  0  0  0  0  0
  139.9890   67.0140  226.0570 C   0  0  0  0  0  0  0  0  0  0  0  0
  139.4580   67.9660  225.2140 C   0  0  0  0  0  0  0  0  0  0  0  0
  139.7350   69.2850  225.4650 C   0  0  0  0  0  0  0  0  0  0  0  0
  139.1840   70.3530  224.5810 C   0  0  0  0  0  0  0  0  0  0  0  0
  139.9350   73.2930  222.9140 N   0  0  0  0  0  0  0  0  0  0  0  0
  140.5360   76.3350  221.3730 C   0  0  0  0  0  0  0  0  0  0  0  0
  140.0980   77.3990  222.3610 C   0  0  0  0  0  0  0  0  0  0  0  0
  136.8300   79.0290  223.0370 C   0  0  0  0  0  0  0  0  0  0  0  0
  136.2960   80.0730  223.7630 C   0  0  0  0  0  0  0  0  0  0  0  0
  136.5174   84.6974  225.0733 H   0  0  0  0  0  0  0  0  0  0  0  0
  137.3870   83.9042  223.7164 H   0  0  0  0  0  0  0  0  0  0  0  0
  135.5919   83.9702  223.7164 H   0  0  0  0  0  0  0  0  0  0  0  0
  139.1911   81.6695  224.5576 H   0  0  0  0  0  0  0  0  0  0  0  0
  140.1647   79.7963  223.2504 H   0  0  0  0  0  0  0  0  0  0  0  0
  138.6251   78.0669  221.0007 H   0  0  0  0  0  0  0  0  0  0  0  0
  137.9306   76.2326  223.3731 H   0  0  0  0  0  0  0  0  0  0  0  0
  136.7324   76.8290  222.2039 H   0  0  0  0  0  0  0  0  0  0  0  0
  137.6416   74.5726  221.5907 H   0  0  0  0  0  0  0  0  0  0  0  0
  138.0126   75.8304  220.3474 H   0  0  0  0  0  0  0  0  0  0  0  0
  141.6140   70.2470  219.7510 H   0  0  0  0  0  0  0  0  0  0  0  0
  142.8558   71.6213  218.1511 H   0  0  0  0  0  0  0  0  0  0  0  0
  142.0780   73.6933  219.3593 H   0  0  0  0  0  0  0  0  0  0  0  0
  143.6754   73.6704  218.4919 H   0  0  0  0  0  0  0  0  0  0  0  0
  143.1734   73.4873  221.4765 H   0  0  0  0  0  0  0  0  0  0  0  0
  143.9935   74.8082  220.5417 H   0  0  0  0  0  0  0  0  0  0  0  0
  145.0390   72.4779  221.7212 H   0  0  0  0  0  0  0  0  0  0  0  0
  146.4020   74.5300  220.1020 H   0  0  0  0  0  0  0  0  0  0  0  0
  146.3090   74.4310  221.8220 H   0  0  0  0  0  0  0  0  0  0  0  0
  146.3837   71.5817  219.7742 H   0  0  0  0  0  0  0  0  0  0  0  0
  145.4750   72.6380  218.6708 H   0  0  0  0  0  0  0  0  0  0  0  0
  144.2028   70.6373  220.5983 H   0  0  0  0  0  0  0  0  0  0  0  0
  144.5330   70.3016  218.8691 H   0  0  0  0  0  0  0  0  0  0  0  0
  142.0044   71.8888  225.2547 H   0  0  0  0  0  0  0  0  0  0  0  0
  140.5618   72.8850  225.8061 H   0  0  0  0  0  0  0  0  0  0  0  0
  141.7709   71.1345  227.3578 H   0  0  0  0  0  0  0  0  0  0  0  0
  139.9764   71.4735  227.3740 H   0  0  0  0  0  0  0  0  0  0  0  0
  141.6963   69.0037  228.2386 H   0  0  0  0  0  0  0  0  0  0  0  0
  141.1880   66.5844  227.7793 H   0  0  0  0  0  0  0  0  0  0  0  0
  139.7767   65.9507  225.8716 H   0  0  0  0  0  0  0  0  0  0  0  0
  138.8275   67.6749  224.3609 H   0  0  0  0  0  0  0  0  0  0  0  0
  138.9619   69.9319  223.5894 H   0  0  0  0  0  0  0  0  0  0  0  0
  138.2591   70.7558  225.0194 H   0  0  0  0  0  0  0  0  0  0  0  0
  141.5672   76.0232  221.5953 H   0  0  0  0  0  0  0  0  0  0  0  0
  140.5004   76.7326  220.3480 H   0  0  0  0  0  0  0  0  0  0  0  0
  140.1678   77.0052  223.3857 H   0  0  0  0  0  0  0  0  0  0  0  0
  140.7471   78.2830  222.2756 H   0  0  0  0  0  0  0  0  0  0  0  0
  136.1665   78.2690  222.5987 H   0  0  0  0  0  0  0  0  0  0  0  0
  135.2091   80.1568  223.9103 H   0  0  0  0  0  0  0  0  0  0  0  0
  1  2  1  0
  2  3  2  0
  2  4  2  0
  2  5  1  0
  5  6  2  0
  6  7  1  0
  7  8  2  0
  8  9  1  0
  9 10  1  0
 10 11  1  0
 11 12  1  0
 12 13  1  0
 13 14  2  0
 14 15  1  0
 15 16  1  0
 16 17  1  0
 17 18  1  0
 18 19  1  0
 19 20  1  0
 20 21  1  0
 20 22  1  0
 22 23  1  0
 15 24  2  0
 24 25  1  0
 25 26  1  0
 26 27  1  0
 27 28  1  0
 28 29  1  0
 29 30  2  0
 30 31  1  0
 31 32  2  0
 32 33  1  0
 33 34  2  0
 34 35  1  0
 25 36  2  0
 12 37  1  0
 37 38  1  0
  8 39  1  0
 39 40  2  0
 40  5  1  0
 38  9  1  0
 36 13  1  0
 23 17  1  0
 35 26  1  0
 34 29  1  0
  1 41  1  0
  1 42  1  0
  1 43  1  0
  6 44  1  0
  7 45  1  0
  9 46  1  0
 10 47  1  0
 10 48  1  0
 11 49  1  0
 11 50  1  0
 16 51  1  0
 17 52  1  6
 18 53  1  0
 18 54  1  0
 19 55  1  0
 19 56  1  0
 20 57  1  1
 21 58  1  0
 21 59  1  0
 22 60  1  0
 22 61  1  0
 23 62  1  0
 23 63  1  0
 27 64  1  0
 27 65  1  0
 28 66  1  0
 28 67  1  0
 30 68  1  0
 31 69  1  0
 32 70  1  0
 33 71  1  0
 35 72  1  0
 35 73  1  0
 37 74  1  0
 37 75  1  0
 38 76  1  0
 38 77  1  0
 39 78  1  0
 40 79  1  0
M  END
>  <smiles>  (35) 
CS(=O)(=O)c1ccc(C2CCN(c3nc(N[C@H]4CC[C@H](N)CC4)nc(N4CCc5ccccc5C4)n3)CC2)cc1

>  <score_type>  (35) 
oracle

>  <origin>  (35) 
autodockgpu

>  <m_score__min__energy>  (35) 
-10.390000000000001

>  <m_primary>  (35) 
energy

>  <rmsd>  (35) 
9.017575234725085

>  <m_score__min__rmsd>  (35) 
9.017575234725085

>  <meeko>  (35) 
{"free_energy": -10.17, "intermolecular_energy": -12.26, "internal_energy": -1.4, "cluster_size": 4, "cluster_id": 1, "rank_in_cluster": 3}

>  <energy>  (35) 
-9.34

>  <cluster_rmsd>  (35) 
0.72

>  <cluster>  (35) 
4

$$$$

     RDKit          3D

 79 84  0  0  0  0  0  0  0  0999 V2000
  137.7140   68.3510  222.6970 C   0  0  0  0  0  0  0  0  0  0  0  0
  136.9800   69.3670  223.9560 S   0  0  0  0  0  0  0  0  0  0  0  0
  135.5680   68.8680  224.1990 O   0  0  0  0  0  0  0  0  0  0  0  0
  137.8020   69.2500  225.2270 O   0  0  0  0  0  0  0  0  0  0  0  0
  136.8540   71.0410  223.4690 C   0  0  0  0  0  0  0  0  0  0  0  0
  137.6640   71.6110  222.5110 C   0  0  0  0  0  0  0  0  0  0  0  0
  137.5420   72.9360  222.1480 C   0  0  0  0  0  0  0  0  0  0  0  0
  136.5680   73.6890  222.7810 C   0  0  0  0  0  0  0  0  0  0  0  0
  136.3340   75.1250  222.4810 C   0  0  0  0  0  0  0  0  0  0  0  0
  137.6510   75.8000  222.1510 C   0  0  0  0  0  0  0  0  0  0  0  0
  137.3220   77.2020  221.6930 C   0  0  0  0  0  0  0  0  0  0  0  0
  136.5370   77.9110  222.7050 N   0  0  0  0  0  0  0  0  0  0  0  0
  136.9400   79.1810  223.2120 C   0  0  0  0  0  0  0  0  0  0  0  0
  137.9960   79.8420  222.7060 N   0  0  0  0  0  0  0  0  0  0  0  0
  138.3910   81.0480  223.1790 C   0  0  0  0  0  0  0  0  0  0  0  0
  139.5080   81.7310  222.6220 N   0  0  0  0  0  0  0  0  0  0  0  0
  140.7410   81.0660  222.2880 C   0  0  1  0  0  0  0  0  0  0  0  0
  141.3510   80.3440  223.4570 C   0  0  0  0  0  0  0  0  0  0  0  0
  140.7470   78.9740  223.6660 C   0  0  0  0  0  0  0  0  0  0  0  0
  140.7320   78.1670  222.3890 C   0  0  2  0  0  0  0  0  0  0  0  0
  141.3890   76.9020  222.4780 N   0  0  0  0  0  0  0  0  0  0  0  0
  141.3410   78.9440  221.2380 C   0  0  0  0  0  0  0  0  0  0  0  0
  140.5310   80.1870  221.0790 C   0  0  0  0  0  0  0  0  0  0  0  0
  137.6770   81.5870  224.2030 N   0  0  0  0  0  0  0  0  0  0  0  0
  136.6150   80.9570  224.7380 C   0  0  0  0  0  0  0  0  0  0  0  0
  135.8880   81.5490  225.8090 N   0  0  0  0  0  0  0  0  0  0  0  0
  136.5710   82.4970  226.6400 C   0  0  0  0  0  0  0  0  0  0  0  0
  135.8170   82.9230  227.8580 C   0  0  0  0  0  0  0  0  0  0  0  0
  134.8940   81.8810  228.3750 C   0  0  0  0  0  0  0  0  0  0  0  0
  134.7130   81.7990  229.7250 C   0  0  0  0  0  0  0  0  0  0  0  0
  133.8420   80.8120  230.1900 C   0  0  0  0  0  0  0  0  0  0  0  0
  133.2020   79.9700  229.3150 C   0  0  0  0  0  0  0  0  0  0  0  0
  133.3980   80.0690  227.9550 C   0  0  0  0  0  0  0  0  0  0  0  0
  134.2520   81.0350  227.4880 C   0  0  0  0  0  0  0  0  0  0  0  0
  134.4970   81.1820  226.0240 C   0  0  0  0  0  0  0  0  0  0  0  0
  136.2670   79.7450  224.2170 N   0  0  0  0  0  0  0  0  0  0  0  0
  135.3290   77.2490  223.1570 C   0  0  0  0  0  0  0  0  0  0  0  0
  135.6950   75.8530  223.6220 C   0  0  0  0  0  0  0  0  0  0  0  0
  135.7340   73.1310  223.7570 C   0  0  0  0  0  0  0  0  0  0  0  0
  135.8710   71.8040  224.1070 C   0  0  0  0  0  0  0  0  0  0  0  0
  138.2959   67.5455  223.1689 H   0  0  0  0  0  0  0  0  0  0  0  0
  136.9223   67.9132  222.0713 H   0  0  0  0  0  0  0  0  0  0  0  0
  138.3783   68.9651  222.0713 H   0  0  0  0  0  0  0  0  0  0  0  0
  138.4300   70.9914  222.0217 H   0  0  0  0  0  0  0  0  0  0  0  0
  138.1958   73.3789  221.3823 H   0  0  0  0  0  0  0  0  0  0  0  0
  135.6460   75.1653  221.6237 H   0  0  0  0  0  0  0  0  0  0  0  0
  138.2928   75.8343  223.0437 H   0  0  0  0  0  0  0  0  0  0  0  0
  138.1923   75.2469  221.3693 H   0  0  0  0  0  0  0  0  0  0  0  0
  138.2580   77.7512  221.5132 H   0  0  0  0  0  0  0  0  0  0  0  0
  136.7295   77.1399  220.7683 H   0  0  0  0  0  0  0  0  0  0  0  0
  139.4100   82.7590  222.4550 H   0  0  0  0  0  0  0  0  0  0  0  0
  141.4887   81.8282  222.0234 H   0  0  0  0  0  0  0  0  0  0  0  0
  141.1906   80.9433  224.3654 H   0  0  0  0  0  0  0  0  0  0  0  0
  142.4224   80.2101  223.2470 H   0  0  0  0  0  0  0  0  0  0  0  0
  139.7140   79.0913  224.0253 H   0  0  0  0  0  0  0  0  0  0  0  0
  141.3631   78.4373  224.4025 H   0  0  0  0  0  0  0  0  0  0  0  0
  139.6652   77.9701  222.2072 H   0  0  0  0  0  0  0  0  0  0  0  0
  141.9360   76.6610  221.6340 H   0  0  0  0  0  0  0  0  0  0  0  0
  141.9200   76.7300  223.3580 H   0  0  0  0  0  0  0  0  0  0  0  0
  141.3021   78.3463  220.3154 H   0  0  0  0  0  0  0  0  0  0  0  0
  142.3957   79.1837  221.4385 H   0  0  0  0  0  0  0  0  0  0  0  0
  139.4660   79.9252  220.9934 H   0  0  0  0  0  0  0  0  0  0  0  0
  140.8444   80.7221  220.1705 H   0  0  0  0  0  0  0  0  0  0  0  0
  137.5195   82.0451  226.9658 H   0  0  0  0  0  0  0  0  0  0  0  0
  136.7073   83.4015  226.0290 H   0  0  0  0  0  0  0  0  0  0  0  0
  136.5416   83.1699  228.6479 H   0  0  0  0  0  0  0  0  0  0  0  0
  135.2017   83.7890  227.5725 H   0  0  0  0  0  0  0  0  0  0  0  0
  135.2305   82.4804  230.4163 H   0  0  0  0  0  0  0  0  0  0  0  0
  133.6664   80.7078  231.2709 H   0  0  0  0  0  0  0  0  0  0  0  0
  132.5196   79.2016  229.7072 H   0  0  0  0  0  0  0  0  0  0  0  0
  132.8820   79.3897  227.2605 H   0  0  0  0  0  0  0  0  0  0  0  0
  134.2849   80.2289  225.5175 H   0  0  0  0  0  0  0  0  0  0  0  0
  133.8399   81.9635  225.6148 H   0  0  0  0  0  0  0  0  0  0  0  0
  134.8851   77.8138  223.9900 H   0  0  0  0  0  0  0  0  0  0  0  0
  134.5976   77.1952  222.3372 H   0  0  0  0  0  0  0  0  0  0  0  0
  136.4001   75.9153  224.4640 H   0  0  0  0  0  0  0  0  0  0  0  0
  134.7931   75.3174  223.9532 H   0  0  0  0  0  0  0  0  0  0  0  0
  134.9684   73.7517  224.2454 H   0  0  0  0  0  0  0  0  0  0  0  0
  135.2205   71.3551  224.8721 H   0  0  0  0  0  0  0  0  0  0  0  0
  1  2  1  0
  2  3  2  0
  2  4  2  0
  2  5  1  0
  5  6  2  0
  6  7  1  0
  7  8  2  0
  8  9  1  0
  9 10  1  0
 10 11  1  0
 11 12  1  0
 12 13  1  0
 13 14  2  0
 14 15  1  0
 15 16  1  0
 16 17  1  0
 17 18  1  0
 18 19  1  0
 19 20  1  0
 20 21  1  0
 20 22  1  0
 22 23  1  0
 15 24  2  0
 24 25  1  0
 25 26  1  0
 26 27  1  0
 27 28  1  0
 28 29  1  0
 29 30  2  0
 30 31  1  0
 31 32  2  0
 32 33  1  0
 33 34  2  0
 34 35  1  0
 25 36  2  0
 12 37  1  0
 37 38  1  0
  8 39  1  0
 39 40  2  0
 40  5  1  0
 38  9  1  0
 36 13  1  0
 23 17  1  0
 35 26  1  0
 34 29  1  0
  1 41  1  0
  1 42  1  0
  1 43  1  0
  6 44  1  0
  7 45  1  0
  9 46  1  0
 10 47  1  0
 10 48  1  0
 11 49  1  0
 11 50  1  0
 16 51  1  0
 17 52  1  6
 18 53  1  0
 18 54  1  0
 19 55  1  0
 19 56  1  0
 20 57  1  6
 21 58  1  0
 21 59  1  0
 22 60  1  0
 22 61  1  0
 23 62  1  0
 23 63  1  0
 27 64  1  0
 27 65  1  0
 28 66  1  0
 28 67  1  0
 30 68  1  0
 31 69  1  0
 32 70  1  0
 33 71  1  0
 35 72  1  0
 35 73  1  0
 37 74  1  0
 37 75  1  0
 38 76  1  0
 38 77  1  0
 39 78  1  0
 40 79  1  0
M  END
>  <smiles>  (36) 
CS(=O)(=O)c1ccc(C2CCN(c3nc(N[C@H]4CC[C@H](N)CC4)nc(N4CCc5ccccc5C4)n3)CC2)cc1

>  <score_type>  (36) 
oracle

>  <origin>  (36) 
autodockgpu

>  <m_score__min__energy>  (36) 
-10.390000000000001

>  <m_primary>  (36) 
energy

>  <rmsd>  (36) 
5.786417411873092

>  <m_score__min__rmsd>  (36) 
5.786417411873092

>  <meeko>  (36) 
{"free_energy": -8.37, "intermolecular_energy": -10.46, "internal_energy": -1.95, "cluster_size": 2, "cluster_id": 11, "rank_in_cluster": 2}

>  <energy>  (36) 
-9.23

>  <cluster_rmsd>  (36) 
0.75

>  <cluster>  (36) 
4

$$$$

     RDKit          3D

 79 84  0  0  0  0  0  0  0  0999 V2000
  144.0620   82.8030  216.4930 C   0  0  0  0  0  0  0  0  0  0  0  0
  142.3880   82.6730  217.0740 S   0  0  0  0  0  0  0  0  0  0  0  0
  142.0600   83.9370  217.8470 O   0  0  0  0  0  0  0  0  0  0  0  0
  141.4600   82.5350  215.8800 O   0  0  0  0  0  0  0  0  0  0  0  0
  142.1670   81.3310  218.1710 C   0  0  0  0  0  0  0  0  0  0  0  0
  141.6600   81.4730  219.4450 C   0  0  0  0  0  0  0  0  0  0  0  0
  141.4990   80.3940  220.2890 C   0  0  0  0  0  0  0  0  0  0  0  0
  141.8650   79.1460  219.8150 C   0  0  0  0  0  0  0  0  0  0  0  0
  141.7410   77.9050  220.6230 C   0  0  0  0  0  0  0  0  0  0  0  0
  141.4720   76.7250  219.7100 C   0  0  0  0  0  0  0  0  0  0  0  0
  141.5290   75.4840  220.5710 C   0  0  0  0  0  0  0  0  0  0  0  0
  140.5920   75.5830  221.6910 N   0  0  0  0  0  0  0  0  0  0  0  0
  139.6180   74.5740  221.9450 C   0  0  0  0  0  0  0  0  0  0  0  0
  138.3220   74.7480  221.6330 N   0  0  0  0  0  0  0  0  0  0  0  0
  137.3850   73.7990  221.8710 C   0  0  0  0  0  0  0  0  0  0  0  0
  136.0200   74.0050  221.5250 N   0  0  0  0  0  0  0  0  0  0  0  0
  135.1360   74.8350  222.3010 C   0  0  1  0  0  0  0  0  0  0  0  0
  133.8740   74.1260  222.7070 C   0  0  0  0  0  0  0  0  0  0  0  0
  134.0610   73.2830  223.9470 C   0  0  0  0  0  0  0  0  0  0  0  0
  134.7090   74.0650  225.0650 C   0  0  2  0  0  0  0  0  0  0  0  0
  133.9650   74.0860  226.2840 N   0  0  0  0  0  0  0  0  0  0  0  0
  134.9880   75.4960  224.6480 C   0  0  0  0  0  0  0  0  0  0  0  0
  135.8920   75.4320  223.4620 C   0  0  0  0  0  0  0  0  0  0  0  0
  137.7970   72.6380  222.4460 N   0  0  0  0  0  0  0  0  0  0  0  0
  139.0850   72.4250  222.7730 C   0  0  0  0  0  0  0  0  0  0  0  0
  139.4840   71.1980  223.3740 N   0  0  0  0  0  0  0  0  0  0  0  0
  138.6740   70.0390  223.1340 C   0  0  0  0  0  0  0  0  0  0  0  0
  139.0330   68.8410  223.9520 C   0  0  0  0  0  0  0  0  0  0  0  0
  139.6210   69.1830  225.2730 C   0  0  0  0  0  0  0  0  0  0  0  0
  139.3440   68.3630  226.3270 C   0  0  0  0  0  0  0  0  0  0  0  0
  139.9050   68.7020  227.5600 C   0  0  0  0  0  0  0  0  0  0  0  0
  140.7000   69.8150  227.6880 C   0  0  0  0  0  0  0  0  0  0  0  0
  140.9680   70.6300  226.6100 C   0  0  0  0  0  0  0  0  0  0  0  0
  140.4210   70.3050  225.3950 C   0  0  0  0  0  0  0  0  0  0  0  0
  140.6810   71.1560  224.1990 C   0  0  0  0  0  0  0  0  0  0  0  0
  139.9800   73.4190  222.5090 N   0  0  0  0  0  0  0  0  0  0  0  0
  140.7170   76.7620  222.5260 C   0  0  0  0  0  0  0  0  0  0  0  0
  140.6420   77.9870  221.6350 C   0  0  0  0  0  0  0  0  0  0  0  0
  142.3820   78.9780  218.5250 C   0  0  0  0  0  0  0  0  0  0  0  0
  142.5370   80.0690  217.6940 C   0  0  0  0  0  0  0  0  0  0  0  0
  144.7456   82.8561  217.3532 H   0  0  0  0  0  0  0  0  0  0  0  0
  144.3079   81.9213  215.8831 H   0  0  0  0  0  0  0  0  0  0  0  0
  144.1689   83.7122  215.8831 H   0  0  0  0  0  0  0  0  0  0  0  0
  141.3758   82.4751  219.7985 H   0  0  0  0  0  0  0  0  0  0  0  0
  141.0937   80.5208  221.3037 H   0  0  0  0  0  0  0  0  0  0  0  0
  142.6915   77.7770  221.1617 H   0  0  0  0  0  0  0  0  0  0  0  0
  140.4775   76.8213  219.2500 H   0  0  0  0  0  0  0  0  0  0  0  0
  142.2135   76.6768  218.8989 H   0  0  0  0  0  0  0  0  0  0  0  0
  141.2675   74.6084  219.9587 H   0  0  0  0  0  0  0  0  0  0  0  0
  142.5478   75.3809  220.9727 H   0  0  0  0  0  0  0  0  0  0  0  0
  135.6630   73.5250  220.6680 H   0  0  0  0  0  0  0  0  0  0  0  0
  134.7863   75.6624  221.6661 H   0  0  0  0  0  0  0  0  0  0  0  0
  133.5539   73.4737  221.8812 H   0  0  0  0  0  0  0  0  0  0  0  0
  133.1167   74.8913  222.9325 H   0  0  0  0  0  0  0  0  0  0  0  0
  134.6986   72.4216  223.6990 H   0  0  0  0  0  0  0  0  0  0  0  0
  133.0687   72.9549  224.2900 H   0  0  0  0  0  0  0  0  0  0  0  0
  135.6469   73.5254  225.2630 H   0  0  0  0  0  0  0  0  0  0  0  0
  133.0850   74.6260  226.2210 H   0  0  0  0  0  0  0  0  0  0  0  0
  133.8330   73.1630  226.7480 H   0  0  0  0  0  0  0  0  0  0  0  0
  135.4780   76.0407  225.4685 H   0  0  0  0  0  0  0  0  0  0  0  0
  134.0548   76.0249  224.4044 H   0  0  0  0  0  0  0  0  0  0  0  0
  136.7642   74.8041  223.6964 H   0  0  0  0  0  0  0  0  0  0  0  0
  136.2358   76.4438  223.2012 H   0  0  0  0  0  0  0  0  0  0  0  0
  137.6284   70.3014  223.3528 H   0  0  0  0  0  0  0  0  0  0  0  0
  138.8413   69.7574  222.0839 H   0  0  0  0  0  0  0  0  0  0  0  0
  138.1223   68.2472  224.1190 H   0  0  0  0  0  0  0  0  0  0  0  0
  139.7969   68.2822  223.3915 H   0  0  0  0  0  0  0  0  0  0  0  0
  138.7068   67.4739  226.2109 H   0  0  0  0  0  0  0  0  0  0  0  0
  139.7081   68.0706  228.4389 H   0  0  0  0  0  0  0  0  0  0  0  0
  141.1308   70.0602  228.6700 H   0  0  0  0  0  0  0  0  0  0  0  0
  141.6052   71.5197  226.7211 H   0  0  0  0  0  0  0  0  0  0  0  0
  140.9416   72.1748  224.5217 H   0  0  0  0  0  0  0  0  0  0  0  0
  141.5154   70.7345  223.6193 H   0  0  0  0  0  0  0  0  0  0  0  0
  139.8987   76.7859  223.2607 H   0  0  0  0  0  0  0  0  0  0  0  0
  141.6753   76.7442  223.0657 H   0  0  0  0  0  0  0  0  0  0  0  0
  139.6683   78.0153  221.1241 H   0  0  0  0  0  0  0  0  0  0  0  0
  140.7524   78.8999  222.2387 H   0  0  0  0  0  0  0  0  0  0  0  0
  142.6651   77.9750  218.1731 H   0  0  0  0  0  0  0  0  0  0  0  0
  142.9427   79.9488  216.6786 H   0  0  0  0  0  0  0  0  0  0  0  0
  1  2  1  0
  2  3  2  0
  2  4  2  0
  2  5  1  0
  5  6  2  0
  6  7  1  0
  7  8  2  0
  8  9  1  0
  9 10  1  0
 10 11  1  0
 11 12  1  0
 12 13  1  0
 13 14  2  0
 14 15  1  0
 15 16  1  0
 16 17  1  0
 17 18  1  0
 18 19  1  0
 19 20  1  0
 20 21  1  0
 20 22  1  0
 22 23  1  0
 15 24  2  0
 24 25  1  0
 25 26  1  0
 26 27  1  0
 27 28  1  0
 28 29  1  0
 29 30  2  0
 30 31  1  0
 31 32  2  0
 32 33  1  0
 33 34  2  0
 34 35  1  0
 25 36  2  0
 12 37  1  0
 37 38  1  0
  8 39  1  0
 39 40  2  0
 40  5  1  0
 38  9  1  0
 36 13  1  0
 23 17  1  0
 35 26  1  0
 34 29  1  0
  1 41  1  0
  1 42  1  0
  1 43  1  0
  6 44  1  0
  7 45  1  0
  9 46  1  0
 10 47  1  0
 10 48  1  0
 11 49  1  0
 11 50  1  0
 16 51  1  0
 17 52  1  6
 18 53  1  0
 18 54  1  0
 19 55  1  0
 19 56  1  0
 20 57  1  1
 21 58  1  0
 21 59  1  0
 22 60  1  0
 22 61  1  0
 23 62  1  0
 23 63  1  0
 27 64  1  0
 27 65  1  0
 28 66  1  0
 28 67  1  0
 30 68  1  0
 31 69  1  0
 32 70  1  0
 33 71  1  0
 35 72  1  0
 35 73  1  0
 37 74  1  0
 37 75  1  0
 38 76  1  0
 38 77  1  0
 39 78  1  0
 40 79  1  0
M  END
>  <smiles>  (37) 
CS(=O)(=O)c1ccc(C2CCN(c3nc(N[C@H]4CC[C@H](N)CC4)nc(N4CCc5ccccc5C4)n3)CC2)cc1

>  <score_type>  (37) 
oracle

>  <origin>  (37) 
autodockgpu

>  <m_score__min__energy>  (37) 
-10.390000000000001

>  <m_primary>  (37) 
energy

>  <rmsd>  (37) 
10.664895348876637

>  <m_score__min__rmsd>  (37) 
10.664895348876637

>  <meeko>  (37) 
{"free_energy": -9.48, "intermolecular_energy": -11.56, "internal_energy": -1.61, "cluster_size": 12, "cluster_id": 4, "rank_in_cluster": 4}

>  <energy>  (37) 
-9.19

>  <cluster_rmsd>  (37) 
0.75

>  <cluster>  (37) 
4

$$$$

     RDKit          3D

 79 84  0  0  0  0  0  0  0  0999 V2000
  136.6380   82.1240  226.9680 C   0  0  0  0  0  0  0  0  0  0  0  0
  136.3650   82.2700  225.2180 S   0  0  0  0  0  0  0  0  0  0  0  0
  134.8720   82.1620  224.9650 O   0  0  0  0  0  0  0  0  0  0  0  0
  136.8780   83.6200  224.7490 O   0  0  0  0  0  0  0  0  0  0  0  0
  137.1310   80.9840  224.3160 C   0  0  0  0  0  0  0  0  0  0  0  0
  138.4920   80.9180  224.1060 C   0  0  0  0  0  0  0  0  0  0  0  0
  139.0670   79.8900  223.3870 C   0  0  0  0  0  0  0  0  0  0  0  0
  138.2300   78.9130  222.8770 C   0  0  0  0  0  0  0  0  0  0  0  0
  138.7240   77.7550  222.0880 C   0  0  0  0  0  0  0  0  0  0  0  0
  137.8240   76.5570  222.3200 C   0  0  0  0  0  0  0  0  0  0  0  0
  138.2770   75.4780  221.3640 C   0  0  0  0  0  0  0  0  0  0  0  0
  139.7000   75.1850  221.5440 N   0  0  0  0  0  0  0  0  0  0  0  0
  140.1690   73.8610  221.7820 C   0  0  0  0  0  0  0  0  0  0  0  0
  140.8390   73.1680  220.8440 N   0  0  0  0  0  0  0  0  0  0  0  0
  141.2880   71.9080  221.0550 C   0  0  0  0  0  0  0  0  0  0  0  0
  142.0010   71.1990  220.0490 N   0  0  0  0  0  0  0  0  0  0  0  0
  143.4230   70.9830  220.1070 C   0  0  1  0  0  0  0  0  0  0  0  0
  144.0310   70.7220  218.7560 C   0  0  0  0  0  0  0  0  0  0  0  0
  144.3240   71.9990  218.0020 C   0  0  0  0  0  0  0  0  0  0  0  0
  145.1040   72.9820  218.8440 C   0  0  2  0  0  0  0  0  0  0  0  0
  146.3330   73.4180  218.2640 N   0  0  0  0  0  0  0  0  0  0  0  0
  145.3960   72.4190  220.2210 C   0  0  0  0  0  0  0  0  0  0  0  0
  144.0780   72.1180  220.8540 C   0  0  0  0  0  0  0  0  0  0  0  0
  141.0410   71.3470  222.2690 N   0  0  0  0  0  0  0  0  0  0  0  0
  140.3740   72.0070  223.2340 C   0  0  0  0  0  0  0  0  0  0  0  0
  140.1320   71.3910  224.4940 N   0  0  0  0  0  0  0  0  0  0  0  0
  140.8330   71.9020  225.6370 C   0  0  0  0  0  0  0  0  0  0  0  0
  140.6870   71.0860  226.8800 C   0  0  0  0  0  0  0  0  0  0  0  0
  140.4760   69.6400  226.6150 C   0  0  0  0  0  0  0  0  0  0  0  0
  141.0110   68.7440  227.4940 C   0  0  0  0  0  0  0  0  0  0  0  0
  140.8010   67.3900  227.2270 C   0  0  0  0  0  0  0  0  0  0  0  0
  140.0840   66.9940  226.1250 C   0  0  0  0  0  0  0  0  0  0  0  0
  139.5510   67.9140  225.2500 C   0  0  0  0  0  0  0  0  0  0  0  0
  139.7520   69.2470  225.5030 C   0  0  0  0  0  0  0  0  0  0  0  0
  139.1950   70.2820  224.5850 C   0  0  0  0  0  0  0  0  0  0  0  0
  139.9470   73.2730  222.9600 N   0  0  0  0  0  0  0  0  0  0  0  0
  140.6010   76.3190  221.4630 C   0  0  0  0  0  0  0  0  0  0  0  0
  140.1270   77.3760  222.4420 C   0  0  0  0  0  0  0  0  0  0  0  0
  136.8450   78.9610  223.0790 C   0  0  0  0  0  0  0  0  0  0  0  0
  136.2870   79.9970  223.8000 C   0  0  0  0  0  0  0  0  0  0  0  0
  135.7938   82.5755  227.5097 H   0  0  0  0  0  0  0  0  0  0  0  0
  136.7210   81.0611  227.2387 H   0  0  0  0  0  0  0  0  0  0  0  0
  137.5682   82.6451  227.2387 H   0  0  0  0  0  0  0  0  0  0  0  0
  139.1368   81.7058  224.5227 H   0  0  0  0  0  0  0  0  0  0  0  0
  140.1542   79.8485  223.2247 H   0  0  0  0  0  0  0  0  0  0  0  0
  138.7103   78.0583  221.0307 H   0  0  0  0  0  0  0  0  0  0  0  0
  137.9196   76.2072  223.3585 H   0  0  0  0  0  0  0  0  0  0  0  0
  136.7690   76.8174  222.1495 H   0  0  0  0  0  0  0  0  0  0  0  0
  137.6945   74.5637  221.5505 H   0  0  0  0  0  0  0  0  0  0  0  0
  138.1181   75.8311  220.3344 H   0  0  0  0  0  0  0  0  0  0  0  0
  141.4510   70.8260  219.2410 H   0  0  0  0  0  0  0  0  0  0  0  0
  143.6128   70.0571  220.6698 H   0  0  0  0  0  0  0  0  0  0  0  0
  143.3304   70.1147  218.1642 H   0  0  0  0  0  0  0  0  0  0  0  0
  144.9850   70.1971  218.9122 H   0  0  0  0  0  0  0  0  0  0  0  0
  143.3721   72.4626  217.7036 H   0  0  0  0  0  0  0  0  0  0  0  0
  144.9329   71.7442  217.1220 H   0  0  0  0  0  0  0  0  0  0  0  0
  144.4450   73.8602  218.9117 H   0  0  0  0  0  0  0  0  0  0  0  0
  146.2260   73.8030  217.3100 H   0  0  0  0  0  0  0  0  0  0  0  0
  146.9300   74.0190  218.8710 H   0  0  0  0  0  0  0  0  0  0  0  0
  145.9451   73.1578  220.8232 H   0  0  0  0  0  0  0  0  0  0  0  0
  146.0164   71.5132  220.1529 H   0  0  0  0  0  0  0  0  0  0  0  0
  143.4349   73.0092  220.8087 H   0  0  0  0  0  0  0  0  0  0  0  0
  144.2270   71.8338  221.9062 H   0  0  0  0  0  0  0  0  0  0  0  0
  141.9028   71.9549  225.3864 H   0  0  0  0  0  0  0  0  0  0  0  0
  140.3890   72.8838  225.8581 H   0  0  0  0  0  0  0  0  0  0  0  0
  141.6008   71.2005  227.4816 H   0  0  0  0  0  0  0  0  0  0  0  0
  139.7938   71.4533  227.4065 H   0  0  0  0  0  0  0  0  0  0  0  0
  141.5825   69.0740  228.3741 H   0  0  0  0  0  0  0  0  0  0  0  0
  141.2148   66.6313  227.9075 H   0  0  0  0  0  0  0  0  0  0  0  0
  139.9324   65.9208  225.9375 H   0  0  0  0  0  0  0  0  0  0  0  0
  138.9779   67.5878  224.3695 H   0  0  0  0  0  0  0  0  0  0  0  0
  139.0427   69.8455  223.5869 H   0  0  0  0  0  0  0  0  0  0  0  0
  138.2310   70.6421  224.9737 H   0  0  0  0  0  0  0  0  0  0  0  0
  141.6217   76.0022  221.7233 H   0  0  0  0  0  0  0  0  0  0  0  0
  140.6072   76.7253  220.4408 H   0  0  0  0  0  0  0  0  0  0  0  0
  140.1558   76.9736  223.4654 H   0  0  0  0  0  0  0  0  0  0  0  0
  140.7808   78.2590  222.3894 H   0  0  0  0  0  0  0  0  0  0  0  0
  136.2013   78.1722  222.6626 H   0  0  0  0  0  0  0  0  0  0  0  0
  135.2005   80.0448  223.9651 H   0  0  0  0  0  0  0  0  0  0  0  0
  1  2  1  0
  2  3  2  0
  2  4  2  0
  2  5  1  0
  5  6  2  0
  6  7  1  0
  7  8  2  0
  8  9  1  0
  9 10  1  0
 10 11  1  0
 11 12  1  0
 12 13  1  0
 13 14  2  0
 14 15  1  0
 15 16  1  0
 16 17  1  0
 17 18  1  0
 18 19  1  0
 19 20  1  0
 20 21  1  0
 20 22  1  0
 22 23  1  0
 15 24  2  0
 24 25  1  0
 25 26  1  0
 26 27  1  0
 27 28  1  0
 28 29  1  0
 29 30  2  0
 30 31  1  0
 31 32  2  0
 32 33  1  0
 33 34  2  0
 34 35  1  0
 25 36  2  0
 12 37  1  0
 37 38  1  0
  8 39  1  0
 39 40  2  0
 40  5  1  0
 38  9  1  0
 36 13  1  0
 23 17  1  0
 35 26  1  0
 34 29  1  0
  1 41  1  0
  1 42  1  0
  1 43  1  0
  6 44  1  0
  7 45  1  0
  9 46  1  0
 10 47  1  0
 10 48  1  0
 11 49  1  0
 11 50  1  0
 16 51  1  0
 17 52  1  1
 18 53  1  0
 18 54  1  0
 19 55  1  0
 19 56  1  0
 20 57  1  1
 21 58  1  0
 21 59  1  0
 22 60  1  0
 22 61  1  0
 23 62  1  0
 23 63  1  0
 27 64  1  0
 27 65  1  0
 28 66  1  0
 28 67  1  0
 30 68  1  0
 31 69  1  0
 32 70  1  0
 33 71  1  0
 35 72  1  0
 35 73  1  0
 37 74  1  0
 37 75  1  0
 38 76  1  0
 38 77  1  0
 39 78  1  0
 40 79  1  0
M  END
>  <smiles>  (38) 
CS(=O)(=O)c1ccc(C2CCN(c3nc(N[C@H]4CC[C@H](N)CC4)nc(N4CCc5ccccc5C4)n3)CC2)cc1

>  <score_type>  (38) 
oracle

>  <origin>  (38) 
autodockgpu

>  <m_score__min__energy>  (38) 
-10.390000000000001

>  <m_primary>  (38) 
energy

>  <rmsd>  (38) 
8.992317913245518

>  <m_score__min__rmsd>  (38) 
8.992317913245518

>  <meeko>  (38) 
{"free_energy": -10.39, "intermolecular_energy": -12.48, "internal_energy": -1.5, "cluster_size": 4, "cluster_id": 1, "rank_in_cluster": 1}

>  <energy>  (38) 
-9.14

>  <cluster_rmsd>  (38) 
0.68

>  <cluster>  (38) 
4

$$$$

     RDKit          3D

 79 84  0  0  0  0  0  0  0  0999 V2000
  132.6230   81.3970  228.0420 C   0  0  0  0  0  0  0  0  0  0  0  0
  132.3230   79.8570  228.8750 S   0  0  0  0  0  0  0  0  0  0  0  0
  133.2870   79.7600  230.0440 O   0  0  0  0  0  0  0  0  0  0  0  0
  130.8900   79.8380  229.3760 O   0  0  0  0  0  0  0  0  0  0  0  0
  132.6240   78.4760  227.8480 C   0  0  0  0  0  0  0  0  0  0  0  0
  132.2740   77.1880  228.1930 C   0  0  0  0  0  0  0  0  0  0  0  0
  132.5260   76.1170  227.3610 C   0  0  0  0  0  0  0  0  0  0  0  0
  133.1490   76.3750  226.1520 C   0  0  0  0  0  0  0  0  0  0  0  0
  133.4760   75.3100  225.1680 C   0  0  0  0  0  0  0  0  0  0  0  0
  134.3350   74.2500  225.8280 C   0  0  0  0  0  0  0  0  0  0  0  0
  134.4850   73.1250  224.8310 C   0  0  0  0  0  0  0  0  0  0  0  0
  135.0310   73.6180  223.5650 N   0  0  0  0  0  0  0  0  0  0  0  0
  136.1910   73.0390  222.9730 C   0  0  0  0  0  0  0  0  0  0  0  0
  136.5550   73.3190  221.7090 N   0  0  0  0  0  0  0  0  0  0  0  0
  137.6530   72.7750  221.1330 C   0  0  0  0  0  0  0  0  0  0  0  0
  138.0210   73.0930  219.7960 N   0  0  0  0  0  0  0  0  0  0  0  0
  139.0440   74.0550  219.4780 C   0  0  1  0  0  0  0  0  0  0  0  0
  138.7170   75.4390  219.9650 C   0  0  0  0  0  0  0  0  0  0  0  0
  139.0790   75.6370  221.4190 C   0  0  0  0  0  0  0  0  0  0  0  0
  140.4980   75.2070  221.7090 C   0  0  2  0  0  0  0  0  0  0  0  0
  141.3160   76.2160  222.2990 N   0  0  0  0  0  0  0  0  0  0  0  0
  141.1870   74.7010  220.4560 C   0  0  0  0  0  0  0  0  0  0  0  0
  140.3830   73.5480  219.9550 C   0  0  0  0  0  0  0  0  0  0  0  0
  138.3980   71.9180  221.8820 N   0  0  0  0  0  0  0  0  0  0  0  0
  138.0670   71.6120  223.1500 C   0  0  0  0  0  0  0  0  0  0  0  0
  138.8690   70.7120  223.9080 N   0  0  0  0  0  0  0  0  0  0  0  0
  138.3690   69.3840  224.1190 C   0  0  0  0  0  0  0  0  0  0  0  0
  139.1580   68.5620  225.0850 C   0  0  0  0  0  0  0  0  0  0  0  0
  139.8350   69.3700  226.1330 C   0  0  0  0  0  0  0  0  0  0  0  0
  139.9560   68.8280  227.3790 C   0  0  0  0  0  0  0  0  0  0  0  0
  140.5950   69.6040  228.3490 C   0  0  0  0  0  0  0  0  0  0  0  0
  141.0750   70.8540  228.0450 C   0  0  0  0  0  0  0  0  0  0  0  0
  140.9420   71.3820  226.7800 C   0  0  0  0  0  0  0  0  0  0  0  0
  140.3160   70.6290  225.8210 C   0  0  0  0  0  0  0  0  0  0  0  0
  140.1480   71.1570  224.4360 C   0  0  0  0  0  0  0  0  0  0  0  0
  136.9500   72.1930  223.6740 N   0  0  0  0  0  0  0  0  0  0  0  0
  134.3220   74.7230  222.9510 C   0  0  0  0  0  0  0  0  0  0  0  0
  134.2010   75.8390  223.9710 C   0  0  0  0  0  0  0  0  0  0  0  0
  133.5140   77.6740  225.7810 C   0  0  0  0  0  0  0  0  0  0  0  0
  133.2540   78.7330  226.6260 C   0  0  0  0  0  0  0  0  0  0  0  0
  132.7779   82.1922  228.7861 H   0  0  0  0  0  0  0  0  0  0  0  0
  133.5200   81.3045  227.4121 H   0  0  0  0  0  0  0  0  0  0  0  0
  131.7569   81.6479  227.4121 H   0  0  0  0  0  0  0  0  0  0  0  0
  131.7797   77.0092  229.1593 H   0  0  0  0  0  0  0  0  0  0  0  0
  132.2419   75.0938  227.6481 H   0  0  0  0  0  0  0  0  0  0  0  0
  132.5210   74.8842  224.8264 H   0  0  0  0  0  0  0  0  0  0  0  0
  135.3215   74.6657  226.0808 H   0  0  0  0  0  0  0  0  0  0  0  0
  133.8728   73.8920  226.7598 H   0  0  0  0  0  0  0  0  0  0  0  0
  135.1645   72.3653  225.2447 H   0  0  0  0  0  0  0  0  0  0  0  0
  133.4929   72.6900  224.6401 H   0  0  0  0  0  0  0  0  0  0  0  0
  137.5170   72.5960  219.0260 H   0  0  0  0  0  0  0  0  0  0  0  0
  139.0958   74.1609  218.3843 H   0  0  0  0  0  0  0  0  0  0  0  0
  137.6374   75.6109  219.8429 H   0  0  0  0  0  0  0  0  0  0  0  0
  139.3076   76.1524  219.3715 H   0  0  0  0  0  0  0  0  0  0  0  0
  138.3931   75.0427  222.0405 H   0  0  0  0  0  0  0  0  0  0  0  0
  138.9936   76.7093  221.6490 H   0  0  0  0  0  0  0  0  0  0  0  0
  140.3898   74.4007  222.4494 H   0  0  0  0  0  0  0  0  0  0  0  0
  141.8390   75.8900  223.1300 H   0  0  0  0  0  0  0  0  0  0  0  0
  141.9160   76.7540  221.6380 H   0  0  0  0  0  0  0  0  0  0  0  0
  142.2103   74.3742  220.6927 H   0  0  0  0  0  0  0  0  0  0  0  0
  141.2545   75.4937  219.6963 H   0  0  0  0  0  0  0  0  0  0  0  0
  140.2344   72.8211  220.7671 H   0  0  0  0  0  0  0  0  0  0  0  0
  140.9126   73.0576  219.1249 H   0  0  0  0  0  0  0  0  0  0  0  0
  137.3394   69.4626  224.4981 H   0  0  0  0  0  0  0  0  0  0  0  0
  138.4371   68.8704  223.1486 H   0  0  0  0  0  0  0  0  0  0  0  0
  138.4763   67.8530  225.5776 H   0  0  0  0  0  0  0  0  0  0  0  0
  139.9447   68.0515  224.5100 H   0  0  0  0  0  0  0  0  0  0  0  0
  139.5678   67.8249  227.6096 H   0  0  0  0  0  0  0  0  0  0  0  0
  140.7151   69.2089  229.3686 H   0  0  0  0  0  0  0  0  0  0  0  0
  141.5752   71.4448  228.8265 H   0  0  0  0  0  0  0  0  0  0  0  0
  141.3291   72.3844  226.5448 H   0  0  0  0  0  0  0  0  0  0  0  0
  140.1758   72.2565  224.4553 H   0  0  0  0  0  0  0  0  0  0  0  0
  140.9620   70.7846  223.7967 H   0  0  0  0  0  0  0  0  0  0  0  0
  134.8800   75.0807  222.0732 H   0  0  0  0  0  0  0  0  0  0  0  0
  133.3228   74.3975  222.6261 H   0  0  0  0  0  0  0  0  0  0  0  0
  135.2034   76.1826  224.2660 H   0  0  0  0  0  0  0  0  0  0  0  0
  133.6485   76.6866  223.5393 H   0  0  0  0  0  0  0  0  0  0  0  0
  134.0088   77.8509  224.8146 H   0  0  0  0  0  0  0  0  0  0  0  0
  133.5363   79.7582  226.3446 H   0  0  0  0  0  0  0  0  0  0  0  0
  1  2  1  0
  2  3  2  0
  2  4  2  0
  2  5  1  0
  5  6  2  0
  6  7  1  0
  7  8  2  0
  8  9  1  0
  9 10  1  0
 10 11  1  0
 11 12  1  0
 12 13  1  0
 13 14  2  0
 14 15  1  0
 15 16  1  0
 16 17  1  0
 17 18  1  0
 18 19  1  0
 19 20  1  0
 20 21  1  0
 20 22  1  0
 22 23  1  0
 15 24  2  0
 24 25  1  0
 25 26  1  0
 26 27  1  0
 27 28  1  0
 28 29  1  0
 29 30  2  0
 30 31  1  0
 31 32  2  0
 32 33  1  0
 33 34  2  0
 34 35  1  0
 25 36  2  0
 12 37  1  0
 37 38  1  0
  8 39  1  0
 39 40  2  0
 40  5  1  0
 38  9  1  0
 36 13  1  0
 23 17  1  0
 35 26  1  0
 34 29  1  0
  1 41  1  0
  1 42  1  0
  1 43  1  0
  6 44  1  0
  7 45  1  0
  9 46  1  0
 10 47  1  0
 10 48  1  0
 11 49  1  0
 11 50  1  0
 16 51  1  0
 17 52  1  6
 18 53  1  0
 18 54  1  0
 19 55  1  0
 19 56  1  0
 20 57  1  1
 21 58  1  0
 21 59  1  0
 22 60  1  0
 22 61  1  0
 23 62  1  0
 23 63  1  0
 27 64  1  0
 27 65  1  0
 28 66  1  0
 28 67  1  0
 30 68  1  0
 31 69  1  0
 32 70  1  0
 33 71  1  0
 35 72  1  0
 35 73  1  0
 37 74  1  0
 37 75  1  0
 38 76  1  0
 38 77  1  0
 39 78  1  0
 40 79  1  0
M  END
>  <smiles>  (39) 
CS(=O)(=O)c1ccc(C2CCN(c3nc(N[C@H]4CC[C@H](N)CC4)nc(N4CCc5ccccc5C4)n3)CC2)cc1

>  <score_type>  (39) 
oracle

>  <origin>  (39) 
autodockgpu

>  <m_score__min__energy>  (39) 
-10.390000000000001

>  <m_primary>  (39) 
energy

>  <rmsd>  (39) 
9.115928318218451

>  <m_score__min__rmsd>  (39) 
9.115928318218451

>  <meeko>  (39) 
{"free_energy": -9.3, "intermolecular_energy": -11.39, "internal_energy": -1.8, "cluster_size": 1, "cluster_id": 6, "rank_in_cluster": 1}

>  <energy>  (39) 
-9.35

>  <cluster_rmsd>  (39) 
0.0

>  <cluster>  (39) 
5

$$$$

     RDKit          3D

 79 84  0  0  0  0  0  0  0  0999 V2000
  141.5120   82.3270  221.7490 C   0  0  0  0  0  0  0  0  0  0  0  0
  141.8200   80.9500  222.8290 S   0  0  0  0  0  0  0  0  0  0  0  0
  143.1850   80.3800  222.4860 O   0  0  0  0  0  0  0  0  0  0  0  0
  141.8040   81.4370  224.2670 O   0  0  0  0  0  0  0  0  0  0  0  0
  140.6590   79.6620  222.6130 C   0  0  0  0  0  0  0  0  0  0  0  0
  139.3440   79.7570  223.0150 C   0  0  0  0  0  0  0  0  0  0  0  0
  138.4500   78.7220  222.8320 C   0  0  0  0  0  0  0  0  0  0  0  0
  138.9160   77.5700  222.2230 C   0  0  0  0  0  0  0  0  0  0  0  0
  138.0560   76.3850  221.9680 C   0  0  0  0  0  0  0  0  0  0  0  0
  137.1660   76.1320  223.1690 C   0  0  0  0  0  0  0  0  0  0  0  0
  136.2070   75.0310  222.7780 C   0  0  0  0  0  0  0  0  0  0  0  0
  136.9320   73.8430  222.3250 N   0  0  0  0  0  0  0  0  0  0  0  0
  136.6980   72.5580  222.8970 C   0  0  0  0  0  0  0  0  0  0  0  0
  135.4760   71.9970  222.8990 N   0  0  0  0  0  0  0  0  0  0  0  0
  135.2380   70.7790  223.4400 C   0  0  0  0  0  0  0  0  0  0  0  0
  133.9370   70.2030  223.4230 N   0  0  0  0  0  0  0  0  0  0  0  0
  132.8610   70.6850  224.2500 C   0  0  1  0  0  0  0  0  0  0  0  0
  133.1080   70.4650  225.7170 C   0  0  0  0  0  0  0  0  0  0  0  0
  133.9700   71.5490  226.3240 C   0  0  0  0  0  0  0  0  0  0  0  0
  133.4530   72.9290  225.9910 C   0  0  2  0  0  0  0  0  0  0  0  0
  133.1880   73.7540  227.1250 N   0  0  0  0  0  0  0  0  0  0  0  0
  132.1970   72.8590  225.1440 C   0  0  0  0  0  0  0  0  0  0  0  0
  132.5550   72.1200  223.8980 C   0  0  0  0  0  0  0  0  0  0  0  0
  136.2900   70.1200  223.9950 N   0  0  0  0  0  0  0  0  0  0  0  0
  137.5280   70.6470  224.0130 C   0  0  0  0  0  0  0  0  0  0  0  0
  138.6090   69.9320  224.6010 N   0  0  0  0  0  0  0  0  0  0  0  0
  138.4370   68.5270  224.8340 C   0  0  0  0  0  0  0  0  0  0  0  0
  139.5230   67.8850  225.6330 C   0  0  0  0  0  0  0  0  0  0  0  0
  140.1760   68.8100  226.5940 C   0  0  0  0  0  0  0  0  0  0  0  0
  140.6040   68.2990  227.7840 C   0  0  0  0  0  0  0  0  0  0  0  0
  141.2150   69.1850  228.6730 C   0  0  0  0  0  0  0  0  0  0  0  0
  141.3700   70.5110  228.3490 C   0  0  0  0  0  0  0  0  0  0  0  0
  140.9300   71.0070  227.1420 C   0  0  0  0  0  0  0  0  0  0  0  0
  140.3290   70.1440  226.2620 C   0  0  0  0  0  0  0  0  0  0  0  0
  139.8360   70.6340  224.9420 C   0  0  0  0  0  0  0  0  0  0  0  0
  137.7030   71.8780  223.4520 N   0  0  0  0  0  0  0  0  0  0  0  0
  137.8970   74.0500  221.2630 C   0  0  0  0  0  0  0  0  0  0  0  0
  138.8510   75.1480  221.6920 C   0  0  0  0  0  0  0  0  0  0  0  0
  140.2480   77.4510  221.8080 C   0  0  0  0  0  0  0  0  0  0  0  0
  141.1280   78.4960  221.9990 C   0  0  0  0  0  0  0  0  0  0  0  0
  141.3108   83.2263  222.3497 H   0  0  0  0  0  0  0  0  0  0  0  0
  142.3937   82.4996  221.1144 H   0  0  0  0  0  0  0  0  0  0  0  0
  140.6407   82.1075  221.1144 H   0  0  0  0  0  0  0  0  0  0  0  0
  138.9975   80.6840  223.4952 H   0  0  0  0  0  0  0  0  0  0  0  0
  137.4033   78.8095  223.1588 H   0  0  0  0  0  0  0  0  0  0  0  0
  137.4560   76.6103  221.0740 H   0  0  0  0  0  0  0  0  0  0  0  0
  137.7731   75.8171  224.0305 H   0  0  0  0  0  0  0  0  0  0  0  0
  136.6231   77.0443  223.4570 H   0  0  0  0  0  0  0  0  0  0  0  0
  135.5892   74.7656  223.6485 H   0  0  0  0  0  0  0  0  0  0  0  0
  135.5746   75.3922  221.9536 H   0  0  0  0  0  0  0  0  0  0  0  0
  133.7740   69.3980  222.7760 H   0  0  0  0  0  0  0  0  0  0  0  0
  131.9617   70.0885  224.0368 H   0  0  0  0  0  0  0  0  0  0  0  0
  133.6127   69.4966  225.8492 H   0  0  0  0  0  0  0  0  0  0  0  0
  132.1342   70.4844  226.2283 H   0  0  0  0  0  0  0  0  0  0  0  0
  134.9941   71.4490  225.9352 H   0  0  0  0  0  0  0  0  0  0  0  0
  133.9489   71.4305  227.4174 H   0  0  0  0  0  0  0  0  0  0  0  0
  134.2765   73.3967  225.4314 H   0  0  0  0  0  0  0  0  0  0  0  0
  133.2010   73.2400  228.0220 H   0  0  0  0  0  0  0  0  0  0  0  0
  133.7270   74.6450  227.1700 H   0  0  0  0  0  0  0  0  0  0  0  0
  131.8510   73.8733  224.8960 H   0  0  0  0  0  0  0  0  0  0  0  0
  131.3856   72.3496  225.6845 H   0  0  0  0  0  0  0  0  0  0  0  0
  133.4391   72.5831  223.4354 H   0  0  0  0  0  0  0  0  0  0  0  0
  131.7153   72.1582  223.1885 H   0  0  0  0  0  0  0  0  0  0  0  0
  137.4874   68.3832  225.3704 H   0  0  0  0  0  0  0  0  0  0  0  0
  138.4555   68.0456  223.8451 H   0  0  0  0  0  0  0  0  0  0  0  0
  139.0908   67.0451  226.1967 H   0  0  0  0  0  0  0  0  0  0  0  0
  140.2964   67.5563  224.9232 H   0  0  0  0  0  0  0  0  0  0  0  0
  140.4734   67.2354  228.0323 H   0  0  0  0  0  0  0  0  0  0  0  0
  141.5766   68.8171  229.6445 H   0  0  0  0  0  0  0  0  0  0  0  0
  141.8545   71.1891  229.0669 H   0  0  0  0  0  0  0  0  0  0  0  0
  141.0576   72.0701  226.8898 H   0  0  0  0  0  0  0  0  0  0  0  0
  139.6379   71.7144  225.0009 H   0  0  0  0  0  0  0  0  0  0  0  0
  140.5967   70.4465  224.1699 H   0  0  0  0  0  0  0  0  0  0  0  0
  138.4569   73.1204  221.0831 H   0  0  0  0  0  0  0  0  0  0  0  0
  137.3820   74.3376  220.3345 H   0  0  0  0  0  0  0  0  0  0  0  0
  139.3864   74.8400  222.6022 H   0  0  0  0  0  0  0  0  0  0  0  0
  139.5859   75.3414  220.8967 H   0  0  0  0  0  0  0  0  0  0  0  0
  140.5932   76.5229  221.3290 H   0  0  0  0  0  0  0  0  0  0  0  0
  142.1761   78.4141  221.6754 H   0  0  0  0  0  0  0  0  0  0  0  0
  1  2  1  0
  2  3  2  0
  2  4  2  0
  2  5  1  0
  5  6  2  0
  6  7  1  0
  7  8  2  0
  8  9  1  0
  9 10  1  0
 10 11  1  0
 11 12  1  0
 12 13  1  0
 13 14  2  0
 14 15  1  0
 15 16  1  0
 16 17  1  0
 17 18  1  0
 18 19  1  0
 19 20  1  0
 20 21  1  0
 20 22  1  0
 22 23  1  0
 15 24  2  0
 24 25  1  0
 25 26  1  0
 26 27  1  0
 27 28  1  0
 28 29  1  0
 29 30  2  0
 30 31  1  0
 31 32  2  0
 32 33  1  0
 33 34  2  0
 34 35  1  0
 25 36  2  0
 12 37  1  0
 37 38  1  0
  8 39  1  0
 39 40  2  0
 40  5  1  0
 38  9  1  0
 36 13  1  0
 23 17  1  0
 35 26  1  0
 34 29  1  0
  1 41  1  0
  1 42  1  0
  1 43  1  0
  6 44  1  0
  7 45  1  0
  9 46  1  0
 10 47  1  0
 10 48  1  0
 11 49  1  0
 11 50  1  0
 16 51  1  0
 17 52  1  6
 18 53  1  0
 18 54  1  0
 19 55  1  0
 19 56  1  0
 20 57  1  6
 21 58  1  0
 21 59  1  0
 22 60  1  0
 22 61  1  0
 23 62  1  0
 23 63  1  0
 27 64  1  0
 27 65  1  0
 28 66  1  0
 28 67  1  0
 30 68  1  0
 31 69  1  0
 32 70  1  0
 33 71  1  0
 35 72  1  0
 35 73  1  0
 37 74  1  0
 37 75  1  0
 38 76  1  0
 38 77  1  0
 39 78  1  0
 40 79  1  0
M  END
>  <smiles>  (40) 
CS(=O)(=O)c1ccc(C2CCN(c3nc(N[C@H]4CC[C@H](N)CC4)nc(N4CCc5ccccc5C4)n3)CC2)cc1

>  <score_type>  (40) 
oracle

>  <origin>  (40) 
autodockgpu

>  <m_score__min__energy>  (40) 
-10.390000000000001

>  <m_primary>  (40) 
energy

>  <rmsd>  (40) 
8.037737268126799

>  <m_score__min__rmsd>  (40) 
8.037737268126799

>  <meeko>  (40) 
{"free_energy": -10.09, "intermolecular_energy": -12.17, "internal_energy": -1.78, "cluster_size": 18, "cluster_id": 2, "rank_in_cluster": 9}

>  <energy>  (40) 
-9.28

>  <cluster_rmsd>  (40) 
1.57

>  <cluster>  (40) 
5

$$$$

     RDKit          3D

 79 84  0  0  0  0  0  0  0  0999 V2000
  142.1620   81.2600  223.5360 C   0  0  0  0  0  0  0  0  0  0  0  0
  141.0400   81.1890  222.1600 S   0  0  0  0  0  0  0  0  0  0  0  0
  140.0450   82.3250  222.3050 O   0  0  0  0  0  0  0  0  0  0  0  0
  141.8290   81.3460  220.8720 O   0  0  0  0  0  0  0  0  0  0  0  0
  140.1200   79.7030  222.1290 C   0  0  0  0  0  0  0  0  0  0  0  0
  140.5790   78.5210  222.6700 C   0  0  0  0  0  0  0  0  0  0  0  0
  139.8300   77.3630  222.6280 C   0  0  0  0  0  0  0  0  0  0  0  0
  138.5870   77.4220  222.0210 C   0  0  0  0  0  0  0  0  0  0  0  0
  137.6840   76.2470  221.9110 C   0  0  0  0  0  0  0  0  0  0  0  0
  136.9680   76.0280  223.2300 C   0  0  0  0  0  0  0  0  0  0  0  0
  135.9490   74.9370  222.9990 C   0  0  0  0  0  0  0  0  0  0  0  0
  136.5870   73.7300  222.4700 N   0  0  0  0  0  0  0  0  0  0  0  0
  136.4180   72.4590  223.0920 C   0  0  0  0  0  0  0  0  0  0  0  0
  135.2080   71.8830  223.2080 N   0  0  0  0  0  0  0  0  0  0  0  0
  135.0320   70.6770  223.7990 C   0  0  0  0  0  0  0  0  0  0  0  0
  133.7430   70.0850  223.9030 N   0  0  0  0  0  0  0  0  0  0  0  0
  132.8630   70.3250  225.0180 C   0  0  1  0  0  0  0  0  0  0  0  0
  133.6000   70.4850  226.3190 C   0  0  0  0  0  0  0  0  0  0  0  0
  134.1210   71.8900  226.5160 C   0  0  0  0  0  0  0  0  0  0  0  0
  133.0430   72.9250  226.2910 C   0  0  2  0  0  0  0  0  0  0  0  0
  132.8340   73.8130  227.3890 N   0  0  0  0  0  0  0  0  0  0  0  0
  131.7190   72.2760  225.9400 C   0  0  0  0  0  0  0  0  0  0  0  0
  131.9440   71.4780  224.6990 C   0  0  0  0  0  0  0  0  0  0  0  0
  136.1360   70.0470  224.2840 N   0  0  0  0  0  0  0  0  0  0  0  0
  137.3630   70.5900  224.1880 C   0  0  0  0  0  0  0  0  0  0  0  0
  138.4990   69.9040  224.7050 N   0  0  0  0  0  0  0  0  0  0  0  0
  138.3950   68.4870  224.9000 C   0  0  0  0  0  0  0  0  0  0  0  0
  139.5430   67.8680  225.6300 C   0  0  0  0  0  0  0  0  0  0  0  0
  140.1980   68.7910  226.5910 C   0  0  0  0  0  0  0  0  0  0  0  0
  140.7010   68.2630  227.7440 C   0  0  0  0  0  0  0  0  0  0  0  0
  141.3130   69.1480  228.6340 C   0  0  0  0  0  0  0  0  0  0  0  0
  141.3980   70.4880  228.3450 C   0  0  0  0  0  0  0  0  0  0  0  0
  140.8840   71.0010  227.1750 C   0  0  0  0  0  0  0  0  0  0  0  0
  140.2810   70.1400  226.2950 C   0  0  0  0  0  0  0  0  0  0  0  0
  139.7100   70.6480  225.0140 C   0  0  0  0  0  0  0  0  0  0  0  0
  137.4750   71.8070  223.5820 N   0  0  0  0  0  0  0  0  0  0  0  0
  137.3950   73.9040  221.2790 C   0  0  0  0  0  0  0  0  0  0  0  0
  138.4150   74.9930  221.5490 C   0  0  0  0  0  0  0  0  0  0  0  0
  138.1020   78.6120  221.4650 C   0  0  0  0  0  0  0  0  0  0  0  0
  138.8650   79.7600  221.5150 C   0  0  0  0  0  0  0  0  0  0  0  0
  141.5920   81.2239  224.4761 H   0  0  0  0  0  0  0  0  0  0  0  0
  142.8510   80.4037  223.4918 H   0  0  0  0  0  0  0  0  0  0  0  0
  142.7376   82.1964  223.4918 H   0  0  0  0  0  0  0  0  0  0  0  0
  141.5694   78.5005  223.1482 H   0  0  0  0  0  0  0  0  0  0  0  0
  140.2074   76.4253  223.0618 H   0  0  0  0  0  0  0  0  0  0  0  0
  136.9677   76.4672  221.1058 H   0  0  0  0  0  0  0  0  0  0  0  0
  137.6860   75.7177  224.0034 H   0  0  0  0  0  0  0  0  0  0  0  0
  136.4833   76.9537  223.5739 H   0  0  0  0  0  0  0  0  0  0  0  0
  135.4570   74.6958  223.9528 H   0  0  0  0  0  0  0  0  0  0  0  0
  135.2111   75.2947  222.2658 H   0  0  0  0  0  0  0  0  0  0  0  0
  133.4380   69.4530  223.1270 H   0  0  0  0  0  0  0  0  0  0  0  0
  132.2392   69.4319  225.1706 H   0  0  0  0  0  0  0  0  0  0  0  0
  134.4506   69.7877  226.3314 H   0  0  0  0  0  0  0  0  0  0  0  0
  132.8927   70.2718  227.1340 H   0  0  0  0  0  0  0  0  0  0  0  0
  134.9405   72.0689  225.8044 H   0  0  0  0  0  0  0  0  0  0  0  0
  134.4720   71.9821  227.5544 H   0  0  0  0  0  0  0  0  0  0  0  0
  133.4186   73.5265  225.4501 H   0  0  0  0  0  0  0  0  0  0  0  0
  132.1260   74.5430  227.2010 H   0  0  0  0  0  0  0  0  0  0  0  0
  132.7000   73.3590  228.3170 H   0  0  0  0  0  0  0  0  0  0  0  0
  130.9553   73.0471  225.7608 H   0  0  0  0  0  0  0  0  0  0  0  0
  131.3638   71.6360  226.7611 H   0  0  0  0  0  0  0  0  0  0  0  0
  132.4043   72.1148  223.9292 H   0  0  0  0  0  0  0  0  0  0  0  0
  130.9836   71.0955  224.3232 H   0  0  0  0  0  0  0  0  0  0  0  0
  137.4775   68.2870  225.4729 H   0  0  0  0  0  0  0  0  0  0  0  0
  138.3875   68.0365  223.8965 H   0  0  0  0  0  0  0  0  0  0  0  0
  139.1726   66.9930  226.1843 H   0  0  0  0  0  0  0  0  0  0  0  0
  140.2970   67.5949  224.8771 H   0  0  0  0  0  0  0  0  0  0  0  0
  140.6277   67.1875  227.9629 H   0  0  0  0  0  0  0  0  0  0  0  0
  141.7318   68.7676  229.5773 H   0  0  0  0  0  0  0  0  0  0  0  0
  141.8861   71.1645  229.0620 H   0  0  0  0  0  0  0  0  0  0  0  0
  140.9555   72.0758  226.9519 H   0  0  0  0  0  0  0  0  0  0  0  0
  139.4700   71.7167  225.1158 H   0  0  0  0  0  0  0  0  0  0  0  0
  140.4425   70.5171  224.2039 H   0  0  0  0  0  0  0  0  0  0  0  0
  137.9110   72.9626  221.0391 H   0  0  0  0  0  0  0  0  0  0  0  0
  136.7581   74.1848  220.4273 H   0  0  0  0  0  0  0  0  0  0  0  0
  139.0690   74.6913  222.3804 H   0  0  0  0  0  0  0  0  0  0  0  0
  139.0332   75.1612  220.6548 H   0  0  0  0  0  0  0  0  0  0  0  0
  137.1112   78.6314  220.9877 H   0  0  0  0  0  0  0  0  0  0  0  0
  138.4941   80.7003  221.0811 H   0  0  0  0  0  0  0  0  0  0  0  0
  1  2  1  0
  2  3  2  0
  2  4  2  0
  2  5  1  0
  5  6  2  0
  6  7  1  0
  7  8  2  0
  8  9  1  0
  9 10  1  0
 10 11  1  0
 11 12  1  0
 12 13  1  0
 13 14  2  0
 14 15  1  0
 15 16  1  0
 16 17  1  0
 17 18  1  0
 18 19  1  0
 19 20  1  0
 20 21  1  0
 20 22  1  0
 22 23  1  0
 15 24  2  0
 24 25  1  0
 25 26  1  0
 26 27  1  0
 27 28  1  0
 28 29  1  0
 29 30  2  0
 30 31  1  0
 31 32  2  0
 32 33  1  0
 33 34  2  0
 34 35  1  0
 25 36  2  0
 12 37  1  0
 37 38  1  0
  8 39  1  0
 39 40  2  0
 40  5  1  0
 38  9  1  0
 36 13  1  0
 23 17  1  0
 35 26  1  0
 34 29  1  0
  1 41  1  0
  1 42  1  0
  1 43  1  0
  6 44  1  0
  7 45  1  0
  9 46  1  0
 10 47  1  0
 10 48  1  0
 11 49  1  0
 11 50  1  0
 16 51  1  0
 17 52  1  1
 18 53  1  0
 18 54  1  0
 19 55  1  0
 19 56  1  0
 20 57  1  6
 21 58  1  0
 21 59  1  0
 22 60  1  0
 22 61  1  0
 23 62  1  0
 23 63  1  0
 27 64  1  0
 27 65  1  0
 28 66  1  0
 28 67  1  0
 30 68  1  0
 31 69  1  0
 32 70  1  0
 33 71  1  0
 35 72  1  0
 35 73  1  0
 37 74  1  0
 37 75  1  0
 38 76  1  0
 38 77  1  0
 39 78  1  0
 40 79  1  0
M  END
>  <smiles>  (41) 
CS(=O)(=O)c1ccc(C2CCN(c3nc(N[C@H]4CC[C@H](N)CC4)nc(N4CCc5ccccc5C4)n3)CC2)cc1

>  <score_type>  (41) 
oracle

>  <origin>  (41) 
autodockgpu

>  <m_score__min__energy>  (41) 
-10.390000000000001

>  <m_primary>  (41) 
energy

>  <rmsd>  (41) 
8.261066417404619

>  <m_score__min__rmsd>  (41) 
8.261066417404619

>  <meeko>  (41) 
{"free_energy": -9.49, "intermolecular_energy": -11.57, "internal_energy": -1.72, "cluster_size": 18, "cluster_id": 2, "rank_in_cluster": 18}

>  <energy>  (41) 
-8.93

>  <cluster_rmsd>  (41) 
1.63

>  <cluster>  (41) 
5

$$$$

     RDKit          3D

 79 84  0  0  0  0  0  0  0  0999 V2000
  140.9790   81.1770  223.0920 C   0  0  0  0  0  0  0  0  0  0  0  0
  142.0620   80.2110  222.0670 S   0  0  0  0  0  0  0  0  0  0  0  0
  142.1540   80.8880  220.7120 O   0  0  0  0  0  0  0  0  0  0  0  0
  143.4330   80.1520  222.7160 O   0  0  0  0  0  0  0  0  0  0  0  0
  141.4520   78.5960  221.7920 C   0  0  0  0  0  0  0  0  0  0  0  0
  141.8720   77.7990  220.7490 C   0  0  0  0  0  0  0  0  0  0  0  0
  141.3710   76.5290  220.5560 C   0  0  0  0  0  0  0  0  0  0  0  0
  140.4220   76.0690  221.4530 C   0  0  0  0  0  0  0  0  0  0  0  0
  139.8050   74.7200  221.3570 C   0  0  0  0  0  0  0  0  0  0  0  0
  138.4540   74.7260  222.0460 C   0  0  0  0  0  0  0  0  0  0  0  0
  137.8130   73.3870  221.7640 C   0  0  0  0  0  0  0  0  0  0  0  0
  138.6840   72.2910  222.1910 N   0  0  0  0  0  0  0  0  0  0  0  0
  138.2260   71.2680  223.0710 C   0  0  0  0  0  0  0  0  0  0  0  0
  139.0670   70.3650  223.6050 N   0  0  0  0  0  0  0  0  0  0  0  0
  138.6450   69.3860  224.4410 C   0  0  0  0  0  0  0  0  0  0  0  0
  139.5560   68.4460  224.9980 N   0  0  0  0  0  0  0  0  0  0  0  0
  140.3830   68.7460  226.1380 C   0  0  1  0  0  0  0  0  0  0  0  0
  141.5720   69.5990  225.7900 C   0  0  0  0  0  0  0  0  0  0  0  0
  141.2280   71.0700  225.7390 C   0  0  0  0  0  0  0  0  0  0  0  0
  140.4960   71.5190  226.9820 C   0  0  2  0  0  0  0  0  0  0  0  0
  141.1090   72.6070  227.6720 N   0  0  0  0  0  0  0  0  0  0  0  0
  140.3120   70.3730  227.9580 C   0  0  0  0  0  0  0  0  0  0  0  0
  139.5330   69.3180  227.2450 C   0  0  0  0  0  0  0  0  0  0  0  0
  137.3180   69.3380  224.7350 N   0  0  0  0  0  0  0  0  0  0  0  0
  136.4440   70.2230  224.2210 C   0  0  0  0  0  0  0  0  0  0  0  0
  135.0610   70.1470  224.5500 N   0  0  0  0  0  0  0  0  0  0  0  0
  134.1140   70.1760  223.4730 C   0  0  0  0  0  0  0  0  0  0  0  0
  132.6860   70.2960  223.8970 C   0  0  0  0  0  0  0  0  0  0  0  0
  132.5090   71.0270  225.1770 C   0  0  0  0  0  0  0  0  0  0  0  0
  131.3950   71.8010  225.3240 C   0  0  0  0  0  0  0  0  0  0  0  0
  131.2480   72.4810  226.5350 C   0  0  0  0  0  0  0  0  0  0  0  0
  132.1930   72.3640  227.5250 C   0  0  0  0  0  0  0  0  0  0  0  0
  133.3100   71.5770  227.3580 C   0  0  0  0  0  0  0  0  0  0  0  0
  133.4640   70.9060  226.1720 C   0  0  0  0  0  0  0  0  0  0  0  0
  134.6570   70.0410  225.9430 C   0  0  0  0  0  0  0  0  0  0  0  0
  136.9310   71.1850  223.3850 N   0  0  0  0  0  0  0  0  0  0  0  0
  140.0350   72.3060  221.6640 C   0  0  0  0  0  0  0  0  0  0  0  0
  140.6540   73.6550  221.9750 C   0  0  0  0  0  0  0  0  0  0  0  0
  139.9810   76.8610  222.5190 C   0  0  0  0  0  0  0  0  0  0  0  0
  140.4930   78.1300  222.6960 C   0  0  0  0  0  0  0  0  0  0  0  0
  141.2020   80.9781  224.1506 H   0  0  0  0  0  0  0  0  0  0  0  0
  141.1301   82.2457  222.8800 H   0  0  0  0  0  0  0  0  0  0  0  0
  139.9344   80.9052  222.8800 H   0  0  0  0  0  0  0  0  0  0  0  0
  142.6282   78.1870  220.0508 H   0  0  0  0  0  0  0  0  0  0  0  0
  141.7133   75.9032  219.7186 H   0  0  0  0  0  0  0  0  0  0  0  0
  139.6994   74.4910  220.2863 H   0  0  0  0  0  0  0  0  0  0  0  0
  138.5825   74.8634  223.1298 H   0  0  0  0  0  0  0  0  0  0  0  0
  137.8260   75.5496  221.6754 H   0  0  0  0  0  0  0  0  0  0  0  0
  136.8594   73.3223  222.3085 H   0  0  0  0  0  0  0  0  0  0  0  0
  137.6434   73.2996  220.6807 H   0  0  0  0  0  0  0  0  0  0  0  0
  139.6130   67.5040  224.5480 H   0  0  0  0  0  0  0  0  0  0  0  0
  140.8245   67.8079  226.5055 H   0  0  0  0  0  0  0  0  0  0  0  0
  141.9525   69.2904  224.8051 H   0  0  0  0  0  0  0  0  0  0  0  0
  142.3288   69.4576  226.5756 H   0  0  0  0  0  0  0  0  0  0  0  0
  140.5892   71.2560  224.8630 H   0  0  0  0  0  0  0  0  0  0  0  0
  142.1673   71.6384  225.6716 H   0  0  0  0  0  0  0  0  0  0  0  0
  139.5243   71.8748  226.6089 H   0  0  0  0  0  0  0  0  0  0  0  0
  141.7700   73.1480  227.0880 H   0  0  0  0  0  0  0  0  0  0  0  0
  140.4620   73.2210  228.2120 H   0  0  0  0  0  0  0  0  0  0  0  0
  139.7598   70.7165  228.8452 H   0  0  0  0  0  0  0  0  0  0  0  0
  141.2836   69.9841  228.2968 H   0  0  0  0  0  0  0  0  0  0  0  0
  138.6194   69.7583  226.8189 H   0  0  0  0  0  0  0  0  0  0  0  0
  139.2539   68.5209  227.9498 H   0  0  0  0  0  0  0  0  0  0  0  0
  134.3534   71.0357  222.8299 H   0  0  0  0  0  0  0  0  0  0  0  0
  134.2033   69.2091  222.9561 H   0  0  0  0  0  0  0  0  0  0  0  0
  132.1329   70.8309  223.1109 H   0  0  0  0  0  0  0  0  0  0  0  0
  132.3070   69.2750  224.0518 H   0  0  0  0  0  0  0  0  0  0  0  0
  130.6453   71.8857  224.5235 H   0  0  0  0  0  0  0  0  0  0  0  0
  130.3656   73.1174  226.6978 H   0  0  0  0  0  0  0  0  0  0  0  0
  132.0544   72.9099  228.4699 H   0  0  0  0  0  0  0  0  0  0  0  0
  134.0611   71.4885  228.1568 H   0  0  0  0  0  0  0  0  0  0  0  0
  135.4815   70.3713  226.5919 H   0  0  0  0  0  0  0  0  0  0  0  0
  134.4076   68.9958  226.1781 H   0  0  0  0  0  0  0  0  0  0  0  0
  140.6269   71.5078  222.1358 H   0  0  0  0  0  0  0  0  0  0  0  0
  140.0190   72.1386  220.5769 H   0  0  0  0  0  0  0  0  0  0  0  0
  140.6979   73.8009  223.0644 H   0  0  0  0  0  0  0  0  0  0  0  0
  141.6752   73.7039  221.5691 H   0  0  0  0  0  0  0  0  0  0  0  0
  139.2252   76.4714  223.2168 H   0  0  0  0  0  0  0  0  0  0  0  0
  140.1538   78.7614  223.5305 H   0  0  0  0  0  0  0  0  0  0  0  0
  1  2  1  0
  2  3  2  0
  2  4  2  0
  2  5  1  0
  5  6  2  0
  6  7  1  0
  7  8  2  0
  8  9  1  0
  9 10  1  0
 10 11  1  0
 11 12  1  0
 12 13  1  0
 13 14  2  0
 14 15  1  0
 15 16  1  0
 16 17  1  0
 17 18  1  0
 18 19  1  0
 19 20  1  0
 20 21  1  0
 20 22  1  0
 22 23  1  0
 15 24  2  0
 24 25  1  0
 25 26  1  0
 26 27  1  0
 27 28  1  0
 28 29  1  0
 29 30  2  0
 30 31  1  0
 31 32  2  0
 32 33  1  0
 33 34  2  0
 34 35  1  0
 25 36  2  0
 12 37  1  0
 37 38  1  0
  8 39  1  0
 39 40  2  0
 40  5  1  0
 38  9  1  0
 36 13  1  0
 23 17  1  0
 35 26  1  0
 34 29  1  0
  1 41  1  0
  1 42  1  0
  1 43  1  0
  6 44  1  0
  7 45  1  0
  9 46  1  0
 10 47  1  0
 10 48  1  0
 11 49  1  0
 11 50  1  0
 16 51  1  0
 17 52  1  1
 18 53  1  0
 18 54  1  0
 19 55  1  0
 19 56  1  0
 20 57  1  6
 21 58  1  0
 21 59  1  0
 22 60  1  0
 22 61  1  0
 23 62  1  0
 23 63  1  0
 27 64  1  0
 27 65  1  0
 28 66  1  0
 28 67  1  0
 30 68  1  0
 31 69  1  0
 32 70  1  0
 33 71  1  0
 35 72  1  0
 35 73  1  0
 37 74  1  0
 37 75  1  0
 38 76  1  0
 38 77  1  0
 39 78  1  0
 40 79  1  0
M  END
>  <smiles>  (42) 
CS(=O)(=O)c1ccc(C2CCN(c3nc(N[C@H]4CC[C@H](N)CC4)nc(N4CCc5ccccc5C4)n3)CC2)cc1

>  <score_type>  (42) 
oracle

>  <origin>  (42) 
autodockgpu

>  <m_score__min__energy>  (42) 
-10.390000000000001

>  <m_primary>  (42) 
energy

>  <rmsd>  (42) 
7.143821966024927

>  <m_score__min__rmsd>  (42) 
7.143821966024927

>  <meeko>  (42) 
{"free_energy": -9.81, "intermolecular_energy": -11.9, "internal_energy": -1.83, "cluster_size": 4, "cluster_id": 3, "rank_in_cluster": 1}

>  <energy>  (42) 
-9.3

>  <cluster_rmsd>  (42) 
0.0

>  <cluster>  (42) 
6

$$$$

     RDKit          3D

 79 84  0  0  0  0  0  0  0  0999 V2000
  143.0520   80.4350  223.3770 C   0  0  0  0  0  0  0  0  0  0  0  0
  141.6710   80.8520  222.3390 S   0  0  0  0  0  0  0  0  0  0  0  0
  140.8460   81.9060  223.0560 O   0  0  0  0  0  0  0  0  0  0  0  0
  142.1910   81.4020  221.0230 O   0  0  0  0  0  0  0  0  0  0  0  0
  140.6190   79.4870  222.0520 C   0  0  0  0  0  0  0  0  0  0  0  0
  140.4720   78.8960  220.8150 C   0  0  0  0  0  0  0  0  0  0  0  0
  139.6320   77.8190  220.6190 C   0  0  0  0  0  0  0  0  0  0  0  0
  138.9330   77.3410  221.7140 C   0  0  0  0  0  0  0  0  0  0  0  0
  137.9980   76.1880  221.6360 C   0  0  0  0  0  0  0  0  0  0  0  0
  137.2330   76.0610  222.9390 C   0  0  0  0  0  0  0  0  0  0  0  0
  136.1890   74.9890  222.7310 C   0  0  0  0  0  0  0  0  0  0  0  0
  136.8060   73.7370  222.2900 N   0  0  0  0  0  0  0  0  0  0  0  0
  136.5780   72.5070  222.9720 C   0  0  0  0  0  0  0  0  0  0  0  0
  135.3420   72.0010  223.1250 N   0  0  0  0  0  0  0  0  0  0  0  0
  135.1100   70.8350  223.7730 C   0  0  0  0  0  0  0  0  0  0  0  0
  133.7920   70.3170  223.9150 N   0  0  0  0  0  0  0  0  0  0  0  0
  133.0390   70.4300  225.1370 C   0  0  1  0  0  0  0  0  0  0  0  0
  133.9060   70.6950  226.3370 C   0  0  0  0  0  0  0  0  0  0  0  0
  134.2430   72.1610  226.4890 C   0  0  0  0  0  0  0  0  0  0  0  0
  133.0100   73.0310  226.4210 C   0  0  2  0  0  0  0  0  0  0  0  0
  132.8190   73.8810  227.5520 N   0  0  0  0  0  0  0  0  0  0  0  0
  131.7570   72.1980  226.2310 C   0  0  0  0  0  0  0  0  0  0  0  0
  131.9310   71.4390  224.9580 C   0  0  0  0  0  0  0  0  0  0  0  0
  136.1840   70.1720  224.2780 N   0  0  0  0  0  0  0  0  0  0  0  0
  137.4370   70.6440  224.1470 C   0  0  0  0  0  0  0  0  0  0  0  0
  138.5410   69.9250  224.6860 N   0  0  0  0  0  0  0  0  0  0  0  0
  138.3790   68.5180  224.9100 C   0  0  0  0  0  0  0  0  0  0  0  0
  139.4960   67.8690  225.6610 C   0  0  0  0  0  0  0  0  0  0  0  0
  140.1830   68.7860  226.6070 C   0  0  0  0  0  0  0  0  0  0  0  0
  140.6570   68.2630  227.7740 C   0  0  0  0  0  0  0  0  0  0  0  0
  141.2980   69.1420  228.6500 C   0  0  0  0  0  0  0  0  0  0  0  0
  141.4390   70.4710  228.3340 C   0  0  0  0  0  0  0  0  0  0  0  0
  140.9530   70.9790  227.1500 C   0  0  0  0  0  0  0  0  0  0  0  0
  140.3210   70.1240  226.2830 C   0  0  0  0  0  0  0  0  0  0  0  0
  139.7790   70.6260  224.9880 C   0  0  0  0  0  0  0  0  0  0  0  0
  137.6050   71.8240  223.4830 N   0  0  0  0  0  0  0  0  0  0  0  0
  137.6580   73.8230  221.1190 C   0  0  0  0  0  0  0  0  0  0  0  0
  138.7010   74.8960  221.3650 C   0  0  0  0  0  0  0  0  0  0  0  0
  139.0670   77.9260  222.9780 C   0  0  0  0  0  0  0  0  0  0  0  0
  139.9120   79.0020  223.1560 C   0  0  0  0  0  0  0  0  0  0  0  0
  142.7571   80.5241  224.4330 H   0  0  0  0  0  0  0  0  0  0  0  0
  143.3672   79.4016  223.1702 H   0  0  0  0  0  0  0  0  0  0  0  0
  143.8865   81.1212  223.1702 H   0  0  0  0  0  0  0  0  0  0  0  0
  141.0399   79.2939  219.9611 H   0  0  0  0  0  0  0  0  0  0  0  0
  139.5217   77.3564  219.6271 H   0  0  0  0  0  0  0  0  0  0  0  0
  137.3150   76.3856  220.7967 H   0  0  0  0  0  0  0  0  0  0  0  0
  137.9154   75.7720  223.7519 H   0  0  0  0  0  0  0  0  0  0  0  0
  136.7660   77.0174  223.2167 H   0  0  0  0  0  0  0  0  0  0  0  0
  135.6582   74.8146  223.6786 H   0  0  0  0  0  0  0  0  0  0  0  0
  135.4877   75.3277  221.9542 H   0  0  0  0  0  0  0  0  0  0  0  0
  133.3710   69.8380  223.0870 H   0  0  0  0  0  0  0  0  0  0  0  0
  132.5748   69.4563  225.3523 H   0  0  0  0  0  0  0  0  0  0  0  0
  134.8415   70.1263  226.2301 H   0  0  0  0  0  0  0  0  0  0  0  0
  133.3466   70.3838  227.2316 H   0  0  0  0  0  0  0  0  0  0  0  0
  134.9301   72.4538  225.6814 H   0  0  0  0  0  0  0  0  0  0  0  0
  134.7079   72.3040  227.4756 H   0  0  0  0  0  0  0  0  0  0  0  0
  133.1859   73.6793  225.5499 H   0  0  0  0  0  0  0  0  0  0  0  0
  132.3310   74.7650  227.3270 H   0  0  0  0  0  0  0  0  0  0  0  0
  132.4340   73.4200  228.4030 H   0  0  0  0  0  0  0  0  0  0  0  0
  130.8746   72.8515  226.1644 H   0  0  0  0  0  0  0  0  0  0  0  0
  131.6056   71.5147  227.0797 H   0  0  0  0  0  0  0  0  0  0  0  0
  132.1924   72.1342  224.1466 H   0  0  0  0  0  0  0  0  0  0  0  0
  130.9945   70.9221  224.7017 H   0  0  0  0  0  0  0  0  0  0  0  0
  137.4505   68.3672  225.4803 H   0  0  0  0  0  0  0  0  0  0  0  0
  138.3601   68.0470  223.9161 H   0  0  0  0  0  0  0  0  0  0  0  0
  139.0867   67.0223  226.2315 H   0  0  0  0  0  0  0  0  0  0  0  0
  140.2427   67.5490  224.9194 H   0  0  0  0  0  0  0  0  0  0  0  0
  140.5397   67.1961  228.0147 H   0  0  0  0  0  0  0  0  0  0  0  0
  141.6946   68.7653  229.6043 H   0  0  0  0  0  0  0  0  0  0  0  0
  141.9498   71.1423  229.0400 H   0  0  0  0  0  0  0  0  0  0  0  0
  141.0688   72.0451  226.9051 H   0  0  0  0  0  0  0  0  0  0  0  0
  139.5816   71.7054  225.0651 H   0  0  0  0  0  0  0  0  0  0  0  0
  140.5107   70.4477  224.1862 H   0  0  0  0  0  0  0  0  0  0  0  0
  138.1531   72.8557  220.9477 H   0  0  0  0  0  0  0  0  0  0  0  0
  137.0580   74.0748  220.2321 H   0  0  0  0  0  0  0  0  0  0  0  0
  139.3190   74.6208  222.2324 H   0  0  0  0  0  0  0  0  0  0  0  0
  139.3514   74.9985  220.4838 H   0  0  0  0  0  0  0  0  0  0  0  0
  138.4979   77.5275  223.8308 H   0  0  0  0  0  0  0  0  0  0  0  0
  140.0269   79.4683  224.1456 H   0  0  0  0  0  0  0  0  0  0  0  0
  1  2  1  0
  2  3  2  0
  2  4  2  0
  2  5  1  0
  5  6  2  0
  6  7  1  0
  7  8  2  0
  8  9  1  0
  9 10  1  0
 10 11  1  0
 11 12  1  0
 12 13  1  0
 13 14  2  0
 14 15  1  0
 15 16  1  0
 16 17  1  0
 17 18  1  0
 18 19  1  0
 19 20  1  0
 20 21  1  0
 20 22  1  0
 22 23  1  0
 15 24  2  0
 24 25  1  0
 25 26  1  0
 26 27  1  0
 27 28  1  0
 28 29  1  0
 29 30  2  0
 30 31  1  0
 31 32  2  0
 32 33  1  0
 33 34  2  0
 34 35  1  0
 25 36  2  0
 12 37  1  0
 37 38  1  0
  8 39  1  0
 39 40  2  0
 40  5  1  0
 38  9  1  0
 36 13  1  0
 23 17  1  0
 35 26  1  0
 34 29  1  0
  1 41  1  0
  1 42  1  0
  1 43  1  0
  6 44  1  0
  7 45  1  0
  9 46  1  0
 10 47  1  0
 10 48  1  0
 11 49  1  0
 11 50  1  0
 16 51  1  0
 17 52  1  1
 18 53  1  0
 18 54  1  0
 19 55  1  0
 19 56  1  0
 20 57  1  6
 21 58  1  0
 21 59  1  0
 22 60  1  0
 22 61  1  0
 23 62  1  0
 23 63  1  0
 27 64  1  0
 27 65  1  0
 28 66  1  0
 28 67  1  0
 30 68  1  0
 31 69  1  0
 32 70  1  0
 33 71  1  0
 35 72  1  0
 35 73  1  0
 37 74  1  0
 37 75  1  0
 38 76  1  0
 38 77  1  0
 39 78  1  0
 40 79  1  0
M  END
>  <smiles>  (43) 
CS(=O)(=O)c1ccc(C2CCN(c3nc(N[C@H]4CC[C@H](N)CC4)nc(N4CCc5ccccc5C4)n3)CC2)cc1

>  <score_type>  (43) 
oracle

>  <origin>  (43) 
autodockgpu

>  <m_score__min__energy>  (43) 
-10.390000000000001

>  <m_primary>  (43) 
energy

>  <rmsd>  (43) 
7.959393086857038

>  <m_score__min__rmsd>  (43) 
7.959393086857038

>  <meeko>  (43) 
{"free_energy": -9.61, "intermolecular_energy": -11.7, "internal_energy": -1.66, "cluster_size": 18, "cluster_id": 2, "rank_in_cluster": 17}

>  <energy>  (43) 
-9.09

>  <cluster_rmsd>  (43) 
0.0

>  <cluster>  (43) 
7

$$$$

     RDKit          3D

 79 84  0  0  0  0  0  0  0  0999 V2000
  134.8640   82.1530  225.3640 C   0  0  0  0  0  0  0  0  0  0  0  0
  136.6200   82.3470  225.1750 S   0  0  0  0  0  0  0  0  0  0  0  0
  136.8710   83.6310  224.4050 O   0  0  0  0  0  0  0  0  0  0  0  0
  137.2590   82.4290  226.5500 O   0  0  0  0  0  0  0  0  0  0  0  0
  137.3360   81.0480  224.2510 C   0  0  0  0  0  0  0  0  0  0  0  0
  138.6780   80.9940  223.9410 C   0  0  0  0  0  0  0  0  0  0  0  0
  139.2140   79.9550  223.2080 C   0  0  0  0  0  0  0  0  0  0  0  0
  138.3560   78.9550  222.7870 C   0  0  0  0  0  0  0  0  0  0  0  0
  138.8070   77.7830  221.9920 C   0  0  0  0  0  0  0  0  0  0  0  0
  137.8890   76.6040  222.2520 C   0  0  0  0  0  0  0  0  0  0  0  0
  138.2980   75.5110  221.2920 C   0  0  0  0  0  0  0  0  0  0  0  0
  139.7180   75.1910  221.4390 N   0  0  0  0  0  0  0  0  0  0  0  0
  140.1660   73.8590  221.6730 C   0  0  0  0  0  0  0  0  0  0  0  0
  140.8060   73.1500  220.7250 N   0  0  0  0  0  0  0  0  0  0  0  0
  141.2350   71.8830  220.9320 C   0  0  0  0  0  0  0  0  0  0  0  0
  141.9160   71.1570  219.9160 N   0  0  0  0  0  0  0  0  0  0  0  0
  142.9620   71.7360  219.1130 C   0  0  1  0  0  0  0  0  0  0  0  0
  143.0480   73.2310  219.2540 C   0  0  0  0  0  0  0  0  0  0  0  0
  143.8430   73.6480  220.4700 C   0  0  0  0  0  0  0  0  0  0  0  0
  145.1810   72.9500  220.5330 C   0  0  2  0  0  0  0  0  0  0  0  0
  146.3060   73.8270  220.6100 N   0  0  0  0  0  0  0  0  0  0  0  0
  145.3760   72.0240  219.3480 C   0  0  0  0  0  0  0  0  0  0  0  0
  144.2650   71.0280  219.3910 C   0  0  0  0  0  0  0  0  0  0  0  0
  140.9980   71.3300  222.1520 N   0  0  0  0  0  0  0  0  0  0  0  0
  140.3620   72.0050  223.1270 C   0  0  0  0  0  0  0  0  0  0  0  0
  140.1300   71.3980  224.3930 N   0  0  0  0  0  0  0  0  0  0  0  0
  140.8670   71.8930  225.5200 C   0  0  0  0  0  0  0  0  0  0  0  0
  140.7260   71.0830  226.7670 C   0  0  0  0  0  0  0  0  0  0  0  0
  140.4730   69.6420  226.5100 C   0  0  0  0  0  0  0  0  0  0  0  0
  141.0040   68.7350  227.3790 C   0  0  0  0  0  0  0  0  0  0  0  0
  140.7550   67.3850  227.1200 C   0  0  0  0  0  0  0  0  0  0  0  0
  140.0060   67.0050  226.0340 C   0  0  0  0  0  0  0  0  0  0  0  0
  139.4780   67.9380  225.1680 C   0  0  0  0  0  0  0  0  0  0  0  0
  139.7180   69.2650  225.4140 C   0  0  0  0  0  0  0  0  0  0  0  0
  139.1680   70.3130  224.5060 C   0  0  0  0  0  0  0  0  0  0  0  0
  139.9540   73.2780  222.8560 N   0  0  0  0  0  0  0  0  0  0  0  0
  140.6390   76.3060  221.3300 C   0  0  0  0  0  0  0  0  0  0  0  0
  140.2110   77.3770  222.3140 C   0  0  0  0  0  0  0  0  0  0  0  0
  136.9900   78.9900  223.0900 C   0  0  0  0  0  0  0  0  0  0  0  0
  136.4700   80.0360  223.8240 C   0  0  0  0  0  0  0  0  0  0  0  0
  134.6113   82.1251  226.4342 H   0  0  0  0  0  0  0  0  0  0  0  0
  134.3482   82.9996  224.8874 H   0  0  0  0  0  0  0  0  0  0  0  0
  134.5454   81.2142  224.8874 H   0  0  0  0  0  0  0  0  0  0  0  0
  139.3399   81.8014  224.2875 H   0  0  0  0  0  0  0  0  0  0  0  0
  140.2867   79.9231  222.9667 H   0  0  0  0  0  0  0  0  0  0  0  0
  138.7732   78.0817  220.9339 H   0  0  0  0  0  0  0  0  0  0  0  0
  138.0021   76.2579  223.2900 H   0  0  0  0  0  0  0  0  0  0  0  0
  136.8356   76.8844  222.1046 H   0  0  0  0  0  0  0  0  0  0  0  0
  137.7025   74.6094  221.4980 H   0  0  0  0  0  0  0  0  0  0  0  0
  138.1215   75.8618  220.2645 H   0  0  0  0  0  0  0  0  0  0  0  0
  141.6310   70.1630  219.7600 H   0  0  0  0  0  0  0  0  0  0  0  0
  142.7151   71.5803  218.0524 H   0  0  0  0  0  0  0  0  0  0  0  0
  142.0295   73.6372  219.3410 H   0  0  0  0  0  0  0  0  0  0  0  0
  143.5627   73.6237  218.3647 H   0  0  0  0  0  0  0  0  0  0  0  0
  143.2682   73.3979  221.3739 H   0  0  0  0  0  0  0  0  0  0  0  0
  144.0255   74.7308  220.4039 H   0  0  0  0  0  0  0  0  0  0  0  0
  145.1440   72.3809  221.4736 H   0  0  0  0  0  0  0  0  0  0  0  0
  147.0920   73.4410  221.1610 H   0  0  0  0  0  0  0  0  0  0  0  0
  146.6180   74.2400  219.7070 H   0  0  0  0  0  0  0  0  0  0  0  0
  146.3466   71.5120  219.4233 H   0  0  0  0  0  0  0  0  0  0  0  0
  145.3658   72.5859  218.4024 H   0  0  0  0  0  0  0  0  0  0  0  0
  144.2263   70.5609  220.3862 H   0  0  0  0  0  0  0  0  0  0  0  0
  144.4342   70.2484  218.6336 H   0  0  0  0  0  0  0  0  0  0  0  0
  141.9324   71.9184  225.2474 H   0  0  0  0  0  0  0  0  0  0  0  0
  140.4528   72.8862  225.7481 H   0  0  0  0  0  0  0  0  0  0  0  0
  141.6546   71.1754  227.3494 H   0  0  0  0  0  0  0  0  0  0  0  0
  139.8531   71.4737  227.3106 H   0  0  0  0  0  0  0  0  0  0  0  0
  141.6021   69.0525  228.2459 H   0  0  0  0  0  0  0  0  0  0  0  0
  141.1638   66.6177  227.7939 H   0  0  0  0  0  0  0  0  0  0  0  0
  139.8239   65.9356  225.8516 H   0  0  0  0  0  0  0  0  0  0  0  0
  138.8785   67.6254  224.3003 H   0  0  0  0  0  0  0  0  0  0  0  0
  138.9836   69.8793  223.5121 H   0  0  0  0  0  0  0  0  0  0  0  0
  138.2220   70.6978  224.9146 H   0  0  0  0  0  0  0  0  0  0  0  0
  141.6592   75.9699  221.5670 H   0  0  0  0  0  0  0  0  0  0  0  0
  140.6280   76.7071  220.3058 H   0  0  0  0  0  0  0  0  0  0  0  0
  140.2567   76.9793  223.3386 H   0  0  0  0  0  0  0  0  0  0  0  0
  140.8812   78.2462  222.2406 H   0  0  0  0  0  0  0  0  0  0  0  0
  136.3297   78.1819  222.7422 H   0  0  0  0  0  0  0  0  0  0  0  0
  135.3981   80.0733  224.0680 H   0  0  0  0  0  0  0  0  0  0  0  0
  1  2  1  0
  2  3  2  0
  2  4  2  0
  2  5  1  0
  5  6  2  0
  6  7  1  0
  7  8  2  0
  8  9  1  0
  9 10  1  0
 10 11  1  0
 11 12  1  0
 12 13  1  0
 13 14  2  0
 14 15  1  0
 15 16  1  0
 16 17  1  0
 17 18  1  0
 18 19  1  0
 19 20  1  0
 20 21  1  0
 20 22  1  0
 22 23  1  0
 15 24  2  0
 24 25  1  0
 25 26  1  0
 26 27  1  0
 27 28  1  0
 28 29  1  0
 29 30  2  0
 30 31  1  0
 31 32  2  0
 32 33  1  0
 33 34  2  0
 34 35  1  0
 25 36  2  0
 12 37  1  0
 37 38  1  0
  8 39  1  0
 39 40  2  0
 40  5  1  0
 38  9  1  0
 36 13  1  0
 23 17  1  0
 35 26  1  0
 34 29  1  0
  1 41  1  0
  1 42  1  0
  1 43  1  0
  6 44  1  0
  7 45  1  0
  9 46  1  0
 10 47  1  0
 10 48  1  0
 11 49  1  0
 11 50  1  0
 16 51  1  0
 17 52  1  6
 18 53  1  0
 18 54  1  0
 19 55  1  0
 19 56  1  0
 20 57  1  1
 21 58  1  0
 21 59  1  0
 22 60  1  0
 22 61  1  0
 23 62  1  0
 23 63  1  0
 27 64  1  0
 27 65  1  0
 28 66  1  0
 28 67  1  0
 30 68  1  0
 31 69  1  0
 32 70  1  0
 33 71  1  0
 35 72  1  0
 35 73  1  0
 37 74  1  0
 37 75  1  0
 38 76  1  0
 38 77  1  0
 39 78  1  0
 40 79  1  0
M  END
>  <smiles>  (44) 
CS(=O)(=O)c1ccc(C2CCN(c3nc(N[C@H]4CC[C@H](N)CC4)nc(N4CCc5ccccc5C4)n3)CC2)cc1

>  <score_type>  (44) 
oracle

>  <origin>  (44) 
autodockgpu

>  <m_score__min__energy>  (44) 
-10.390000000000001

>  <m_primary>  (44) 
energy

>  <rmsd>  (44) 
9.009121561021725

>  <m_score__min__rmsd>  (44) 
9.009121561021725

>  <meeko>  (44) 
{"free_energy": -10.21, "intermolecular_energy": -12.29, "internal_energy": -1.33, "cluster_size": 4, "cluster_id": 1, "rank_in_cluster": 2}

>  <energy>  (44) 
-9.04

>  <cluster_rmsd>  (44) 
0.0

>  <cluster>  (44) 
8

$$$$

     RDKit          3D

 79 84  0  0  0  0  0  0  0  0999 V2000
  135.0430   81.9090  225.4770 C   0  0  0  0  0  0  0  0  0  0  0  0
  136.7800   82.2210  225.2670 S   0  0  0  0  0  0  0  0  0  0  0  0
  136.9340   83.5020  224.4670 O   0  0  0  0  0  0  0  0  0  0  0  0
  137.4220   82.3780  226.6340 O   0  0  0  0  0  0  0  0  0  0  0  0
  137.5780   80.9550  224.3650 C   0  0  0  0  0  0  0  0  0  0  0  0
  138.9460   80.8870  224.2080 C   0  0  0  0  0  0  0  0  0  0  0  0
  139.5470   79.8760  223.4880 C   0  0  0  0  0  0  0  0  0  0  0  0
  138.7280   78.9160  222.9200 C   0  0  0  0  0  0  0  0  0  0  0  0
  139.2500   77.7760  222.1220 C   0  0  0  0  0  0  0  0  0  0  0  0
  138.1900   76.6970  222.0190 C   0  0  0  0  0  0  0  0  0  0  0  0
  138.7190   75.6550  221.0600 C   0  0  0  0  0  0  0  0  0  0  0  0
  140.0230   75.1550  221.5000 N   0  0  0  0  0  0  0  0  0  0  0  0
  140.2730   73.7630  221.6740 C   0  0  0  0  0  0  0  0  0  0  0  0
  139.8550   73.1010  222.7670 N   0  0  0  0  0  0  0  0  0  0  0  0
  140.0870   71.7790  222.9480 C   0  0  0  0  0  0  0  0  0  0  0  0
  139.6270   71.1000  224.1110 N   0  0  0  0  0  0  0  0  0  0  0  0
  140.3420   69.9990  224.7030 C   0  0  1  0  0  0  0  0  0  0  0  0
  141.3450   70.4400  225.7330 C   0  0  0  0  0  0  0  0  0  0  0  0
  140.7140   70.6710  227.0880 C   0  0  0  0  0  0  0  0  0  0  0  0
  139.8690   69.4960  227.5210 C   0  0  2  0  0  0  0  0  0  0  0  0
  140.2300   68.9380  228.7840 N   0  0  0  0  0  0  0  0  0  0  0  0
  139.8900   68.3900  226.4840 C   0  0  0  0  0  0  0  0  0  0  0  0
  139.3610   68.9750  225.2170 C   0  0  0  0  0  0  0  0  0  0  0  0
  140.7690   71.1210  221.9730 N   0  0  0  0  0  0  0  0  0  0  0  0
  141.2050   71.7480  220.8650 C   0  0  0  0  0  0  0  0  0  0  0  0
  141.9160   71.0300  219.8620 N   0  0  0  0  0  0  0  0  0  0  0  0
  141.3930   69.7610  219.4470 C   0  0  0  0  0  0  0  0  0  0  0  0
  142.2910   68.9750  218.5470 C   0  0  0  0  0  0  0  0  0  0  0  0
  143.7340   69.2430  218.7730 C   0  0  0  0  0  0  0  0  0  0  0  0
  144.6100   68.2110  218.6090 C   0  0  0  0  0  0  0  0  0  0  0  0
  145.9620   68.4830  218.8260 C   0  0  0  0  0  0  0  0  0  0  0  0
  146.3760   69.7420  219.1870 C   0  0  0  0  0  0  0  0  0  0  0  0
  145.4750   70.7720  219.3470 C   0  0  0  0  0  0  0  0  0  0  0  0
  144.1450   70.5130  219.1360 C   0  0  0  0  0  0  0  0  0  0  0  0
  143.1310   71.5960  219.2970 C   0  0  0  0  0  0  0  0  0  0  0  0
  140.9400   73.0800  220.7420 N   0  0  0  0  0  0  0  0  0  0  0  0
  141.0420   76.1580  221.7420 C   0  0  0  0  0  0  0  0  0  0  0  0
  140.4860   77.1780  222.7160 C   0  0  0  0  0  0  0  0  0  0  0  0
  137.3360   78.9650  223.0660 C   0  0  0  0  0  0  0  0  0  0  0  0
  136.7520   79.9840  223.7900 C   0  0  0  0  0  0  0  0  0  0  0  0
  134.8053   81.8663  226.5502 H   0  0  0  0  0  0  0  0  0  0  0  0
  134.4655   82.7178  225.0054 H   0  0  0  0  0  0  0  0  0  0  0  0
  134.7831   80.9498  225.0054 H   0  0  0  0  0  0  0  0  0  0  0  0
  139.5760   81.6612  224.6702 H   0  0  0  0  0  0  0  0  0  0  0  0
  140.6398   79.8341  223.3693 H   0  0  0  0  0  0  0  0  0  0  0  0
  139.5073   78.1712  221.1282 H   0  0  0  0  0  0  0  0  0  0  0  0
  138.0109   76.2466  223.0065 H   0  0  0  0  0  0  0  0  0  0  0  0
  137.2363   77.1134  221.6626 H   0  0  0  0  0  0  0  0  0  0  0  0
  138.0090   74.8162  221.0119 H   0  0  0  0  0  0  0  0  0  0  0  0
  138.8356   76.1165  220.0683 H   0  0  0  0  0  0  0  0  0  0  0  0
  138.7310   71.4280  224.5380 H   0  0  0  0  0  0  0  0  0  0  0  0
  140.9509   69.5182  223.9232 H   0  0  0  0  0  0  0  0  0  0  0  0
  141.8099   71.3779  225.3950 H   0  0  0  0  0  0  0  0  0  0  0  0
  142.0901   69.6381  225.8415 H   0  0  0  0  0  0  0  0  0  0  0  0
  140.0781   71.5671  227.0366 H   0  0  0  0  0  0  0  0  0  0  0  0
  141.5215   70.8009  227.8235 H   0  0  0  0  0  0  0  0  0  0  0  0
  138.8575   69.9155  227.6258 H   0  0  0  0  0  0  0  0  0  0  0  0
  141.0800   69.3620  229.1950 H   0  0  0  0  0  0  0  0  0  0  0  0
  139.4560   68.8490  229.4760 H   0  0  0  0  0  0  0  0  0  0  0  0
  139.2536   67.5539  226.8095 H   0  0  0  0  0  0  0  0  0  0  0  0
  140.9093   68.0011  226.3431 H   0  0  0  0  0  0  0  0  0  0  0  0
  138.3913   69.4572  225.4099 H   0  0  0  0  0  0  0  0  0  0  0  0
  139.2259   68.1805  224.4683 H   0  0  0  0  0  0  0  0  0  0  0  0
  141.2003   69.1596  220.3477 H   0  0  0  0  0  0  0  0  0  0  0  0
  140.4846   69.9766  218.8653 H   0  0  0  0  0  0  0  0  0  0  0  0
  142.1045   67.9043  218.7169 H   0  0  0  0  0  0  0  0  0  0  0  0
  142.0623   69.2783  217.5147 H   0  0  0  0  0  0  0  0  0  0  0  0
  144.2662   67.2074  218.3182 H   0  0  0  0  0  0  0  0  0  0  0  0
  146.7042   67.6800  218.7065 H   0  0  0  0  0  0  0  0  0  0  0  0
  147.4470   69.9314  219.3514 H   0  0  0  0  0  0  0  0  0  0  0  0
  145.8142   71.7774  219.6369 H   0  0  0  0  0  0  0  0  0  0  0  0
  143.5241   72.3715  219.9708 H   0  0  0  0  0  0  0  0  0  0  0  0
  142.9100   72.0454  218.3176 H   0  0  0  0  0  0  0  0  0  0  0  0
  141.9365   75.6831  222.1714 H   0  0  0  0  0  0  0  0  0  0  0  0
  141.3214   76.6491  220.7982 H   0  0  0  0  0  0  0  0  0  0  0  0
  140.2394   76.6859  223.6684 H   0  0  0  0  0  0  0  0  0  0  0  0
  141.2317   77.9641  222.9056 H   0  0  0  0  0  0  0  0  0  0  0  0
  136.7075   78.1901  222.6029 H   0  0  0  0  0  0  0  0  0  0  0  0
  135.6599   80.0317  223.9123 H   0  0  0  0  0  0  0  0  0  0  0  0
  1  2  1  0
  2  3  2  0
  2  4  2  0
  2  5  1  0
  5  6  2  0
  6  7  1  0
  7  8  2  0
  8  9  1  0
  9 10  1  0
 10 11  1  0
 11 12  1  0
 12 13  1  0
 13 14  2  0
 14 15  1  0
 15 16  1  0
 16 17  1  0
 17 18  1  0
 18 19  1  0
 19 20  1  0
 20 21  1  0
 20 22  1  0
 22 23  1  0
 15 24  2  0
 24 25  1  0
 25 26  1  0
 26 27  1  0
 27 28  1  0
 28 29  1  0
 29 30  2  0
 30 31  1  0
 31 32  2  0
 32 33  1  0
 33 34  2  0
 34 35  1  0
 25 36  2  0
 12 37  1  0
 37 38  1  0
  8 39  1  0
 39 40  2  0
 40  5  1  0
 38  9  1  0
 36 13  1  0
 23 17  1  0
 35 26  1  0
 34 29  1  0
  1 41  1  0
  1 42  1  0
  1 43  1  0
  6 44  1  0
  7 45  1  0
  9 46  1  0
 10 47  1  0
 10 48  1  0
 11 49  1  0
 11 50  1  0
 16 51  1  0
 17 52  1  6
 18 53  1  0
 18 54  1  0
 19 55  1  0
 19 56  1  0
 20 57  1  1
 21 58  1  0
 21 59  1  0
 22 60  1  0
 22 61  1  0
 23 62  1  0
 23 63  1  0
 27 64  1  0
 27 65  1  0
 28 66  1  0
 28 67  1  0
 30 68  1  0
 31 69  1  0
 32 70  1  0
 33 71  1  0
 35 72  1  0
 35 73  1  0
 37 74  1  0
 37 75  1  0
 38 76  1  0
 38 77  1  0
 39 78  1  0
 40 79  1  0
M  END
>  <smiles>  (45) 
CS(=O)(=O)c1ccc(C2CCN(c3nc(N[C@H]4CC[C@H](N)CC4)nc(N4CCc5ccccc5C4)n3)CC2)cc1

>  <score_type>  (45) 
oracle

>  <origin>  (45) 
autodockgpu

>  <m_score__min__energy>  (45) 
-10.390000000000001

>  <m_primary>  (45) 
energy

>  <rmsd>  (45) 
8.918526128587494

>  <m_score__min__rmsd>  (45) 
8.918526128587494

>  <meeko>  (45) 
{"free_energy": -8.93, "intermolecular_energy": -11.02, "internal_energy": -1.36, "cluster_size": 3, "cluster_id": 5, "rank_in_cluster": 3}

>  <energy>  (45) 
-8.81

>  <cluster_rmsd>  (45) 
0.0

>  <cluster>  (45) 
9

$$$$

     RDKit          3D

 79 84  0  0  0  0  0  0  0  0999 V2000
  144.0640   82.8410  216.6150 C   0  0  0  0  0  0  0  0  0  0  0  0
  142.3860   82.4860  217.0790 S   0  0  0  0  0  0  0  0  0  0  0  0
  141.8970   83.6130  217.9720 O   0  0  0  0  0  0  0  0  0  0  0  0
  141.5330   82.4060  215.8260 O   0  0  0  0  0  0  0  0  0  0  0  0
  142.2490   81.0070  218.0010 C   0  0  0  0  0  0  0  0  0  0  0  0
  142.5460   79.7650  217.4810 C   0  0  0  0  0  0  0  0  0  0  0  0
  142.4260   78.6150  218.2330 C   0  0  0  0  0  0  0  0  0  0  0  0
  141.9960   78.7440  219.5420 C   0  0  0  0  0  0  0  0  0  0  0  0
  141.8260   77.5840  220.4560 C   0  0  0  0  0  0  0  0  0  0  0  0
  141.5990   76.3230  219.6450 C   0  0  0  0  0  0  0  0  0  0  0  0
  141.6070   75.1690  220.6200 C   0  0  0  0  0  0  0  0  0  0  0  0
  140.6160   75.3710  221.6780 N   0  0  0  0  0  0  0  0  0  0  0  0
  139.6260   74.3910  221.9760 C   0  0  0  0  0  0  0  0  0  0  0  0
  138.3270   74.5860  221.6880 N   0  0  0  0  0  0  0  0  0  0  0  0
  137.3750   73.6640  221.9670 C   0  0  0  0  0  0  0  0  0  0  0  0
  136.0080   73.8920  221.6460 N   0  0  0  0  0  0  0  0  0  0  0  0
  135.1540   74.7430  222.4330 C   0  0  1  0  0  0  0  0  0  0  0  0
  133.8570   74.0830  222.8100 C   0  0  0  0  0  0  0  0  0  0  0  0
  133.9940   73.2050  224.0330 C   0  0  0  0  0  0  0  0  0  0  0  0
  134.6650   73.9320  225.1750 C   0  0  2  0  0  0  0  0  0  0  0  0
  133.9110   73.9600  226.3870 N   0  0  0  0  0  0  0  0  0  0  0  0
  135.0120   75.3580  224.7930 C   0  0  0  0  0  0  0  0  0  0  0  0
  135.9240   75.2800  223.6140 C   0  0  0  0  0  0  0  0  0  0  0  0
  137.7750   72.5070  222.5610 N   0  0  0  0  0  0  0  0  0  0  0  0
  139.0640   72.2740  222.8650 C   0  0  0  0  0  0  0  0  0  0  0  0
  139.4500   71.0520  223.4850 N   0  0  0  0  0  0  0  0  0  0  0  0
  138.6100   69.9060  223.2890 C   0  0  0  0  0  0  0  0  0  0  0  0
  138.9610   68.7190  224.1270 C   0  0  0  0  0  0  0  0  0  0  0  0
  139.5850   69.0780  225.4270 C   0  0  0  0  0  0  0  0  0  0  0  0
  139.3130   68.2890  226.5060 C   0  0  0  0  0  0  0  0  0  0  0  0
  139.9090   68.6430  227.7180 C   0  0  0  0  0  0  0  0  0  0  0  0
  140.7310   69.7410  227.8020 C   0  0  0  0  0  0  0  0  0  0  0  0
  140.9920   70.5240  226.7010 C   0  0  0  0  0  0  0  0  0  0  0  0
  140.4110   70.1840  225.5060 C   0  0  0  0  0  0  0  0  0  0  0  0
  140.6640   71.0020  224.2840 C   0  0  0  0  0  0  0  0  0  0  0  0
  139.9750   73.2410  222.5580 N   0  0  0  0  0  0  0  0  0  0  0  0
  140.7030   76.6240  222.4040 C   0  0  0  0  0  0  0  0  0  0  0  0
  140.6780   77.7600  221.4000 C   0  0  0  0  0  0  0  0  0  0  0  0
  141.6890   79.9950  220.0900 C   0  0  0  0  0  0  0  0  0  0  0  0
  141.8130   81.1350  219.3230 C   0  0  0  0  0  0  0  0  0  0  0  0
  144.6752   82.9703  217.5204 H   0  0  0  0  0  0  0  0  0  0  0  0
  144.4637   82.0075  216.0187 H   0  0  0  0  0  0  0  0  0  0  0  0
  144.0919   83.7649  216.0187 H   0  0  0  0  0  0  0  0  0  0  0  0
  142.8879   79.6893  216.4382 H   0  0  0  0  0  0  0  0  0  0  0  0
  142.6639   77.6292  217.8069 H   0  0  0  0  0  0  0  0  0  0  0  0
  142.7475   77.5078  221.0519 H   0  0  0  0  0  0  0  0  0  0  0  0
  140.6296   76.3749  219.1278 H   0  0  0  0  0  0  0  0  0  0  0  0
  142.3806   76.1993  218.8810 H   0  0  0  0  0  0  0  0  0  0  0  0
  141.3726   74.2398  220.0799 H   0  0  0  0  0  0  0  0  0  0  0  0
  142.6040   75.1054  221.0804 H   0  0  0  0  0  0  0  0  0  0  0  0
  135.6260   73.4120  220.7990 H   0  0  0  0  0  0  0  0  0  0  0  0
  134.8481   75.5995  221.8143 H   0  0  0  0  0  0  0  0  0  0  0  0
  133.5168   73.4641  221.9666 H   0  0  0  0  0  0  0  0  0  0  0  0
  133.1318   74.8760  223.0447 H   0  0  0  0  0  0  0  0  0  0  0  0
  134.5951   72.3217  223.7714 H   0  0  0  0  0  0  0  0  0  0  0  0
  132.9845   72.9145  224.3595 H   0  0  0  0  0  0  0  0  0  0  0  0
  135.5752   73.3458  225.3694 H   0  0  0  0  0  0  0  0  0  0  0  0
  132.9610   74.3530  226.2730 H   0  0  0  0  0  0  0  0  0  0  0  0
  133.9120   73.0760  226.9390 H   0  0  0  0  0  0  0  0  0  0  0  0
  135.5177   75.8617  225.6300 H   0  0  0  0  0  0  0  0  0  0  0  0
  134.1058   75.9335  224.5531 H   0  0  0  0  0  0  0  0  0  0  0  0
  136.7652   74.6089  223.8420 H   0  0  0  0  0  0  0  0  0  0  0  0
  136.3148   76.2811  223.3792 H   0  0  0  0  0  0  0  0  0  0  0  0
  137.5753   70.1963  223.5238 H   0  0  0  0  0  0  0  0  0  0  0  0
  138.7481   69.5970  222.2424 H   0  0  0  0  0  0  0  0  0  0  0  0
  138.0415   68.1493  224.3271 H   0  0  0  0  0  0  0  0  0  0  0  0
  139.7002   68.1308  223.5634 H   0  0  0  0  0  0  0  0  0  0  0  0
  138.6533   67.4126  226.4248 H   0  0  0  0  0  0  0  0  0  0  0  0
  139.7184   68.0363  228.6155 H   0  0  0  0  0  0  0  0  0  0  0  0
  141.1893   69.9990  228.7682 H   0  0  0  0  0  0  0  0  0  0  0  0
  141.6508   71.4016  226.7774 H   0  0  0  0  0  0  0  0  0  0  0  0
  140.9544   72.0217  224.5770 H   0  0  0  0  0  0  0  0  0  0  0  0
  141.4760   70.5489  223.6963 H   0  0  0  0  0  0  0  0  0  0  0  0
  139.8486   76.7159  223.0907 H   0  0  0  0  0  0  0  0  0  0  0  0
  141.6329   76.6578  222.9907 H   0  0  0  0  0  0  0  0  0  0  0  0
  139.7311   77.7402  220.8406 H   0  0  0  0  0  0  0  0  0  0  0  0
  140.7623   78.7254  221.9206 H   0  0  0  0  0  0  0  0  0  0  0  0
  141.3485   80.0692  221.1333 H   0  0  0  0  0  0  0  0  0  0  0  0
  141.5740   82.1233  219.7426 H   0  0  0  0  0  0  0  0  0  0  0  0
  1  2  1  0
  2  3  2  0
  2  4  2  0
  2  5  1  0
  5  6  2  0
  6  7  1  0
  7  8  2  0
  8  9  1  0
  9 10  1  0
 10 11  1  0
 11 12  1  0
 12 13  1  0
 13 14  2  0
 14 15  1  0
 15 16  1  0
 16 17  1  0
 17 18  1  0
 18 19  1  0
 19 20  1  0
 20 21  1  0
 20 22  1  0
 22 23  1  0
 15 24  2  0
 24 25  1  0
 25 26  1  0
 26 27  1  0
 27 28  1  0
 28 29  1  0
 29 30  2  0
 30 31  1  0
 31 32  2  0
 32 33  1  0
 33 34  2  0
 34 35  1  0
 25 36  2  0
 12 37  1  0
 37 38  1  0
  8 39  1  0
 39 40  2  0
 40  5  1  0
 38  9  1  0
 36 13  1  0
 23 17  1  0
 35 26  1  0
 34 29  1  0
  1 41  1  0
  1 42  1  0
  1 43  1  0
  6 44  1  0
  7 45  1  0
  9 46  1  0
 10 47  1  0
 10 48  1  0
 11 49  1  0
 11 50  1  0
 16 51  1  0
 17 52  1  6
 18 53  1  0
 18 54  1  0
 19 55  1  0
 19 56  1  0
 20 57  1  1
 21 58  1  0
 21 59  1  0
 22 60  1  0
 22 61  1  0
 23 62  1  0
 23 63  1  0
 27 64  1  0
 27 65  1  0
 28 66  1  0
 28 67  1  0
 30 68  1  0
 31 69  1  0
 32 70  1  0
 33 71  1  0
 35 72  1  0
 35 73  1  0
 37 74  1  0
 37 75  1  0
 38 76  1  0
 38 77  1  0
 39 78  1  0
 40 79  1  0
M  END
>  <smiles>  (46) 
CS(=O)(=O)c1ccc(C2CCN(c3nc(N[C@H]4CC[C@H](N)CC4)nc(N4CCc5ccccc5C4)n3)CC2)cc1

>  <score_type>  (46) 
oracle

>  <origin>  (46) 
autodockgpu

>  <m_score__min__energy>  (46) 
-10.390000000000001

>  <m_primary>  (46) 
energy

>  <rmsd>  (46) 
10.391905357095842

>  <m_score__min__rmsd>  (46) 
10.391905357095842

>  <meeko>  (46) 
{"free_energy": -9.55, "intermolecular_energy": -11.64, "internal_energy": -1.6, "cluster_size": 12, "cluster_id": 4, "rank_in_cluster": 1}

>  <energy>  (46) 
-8.54

>  <cluster_rmsd>  (46) 
0.0

>  <cluster>  (46) 
10

$$$$

     RDKit          3D

 79 84  0  0  0  0  0  0  0  0999 V2000
  141.1690   81.1450  223.3690 C   0  0  0  0  0  0  0  0  0  0  0  0
  142.1710   80.2320  222.2210 S   0  0  0  0  0  0  0  0  0  0  0  0
  142.1710   80.9790  220.9000 O   0  0  0  0  0  0  0  0  0  0  0  0
  143.5850   80.1350  222.7660 O   0  0  0  0  0  0  0  0  0  0  0  0
  141.5330   78.6350  221.9050 C   0  0  0  0  0  0  0  0  0  0  0  0
  141.9070   77.8750  220.8180 C   0  0  0  0  0  0  0  0  0  0  0  0
  141.3850   76.6180  220.5940 C   0  0  0  0  0  0  0  0  0  0  0  0
  140.4620   76.1340  221.5050 C   0  0  0  0  0  0  0  0  0  0  0  0
  139.8260   74.7970  221.3790 C   0  0  0  0  0  0  0  0  0  0  0  0
  138.4890   74.7970  222.0940 C   0  0  0  0  0  0  0  0  0  0  0  0
  137.8260   73.4760  221.7830 C   0  0  0  0  0  0  0  0  0  0  0  0
  138.6900   72.3560  222.1580 N   0  0  0  0  0  0  0  0  0  0  0  0
  138.2360   71.3120  223.0150 C   0  0  0  0  0  0  0  0  0  0  0  0
  139.0760   70.3850  223.5090 N   0  0  0  0  0  0  0  0  0  0  0  0
  138.6570   69.3870  224.3220 C   0  0  0  0  0  0  0  0  0  0  0  0
  139.5680   68.4220  224.8380 N   0  0  0  0  0  0  0  0  0  0  0  0
  140.3430   68.6440  226.0320 C   0  0  1  0  0  0  0  0  0  0  0  0
  141.5070   69.5690  225.8090 C   0  0  0  0  0  0  0  0  0  0  0  0
  141.1060   71.0250  225.8810 C   0  0  0  0  0  0  0  0  0  0  0  0
  140.3140   71.3290  227.1310 C   0  0  2  0  0  0  0  0  0  0  0  0
  140.8600   72.3690  227.9420 N   0  0  0  0  0  0  0  0  0  0  0  0
  140.1430   70.0910  227.9900 C   0  0  0  0  0  0  0  0  0  0  0  0
  139.4320   69.0790  227.1530 C   0  0  0  0  0  0  0  0  0  0  0  0
  137.3340   69.3420  224.6340 N   0  0  0  0  0  0  0  0  0  0  0  0
  136.4610   70.2490  224.1600 C   0  0  0  0  0  0  0  0  0  0  0  0
  135.0830   70.1750  224.5070 N   0  0  0  0  0  0  0  0  0  0  0  0
  134.1210   70.1960  223.4420 C   0  0  0  0  0  0  0  0  0  0  0  0
  132.6990   70.3190  223.8830 C   0  0  0  0  0  0  0  0  0  0  0  0
  132.5390   71.0610  225.1600 C   0  0  0  0  0  0  0  0  0  0  0  0
  131.4270   71.8350  225.3140 C   0  0  0  0  0  0  0  0  0  0  0  0
  131.2950   72.5250  226.5220 C   0  0  0  0  0  0  0  0  0  0  0  0
  132.2520   72.4150  227.5010 C   0  0  0  0  0  0  0  0  0  0  0  0
  133.3670   71.6270  227.3250 C   0  0  0  0  0  0  0  0  0  0  0  0
  133.5060   70.9470  226.1430 C   0  0  0  0  0  0  0  0  0  0  0  0
  134.6960   70.0800  225.9050 C   0  0  0  0  0  0  0  0  0  0  0  0
  136.9450   71.2310  223.3460 N   0  0  0  0  0  0  0  0  0  0  0  0
  140.0310   72.3710  221.6060 C   0  0  0  0  0  0  0  0  0  0  0  0
  140.6730   73.7020  221.9480 C   0  0  0  0  0  0  0  0  0  0  0  0
  140.0680   76.8890  222.6160 C   0  0  0  0  0  0  0  0  0  0  0  0
  140.6010   78.1440  222.8240 C   0  0  0  0  0  0  0  0  0  0  0  0
  141.4576   80.8820  224.3974 H   0  0  0  0  0  0  0  0  0  0  0  0
  141.3194   82.2230  223.2103 H   0  0  0  0  0  0  0  0  0  0  0  0
  140.1096   80.8953  223.2103 H   0  0  0  0  0  0  0  0  0  0  0  0
  142.6427   78.2823  220.1088 H   0  0  0  0  0  0  0  0  0  0  0  0
  141.6914   76.0213  219.7222 H   0  0  0  0  0  0  0  0  0  0  0  0
  139.6973   74.6039  220.3038 H   0  0  0  0  0  0  0  0  0  0  0  0
  138.6400   74.8985  223.1788 H   0  0  0  0  0  0  0  0  0  0  0  0
  137.8644   75.6393  221.7616 H   0  0  0  0  0  0  0  0  0  0  0  0
  136.8823   73.4061  222.3438 H   0  0  0  0  0  0  0  0  0  0  0  0
  137.6352   73.4251  220.7009 H   0  0  0  0  0  0  0  0  0  0  0  0
  139.6640   67.5220  224.3160 H   0  0  0  0  0  0  0  0  0  0  0  0
  140.8094   67.6930  226.3289 H   0  0  0  0  0  0  0  0  0  0  0  0
  141.9327   69.3683  224.8148 H   0  0  0  0  0  0  0  0  0  0  0  0
  142.2417   69.3829  226.6062 H   0  0  0  0  0  0  0  0  0  0  0  0
  140.4910   71.2686  225.0021 H   0  0  0  0  0  0  0  0  0  0  0  0
  142.0237   71.6311  225.9025 H   0  0  0  0  0  0  0  0  0  0  0  0
  139.3425   71.6826  226.7552 H   0  0  0  0  0  0  0  0  0  0  0  0
  141.2070   73.1780  227.3980 H   0  0  0  0  0  0  0  0  0  0  0  0
  140.2770   72.6580  228.7560 H   0  0  0  0  0  0  0  0  0  0  0  0
  139.5471   70.3294  228.8833 H   0  0  0  0  0  0  0  0  0  0  0  0
  141.1171   69.7084  228.3288 H   0  0  0  0  0  0  0  0  0  0  0  0
  138.5173   69.5236  226.7339 H   0  0  0  0  0  0  0  0  0  0  0  0
  139.1600   68.2101  227.7702 H   0  0  0  0  0  0  0  0  0  0  0  0
  134.3518   71.0509  222.7895 H   0  0  0  0  0  0  0  0  0  0  0  0
  134.2035   69.2250  222.9317 H   0  0  0  0  0  0  0  0  0  0  0  0
  132.1356   70.8474  223.0998 H   0  0  0  0  0  0  0  0  0  0  0  0
  132.3218   69.2994  224.0506 H   0  0  0  0  0  0  0  0  0  0  0  0
  130.6674   71.9128  224.5222 H   0  0  0  0  0  0  0  0  0  0  0  0
  130.4151   73.1632  226.6907 H   0  0  0  0  0  0  0  0  0  0  0  0
  132.1251   72.9672  228.4439 H   0  0  0  0  0  0  0  0  0  0  0  0
  134.1286   71.5450  228.1145 H   0  0  0  0  0  0  0  0  0  0  0  0
  135.5286   70.4149  226.5411 H   0  0  0  0  0  0  0  0  0  0  0  0
  134.4489   69.0366  226.1506 H   0  0  0  0  0  0  0  0  0  0  0  0
  140.6212   71.5509  222.0408 H   0  0  0  0  0  0  0  0  0  0  0  0
  139.9927   72.2385  220.5147 H   0  0  0  0  0  0  0  0  0  0  0  0
  140.7383   73.8128  223.0405 H   0  0  0  0  0  0  0  0  0  0  0  0
  141.6873   73.7513  221.5253 H   0  0  0  0  0  0  0  0  0  0  0  0
  139.3321   76.4807  223.3243 H   0  0  0  0  0  0  0  0  0  0  0  0
  140.2993   78.7455  223.6942 H   0  0  0  0  0  0  0  0  0  0  0  0
  1  2  1  0
  2  3  2  0
  2  4  2  0
  2  5  1  0
  5  6  2  0
  6  7  1  0
  7  8  2  0
  8  9  1  0
  9 10  1  0
 10 11  1  0
 11 12  1  0
 12 13  1  0
 13 14  2  0
 14 15  1  0
 15 16  1  0
 16 17  1  0
 17 18  1  0
 18 19  1  0
 19 20  1  0
 20 21  1  0
 20 22  1  0
 22 23  1  0
 15 24  2  0
 24 25  1  0
 25 26  1  0
 26 27  1  0
 27 28  1  0
 28 29  1  0
 29 30  2  0
 30 31  1  0
 31 32  2  0
 32 33  1  0
 33 34  2  0
 34 35  1  0
 25 36  2  0
 12 37  1  0
 37 38  1  0
  8 39  1  0
 39 40  2  0
 40  5  1  0
 38  9  1  0
 36 13  1  0
 23 17  1  0
 35 26  1  0
 34 29  1  0
  1 41  1  0
  1 42  1  0
  1 43  1  0
  6 44  1  0
  7 45  1  0
  9 46  1  0
 10 47  1  0
 10 48  1  0
 11 49  1  0
 11 50  1  0
 16 51  1  0
 17 52  1  1
 18 53  1  0
 18 54  1  0
 19 55  1  0
 19 56  1  0
 20 57  1  6
 21 58  1  0
 21 59  1  0
 22 60  1  0
 22 61  1  0
 23 62  1  0
 23 63  1  0
 27 64  1  0
 27 65  1  0
 28 66  1  0
 28 67  1  0
 30 68  1  0
 31 69  1  0
 32 70  1  0
 33 71  1  0
 35 72  1  0
 35 73  1  0
 37 74  1  0
 37 75  1  0
 38 76  1  0
 38 77  1  0
 39 78  1  0
 40 79  1  0
M  END
>  <smiles>  (47) 
CS(=O)(=O)c1ccc(C2CCN(c3nc(N[C@H]4CC[C@H](N)CC4)nc(N4CCc5ccccc5C4)n3)CC2)cc1

>  <score_type>  (47) 
oracle

>  <origin>  (47) 
autodockgpu

>  <m_score__min__energy>  (47) 
-10.390000000000001

>  <m_primary>  (47) 
energy

>  <rmsd>  (47) 
7.148075642176422

>  <m_score__min__rmsd>  (47) 
7.148075642176422

>  <meeko>  (47) 
{"free_energy": -9.78, "intermolecular_energy": -11.87, "internal_energy": -1.82, "cluster_size": 4, "cluster_id": 3, "rank_in_cluster": 3}

>  <energy>  (47) 
-8.25

>  <cluster_rmsd>  (47) 
1.77

>  <cluster>  (47) 
10

$$$$

     RDKit          3D

 79 84  0  0  0  0  0  0  0  0999 V2000
  143.4930   80.1430  223.0460 C   0  0  0  0  0  0  0  0  0  0  0  0
  141.8530   80.8050  222.8710 S   0  0  0  0  0  0  0  0  0  0  0  0
  141.4820   81.4900  224.1740 O   0  0  0  0  0  0  0  0  0  0  0  0
  141.8440   81.8080  221.7320 O   0  0  0  0  0  0  0  0  0  0  0  0
  140.6600   79.5590  222.5900 C   0  0  0  0  0  0  0  0  0  0  0  0
  139.3300   79.8290  222.3490 C   0  0  0  0  0  0  0  0  0  0  0  0
  138.4110   78.8240  222.1320 C   0  0  0  0  0  0  0  0  0  0  0  0
  138.8670   77.5170  222.1620 C   0  0  0  0  0  0  0  0  0  0  0  0
  137.9800   76.3450  221.9440 C   0  0  0  0  0  0  0  0  0  0  0  0
  137.1590   76.0860  223.1920 C   0  0  0  0  0  0  0  0  0  0  0  0
  136.1660   75.0010  222.8450 C   0  0  0  0  0  0  0  0  0  0  0  0
  136.8500   73.8110  222.3370 N   0  0  0  0  0  0  0  0  0  0  0  0
  136.6340   72.5220  222.9050 C   0  0  0  0  0  0  0  0  0  0  0  0
  135.4200   71.9450  222.9100 N   0  0  0  0  0  0  0  0  0  0  0  0
  135.2000   70.7220  223.4490 C   0  0  0  0  0  0  0  0  0  0  0  0
  133.9070   70.1290  223.4360 N   0  0  0  0  0  0  0  0  0  0  0  0
  132.8540   70.5380  224.3290 C   0  0  1  0  0  0  0  0  0  0  0  0
  133.1970   70.3170  225.7770 C   0  0  0  0  0  0  0  0  0  0  0  0
  134.0270   71.4430  226.3490 C   0  0  0  0  0  0  0  0  0  0  0  0
  133.4120   72.7940  226.0660 C   0  0  2  0  0  0  0  0  0  0  0  0
  133.1650   73.5890  227.2250 N   0  0  0  0  0  0  0  0  0  0  0  0
  132.1160   72.6580  225.2910 C   0  0  0  0  0  0  0  0  0  0  0  0
  132.4450   71.9560  224.0150 C   0  0  0  0  0  0  0  0  0  0  0  0
  136.2640   70.0760  223.9980 N   0  0  0  0  0  0  0  0  0  0  0  0
  137.4950   70.6190  224.0130 C   0  0  0  0  0  0  0  0  0  0  0  0
  138.5870   69.9160  224.5940 N   0  0  0  0  0  0  0  0  0  0  0  0
  138.4430   68.5050  224.8020 C   0  0  0  0  0  0  0  0  0  0  0  0
  139.5390   67.8710  225.5960 C   0  0  0  0  0  0  0  0  0  0  0  0
  140.1670   68.7930  226.5760 C   0  0  0  0  0  0  0  0  0  0  0  0
  140.6000   68.2710  227.7590 C   0  0  0  0  0  0  0  0  0  0  0  0
  141.1880   69.1550  228.6670 C   0  0  0  0  0  0  0  0  0  0  0  0
  141.3170   70.4880  228.3660 C   0  0  0  0  0  0  0  0  0  0  0  0
  140.8730   70.9960  227.1650 C   0  0  0  0  0  0  0  0  0  0  0  0
  140.2940   70.1360  226.2670 C   0  0  0  0  0  0  0  0  0  0  0  0
  139.7980   70.6380  224.9530 C   0  0  0  0  0  0  0  0  0  0  0  0
  137.6510   71.8540  223.4540 N   0  0  0  0  0  0  0  0  0  0  0  0
  137.7530   74.0210  221.2220 C   0  0  0  0  0  0  0  0  0  0  0  0
  138.7430   75.1030  221.6070 C   0  0  0  0  0  0  0  0  0  0  0  0
  140.2130   77.2200  222.4060 C   0  0  0  0  0  0  0  0  0  0  0  0
  141.1190   78.2380  222.6210 C   0  0  0  0  0  0  0  0  0  0  0  0
  143.7367   80.0446  224.1142 H   0  0  0  0  0  0  0  0  0  0  0  0
  143.5425   79.1545  222.5661 H   0  0  0  0  0  0  0  0  0  0  0  0
  144.2149   80.8202  222.5661 H   0  0  0  0  0  0  0  0  0  0  0  0
  138.9921   80.8756  222.3292 H   0  0  0  0  0  0  0  0  0  0  0  0
  137.3520   79.0528  221.9416 H   0  0  0  0  0  0  0  0  0  0  0  0
  137.3313   76.5885  221.0897 H   0  0  0  0  0  0  0  0  0  0  0  0
  137.8119   75.7533  224.0124 H   0  0  0  0  0  0  0  0  0  0  0  0
  136.6445   77.0004  223.5224 H   0  0  0  0  0  0  0  0  0  0  0  0
  135.5967   74.7318  223.7469 H   0  0  0  0  0  0  0  0  0  0  0  0
  135.4907   75.3791  222.0634 H   0  0  0  0  0  0  0  0  0  0  0  0
  133.7330   69.3680  222.7410 H   0  0  0  0  0  0  0  0  0  0  0  0
  131.9802   69.8919  224.1585 H   0  0  0  0  0  0  0  0  0  0  0  0
  133.7641   69.3788  225.8668 H   0  0  0  0  0  0  0  0  0  0  0  0
  132.2547   70.2730  226.3427 H   0  0  0  0  0  0  0  0  0  0  0  0
  135.0311   71.4081  225.9012 H   0  0  0  0  0  0  0  0  0  0  0  0
  134.0756   71.3115  227.4400 H   0  0  0  0  0  0  0  0  0  0  0  0
  134.1728   73.3167  225.4677 H   0  0  0  0  0  0  0  0  0  0  0  0
  132.7530   74.5140  227.0100 H   0  0  0  0  0  0  0  0  0  0  0  0
  132.6730   73.1070  228.0060 H   0  0  0  0  0  0  0  0  0  0  0  0
  131.6964   73.6523  225.0783 H   0  0  0  0  0  0  0  0  0  0  0  0
  131.3690   72.0943  225.8691 H   0  0  0  0  0  0  0  0  0  0  0  0
  133.2726   72.4759  223.5103 H   0  0  0  0  0  0  0  0  0  0  0  0
  131.5658   71.9527  223.3539 H   0  0  0  0  0  0  0  0  0  0  0  0
  137.4941   68.3327  225.3310 H   0  0  0  0  0  0  0  0  0  0  0  0
  138.4761   68.0412  223.8051 H   0  0  0  0  0  0  0  0  0  0  0  0
  139.1217   67.0126  226.1428 H   0  0  0  0  0  0  0  0  0  0  0  0
  140.3226   67.5702  224.8850 H   0  0  0  0  0  0  0  0  0  0  0  0
  140.4911   67.2007  227.9883 H   0  0  0  0  0  0  0  0  0  0  0  0
  141.5518   68.7784  229.6344 H   0  0  0  0  0  0  0  0  0  0  0  0
  141.7839   71.1636  229.0979 H   0  0  0  0  0  0  0  0  0  0  0  0
  140.9802   72.0656  226.9318 H   0  0  0  0  0  0  0  0  0  0  0  0
  139.5772   71.7129  225.0289 H   0  0  0  0  0  0  0  0  0  0  0  0
  140.5663   70.4797  224.1818 H   0  0  0  0  0  0  0  0  0  0  0  0
  138.2906   73.0878  220.9981 H   0  0  0  0  0  0  0  0  0  0  0  0
  137.1875   74.3257  220.3291 H   0  0  0  0  0  0  0  0  0  0  0  0
  139.3273   74.7778  222.4804 H   0  0  0  0  0  0  0  0  0  0  0  0
  139.4321   75.2983  220.7721 H   0  0  0  0  0  0  0  0  0  0  0  0
  140.5490   76.1728  222.4264 H   0  0  0  0  0  0  0  0  0  0  0  0
  142.1791   78.0157  222.8126 H   0  0  0  0  0  0  0  0  0  0  0  0
  1  2  1  0
  2  3  2  0
  2  4  2  0
  2  5  1  0
  5  6  2  0
  6  7  1  0
  7  8  2  0
  8  9  1  0
  9 10  1  0
 10 11  1  0
 11 12  1  0
 12 13  1  0
 13 14  2  0
 14 15  1  0
 15 16  1  0
 16 17  1  0
 17 18  1  0
 18 19  1  0
 19 20  1  0
 20 21  1  0
 20 22  1  0
 22 23  1  0
 15 24  2  0
 24 25  1  0
 25 26  1  0
 26 27  1  0
 27 28  1  0
 28 29  1  0
 29 30  2  0
 30 31  1  0
 31 32  2  0
 32 33  1  0
 33 34  2  0
 34 35  1  0
 25 36  2  0
 12 37  1  0
 37 38  1  0
  8 39  1  0
 39 40  2  0
 40  5  1  0
 38  9  1  0
 36 13  1  0
 23 17  1  0
 35 26  1  0
 34 29  1  0
  1 41  1  0
  1 42  1  0
  1 43  1  0
  6 44  1  0
  7 45  1  0
  9 46  1  0
 10 47  1  0
 10 48  1  0
 11 49  1  0
 11 50  1  0
 16 51  1  0
 17 52  1  6
 18 53  1  0
 18 54  1  0
 19 55  1  0
 19 56  1  0
 20 57  1  6
 21 58  1  0
 21 59  1  0
 22 60  1  0
 22 61  1  0
 23 62  1  0
 23 63  1  0
 27 64  1  0
 27 65  1  0
 28 66  1  0
 28 67  1  0
 30 68  1  0
 31 69  1  0
 32 70  1  0
 33 71  1  0
 35 72  1  0
 35 73  1  0
 37 74  1  0
 37 75  1  0
 38 76  1  0
 38 77  1  0
 39 78  1  0
 40 79  1  0
M  END
>  <smiles>  (48) 
CS(=O)(=O)c1ccc(C2CCN(c3nc(N[C@H]4CC[C@H](N)CC4)nc(N4CCc5ccccc5C4)n3)CC2)cc1

>  <score_type>  (48) 
oracle

>  <origin>  (48) 
autodockgpu

>  <m_score__min__energy>  (48) 
-10.390000000000001

>  <m_primary>  (48) 
energy

>  <rmsd>  (48) 
7.94831452628944

>  <m_score__min__rmsd>  (48) 
7.94831452628944

>  <meeko>  (48) 
{"free_energy": -10.1, "intermolecular_energy": -12.19, "internal_energy": -1.8, "cluster_size": 18, "cluster_id": 2, "rank_in_cluster": 7}

>  <energy>  (48) 
-8.51

>  <cluster_rmsd>  (48) 
0.0

>  <cluster>  (48) 
11

$$$$

     RDKit          3D

 79 84  0  0  0  0  0  0  0  0999 V2000
  142.5810   81.7110  215.1240 C   0  0  0  0  0  0  0  0  0  0  0  0
  142.4510   82.2950  216.7970 S   0  0  0  0  0  0  0  0  0  0  0  0
  143.7460   83.0050  217.1480 O   0  0  0  0  0  0  0  0  0  0  0  0
  141.2830   83.2590  216.8950 O   0  0  0  0  0  0  0  0  0  0  0  0
  142.2570   80.9900  217.9440 C   0  0  0  0  0  0  0  0  0  0  0  0
  141.8230   81.1810  219.2380 C   0  0  0  0  0  0  0  0  0  0  0  0
  141.6810   80.1300  220.1200 C   0  0  0  0  0  0  0  0  0  0  0  0
  141.9900   78.8610  219.6640 C   0  0  0  0  0  0  0  0  0  0  0  0
  141.8800   77.6470  220.5140 C   0  0  0  0  0  0  0  0  0  0  0  0
  141.6190   76.4340  219.6420 C   0  0  0  0  0  0  0  0  0  0  0  0
  141.6890   75.2240  220.5440 C   0  0  0  0  0  0  0  0  0  0  0  0
  140.7550   75.3510  221.6630 N   0  0  0  0  0  0  0  0  0  0  0  0
  139.7910   74.3430  221.9540 C   0  0  0  0  0  0  0  0  0  0  0  0
  138.5090   74.4560  221.5620 N   0  0  0  0  0  0  0  0  0  0  0  0
  137.5820   73.5070  221.8330 C   0  0  0  0  0  0  0  0  0  0  0  0
  136.2330   73.6460  221.4010 N   0  0  0  0  0  0  0  0  0  0  0  0
  135.2800   74.4850  222.0800 C   0  0  1  0  0  0  0  0  0  0  0  0
  134.1230   73.7120  222.6510 C   0  0  0  0  0  0  0  0  0  0  0  0
  134.4450   73.1040  223.9970 C   0  0  0  0  0  0  0  0  0  0  0  0
  135.0280   74.1230  224.9480 C   0  0  2  0  0  0  0  0  0  0  0  0
  134.3240   74.2550  226.1820 N   0  0  0  0  0  0  0  0  0  0  0  0
  135.1230   75.4910  224.3010 C   0  0  0  0  0  0  0  0  0  0  0  0
  135.9940   75.3410  223.0980 C   0  0  0  0  0  0  0  0  0  0  0  0
  137.9870   72.4110  222.5280 N   0  0  0  0  0  0  0  0  0  0  0  0
  139.2600   72.2610  222.9380 C   0  0  0  0  0  0  0  0  0  0  0  0
  139.6530   71.1000  223.6640 N   0  0  0  0  0  0  0  0  0  0  0  0
  138.8520   69.9190  223.5240 C   0  0  0  0  0  0  0  0  0  0  0  0
  139.2010   68.8090  224.4620 C   0  0  0  0  0  0  0  0  0  0  0  0
  139.7630   69.2820  225.7530 C   0  0  0  0  0  0  0  0  0  0  0  0
  139.4700   68.5680  226.8780 C   0  0  0  0  0  0  0  0  0  0  0  0
  140.0070   69.0300  228.0810 C   0  0  0  0  0  0  0  0  0  0  0  0
  140.7960   70.1540  228.1130 C   0  0  0  0  0  0  0  0  0  0  0  0
  141.0800   70.8600  226.9660 C   0  0  0  0  0  0  0  0  0  0  0  0
  140.5560   70.4150  225.7790 C   0  0  0  0  0  0  0  0  0  0  0  0
  140.8350   71.1460  224.5090 C   0  0  0  0  0  0  0  0  0  0  0  0
  140.1470   73.2510  222.6340 N   0  0  0  0  0  0  0  0  0  0  0  0
  140.8710   76.5590  222.4580 C   0  0  0  0  0  0  0  0  0  0  0  0
  140.7830   77.7530  221.5270 C   0  0  0  0  0  0  0  0  0  0  0  0
  142.4330   78.6440  218.3540 C   0  0  0  0  0  0  0  0  0  0  0  0
  142.5690   79.7060  217.4850 C   0  0  0  0  0  0  0  0  0  0  0  0
  142.8200   80.6373  215.1280 H   0  0  0  0  0  0  0  0  0  0  0  0
  141.6250   81.8719  214.6041 H   0  0  0  0  0  0  0  0  0  0  0  0
  143.3784   82.2622  214.6041 H   0  0  0  0  0  0  0  0  0  0  0  0
  141.5832   82.1997  219.5768 H   0  0  0  0  0  0  0  0  0  0  0  0
  141.3339   80.2952  221.1506 H   0  0  0  0  0  0  0  0  0  0  0  0
  142.8333   77.5462  221.0535 H   0  0  0  0  0  0  0  0  0  0  0  0
  140.6225   76.5060  219.1818 H   0  0  0  0  0  0  0  0  0  0  0  0
  142.3589   76.3647  218.8309 H   0  0  0  0  0  0  0  0  0  0  0  0
  141.4337   74.3261  219.9622 H   0  0  0  0  0  0  0  0  0  0  0  0
  142.7098   75.1445  220.9461 H   0  0  0  0  0  0  0  0  0  0  0  0
  135.9410   73.1100  220.5530 H   0  0  0  0  0  0  0  0  0  0  0  0
  134.8166   75.1562  221.3419 H   0  0  0  0  0  0  0  0  0  0  0  0
  133.8586   72.9043  221.9526 H   0  0  0  0  0  0  0  0  0  0  0  0
  133.2872   74.4133  222.7908 H   0  0  0  0  0  0  0  0  0  0  0  0
  135.1729   72.2915  223.8557 H   0  0  0  0  0  0  0  0  0  0  0  0
  133.5092   72.7250  224.4336 H   0  0  0  0  0  0  0  0  0  0  0  0
  136.0285   73.7306  225.1824 H   0  0  0  0  0  0  0  0  0  0  0  0
  134.2280   75.2350  226.5000 H   0  0  0  0  0  0  0  0  0  0  0  0
  133.4290   73.7260  226.2500 H   0  0  0  0  0  0  0  0  0  0  0  0
  135.5680   76.2116  225.0030 H   0  0  0  0  0  0  0  0  0  0  0  0
  134.1269   75.8652  224.0222 H   0  0  0  0  0  0  0  0  0  0  0  0
  136.9408   74.8604  223.3854 H   0  0  0  0  0  0  0  0  0  0  0  0
  136.2084   76.3304  222.6678 H   0  0  0  0  0  0  0  0  0  0  0  0
  137.8016   70.1957  223.6973 H   0  0  0  0  0  0  0  0  0  0  0  0
  139.0391   69.5369  222.5096 H   0  0  0  0  0  0  0  0  0  0  0  0
  138.2898   68.2289  224.6701 H   0  0  0  0  0  0  0  0  0  0  0  0
  139.9775   68.2026  223.9727 H   0  0  0  0  0  0  0  0  0  0  0  0
  138.8386   67.6681  226.8389 H   0  0  0  0  0  0  0  0  0  0  0  0
  139.7958   68.4875  229.0143 H   0  0  0  0  0  0  0  0  0  0  0  0
  141.2087   70.4964  229.0735 H   0  0  0  0  0  0  0  0  0  0  0  0
  141.7121   71.7596  227.0004 H   0  0  0  0  0  0  0  0  0  0  0  0
  141.0862   72.1930  224.7342 H   0  0  0  0  0  0  0  0  0  0  0  0
  141.6814   70.6743  223.9882 H   0  0  0  0  0  0  0  0  0  0  0  0
  140.0540   76.6000  223.1934 H   0  0  0  0  0  0  0  0  0  0  0  0
  141.8307   76.5679  222.9955 H   0  0  0  0  0  0  0  0  0  0  0  0
  139.8075   77.7561  221.0187 H   0  0  0  0  0  0  0  0  0  0  0  0
  140.8877   78.6862  222.0998 H   0  0  0  0  0  0  0  0  0  0  0  0
  142.6730   77.6247  218.0172 H   0  0  0  0  0  0  0  0  0  0  0  0
  142.9154   79.5469  216.4531 H   0  0  0  0  0  0  0  0  0  0  0  0
  1  2  1  0
  2  3  2  0
  2  4  2  0
  2  5  1  0
  5  6  2  0
  6  7  1  0
  7  8  2  0
  8  9  1  0
  9 10  1  0
 10 11  1  0
 11 12  1  0
 12 13  1  0
 13 14  2  0
 14 15  1  0
 15 16  1  0
 16 17  1  0
 17 18  1  0
 18 19  1  0
 19 20  1  0
 20 21  1  0
 20 22  1  0
 22 23  1  0
 15 24  2  0
 24 25  1  0
 25 26  1  0
 26 27  1  0
 27 28  1  0
 28 29  1  0
 29 30  2  0
 30 31  1  0
 31 32  2  0
 32 33  1  0
 33 34  2  0
 34 35  1  0
 25 36  2  0
 12 37  1  0
 37 38  1  0
  8 39  1  0
 39 40  2  0
 40  5  1  0
 38  9  1  0
 36 13  1  0
 23 17  1  0
 35 26  1  0
 34 29  1  0
  1 41  1  0
  1 42  1  0
  1 43  1  0
  6 44  1  0
  7 45  1  0
  9 46  1  0
 10 47  1  0
 10 48  1  0
 11 49  1  0
 11 50  1  0
 16 51  1  0
 17 52  1  6
 18 53  1  0
 18 54  1  0
 19 55  1  0
 19 56  1  0
 20 57  1  1
 21 58  1  0
 21 59  1  0
 22 60  1  0
 22 61  1  0
 23 62  1  0
 23 63  1  0
 27 64  1  0
 27 65  1  0
 28 66  1  0
 28 67  1  0
 30 68  1  0
 31 69  1  0
 32 70  1  0
 33 71  1  0
 35 72  1  0
 35 73  1  0
 37 74  1  0
 37 75  1  0
 38 76  1  0
 38 77  1  0
 39 78  1  0
 40 79  1  0
M  END
>  <smiles>  (49) 
CS(=O)(=O)c1ccc(C2CCN(c3nc(N[C@H]4CC[C@H](N)CC4)nc(N4CCc5ccccc5C4)n3)CC2)cc1

>  <score_type>  (49) 
oracle

>  <origin>  (49) 
autodockgpu

>  <m_score__min__energy>  (49) 
-10.390000000000001

>  <m_primary>  (49) 
energy

>  <rmsd>  (49) 
10.571069226156231

>  <m_score__min__rmsd>  (49) 
10.571069226156231

>  <meeko>  (49) 
{"free_energy": -9.42, "intermolecular_energy": -11.51, "internal_energy": -1.65, "cluster_size": 12, "cluster_id": 4, "rank_in_cluster": 6}

>  <energy>  (49) 
-8.37

>  <cluster_rmsd>  (49) 
0.7

>  <cluster>  (49) 
11

$$$$

     RDKit          3D

 79 84  0  0  0  0  0  0  0  0999 V2000
  144.0710   82.8440  216.6410 C   0  0  0  0  0  0  0  0  0  0  0  0
  142.3840   82.5050  217.0830 S   0  0  0  0  0  0  0  0  0  0  0  0
  141.8820   83.6540  217.9380 O   0  0  0  0  0  0  0  0  0  0  0  0
  141.5540   82.3950  215.8160 O   0  0  0  0  0  0  0  0  0  0  0  0
  142.2260   81.0500  218.0380 C   0  0  0  0  0  0  0  0  0  0  0  0
  142.4960   79.7910  217.5450 C   0  0  0  0  0  0  0  0  0  0  0  0
  142.3600   78.6600  218.3230 C   0  0  0  0  0  0  0  0  0  0  0  0
  141.9420   78.8260  219.6320 C   0  0  0  0  0  0  0  0  0  0  0  0
  141.7570   77.6910  220.5730 C   0  0  0  0  0  0  0  0  0  0  0  0
  141.7580   76.3840  219.8030 C   0  0  0  0  0  0  0  0  0  0  0  0
  141.7410   75.2740  220.8280 C   0  0  0  0  0  0  0  0  0  0  0  0
  140.6010   75.4180  221.7350 N   0  0  0  0  0  0  0  0  0  0  0  0
  139.6740   74.3570  221.9500 C   0  0  0  0  0  0  0  0  0  0  0  0
  138.4340   74.3860  221.4320 N   0  0  0  0  0  0  0  0  0  0  0  0
  137.5420   73.3860  221.6290 C   0  0  0  0  0  0  0  0  0  0  0  0
  136.2370   73.4360  221.0630 N   0  0  0  0  0  0  0  0  0  0  0  0
  135.1160   74.0300  221.7440 C   0  0  1  0  0  0  0  0  0  0  0  0
  134.5210   73.1270  222.7890 C   0  0  0  0  0  0  0  0  0  0  0  0
  135.2680   73.1970  224.1020 C   0  0  0  0  0  0  0  0  0  0  0  0
  135.4600   74.6230  224.5630 C   0  0  2  0  0  0  0  0  0  0  0  0
  134.9520   74.8990  225.8690 N   0  0  0  0  0  0  0  0  0  0  0  0
  134.8390   75.6060  223.5900 C   0  0  0  0  0  0  0  0  0  0  0  0
  135.5050   75.3890  222.2720 C   0  0  0  0  0  0  0  0  0  0  0  0
  137.9410   72.3270  222.3830 N   0  0  0  0  0  0  0  0  0  0  0  0
  139.1730   72.2610  222.9200 C   0  0  0  0  0  0  0  0  0  0  0  0
  139.5600   71.1370  223.7030 N   0  0  0  0  0  0  0  0  0  0  0  0
  138.7300   69.9680  223.6560 C   0  0  0  0  0  0  0  0  0  0  0  0
  139.0790   68.9090  224.6500 C   0  0  0  0  0  0  0  0  0  0  0  0
  139.6860   69.4450  225.8950 C   0  0  0  0  0  0  0  0  0  0  0  0
  139.4070   68.8070  227.0680 C   0  0  0  0  0  0  0  0  0  0  0  0
  139.9870   69.3270  228.2280 C   0  0  0  0  0  0  0  0  0  0  0  0
  140.8000   70.4330  228.1720 C   0  0  0  0  0  0  0  0  0  0  0  0
  141.0690   71.0620  226.9770 C   0  0  0  0  0  0  0  0  0  0  0  0
  140.5040   70.5590  225.8330 C   0  0  0  0  0  0  0  0  0  0  0  0
  140.7650   71.2060  224.5150 C   0  0  0  0  0  0  0  0  0  0  0  0
  140.0250   73.2990  222.6840 N   0  0  0  0  0  0  0  0  0  0  0  0
  140.4750   76.6990  222.4030 C   0  0  0  0  0  0  0  0  0  0  0  0
  140.4820   77.7890  221.3480 C   0  0  0  0  0  0  0  0  0  0  0  0
  141.6630   80.0950  220.1530 C   0  0  0  0  0  0  0  0  0  0  0  0
  141.8030   81.2150  219.3600 C   0  0  0  0  0  0  0  0  0  0  0  0
  144.6721   82.9648  217.5543 H   0  0  0  0  0  0  0  0  0  0  0  0
  144.4696   82.0080  216.0475 H   0  0  0  0  0  0  0  0  0  0  0  0
  144.1158   83.7691  216.0475 H   0  0  0  0  0  0  0  0  0  0  0  0
  142.8292   79.6855  216.5020 H   0  0  0  0  0  0  0  0  0  0  0  0
  142.5763   77.6608  217.9171 H   0  0  0  0  0  0  0  0  0  0  0  0
  142.5923   77.7280  221.2878 H   0  0  0  0  0  0  0  0  0  0  0  0
  140.8663   76.3213  219.1620 H   0  0  0  0  0  0  0  0  0  0  0  0
  142.6429   76.3087  219.1540 H   0  0  0  0  0  0  0  0  0  0  0  0
  141.6690   74.3064  220.3098 H   0  0  0  0  0  0  0  0  0  0  0  0
  142.6681   75.3260  221.4177 H   0  0  0  0  0  0  0  0  0  0  0  0
  136.1070   73.0200  220.1130 H   0  0  0  0  0  0  0  0  0  0  0  0
  134.3023   74.1727  221.0177 H   0  0  0  0  0  0  0  0  0  0  0  0
  134.5511   72.0912  222.4199 H   0  0  0  0  0  0  0  0  0  0  0  0
  133.4883   73.4591  222.9717 H   0  0  0  0  0  0  0  0  0  0  0  0
  136.2548   72.7277  223.9757 H   0  0  0  0  0  0  0  0  0  0  0  0
  134.6735   72.6690  224.8622 H   0  0  0  0  0  0  0  0  0  0  0  0
  136.5521   74.7481  224.6027 H   0  0  0  0  0  0  0  0  0  0  0  0
  135.4830   75.6310  226.3720 H   0  0  0  0  0  0  0  0  0  0  0  0
  133.9220   75.0400  225.9320 H   0  0  0  0  0  0  0  0  0  0  0  0
  135.0078   76.6371  223.9342 H   0  0  0  0  0  0  0  0  0  0  0  0
  133.7526   75.4515  223.5129 H   0  0  0  0  0  0  0  0  0  0  0  0
  136.5967   75.4373  222.3978 H   0  0  0  0  0  0  0  0  0  0  0  0
  135.1890   76.1681  221.5627 H   0  0  0  0  0  0  0  0  0  0  0  0
  137.6908   70.2791  223.8387 H   0  0  0  0  0  0  0  0  0  0  0  0
  138.8822   69.5211  222.6625 H   0  0  0  0  0  0  0  0  0  0  0  0
  138.1610   68.3646  224.9161 H   0  0  0  0  0  0  0  0  0  0  0  0
  139.8282   68.2559  224.1788 H   0  0  0  0  0  0  0  0  0  0  0  0
  138.7542   67.9222  227.0993 H   0  0  0  0  0  0  0  0  0  0  0  0
  139.7904   68.8453  229.1972 H   0  0  0  0  0  0  0  0  0  0  0  0
  141.2445   70.8235  229.0993 H   0  0  0  0  0  0  0  0  0  0  0  0
  141.7215   71.9468  226.9408 H   0  0  0  0  0  0  0  0  0  0  0  0
  141.0445   72.2585  224.6704 H   0  0  0  0  0  0  0  0  0  0  0  0
  141.5869   70.6844  224.0028 H   0  0  0  0  0  0  0  0  0  0  0  0
  139.5312   76.7332  222.9669 H   0  0  0  0  0  0  0  0  0  0  0  0
  141.3101   76.8447  223.1040 H   0  0  0  0  0  0  0  0  0  0  0  0
  139.6252   77.6558  220.6712 H   0  0  0  0  0  0  0  0  0  0  0  0
  140.4065   78.7768  221.8261 H   0  0  0  0  0  0  0  0  0  0  0  0
  141.3315   80.1992  221.1967 H   0  0  0  0  0  0  0  0  0  0  0  0
  141.5863   82.2167  219.7595 H   0  0  0  0  0  0  0  0  0  0  0  0
  1  2  1  0
  2  3  2  0
  2  4  2  0
  2  5  1  0
  5  6  2  0
  6  7  1  0
  7  8  2  0
  8  9  1  0
  9 10  1  0
 10 11  1  0
 11 12  1  0
 12 13  1  0
 13 14  2  0
 14 15  1  0
 15 16  1  0
 16 17  1  0
 17 18  1  0
 18 19  1  0
 19 20  1  0
 20 21  1  0
 20 22  1  0
 22 23  1  0
 15 24  2  0
 24 25  1  0
 25 26  1  0
 26 27  1  0
 27 28  1  0
 28 29  1  0
 29 30  2  0
 30 31  1  0
 31 32  2  0
 32 33  1  0
 33 34  2  0
 34 35  1  0
 25 36  2  0
 12 37  1  0
 37 38  1  0
  8 39  1  0
 39 40  2  0
 40  5  1  0
 38  9  1  0
 36 13  1  0
 23 17  1  0
 35 26  1  0
 34 29  1  0
  1 41  1  0
  1 42  1  0
  1 43  1  0
  6 44  1  0
  7 45  1  0
  9 46  1  0
 10 47  1  0
 10 48  1  0
 11 49  1  0
 11 50  1  0
 16 51  1  0
 17 52  1  6
 18 53  1  0
 18 54  1  0
 19 55  1  0
 19 56  1  0
 20 57  1  1
 21 58  1  0
 21 59  1  0
 22 60  1  0
 22 61  1  0
 23 62  1  0
 23 63  1  0
 27 64  1  0
 27 65  1  0
 28 66  1  0
 28 67  1  0
 30 68  1  0
 31 69  1  0
 32 70  1  0
 33 71  1  0
 35 72  1  0
 35 73  1  0
 37 74  1  0
 37 75  1  0
 38 76  1  0
 38 77  1  0
 39 78  1  0
 40 79  1  0
M  END
>  <smiles>  (50) 
CS(=O)(=O)c1ccc(C2CCN(c3nc(N[C@H]4CC[C@H](N)CC4)nc(N4CCc5ccccc5C4)n3)CC2)cc1

>  <score_type>  (50) 
oracle

>  <origin>  (50) 
autodockgpu

>  <m_score__min__energy>  (50) 
-10.390000000000001

>  <m_primary>  (50) 
energy

>  <rmsd>  (50) 
10.419088566455075

>  <m_score__min__rmsd>  (50) 
10.419088566455075

>  <meeko>  (50) 
{"free_energy": -9.19, "intermolecular_energy": -11.27, "internal_energy": -1.78, "cluster_size": 12, "cluster_id": 4, "rank_in_cluster": 11}

>  <energy>  (50) 
-8.1

>  <cluster_rmsd>  (50) 
0.0

>  <cluster>  (50) 
12

$$$$
