
     RDKit          3D

 66 69  0  0  1  0  0  0  0  0999 V2000
  141.5400   79.3840  223.6670 C   0  0  0  0  0  0  0  0  0  0  0  0
  142.2260   79.5420  222.3340 C   0  0  1  0  0  0  0  0  0  0  0  0
  142.1170   78.3460  221.5210 N   0  0  0  0  0  0  0  0  0  0  0  0
  140.8950   77.8040  221.0700 C   0  0  0  0  0  0  0  0  0  0  0  0
  139.8140   78.3900  221.3900 O   0  0  0  0  0  0  0  0  0  0  0  0
  140.7710   76.5870  220.2400 C   0  0  1  0  0  0  0  0  0  0  0  0
  142.1760   76.0670  219.9770 C   0  0  0  0  0  0  0  0  0  0  0  0
  142.3170   74.7920  220.7610 C   0  0  2  0  0  0  0  0  0  0  0  0
  142.4420   73.6810  219.8430 N   0  0  0  0  0  0  0  0  0  0  0  0
  141.9090   72.4940  220.4740 C   0  0  0  0  0  0  0  0  0  0  0  0
  141.8300   73.9350  218.5680 C   0  0  0  0  0  0  0  0  0  0  0  0
  141.0760   74.6870  221.6080 C   0  0  0  0  0  0  0  0  0  0  0  0
  140.0900   75.5000  220.8800 N   0  0  0  0  0  0  0  0  0  0  0  0
  138.6750   75.2560  220.8090 C   0  0  0  0  0  0  0  0  0  0  0  0
  137.8370   76.1970  220.7640 O   0  0  0  0  0  0  0  0  0  0  0  0
  138.2010   73.8500  220.7890 C   0  0  0  0  0  0  0  0  0  0  0  0
  138.6140   73.1830  222.0140 N   0  0  0  0  0  0  0  0  0  0  0  0
  138.6870   71.7640  221.9720 C   0  0  0  0  0  0  0  0  0  0  0  0
  138.3850   71.2210  220.8720 O   0  0  0  0  0  0  0  0  0  0  0  0
  139.0880   70.9790  223.1340 C   0  0  0  0  0  0  0  0  0  0  0  0
  138.8270   69.6250  223.1260 C   0  0  0  0  0  0  0  0  0  0  0  0
  139.1740   68.8170  224.1900 C   0  0  0  0  0  0  0  0  0  0  0  0
  139.7940   69.4280  225.2570 C   0  0  0  0  0  0  0  0  0  0  0  0
  140.1560   68.6460  226.3390 C   0  0  0  0  0  0  0  0  0  0  0  0
  140.7840   69.2330  227.4340 C   0  0  0  0  0  0  0  0  0  0  0  0
  141.2130   68.1940  228.7620 Cl  0  0  0  0  0  0  0  0  0  0  0  0
  141.0480   70.5970  227.4460 C   0  0  0  0  0  0  0  0  0  0  0  0
  140.6840   71.3900  226.3540 C   0  0  0  0  0  0  0  0  0  0  0  0
  140.0610   70.8020  225.2710 C   0  0  0  0  0  0  0  0  0  0  0  0
  139.6980   71.5410  224.2010 N   0  0  0  0  0  0  0  0  0  0  0  0
  141.7960   80.7730  221.6210 C   0  0  0  0  0  0  0  0  0  0  0  0
  141.8210   80.8210  220.2390 C   0  0  0  0  0  0  0  0  0  0  0  0
  141.4340   81.9350  219.5190 C   0  0  0  0  0  0  0  0  0  0  0  0
  140.9950   83.0710  220.2030 C   0  0  0  0  0  0  0  0  0  0  0  0
  140.9650   83.0320  221.5970 C   0  0  0  0  0  0  0  0  0  0  0  0
  141.3570   81.9050  222.2990 C   0  0  0  0  0  0  0  0  0  0  0  0
  142.2668   79.5514  224.4755 H   0  0  0  0  0  0  0  0  0  0  0  0
  140.7247   80.1179  223.7491 H   0  0  0  0  0  0  0  0  0  0  0  0
  141.1279   78.3674  223.7491 H   0  0  0  0  0  0  0  0  0  0  0  0
  143.2987   79.6744  222.5383 H   0  0  0  0  0  0  0  0  0  0  0  0
  143.0100   77.8730  221.2660 H   0  0  0  0  0  0  0  0  0  0  0  0
  140.2014   76.8832  219.3468 H   0  0  0  0  0  0  0  0  0  0  0  0
  142.3126   75.8694  218.9036 H   0  0  0  0  0  0  0  0  0  0  0  0
  142.9344   76.8041  220.2795 H   0  0  0  0  0  0  0  0  0  0  0  0
  143.2121   74.7808  221.4003 H   0  0  0  0  0  0  0  0  0  0  0  0
  141.9592   72.6059  221.5671 H   0  0  0  0  0  0  0  0  0  0  0  0
  140.8618   72.3545  220.1674 H   0  0  0  0  0  0  0  0  0  0  0  0
  142.5005   71.6187  220.1674 H   0  0  0  0  0  0  0  0  0  0  0  0
  140.8239   74.3526  218.7209 H   0  0  0  0  0  0  0  0  0  0  0  0
  142.4431   74.6530  218.0035 H   0  0  0  0  0  0  0  0  0  0  0  0
  141.7545   72.9939  218.0035 H   0  0  0  0  0  0  0  0  0  0  0  0
  140.7418   73.6420  221.6870 H   0  0  0  0  0  0  0  0  0  0  0  0
  141.2336   75.0303  222.6411 H   0  0  0  0  0  0  0  0  0  0  0  0
  137.1037   73.8338  220.7144 H   0  0  0  0  0  0  0  0  0  0  0  0
  138.6345   73.3286  219.9228 H   0  0  0  0  0  0  0  0  0  0  0  0
  138.8500   73.6990  222.8940 H   0  0  0  0  0  0  0  0  0  0  0  0
  138.3309   69.1785  222.2516 H   0  0  0  0  0  0  0  0  0  0  0  0
  138.9653   67.7370  224.1858 H   0  0  0  0  0  0  0  0  0  0  0  0
  139.9487   67.5657  226.3343 H   0  0  0  0  0  0  0  0  0  0  0  0
  141.5438   71.0532  228.3155 H   0  0  0  0  0  0  0  0  0  0  0  0
  140.8915   72.4702  226.3573 H   0  0  0  0  0  0  0  0  0  0  0  0
  142.1643   79.9327  219.6885 H   0  0  0  0  0  0  0  0  0  0  0  0
  141.4712   81.9273  218.4197 H   0  0  0  0  0  0  0  0  0  0  0  0
  140.6812   83.9727  219.6567 H   0  0  0  0  0  0  0  0  0  0  0  0
  140.6217   83.9177  222.1517 H   0  0  0  0  0  0  0  0  0  0  0  0
  141.3210   81.9050  223.3984 H   0  0  0  0  0  0  0  0  0  0  0  0
  1  2  1  0
  2  3  1  0
  3  4  1  0
  4  5  2  0
  4  6  1  0
  6  7  1  0
  7  8  1  0
  8  9  1  0
  9 10  1  0
  9 11  1  0
  8 12  1  0
 12 13  1  0
 13 14  1  0
 14 15  2  0
 14 16  1  0
 16 17  1  0
 17 18  1  0
 18 19  2  0
 18 20  1  0
 20 21  2  0
 21 22  1  0
 22 23  2  0
 23 24  1  0
 24 25  2  0
 25 26  1  0
 25 27  1  0
 27 28  2  0
 28 29  1  0
 29 30  2  0
  2 31  1  0
 31 32  2  0
 32 33  1  0
 33 34  2  0
 34 35  1  0
 35 36  2  0
 13  6  1  0
 30 20  1  0
 36 31  1  0
 29 23  1  0
  1 37  1  0
  1 38  1  0
  1 39  1  0
  2 40  1  1
  3 41  1  0
  6 42  1  6
  7 43  1  0
  7 44  1  0
  8 45  1  1
 10 46  1  0
 10 47  1  0
 10 48  1  0
 11 49  1  0
 11 50  1  0
 11 51  1  0
 12 52  1  0
 12 53  1  0
 16 54  1  0
 16 55  1  0
 17 56  1  0
 21 57  1  0
 22 58  1  0
 24 59  1  0
 27 60  1  0
 28 61  1  0
 32 62  1  0
 33 63  1  0
 34 64  1  0
 35 65  1  0
 36 66  1  0
M  END
