@<TRIPOS>MOLECULE
*****
 77 83 0 0 0
SMALL
GASTEIGER

@<TRIPOS>ATOM
      1 C         145.9050   67.9700  219.1070 C.ar    1  UNL1       -0.0615
      2 C         144.6750   67.4230  219.4360 C.ar    1  UNL1       -0.0614
      3 C         143.6210   68.2690  219.6920 C.ar    1  UNL1       -0.0568
      4 C         143.7890   69.6370  219.6200 C.ar    1  UNL1       -0.0269
      5 C         144.9880   70.2000  219.2990 C.ar    1  UNL1       -0.0412
      6 C         146.0460   69.3390  219.0430 C.ar    1  UNL1       -0.0582
      7 C         145.2390   71.6380  219.2050 C.3     1  UNL1       -0.0115
      8 C         144.1930   72.5220  219.7820 C.3     1  UNL1        0.0192
      9 N         142.9750   71.8750  220.1770 N.pl3   1  UNL1       -0.2948
     10 C         142.0210   72.6600  220.9020 C.ar    1  UNL1        0.2240
     11 N         141.0440   72.0900  221.6300 N.ar    1  UNL1       -0.1809
     12 C         140.1180   72.7840  222.3310 C.ar    1  UNL1        0.2213
     13 N         139.1050   72.1100  223.0810 N.pl3   1  UNL1       -0.3090
     14 C         138.6970   70.7960  222.7120 C.3     1  UNL1        0.0389
     15 C         137.2250   70.5120  222.8810 C.3     1  UNL1       -0.0330
     16 C         136.9120   69.3520  221.9230 C.3     1  UNL1       -0.0513
     17 C         137.7200   68.1360  222.3220 C.3     1  UNL1       -0.0515
     18 C         139.1780   68.4470  222.4080 C.3     1  UNL1       -0.0356
     19 C         139.4740   69.6680  223.2910 C.3     1  UNL1        0.0288
     20 N         139.1030   69.2810  224.6300 N.3     1  UNL1       -0.2976
     21 C         139.6790   70.0780  225.6750 C.3     1  UNL1       -0.0007
     22 C         139.5840   69.2360  226.9400 C.3     1  UNL1       -0.0390
     23 C         139.2760   67.8640  226.4390 C.3     1  UNL1       -0.0390
     24 C         139.5720   67.9700  224.9480 C.3     1  UNL1       -0.0007
     25 N         140.2120   74.1240  222.2710 N.ar    1  UNL1       -0.1809
     26 C         141.1690   74.7450  221.5590 C.ar    1  UNL1        0.2240
     27 N         141.2470   76.1620  221.5130 N.pl3   1  UNL1       -0.2948
     28 C         141.8370   76.8300  220.3570 C.3     1  UNL1        0.0192
     29 C         141.1480   78.1830  220.2270 C.3     1  UNL1       -0.0115
     30 C         141.5250   78.9510  221.4400 C.ar    1  UNL1       -0.0412
     31 C         142.0570   80.2160  221.3610 C.ar    1  UNL1       -0.0582
     32 C         142.3870   80.8730  222.5400 C.ar    1  UNL1       -0.0615
     33 C         142.1740   80.2480  223.7440 C.ar    1  UNL1       -0.0614
     34 C         141.6400   78.9790  223.8290 C.ar    1  UNL1       -0.0568
     35 C         141.3080   78.3150  222.6610 C.ar    1  UNL1       -0.0269
     36 C         140.7320   76.9530  222.6350 C.3     1  UNL1        0.0402
     37 N         142.0470   74.0120  220.8940 N.ar    1  UNL1       -0.1807
     38 C         142.6400   70.5010  219.9000 C.3     1  UNL1        0.0402
     39 H         146.7637   67.3150  218.8982 H       1  UNL1        0.0618
     40 H         144.5439   66.3322  219.4914 H       1  UNL1        0.0618
     41 H         142.6377   67.8524  219.9559 H       1  UNL1        0.0621
     42 H         147.0269   69.7625  218.7811 H       1  UNL1        0.0620
     43 H         146.1837   71.8494  219.7274 H       1  UNL1        0.0328
     44 H         145.2583   71.8655  218.1290 H       1  UNL1        0.0328
     45 H         144.6180   73.0119  220.6704 H       1  UNL1        0.0468
     46 H         143.9135   73.2177  218.9771 H       1  UNL1        0.0468
     47 H         138.7020   72.6090  223.8800 H       1  UNL1        0.1492
     48 H         138.9326   70.8304  221.6381 H       1  UNL1        0.0514
     49 H         137.0073   70.2212  223.9193 H       1  UNL1        0.0284
     50 H         136.6126   71.3983  222.6587 H       1  UNL1        0.0284
     51 H         135.8396   69.1128  221.9749 H       1  UNL1        0.0266
     52 H         137.1731   69.6446  220.8953 H       1  UNL1        0.0266
     53 H         137.3720   67.7830  223.3040 H       1  UNL1        0.0266
     54 H         137.5787   67.3623  221.5529 H       1  UNL1        0.0266
     55 H         139.6995   67.5744  222.8283 H       1  UNL1        0.0281
     56 H         139.5278   68.6803  221.3915 H       1  UNL1        0.0281
     57 H         140.5230   69.9969  223.3298 H       1  UNL1        0.0481
     58 H         140.7301   70.3080  225.4461 H       1  UNL1        0.0427
     59 H         139.1541   71.0381  225.7877 H       1  UNL1        0.0427
     60 H         140.5370   69.2468  227.4892 H       1  UNL1        0.0278
     61 H         138.8242   69.6107  227.6417 H       1  UNL1        0.0278
     62 H         139.9221   67.1137  226.9181 H       1  UNL1        0.0278
     63 H         138.2459   67.5443  226.6551 H       1  UNL1        0.0278
     64 H         140.6497   67.8747  224.7493 H       1  UNL1        0.0427
     65 H         139.0969   67.1783  224.3501 H       1  UNL1        0.0427
     66 H         142.9172   76.9691  220.5113 H       1  UNL1        0.0468
     67 H         141.7016   76.2304  219.4448 H       1  UNL1        0.0468
     68 H         141.4946   78.7033  219.3219 H       1  UNL1        0.0328
     69 H         140.0568   78.0735  220.1419 H       1  UNL1        0.0328
     70 H         142.2180   80.6978  220.3853 H       1  UNL1        0.0620
     71 H         142.8154   81.8857  222.5091 H       1  UNL1        0.0618
     72 H         142.4380   80.7769  224.6716 H       1  UNL1        0.0618
     73 H         141.4808   78.5032  224.8079 H       1  UNL1        0.0621
     74 H         140.9849   76.4421  223.5758 H       1  UNL1        0.0514
     75 H         139.6426   77.0462  222.5142 H       1  UNL1        0.0514
     76 H         142.1100   70.0943  220.7739 H       1  UNL1        0.0514
     77 H         142.0260   70.5081  218.9873 H       1  UNL1        0.0514
@<TRIPOS>BOND
     1     1     2   ar
     2     2     3   ar
     3     3     4   ar
     4     4     5   ar
     5     5     6   ar
     6     5     7    1
     7     7     8    1
     8     8     9    1
     9     9    10    1
    10    10    11   ar
    11    11    12   ar
    12    12    13    1
    13    13    14    1
    14    14    15    1
    15    15    16    1
    16    16    17    1
    17    17    18    1
    18    18    19    1
    19    19    20    1
    20    20    21    1
    21    21    22    1
    22    22    23    1
    23    23    24    1
    24    12    25   ar
    25    25    26   ar
    26    26    27    1
    27    27    28    1
    28    28    29    1
    29    29    30    1
    30    30    31   ar
    31    31    32   ar
    32    32    33   ar
    33    33    34   ar
    34    34    35   ar
    35    35    36    1
    36    26    37   ar
    37     9    38    1
    38     6     1   ar
    39    37    10   ar
    40    38     4    1
    41    19    14    1
    42    24    20    1
    43    36    27    1
    44    35    30   ar
    45     1    39    1
    46     2    40    1
    47     3    41    1
    48     6    42    1
    49     7    43    1
    50     7    44    1
    51     8    45    1
    52     8    46    1
    53    13    47    1
    54    14    48    1
    55    15    49    1
    56    15    50    1
    57    16    51    1
    58    16    52    1
    59    17    53    1
    60    17    54    1
    61    18    55    1
    62    18    56    1
    63    19    57    1
    64    21    58    1
    65    21    59    1
    66    22    60    1
    67    22    61    1
    68    23    62    1
    69    23    63    1
    70    24    64    1
    71    24    65    1
    72    28    66    1
    73    28    67    1
    74    29    68    1
    75    29    69    1
    76    31    70    1
    77    32    71    1
    78    33    72    1
    79    34    73    1
    80    36    74    1
    81    36    75    1
    82    38    76    1
    83    38    77    1
