@<TRIPOS>MOLECULE
*****
 73 78 0 0 0
SMALL
GASTEIGER

@<TRIPOS>ATOM
      1 O         135.9790   70.6480  222.0290 O.2     1  UNL1       -0.2700
      2 C         136.7280   71.2600  222.8140 C.2     1  UNL1        0.2489
      3 N         136.7150   70.8800  224.1960 N.am    1  UNL1       -0.3112
      4 C         135.8350   69.7960  224.6700 C.3     1  UNL1        0.0122
      5 C         134.3910   70.0550  224.4430 C.3     1  UNL1       -0.0345
      6 C         133.8310   70.9040  225.5380 C.3     1  UNL1       -0.0373
      7 C         134.2480   70.3740  226.9170 C.3     1  UNL1       -0.0375
      8 C         133.9280   71.4970  227.9020 C.3     1  UNL1       -0.0039
      9 N         132.7840   72.2720  227.5000 N.3     1  UNL1       -0.3160
     10 C         133.1490   73.0800  226.3440 C.3     1  UNL1       -0.0039
     11 C         134.2190   72.3420  225.5190 C.3     1  UNL1       -0.0375
     12 C         137.6310   72.3400  222.4540 C.ar    1  UNL1        0.0947
     13 C         137.0460   73.4260  221.7930 C.ar    1  UNL1        0.0466
     14 N         137.7850   74.4520  221.4170 N.ar    1  UNL1       -0.2219
     15 C         139.1100   74.4600  221.6680 C.ar    1  UNL1        0.2198
     16 N         139.8290   75.6020  221.2180 N.pl3   1  UNL1       -0.2950
     17 C         139.4210   76.4010  220.0790 C.3     1  UNL1        0.0192
     18 C         139.2250   77.8550  220.4000 C.3     1  UNL1       -0.0115
     19 C         139.9510   78.2620  221.6030 C.ar    1  UNL1       -0.0412
     20 C         139.7520   79.5760  222.0460 C.ar    1  UNL1       -0.0582
     21 C         140.3840   80.0670  223.1640 C.ar    1  UNL1       -0.0615
     22 C         141.2280   79.2880  223.8830 C.ar    1  UNL1       -0.0614
     23 C         141.4580   77.9670  223.4760 C.ar    1  UNL1       -0.0568
     24 C         140.8100   77.4950  222.3460 C.ar    1  UNL1       -0.0269
     25 C         141.0490   76.0700  221.9020 C.3     1  UNL1        0.0402
     26 N         139.6730   73.4360  222.2940 N.ar    1  UNL1       -0.1986
     27 C         138.9790   72.3370  222.7140 C.ar    1  UNL1        0.1389
     28 N         139.6720   71.3000  223.3710 N.pl3   1  UNL1       -0.3098
     29 C         139.4820   69.8970  223.2060 C.3     1  UNL1        0.0179
     30 C         139.2780   69.1740  224.5200 C.3     1  UNL1       -0.0115
     31 C         139.6740   69.9530  225.6980 C.ar    1  UNL1       -0.0412
     32 C         139.3300   69.4240  226.9460 C.ar    1  UNL1       -0.0582
     33 C         139.6780   70.1170  228.0790 C.ar    1  UNL1       -0.0615
     34 C         140.3540   71.3190  228.0660 C.ar    1  UNL1       -0.0614
     35 C         140.6920   71.8410  226.8390 C.ar    1  UNL1       -0.0568
     36 C         140.3450   71.1470  225.6790 C.ar    1  UNL1       -0.0269
     37 C         140.7050   71.7100  224.3420 C.3     1  UNL1        0.0388
     38 H         137.3510   71.3930  224.8730 H       1  UNL1        0.1490
     39 H         136.1088   68.8708  224.1417 H       1  UNL1        0.0462
     40 H         135.9797   69.7179  225.7576 H       1  UNL1        0.0462
     41 H         134.2635   70.5742  223.4817 H       1  UNL1        0.0283
     42 H         133.8558   69.0940  224.4300 H       1  UNL1        0.0283
     43 H         132.7480   70.8419  225.3554 H       1  UNL1        0.0302
     44 H         133.6773   69.4680  227.1689 H       1  UNL1        0.0280
     45 H         135.3131   70.1005  226.9432 H       1  UNL1        0.0280
     46 H         133.7254   71.0543  228.8884 H       1  UNL1        0.0424
     47 H         134.7957   72.1724  227.9329 H       1  UNL1        0.0424
     48 H         132.5900   72.9370  228.2740 H       1  UNL1        0.1219
     49 H         132.2590   73.2513  225.7206 H       1  UNL1        0.0424
     50 H         133.5501   74.0462  226.6840 H       1  UNL1        0.0424
     51 H         134.2339   72.7204  224.4863 H       1  UNL1        0.0280
     52 H         135.2255   72.4937  225.9360 H       1  UNL1        0.0280
     53 H         135.9656   73.4241  221.5861 H       1  UNL1        0.0839
     54 H         140.1950   76.3183  219.3018 H       1  UNL1        0.0468
     55 H         138.4478   76.0116  219.7456 H       1  UNL1        0.0468
     56 H         139.5829   78.4558  219.5509 H       1  UNL1        0.0328
     57 H         138.1526   78.0169  220.5839 H       1  UNL1        0.0328
     58 H         139.0716   80.2328  221.4842 H       1  UNL1        0.0620
     59 H         140.2022   81.1052  223.4787 H       1  UNL1        0.0618
     60 H         141.7277   79.6886  224.7773 H       1  UNL1        0.0618
     61 H         142.1404   77.3168  224.0431 H       1  UNL1        0.0621
     62 H         141.9040   76.0315  221.2109 H       1  UNL1        0.0514
     63 H         141.2746   75.4298  222.7676 H       1  UNL1        0.0514
     64 H         138.5964   69.7342  222.5741 H       1  UNL1        0.0467
     65 H         140.3938   69.4916  222.7431 H       1  UNL1        0.0467
     66 H         138.2113   68.9226  224.6143 H       1  UNL1        0.0328
     67 H         139.9230   68.2833  224.4963 H       1  UNL1        0.0328
     68 H         138.7896   68.4686  227.0187 H       1  UNL1        0.0620
     69 H         139.4016   69.6886  229.0537 H       1  UNL1        0.0618
     70 H         140.6127   71.8397  228.9998 H       1  UNL1        0.0618
     71 H         141.2313   72.7974  226.7727 H       1  UNL1        0.0621
     72 H         140.7459   72.8077  224.3998 H       1  UNL1        0.0513
     73 H         141.6901   71.3356  224.0268 H       1  UNL1        0.0513
@<TRIPOS>BOND
     1     1     2    2
     2     2     3   am
     3     3     4    1
     4     4     5    1
     5     5     6    1
     6     6     7    1
     7     7     8    1
     8     8     9    1
     9     9    10    1
    10    10    11    1
    11     2    12    1
    12    12    13   ar
    13    13    14   ar
    14    14    15   ar
    15    15    16    1
    16    16    17    1
    17    17    18    1
    18    18    19    1
    19    19    20   ar
    20    20    21   ar
    21    21    22   ar
    22    22    23   ar
    23    23    24   ar
    24    24    25    1
    25    15    26   ar
    26    26    27   ar
    27    27    28    1
    28    28    29    1
    29    29    30    1
    30    30    31    1
    31    31    32   ar
    32    32    33   ar
    33    33    34   ar
    34    34    35   ar
    35    35    36   ar
    36    36    37    1
    37    11     6    1
    38    27    12   ar
    39    37    28    1
    40    25    16    1
    41    36    31   ar
    42    24    19   ar
    43     3    38    1
    44     4    39    1
    45     4    40    1
    46     5    41    1
    47     5    42    1
    48     6    43    1
    49     7    44    1
    50     7    45    1
    51     8    46    1
    52     8    47    1
    53     9    48    1
    54    10    49    1
    55    10    50    1
    56    11    51    1
    57    11    52    1
    58    13    53    1
    59    17    54    1
    60    17    55    1
    61    18    56    1
    62    18    57    1
    63    20    58    1
    64    21    59    1
    65    22    60    1
    66    23    61    1
    67    25    62    1
    68    25    63    1
    69    29    64    1
    70    29    65    1
    71    30    66    1
    72    30    67    1
    73    32    68    1
    74    33    69    1
    75    34    70    1
    76    35    71    1
    77    37    72    1
    78    37    73    1
