@<TRIPOS>MOLECULE
*****
 65 70 0 0 0
SMALL
GASTEIGER

@<TRIPOS>ATOM
      1 C         146.3230   68.9980  217.7960 C.ar    1  UNL1       -0.0615
      2 C         145.5210   68.1360  218.5090 C.ar    1  UNL1       -0.0614
      3 C         144.4500   68.5980  219.2450 C.ar    1  UNL1       -0.0568
      4 C         144.1250   69.9480  219.3070 C.ar    1  UNL1       -0.0269
      5 C         144.9460   70.7960  218.5820 C.ar    1  UNL1       -0.0412
      6 C         146.0190   70.3550  217.8410 C.ar    1  UNL1       -0.0582
      7 C         144.5860   72.2550  218.6550 C.3     1  UNL1       -0.0115
      8 C         144.2780   72.5170  220.1140 C.3     1  UNL1        0.0192
      9 N         143.0790   71.7870  220.4800 N.pl3   1  UNL1       -0.2949
     10 C         142.0000   72.3800  221.1930 C.ar    1  UNL1        0.2227
     11 N         141.2460   71.7390  222.0820 N.ar    1  UNL1       -0.1993
     12 C         140.2240   72.3640  222.7340 C.ar    1  UNL1        0.1365
     13 C         139.4030   71.6210  223.7190 C.3     1  UNL1        0.0115
     14 C         140.2750   70.6860  224.5670 C.3     1  UNL1       -0.0216
     15 C         141.0130   71.5140  225.5440 C.3     1  UNL1       -0.0475
     16 C         140.5990   71.2710  226.9790 C.3     1  UNL1       -0.0401
     17 C         140.7840   69.7570  227.1590 C.3     1  UNL1       -0.0041
     18 N         139.7360   69.1390  226.4370 N.3     1  UNL1       -0.3157
     19 C         139.4740   69.5680  225.1240 C.3     1  UNL1       -0.0009
     20 N         139.9900   73.6620  222.4550 N.ar    1  UNL1       -0.1993
     21 C         140.7310   74.3370  221.5630 C.ar    1  UNL1        0.2227
     22 N         140.5100   75.7050  221.2470 N.pl3   1  UNL1       -0.2949
     23 C         140.9670   76.3030  220.0060 C.3     1  UNL1        0.0192
     24 C         141.9310   77.4390  220.2520 C.3     1  UNL1       -0.0115
     25 C         141.5510   78.2340  221.4410 C.ar    1  UNL1       -0.0412
     26 C         142.2200   79.4200  221.6580 C.ar    1  UNL1       -0.0582
     27 C         141.9020   80.1950  222.7500 C.ar    1  UNL1       -0.0615
     28 C         140.9280   79.8320  223.6530 C.ar    1  UNL1       -0.0614
     29 C         140.2490   78.6370  223.4400 C.ar    1  UNL1       -0.0568
     30 C         140.5770   77.8600  222.3340 C.ar    1  UNL1       -0.0269
     31 C         139.8030   76.5830  222.1680 C.3     1  UNL1        0.0402
     32 N         141.7290   73.6880  220.9410 N.ar    1  UNL1       -0.1808
     33 C         142.9770   70.3900  220.1040 C.3     1  UNL1        0.0402
     34 H         147.1763   68.6262  217.2098 H       1  UNL1        0.0618
     35 H         145.7385   67.0579  218.4915 H       1  UNL1        0.0618
     36 H         143.8338   67.8755  219.8003 H       1  UNL1        0.0621
     37 H         146.6362   71.0756  217.2844 H       1  UNL1        0.0620
     38 H         145.4294   72.8773  218.3213 H       1  UNL1        0.0328
     39 H         143.7332   72.5004  218.0050 H       1  UNL1        0.0328
     40 H         145.1202   72.1789  220.7356 H       1  UNL1        0.0468
     41 H         144.1219   73.5940  220.2742 H       1  UNL1        0.0468
     42 H         138.8970   72.3395  224.3806 H       1  UNL1        0.0347
     43 H         138.6653   71.0139  223.1738 H       1  UNL1        0.0347
     44 H         141.0344   70.1669  223.9638 H       1  UNL1        0.0317
     45 H         142.0859   71.2906  225.4490 H       1  UNL1        0.0269
     46 H         140.7827   72.5650  225.3153 H       1  UNL1        0.0269
     47 H         141.2432   71.8303  227.6734 H       1  UNL1        0.0278
     48 H         139.5715   71.6032  227.1887 H       1  UNL1        0.0278
     49 H         141.7591   69.4424  226.7587 H       1  UNL1        0.0424
     50 H         140.7569   69.4751  228.2219 H       1  UNL1        0.0424
     51 H         138.9110   68.8580  227.0010 H       1  UNL1        0.1219
     52 H         139.6249   68.7011  224.4639 H       1  UNL1        0.0427
     53 H         138.4514   69.9704  225.1733 H       1  UNL1        0.0427
     54 H         141.4709   75.5325  219.4040 H       1  UNL1        0.0468
     55 H         140.0905   76.7069  219.4782 H       1  UNL1        0.0468
     56 H         142.9378   77.0243  220.4078 H       1  UNL1        0.0328
     57 H         141.9084   78.1028  219.3751 H       1  UNL1        0.0328
     58 H         143.0056   79.7458  220.9604 H       1  UNL1        0.0620
     59 H         142.4455   81.1384  222.9070 H       1  UNL1        0.0618
     60 H         140.6935   80.4692  224.5185 H       1  UNL1        0.0618
     61 H         139.4630   78.3107  224.1370 H       1  UNL1        0.0621
     62 H         139.7016   76.0859  223.1440 H       1  UNL1        0.0514
     63 H         138.8040   76.8085  221.7666 H       1  UNL1        0.0514
     64 H         142.9236   69.7798  221.0177 H       1  UNL1        0.0514
     65 H         142.0722   70.2697  219.4901 H       1  UNL1        0.0514
@<TRIPOS>BOND
     1     1     2   ar
     2     2     3   ar
     3     3     4   ar
     4     4     5   ar
     5     5     6   ar
     6     5     7    1
     7     7     8    1
     8     8     9    1
     9     9    10    1
    10    10    11   ar
    11    11    12   ar
    12    12    13    1
    13    13    14    1
    14    14    15    1
    15    15    16    1
    16    16    17    1
    17    17    18    1
    18    18    19    1
    19    12    20   ar
    20    20    21   ar
    21    21    22    1
    22    22    23    1
    23    23    24    1
    24    24    25    1
    25    25    26   ar
    26    26    27   ar
    27    27    28   ar
    28    28    29   ar
    29    29    30   ar
    30    30    31    1
    31    21    32   ar
    32     9    33    1
    33     6     1   ar
    34    32    10   ar
    35    33     4    1
    36    19    14    1
    37    31    22    1
    38    30    25   ar
    39     1    34    1
    40     2    35    1
    41     3    36    1
    42     6    37    1
    43     7    38    1
    44     7    39    1
    45     8    40    1
    46     8    41    1
    47    13    42    1
    48    13    43    1
    49    14    44    1
    50    15    45    1
    51    15    46    1
    52    16    47    1
    53    16    48    1
    54    17    49    1
    55    17    50    1
    56    18    51    1
    57    19    52    1
    58    19    53    1
    59    23    54    1
    60    23    55    1
    61    24    56    1
    62    24    57    1
    63    26    58    1
    64    27    59    1
    65    28    60    1
    66    29    61    1
    67    31    62    1
    68    31    63    1
    69    33    64    1
    70    33    65    1
