
     RDKit          3D

 78 83  0  0  0  0  0  0  0  0999 V2000
  139.9130   70.0720  226.8880 C   0  0  0  0  0  0  0  0  0  0  0  0
  139.2590   69.5180  225.7480 N   0  0  0  0  0  0  0  0  0  0  0  0
  139.2250   68.0920  225.7250 C   0  0  0  0  0  0  0  0  0  0  0  0
  139.5380   70.1420  224.4960 C   0  0  0  0  0  0  0  0  0  0  0  0
  138.3410   70.7960  223.9200 C   0  0  0  0  0  0  0  0  0  0  0  0
  138.5480   71.8080  222.8630 C   0  0  0  0  0  0  0  0  0  0  0  0
  139.8700   72.2900  222.6540 N   0  0  0  0  0  0  0  0  0  0  0  0
  140.0650   73.5360  221.9730 C   0  0  0  0  0  0  0  0  0  0  0  0
  140.9690   73.6580  220.9540 N   0  0  0  0  0  0  0  0  0  0  0  0
  141.1180   74.8150  220.3080 C   0  0  0  0  0  0  0  0  0  0  0  0
  141.9960   75.1040  219.2570 N   0  0  0  0  0  0  0  0  0  0  0  0
  142.9280   76.1940  219.1030 C   0  0  0  0  0  0  0  0  0  0  0  0
  142.2020   77.3820  218.6330 C   0  0  0  0  0  0  0  0  0  0  0  0
  142.1440   78.5710  219.4400 N   0  0  0  0  0  0  0  0  0  0  0  0
  141.2430   79.5510  218.9710 C   0  0  0  0  0  0  0  0  0  0  0  0
  141.1880   80.7670  219.8430 C   0  0  0  0  0  0  0  0  0  0  0  0
  141.5300   80.5710  221.2570 C   0  0  0  0  0  0  0  0  0  0  0  0
  141.5180   81.6290  222.1200 C   0  0  0  0  0  0  0  0  0  0  0  0
  141.8560   81.4480  223.4670 C   0  0  0  0  0  0  0  0  0  0  0  0
  142.2050   80.1870  223.9360 C   0  0  0  0  0  0  0  0  0  0  0  0
  142.2010   79.1490  223.0240 C   0  0  0  0  0  0  0  0  0  0  0  0
  141.8680   79.3220  221.6890 C   0  0  0  0  0  0  0  0  0  0  0  0
  141.8820   78.1330  220.8330 C   0  0  0  0  0  0  0  0  0  0  0  0
  140.3340   75.8460  220.7080 N   0  0  0  0  0  0  0  0  0  0  0  0
  139.4340   75.7830  221.7000 C   0  0  0  0  0  0  0  0  0  0  0  0
  138.6990   76.9650  221.9560 N   0  0  0  0  0  0  0  0  0  0  0  0
  137.7120   77.3690  220.9390 C   0  0  0  0  0  0  0  0  0  0  0  0
  138.1520   78.6980  220.3240 C   0  0  0  0  0  0  0  0  0  0  0  0
  138.1390   79.6580  221.4890 C   0  0  0  0  0  0  0  0  0  0  0  0
  137.7840   80.9580  221.1670 C   0  0  0  0  0  0  0  0  0  0  0  0
  137.7310   81.9180  222.1650 C   0  0  0  0  0  0  0  0  0  0  0  0
  138.0370   81.5180  223.4340 C   0  0  0  0  0  0  0  0  0  0  0  0
  138.3950   80.2040  223.7590 C   0  0  0  0  0  0  0  0  0  0  0  0
  138.4490   79.2460  222.7650 C   0  0  0  0  0  0  0  0  0  0  0  0
  138.8260   77.8290  223.0910 C   0  0  0  0  0  0  0  0  0  0  0  0
  139.3020   74.6210  222.3330 N   0  0  0  0  0  0  0  0  0  0  0  0
  140.9870   71.5260  223.1350 C   0  0  0  0  0  0  0  0  0  0  0  0
  140.6840   71.1320  224.5750 C   0  0  0  0  0  0  0  0  0  0  0  0
  139.4486   69.6786  227.8043 H   0  0  0  0  0  0  0  0  0  0  0  0
  140.9779   69.7970  226.8695 H   0  0  0  0  0  0  0  0  0  0  0  0
  139.8168   71.1676  226.8695 H   0  0  0  0  0  0  0  0  0  0  0  0
  139.2159   67.7088  226.7561 H   0  0  0  0  0  0  0  0  0  0  0  0
  138.3186   67.7552  225.2006 H   0  0  0  0  0  0  0  0  0  0  0  0
  140.1144   67.7124  225.2006 H   0  0  0  0  0  0  0  0  0  0  0  0
  139.8461   69.3267  223.8250 H   0  0  0  0  0  0  0  0  0  0  0  0
  137.7070   70.0037  223.4954 H   0  0  0  0  0  0  0  0  0  0  0  0
  137.9030   71.3578  224.7582 H   0  0  0  0  0  0  0  0  0  0  0  0
  138.2064   71.3666  221.9151 H   0  0  0  0  0  0  0  0  0  0  0  0
  137.9846   72.6874  223.2083 H   0  0  0  0  0  0  0  0  0  0  0  0
  141.9740   74.4100  218.4410 H   0  0  0  0  0  0  0  0  0  0  0  0
  143.4040   76.4116  220.0705 H   0  0  0  0  0  0  0  0  0  0  0  0
  143.7033   75.9194  218.3726 H   0  0  0  0  0  0  0  0  0  0  0  0
  142.6604   77.6730  217.6764 H   0  0  0  0  0  0  0  0  0  0  0  0
  141.1559   77.0421  218.6194 H   0  0  0  0  0  0  0  0  0  0  0  0
  141.5548   79.8582  217.9618 H   0  0  0  0  0  0  0  0  0  0  0  0
  140.2394   79.1007  218.9741 H   0  0  0  0  0  0  0  0  0  0  0  0
  141.8876   81.5080  219.4289 H   0  0  0  0  0  0  0  0  0  0  0  0
  140.1345   81.0834  219.8379 H   0  0  0  0  0  0  0  0  0  0  0  0
  141.2413   82.6292  221.7552 H   0  0  0  0  0  0  0  0  0  0  0  0
  141.8452   82.3059  224.1554 H   0  0  0  0  0  0  0  0  0  0  0  0
  142.4734   80.0221  224.9900 H   0  0  0  0  0  0  0  0  0  0  0  0
  142.4738   78.1418  223.3720 H   0  0  0  0  0  0  0  0  0  0  0  0
  142.6746   77.4454  221.1629 H   0  0  0  0  0  0  0  0  0  0  0  0
  140.9166   77.6092  220.8926 H   0  0  0  0  0  0  0  0  0  0  0  0
  137.6540   76.6001  220.1545 H   0  0  0  0  0  0  0  0  0  0  0  0
  136.7218   77.4828  221.4044 H   0  0  0  0  0  0  0  0  0  0  0  0
  139.1618   78.6159  219.8956 H   0  0  0  0  0  0  0  0  0  0  0  0
  137.4990   79.0214  219.5000 H   0  0  0  0  0  0  0  0  0  0  0  0
  137.5460   81.2260  220.1270 H   0  0  0  0  0  0  0  0  0  0  0  0
  137.4538   82.9593  221.9439 H   0  0  0  0  0  0  0  0  0  0  0  0
  138.0005   82.2648  224.2408 H   0  0  0  0  0  0  0  0  0  0  0  0
  138.6318   79.9361  224.7993 H   0  0  0  0  0  0  0  0  0  0  0  0
  139.8701   77.8099  223.4367 H   0  0  0  0  0  0  0  0  0  0  0  0
  138.1414   77.4666  223.8720 H   0  0  0  0  0  0  0  0  0  0  0  0
  141.1192   70.6246  222.5186 H   0  0  0  0  0  0  0  0  0  0  0  0
  141.9134   72.1167  223.0809 H   0  0  0  0  0  0  0  0  0  0  0  0
  141.5648   70.6632  225.0380 H   0  0  0  0  0  0  0  0  0  0  0  0
  140.4240   72.0065  225.1895 H   0  0  0  0  0  0  0  0  0  0  0  0
  1  2  1  0
  2  3  1  0
  2  4  1  0
  4  5  1  0
  5  6  1  0
  6  7  1  0
  7  8  1  0
  8  9  2  0
  9 10  1  0
 10 11  1  0
 11 12  1  0
 12 13  1  0
 13 14  1  0
 14 15  1  0
 15 16  1  0
 16 17  1  0
 17 18  2  0
 18 19  1  0
 19 20  2  0
 20 21  1  0
 21 22  2  0
 22 23  1  0
 10 24  2  0
 24 25  1  0
 25 26  1  0
 26 27  1  0
 27 28  1  0
 28 29  1  0
 29 30  2  0
 30 31  1  0
 31 32  2  0
 32 33  1  0
 33 34  2  0
 34 35  1  0
 25 36  2  0
  7 37  1  0
 37 38  1  0
 38  4  1  0
 36  8  1  0
 23 14  1  0
 35 26  1  0
 22 17  1  0
 34 29  1  0
  1 39  1  0
  1 40  1  0
  1 41  1  0
  3 42  1  0
  3 43  1  0
  3 44  1  0
  4 45  1  0
  5 46  1  0
  5 47  1  0
  6 48  1  0
  6 49  1  0
 11 50  1  0
 12 51  1  0
 12 52  1  0
 13 53  1  0
 13 54  1  0
 15 55  1  0
 15 56  1  0
 16 57  1  0
 16 58  1  0
 18 59  1  0
 19 60  1  0
 20 61  1  0
 21 62  1  0
 23 63  1  0
 23 64  1  0
 27 65  1  0
 27 66  1  0
 28 67  1  0
 28 68  1  0
 30 69  1  0
 31 70  1  0
 32 71  1  0
 33 72  1  0
 35 73  1  0
 35 74  1  0
 37 75  1  0
 37 76  1  0
 38 77  1  0
 38 78  1  0
M  END
