@<TRIPOS>MOLECULE
*****
 59 62 0 0 0
SMALL
GASTEIGER

@<TRIPOS>ATOM
      1 C         142.9020   77.5120  215.9190 C.3     1  UNL1        0.0365
      2 O         143.8170   76.8350  216.6410 O.3     1  UNL1       -0.3826
      3 C         143.4110   76.0850  217.6590 C.3     1  UNL1        0.0516
      4 C         142.8260   76.6730  218.9030 C.3     1  UNL1        0.0004
      5 C         141.3530   76.8670  218.7800 C.3     1  UNL1       -0.0194
      6 C         140.8450   76.4350  220.1640 C.3     1  UNL1        0.1029
      7 C         140.9900   77.4920  221.1750 C.2     1  UNL1        0.2378
      8 O         140.3170   77.5560  222.2400 O.2     1  UNL1       -0.2734
      9 N         141.9480   78.5560  221.0030 N.am    1  UNL1       -0.2840
     10 C         142.0580   79.5900  222.0080 C.ar    1  UNL1        0.0334
     11 C         142.9140   79.4290  223.0650 C.ar    1  UNL1       -0.0405
     12 C         142.9540   80.4900  223.9810 C.ar    1  UNL1       -0.0600
     13 C         142.1740   81.6130  223.8110 C.ar    1  UNL1       -0.0616
     14 C         141.3200   81.7400  222.7290 C.ar    1  UNL1       -0.0600
     15 C         141.2620   80.6930  221.7990 C.ar    1  UNL1       -0.0405
     16 N         141.6330   75.2740  220.4120 N.am    1  UNL1       -0.2883
     17 C         141.2960   73.9750  220.8770 C.2     1  UNL1        0.2334
     18 O         142.1250   73.0550  220.9630 O.2     1  UNL1       -0.2739
     19 C         139.8620   73.7460  221.2740 C.3     1  UNL1        0.0887
     20 N         139.8120   72.9850  222.5210 N.am    1  UNL1       -0.3015
     21 C         140.0320   71.5620  222.4410 C.2     1  UNL1        0.2628
     22 O         140.2630   70.9770  221.3570 O.2     1  UNL1       -0.2685
     23 C         139.9680   70.8300  223.7230 C.ar    1  UNL1        0.1260
     24 C         139.2790   69.6210  223.7780 C.ar    1  UNL1       -0.0306
     25 C         139.1800   68.8840  224.9380 C.ar    1  UNL1       -0.0504
     26 C         139.7920   69.3870  226.0640 C.ar    1  UNL1        0.0004
     27 C         139.7440   68.7140  227.2790 C.ar    1  UNL1       -0.0526
     28 C         140.3660   69.2450  228.3900 C.ar    1  UNL1       -0.0611
     29 C         141.0600   70.4630  228.3420 C.ar    1  UNL1       -0.0597
     30 C         141.0620   71.0740  227.0970 C.ar    1  UNL1       -0.0357
     31 C         140.4590   70.5720  225.9870 C.ar    1  UNL1        0.0718
     32 N         140.5640   71.3090  224.8430 N.ar    1  UNL1       -0.2421
     33 C         142.9920   75.6670  220.0600 C.3     1  UNL1        0.0205
     34 H         142.2065   78.0266  216.5984 H       1  UNL1        0.0523
     35 H         143.4106   78.2530  215.2847 H       1  UNL1        0.0523
     36 H         142.3422   76.8090  215.2847 H       1  UNL1        0.0523
     37 H         142.6472   75.4055  217.2531 H       1  UNL1        0.0563
     38 H         144.3606   75.6707  218.0286 H       1  UNL1        0.0563
     39 H         143.3380   77.6313  219.0750 H       1  UNL1        0.0339
     40 H         141.1061   77.9194  218.5765 H       1  UNL1        0.0292
     41 H         140.9034   76.3007  217.9510 H       1  UNL1        0.0292
     42 H         139.7649   76.2310  220.2069 H       1  UNL1        0.0597
     43 H         142.5790   78.6140  220.1770 H       1  UNL1        0.1549
     44 H         143.5301   78.5260  223.1874 H       1  UNL1        0.0636
     45 H         143.6215   80.4244  224.8528 H       1  UNL1        0.0618
     46 H         142.2311   82.4254  224.5504 H       1  UNL1        0.0618
     47 H         140.7018   82.6409  222.6021 H       1  UNL1        0.0618
     48 H         140.5973   80.7514  220.9245 H       1  UNL1        0.0636
     49 H         139.3628   74.7157  221.4171 H       1  UNL1        0.0558
     50 H         139.3502   73.1807  220.4813 H       1  UNL1        0.0558
     51 H         139.6220   73.4680  223.4270 H       1  UNL1        0.1496
     52 H         138.7976   69.2416  222.8646 H       1  UNL1        0.0641
     53 H         138.6328   67.9301  224.9634 H       1  UNL1        0.0625
     54 H         139.2089   67.7559  227.3550 H       1  UNL1        0.0624
     55 H         140.3162   68.6967  229.3423 H       1  UNL1        0.0618
     56 H         141.5613   70.8977  229.2194 H       1  UNL1        0.0618
     57 H         141.5897   72.0343  227.0008 H       1  UNL1        0.0639
     58 H         143.4921   76.1417  220.9171 H       1  UNL1        0.0468
     59 H         143.6119   74.8046  219.7736 H       1  UNL1        0.0468
@<TRIPOS>BOND
     1     1     2    1
     2     2     3    1
     3     3     4    1
     4     4     5    1
     5     5     6    1
     6     6     7    1
     7     7     8    2
     8     7     9   am
     9     9    10    1
    10    10    11   ar
    11    11    12   ar
    12    12    13   ar
    13    13    14   ar
    14    14    15   ar
    15     6    16    1
    16    16    17   am
    17    17    18    2
    18    17    19    1
    19    19    20    1
    20    20    21   am
    21    21    22    2
    22    21    23    1
    23    23    24   ar
    24    24    25   ar
    25    25    26   ar
    26    26    27   ar
    27    27    28   ar
    28    28    29   ar
    29    29    30   ar
    30    30    31   ar
    31    31    32   ar
    32    16    33    1
    33    33     4    1
    34    15    10   ar
    35    32    23   ar
    36    31    26   ar
    37     1    34    1
    38     1    35    1
    39     1    36    1
    40     3    37    1
    41     3    38    1
    42     4    39    1
    43     5    40    1
    44     5    41    1
    45     6    42    1
    46     9    43    1
    47    11    44    1
    48    12    45    1
    49    13    46    1
    50    14    47    1
    51    15    48    1
    52    19    49    1
    53    19    50    1
    54    20    51    1
    55    24    52    1
    56    25    53    1
    57    27    54    1
    58    28    55    1
    59    29    56    1
    60    30    57    1
    61    33    58    1
    62    33    59    1
