
 49 53  0  0  1  0  0  0  0  0999 V2000
  136.0020   68.4250  223.4720 O   0  0  0  0  0  0  0  0  0  0  0  0
  135.9580   69.7850  224.0810 S   0  0  0  0  0  0  0  0  0  0  0  0
  136.2650   69.7010  225.5500 O   0  0  0  0  0  0  0  0  0  0  0  0
  134.3130   70.4200  223.8690 C   0  0  0  0  0  0  0  0  0  0  0  0
  133.9390   71.3230  224.9690 C   0  0  0  0  0  0  0  0  0  0  0  0
  133.9960   72.7030  224.8850 C   0  0  0  0  0  0  0  0  0  0  0  0
  133.6280   73.4820  225.9600 C   0  0  0  0  0  0  0  0  0  0  0  0
  133.2000   72.9070  227.1340 C   0  0  0  0  0  0  0  0  0  0  0  0
  133.1400   71.5380  227.2290 C   0  0  0  0  0  0  0  0  0  0  0  0
  133.5060   70.7620  226.1580 C   0  0  0  0  0  0  0  0  0  0  0  0
  137.0890   70.8500  223.3270 N   0  0  0  0  0  0  0  0  0  0  0  0
  136.6120   72.1220  222.9290 C   0  0  0  0  0  0  0  0  0  0  0  0
  137.3910   73.0160  222.3520 C   0  0  0  0  0  0  0  0  0  0  0  0
  138.7840   72.6560  222.1300 C   0  0  0  0  0  0  0  0  0  0  0  0
  139.5840   73.6030  221.5310 C   0  0  0  0  0  0  0  0  0  0  0  0
  140.9170   73.3580  221.2820 C   0  0  0  0  0  0  0  0  0  0  0  0
  141.4040   72.1260  221.6620 C   0  0  0  0  0  0  0  0  0  0  0  0
  140.5860   71.1640  222.2720 C   0  0  0  0  0  0  0  0  0  0  0  0
  139.2480   71.4080  222.5220 C   0  0  0  0  0  0  0  0  0  0  0  0
  138.4380   70.3770  223.1550 C   0  0  1  0  0  0  0  0  0  0  0  0
  138.9930   69.7270  224.3480 C   0  0  0  0  0  0  0  0  0  0  0  0
  138.8820   68.3630  224.5930 C   0  0  0  0  0  0  0  0  0  0  0  0
  139.4750   68.0600  225.7630 N   0  0  0  0  0  0  0  0  0  0  0  0
  139.9730   69.1970  226.2900 C   0  0  0  0  0  0  0  0  0  0  0  0
  140.6700   69.4170  227.4700 C   0  0  0  0  0  0  0  0  0  0  0  0
  141.0770   70.6980  227.7780 C   0  0  0  0  0  0  0  0  0  0  0  0
  140.7830   71.7420  226.9040 C   0  0  0  0  0  0  0  0  0  0  0  0
  140.0890   71.5150  225.7340 C   0  0  0  0  0  0  0  0  0  0  0  0
  139.6820   70.2330  225.4290 C   0  0  0  0  0  0  0  0  0  0  0  0
  134.2627   70.9730  222.9194 H   0  0  0  0  0  0  0  0  0  0  0  0
  133.6128   69.5716  223.8649 H   0  0  0  0  0  0  0  0  0  0  0  0
  134.3371   73.1807  223.9547 H   0  0  0  0  0  0  0  0  0  0  0  0
  133.6771   74.5779  225.8785 H   0  0  0  0  0  0  0  0  0  0  0  0
  132.9089   73.5367  227.9876 H   0  0  0  0  0  0  0  0  0  0  0  0
  132.7993   71.0647  228.1617 H   0  0  0  0  0  0  0  0  0  0  0  0
  133.4540   69.6668  226.2466 H   0  0  0  0  0  0  0  0  0  0  0  0
  135.5560   72.3732  223.1070 H   0  0  0  0  0  0  0  0  0  0  0  0
  137.0019   73.9993  222.0491 H   0  0  0  0  0  0  0  0  0  0  0  0
  139.1510   74.5732  221.2459 H   0  0  0  0  0  0  0  0  0  0  0  0
  141.5615   74.1097  220.8029 H   0  0  0  0  0  0  0  0  0  0  0  0
  142.4634   71.8908  221.4819 H   0  0  0  0  0  0  0  0  0  0  0  0
  141.0183   70.1938  222.5580 H   0  0  0  0  0  0  0  0  0  0  0  0
  138.4414   69.5339  222.4484 H   0  0  0  0  0  0  0  0  0  0  0  0
  138.3843   67.6398  223.9302 H   0  0  0  0  0  0  0  0  0  0  0  0
  139.5640   67.1300  226.2280 H   0  0  0  0  0  0  0  0  0  0  0  0
  140.8944   68.5816  228.1496 H   0  0  0  0  0  0  0  0  0  0  0  0
  141.6304   70.8942  228.7082 H   0  0  0  0  0  0  0  0  0  0  0  0
  141.1093   72.7631  227.1508 H   0  0  0  0  0  0  0  0  0  0  0  0
  139.8625   72.3474  225.0515 H   0  0  0  0  0  0  0  0  0  0  0  0
  1  2  2  0
  2  3  2  0
  2  4  1  0
  4  5  1  0
  5  6  2  0
  6  7  1  0
  7  8  2  0
  8  9  1  0
  9 10  2  0
  2 11  1  0
 11 12  1  0
 12 13  2  0
 13 14  1  0
 14 15  2  0
 15 16  1  0
 16 17  2  0
 17 18  1  0
 18 19  2  0
 19 20  1  0
 20 21  1  0
 21 22  2  0
 22 23  1  0
 23 24  1  0
 24 25  2  0
 25 26  1  0
 26 27  2  0
 27 28  1  0
 28 29  2  0
 10  5  1  0
 20 11  1  0
 29 21  1  0
 19 14  1  0
 29 24  1  0
  4 30  1  0
  4 31  1  0
  6 32  1  0
  7 33  1  0
  8 34  1  0
  9 35  1  0
 10 36  1  0
 12 37  1  0
 13 38  1  0
 15 39  1  0
 16 40  1  0
 17 41  1  0
 18 42  1  0
 20 43  1  6
 22 44  1  0
 23 45  1  0
 25 46  1  0
 26 47  1  0
 27 48  1  0
 28 49  1  0
M  END
