
     RDKit          3D

 65 69  0  0  1  0  0  0  0  0999 V2000
  138.6280   70.5480  221.4120 O   0  0  0  0  0  0  0  0  0  0  0  0
  138.8760   71.2860  222.4260 C   0  0  0  0  0  0  0  0  0  0  0  0
  138.7010   72.7190  222.2620 N   0  0  0  0  0  0  0  0  0  0  0  0
  138.2710   73.1380  220.9790 C   0  0  0  0  0  0  0  0  0  0  0  0
  139.2160   73.4350  219.9320 C   0  0  0  0  0  0  0  0  0  0  0  0
  138.8080   73.0320  218.7430 O   0  0  0  0  0  0  0  0  0  0  0  0
  140.4750   74.0590  219.9110 N   0  0  0  0  0  0  0  0  0  0  0  0
  141.4060   74.4260  218.8790 C   0  0  0  0  0  0  0  0  0  0  0  0
  142.7510   74.0850  219.5860 C   0  0  0  0  0  0  0  0  0  0  0  0
  142.5210   74.9220  220.8250 C   0  0  0  0  0  0  0  0  0  0  0  0
  141.1120   74.4950  221.1670 C   0  0  1  0  0  0  0  0  0  0  0  0
  140.4750   75.5910  221.8780 C   0  0  0  0  0  0  0  0  0  0  0  0
  139.5400   75.1880  222.7010 O   0  0  0  0  0  0  0  0  0  0  0  0
  140.6720   76.9670  221.8450 N   0  0  0  0  0  0  0  0  0  0  0  0
  141.6320   77.7280  221.0950 C   0  0  0  0  0  0  0  0  0  0  0  0
  142.0920   78.9060  221.9440 C   0  0  0  0  0  0  0  0  0  0  0  0
  140.9700   79.8660  222.1190 C   0  0  0  0  0  0  0  0  0  0  0  0
  141.0110   81.0330  221.2310 C   0  0  0  0  0  0  0  0  0  0  0  0
  140.5890   82.2740  221.7330 C   0  0  0  0  0  0  0  0  0  0  0  0
  140.6050   83.4090  220.9450 C   0  0  0  0  0  0  0  0  0  0  0  0
  141.0320   83.3830  219.6350 C   0  0  0  0  0  0  0  0  0  0  0  0
  141.4460   82.1750  219.1320 C   0  0  0  0  0  0  0  0  0  0  0  0
  141.4300   81.0360  219.9260 C   0  0  0  0  0  0  0  0  0  0  0  0
  139.6190   79.1820  222.0720 C   0  0  0  0  0  0  0  0  0  0  0  0
  139.7470   77.7800  222.6800 C   0  0  0  0  0  0  0  0  0  0  0  0
  139.3130   70.7350  223.7010 C   0  0  0  0  0  0  0  0  0  0  0  0
  139.1860   69.3680  223.8680 C   0  0  0  0  0  0  0  0  0  0  0  0
  139.5910   68.8350  225.0870 C   0  0  0  0  0  0  0  0  0  0  0  0
  140.1000   69.6690  226.0700 C   0  0  0  0  0  0  0  0  0  0  0  0
  140.5050   69.1400  227.2880 C   0  0  0  0  0  0  0  0  0  0  0  0
  141.0140   70.0060  228.2640 C   0  0  0  0  0  0  0  0  0  0  0  0
  141.1220   71.3520  228.0530 C   0  0  0  0  0  0  0  0  0  0  0  0
  140.7160   71.8850  226.8330 C   0  0  0  0  0  0  0  0  0  0  0  0
  140.2120   71.0320  225.8650 C   0  0  0  0  0  0  0  0  0  0  0  0
  139.8120   71.5340  224.6740 N   0  0  0  0  0  0  0  0  0  0  0  0
  138.9250   73.2600  223.0980 H   0  0  0  0  0  0  0  0  0  0  0  0
  137.6197   72.3400  220.5931 H   0  0  0  0  0  0  0  0  0  0  0  0
  137.8274   74.1230  221.1862 H   0  0  0  0  0  0  0  0  0  0  0  0
  141.2613   73.8266  217.9680 H   0  0  0  0  0  0  0  0  0  0  0  0
  141.3198   75.4651  218.5285 H   0  0  0  0  0  0  0  0  0  0  0  0
  142.8476   73.0131  219.8135 H   0  0  0  0  0  0  0  0  0  0  0  0
  143.6718   74.2856  219.0186 H   0  0  0  0  0  0  0  0  0  0  0  0
  143.2307   74.6696  221.6266 H   0  0  0  0  0  0  0  0  0  0  0  0
  142.6581   76.0046  220.6868 H   0  0  0  0  0  0  0  0  0  0  0  0
  141.0403   73.6358  221.8502 H   0  0  0  0  0  0  0  0  0  0  0  0
  142.4945   77.0926  220.8453 H   0  0  0  0  0  0  0  0  0  0  0  0
  141.1754   78.0931  220.1632 H   0  0  0  0  0  0  0  0  0  0  0  0
  142.4183   78.5414  222.9292 H   0  0  0  0  0  0  0  0  0  0  0  0
  142.9295   79.4121  221.4416 H   0  0  0  0  0  0  0  0  0  0  0  0
  141.1167   80.2709  223.1312 H   0  0  0  0  0  0  0  0  0  0  0  0
  140.2389   82.3444  222.7734 H   0  0  0  0  0  0  0  0  0  0  0  0
  140.2665   84.3625  221.3766 H   0  0  0  0  0  0  0  0  0  0  0  0
  141.0407   84.2934  219.0176 H   0  0  0  0  0  0  0  0  0  0  0  0
  141.7936   82.1085  218.0905 H   0  0  0  0  0  0  0  0  0  0  0  0
  141.7710   80.0877  219.4851 H   0  0  0  0  0  0  0  0  0  0  0  0
  138.8885   79.7686  222.6485 H   0  0  0  0  0  0  0  0  0  0  0  0
  139.2780   79.1048  221.0291 H   0  0  0  0  0  0  0  0  0  0  0  0
  140.1459   77.8573  223.7022 H   0  0  0  0  0  0  0  0  0  0  0  0
  138.7582   77.2991  222.7112 H   0  0  0  0  0  0  0  0  0  0  0  0
  138.7813   68.7287  223.0696 H   0  0  0  0  0  0  0  0  0  0  0  0
  139.5075   67.7537  225.2707 H   0  0  0  0  0  0  0  0  0  0  0  0
  140.4275   68.0602  227.4830 H   0  0  0  0  0  0  0  0  0  0  0  0
  141.3367   69.5901  229.2299 H   0  0  0  0  0  0  0  0  0  0  0  0
  141.5255   72.0072  228.8391 H   0  0  0  0  0  0  0  0  0  0  0  0
  140.7941   72.9653  226.6408 H   0  0  0  0  0  0  0  0  0  0  0  0
  1  2  2  0
  2  3  1  0
  3  4  1  0
  4  5  1  0
  5  6  2  0
  5  7  1  0
  7  8  1  0
  8  9  1  0
  9 10  1  0
 10 11  1  0
 11 12  1  0
 12 13  2  0
 12 14  1  0
 14 15  1  0
 15 16  1  0
 16 17  1  0
 17 18  1  0
 18 19  2  0
 19 20  1  0
 20 21  2  0
 21 22  1  0
 22 23  2  0
 17 24  1  0
 24 25  1  0
  2 26  1  0
 26 27  2  0
 27 28  1  0
 28 29  2  0
 29 30  1  0
 30 31  2  0
 31 32  1  0
 32 33  2  0
 33 34  1  0
 34 35  2  0
 11  7  1  0
 25 14  1  0
 35 26  1  0
 23 18  1  0
 34 29  1  0
  3 36  1  0
  4 37  1  0
  4 38  1  0
  8 39  1  0
  8 40  1  0
  9 41  1  0
  9 42  1  0
 10 43  1  0
 10 44  1  0
 11 45  1  1
 15 46  1  0
 15 47  1  0
 16 48  1  0
 16 49  1  0
 17 50  1  0
 19 51  1  0
 20 52  1  0
 21 53  1  0
 22 54  1  0
 23 55  1  0
 24 56  1  0
 24 57  1  0
 25 58  1  0
 25 59  1  0
 27 60  1  0
 28 61  1  0
 30 62  1  0
 31 63  1  0
 32 64  1  0
 33 65  1  0
M  END
