
     RDKit          3D

 44 47  0  0  0  0  0  0  0  0999 V2000
  138.2870   69.5730  221.8600 O   0  0  0  0  0  0  0  0  0  0  0  0
  138.9770   70.5200  222.3600 C   0  0  0  0  0  0  0  0  0  0  0  0
  139.2270   71.7180  221.5230 C   0  0  0  0  0  0  0  0  0  0  0  0
  140.0450   72.6830  222.2950 C   0  0  0  0  0  0  0  0  0  0  0  0
  140.3970   73.9480  221.6170 C   0  0  0  0  0  0  0  0  0  0  0  0
  139.8490   75.1580  222.0230 C   0  0  0  0  0  0  0  0  0  0  0  0
  140.1940   76.3400  221.3700 C   0  0  0  0  0  0  0  0  0  0  0  0
  141.0860   76.3430  220.3060 C   0  0  0  0  0  0  0  0  0  0  0  0
  141.6300   75.1480  219.9000 C   0  0  0  0  0  0  0  0  0  0  0  0
  142.5750   75.0190  218.7990 C   0  0  0  0  0  0  0  0  0  0  0  0
  142.5220   75.8470  217.8530 O   0  0  0  0  0  0  0  0  0  0  0  0
  143.5650   74.0050  218.7280 N   0  0  0  0  0  0  0  0  0  0  0  0
  144.4430   73.9970  217.5660 C   0  0  0  0  0  0  0  0  0  0  0  0
  145.5770   72.9960  217.7610 C   0  0  0  0  0  0  0  0  0  0  0  0
  146.1230   73.3160  219.0880 N   0  0  0  0  0  0  0  0  0  0  0  0
  145.2150   72.7310  220.0540 C   0  0  0  0  0  0  0  0  0  0  0  0
  143.7670   72.9850  219.7160 C   0  0  0  0  0  0  0  0  0  0  0  0
  141.2740   73.9960  220.5610 C   0  0  0  0  0  0  0  0  0  0  0  0
  140.4630   72.5170  223.4800 N   0  0  0  0  0  0  0  0  0  0  0  0
  140.2190   71.3690  224.2700 C   0  0  0  0  0  0  0  0  0  0  0  0
  140.7030   71.2470  225.5560 C   0  0  0  0  0  0  0  0  0  0  0  0
  140.4310   70.0910  226.2930 C   0  0  0  0  0  0  0  0  0  0  0  0
  141.0620   69.9710  227.9230 Cl  0  0  0  0  0  0  0  0  0  0  0  0
  139.6810   69.0580  225.7580 C   0  0  0  0  0  0  0  0  0  0  0  0
  139.3370   67.6080  226.6760 Cl  0  0  0  0  0  0  0  0  0  0  0  0
  139.2140   69.2170  224.4690 C   0  0  0  0  0  0  0  0  0  0  0  0
  139.4730   70.3600  223.7170 C   0  0  0  0  0  0  0  0  0  0  0  0
  139.7663   71.4244  220.6103 H   0  0  0  0  0  0  0  0  0  0  0  0
  138.2699   72.1823  221.2428 H   0  0  0  0  0  0  0  0  0  0  0  0
  139.1397   75.1835  222.8634 H   0  0  0  0  0  0  0  0  0  0  0  0
  139.7507   77.2896  221.7043 H   0  0  0  0  0  0  0  0  0  0  0  0
  141.3517   77.2821  219.7986 H   0  0  0  0  0  0  0  0  0  0  0  0
  143.8619   73.7168  216.6750 H   0  0  0  0  0  0  0  0  0  0  0  0
  144.8728   75.0014  217.4376 H   0  0  0  0  0  0  0  0  0  0  0  0
  145.1947   71.9649  217.7357 H   0  0  0  0  0  0  0  0  0  0  0  0
  146.3363   73.0629  216.9679 H   0  0  0  0  0  0  0  0  0  0  0  0
  146.1540   74.3670  219.1660 H   0  0  0  0  0  0  0  0  0  0  0  0
  145.3845   71.6446  220.0841 H   0  0  0  0  0  0  0  0  0  0  0  0
  145.4172   73.2000  221.0283 H   0  0  0  0  0  0  0  0  0  0  0  0
  143.3311   72.0481  219.3389 H   0  0  0  0  0  0  0  0  0  0  0  0
  143.2838   73.3382  220.6389 H   0  0  0  0  0  0  0  0  0  0  0  0
  141.7213   73.0501  220.2216 H   0  0  0  0  0  0  0  0  0  0  0  0
  141.3009   72.0566  225.9999 H   0  0  0  0  0  0  0  0  0  0  0  0
  138.6153   68.4113  224.0192 H   0  0  0  0  0  0  0  0  0  0  0  0
  1  2  2  0
  2  3  1  0
  3  4  1  0
  4  5  1  0
  5  6  2  0
  6  7  1  0
  7  8  2  0
  8  9  1  0
  9 10  1  0
 10 11  2  0
 10 12  1  0
 12 13  1  0
 13 14  1  0
 14 15  1  0
 15 16  1  0
 16 17  1  0
  9 18  2  0
  4 19  2  0
 19 20  1  0
 20 21  2  0
 21 22  1  0
 22 23  1  0
 22 24  2  0
 24 25  1  0
 24 26  1  0
 26 27  2  0
 27  2  1  0
 18  5  1  0
 27 20  1  0
 17 12  1  0
  3 28  1  0
  3 29  1  0
  6 30  1  0
  7 31  1  0
  8 32  1  0
 13 33  1  0
 13 34  1  0
 14 35  1  0
 14 36  1  0
 15 37  1  0
 16 38  1  0
 16 39  1  0
 17 40  1  0
 17 41  1  0
 18 42  1  0
 21 43  1  0
 26 44  1  0
M  END
