
 60 63  0  0  0  0  0  0  0  0999 V2000
  139.9380   73.2200  218.6130 C   0  0  0  0  0  0  0  0  0  0  0  0
  140.6180   74.1560  219.4880 N   0  0  0  0  0  0  0  0  0  0  0  0
  140.6100   73.9160  220.9190 C   0  0  0  0  0  0  0  0  0  0  0  0
  139.3180   73.3850  221.4540 C   0  0  0  0  0  0  0  0  0  0  0  0
  139.5430   72.7130  222.7030 N   0  0  0  0  0  0  0  0  0  0  0  0
  139.3540   71.2870  222.7110 C   0  0  0  0  0  0  0  0  0  0  0  0
  139.0080   70.7830  221.6110 O   0  0  0  0  0  0  0  0  0  0  0  0
  139.5530   70.4890  223.9150 C   0  0  0  0  0  0  0  0  0  0  0  0
  139.1200   69.1820  223.8840 C   0  0  0  0  0  0  0  0  0  0  0  0
  139.2780   68.3660  224.9950 C   0  0  0  0  0  0  0  0  0  0  0  0
  139.8720   68.9130  226.0950 C   0  0  0  0  0  0  0  0  0  0  0  0
  140.0370   68.1160  227.2090 C   0  0  0  0  0  0  0  0  0  0  0  0
  140.6270   68.6460  228.3190 C   0  0  0  0  0  0  0  0  0  0  0  0
  140.8080   67.8840  229.4430 F   0  0  0  0  0  0  0  0  0  0  0  0
  141.0610   69.9590  228.3480 C   0  0  0  0  0  0  0  0  0  0  0  0
  140.9090   70.7870  227.2430 C   0  0  0  0  0  0  0  0  0  0  0  0
  140.3110   70.2310  226.1370 C   0  0  0  0  0  0  0  0  0  0  0  0
  140.1310   70.9800  225.0240 N   0  0  0  0  0  0  0  0  0  0  0  0
  141.2890   75.3200  219.0180 C   0  0  0  0  0  0  0  0  0  0  0  0
  141.5450   75.4100  217.7540 O   0  0  0  0  0  0  0  0  0  0  0  0
  141.7250   76.4480  219.8310 C   0  0  1  0  0  0  0  0  0  0  0  0
  142.8310   77.2630  219.1900 C   0  0  0  0  0  0  0  0  0  0  0  0
  142.0410   78.4160  218.5540 C   0  0  2  0  0  0  0  0  0  0  0  0
  142.8820   79.5200  218.3840 O   0  0  0  0  0  0  0  0  0  0  0  0
  141.0220   78.6680  219.6370 C   0  0  0  0  0  0  0  0  0  0  0  0
  140.7540   77.3980  220.2380 N   0  0  0  0  0  0  0  0  0  0  0  0
  140.5280   77.5000  221.9350 S   0  0  0  0  0  0  0  0  0  0  0  0
  139.0390   77.5360  222.1980 O   0  0  0  0  0  0  0  0  0  0  0  0
  141.0820   76.3490  222.6780 O   0  0  0  0  0  0  0  0  0  0  0  0
  141.1960   78.9630  222.6260 C   0  0  0  0  0  0  0  0  0  0  0  0
  140.4120   79.9430  223.2080 C   0  0  0  0  0  0  0  0  0  0  0  0
  140.9370   81.0960  223.7540 C   0  0  0  0  0  0  0  0  0  0  0  0
  142.3010   81.2890  223.7220 C   0  0  0  0  0  0  0  0  0  0  0  0
  143.0780   80.3120  223.1420 C   0  0  0  0  0  0  0  0  0  0  0  0
  142.5770   79.1630  222.5960 C   0  0  0  0  0  0  0  0  0  0  0  0
  139.3984   72.4773  219.2190 H   0  0  0  0  0  0  0  0  0  0  0  0
  139.2233   73.7644  217.9782 H   0  0  0  0  0  0  0  0  0  0  0  0
  140.6766   72.7086  217.9782 H   0  0  0  0  0  0  0  0  0  0  0  0
  141.4018   73.1880  221.1492 H   0  0  0  0  0  0  0  0  0  0  0  0
  140.7688   74.8925  221.3998 H   0  0  0  0  0  0  0  0  0  0  0  0
  138.6180   74.2191  221.6100 H   0  0  0  0  0  0  0  0  0  0  0  0
  138.8937   72.6721  220.7316 H   0  0  0  0  0  0  0  0  0  0  0  0
  139.8290   73.1450  223.5980 H   0  0  0  0  0  0  0  0  0  0  0  0
  138.6468   68.7833  222.9745 H   0  0  0  0  0  0  0  0  0  0  0  0
  138.9380   67.3199  224.9893 H   0  0  0  0  0  0  0  0  0  0  0  0
  139.6981   67.0695  227.2023 H   0  0  0  0  0  0  0  0  0  0  0  0
  141.5336   70.3534  229.2597 H   0  0  0  0  0  0  0  0  0  0  0  0
  141.2494   71.8330  227.2525 H   0  0  0  0  0  0  0  0  0  0  0  0
  142.0517   75.8914  220.7218 H   0  0  0  0  0  0  0  0  0  0  0  0
  143.5439   77.6324  219.9419 H   0  0  0  0  0  0  0  0  0  0  0  0
  143.4461   76.6962  218.4756 H   0  0  0  0  0  0  0  0  0  0  0  0
  141.6091   78.2141  217.5627 H   0  0  0  0  0  0  0  0  0  0  0  0
  143.3330   79.4290  217.5020 H   0  0  0  0  0  0  0  0  0  0  0  0
  141.4258   79.3660  220.3851 H   0  0  0  0  0  0  0  0  0  0  0  0
  140.1058   79.1183  219.2275 H   0  0  0  0  0  0  0  0  0  0  0  0
  139.3222   79.7965  223.2367 H   0  0  0  0  0  0  0  0  0  0  0  0
  140.2769   81.8498  224.2080 H   0  0  0  0  0  0  0  0  0  0  0  0
  142.7551   82.1963  224.1470 H   0  0  0  0  0  0  0  0  0  0  0  0
  144.1670   80.4648  223.1162 H   0  0  0  0  0  0  0  0  0  0  0  0
  143.2454   78.4151  222.1445 H   0  0  0  0  0  0  0  0  0  0  0  0
  1  2  1  0
  2  3  1  0
  3  4  1  0
  4  5  1  0
  5  6  1  0
  6  7  2  0
  6  8  1  0
  8  9  2  0
  9 10  1  0
 10 11  2  0
 11 12  1  0
 12 13  2  0
 13 14  1  0
 13 15  1  0
 15 16  2  0
 16 17  1  0
 17 18  2  0
  2 19  1  0
 19 20  2  0
 19 21  1  0
 21 22  1  0
 22 23  1  0
 23 24  1  0
 23 25  1  0
 25 26  1  0
 26 27  1  0
 27 28  2  0
 27 29  2  0
 27 30  1  0
 30 31  2  0
 31 32  1  0
 32 33  2  0
 33 34  1  0
 34 35  2  0
 18  8  1  0
 26 21  1  0
 35 30  1  0
 17 11  1  0
  1 36  1  0
  1 37  1  0
  1 38  1  0
  3 39  1  0
  3 40  1  0
  4 41  1  0
  4 42  1  0
  5 43  1  0
  9 44  1  0
 10 45  1  0
 12 46  1  0
 15 47  1  0
 16 48  1  0
 21 49  1  1
 22 50  1  0
 22 51  1  0
 23 52  1  6
 24 53  1  0
 25 54  1  0
 25 55  1  0
 31 56  1  0
 32 57  1  0
 33 58  1  0
 34 59  1  0
 35 60  1  0
M  END
