
 61 66  0  0  0  0  0  0  0  0999 V2000
  139.5910   74.6950  222.4150 O   0  0  0  0  0  0  0  0  0  0  0  0
  140.5850   74.8770  221.6830 C   0  0  0  0  0  0  0  0  0  0  0  0
  141.4170   73.8490  221.3200 C   0  0  0  0  0  0  0  0  0  0  0  0
  141.1940   72.5560  221.7520 C   0  0  0  0  0  0  0  0  0  0  0  0
  140.0840   72.1790  222.6070 C   0  0  0  0  0  0  0  0  0  0  0  0
  140.0860   71.0370  223.3210 C   0  0  0  0  0  0  0  0  0  0  0  0
  140.2460   71.0090  224.7620 C   0  0  0  0  0  0  0  0  0  0  0  0
  141.0380   71.8690  225.4830 C   0  0  0  0  0  0  0  0  0  0  0  0
  141.1210   71.7560  226.8600 C   0  0  0  0  0  0  0  0  0  0  0  0
  140.4210   70.7910  227.5430 C   0  0  0  0  0  0  0  0  0  0  0  0
  139.6530   69.9600  226.8370 N   0  0  0  0  0  0  0  0  0  0  0  0
  139.5590   70.0520  225.4990 C   0  0  0  0  0  0  0  0  0  0  0  0
  142.1040   71.6060  221.3210 C   0  0  0  0  0  0  0  0  0  0  0  0
  143.1860   71.9370  220.4950 C   0  0  0  0  0  0  0  0  0  0  0  0
  143.3870   73.2250  220.0790 C   0  0  0  0  0  0  0  0  0  0  0  0
  142.4760   74.1680  220.5130 C   0  0  0  0  0  0  0  0  0  0  0  0
  142.6420   75.4150  220.1310 N   0  0  0  0  0  0  0  0  0  0  0  0
  141.8380   76.4770  220.4670 C   0  0  0  0  0  0  0  0  0  0  0  0
  142.1970   77.7210  219.8870 C   0  0  0  0  0  0  0  0  0  0  0  0
  141.6780   78.4330  218.9340 C   0  0  0  0  0  0  0  0  0  0  0  0
  140.9290   79.6790  219.2230 C   0  0  0  0  0  0  0  0  0  0  0  0
  139.6520   79.8580  218.7410 C   0  0  0  0  0  0  0  0  0  0  0  0
  138.9550   80.9900  218.9960 N   0  0  0  0  0  0  0  0  0  0  0  0
  139.5180   81.9650  219.7350 C   0  0  0  0  0  0  0  0  0  0  0  0
  138.8460   83.1390  220.0220 C   0  0  0  0  0  0  0  0  0  0  0  0
  139.4410   84.1420  220.7900 C   0  0  0  0  0  0  0  0  0  0  0  0
  140.7310   83.9440  221.2680 C   0  0  0  0  0  0  0  0  0  0  0  0
  141.4230   82.7770  220.9930 C   0  0  0  0  0  0  0  0  0  0  0  0
  140.7960   81.8120  220.2300 C   0  0  0  0  0  0  0  0  0  0  0  0
  141.4610   80.6680  219.9550 N   0  0  0  0  0  0  0  0  0  0  0  0
  140.8060   76.1700  221.2530 N   0  0  0  0  0  0  0  0  0  0  0  0
  139.8450   77.1250  221.7530 C   0  0  0  0  0  0  0  0  0  0  0  0
  140.4400   78.2560  222.4910 C   0  0  0  0  0  0  0  0  0  0  0  0
  141.6760   78.2910  223.0690 C   0  0  0  0  0  0  0  0  0  0  0  0
  142.1720   79.4180  223.7380 C   0  0  0  0  0  0  0  0  0  0  0  0
  141.4190   80.5640  223.8470 C   0  0  0  0  0  0  0  0  0  0  0  0
  140.1670   80.5470  223.2720 C   0  0  0  0  0  0  0  0  0  0  0  0
  139.6920   79.4360  222.6170 C   0  0  0  0  0  0  0  0  0  0  0  0
  139.2129   72.8473  222.6742 H   0  0  0  0  0  0  0  0  0  0  0  0
  139.9607   70.0833  222.7874 H   0  0  0  0  0  0  0  0  0  0  0  0
  141.6095   72.6520  224.9631 H   0  0  0  0  0  0  0  0  0  0  0  0
  141.7612   72.4538  227.4196 H   0  0  0  0  0  0  0  0  0  0  0  0
  140.4918   70.7065  228.6375 H   0  0  0  0  0  0  0  0  0  0  0  0
  138.9116   69.3404  224.9657 H   0  0  0  0  0  0  0  0  0  0  0  0
  141.9737   70.5603  221.6364 H   0  0  0  0  0  0  0  0  0  0  0  0
  143.8846   71.1495  220.1760 H   0  0  0  0  0  0  0  0  0  0  0  0
  144.2330   73.4962  219.4304 H   0  0  0  0  0  0  0  0  0  0  0  0
  143.0948   78.1723  220.3345 H   0  0  0  0  0  0  0  0  0  0  0  0
  141.7964   78.1051  217.8907 H   0  0  0  0  0  0  0  0  0  0  0  0
  139.1884   79.0647  218.1361 H   0  0  0  0  0  0  0  0  0  0  0  0
  137.8253   83.2852  219.6388 H   0  0  0  0  0  0  0  0  0  0  0  0
  138.8983   85.0725  221.0128 H   0  0  0  0  0  0  0  0  0  0  0  0
  141.2097   84.7270  221.8744 H   0  0  0  0  0  0  0  0  0  0  0  0
  142.4441   82.6227  221.3718 H   0  0  0  0  0  0  0  0  0  0  0  0
  139.2838   77.5290  220.8976 H   0  0  0  0  0  0  0  0  0  0  0  0
  139.2060   76.5845  222.4668 H   0  0  0  0  0  0  0  0  0  0  0  0
  142.3109   77.3949  223.0069 H   0  0  0  0  0  0  0  0  0  0  0  0
  143.1778   79.3858  224.1823 H   0  0  0  0  0  0  0  0  0  0  0  0
  141.7993   81.4540  224.3697 H   0  0  0  0  0  0  0  0  0  0  0  0
  139.5329   81.4434  223.3387 H   0  0  0  0  0  0  0  0  0  0  0  0
  138.6858   79.4736  222.1742 H   0  0  0  0  0  0  0  0  0  0  0  0
  1  2  2  0
  2  3  1  0
  3  4  2  0
  4  5  1  0
  5  6  2  0
  6  7  1  0
  7  8  2  0
  8  9  1  0
  9 10  2  0
 10 11  1  0
 11 12  2  0
  4 13  1  0
 13 14  2  0
 14 15  1  0
 15 16  2  0
 16 17  1  0
 17 18  2  0
 18 19  1  0
 19 20  2  0
 20 21  1  0
 21 22  2  0
 22 23  1  0
 23 24  2  0
 24 25  1  0
 25 26  2  0
 26 27  1  0
 27 28  2  0
 28 29  1  0
 29 30  2  0
 18 31  1  0
 31 32  1  0
 32 33  1  0
 33 34  2  0
 34 35  1  0
 35 36  2  0
 36 37  1  0
 37 38  2  0
 31  2  1  0
 38 33  1  0
 16  3  1  0
 30 21  1  0
 12  7  1  0
 29 24  1  0
  5 39  1  0
  6 40  1  0
  8 41  1  0
  9 42  1  0
 10 43  1  0
 12 44  1  0
 13 45  1  0
 14 46  1  0
 15 47  1  0
 19 48  1  0
 20 49  1  0
 22 50  1  0
 25 51  1  0
 26 52  1  0
 27 53  1  0
 28 54  1  0
 32 55  1  0
 32 56  1  0
 34 57  1  0
 35 58  1  0
 36 59  1  0
 37 60  1  0
 38 61  1  0
M  END
