@<TRIPOS>MOLECULE
*****
 58 61 0 0 0
SMALL
GASTEIGER

@<TRIPOS>ATOM
      1 C         132.2300   68.9810  225.5650 C.3     1  UNL1       -0.0572
      2 C         132.8900   67.7300  224.9940 C.3     1  UNL1       -0.0042
      3 C         133.1610   66.7830  226.1300 C.3     1  UNL1       -0.0572
      4 C         134.1590   68.0920  224.2950 C.ar    1  UNL1        0.0456
      5 C         135.0420   68.9250  224.9430 C.ar    1  UNL1       -0.0189
      6 C         136.2180   69.2470  224.3150 C.ar    1  UNL1        0.0368
      7 N         137.2080   70.0940  224.9160 N.am    1  UNL1       -0.2814
      8 C         138.3670   69.4060  225.4030 C.2     1  UNL1        0.2490
      9 O         138.5090   68.1620  225.3120 O.2     1  UNL1       -0.2698
     10 C         139.4130   70.2130  226.0240 C.ar    1  UNL1        0.0491
     11 C         139.6370   70.0010  227.3680 C.ar    1  UNL1       -0.0489
     12 C         140.6140   70.7370  228.0020 C.ar    1  UNL1       -0.0610
     13 C         141.3810   71.6810  227.3530 C.ar    1  UNL1       -0.0610
     14 C         141.1190   71.8640  225.9860 C.ar    1  UNL1       -0.0489
     15 C         140.1500   71.1430  225.3250 C.ar    1  UNL1        0.0488
     16 C         139.9140   71.3910  223.8780 C.2     1  UNL1        0.2452
     17 O         140.7770   71.1870  223.0150 O.2     1  UNL1       -0.2702
     18 N         138.6290   71.8910  223.4630 N.am    1  UNL1       -0.3040
     19 C         138.2900   72.1670  222.0930 C.3     1  UNL1        0.0765
     20 C         136.8840   72.5820  221.9390 C.2     1  UNL1        0.1981
     21 O         136.3960   72.4960  220.7600 O.2     1  UNL1       -0.2888
     22 C         136.0020   73.0720  222.9760 C.ar    1  UNL1        0.1084
     23 C         135.5720   74.3910  222.9820 C.ar    1  UNL1       -0.0322
     24 C         134.7100   74.8750  223.9580 C.ar    1  UNL1       -0.0504
     25 C         134.2730   74.0100  224.9510 C.ar    1  UNL1        0.0031
     26 C         133.4180   74.4550  225.9390 C.ar    1  UNL1       -0.0173
     27 C         133.0320   73.5140  226.8970 C.ar    1  UNL1        0.1241
     28 F         132.1840   73.9120  227.8950 F       1  UNL1       -0.2055
     29 C         133.4770   72.2100  226.8630 C.ar    1  UNL1       -0.0244
     30 C         134.3300   71.7650  225.8790 C.ar    1  UNL1       -0.0330
     31 C         134.7170   72.6960  224.9250 C.ar    1  UNL1        0.0719
     32 N         135.5330   72.3050  223.9700 N.ar    1  UNL1       -0.2437
     33 C         136.4800   68.7240  223.0510 C.ar    1  UNL1       -0.0223
     34 C         135.5440   67.8860  222.4490 C.ar    1  UNL1        0.0296
     35 N         134.3800   67.5690  223.0720 N.ar    1  UNL1       -0.2595
     36 H         132.2525   68.9383  226.6639 H       1  UNL1        0.0236
     37 H         132.7751   69.8725  225.2214 H       1  UNL1        0.0236
     38 H         131.1864   69.0343  225.2214 H       1  UNL1        0.0236
     39 H         132.2270   67.2497  224.2594 H       1  UNL1        0.0358
     40 H         133.0115   67.3054  227.0864 H       1  UNL1        0.0236
     41 H         132.4714   65.9283  226.0673 H       1  UNL1        0.0236
     42 H         134.1984   66.4225  226.0673 H       1  UNL1        0.0236
     43 H         134.8100   69.3235  225.9417 H       1  UNL1        0.0654
     44 H         137.0780   71.1190  224.9810 H       1  UNL1        0.1551
     45 H         139.0464   69.2578  227.9238 H       1  UNL1        0.0625
     46 H         140.7899   70.5637  229.0739 H       1  UNL1        0.0618
     47 H         142.1559   72.2592  227.8776 H       1  UNL1        0.0618
     48 H         141.7061   72.6065  225.4256 H       1  UNL1        0.0625
     49 H         137.9430   72.0170  224.2330 H       1  UNL1        0.1495
     50 H         138.9398   72.9738  221.7231 H       1  UNL1        0.0545
     51 H         138.4333   71.2409  221.5170 H       1  UNL1        0.0545
     52 H         135.9231   75.0719  222.1926 H       1  UNL1        0.0640
     53 H         134.3801   75.9243  223.9438 H       1  UNL1        0.0625
     54 H         133.0598   75.4946  225.9705 H       1  UNL1        0.0653
     55 H         133.1423   71.5081  227.6411 H       1  UNL1        0.0647
     56 H         134.6868   70.7249  225.8500 H       1  UNL1        0.0640
     57 H         137.4182   68.9706  222.5324 H       1  UNL1        0.0651
     58 H         135.7518   67.4736  221.4506 H       1  UNL1        0.0830
@<TRIPOS>BOND
     1     1     2    1
     2     2     3    1
     3     2     4    1
     4     4     5   ar
     5     5     6   ar
     6     6     7    1
     7     7     8   am
     8     8     9    2
     9     8    10    1
    10    10    11   ar
    11    11    12   ar
    12    12    13   ar
    13    13    14   ar
    14    14    15   ar
    15    15    16    1
    16    16    17    2
    17    16    18   am
    18    18    19    1
    19    19    20    1
    20    20    21    2
    21    20    22    1
    22    22    23   ar
    23    23    24   ar
    24    24    25   ar
    25    25    26   ar
    26    26    27   ar
    27    27    28    1
    28    27    29   ar
    29    29    30   ar
    30    30    31   ar
    31    31    32   ar
    32     6    33   ar
    33    33    34   ar
    34    34    35   ar
    35    35     4   ar
    36    15    10   ar
    37    32    22   ar
    38    31    25   ar
    39     1    36    1
    40     1    37    1
    41     1    38    1
    42     2    39    1
    43     3    40    1
    44     3    41    1
    45     3    42    1
    46     5    43    1
    47     7    44    1
    48    11    45    1
    49    12    46    1
    50    13    47    1
    51    14    48    1
    52    18    49    1
    53    19    50    1
    54    19    51    1
    55    23    52    1
    56    24    53    1
    57    26    54    1
    58    29    55    1
    59    30    56    1
    60    33    57    1
    61    34    58    1
