
 64 68  0  0  0  0  0  0  0  0999 V2000
  141.0570   69.4060  228.3240 C   0  0  0  0  0  0  0  0  0  0  0  0
  140.8520   70.6350  227.7030 C   0  0  0  0  0  0  0  0  0  0  0  0
  140.3680   70.6700  226.4190 C   0  0  0  0  0  0  0  0  0  0  0  0
  140.0920   69.4690  225.7620 C   0  0  0  0  0  0  0  0  0  0  0  0
  139.5690   69.6020  224.3740 C   0  0  0  0  0  0  0  0  0  0  0  0
  139.2320   71.0610  224.1000 C   0  0  0  0  0  0  0  0  0  0  0  0
  139.9110   71.5000  222.8450 C   0  0  0  0  0  0  0  0  0  0  0  0
  139.4330   72.8220  222.4760 N   0  0  0  0  0  0  0  0  0  0  0  0
  140.3160   73.8180  221.9230 C   0  0  0  0  0  0  0  0  0  0  0  0
  141.4600   73.3870  221.2930 C   0  0  0  0  0  0  0  0  0  0  0  0
  142.3260   74.3060  220.7450 C   0  0  0  0  0  0  0  0  0  0  0  0
  143.5290   73.9590  220.0810 N   0  0  0  0  0  0  0  0  0  0  0  0
  144.8160   74.5560  220.3500 C   0  0  0  0  0  0  0  0  0  0  0  0
  145.7580   73.3730  220.6050 C   0  0  0  0  0  0  0  0  0  0  0  0
  145.9470   72.7300  219.3310 N   0  0  0  0  0  0  0  0  0  0  0  0
  144.8680   72.9130  218.4000 C   0  0  0  0  0  0  0  0  0  0  0  0
  143.4960   72.9230  219.0550 C   0  0  0  0  0  0  0  0  0  0  0  0
  141.9840   75.6040  220.8670 N   0  0  0  0  0  0  0  0  0  0  0  0
  140.8880   76.0640  221.4670 C   0  0  0  0  0  0  0  0  0  0  0  0
  140.5730   77.4560  221.5680 N   0  0  0  0  0  0  0  0  0  0  0  0
  139.8170   77.9160  222.7110 C   0  0  0  0  0  0  0  0  0  0  0  0
  140.5480   79.0400  223.3970 C   0  0  0  0  0  0  0  0  0  0  0  0
  140.9220   80.0470  222.3470 C   0  0  0  0  0  0  0  0  0  0  0  0
  141.0470   81.3690  222.7290 C   0  0  0  0  0  0  0  0  0  0  0  0
  141.3830   82.3400  221.8290 C   0  0  0  0  0  0  0  0  0  0  0  0
  141.6080   82.0160  220.4970 C   0  0  0  0  0  0  0  0  0  0  0  0
  141.4800   80.6930  220.1280 C   0  0  0  0  0  0  0  0  0  0  0  0
  141.1380   79.6940  221.0350 C   0  0  0  0  0  0  0  0  0  0  0  0
  141.0360   78.3190  220.5060 C   0  0  0  0  0  0  0  0  0  0  0  0
  140.0520   75.1240  222.0000 N   0  0  0  0  0  0  0  0  0  0  0  0
  140.2980   68.2580  226.3820 C   0  0  0  0  0  0  0  0  0  0  0  0
  140.7860   68.2250  227.6790 C   0  0  0  0  0  0  0  0  0  0  0  0
  141.4443   69.3808  229.3533 H   0  0  0  0  0  0  0  0  0  0  0  0
  141.0760   71.5703  228.2369 H   0  0  0  0  0  0  0  0  0  0  0  0
  140.1996   71.6324  225.9137 H   0  0  0  0  0  0  0  0  0  0  0  0
  140.3327   69.2610  223.6595 H   0  0  0  0  0  0  0  0  0  0  0  0
  138.6635   68.9876  224.2614 H   0  0  0  0  0  0  0  0  0  0  0  0
  138.1435   71.1710  223.9860 H   0  0  0  0  0  0  0  0  0  0  0  0
  139.5766   71.6816  224.9404 H   0  0  0  0  0  0  0  0  0  0  0  0
  140.9982   71.5351  223.0086 H   0  0  0  0  0  0  0  0  0  0  0  0
  139.6861   70.7886  222.0368 H   0  0  0  0  0  0  0  0  0  0  0  0
  138.4420   73.1290  222.5830 H   0  0  0  0  0  0  0  0  0  0  0  0
  141.6822   72.3117  221.2273 H   0  0  0  0  0  0  0  0  0  0  0  0
  145.1581   75.1429  219.4849 H   0  0  0  0  0  0  0  0  0  0  0  0
  144.7799   75.2467  221.2054 H   0  0  0  0  0  0  0  0  0  0  0  0
  146.7210   73.7301  220.9988 H   0  0  0  0  0  0  0  0  0  0  0  0
  145.3379   72.6780  221.3470 H   0  0  0  0  0  0  0  0  0  0  0  0
  146.8190   73.0770  218.8700 H   0  0  0  0  0  0  0  0  0  0  0  0
  145.0137   73.8728  217.8827 H   0  0  0  0  0  0  0  0  0  0  0  0
  144.8896   72.0582  217.7081 H   0  0  0  0  0  0  0  0  0  0  0  0
  142.7213   73.1530  218.3087 H   0  0  0  0  0  0  0  0  0  0  0  0
  143.2586   71.9415  219.4912 H   0  0  0  0  0  0  0  0  0  0  0  0
  138.8322   78.2736  222.3758 H   0  0  0  0  0  0  0  0  0  0  0  0
  139.6919   77.0832  223.4186 H   0  0  0  0  0  0  0  0  0  0  0  0
  139.8958   79.5074  224.1494 H   0  0  0  0  0  0  0  0  0  0  0  0
  141.4465   78.6619  223.9067 H   0  0  0  0  0  0  0  0  0  0  0  0
  140.8724   81.6451  223.7794 H   0  0  0  0  0  0  0  0  0  0  0  0
  141.4760   83.3846  222.1609 H   0  0  0  0  0  0  0  0  0  0  0  0
  141.8790   82.7880  219.7617 H   0  0  0  0  0  0  0  0  0  0  0  0
  141.6547   80.4171  219.0776 H   0  0  0  0  0  0  0  0  0  0  0  0
  140.3222   78.2946  219.6694 H   0  0  0  0  0  0  0  0  0  0  0  0
  142.0174   77.9794  220.1432 H   0  0  0  0  0  0  0  0  0  0  0  0
  140.0765   67.3205  225.8509 H   0  0  0  0  0  0  0  0  0  0  0  0
  140.9542   67.2632  228.1857 H   0  0  0  0  0  0  0  0  0  0  0  0
  1  2  2  0
  2  3  1  0
  3  4  2  0
  4  5  1  0
  5  6  1  0
  6  7  1  0
  7  8  1  0
  8  9  1  0
  9 10  2  0
 10 11  1  0
 11 12  1  0
 12 13  1  0
 13 14  1  0
 14 15  1  0
 15 16  1  0
 16 17  1  0
 11 18  2  0
 18 19  1  0
 19 20  1  0
 20 21  1  0
 21 22  1  0
 22 23  1  0
 23 24  2  0
 24 25  1  0
 25 26  2  0
 26 27  1  0
 27 28  2  0
 28 29  1  0
 19 30  2  0
  4 31  1  0
 31 32  2  0
 32  1  1  0
 30  9  1  0
 17 12  1  0
 29 20  1  0
 28 23  1  0
  1 33  1  0
  2 34  1  0
  3 35  1  0
  5 36  1  0
  5 37  1  0
  6 38  1  0
  6 39  1  0
  7 40  1  0
  7 41  1  0
  8 42  1  0
 10 43  1  0
 13 44  1  0
 13 45  1  0
 14 46  1  0
 14 47  1  0
 15 48  1  0
 16 49  1  0
 16 50  1  0
 17 51  1  0
 17 52  1  0
 21 53  1  0
 21 54  1  0
 22 55  1  0
 22 56  1  0
 24 57  1  0
 25 58  1  0
 26 59  1  0
 27 60  1  0
 29 61  1  0
 29 62  1  0
 31 63  1  0
 32 64  1  0
M  END
