
     RDKit          3D

 69 74  0  0  0  0  0  0  0  0999 V2000
  141.7860   75.8470  220.8460 O   0  0  0  0  0  0  0  0  0  0  0  0
  140.9480   75.2880  221.6000 C   0  0  0  0  0  0  0  0  0  0  0  0
  140.0300   76.0010  222.4160 N   0  0  0  0  0  0  0  0  0  0  0  0
  140.0130   77.4650  222.4210 C   0  0  0  0  0  0  0  0  0  0  0  0
  139.9180   78.0410  221.0430 C   0  0  0  0  0  0  0  0  0  0  0  0
  141.2690   78.6800  220.6960 C   0  0  0  0  0  0  0  0  0  0  0  0
  141.5710   79.6350  221.7910 C   0  0  0  0  0  0  0  0  0  0  0  0
  142.6370   79.3840  222.6420 C   0  0  0  0  0  0  0  0  0  0  0  0
  142.8820   80.2940  223.6440 C   0  0  0  0  0  0  0  0  0  0  0  0
  142.1330   81.4220  223.8380 C   0  0  0  0  0  0  0  0  0  0  0  0
  141.0760   81.6340  222.9650 C   0  0  0  0  0  0  0  0  0  0  0  0
  140.8320   80.7410  221.9780 N   0  0  0  0  0  0  0  0  0  0  0  0
  140.9490   73.8280  221.6110 C   0  0  0  0  0  0  0  0  0  0  0  0
  140.3560   73.1620  222.6220 N   0  0  0  0  0  0  0  0  0  0  0  0
  140.3200   71.8170  222.6900 C   0  0  0  0  0  0  0  0  0  0  0  0
  139.6950   71.1140  223.7550 N   0  0  0  0  0  0  0  0  0  0  0  0
  138.8080   70.0040  223.4600 C   0  0  0  0  0  0  0  0  0  0  0  0
  138.1060   69.5100  224.7090 C   0  0  0  0  0  0  0  0  0  0  0  0
  139.1450   69.2330  225.7370 C   0  0  0  0  0  0  0  0  0  0  0  0
  139.1770   68.0560  226.4250 C   0  0  0  0  0  0  0  0  0  0  0  0
  140.1900   67.8920  227.3670 C   0  0  0  0  0  0  0  0  0  0  0  0
  141.1240   68.8970  227.5860 C   0  0  0  0  0  0  0  0  0  0  0  0
  141.0730   70.0890  226.8730 C   0  0  0  0  0  0  0  0  0  0  0  0
  140.0800   70.2500  225.9500 C   0  0  0  0  0  0  0  0  0  0  0  0
  139.9420   71.5050  225.1300 C   0  0  0  0  0  0  0  0  0  0  0  0
  140.9140   71.1470  221.6860 N   0  0  0  0  0  0  0  0  0  0  0  0
  141.5300   71.7530  220.6410 C   0  0  0  0  0  0  0  0  0  0  0  0
  142.1480   71.0010  219.5920 N   0  0  0  0  0  0  0  0  0  0  0  0
  141.5300   69.8010  219.1290 C   0  0  0  0  0  0  0  0  0  0  0  0
  142.4330   69.0180  218.2270 C   0  0  0  0  0  0  0  0  0  0  0  0
  143.8630   69.1830  218.5340 C   0  0  0  0  0  0  0  0  0  0  0  0
  144.7390   68.1300  218.4270 C   0  0  0  0  0  0  0  0  0  0  0  0
  146.0940   68.2920  218.7140 C   0  0  0  0  0  0  0  0  0  0  0  0
  146.6140   69.5050  219.1140 C   0  0  0  0  0  0  0  0  0  0  0  0
  145.7390   70.5670  219.2230 C   0  0  0  0  0  0  0  0  0  0  0  0
  144.4020   70.4000  218.9380 C   0  0  0  0  0  0  0  0  0  0  0  0
  143.4110   71.5230  219.0460 C   0  0  0  0  0  0  0  0  0  0  0  0
  141.5290   73.0910  220.6350 N   0  0  0  0  0  0  0  0  0  0  0  0
  139.3750   75.4610  223.0060 H   0  0  0  0  0  0  0  0  0  0  0  0
  139.1464   77.8059  223.0065 H   0  0  0  0  0  0  0  0  0  0  0  0
  140.9598   77.8091  222.8629 H   0  0  0  0  0  0  0  0  0  0  0  0
  139.6870   77.2437  220.3213 H   0  0  0  0  0  0  0  0  0  0  0  0
  139.1189   78.7958  221.0011 H   0  0  0  0  0  0  0  0  0  0  0  0
  142.0511   77.9088  220.6366 H   0  0  0  0  0  0  0  0  0  0  0  0
  141.2326   79.1879  219.7210 H   0  0  0  0  0  0  0  0  0  0  0  0
  143.2644   78.4888  222.5200 H   0  0  0  0  0  0  0  0  0  0  0  0
  143.7247   80.1046  224.3252 H   0  0  0  0  0  0  0  0  0  0  0  0
  142.3587   82.1292  224.6498 H   0  0  0  0  0  0  0  0  0  0  0  0
  140.4390   82.5241  223.0746 H   0  0  0  0  0  0  0  0  0  0  0  0
  138.0526   70.3334  222.7315 H   0  0  0  0  0  0  0  0  0  0  0  0
  139.4101   69.1788  223.0520 H   0  0  0  0  0  0  0  0  0  0  0  0
  137.4118   70.2798  225.0770 H   0  0  0  0  0  0  0  0  0  0  0  0
  137.5301   68.5986  224.4903 H   0  0  0  0  0  0  0  0  0  0  0  0
  138.4322   67.2672  226.2433 H   0  0  0  0  0  0  0  0  0  0  0  0
  140.2511   66.9571  227.9434 H   0  0  0  0  0  0  0  0  0  0  0  0
  141.9157   68.7471  228.3349 H   0  0  0  0  0  0  0  0  0  0  0  0
  141.8141   70.8828  227.0480 H   0  0  0  0  0  0  0  0  0  0  0  0
  139.1002   72.1057  225.5048 H   0  0  0  0  0  0  0  0  0  0  0  0
  140.8583   72.1098  225.1978 H   0  0  0  0  0  0  0  0  0  0  0  0
  141.2682   69.1784  219.9972 H   0  0  0  0  0  0  0  0  0  0  0  0
  140.6340   70.0795  218.5549 H   0  0  0  0  0  0  0  0  0  0  0  0
  142.1783   67.9520  218.3208 H   0  0  0  0  0  0  0  0  0  0  0  0
  142.2770   69.3983  217.2067 H   0  0  0  0  0  0  0  0  0  0  0  0
  144.3661   67.1448  218.1103 H   0  0  0  0  0  0  0  0  0  0  0  0
  146.7674   67.4274  218.6186 H   0  0  0  0  0  0  0  0  0  0  0  0
  147.6847   69.6217  219.3375 H   0  0  0  0  0  0  0  0  0  0  0  0
  146.1118   71.5524  219.5393 H   0  0  0  0  0  0  0  0  0  0  0  0
  143.8076   72.3010  219.7149 H   0  0  0  0  0  0  0  0  0  0  0  0
  143.2330   71.9566  218.0509 H   0  0  0  0  0  0  0  0  0  0  0  0
  1  2  2  0
  2  3  1  0
  3  4  1  0
  4  5  1  0
  5  6  1  0
  6  7  1  0
  7  8  2  0
  8  9  1  0
  9 10  2  0
 10 11  1  0
 11 12  2  0
  2 13  1  0
 13 14  2  0
 14 15  1  0
 15 16  1  0
 16 17  1  0
 17 18  1  0
 18 19  1  0
 19 20  2  0
 20 21  1  0
 21 22  2  0
 22 23  1  0
 23 24  2  0
 24 25  1  0
 15 26  2  0
 26 27  1  0
 27 28  1  0
 28 29  1  0
 29 30  1  0
 30 31  1  0
 31 32  2  0
 32 33  1  0
 33 34  2  0
 34 35  1  0
 35 36  2  0
 36 37  1  0
 27 38  2  0
 12  7  1  0
 38 13  1  0
 25 16  1  0
 37 28  1  0
 24 19  1  0
 36 31  1  0
  3 39  1  0
  4 40  1  0
  4 41  1  0
  5 42  1  0
  5 43  1  0
  6 44  1  0
  6 45  1  0
  8 46  1  0
  9 47  1  0
 10 48  1  0
 11 49  1  0
 17 50  1  0
 17 51  1  0
 18 52  1  0
 18 53  1  0
 20 54  1  0
 21 55  1  0
 22 56  1  0
 23 57  1  0
 25 58  1  0
 25 59  1  0
 29 60  1  0
 29 61  1  0
 30 62  1  0
 30 63  1  0
 32 64  1  0
 33 65  1  0
 34 66  1  0
 35 67  1  0
 37 68  1  0
 37 69  1  0
M  END
