@<TRIPOS>MOLECULE
*****
 62 65 0 0 0
SMALL
GASTEIGER

@<TRIPOS>ATOM
      1 C         141.1260   82.5450  221.7160 C.3     1  UNL1       -0.0397
      2 C         141.3920   81.2230  221.0670 C.ar    1  UNL1       -0.0504
      3 C         141.6760   81.1630  219.7080 C.ar    1  UNL1       -0.0585
      4 C         141.9210   79.9460  219.1060 C.ar    1  UNL1       -0.0566
      5 C         141.8920   78.7460  219.8260 C.ar    1  UNL1       -0.0275
      6 C         142.1590   77.4630  219.1450 C.3     1  UNL1        0.0456
      7 C         140.9150   77.0390  218.4040 C.3     1  UNL1       -0.0425
      8 N         142.6700   76.4320  220.0080 N.am    1  UNL1       -0.3072
      9 C         143.6190   75.4970  219.5190 C.2     1  UNL1        0.2341
     10 O         144.0210   75.5620  218.3310 O.2     1  UNL1       -0.2738
     11 C         144.1160   74.4400  220.4740 C.3     1  UNL1        0.1047
     12 C         145.3770   73.8280  219.9220 C.3     1  UNL1        0.0018
     13 C         145.3670   72.4370  220.4630 C.3     1  UNL1        0.0731
     14 O         146.1230   71.5910  219.6550 O.3     1  UNL1       -0.3902
     15 C         143.8900   72.0580  220.4580 C.3     1  UNL1        0.0416
     16 N         143.2120   73.3530  220.6230 N.am    1  UNL1       -0.2861
     17 C         141.8280   73.4690  220.8990 C.2     1  UNL1        0.2334
     18 O         141.3170   74.4830  221.4680 O.2     1  UNL1       -0.2739
     19 C         140.8600   72.3890  220.5350 C.3     1  UNL1        0.0887
     20 N         140.7110   71.4320  221.5980 N.am    1  UNL1       -0.3015
     21 C         140.1950   71.8680  222.8510 C.2     1  UNL1        0.2628
     22 O         139.8580   73.0670  223.0710 O.2     1  UNL1       -0.2685
     23 C         140.0490   70.8830  223.9220 C.ar    1  UNL1        0.1260
     24 C         139.3600   69.7090  223.7070 C.ar    1  UNL1       -0.0306
     25 C         139.1870   68.7410  224.6750 C.ar    1  UNL1       -0.0504
     26 C         139.7480   68.9840  225.9240 C.ar    1  UNL1        0.0004
     27 C         139.5720   68.0160  226.8840 C.ar    1  UNL1       -0.0526
     28 C         140.1200   68.2380  228.1290 C.ar    1  UNL1       -0.0611
     29 C         140.8190   69.4070  228.3780 C.ar    1  UNL1       -0.0597
     30 C         140.9740   70.3550  227.3920 C.ar    1  UNL1       -0.0357
     31 C         140.4360   70.1590  226.1350 C.ar    1  UNL1        0.0718
     32 N         140.5700   71.0630  225.1530 N.ar    1  UNL1       -0.2421
     33 C         141.6080   78.8110  221.1840 C.ar    1  UNL1       -0.0566
     34 C         141.3580   80.0430  221.8020 C.ar    1  UNL1       -0.0585
     35 H         141.1496   82.4280  222.8095 H       1  UNL1        0.0278
     36 H         141.8970   83.2665  221.4078 H       1  UNL1        0.0278
     37 H         140.1360   82.9122  221.4078 H       1  UNL1        0.0278
     38 H         141.7055   82.0868  219.1116 H       1  UNL1        0.0620
     39 H         142.1455   79.9179  218.0295 H       1  UNL1        0.0621
     40 H         142.9770   77.6254  218.4277 H       1  UNL1        0.0545
     41 H         140.1306   76.7716  219.1273 H       1  UNL1        0.0251
     42 H         140.5640   77.8682  217.7722 H       1  UNL1        0.0251
     43 H         141.1435   76.1680  217.7722 H       1  UNL1        0.0251
     44 H         142.3420   76.3600  221.0180 H       1  UNL1        0.1493
     45 H         144.2545   74.9478  221.4399 H       1  UNL1        0.0597
     46 H         145.3595   73.8204  218.8222 H       1  UNL1        0.0313
     47 H         146.2802   74.3876  220.2067 H       1  UNL1        0.0313
     48 H         145.8115   72.3563  221.4660 H       1  UNL1        0.0610
     49 H         146.3540   70.7850  220.1940 H       1  UNL1        0.2098
     50 H         143.6076   71.5829  219.5069 H       1  UNL1        0.0490
     51 H         143.6280   71.3303  221.2402 H       1  UNL1        0.0490
     52 H         139.8808   72.8435  220.3238 H       1  UNL1        0.0558
     53 H         141.2477   71.8631  219.6501 H       1  UNL1        0.0558
     54 H         140.9820   70.4170  221.4530 H       1  UNL1        0.1496
     55 H         138.9253   69.5345  222.7117 H       1  UNL1        0.0641
     56 H         138.6289   67.8161  224.4675 H       1  UNL1        0.0625
     57 H         139.0123   67.0946  226.6658 H       1  UNL1        0.0624
     58 H         140.0021   67.4871  228.9242 H       1  UNL1        0.0618
     59 H         141.2546   69.5798  229.3732 H       1  UNL1        0.0618
     60 H         141.5321   71.2782  227.6073 H       1  UNL1        0.0639
     61 H         141.5791   77.8867  221.7796 H       1  UNL1        0.0621
     62 H         141.1328   80.0773  222.8782 H       1  UNL1        0.0620
@<TRIPOS>BOND
     1     1     2    1
     2     2     3   ar
     3     3     4   ar
     4     4     5   ar
     5     5     6    1
     6     6     7    1
     7     6     8    1
     8     8     9   am
     9     9    10    2
    10     9    11    1
    11    11    12    1
    12    12    13    1
    13    13    14    1
    14    13    15    1
    15    15    16    1
    16    16    17   am
    17    17    18    2
    18    17    19    1
    19    19    20    1
    20    20    21   am
    21    21    22    2
    22    21    23    1
    23    23    24   ar
    24    24    25   ar
    25    25    26   ar
    26    26    27   ar
    27    27    28   ar
    28    28    29   ar
    29    29    30   ar
    30    30    31   ar
    31    31    32   ar
    32     5    33   ar
    33    33    34   ar
    34    34     2   ar
    35    16    11    1
    36    32    23   ar
    37    31    26   ar
    38     1    35    1
    39     1    36    1
    40     1    37    1
    41     3    38    1
    42     4    39    1
    43     6    40    1
    44     7    41    1
    45     7    42    1
    46     7    43    1
    47     8    44    1
    48    11    45    1
    49    12    46    1
    50    12    47    1
    51    13    48    1
    52    14    49    1
    53    15    50    1
    54    15    51    1
    55    19    52    1
    56    19    53    1
    57    20    54    1
    58    24    55    1
    59    25    56    1
    60    27    57    1
    61    28    58    1
    62    29    59    1
    63    30    60    1
    64    33    61    1
    65    34    62    1
