
 55 58  0  0  1  0  0  0  0  0999 V2000
  139.9990   70.8970  221.1340 O   0  0  0  0  0  0  0  0  0  0  0  0
  139.8740   71.5110  222.2230 C   0  0  0  0  0  0  0  0  0  0  0  0
  139.7210   72.9220  222.2330 N   0  0  0  0  0  0  0  0  0  0  0  0
  139.6990   73.7350  221.0330 C   0  0  0  0  0  0  0  0  0  0  0  0
  140.3210   75.0670  221.2730 C   0  0  0  0  0  0  0  0  0  0  0  0
  140.0700   75.7580  222.2960 O   0  0  0  0  0  0  0  0  0  0  0  0
  141.2390   75.6160  220.3410 N   0  0  0  0  0  0  0  0  0  0  0  0
  142.6350   75.2460  220.4620 C   0  0  0  0  0  0  0  0  0  0  0  0
  142.9810   74.5400  219.1490 C   0  0  0  0  0  0  0  0  0  0  0  0
  142.6610   75.3950  217.9620 C   0  0  0  0  0  0  0  0  0  0  0  0
  141.9880   76.6870  218.2830 C   0  0  0  0  0  0  0  0  0  0  0  0
  140.8560   76.5260  219.2790 C   0  0  2  0  0  0  0  0  0  0  0  0
  140.3940   77.8220  219.7800 C   0  0  0  0  0  0  0  0  0  0  0  0
  141.2460   78.7830  220.0530 C   0  0  0  0  0  0  0  0  0  0  0  0
  141.6280   79.1810  221.4020 C   0  0  0  0  0  0  0  0  0  0  0  0
  142.2090   80.4370  221.6090 C   0  0  0  0  0  0  0  0  0  0  0  0
  142.5870   80.8590  222.8660 C   0  0  0  0  0  0  0  0  0  0  0  0
  142.4110   80.0600  223.9780 C   0  0  0  0  0  0  0  0  0  0  0  0
  141.8390   78.8220  223.7680 C   0  0  0  0  0  0  0  0  0  0  0  0
  141.4560   78.3960  222.4950 C   0  0  0  0  0  0  0  0  0  0  0  0
  139.8780   70.8100  223.5220 C   0  0  0  0  0  0  0  0  0  0  0  0
  139.4120   69.5350  223.6620 C   0  0  0  0  0  0  0  0  0  0  0  0
  139.3940   68.8360  224.8540 C   0  0  0  0  0  0  0  0  0  0  0  0
  139.8930   69.5120  225.9600 C   0  0  0  0  0  0  0  0  0  0  0  0
  139.9420   68.9460  227.2170 C   0  0  0  0  0  0  0  0  0  0  0  0
  140.4280   69.5870  228.3290 C   0  0  0  0  0  0  0  0  0  0  0  0
  140.8970   70.8890  228.1530 C   0  0  0  0  0  0  0  0  0  0  0  0
  140.8700   71.4950  226.9200 C   0  0  0  0  0  0  0  0  0  0  0  0
  140.3690   70.8010  225.8370 C   0  0  0  0  0  0  0  0  0  0  0  0
  140.3520   71.4150  224.6410 N   0  0  0  0  0  0  0  0  0  0  0  0
  139.6190   73.4080  223.1530 H   0  0  0  0  0  0  0  0  0  0  0  0
  140.2560   73.2169  220.2384 H   0  0  0  0  0  0  0  0  0  0  0  0
  138.6512   73.8885  220.7356 H   0  0  0  0  0  0  0  0  0  0  0  0
  143.2607   76.1409  220.5948 H   0  0  0  0  0  0  0  0  0  0  0  0
  142.8139   74.6003  221.3343 H   0  0  0  0  0  0  0  0  0  0  0  0
  144.0560   74.3070  219.1416 H   0  0  0  0  0  0  0  0  0  0  0  0
  142.3793   73.6215  219.0835 H   0  0  0  0  0  0  0  0  0  0  0  0
  143.6022   75.6204  217.4393 H   0  0  0  0  0  0  0  0  0  0  0  0
  141.9504   74.8203  217.3498 H   0  0  0  0  0  0  0  0  0  0  0  0
  142.7335   77.3764  218.7061 H   0  0  0  0  0  0  0  0  0  0  0  0
  141.5561   77.0773  217.3497 H   0  0  0  0  0  0  0  0  0  0  0  0
  139.9957   76.0759  218.7620 H   0  0  0  0  0  0  0  0  0  0  0  0
  139.3177   77.9929  219.9298 H   0  0  0  0  0  0  0  0  0  0  0  0
  141.7008   79.3225  219.2091 H   0  0  0  0  0  0  0  0  0  0  0  0
  142.3679   81.1035  220.7485 H   0  0  0  0  0  0  0  0  0  0  0  0
  143.0390   81.8547  222.9855 H   0  0  0  0  0  0  0  0  0  0  0  0
  142.7119   80.3939  224.9820 H   0  0  0  0  0  0  0  0  0  0  0  0
  141.6806   78.1529  224.6266 H   0  0  0  0  0  0  0  0  0  0  0  0
  141.0040   77.4003  222.3753 H   0  0  0  0  0  0  0  0  0  0  0  0
  139.0244   69.0294  222.7652 H   0  0  0  0  0  0  0  0  0  0  0  0
  139.0084   67.8081  224.9226 H   0  0  0  0  0  0  0  0  0  0  0  0
  139.5687   67.9181  227.3353 H   0  0  0  0  0  0  0  0  0  0  0  0
  140.4468   69.0968  229.3135 H   0  0  0  0  0  0  0  0  0  0  0  0
  141.2958   71.4407  229.0171 H   0  0  0  0  0  0  0  0  0  0  0  0
  141.2437   72.5223  226.7973 H   0  0  0  0  0  0  0  0  0  0  0  0
  1  2  2  0
  2  3  1  0
  3  4  1  0
  4  5  1  0
  5  6  2  0
  5  7  1  0
  7  8  1  0
  8  9  1  0
  9 10  1  0
 10 11  1  0
 11 12  1  0
 12 13  1  0
 13 14  2  0
 14 15  1  0
 15 16  2  0
 16 17  1  0
 17 18  2  0
 18 19  1  0
 19 20  2  0
  2 21  1  0
 21 22  2  0
 22 23  1  0
 23 24  2  0
 24 25  1  0
 25 26  2  0
 26 27  1  0
 27 28  2  0
 28 29  1  0
 29 30  2  0
 12  7  1  0
 20 15  1  0
 30 21  1  0
 29 24  1  0
  3 31  1  0
  4 32  1  0
  4 33  1  0
  8 34  1  0
  8 35  1  0
  9 36  1  0
  9 37  1  0
 10 38  1  0
 10 39  1  0
 11 40  1  0
 11 41  1  0
 12 42  1  6
 13 43  1  0
 14 44  1  0
 16 45  1  0
 17 46  1  0
 18 47  1  0
 19 48  1  0
 20 49  1  0
 22 50  1  0
 23 51  1  0
 25 52  1  0
 26 53  1  0
 27 54  1  0
 28 55  1  0
M  END
