@<TRIPOS>MOLECULE
*****
 78 84 0 0 0
SMALL
GASTEIGER

@<TRIPOS>ATOM
      1 O         142.8960   80.0030  222.2630 O.2     1  UNL1       -0.1577
      2 S         141.7450   79.9790  221.2680 S.O2    1  UNL1        0.0359
      3 O         142.3180   80.2210  219.8840 O.2     1  UNL1       -0.1577
      4 C         140.7050   81.3470  221.6350 C.3     1  UNL1        0.1069
      5 C         139.5590   80.9370  222.4590 C.ar    1  UNL1       -0.0250
      6 C         138.3800   80.6240  221.7920 C.ar    1  UNL1       -0.0570
      7 C         137.2260   80.2640  222.4810 C.ar    1  UNL1       -0.0615
      8 C         137.2240   80.2090  223.8640 C.ar    1  UNL1       -0.0617
      9 C         138.3940   80.5200  224.5190 C.ar    1  UNL1       -0.0615
     10 C         139.5310   80.8750  223.8210 C.ar    1  UNL1       -0.0570
     11 N         140.9280   78.5230  221.2850 N.3     1  UNL1       -0.1808
     12 C         140.6520   77.8230  220.1110 C.3     1  UNL1        0.0208
     13 C         140.9820   76.3350  220.1810 C.3     1  UNL1       -0.0288
     14 C         140.4010   75.7610  221.4540 C.3     1  UNL1        0.0216
     15 C         140.6710   74.3250  221.5630 C.ar    1  UNL1        0.1394
     16 N         141.4830   73.6430  220.7110 N.ar    1  UNL1       -0.1990
     17 C         141.7080   72.3310  220.8360 C.ar    1  UNL1        0.2227
     18 N         142.5750   71.7210  219.8900 N.pl3   1  UNL1       -0.2949
     19 C         143.5850   72.5300  219.2550 C.3     1  UNL1        0.0192
     20 C         144.9460   71.9850  219.7000 C.3     1  UNL1       -0.0115
     21 C         144.9770   70.5510  219.3100 C.ar    1  UNL1       -0.0412
     22 C         146.2170   70.0080  219.0280 C.ar    1  UNL1       -0.0582
     23 C         146.3160   68.6780  218.6600 C.ar    1  UNL1       -0.0615
     24 C         145.1720   67.9110  218.5800 C.ar    1  UNL1       -0.0614
     25 C         143.9140   68.4370  218.8600 C.ar    1  UNL1       -0.0568
     26 C         143.8480   69.7650  219.2240 C.ar    1  UNL1       -0.0269
     27 C         142.5050   70.3230  219.5230 C.3     1  UNL1        0.0402
     28 N         141.1120   71.6650  221.8370 N.ar    1  UNL1       -0.1808
     29 C         140.2910   72.2810  222.7230 C.ar    1  UNL1        0.2227
     30 N         139.6540   71.5850  223.7890 N.pl3   1  UNL1       -0.2949
     31 C         138.3630   70.9880  223.5260 C.3     1  UNL1        0.0192
     32 C         137.9460   69.9510  224.5140 C.3     1  UNL1       -0.0115
     33 C         139.0860   69.3950  225.2820 C.ar    1  UNL1       -0.0412
     34 C         139.0250   68.1000  225.7530 C.ar    1  UNL1       -0.0582
     35 C         140.0870   67.5540  226.4790 C.ar    1  UNL1       -0.0615
     36 C         141.2220   68.2970  226.7420 C.ar    1  UNL1       -0.0614
     37 C         141.2950   69.6080  226.2700 C.ar    1  UNL1       -0.0568
     38 C         140.2270   70.1150  225.5560 C.ar    1  UNL1       -0.0269
     39 C         140.3050   71.5020  225.0600 C.3     1  UNL1        0.0402
     40 N         140.1040   73.6010  222.5450 N.ar    1  UNL1       -0.1990
     41 C         141.0430   76.4970  222.6080 C.3     1  UNL1       -0.0288
     42 C         140.6340   77.9290  222.5380 C.3     1  UNL1        0.0208
     43 H         141.2871   82.1040  222.1810 H       1  UNL1        0.0565
     44 H         140.3242   81.7590  220.6888 H       1  UNL1        0.0565
     45 H         138.3590   80.6619  220.6929 H       1  UNL1        0.0621
     46 H         136.3095   80.0216  221.9231 H       1  UNL1        0.0618
     47 H         136.3183   79.9264  224.4207 H       1  UNL1        0.0618
     48 H         138.4236   80.4851  225.6180 H       1  UNL1        0.0618
     49 H         140.4456   81.1161  224.3827 H       1  UNL1        0.0621
     50 H         139.5798   77.9290  219.8895 H       1  UNL1        0.0444
     51 H         141.2923   78.2535  219.3269 H       1  UNL1        0.0444
     52 H         140.5471   75.8195  219.3120 H       1  UNL1        0.0285
     53 H         142.0731   76.1957  220.1747 H       1  UNL1        0.0285
     54 H         139.3082   75.8861  221.4583 H       1  UNL1        0.0380
     55 H         143.4906   72.4613  218.1612 H       1  UNL1        0.0468
     56 H         143.4751   73.5870  219.5392 H       1  UNL1        0.0468
     57 H         145.7569   72.5327  219.1975 H       1  UNL1        0.0328
     58 H         145.0859   72.1044  220.7845 H       1  UNL1        0.0328
     59 H         147.1211   70.6309  219.0960 H       1  UNL1        0.0620
     60 H         147.2976   68.2363  218.4333 H       1  UNL1        0.0618
     61 H         145.2564   66.8542  218.2867 H       1  UNL1        0.0618
     62 H         143.0078   67.8171  218.7934 H       1  UNL1        0.0621
     63 H         141.8697   70.2202  218.6309 H       1  UNL1        0.0514
     64 H         142.0843   69.7663  220.3733 H       1  UNL1        0.0514
     65 H         137.6080   71.7880  223.5288 H       1  UNL1        0.0468
     66 H         138.4472   70.4779  222.5551 H       1  UNL1        0.0468
     67 H         137.2349   70.4046  225.2201 H       1  UNL1        0.0328
     68 H         137.4914   69.1224  223.9512 H       1  UNL1        0.0328
     69 H         138.1309   67.4905  225.5551 H       1  UNL1        0.0620
     70 H         140.0185   66.5192  226.8459 H       1  UNL1        0.0618
     71 H         142.0546   67.8619  227.3143 H       1  UNL1        0.0618
     72 H         142.1850   70.2251  226.4626 H       1  UNL1        0.0621
     73 H         139.8074   72.1760  225.7728 H       1  UNL1        0.0514
     74 H         141.3592   71.7979  224.9549 H       1  UNL1        0.0514
     75 H         140.7068   76.0606  223.5601 H       1  UNL1        0.0285
     76 H         142.1381   76.4131  222.5477 H       1  UNL1        0.0285
     77 H         139.5498   77.9939  222.7121 H       1  UNL1        0.0444
     78 H         141.2035   78.4742  223.3051 H       1  UNL1        0.0444
@<TRIPOS>BOND
     1     1     2    2
     2     2     3    2
     3     2     4    1
     4     4     5    1
     5     5     6   ar
     6     6     7   ar
     7     7     8   ar
     8     8     9   ar
     9     9    10   ar
    10     2    11    1
    11    11    12    1
    12    12    13    1
    13    13    14    1
    14    14    15    1
    15    15    16   ar
    16    16    17   ar
    17    17    18    1
    18    18    19    1
    19    19    20    1
    20    20    21    1
    21    21    22   ar
    22    22    23   ar
    23    23    24   ar
    24    24    25   ar
    25    25    26   ar
    26    26    27    1
    27    17    28   ar
    28    28    29   ar
    29    29    30    1
    30    30    31    1
    31    31    32    1
    32    32    33    1
    33    33    34   ar
    34    34    35   ar
    35    35    36   ar
    36    36    37   ar
    37    37    38   ar
    38    38    39    1
    39    29    40   ar
    40    14    41    1
    41    41    42    1
    42    10     5   ar
    43    42    11    1
    44    40    15   ar
    45    27    18    1
    46    39    30    1
    47    26    21   ar
    48    38    33   ar
    49     4    43    1
    50     4    44    1
    51     6    45    1
    52     7    46    1
    53     8    47    1
    54     9    48    1
    55    10    49    1
    56    12    50    1
    57    12    51    1
    58    13    52    1
    59    13    53    1
    60    14    54    1
    61    19    55    1
    62    19    56    1
    63    20    57    1
    64    20    58    1
    65    22    59    1
    66    23    60    1
    67    24    61    1
    68    25    62    1
    69    27    63    1
    70    27    64    1
    71    31    65    1
    72    31    66    1
    73    32    67    1
    74    32    68    1
    75    34    69    1
    76    35    70    1
    77    36    71    1
    78    37    72    1
    79    39    73    1
    80    39    74    1
    81    41    75    1
    82    41    76    1
    83    42    77    1
    84    42    78    1
