@<TRIPOS>MOLECULE
*****
 58 62 0 0 0
SMALL
GASTEIGER

@<TRIPOS>ATOM
      1 O         139.1640   70.5010  221.5020 O.2     1  UNL1       -0.2685
      2 C         139.4250   71.1900  222.5420 C.2     1  UNL1        0.2628
      3 N         139.5420   72.6130  222.4910 N.am    1  UNL1       -0.3015
      4 C         139.3500   73.2510  221.1640 C.3     1  UNL1        0.0887
      5 C         139.7200   74.6300  221.1700 C.2     1  UNL1        0.2331
      6 O         139.8400   75.1620  222.3660 O.2     1  UNL1       -0.2739
      7 N         139.9910   75.5830  220.1570 N.am    1  UNL1       -0.2943
      8 C         139.2140   75.2510  218.8730 C.3     1  UNL1        0.0411
      9 C         139.6090   76.3540  217.9560 C.3     1  UNL1        0.0726
     10 O         140.6970   75.9020  217.1830 O.3     1  UNL1       -0.3902
     11 C         140.0110   77.4980  218.8700 C.3     1  UNL1       -0.0064
     12 C         140.7980   76.7110  219.9170 C.3     1  UNL1        0.0325
     13 C         141.4970   77.5170  220.9020 C.3     1  UNL1       -0.0083
     14 C         140.8610   78.4130  221.8530 C.ar    1  UNL1       -0.0379
     15 C         139.4910   78.3580  222.0480 C.ar    1  UNL1       -0.0579
     16 C         138.7960   79.1990  222.8820 C.ar    1  UNL1       -0.0609
     17 C         139.4630   80.1620  223.5840 C.ar    1  UNL1       -0.0540
     18 C         140.8240   80.2620  223.4380 C.ar    1  UNL1       -0.0176
     19 C         141.4670   81.2160  224.2010 C.ar    1  UNL1       -0.0540
     20 C         142.8380   81.3300  224.1330 C.ar    1  UNL1       -0.0612
     21 C         143.5580   80.4930  223.3090 C.ar    1  UNL1       -0.0612
     22 C         142.8770   79.5590  222.5660 C.ar    1  UNL1       -0.0538
     23 C         141.5120   79.4000  222.5870 C.ar    1  UNL1       -0.0146
     24 C         139.6110   70.5070  223.8320 C.ar    1  UNL1        0.1260
     25 C         139.2100   69.1940  223.9680 C.ar    1  UNL1       -0.0306
     26 C         139.3510   68.4830  225.1300 C.ar    1  UNL1       -0.0504
     27 C         139.9260   69.1340  226.2100 C.ar    1  UNL1        0.0004
     28 C         140.0590   68.3980  227.3680 C.ar    1  UNL1       -0.0526
     29 C         140.6400   69.0650  228.4450 C.ar    1  UNL1       -0.0611
     30 C         141.0460   70.3730  228.3340 C.ar    1  UNL1       -0.0597
     31 C         140.8970   71.0820  227.1560 C.ar    1  UNL1       -0.0357
     32 C         140.3210   70.4350  226.0710 C.ar    1  UNL1        0.0718
     33 N         140.1610   71.1060  224.8940 N.ar    1  UNL1       -0.2421
     34 H         139.7500   73.1350  223.3470 H       1  UNL1        0.1496
     35 H         139.9679   72.7217  220.4237 H       1  UNL1        0.0558
     36 H         138.2813   73.1892  220.9110 H       1  UNL1        0.0558
     37 H         139.5147   74.2729  218.4693 H       1  UNL1        0.0490
     38 H         138.1272   75.1800  219.0270 H       1  UNL1        0.0490
     39 H         138.8139   76.6722  217.2657 H       1  UNL1        0.0609
     40 H         141.0590   75.0310  217.5310 H       1  UNL1        0.2098
     41 H         140.6402   78.2368  218.3520 H       1  UNL1        0.0309
     42 H         139.1792   78.1017  219.2621 H       1  UNL1        0.0309
     43 H         141.7746   76.2786  219.6537 H       1  UNL1        0.0504
     44 H         142.0701   76.8026  221.5113 H       1  UNL1        0.0331
     45 H         141.9912   78.2470  220.2441 H       1  UNL1        0.0331
     46 H         138.9233   77.5917  221.4998 H       1  UNL1        0.0620
     47 H         137.7055   79.0973  222.9843 H       1  UNL1        0.0618
     48 H         138.9196   80.8447  224.2539 H       1  UNL1        0.0624
     49 H         140.8882   81.8808  224.8590 H       1  UNL1        0.0624
     50 H         143.3577   82.0889  224.7363 H       1  UNL1        0.0618
     51 H         144.6535   80.5706  223.2473 H       1  UNL1        0.0618
     52 H         143.4622   78.8957  221.9121 H       1  UNL1        0.0624
     53 H         138.7547   68.6936  223.1006 H       1  UNL1        0.0641
     54 H         139.0208   67.4363  225.2033 H       1  UNL1        0.0625
     55 H         139.7278   67.3514  227.4375 H       1  UNL1        0.0624
     56 H         140.7758   68.5356  229.3996 H       1  UNL1        0.0618
     57 H         141.5011   70.8687  229.2041 H       1  UNL1        0.0618
     58 H         141.2256   72.1291  227.0808 H       1  UNL1        0.0639
@<TRIPOS>BOND
     1     1     2    2
     2     2     3   am
     3     3     4    1
     4     4     5    1
     5     5     6    2
     6     5     7   am
     7     7     8    1
     8     8     9    1
     9     9    10    1
    10     9    11    1
    11    11    12    1
    12    12    13    1
    13    13    14    1
    14    14    15   ar
    15    15    16   ar
    16    16    17   ar
    17    17    18   ar
    18    18    19   ar
    19    19    20   ar
    20    20    21   ar
    21    21    22   ar
    22    22    23   ar
    23     2    24    1
    24    24    25   ar
    25    25    26   ar
    26    26    27   ar
    27    27    28   ar
    28    28    29   ar
    29    29    30   ar
    30    30    31   ar
    31    31    32   ar
    32    32    33   ar
    33    12     7    1
    34    23    14   ar
    35    33    24   ar
    36    23    18   ar
    37    32    27   ar
    38     3    34    1
    39     4    35    1
    40     4    36    1
    41     8    37    1
    42     8    38    1
    43     9    39    1
    44    10    40    1
    45    11    41    1
    46    11    42    1
    47    12    43    1
    48    13    44    1
    49    13    45    1
    50    15    46    1
    51    16    47    1
    52    17    48    1
    53    19    49    1
    54    20    50    1
    55    21    51    1
    56    22    52    1
    57    25    53    1
    58    26    54    1
    59    28    55    1
    60    29    56    1
    61    30    57    1
    62    31    58    1
