
     RDKit          3D

 60 64  0  0  0  0  0  0  0  0999 V2000
  142.6610   77.2440  217.5110 O   0  0  0  0  0  0  0  0  0  0  0  0
  142.5910   77.7780  218.6520 C   0  0  0  0  0  0  0  0  0  0  0  0
  142.8260   77.0610  219.8610 N   0  0  0  0  0  0  0  0  0  0  0  0
  143.1710   75.6230  219.7830 C   0  0  0  0  0  0  0  0  0  0  0  0
  141.9990   74.8390  219.3960 C   0  0  0  0  0  0  0  0  0  0  0  0
  141.7190   74.8190  218.1440 O   0  0  0  0  0  0  0  0  0  0  0  0
  141.1390   74.1010  220.2240 N   0  0  0  0  0  0  0  0  0  0  0  0
  141.6750   73.0620  221.1340 C   0  0  0  0  0  0  0  0  0  0  0  0
  140.7510   73.0060  222.3030 C   0  0  0  0  0  0  0  0  0  0  0  0
  139.5220   73.8090  221.9380 C   0  0  2  0  0  0  0  0  0  0  0  0
  138.4150   72.9880  222.1530 O   0  0  0  0  0  0  0  0  0  0  0  0
  139.7260   74.0810  220.4600 C   0  0  1  0  0  0  0  0  0  0  0  0
  138.9720   75.2710  219.9870 C   0  0  0  0  0  0  0  0  0  0  0  0
  138.7110   76.2600  221.0780 C   0  0  0  0  0  0  0  0  0  0  0  0
  137.4810   76.3820  221.6900 C   0  0  0  0  0  0  0  0  0  0  0  0
  137.2330   77.2920  222.6970 C   0  0  0  0  0  0  0  0  0  0  0  0
  138.2810   78.1010  223.0870 C   0  0  0  0  0  0  0  0  0  0  0  0
  139.5230   78.0350  222.5250 C   0  0  0  0  0  0  0  0  0  0  0  0
  140.6510   78.8730  222.9130 C   0  0  0  0  0  0  0  0  0  0  0  0
  140.5320   79.9410  223.7780 C   0  0  0  0  0  0  0  0  0  0  0  0
  141.5800   80.7170  224.1360 N   0  0  0  0  0  0  0  0  0  0  0  0
  142.8020   80.4680  223.6480 C   0  0  0  0  0  0  0  0  0  0  0  0
  142.9560   79.4100  222.7820 C   0  0  0  0  0  0  0  0  0  0  0  0
  141.9060   78.6450  222.4340 N   0  0  0  0  0  0  0  0  0  0  0  0
  139.7230   77.1080  221.5220 C   0  0  0  0  0  0  0  0  0  0  0  0
  142.2480   79.2130  218.7560 C   0  0  0  0  0  0  0  0  0  0  0  0
  142.5670   80.0700  217.7210 C   0  0  0  0  0  0  0  0  0  0  0  0
  142.2830   81.4180  217.7390 C   0  0  0  0  0  0  0  0  0  0  0  0
  141.6470   81.9060  218.8670 C   0  0  0  0  0  0  0  0  0  0  0  0
  141.3460   83.2560  218.9200 C   0  0  0  0  0  0  0  0  0  0  0  0
  140.7130   83.7830  220.0260 C   0  0  0  0  0  0  0  0  0  0  0  0
  140.4270   85.1060  220.0590 F   0  0  0  0  0  0  0  0  0  0  0  0
  140.3970   82.9170  221.0580 C   0  0  0  0  0  0  0  0  0  0  0  0
  140.6990   81.5700  221.0030 C   0  0  0  0  0  0  0  0  0  0  0  0
  141.3400   81.0280  219.8870 C   0  0  0  0  0  0  0  0  0  0  0  0
  141.6300   79.7160  219.8410 N   0  0  0  0  0  0  0  0  0  0  0  0
  142.7550   77.5520  220.7750 H   0  0  0  0  0  0  0  0  0  0  0  0
  143.9655   75.4807  219.0356 H   0  0  0  0  0  0  0  0  0  0  0  0
  143.5170   75.2845  220.7708 H   0  0  0  0  0  0  0  0  0  0  0  0
  141.7024   72.0877  220.6242 H   0  0  0  0  0  0  0  0  0  0  0  0
  142.7016   73.3003  221.4492 H   0  0  0  0  0  0  0  0  0  0  0  0
  140.4715   71.9631  222.5133 H   0  0  0  0  0  0  0  0  0  0  0  0
  141.2331   73.4157  223.2028 H   0  0  0  0  0  0  0  0  0  0  0  0
  139.3707   74.7366  222.5095 H   0  0  0  0  0  0  0  0  0  0  0  0
  137.9580   73.1750  223.0110 H   0  0  0  0  0  0  0  0  0  0  0  0
  139.2926   73.2813  219.8414 H   0  0  0  0  0  0  0  0  0  0  0  0
  139.5549   75.7654  219.1959 H   0  0  0  0  0  0  0  0  0  0  0  0
  137.9975   74.9209  219.6158 H   0  0  0  0  0  0  0  0  0  0  0  0
  136.6622   75.7253  221.3610 H   0  0  0  0  0  0  0  0  0  0  0  0
  136.2424   77.3694  223.1689 H   0  0  0  0  0  0  0  0  0  0  0  0
  138.1070   78.8337  223.8888 H   0  0  0  0  0  0  0  0  0  0  0  0
  139.5406   80.1716  224.1951 H   0  0  0  0  0  0  0  0  0  0  0  0
  143.6610   81.0936  223.9323 H   0  0  0  0  0  0  0  0  0  0  0  0
  143.9508   79.1869  222.3689 H   0  0  0  0  0  0  0  0  0  0  0  0
  140.7172   77.0363  221.0567 H   0  0  0  0  0  0  0  0  0  0  0  0
  143.0737   79.6551  216.8372 H   0  0  0  0  0  0  0  0  0  0  0  0
  142.5489   82.0746  216.8975 H   0  0  0  0  0  0  0  0  0  0  0  0
  141.6126   83.9106  218.0771 H   0  0  0  0  0  0  0  0  0  0  0  0
  139.8896   83.3134  221.9498 H   0  0  0  0  0  0  0  0  0  0  0  0
  140.4317   80.9175  221.8473 H   0  0  0  0  0  0  0  0  0  0  0  0
  1  2  2  0
  2  3  1  0
  3  4  1  0
  4  5  1  0
  5  6  2  0
  5  7  1  0
  7  8  1  0
  8  9  1  0
  9 10  1  0
 10 11  1  0
 10 12  1  0
 12 13  1  0
 13 14  1  0
 14 15  2  0
 15 16  1  0
 16 17  2  0
 17 18  1  0
 18 19  1  0
 19 20  2  0
 20 21  1  0
 21 22  2  0
 22 23  1  0
 23 24  2  0
 18 25  2  0
  2 26  1  0
 26 27  2  0
 27 28  1  0
 28 29  2  0
 29 30  1  0
 30 31  2  0
 31 32  1  0
 31 33  1  0
 33 34  2  0
 34 35  1  0
 35 36  2  0
 12  7  1  0
 25 14  1  0
 36 26  1  0
 24 19  1  0
 35 29  1  0
  3 37  1  0
  4 38  1  0
  4 39  1  0
  8 40  1  0
  8 41  1  0
  9 42  1  0
  9 43  1  0
 10 44  1  1
 11 45  1  0
 12 46  1  6
 13 47  1  0
 13 48  1  0
 15 49  1  0
 16 50  1  0
 17 51  1  0
 20 52  1  0
 22 53  1  0
 23 54  1  0
 25 55  1  0
 27 56  1  0
 28 57  1  0
 30 58  1  0
 33 59  1  0
 34 60  1  0
M  END
