
     RDKit          3D

 57 60  0  0  0  0  0  0  0  0999 V2000
  141.1590   72.4090  221.7070 O   0  0  0  0  0  0  0  0  0  0  0  0
  140.1970   72.4660  222.5460 C   0  0  0  0  0  0  0  0  0  0  0  0
  139.1760   73.4710  222.3480 N   0  0  0  0  0  0  0  0  0  0  0  0
  139.1840   74.4050  221.2740 C   0  0  0  0  0  0  0  0  0  0  0  0
  140.2260   75.4110  221.1770 C   0  0  0  0  0  0  0  0  0  0  0  0
  141.0820   75.3790  222.1510 O   0  0  0  0  0  0  0  0  0  0  0  0
  140.4790   76.4160  220.2120 N   0  0  0  0  0  0  0  0  0  0  0  0
  139.8010   76.5730  218.9660 C   0  0  0  0  0  0  0  0  0  0  0  0
  140.6240   77.0380  217.8010 C   0  0  0  0  0  0  0  0  0  0  0  0
  142.0590   77.3050  218.1410 C   0  0  0  0  0  0  0  0  0  0  0  0
  142.2140   78.0350  219.4480 C   0  0  0  0  0  0  0  0  0  0  0  0
  141.5140   77.3820  220.5520 C   0  0  1  0  0  0  0  0  0  0  0  0
  140.8850   78.3630  221.5480 C   0  0  0  0  0  0  0  0  0  0  0  0
  140.8100   79.7520  221.0730 C   0  0  0  0  0  0  0  0  0  0  0  0
  140.9300   80.8300  222.0980 C   0  0  0  0  0  0  0  0  0  0  0  0
  141.7720   80.4490  223.2900 C   0  0  0  0  0  0  0  0  0  0  0  0
  141.0670   79.2170  223.8720 C   0  0  0  0  0  0  0  0  0  0  0  0
  141.4450   78.1210  222.9100 C   0  0  0  0  0  0  0  0  0  0  0  0
  140.1260   71.5370  223.6830 C   0  0  0  0  0  0  0  0  0  0  0  0
  139.5330   70.3140  223.4740 C   0  0  0  0  0  0  0  0  0  0  0  0
  139.4350   69.3980  224.5020 C   0  0  0  0  0  0  0  0  0  0  0  0
  139.9450   69.7430  225.7350 C   0  0  0  0  0  0  0  0  0  0  0  0
  139.8900   68.8870  226.8200 C   0  0  0  0  0  0  0  0  0  0  0  0
  140.4050   69.2510  228.0460 C   0  0  0  0  0  0  0  0  0  0  0  0
  140.3560   68.4250  229.1050 F   0  0  0  0  0  0  0  0  0  0  0  0
  140.9810   70.4960  228.1710 C   0  0  0  0  0  0  0  0  0  0  0  0
  141.0600   71.3870  227.1110 C   0  0  0  0  0  0  0  0  0  0  0  0
  140.5350   70.9860  225.9100 C   0  0  0  0  0  0  0  0  0  0  0  0
  140.6240   71.8790  224.8850 N   0  0  0  0  0  0  0  0  0  0  0  0
  138.4150   73.4390  223.0920 H   0  0  0  0  0  0  0  0  0  0  0  0
  139.2274   73.8165  220.3457 H   0  0  0  0  0  0  0  0  0  0  0  0
  138.2805   75.0037  221.4618 H   0  0  0  0  0  0  0  0  0  0  0  0
  139.3667   75.5984  218.6985 H   0  0  0  0  0  0  0  0  0  0  0  0
  139.0668   77.3740  219.1372 H   0  0  0  0  0  0  0  0  0  0  0  0
  140.5910   76.2623  217.0217 H   0  0  0  0  0  0  0  0  0  0  0  0
  140.1920   77.9921  217.4647 H   0  0  0  0  0  0  0  0  0  0  0  0
  142.5906   76.3443  218.2080 H   0  0  0  0  0  0  0  0  0  0  0  0
  142.4775   77.9436  217.3491 H   0  0  0  0  0  0  0  0  0  0  0  0
  143.2846   78.0892  219.6946 H   0  0  0  0  0  0  0  0  0  0  0  0
  141.7712   79.0340  219.3220 H   0  0  0  0  0  0  0  0  0  0  0  0
  142.3542   76.8280  220.9960 H   0  0  0  0  0  0  0  0  0  0  0  0
  139.8087   78.1536  221.6363 H   0  0  0  0  0  0  0  0  0  0  0  0
  141.6208   79.8968  220.3438 H   0  0  0  0  0  0  0  0  0  0  0  0
  139.7934   79.8585  220.6667 H   0  0  0  0  0  0  0  0  0  0  0  0
  141.3830   81.7120  221.6217 H   0  0  0  0  0  0  0  0  0  0  0  0
  139.9153   81.0275  222.4739 H   0  0  0  0  0  0  0  0  0  0  0  0
  142.7977   80.2009  222.9795 H   0  0  0  0  0  0  0  0  0  0  0  0
  141.8619   81.2666  224.0203 H   0  0  0  0  0  0  0  0  0  0  0  0
  141.4316   78.9956  224.8859 H   0  0  0  0  0  0  0  0  0  0  0  0
  139.9795   79.3482  223.9724 H   0  0  0  0  0  0  0  0  0  0  0  0
  142.5416   78.0705  222.8405 H   0  0  0  0  0  0  0  0  0  0  0  0
  141.0294   77.1753  223.2880 H   0  0  0  0  0  0  0  0  0  0  0  0
  139.1337   70.0638  222.4800 H   0  0  0  0  0  0  0  0  0  0  0  0
  138.9620   68.4180  224.3412 H   0  0  0  0  0  0  0  0  0  0  0  0
  139.4263   67.8965  226.7025 H   0  0  0  0  0  0  0  0  0  0  0  0
  141.3930   70.7942  229.1463 H   0  0  0  0  0  0  0  0  0  0  0  0
  141.5256   72.3765  227.2295 H   0  0  0  0  0  0  0  0  0  0  0  0
  1  2  2  0
  2  3  1  0
  3  4  1  0
  4  5  1  0
  5  6  2  0
  5  7  1  0
  7  8  1  0
  8  9  1  0
  9 10  1  0
 10 11  1  0
 11 12  1  0
 12 13  1  0
 13 14  1  0
 14 15  1  0
 15 16  1  0
 16 17  1  0
 17 18  1  0
  2 19  1  0
 19 20  2  0
 20 21  1  0
 21 22  2  0
 22 23  1  0
 23 24  2  0
 24 25  1  0
 24 26  1  0
 26 27  2  0
 27 28  1  0
 28 29  2  0
 12  7  1  0
 18 13  1  0
 29 19  1  0
 28 22  1  0
  3 30  1  0
  4 31  1  0
  4 32  1  0
  8 33  1  0
  8 34  1  0
  9 35  1  0
  9 36  1  0
 10 37  1  0
 10 38  1  0
 11 39  1  0
 11 40  1  0
 12 41  1  1
 13 42  1  0
 14 43  1  0
 14 44  1  0
 15 45  1  0
 15 46  1  0
 16 47  1  0
 16 48  1  0
 17 49  1  0
 17 50  1  0
 18 51  1  0
 18 52  1  0
 20 53  1  0
 21 54  1  0
 23 55  1  0
 26 56  1  0
 27 57  1  0
M  END
