@<TRIPOS>MOLECULE
*****
 63 67 0 0 0
SMALL
GASTEIGER

@<TRIPOS>ATOM
      1 O         141.3170   72.1890  221.4660 O.2     1  UNL1       -0.2685
      2 C         140.3670   72.4130  222.2800 C.2     1  UNL1        0.2628
      3 N         139.4650   73.5070  222.1150 N.am    1  UNL1       -0.3015
      4 C         139.5720   74.4030  221.0230 C.3     1  UNL1        0.0887
      5 C         140.7580   75.2270  220.8720 C.2     1  UNL1        0.2334
      6 O         141.4330   75.3900  221.9780 O.2     1  UNL1       -0.2739
      7 N         141.2660   75.8690  219.7180 N.am    1  UNL1       -0.2861
      8 C         140.8930   75.7380  218.3180 C.3     1  UNL1        0.0416
      9 C         141.3010   77.1130  217.7280 C.3     1  UNL1        0.0731
     10 O         141.3780   77.0680  216.3510 O.3     1  UNL1       -0.3902
     11 C         142.6560   77.2270  218.4080 C.3     1  UNL1        0.0018
     12 C         142.3540   76.8570  219.8240 C.3     1  UNL1        0.1047
     13 C         141.9110   78.0950  220.5150 C.2     1  UNL1        0.2339
     14 O         141.7220   79.1100  219.8080 O.2     1  UNL1       -0.2738
     15 N         141.6910   78.1990  221.9010 N.am    1  UNL1       -0.3109
     16 C         141.2660   79.4610  222.4400 C.3     1  UNL1        0.0243
     17 C         139.9160   79.9750  221.9550 C.3     1  UNL1       -0.0276
     18 C         139.7570   80.5650  223.3430 C.3     1  UNL1       -0.0125
     19 C         138.3970   80.5520  223.8910 C.ar    1  UNL1       -0.0442
     20 C         138.0860   81.2970  225.0340 C.ar    1  UNL1       -0.0583
     21 C         136.7950   81.2670  225.5220 C.ar    1  UNL1       -0.0615
     22 C         135.8240   80.5130  224.8970 C.ar    1  UNL1       -0.0617
     23 C         136.1020   79.7610  223.7600 C.ar    1  UNL1       -0.0615
     24 C         137.3990   79.8110  223.2930 C.ar    1  UNL1       -0.0583
     25 C         140.6330   79.3990  223.8250 C.3     1  UNL1       -0.0276
     26 C         140.1830   71.5190  223.4390 C.ar    1  UNL1        0.1260
     27 C         139.5420   70.3160  223.3320 C.ar    1  UNL1       -0.0306
     28 C         139.3650   69.4670  224.4200 C.ar    1  UNL1       -0.0503
     29 C         139.8540   69.8460  225.6530 C.ar    1  UNL1        0.0031
     30 C         139.6870   69.0080  226.7490 C.ar    1  UNL1       -0.0173
     31 C         140.1870   69.4120  227.9710 C.ar    1  UNL1        0.1241
     32 F         140.0630   68.6540  229.0840 F       1  UNL1       -0.2055
     33 C         140.8380   70.6370  228.0720 C.ar    1  UNL1       -0.0244
     34 C         140.9860   71.4360  226.9800 C.ar    1  UNL1       -0.0330
     35 C         140.5000   71.0630  225.7450 C.ar    1  UNL1        0.0720
     36 N         140.6490   71.8580  224.6630 N.ar    1  UNL1       -0.2421
     37 H         138.6970   73.6410  222.8370 H       1  UNL1        0.1496
     38 H         139.4865   73.7991  220.1075 H       1  UNL1        0.0558
     39 H         138.7778   75.1379  221.2209 H       1  UNL1        0.0558
     40 H         141.4460   74.9190  217.8349 H       1  UNL1        0.0490
     41 H         139.8301   75.4967  218.1696 H       1  UNL1        0.0490
     42 H         140.6169   77.9574  217.8982 H       1  UNL1        0.0610
     43 H         142.2430   77.5150  216.1150 H       1  UNL1        0.2098
     44 H         143.3814   76.5298  217.9633 H       1  UNL1        0.0313
     45 H         143.1086   78.2246  218.3078 H       1  UNL1        0.0313
     46 H         143.2019   76.4399  220.3872 H       1  UNL1        0.0597
     47 H         141.8360   77.3730  222.5130 H       1  UNL1        0.1490
     48 H         142.2022   80.0027  222.2396 H       1  UNL1        0.0498
     49 H         139.1871   79.1926  221.6972 H       1  UNL1        0.0289
     50 H         139.8077   80.5781  221.0414 H       1  UNL1        0.0289
     51 H         139.9872   81.6204  223.5507 H       1  UNL1        0.0350
     52 H         138.8587   81.8976  225.5362 H       1  UNL1        0.0620
     53 H         136.5382   81.8504  226.4185 H       1  UNL1        0.0618
     54 H         134.8037   80.5060  225.3080 H       1  UNL1        0.0618
     55 H         135.3290   79.1588  223.2602 H       1  UNL1        0.0618
     56 H         137.6512   79.2282  222.3948 H       1  UNL1        0.0620
     57 H         140.0899   78.4689  224.0485 H       1  UNL1        0.0289
     58 H         141.2231   79.4406  224.7524 H       1  UNL1        0.0289
     59 H         139.1522   70.0083  222.3505 H       1  UNL1        0.0641
     60 H         138.8423   68.5068  224.2987 H       1  UNL1        0.0625
     61 H         139.1678   68.0438  226.6452 H       1  UNL1        0.0653
     62 H         141.2371   70.9632  229.0438 H       1  UNL1        0.0647
     63 H         141.5047   72.4003  227.0852 H       1  UNL1        0.0640
@<TRIPOS>BOND
     1     1     2    2
     2     2     3   am
     3     3     4    1
     4     4     5    1
     5     5     6    2
     6     5     7   am
     7     7     8    1
     8     8     9    1
     9     9    10    1
    10     9    11    1
    11    11    12    1
    12    12    13    1
    13    13    14    2
    14    13    15   am
    15    15    16    1
    16    16    17    1
    17    17    18    1
    18    18    19    1
    19    19    20   ar
    20    20    21   ar
    21    21    22   ar
    22    22    23   ar
    23    23    24   ar
    24    18    25    1
    25     2    26    1
    26    26    27   ar
    27    27    28   ar
    28    28    29   ar
    29    29    30   ar
    30    30    31   ar
    31    31    32    1
    32    31    33   ar
    33    33    34   ar
    34    34    35   ar
    35    35    36   ar
    36    12     7    1
    37    25    16    1
    38    36    26   ar
    39    24    19   ar
    40    35    29   ar
    41     3    37    1
    42     4    38    1
    43     4    39    1
    44     8    40    1
    45     8    41    1
    46     9    42    1
    47    10    43    1
    48    11    44    1
    49    11    45    1
    50    12    46    1
    51    15    47    1
    52    16    48    1
    53    17    49    1
    54    17    50    1
    55    18    51    1
    56    20    52    1
    57    21    53    1
    58    22    54    1
    59    23    55    1
    60    24    56    1
    61    25    57    1
    62    25    58    1
    63    27    59    1
    64    28    60    1
    65    30    61    1
    66    33    62    1
    67    34    63    1
