@<TRIPOS>MOLECULE
*****
 65 69 0 0 0
SMALL
GASTEIGER

@<TRIPOS>ATOM
      1 O         138.6280   70.5480  221.4120 O.2     1  UNL1       -0.2685
      2 C         138.8760   71.2860  222.4260 C.2     1  UNL1        0.2628
      3 N         138.7010   72.7190  222.2620 N.am    1  UNL1       -0.3015
      4 C         138.2710   73.1380  220.9790 C.3     1  UNL1        0.0887
      5 C         139.2160   73.4350  219.9320 C.2     1  UNL1        0.2334
      6 O         138.8080   73.0320  218.7430 O.2     1  UNL1       -0.2739
      7 N         140.4750   74.0590  219.9110 N.am    1  UNL1       -0.2886
      8 C         141.4060   74.4260  218.8790 C.3     1  UNL1        0.0156
      9 C         142.7510   74.0850  219.5860 C.3     1  UNL1       -0.0350
     10 C         142.5210   74.9220  220.8250 C.3     1  UNL1       -0.0243
     11 C         141.1120   74.4950  221.1670 C.3     1  UNL1        0.1024
     12 C         140.4750   75.5910  221.8780 C.2     1  UNL1        0.2361
     13 O         139.5400   75.1880  222.7010 O.2     1  UNL1       -0.2736
     14 N         140.6720   76.9670  221.8450 N.am    1  UNL1       -0.2999
     15 C         141.6320   77.7280  221.0950 C.3     1  UNL1        0.0153
     16 C         142.0920   78.9060  221.9440 C.3     1  UNL1       -0.0303
     17 C         140.9700   79.8660  222.1190 C.3     1  UNL1       -0.0130
     18 C         141.0110   81.0330  221.2310 C.ar    1  UNL1       -0.0442
     19 C         140.5890   82.2740  221.7330 C.ar    1  UNL1       -0.0583
     20 C         140.6050   83.4090  220.9450 C.ar    1  UNL1       -0.0615
     21 C         141.0320   83.3830  219.6350 C.ar    1  UNL1       -0.0617
     22 C         141.4460   82.1750  219.1320 C.ar    1  UNL1       -0.0615
     23 C         141.4300   81.0360  219.9260 C.ar    1  UNL1       -0.0583
     24 C         139.6190   79.1820  222.0720 C.3     1  UNL1       -0.0303
     25 C         139.7470   77.7800  222.6800 C.3     1  UNL1        0.0153
     26 C         139.3130   70.7350  223.7010 C.ar    1  UNL1        0.1260
     27 C         139.1860   69.3680  223.8680 C.ar    1  UNL1       -0.0306
     28 C         139.5910   68.8350  225.0870 C.ar    1  UNL1       -0.0504
     29 C         140.1000   69.6690  226.0700 C.ar    1  UNL1        0.0004
     30 C         140.5050   69.1400  227.2880 C.ar    1  UNL1       -0.0526
     31 C         141.0140   70.0060  228.2640 C.ar    1  UNL1       -0.0611
     32 C         141.1220   71.3520  228.0530 C.ar    1  UNL1       -0.0597
     33 C         140.7160   71.8850  226.8330 C.ar    1  UNL1       -0.0357
     34 C         140.2120   71.0320  225.8650 C.ar    1  UNL1        0.0718
     35 N         139.8120   71.5340  224.6740 N.ar    1  UNL1       -0.2421
     36 H         138.9250   73.2600  223.0980 H       1  UNL1        0.1496
     37 H         137.6197   72.3400  220.5931 H       1  UNL1        0.0558
     38 H         137.8274   74.1230  221.1862 H       1  UNL1        0.0558
     39 H         141.2613   73.8266  217.9680 H       1  UNL1        0.0465
     40 H         141.3198   75.4651  218.5285 H       1  UNL1        0.0465
     41 H         142.8476   73.0131  219.8135 H       1  UNL1        0.0281
     42 H         143.6718   74.2856  219.0186 H       1  UNL1        0.0281
     43 H         143.2307   74.6696  221.6266 H       1  UNL1        0.0288
     44 H         142.6581   76.0046  220.6868 H       1  UNL1        0.0288
     45 H         141.0403   73.6358  221.8502 H       1  UNL1        0.0597
     46 H         142.4945   77.0926  220.8453 H       1  UNL1        0.0465
     47 H         141.1754   78.0931  220.1632 H       1  UNL1        0.0465
     48 H         142.4183   78.5414  222.9292 H       1  UNL1        0.0286
     49 H         142.9295   79.4121  221.4416 H       1  UNL1        0.0286
     50 H         141.1167   80.2709  223.1312 H       1  UNL1        0.0350
     51 H         140.2389   82.3444  222.7734 H       1  UNL1        0.0620
     52 H         140.2665   84.3625  221.3766 H       1  UNL1        0.0618
     53 H         141.0407   84.2934  219.0176 H       1  UNL1        0.0618
     54 H         141.7936   82.1085  218.0905 H       1  UNL1        0.0618
     55 H         141.7710   80.0877  219.4851 H       1  UNL1        0.0620
     56 H         138.8885   79.7686  222.6485 H       1  UNL1        0.0286
     57 H         139.2780   79.1048  221.0291 H       1  UNL1        0.0286
     58 H         140.1459   77.8573  223.7022 H       1  UNL1        0.0465
     59 H         138.7582   77.2991  222.7112 H       1  UNL1        0.0465
     60 H         138.7813   68.7287  223.0696 H       1  UNL1        0.0641
     61 H         139.5075   67.7537  225.2707 H       1  UNL1        0.0625
     62 H         140.4275   68.0602  227.4830 H       1  UNL1        0.0624
     63 H         141.3367   69.5901  229.2299 H       1  UNL1        0.0618
     64 H         141.5255   72.0072  228.8391 H       1  UNL1        0.0618
     65 H         140.7941   72.9653  226.6408 H       1  UNL1        0.0639
@<TRIPOS>BOND
     1     1     2    2
     2     2     3   am
     3     3     4    1
     4     4     5    1
     5     5     6    2
     6     5     7   am
     7     7     8    1
     8     8     9    1
     9     9    10    1
    10    10    11    1
    11    11    12    1
    12    12    13    2
    13    12    14   am
    14    14    15    1
    15    15    16    1
    16    16    17    1
    17    17    18    1
    18    18    19   ar
    19    19    20   ar
    20    20    21   ar
    21    21    22   ar
    22    22    23   ar
    23    17    24    1
    24    24    25    1
    25     2    26    1
    26    26    27   ar
    27    27    28   ar
    28    28    29   ar
    29    29    30   ar
    30    30    31   ar
    31    31    32   ar
    32    32    33   ar
    33    33    34   ar
    34    34    35   ar
    35    11     7    1
    36    25    14    1
    37    35    26   ar
    38    23    18   ar
    39    34    29   ar
    40     3    36    1
    41     4    37    1
    42     4    38    1
    43     8    39    1
    44     8    40    1
    45     9    41    1
    46     9    42    1
    47    10    43    1
    48    10    44    1
    49    11    45    1
    50    15    46    1
    51    15    47    1
    52    16    48    1
    53    16    49    1
    54    17    50    1
    55    19    51    1
    56    20    52    1
    57    21    53    1
    58    22    54    1
    59    23    55    1
    60    24    56    1
    61    24    57    1
    62    25    58    1
    63    25    59    1
    64    27    60    1
    65    28    61    1
    66    30    62    1
    67    31    63    1
    68    32    64    1
    69    33    65    1
