
     RDKit          3D

 51 54  0  0  0  0  0  0  0  0999 V2000
  138.0100   71.3090  221.7140 O   0  0  0  0  0  0  0  0  0  0  0  0
  138.7680   71.7060  222.6360 C   0  0  0  0  0  0  0  0  0  0  0  0
  139.3340   73.0000  222.6780 N   0  0  0  0  0  0  0  0  0  0  0  0
  139.0660   73.9660  221.6370 C   0  0  0  0  0  0  0  0  0  0  0  0
  140.2390   74.8390  221.5240 C   0  0  0  0  0  0  0  0  0  0  0  0
  141.3630   74.4840  221.9590 O   0  0  0  0  0  0  0  0  0  0  0  0
  140.1830   76.1480  220.9140 N   0  0  0  0  0  0  0  0  0  0  0  0
  138.9820   76.4990  220.2400 C   0  0  0  0  0  0  0  0  0  0  0  0
  139.1760   77.4110  219.0610 C   0  0  0  0  0  0  0  0  0  0  0  0
  140.4190   78.2490  219.1650 C   0  0  0  0  0  0  0  0  0  0  0  0
  141.6230   77.5220  219.6390 C   0  0  0  0  0  0  0  0  0  0  0  0
  141.3580   77.0020  221.0380 C   0  0  1  0  0  0  0  0  0  0  0  0
  141.1920   78.0940  222.0040 C   0  0  0  0  0  0  0  0  0  0  0  0
  142.2170   79.0340  222.1460 C   0  0  0  0  0  0  0  0  0  0  0  0
  142.1030   80.0930  223.0390 C   0  0  0  0  0  0  0  0  0  0  0  0
  140.9840   80.2600  223.8170 C   0  0  0  0  0  0  0  0  0  0  0  0
  139.9680   79.3450  223.6890 C   0  0  0  0  0  0  0  0  0  0  0  0
  140.0870   78.2910  222.7970 C   0  0  0  0  0  0  0  0  0  0  0  0
  139.0860   70.7750  223.7310 C   0  0  0  0  0  0  0  0  0  0  0  0
  138.7390   69.4460  223.6880 C   0  0  0  0  0  0  0  0  0  0  0  0
  139.0280   68.5530  224.7080 C   0  0  0  0  0  0  0  0  0  0  0  0
  139.6990   69.0330  225.8160 C   0  0  0  0  0  0  0  0  0  0  0  0
  140.0370   68.2380  226.8850 C   0  0  0  0  0  0  0  0  0  0  0  0
  140.7040   68.6930  227.9960 C   0  0  0  0  0  0  0  0  0  0  0  0
  141.0470   67.9430  229.0500 F   0  0  0  0  0  0  0  0  0  0  0  0
  141.0510   70.0390  228.0270 C   0  0  0  0  0  0  0  0  0  0  0  0
  140.7100   70.8400  226.9480 C   0  0  0  0  0  0  0  0  0  0  0  0
  140.0380   70.3550  225.8450 C   0  0  0  0  0  0  0  0  0  0  0  0
  139.7450   71.1960  224.8440 N   0  0  0  0  0  0  0  0  0  0  0  0
  139.9660   73.2750  223.4820 H   0  0  0  0  0  0  0  0  0  0  0  0
  138.8910   73.4486  220.6822 H   0  0  0  0  0  0  0  0  0  0  0  0
  138.1699   74.5555  221.8808 H   0  0  0  0  0  0  0  0  0  0  0  0
  138.5039   75.5742  219.8847 H   0  0  0  0  0  0  0  0  0  0  0  0
  138.3644   77.0496  220.9648 H   0  0  0  0  0  0  0  0  0  0  0  0
  139.2421   76.7974  218.1504 H   0  0  0  0  0  0  0  0  0  0  0  0
  138.3175   78.0981  219.0319 H   0  0  0  0  0  0  0  0  0  0  0  0
  140.6382   78.6608  218.1688 H   0  0  0  0  0  0  0  0  0  0  0  0
  140.2084   79.0225  219.9182 H   0  0  0  0  0  0  0  0  0  0  0  0
  141.8356   76.6791  218.9650 H   0  0  0  0  0  0  0  0  0  0  0  0
  142.4897   78.1993  219.6491 H   0  0  0  0  0  0  0  0  0  0  0  0
  142.2080   76.4293  221.4373 H   0  0  0  0  0  0  0  0  0  0  0  0
  143.1298   78.9338  221.5404 H   0  0  0  0  0  0  0  0  0  0  0  0
  142.9289   80.8145  223.1245 H   0  0  0  0  0  0  0  0  0  0  0  0
  140.9038   81.1011  224.5214 H   0  0  0  0  0  0  0  0  0  0  0  0
  139.0568   79.4490  224.2964 H   0  0  0  0  0  0  0  0  0  0  0  0
  139.2548   77.5758  222.7198 H   0  0  0  0  0  0  0  0  0  0  0  0
  138.2060   69.0727  222.8011 H   0  0  0  0  0  0  0  0  0  0  0  0
  138.7324   67.4958  224.6374 H   0  0  0  0  0  0  0  0  0  0  0  0
  139.7569   67.1749  226.8486 H   0  0  0  0  0  0  0  0  0  0  0  0
  141.5858   70.4603  228.8910 H   0  0  0  0  0  0  0  0  0  0  0  0
  140.9862   71.9045  226.9723 H   0  0  0  0  0  0  0  0  0  0  0  0
  1  2  2  0
  2  3  1  0
  3  4  1  0
  4  5  1  0
  5  6  2  0
  5  7  1  0
  7  8  1  0
  8  9  1  0
  9 10  1  0
 10 11  1  0
 11 12  1  0
 12 13  1  0
 13 14  2  0
 14 15  1  0
 15 16  2  0
 16 17  1  0
 17 18  2  0
  2 19  1  0
 19 20  2  0
 20 21  1  0
 21 22  2  0
 22 23  1  0
 23 24  2  0
 24 25  1  0
 24 26  1  0
 26 27  2  0
 27 28  1  0
 28 29  2  0
 12  7  1  0
 18 13  1  0
 29 19  1  0
 28 22  1  0
  3 30  1  0
  4 31  1  0
  4 32  1  0
  8 33  1  0
  8 34  1  0
  9 35  1  0
  9 36  1  0
 10 37  1  0
 10 38  1  0
 11 39  1  0
 11 40  1  0
 12 41  1  1
 14 42  1  0
 15 43  1  0
 16 44  1  0
 17 45  1  0
 18 46  1  0
 20 47  1  0
 21 48  1  0
 23 49  1  0
 26 50  1  0
 27 51  1  0
M  END
