@<TRIPOS>MOLECULE
*****
 55 59 0 0 0
SMALL
GASTEIGER

@<TRIPOS>ATOM
      1 C         141.1330   71.3320  228.3370 C.ar    1  UNL1       -0.0617
      2 C         141.4760   72.1650  227.2700 C.ar    1  UNL1       -0.0615
      3 C         141.0490   71.8700  225.9840 C.ar    1  UNL1       -0.0585
      4 C         140.2910   70.7780  225.7050 C.ar    1  UNL1       -0.0459
      5 C         139.7850   70.3940  224.3710 C.3     1  UNL1       -0.0121
      6 C         139.2550   71.5500  223.5750 C.3     1  UNL1        0.0158
      7 N         139.6760   71.4490  222.2180 N.pl3   1  UNL1       -0.3130
      8 C         140.7010   72.3600  221.7770 C.ar    1  UNL1        0.2211
      9 N         141.9280   71.9050  221.5330 N.ar    1  UNL1       -0.1811
     10 C         142.9600   72.6980  221.1130 C.ar    1  UNL1        0.2213
     11 N         144.2530   72.1680  220.8710 N.pl3   1  UNL1       -0.3105
     12 C         145.3860   72.9100  220.4260 C.3     1  UNL1        0.0234
     13 C         146.3320   73.2630  221.5780 C.3     1  UNL1       -0.0328
     14 C         145.6760   74.3020  220.7530 C.3     1  UNL1       -0.0328
     15 N         142.6460   74.0010  220.9560 N.ar    1  UNL1       -0.1809
     16 C         141.4440   74.5220  221.1810 C.ar    1  UNL1        0.2240
     17 N         141.1190   75.9000  221.0190 N.pl3   1  UNL1       -0.2948
     18 C         141.3640   76.5990  219.7810 C.3     1  UNL1        0.0192
     19 C         142.0040   77.9430  219.9480 C.3     1  UNL1       -0.0115
     20 C         141.7480   78.5740  221.2540 C.ar    1  UNL1       -0.0412
     21 C         142.2370   79.8490  221.4550 C.ar    1  UNL1       -0.0582
     22 C         142.0270   80.4850  222.6580 C.ar    1  UNL1       -0.0615
     23 C         141.3330   79.9070  223.7080 C.ar    1  UNL1       -0.0614
     24 C         140.8360   78.6150  223.5050 C.ar    1  UNL1       -0.0568
     25 C         141.0610   77.9940  222.2880 C.ar    1  UNL1       -0.0269
     26 C         140.5270   76.6370  222.1060 C.3     1  UNL1        0.0402
     27 N         140.4720   73.6700  221.5970 N.ar    1  UNL1       -0.1809
     28 C         139.9460   69.9450  226.7670 C.ar    1  UNL1       -0.0585
     29 C         140.3670   70.2270  228.0630 C.ar    1  UNL1       -0.0615
     30 H         141.4654   71.5540  229.3618 H       1  UNL1        0.0618
     31 H         142.0886   73.0606  227.4507 H       1  UNL1        0.0618
     32 H         141.3338   72.5432  225.1620 H       1  UNL1        0.0620
     33 H         140.6080   69.9312  223.8067 H       1  UNL1        0.0328
     34 H         138.9463   69.7005  224.5311 H       1  UNL1        0.0328
     35 H         138.1558   71.5450  223.6154 H       1  UNL1        0.0465
     36 H         139.6431   72.4867  224.0017 H       1  UNL1        0.0465
     37 H         139.3280   70.7890  221.4980 H       1  UNL1        0.1489
     38 H         144.3540   71.1240  221.0450 H       1  UNL1        0.1492
     39 H         145.3697   72.4061  219.4483 H       1  UNL1        0.0498
     40 H         146.0212   73.1034  222.6210 H       1  UNL1        0.0284
     41 H         147.3662   73.0116  221.8561 H       1  UNL1        0.0284
     42 H         144.8892   74.9297  221.1968 H       1  UNL1        0.0284
     43 H         146.0475   75.1587  220.1715 H       1  UNL1        0.0284
     44 H         142.0253   75.9774  219.1595 H       1  UNL1        0.0468
     45 H         140.3815   76.7734  219.3180 H       1  UNL1        0.0468
     46 H         143.0911   77.8249  219.8288 H       1  UNL1        0.0328
     47 H         141.5615   78.6014  219.1860 H       1  UNL1        0.0328
     48 H         142.7944   80.3569  220.6542 H       1  UNL1        0.0620
     49 H         142.4294   81.5000  222.7914 H       1  UNL1        0.0618
     50 H         141.1795   80.4395  224.6582 H       1  UNL1        0.0618
     51 H         140.2754   78.1007  224.2995 H       1  UNL1        0.0621
     52 H         140.6975   76.0738  223.0354 H       1  UNL1        0.0514
     53 H         139.4610   76.7520  221.8604 H       1  UNL1        0.0514
     54 H         139.3322   69.0519  226.5784 H       1  UNL1        0.0620
     55 H         140.0805   69.5518  228.8828 H       1  UNL1        0.0618
@<TRIPOS>BOND
     1     1     2   ar
     2     2     3   ar
     3     3     4   ar
     4     4     5    1
     5     5     6    1
     6     6     7    1
     7     7     8    1
     8     8     9   ar
     9     9    10   ar
    10    10    11    1
    11    11    12    1
    12    12    13    1
    13    13    14    1
    14    10    15   ar
    15    15    16   ar
    16    16    17    1
    17    17    18    1
    18    18    19    1
    19    19    20    1
    20    20    21   ar
    21    21    22   ar
    22    22    23   ar
    23    23    24   ar
    24    24    25   ar
    25    25    26    1
    26    16    27   ar
    27     4    28   ar
    28    28    29   ar
    29    29     1   ar
    30    27     8   ar
    31    14    12    1
    32    26    17    1
    33    25    20   ar
    34     1    30    1
    35     2    31    1
    36     3    32    1
    37     5    33    1
    38     5    34    1
    39     6    35    1
    40     6    36    1
    41     7    37    1
    42    11    38    1
    43    12    39    1
    44    13    40    1
    45    13    41    1
    46    14    42    1
    47    14    43    1
    48    18    44    1
    49    18    45    1
    50    19    46    1
    51    19    47    1
    52    21    48    1
    53    22    49    1
    54    23    50    1
    55    24    51    1
    56    26    52    1
    57    26    53    1
    58    28    54    1
    59    29    55    1
