@<TRIPOS>MOLECULE
*****
 79 85 0 0 0
SMALL
GASTEIGER

@<TRIPOS>ATOM
      1 C         140.9690   68.7380  228.7130 C.ar    1  UNL1       -0.0617
      2 C         139.7600   69.4000  228.4920 C.ar    1  UNL1       -0.0615
      3 C         139.0940   69.2240  227.2860 C.ar    1  UNL1       -0.0573
      4 C         139.5760   68.4220  226.2930 C.ar    1  UNL1       -0.0334
      5 C         138.9250   68.1890  224.9930 C.3     1  UNL1        0.0240
      6 N         138.6200   69.4430  224.3380 N.3     1  UNL1       -0.2981
      7 C         139.4060   70.5370  224.8250 C.3     1  UNL1       -0.0002
      8 C         140.3980   71.0810  223.8500 C.3     1  UNL1       -0.0316
      9 C         139.7670   71.4600  222.5450 C.3     1  UNL1        0.0046
     10 C         138.6020   70.5870  222.1790 C.3     1  UNL1       -0.0316
     11 C         138.7460   69.2590  222.9040 C.3     1  UNL1       -0.0002
     12 C         140.8340   71.5860  221.4820 C.3     1  UNL1        0.0220
     13 N         140.6700   73.0380  221.4950 N.pl3   1  UNL1       -0.2983
     14 C         141.4100   74.1020  220.9080 C.ar    1  UNL1        0.2237
     15 N         142.3890   73.8710  219.9840 N.ar    1  UNL1       -0.1809
     16 C         143.0850   74.8680  219.4320 C.ar    1  UNL1        0.2211
     17 N         144.1020   74.6110  218.4710 N.pl3   1  UNL1       -0.3130
     18 C         144.5220   73.2540  218.1790 C.3     1  UNL1        0.0158
     19 C         145.5090   72.7430  219.2050 C.3     1  UNL1       -0.0120
     20 C         145.2480   71.2950  219.4060 C.ar    1  UNL1       -0.0430
     21 C         144.0710   70.8090  219.9120 C.ar    1  UNL1       -0.0404
     22 C         143.9460   69.4400  220.0530 C.ar    1  UNL1        0.0278
     23 N         144.9320   68.5800  219.7130 N.ar    1  UNL1       -0.2632
     24 C         146.0760   69.0650  219.2200 C.ar    1  UNL1        0.0278
     25 C         146.2660   70.4240  219.0540 C.ar    1  UNL1       -0.0404
     26 N         142.8180   76.1350  219.7930 N.ar    1  UNL1       -0.1809
     27 C         141.8560   76.4380  220.7080 C.ar    1  UNL1        0.2240
     28 N         141.5740   77.7780  221.0880 N.pl3   1  UNL1       -0.2948
     29 C         141.0460   78.0890  222.4040 C.3     1  UNL1        0.0192
     30 C         141.8910   79.2200  222.9550 C.3     1  UNL1       -0.0115
     31 C         141.6740   80.3870  222.0600 C.ar    1  UNL1       -0.0412
     32 C         141.5010   81.6740  222.5250 C.ar    1  UNL1       -0.0582
     33 C         141.3030   82.7250  221.6620 C.ar    1  UNL1       -0.0615
     34 C         141.2780   82.4830  220.3020 C.ar    1  UNL1       -0.0614
     35 C         141.4480   81.2060  219.7970 C.ar    1  UNL1       -0.0568
     36 C         141.6450   80.1750  220.6970 C.ar    1  UNL1       -0.0269
     37 C         141.8250   78.8180  220.1380 C.3     1  UNL1        0.0402
     38 N         141.1800   75.3860  221.2370 N.ar    1  UNL1       -0.1807
     39 C         139.5040   72.9250  222.3140 C.3     1  UNL1        0.0220
     40 C         140.7870   67.7710  226.5390 C.ar    1  UNL1       -0.0573
     41 C         141.4780   67.9170  227.7170 C.ar    1  UNL1       -0.0615
     42 H         141.5099   68.8653  229.6623 H       1  UNL1        0.0618
     43 H         139.3379   70.0562  229.2674 H       1  UNL1        0.0618
     44 H         138.1420   69.7511  227.1253 H       1  UNL1        0.0621
     45 H         139.5995   67.6023  224.3521 H       1  UNL1        0.0476
     46 H         137.9855   67.6425  225.1625 H       1  UNL1        0.0476
     47 H         138.7217   71.3509  225.1064 H       1  UNL1        0.0427
     48 H         139.9884   70.1457  225.6721 H       1  UNL1        0.0427
     49 H         140.8697   71.9736  224.2868 H       1  UNL1        0.0284
     50 H         141.1377   70.2922  223.6485 H       1  UNL1        0.0284
     51 H         137.6637   71.0748  222.4816 H       1  UNL1        0.0284
     52 H         138.5826   70.4219  221.0916 H       1  UNL1        0.0284
     53 H         137.9607   68.5711  222.5575 H       1  UNL1        0.0427
     54 H         139.7405   68.8424  222.6862 H       1  UNL1        0.0427
     55 H         141.8293   71.2430  221.8010 H       1  UNL1        0.0470
     56 H         140.7526   71.0236  220.5401 H       1  UNL1        0.0470
     57 H         144.5590   75.3990  217.9630 H       1  UNL1        0.1489
     58 H         143.6380   72.5994  218.1773 H       1  UNL1        0.0465
     59 H         145.0155   73.2509  217.1959 H       1  UNL1        0.0465
     60 H         146.5366   72.8908  218.8414 H       1  UNL1        0.0328
     61 H         145.3941   73.2888  220.1531 H       1  UNL1        0.0328
     62 H         143.2524   71.4864  220.1967 H       1  UNL1        0.0635
     63 H         143.0072   69.0341  220.4578 H       1  UNL1        0.0829
     64 H         146.8813   68.3695  218.9412 H       1  UNL1        0.0829
     65 H         147.2131   70.8088  218.6478 H       1  UNL1        0.0635
     66 H         139.9949   78.4039  222.3263 H       1  UNL1        0.0468
     67 H         141.0828   77.2094  223.0636 H       1  UNL1        0.0468
     68 H         141.5763   79.4643  223.9803 H       1  UNL1        0.0328
     69 H         142.9541   78.9399  222.9910 H       1  UNL1        0.0328
     70 H         141.5220   81.8629  223.6084 H       1  UNL1        0.0620
     71 H         141.1662   83.7456  222.0490 H       1  UNL1        0.0618
     72 H         141.1200   83.3213  219.6075 H       1  UNL1        0.0618
     73 H         141.4271   81.0170  218.7136 H       1  UNL1        0.0621
     74 H         141.1322   78.6937  219.2927 H       1  UNL1        0.0514
     75 H         142.8766   78.7297  219.8277 H       1  UNL1        0.0514
     76 H         139.5440   73.5331  223.2298 H       1  UNL1        0.0470
     77 H         138.5286   73.2487  221.9217 H       1  UNL1        0.0470
     78 H         141.2033   67.1162  225.7593 H       1  UNL1        0.0621
     79 H         142.4293   67.3862  227.8699 H       1  UNL1        0.0618
@<TRIPOS>BOND
     1     1     2   ar
     2     2     3   ar
     3     3     4   ar
     4     4     5    1
     5     5     6    1
     6     6     7    1
     7     7     8    1
     8     8     9    1
     9     9    10    1
    10    10    11    1
    11     9    12    1
    12    12    13    1
    13    13    14    1
    14    14    15   ar
    15    15    16   ar
    16    16    17    1
    17    17    18    1
    18    18    19    1
    19    19    20    1
    20    20    21   ar
    21    21    22   ar
    22    22    23   ar
    23    23    24   ar
    24    24    25   ar
    25    16    26   ar
    26    26    27   ar
    27    27    28    1
    28    28    29    1
    29    29    30    1
    30    30    31    1
    31    31    32   ar
    32    32    33   ar
    33    33    34   ar
    34    34    35   ar
    35    35    36   ar
    36    36    37    1
    37    27    38   ar
    38    13    39    1
    39     4    40   ar
    40    40    41   ar
    41    41     1   ar
    42    11     6    1
    43    38    14   ar
    44    39     9    1
    45    25    20   ar
    46    37    28    1
    47    36    31   ar
    48     1    42    1
    49     2    43    1
    50     3    44    1
    51     5    45    1
    52     5    46    1
    53     7    47    1
    54     7    48    1
    55     8    49    1
    56     8    50    1
    57    10    51    1
    58    10    52    1
    59    11    53    1
    60    11    54    1
    61    12    55    1
    62    12    56    1
    63    17    57    1
    64    18    58    1
    65    18    59    1
    66    19    60    1
    67    19    61    1
    68    21    62    1
    69    22    63    1
    70    24    64    1
    71    25    65    1
    72    29    66    1
    73    29    67    1
    74    30    68    1
    75    30    69    1
    76    32    70    1
    77    33    71    1
    78    34    72    1
    79    35    73    1
    80    37    74    1
    81    37    75    1
    82    39    76    1
    83    39    77    1
    84    40    78    1
    85    41    79    1
