
     RDKit          3D

 70 76  0  0  1  0  0  0  0  0999 V2000
  140.5630   76.1620  219.2890 O   0  0  0  0  0  0  0  0  0  0  0  0
  140.3200   76.0680  220.5300 C   0  0  0  0  0  0  0  0  0  0  0  0
  140.6010   77.2580  221.3160 C   0  0  0  0  0  0  0  0  0  0  0  0
  139.6740   77.9980  222.0340 C   0  0  0  0  0  0  0  0  0  0  0  0
  140.3250   79.0150  222.6440 C   0  0  0  0  0  0  0  0  0  0  0  0
  139.9140   80.0460  223.4480 C   0  0  0  0  0  0  0  0  0  0  0  0
  138.5690   80.3220  223.8740 C   0  0  0  0  0  0  0  0  0  0  0  0
  137.4140   79.7720  223.3930 C   0  0  0  0  0  0  0  0  0  0  0  0
  136.1740   80.1100  223.9540 C   0  0  0  0  0  0  0  0  0  0  0  0
  136.0560   80.9920  224.9970 C   0  0  0  0  0  0  0  0  0  0  0  0
  137.2570   81.5340  225.4690 C   0  0  0  0  0  0  0  0  0  0  0  0
  138.4240   81.1920  224.9100 N   0  0  0  0  0  0  0  0  0  0  0  0
  140.9040   80.9280  223.8630 C   0  0  0  0  0  0  0  0  0  0  0  0
  142.2270   80.7960  223.5050 C   0  0  0  0  0  0  0  0  0  0  0  0
  142.6390   79.7580  222.7000 C   0  0  0  0  0  0  0  0  0  0  0  0
  141.6670   78.8740  222.2790 C   0  0  0  0  0  0  0  0  0  0  0  0
  141.8150   77.8070  221.4770 N   0  0  0  0  0  0  0  0  0  0  0  0
  139.8000   74.8480  221.0830 N   0  0  0  0  0  0  0  0  0  0  0  0
  140.5850   73.6370  221.1100 C   0  0  0  0  0  0  0  0  0  0  0  0
  139.7470   72.6530  221.8550 C   0  0  1  0  0  0  0  0  0  0  0  0
  139.5440   71.3690  221.0830 C   0  0  0  0  0  0  0  0  0  0  0  0
  139.6310   70.3400  222.1680 C   0  0  0  0  0  0  0  0  0  0  0  0
  140.3000   70.8520  223.2990 N   0  0  0  0  0  0  0  0  0  0  0  0
  139.8310   70.5330  224.5830 C   0  0  0  0  0  0  0  0  0  0  0  0
  140.7980   70.3050  225.6830 C   0  0  2  0  0  0  0  0  0  0  0  0
  140.3550   69.3340  226.7330 C   0  0  0  0  0  0  0  0  0  0  0  0
  139.5720   69.9300  227.8650 C   0  0  0  0  0  0  0  0  0  0  0  0
  140.0770   71.2360  228.3600 C   0  0  0  0  0  0  0  0  0  0  0  0
  140.7860   72.0460  227.4510 N   0  0  0  0  0  0  0  0  0  0  0  0
  141.4130   71.4790  226.3320 C   0  0  0  0  0  0  0  0  0  0  0  0
  140.4650   72.2560  223.0980 C   0  0  0  0  0  0  0  0  0  0  0  0
  138.4860   73.3620  222.0990 C   0  0  0  0  0  0  0  0  0  0  0  0
  137.3260   72.8880  222.7070 C   0  0  0  0  0  0  0  0  0  0  0  0
  136.2040   73.6710  222.8730 C   0  0  0  0  0  0  0  0  0  0  0  0
  136.2350   74.9690  222.4190 C   0  0  0  0  0  0  0  0  0  0  0  0
  137.3850   75.4180  221.8220 C   0  0  0  0  0  0  0  0  0  0  0  0
  138.5160   74.6580  221.6450 C   0  0  0  0  0  0  0  0  0  0  0  0
  138.5950   77.7934  222.0968 H   0  0  0  0  0  0  0  0  0  0  0  0
  137.4575   79.0574  222.5579 H   0  0  0  0  0  0  0  0  0  0  0  0
  135.2631   79.6509  223.5423 H   0  0  0  0  0  0  0  0  0  0  0  0
  135.0817   81.2562  225.4340 H   0  0  0  0  0  0  0  0  0  0  0  0
  137.2416   82.2471  226.3064 H   0  0  0  0  0  0  0  0  0  0  0  0
  140.6174   81.7716  224.5081 H   0  0  0  0  0  0  0  0  0  0  0  0
  142.9635   81.5287  223.8665 H   0  0  0  0  0  0  0  0  0  0  0  0
  143.6925   79.6391  222.4066 H   0  0  0  0  0  0  0  0  0  0  0  0
  142.7000   77.4440  221.0420 H   0  0  0  0  0  0  0  0  0  0  0  0
  140.7832   73.2813  220.0881 H   0  0  0  0  0  0  0  0  0  0  0  0
  141.5654   73.7895  221.5849 H   0  0  0  0  0  0  0  0  0  0  0  0
  138.5606   71.3493  220.5906 H   0  0  0  0  0  0  0  0  0  0  0  0
  140.2691   71.2198  220.2694 H   0  0  0  0  0  0  0  0  0  0  0  0
  138.6142   70.0369  222.4584 H   0  0  0  0  0  0  0  0  0  0  0  0
  140.1971   69.4770  221.7874 H   0  0  0  0  0  0  0  0  0  0  0  0
  139.1782   71.3602  224.8986 H   0  0  0  0  0  0  0  0  0  0  0  0
  139.3617   69.5475  224.4465 H   0  0  0  0  0  0  0  0  0  0  0  0
  141.5995   69.8514  225.0814 H   0  0  0  0  0  0  0  0  0  0  0  0
  139.7265   68.5723  226.2485 H   0  0  0  0  0  0  0  0  0  0  0  0
  141.2743   68.9266  227.1791 H   0  0  0  0  0  0  0  0  0  0  0  0
  138.5355   70.0718  227.5252 H   0  0  0  0  0  0  0  0  0  0  0  0
  139.6644   69.2267  228.7057 H   0  0  0  0  0  0  0  0  0  0  0  0
  139.2087   71.8143  228.7087 H   0  0  0  0  0  0  0  0  0  0  0  0
  140.8119   70.9764  229.1362 H   0  0  0  0  0  0  0  0  0  0  0  0
  140.4100   72.9930  227.3060 H   0  0  0  0  0  0  0  0  0  0  0  0
  141.4845   72.2680  225.5689 H   0  0  0  0  0  0  0  0  0  0  0  0
  142.3621   71.0916  226.7308 H   0  0  0  0  0  0  0  0  0  0  0  0
  140.0480   72.8034  223.9562 H   0  0  0  0  0  0  0  0  0  0  0  0
  141.5344   72.4959  223.0035 H   0  0  0  0  0  0  0  0  0  0  0  0
  137.3046   71.8493  223.0684 H   0  0  0  0  0  0  0  0  0  0  0  0
  135.3033   73.2667  223.3580 H   0  0  0  0  0  0  0  0  0  0  0  0
  135.3618   75.6284  222.5317 H   0  0  0  0  0  0  0  0  0  0  0  0
  137.4033   76.4567  221.4604 H   0  0  0  0  0  0  0  0  0  0  0  0
  1  2  2  0
  2  3  1  0
  3  4  2  0
  4  5  1  0
  5  6  2  0
  6  7  1  0
  7  8  2  0
  8  9  1  0
  9 10  2  0
 10 11  1  0
 11 12  2  0
  6 13  1  0
 13 14  2  0
 14 15  1  0
 15 16  2  0
 16 17  1  0
  2 18  1  0
 18 19  1  0
 20 19  1  6
 20 21  1  0
 21 22  1  0
 22 23  1  0
 23 24  1  0
 24 25  1  0
 25 26  1  0
 26 27  1  0
 27 28  1  0
 28 29  1  0
 29 30  1  0
 23 31  1  0
 20 32  1  0
 32 33  2  0
 33 34  1  0
 34 35  2  0
 35 36  1  0
 36 37  2  0
 17  3  1  0
 37 18  1  0
 16  5  1  0
 31 20  1  0
 37 32  1  0
 12  7  1  0
 30 25  1  0
  4 38  1  0
  8 39  1  0
  9 40  1  0
 10 41  1  0
 11 42  1  0
 13 43  1  0
 14 44  1  0
 15 45  1  0
 17 46  1  0
 19 47  1  0
 19 48  1  0
 21 49  1  0
 21 50  1  0
 22 51  1  0
 22 52  1  0
 24 53  1  0
 24 54  1  0
 25 55  1  6
 26 56  1  0
 26 57  1  0
 27 58  1  0
 27 59  1  0
 28 60  1  0
 28 61  1  0
 29 62  1  0
 30 63  1  0
 30 64  1  0
 31 65  1  0
 31 66  1  0
 33 67  1  0
 34 68  1  0
 35 69  1  0
 36 70  1  0
M  END
>  <smiles>  (1) 
O=C(c1cc2c(-c3ccccn3)cccc2[nH]1)N1C[C@]2(CCN(CC3CCCNC3)C2)c2ccccc21

>  <score_type>  (1) 
oracle

>  <origin>  (1) 
autodockgpu

>  <m_score__min__energy>  (1) 
-10.640000000000001

>  <m_primary>  (1) 
energy

>  <rmsd>  (1) 
10.139081069089448

>  <m_score__min__rmsd>  (1) 
10.139081069089448

>  <meeko>  (1) 
{"free_energy": -9.84, "intermolecular_energy": -11.33, "internal_energy": -1.68, "cluster_size": 7, "cluster_id": 2, "rank_in_cluster": 1}

>  <energy>  (1) 
-10.64

>  <cluster_rmsd>  (1) 
0.0

>  <cluster>  (1) 
1

$$$$

     RDKit          3D

 70 76  0  0  1  0  0  0  0  0999 V2000
  139.5240   74.2380  222.1370 O   0  0  0  0  0  0  0  0  0  0  0  0
  140.3760   73.3180  221.9460 C   0  0  0  0  0  0  0  0  0  0  0  0
  139.9850   71.9950  222.4040 C   0  0  0  0  0  0  0  0  0  0  0  0
  140.1920   71.4790  223.6740 C   0  0  0  0  0  0  0  0  0  0  0  0
  139.6730   70.2300  223.7140 C   0  0  0  0  0  0  0  0  0  0  0  0
  139.6120   69.2680  224.6870 C   0  0  0  0  0  0  0  0  0  0  0  0
  140.1350   69.3620  226.0240 C   0  0  0  0  0  0  0  0  0  0  0  0
  140.3620   70.4960  226.7520 C   0  0  0  0  0  0  0  0  0  0  0  0
  140.8290   70.4160  228.0710 C   0  0  0  0  0  0  0  0  0  0  0  0
  141.0770   69.2190  228.6920 C   0  0  0  0  0  0  0  0  0  0  0  0
  140.8320   68.0760  227.9200 C   0  0  0  0  0  0  0  0  0  0  0  0
  140.3870   68.1870  226.6630 N   0  0  0  0  0  0  0  0  0  0  0  0
  139.0090   68.0700  224.3250 C   0  0  0  0  0  0  0  0  0  0  0  0
  138.4920   67.8380  223.0700 C   0  0  0  0  0  0  0  0  0  0  0  0
  138.5500   68.8070  222.0940 C   0  0  0  0  0  0  0  0  0  0  0  0
  139.1490   70.0020  222.4380 C   0  0  0  0  0  0  0  0  0  0  0  0
  139.3450   71.0790  221.6610 N   0  0  0  0  0  0  0  0  0  0  0  0
  141.6330   73.6070  221.3120 N   0  0  0  0  0  0  0  0  0  0  0  0
  142.6770   72.6140  221.2210 C   0  0  0  0  0  0  0  0  0  0  0  0
  143.7480   73.2580  220.4070 C   0  0  1  0  0  0  0  0  0  0  0  0
  145.0940   73.2240  221.0960 C   0  0  0  0  0  0  0  0  0  0  0  0
  146.0190   72.9500  219.9510 C   0  0  0  0  0  0  0  0  0  0  0  0
  145.3250   72.3840  218.8620 N   0  0  0  0  0  0  0  0  0  0  0  0
  145.6430   72.7850  217.5550 C   0  0  0  0  0  0  0  0  0  0  0  0
  144.5740   73.2770  216.6550 C   0  0  2  0  0  0  0  0  0  0  0  0
  144.8000   73.0270  215.1970 C   0  0  0  0  0  0  0  0  0  0  0  0
  145.5670   74.0960  214.4760 C   0  0  0  0  0  0  0  0  0  0  0  0
  145.2050   75.4870  214.8480 C   0  0  0  0  0  0  0  0  0  0  0  0
  144.6840   75.7010  216.1400 N   0  0  0  0  0  0  0  0  0  0  0  0
  144.0740   74.6520  216.8430 C   0  0  0  0  0  0  0  0  0  0  0  0
  143.9300   72.4780  219.1500 C   0  0  0  0  0  0  0  0  0  0  0  0
  143.2660   74.6260  220.1910 C   0  0  0  0  0  0  0  0  0  0  0  0
  143.9040   75.6800  219.5400 C   0  0  0  0  0  0  0  0  0  0  0  0
  143.3300   76.9260  219.4080 C   0  0  0  0  0  0  0  0  0  0  0  0
  142.0780   77.1320  219.9420 C   0  0  0  0  0  0  0  0  0  0  0  0
  141.4670   76.0840  220.5800 C   0  0  0  0  0  0  0  0  0  0  0  0
  142.0180   74.8340  220.7240 C   0  0  0  0  0  0  0  0  0  0  0  0
  140.6922   71.9961  224.5061 H   0  0  0  0  0  0  0  0  0  0  0  0
  140.1765   71.4808  226.2985 H   0  0  0  0  0  0  0  0  0  0  0  0
  141.0030   71.3480  228.6287 H   0  0  0  0  0  0  0  0  0  0  0  0
  141.4439   69.1601  229.7273 H   0  0  0  0  0  0  0  0  0  0  0  0
  141.0069   67.0790  228.3507 H   0  0  0  0  0  0  0  0  0  0  0  0
  138.9414   67.2692  225.0761 H   0  0  0  0  0  0  0  0  0  0  0  0
  138.0271   66.8668  222.8447 H   0  0  0  0  0  0  0  0  0  0  0  0
  138.1387   68.6371  221.0880 H   0  0  0  0  0  0  0  0  0  0  0  0
  139.0640   71.2120  220.6570 H   0  0  0  0  0  0  0  0  0  0  0  0
  143.0538   72.3555  222.2216 H   0  0  0  0  0  0  0  0  0  0  0  0
  142.3196   71.6771  220.7689 H   0  0  0  0  0  0  0  0  0  0  0  0
  145.3234   74.1877  221.5741 H   0  0  0  0  0  0  0  0  0  0  0  0
  145.1597   72.4846  221.9078 H   0  0  0  0  0  0  0  0  0  0  0  0
  146.4827   73.8944  219.6298 H   0  0  0  0  0  0  0  0  0  0  0  0
  146.7866   72.2364  220.2850 H   0  0  0  0  0  0  0  0  0  0  0  0
  146.3838   73.5935  217.6413 H   0  0  0  0  0  0  0  0  0  0  0  0
  145.9711   71.8514  217.0746 H   0  0  0  0  0  0  0  0  0  0  0  0
  143.7673   72.6225  217.0168 H   0  0  0  0  0  0  0  0  0  0  0  0
  145.3555   72.0829  215.0959 H   0  0  0  0  0  0  0  0  0  0  0  0
  143.8026   73.0024  214.7338 H   0  0  0  0  0  0  0  0  0  0  0  0
  146.6363   73.9526  214.6907 H   0  0  0  0  0  0  0  0  0  0  0  0
  145.3173   73.9879  213.4102 H   0  0  0  0  0  0  0  0  0  0  0  0
  146.1133   76.1002  214.7534 H   0  0  0  0  0  0  0  0  0  0  0  0
  144.3835   75.7541  214.1671 H   0  0  0  0  0  0  0  0  0  0  0  0
  145.1940   76.3780  216.7230 H   0  0  0  0  0  0  0  0  0  0  0  0
  144.1674   74.8850  217.9140 H   0  0  0  0  0  0  0  0  0  0  0  0
  143.0537   74.6191  216.4333 H   0  0  0  0  0  0  0  0  0  0  0  0
  143.4154   72.9871  218.3217 H   0  0  0  0  0  0  0  0  0  0  0  0
  143.5059   71.4704  219.2719 H   0  0  0  0  0  0  0  0  0  0  0  0
  144.9044   75.5110  219.1150 H   0  0  0  0  0  0  0  0  0  0  0  0
  143.8602   77.7374  218.8878 H   0  0  0  0  0  0  0  0  0  0  0  0
  141.5819   78.1102  219.8590 H   0  0  0  0  0  0  0  0  0  0  0  0
  140.4673   76.2556  221.0057 H   0  0  0  0  0  0  0  0  0  0  0  0
  1  2  2  0
  2  3  1  0
  3  4  2  0
  4  5  1  0
  5  6  2  0
  6  7  1  0
  7  8  2  0
  8  9  1  0
  9 10  2  0
 10 11  1  0
 11 12  2  0
  6 13  1  0
 13 14  2  0
 14 15  1  0
 15 16  2  0
 16 17  1  0
  2 18  1  0
 18 19  1  0
 20 19  1  1
 20 21  1  0
 21 22  1  0
 22 23  1  0
 23 24  1  0
 24 25  1  0
 25 26  1  0
 26 27  1  0
 27 28  1  0
 28 29  1  0
 29 30  1  0
 23 31  1  0
 20 32  1  0
 32 33  2  0
 33 34  1  0
 34 35  2  0
 35 36  1  0
 36 37  2  0
 17  3  1  0
 37 18  1  0
 16  5  1  0
 31 20  1  0
 37 32  1  0
 12  7  1  0
 30 25  1  0
  4 38  1  0
  8 39  1  0
  9 40  1  0
 10 41  1  0
 11 42  1  0
 13 43  1  0
 14 44  1  0
 15 45  1  0
 17 46  1  0
 19 47  1  0
 19 48  1  0
 21 49  1  0
 21 50  1  0
 22 51  1  0
 22 52  1  0
 24 53  1  0
 24 54  1  0
 25 55  1  1
 26 56  1  0
 26 57  1  0
 27 58  1  0
 27 59  1  0
 28 60  1  0
 28 61  1  0
 29 62  1  0
 30 63  1  0
 30 64  1  0
 31 65  1  0
 31 66  1  0
 33 67  1  0
 34 68  1  0
 35 69  1  0
 36 70  1  0
M  END
>  <smiles>  (2) 
O=C(c1cc2c(-c3ccccn3)cccc2[nH]1)N1C[C@]2(CCN(CC3CCCNC3)C2)c2ccccc21

>  <score_type>  (2) 
oracle

>  <origin>  (2) 
autodockgpu

>  <m_score__min__energy>  (2) 
-10.640000000000001

>  <m_primary>  (2) 
energy

>  <rmsd>  (2) 
5.747103403139514

>  <m_score__min__rmsd>  (2) 
5.747103403139514

>  <meeko>  (2) 
{"free_energy": -9.64, "intermolecular_energy": -11.13, "internal_energy": -1.6, "cluster_size": 1, "cluster_id": 3, "rank_in_cluster": 1}

>  <energy>  (2) 
-10.62

>  <cluster_rmsd>  (2) 
0.47

>  <cluster>  (2) 
1

$$$$

     RDKit          3D

 70 76  0  0  1  0  0  0  0  0999 V2000
  142.2380   71.8160  221.5790 O   0  0  0  0  0  0  0  0  0  0  0  0
  141.1520   72.4230  221.8260 C   0  0  0  0  0  0  0  0  0  0  0  0
  140.1690   71.6670  222.5860 C   0  0  0  0  0  0  0  0  0  0  0  0
  140.3630   71.1080  223.8400 C   0  0  0  0  0  0  0  0  0  0  0  0
  139.2130   70.5040  224.2170 C   0  0  0  0  0  0  0  0  0  0  0  0
  138.8460   69.7920  225.3270 C   0  0  0  0  0  0  0  0  0  0  0  0
  139.6710   69.4860  226.4650 C   0  0  0  0  0  0  0  0  0  0  0  0
  140.0010   68.2500  226.9460 C   0  0  0  0  0  0  0  0  0  0  0  0
  140.8650   68.1170  228.0420 C   0  0  0  0  0  0  0  0  0  0  0  0
  141.4160   69.1990  228.6790 C   0  0  0  0  0  0  0  0  0  0  0  0
  141.0600   70.4500  228.1610 C   0  0  0  0  0  0  0  0  0  0  0  0
  140.2320   70.5430  227.1140 N   0  0  0  0  0  0  0  0  0  0  0  0
  137.5490   69.2920  225.3320 C   0  0  0  0  0  0  0  0  0  0  0  0
  136.6650   69.4880  224.2950 C   0  0  0  0  0  0  0  0  0  0  0  0
  137.0340   70.2070  223.1800 C   0  0  0  0  0  0  0  0  0  0  0  0
  138.3190   70.7090  223.1610 C   0  0  0  0  0  0  0  0  0  0  0  0
  138.9140   71.4140  222.1850 N   0  0  0  0  0  0  0  0  0  0  0  0
  140.9460   73.7700  221.3680 N   0  0  0  0  0  0  0  0  0  0  0  0
  139.6680   74.4260  221.5070 C   0  0  0  0  0  0  0  0  0  0  0  0
  139.8990   75.8190  221.0270 C   0  0  1  0  0  0  0  0  0  0  0  0
  138.9160   76.2290  219.9530 C   0  0  0  0  0  0  0  0  0  0  0  0
  138.6370   77.6540  220.3170 C   0  0  0  0  0  0  0  0  0  0  0  0
  138.9630   77.9060  221.6650 N   0  0  0  0  0  0  0  0  0  0  0  0
  139.5820   79.1170  222.0130 C   0  0  0  0  0  0  0  0  0  0  0  0
  140.4110   79.1940  223.2390 C   0  0  2  0  0  0  0  0  0  0  0  0
  140.5450   80.5610  223.8350 C   0  0  0  0  0  0  0  0  0  0  0  0
  141.6830   81.3820  223.3030 C   0  0  0  0  0  0  0  0  0  0  0  0
  142.9500   80.6370  223.0920 C   0  0  0  0  0  0  0  0  0  0  0  0
  142.8580   79.2550  222.8340 N   0  0  0  0  0  0  0  0  0  0  0  0
  141.7280   78.5300  223.2400 C   0  0  0  0  0  0  0  0  0  0  0  0
  139.6620   76.7620  222.1570 C   0  0  0  0  0  0  0  0  0  0  0  0
  141.2830   75.8110  220.5420 C   0  0  0  0  0  0  0  0  0  0  0  0
  141.9960   76.8410  219.9320 C   0  0  0  0  0  0  0  0  0  0  0  0
  143.3050   76.6940  219.5230 C   0  0  0  0  0  0  0  0  0  0  0  0
  143.9250   75.4830  219.7260 C   0  0  0  0  0  0  0  0  0  0  0  0
  143.2060   74.4810  220.3260 C   0  0  0  0  0  0  0  0  0  0  0  0
  141.9030   74.6020  220.7430 C   0  0  0  0  0  0  0  0  0  0  0  0
  141.2923   71.1487  224.4272 H   0  0  0  0  0  0  0  0  0  0  0  0
  139.5846   67.3508  226.4685 H   0  0  0  0  0  0  0  0  0  0  0  0
  141.1099   67.1076  228.4042 H   0  0  0  0  0  0  0  0  0  0  0  0
  142.0926   69.0913  229.5396 H   0  0  0  0  0  0  0  0  0  0  0  0
  141.4646   71.3647  228.6188 H   0  0  0  0  0  0  0  0  0  0  0  0
  137.2134   68.7129  226.2050 H   0  0  0  0  0  0  0  0  0  0  0  0
  135.6515   69.0651  224.3578 H   0  0  0  0  0  0  0  0  0  0  0  0
  136.3378   70.3731  222.3447 H   0  0  0  0  0  0  0  0  0  0  0  0
  138.5020   71.7240  221.2700 H   0  0  0  0  0  0  0  0  0  0  0  0
  138.9067   73.9253  220.8908 H   0  0  0  0  0  0  0  0  0  0  0  0
  139.2992   74.4002  222.5430 H   0  0  0  0  0  0  0  0  0  0  0  0
  139.3633   76.1523  218.9510 H   0  0  0  0  0  0  0  0  0  0  0  0
  138.0165   75.5973  219.9093 H   0  0  0  0  0  0  0  0  0  0  0  0
  139.2370   78.3136  219.6728 H   0  0  0  0  0  0  0  0  0  0  0  0
  137.5635   77.8474  220.1748 H   0  0  0  0  0  0  0  0  0  0  0  0
  140.2321   79.3961  221.1707 H   0  0  0  0  0  0  0  0  0  0  0  0
  138.7346   79.7822  222.2356 H   0  0  0  0  0  0  0  0  0  0  0  0
  139.7726   78.5741  223.8857 H   0  0  0  0  0  0  0  0  0  0  0  0
  139.6109   81.1091  223.6424 H   0  0  0  0  0  0  0  0  0  0  0  0
  140.7529   80.4084  224.9044 H   0  0  0  0  0  0  0  0  0  0  0  0
  141.3735   81.8090  222.3376 H   0  0  0  0  0  0  0  0  0  0  0  0
  141.8975   82.1423  224.0685 H   0  0  0  0  0  0  0  0  0  0  0  0
  143.4645   81.0982  222.2361 H   0  0  0  0  0  0  0  0  0  0  0  0
  143.4793   80.7074  224.0537 H   0  0  0  0  0  0  0  0  0  0  0  0
  143.2920   78.9320  221.9590 H   0  0  0  0  0  0  0  0  0  0  0  0
  141.6491   77.6577  222.5745 H   0  0  0  0  0  0  0  0  0  0  0  0
  141.9170   78.3231  224.3037 H   0  0  0  0  0  0  0  0  0  0  0  0
  140.6256   77.0742  222.5859 H   0  0  0  0  0  0  0  0  0  0  0  0
  139.0649   76.2670  222.9370 H   0  0  0  0  0  0  0  0  0  0  0  0
  141.4963   77.8075  219.7706 H   0  0  0  0  0  0  0  0  0  0  0  0
  143.8414   77.5269  219.0449 H   0  0  0  0  0  0  0  0  0  0  0  0
  144.9681   75.3228  219.4158 H   0  0  0  0  0  0  0  0  0  0  0  0
  143.7070   73.5146  220.4840 H   0  0  0  0  0  0  0  0  0  0  0  0
  1  2  2  0
  2  3  1  0
  3  4  2  0
  4  5  1  0
  5  6  2  0
  6  7  1  0
  7  8  2  0
  8  9  1  0
  9 10  2  0
 10 11  1  0
 11 12  2  0
  6 13  1  0
 13 14  2  0
 14 15  1  0
 15 16  2  0
 16 17  1  0
  2 18  1  0
 18 19  1  0
 20 19  1  1
 20 21  1  0
 21 22  1  0
 22 23  1  0
 23 24  1  0
 24 25  1  0
 25 26  1  0
 26 27  1  0
 27 28  1  0
 28 29  1  0
 29 30  1  0
 23 31  1  0
 20 32  1  0
 32 33  2  0
 33 34  1  0
 34 35  2  0
 35 36  1  0
 36 37  2  0
 17  3  1  0
 37 18  1  0
 16  5  1  0
 31 20  1  0
 37 32  1  0
 12  7  1  0
 30 25  1  0
  4 38  1  0
  8 39  1  0
  9 40  1  0
 10 41  1  0
 11 42  1  0
 13 43  1  0
 14 44  1  0
 15 45  1  0
 17 46  1  0
 19 47  1  0
 19 48  1  0
 21 49  1  0
 21 50  1  0
 22 51  1  0
 22 52  1  0
 24 53  1  0
 24 54  1  0
 25 55  1  1
 26 56  1  0
 26 57  1  0
 27 58  1  0
 27 59  1  0
 28 60  1  0
 28 61  1  0
 29 62  1  0
 30 63  1  0
 30 64  1  0
 31 65  1  0
 31 66  1  0
 33 67  1  0
 34 68  1  0
 35 69  1  0
 36 70  1  0
M  END
>  <smiles>  (3) 
O=C(c1cc2c(-c3ccccn3)cccc2[nH]1)N1C[C@]2(CCN(CC3CCCNC3)C2)c2ccccc21

>  <score_type>  (3) 
oracle

>  <origin>  (3) 
autodockgpu

>  <m_score__min__energy>  (3) 
-10.640000000000001

>  <m_primary>  (3) 
energy

>  <rmsd>  (3) 
2.9854255375623784

>  <m_score__min__rmsd>  (3) 
2.9854255375623784

>  <meeko>  (3) 
{"free_energy": -10.58, "intermolecular_energy": -12.08, "internal_energy": -1.68, "cluster_size": 30, "cluster_id": 1, "rank_in_cluster": 3}

>  <energy>  (3) 
-10.58

>  <cluster_rmsd>  (3) 
0.56

>  <cluster>  (3) 
1

$$$$

     RDKit          3D

 70 76  0  0  1  0  0  0  0  0999 V2000
  140.9130   71.6590  219.5200 O   0  0  0  0  0  0  0  0  0  0  0  0
  140.4720   72.2820  220.5320 C   0  0  0  0  0  0  0  0  0  0  0  0
  139.9430   71.4490  221.6000 C   0  0  0  0  0  0  0  0  0  0  0  0
  140.2560   71.5540  222.9470 C   0  0  0  0  0  0  0  0  0  0  0  0
  139.5490   70.6190  223.6210 C   0  0  0  0  0  0  0  0  0  0  0  0
  139.4820   70.2630  224.9420 C   0  0  0  0  0  0  0  0  0  0  0  0
  140.2150   70.8520  226.0300 C   0  0  0  0  0  0  0  0  0  0  0  0
  141.1060   71.8860  225.9710 C   0  0  0  0  0  0  0  0  0  0  0  0
  141.7020   72.3830  227.1390 C   0  0  0  0  0  0  0  0  0  0  0  0
  141.4270   71.8690  228.3800 C   0  0  0  0  0  0  0  0  0  0  0  0
  140.5090   70.8130  228.4070 C   0  0  0  0  0  0  0  0  0  0  0  0
  139.9580   70.3610  227.2740 N   0  0  0  0  0  0  0  0  0  0  0  0
  138.6390   69.2020  225.2470 C   0  0  0  0  0  0  0  0  0  0  0  0
  137.9010   68.5310  224.2960 C   0  0  0  0  0  0  0  0  0  0  0  0
  137.9670   68.8920  222.9690 C   0  0  0  0  0  0  0  0  0  0  0  0
  138.8020   69.9440  222.6510 C   0  0  0  0  0  0  0  0  0  0  0  0
  139.0510   70.4590  221.4370 N   0  0  0  0  0  0  0  0  0  0  0  0
  140.5110   73.7180  220.5810 N   0  0  0  0  0  0  0  0  0  0  0  0
  139.3430   74.4920  220.9270 C   0  0  0  0  0  0  0  0  0  0  0  0
  139.8220   75.9040  220.9800 C   0  0  1  0  0  0  0  0  0  0  0  0
  138.9970   76.8240  220.1080 C   0  0  0  0  0  0  0  0  0  0  0  0
  138.9150   78.0580  220.9530 C   0  0  0  0  0  0  0  0  0  0  0  0
  139.1760   77.7630  222.3070 N   0  0  0  0  0  0  0  0  0  0  0  0
  139.9460   78.6510  223.0730 C   0  0  0  0  0  0  0  0  0  0  0  0
  141.2650   79.1040  222.5700 C   0  0  2  0  0  0  0  0  0  0  0  0
  142.1680   79.7100  223.5990 C   0  0  0  0  0  0  0  0  0  0  0  0
  142.0070   81.1870  223.8020 C   0  0  0  0  0  0  0  0  0  0  0  0
  141.8190   81.9750  222.5570 C   0  0  0  0  0  0  0  0  0  0  0  0
  141.2440   81.3180  221.4510 N   0  0  0  0  0  0  0  0  0  0  0  0
  141.3060   79.9210  221.3420 C   0  0  0  0  0  0  0  0  0  0  0  0
  139.6500   76.4180  222.3680 C   0  0  0  0  0  0  0  0  0  0  0  0
  141.2200   75.8290  220.5440 C   0  0  0  0  0  0  0  0  0  0  0  0
  142.1270   76.8690  220.3520 C   0  0  0  0  0  0  0  0  0  0  0  0
  143.4240   76.6530  219.9360 C   0  0  0  0  0  0  0  0  0  0  0  0
  143.8330   75.3600  219.7020 C   0  0  0  0  0  0  0  0  0  0  0  0
  142.9250   74.3500  219.8950 C   0  0  0  0  0  0  0  0  0  0  0  0
  141.6290   74.5390  220.3090 C   0  0  0  0  0  0  0  0  0  0  0  0
  140.9589   72.2744  223.3909 H   0  0  0  0  0  0  0  0  0  0  0  0
  141.3583   72.3329  224.9980 H   0  0  0  0  0  0  0  0  0  0  0  0
  142.4162   73.2156  227.0566 H   0  0  0  0  0  0  0  0  0  0  0  0
  141.8969   72.2608  229.2941 H   0  0  0  0  0  0  0  0  0  0  0  0
  140.2380   70.3505  229.3675 H   0  0  0  0  0  0  0  0  0  0  0  0
  138.5567   68.8825  226.2963 H   0  0  0  0  0  0  0  0  0  0  0  0
  137.2515   67.6971  224.6008 H   0  0  0  0  0  0  0  0  0  0  0  0
  137.3823   68.3672  222.1991 H   0  0  0  0  0  0  0  0  0  0  0  0
  138.6430   70.1660  220.5140 H   0  0  0  0  0  0  0  0  0  0  0  0
  138.5613   74.3767  220.1617 H   0  0  0  0  0  0  0  0  0  0  0  0
  138.8986   74.1688  221.8799 H   0  0  0  0  0  0  0  0  0  0  0  0
  139.5006   77.0268  219.1513 H   0  0  0  0  0  0  0  0  0  0  0  0
  138.0168   76.4107  219.8280 H   0  0  0  0  0  0  0  0  0  0  0  0
  139.6553   78.7886  220.5951 H   0  0  0  0  0  0  0  0  0  0  0  0
  137.8977   78.4690  220.8742 H   0  0  0  0  0  0  0  0  0  0  0  0
  139.3355   79.5535  223.2241 H   0  0  0  0  0  0  0  0  0  0  0  0
  140.2018   78.0622  223.9662 H   0  0  0  0  0  0  0  0  0  0  0  0
  141.6556   78.1184  222.2767 H   0  0  0  0  0  0  0  0  0  0  0  0
  141.9715   79.2114  224.5596 H   0  0  0  0  0  0  0  0  0  0  0  0
  143.1933   79.5636  223.2284 H   0  0  0  0  0  0  0  0  0  0  0  0
  141.1290   81.3494  224.4445 H   0  0  0  0  0  0  0  0  0  0  0  0
  142.9475   81.5400  224.2502 H   0  0  0  0  0  0  0  0  0  0  0  0
  141.1738   82.8312  222.8034 H   0  0  0  0  0  0  0  0  0  0  0  0
  142.8380   82.2314  222.2315 H   0  0  0  0  0  0  0  0  0  0  0  0
  140.3900   81.7480  221.0680 H   0  0  0  0  0  0  0  0  0  0  0  0
  140.4552   79.6085  220.7187 H   0  0  0  0  0  0  0  0  0  0  0  0
  142.3102   79.7331  220.9342 H   0  0  0  0  0  0  0  0  0  0  0  0
  140.6154   76.3901  222.8945 H   0  0  0  0  0  0  0  0  0  0  0  0
  138.9264   75.7918  222.9105 H   0  0  0  0  0  0  0  0  0  0  0  0
  141.7961   77.9012  220.5393 H   0  0  0  0  0  0  0  0  0  0  0  0
  144.1165   77.4958  219.7943 H   0  0  0  0  0  0  0  0  0  0  0  0
  144.8588   75.1426  219.3696 H   0  0  0  0  0  0  0  0  0  0  0  0
  143.2574   73.3187  219.7053 H   0  0  0  0  0  0  0  0  0  0  0  0
  1  2  2  0
  2  3  1  0
  3  4  2  0
  4  5  1  0
  5  6  2  0
  6  7  1  0
  7  8  2  0
  8  9  1  0
  9 10  2  0
 10 11  1  0
 11 12  2  0
  6 13  1  0
 13 14  2  0
 14 15  1  0
 15 16  2  0
 16 17  1  0
  2 18  1  0
 18 19  1  0
 20 19  1  1
 20 21  1  0
 21 22  1  0
 22 23  1  0
 23 24  1  0
 24 25  1  0
 25 26  1  0
 26 27  1  0
 27 28  1  0
 28 29  1  0
 29 30  1  0
 23 31  1  0
 20 32  1  0
 32 33  2  0
 33 34  1  0
 34 35  2  0
 35 36  1  0
 36 37  2  0
 17  3  1  0
 37 18  1  0
 16  5  1  0
 31 20  1  0
 37 32  1  0
 12  7  1  0
 30 25  1  0
  4 38  1  0
  8 39  1  0
  9 40  1  0
 10 41  1  0
 11 42  1  0
 13 43  1  0
 14 44  1  0
 15 45  1  0
 17 46  1  0
 19 47  1  0
 19 48  1  0
 21 49  1  0
 21 50  1  0
 22 51  1  0
 22 52  1  0
 24 53  1  0
 24 54  1  0
 25 55  1  6
 26 56  1  0
 26 57  1  0
 27 58  1  0
 27 59  1  0
 28 60  1  0
 28 61  1  0
 29 62  1  0
 30 63  1  0
 30 64  1  0
 31 65  1  0
 31 66  1  0
 33 67  1  0
 34 68  1  0
 35 69  1  0
 36 70  1  0
M  END
>  <smiles>  (4) 
O=C(c1cc2c(-c3ccccn3)cccc2[nH]1)N1C[C@]2(CCN(CC3CCCNC3)C2)c2ccccc21

>  <score_type>  (4) 
oracle

>  <origin>  (4) 
autodockgpu

>  <m_score__min__energy>  (4) 
-10.640000000000001

>  <m_primary>  (4) 
energy

>  <rmsd>  (4) 
2.843071157806612

>  <m_score__min__rmsd>  (4) 
2.843071157806612

>  <meeko>  (4) 
{"free_energy": -9.38, "intermolecular_energy": -10.87, "internal_energy": -1.82, "cluster_size": 30, "cluster_id": 1, "rank_in_cluster": 29}

>  <energy>  (4) 
-10.36

>  <cluster_rmsd>  (4) 
1.18

>  <cluster>  (4) 
1

$$$$

     RDKit          3D

 70 76  0  0  1  0  0  0  0  0999 V2000
  140.3760   75.7690  222.3180 O   0  0  0  0  0  0  0  0  0  0  0  0
  140.7060   76.8100  221.6740 C   0  0  0  0  0  0  0  0  0  0  0  0
  141.4860   76.5820  220.4690 C   0  0  0  0  0  0  0  0  0  0  0  0
  142.3340   75.5090  220.2380 C   0  0  0  0  0  0  0  0  0  0  0  0
  142.8600   75.6450  218.9990 C   0  0  0  0  0  0  0  0  0  0  0  0
  143.7540   74.9040  218.2720 C   0  0  0  0  0  0  0  0  0  0  0  0
  144.4100   73.6940  218.6890 C   0  0  0  0  0  0  0  0  0  0  0  0
  144.4390   72.4950  218.0350 C   0  0  0  0  0  0  0  0  0  0  0  0
  145.1720   71.4170  218.5510 C   0  0  0  0  0  0  0  0  0  0  0  0
  145.8870   71.5060  219.7180 C   0  0  0  0  0  0  0  0  0  0  0  0
  145.8390   72.7490  220.3610 C   0  0  0  0  0  0  0  0  0  0  0  0
  145.1290   73.7570  219.8430 N   0  0  0  0  0  0  0  0  0  0  0  0
  144.0770   75.3990  217.0140 C   0  0  0  0  0  0  0  0  0  0  0  0
  143.5430   76.5610  216.5040 C   0  0  0  0  0  0  0  0  0  0  0  0
  142.6420   77.3030  217.2350 C   0  0  0  0  0  0  0  0  0  0  0  0
  142.3120   76.8240  218.4860 C   0  0  0  0  0  0  0  0  0  0  0  0
  141.4840   77.3760  219.3870 N   0  0  0  0  0  0  0  0  0  0  0  0
  140.3130   78.1130  222.1390 N   0  0  0  0  0  0  0  0  0  0  0  0
  138.9470   78.5690  222.0390 C   0  0  0  0  0  0  0  0  0  0  0  0
  138.9350   79.8940  222.7230 C   0  0  1  0  0  0  0  0  0  0  0  0
  138.3570   80.9870  221.8530 C   0  0  0  0  0  0  0  0  0  0  0  0
  137.5680   81.7860  222.8440 C   0  0  0  0  0  0  0  0  0  0  0  0
  137.2770   81.0220  223.9920 N   0  0  0  0  0  0  0  0  0  0  0  0
  137.3460   81.6240  225.2590 C   0  0  0  0  0  0  0  0  0  0  0  0
  136.1320   82.2320  225.8520 C   0  0  2  0  0  0  0  0  0  0  0  0
  135.3790   83.1640  224.9540 C   0  0  0  0  0  0  0  0  0  0  0  0
  135.8260   84.5950  224.9980 C   0  0  0  0  0  0  0  0  0  0  0  0
  136.1420   85.1130  226.3540 C   0  0  0  0  0  0  0  0  0  0  0  0
  136.5610   84.1820  227.3250 N   0  0  0  0  0  0  0  0  0  0  0  0
  136.2290   82.8250  227.1990 C   0  0  0  0  0  0  0  0  0  0  0  0
  138.0320   79.8140  223.9060 C   0  0  0  0  0  0  0  0  0  0  0  0
  140.3410   80.1380  223.0650 C   0  0  0  0  0  0  0  0  0  0  0  0
  140.9060   81.2600  223.6670 C   0  0  0  0  0  0  0  0  0  0  0  0
  142.2550   81.3570  223.9330 C   0  0  0  0  0  0  0  0  0  0  0  0
  143.0700   80.3030  223.5890 C   0  0  0  0  0  0  0  0  0  0  0  0
  142.4960   79.2090  222.9970 C   0  0  0  0  0  0  0  0  0  0  0  0
  141.1550   79.0880  222.7220 C   0  0  0  0  0  0  0  0  0  0  0  0
  142.5428   74.6890  220.9409 H   0  0  0  0  0  0  0  0  0  0  0  0
  143.8818   72.3741  217.0943 H   0  0  0  0  0  0  0  0  0  0  0  0
  145.1737   70.4651  217.9997 H   0  0  0  0  0  0  0  0  0  0  0  0
  146.4596   70.6580  220.1217 H   0  0  0  0  0  0  0  0  0  0  0  0
  146.3905   72.8977  221.3010 H   0  0  0  0  0  0  0  0  0  0  0  0
  144.7928   74.8360  216.3970 H   0  0  0  0  0  0  0  0  0  0  0  0
  143.8395   76.9008  215.5007 H   0  0  0  0  0  0  0  0  0  0  0  0
  142.2064   78.2328  216.8404 H   0  0  0  0  0  0  0  0  0  0  0  0
  140.9260   78.2620  219.2950 H   0  0  0  0  0  0  0  0  0  0  0  0
  138.6502   78.6746  220.9851 H   0  0  0  0  0  0  0  0  0  0  0  0
  138.2392   77.8609  222.4945 H   0  0  0  0  0  0  0  0  0  0  0  0
  139.1507   81.5930  221.3918 H   0  0  0  0  0  0  0  0  0  0  0  0
  137.7605   80.6134  221.0076 H   0  0  0  0  0  0  0  0  0  0  0  0
  138.1516   82.6705  223.1390 H   0  0  0  0  0  0  0  0  0  0  0  0
  136.6201   82.0884  222.3749 H   0  0  0  0  0  0  0  0  0  0  0  0
  137.6902   80.8503  225.9610 H   0  0  0  0  0  0  0  0  0  0  0  0
  138.0096   82.4860  225.0962 H   0  0  0  0  0  0  0  0  0  0  0  0
  135.5548   81.3048  225.9830 H   0  0  0  0  0  0  0  0  0  0  0  0
  135.4904   82.8045  223.9204 H   0  0  0  0  0  0  0  0  0  0  0  0
  134.3389   83.1584  225.3120 H   0  0  0  0  0  0  0  0  0  0  0  0
  136.7295   84.6894  224.3776 H   0  0  0  0  0  0  0  0  0  0  0  0
  134.9790   85.1929  224.6304 H   0  0  0  0  0  0  0  0  0  0  0  0
  136.9443   85.8574  226.2436 H   0  0  0  0  0  0  0  0  0  0  0  0
  135.1866   85.5035  226.7343 H   0  0  0  0  0  0  0  0  0  0  0  0
  137.4760   84.3680  227.7590 H   0  0  0  0  0  0  0  0  0  0  0  0
  136.9930   82.2545  227.7475 H   0  0  0  0  0  0  0  0  0  0  0  0
  135.2005   82.7694  227.5850 H   0  0  0  0  0  0  0  0  0  0  0  0
  138.6307   79.6866  224.8199 H   0  0  0  0  0  0  0  0  0  0  0  0
  137.3523   78.9557  223.7995 H   0  0  0  0  0  0  0  0  0  0  0  0
  140.2509   82.1003  223.9404 H   0  0  0  0  0  0  0  0  0  0  0  0
  142.6708   82.2570  224.4097 H   0  0  0  0  0  0  0  0  0  0  0  0
  144.1520   80.3379  223.7839 H   0  0  0  0  0  0  0  0  0  0  0  0
  143.1532   78.3705  222.7232 H   0  0  0  0  0  0  0  0  0  0  0  0
  1  2  2  0
  2  3  1  0
  3  4  2  0
  4  5  1  0
  5  6  2  0
  6  7  1  0
  7  8  2  0
  8  9  1  0
  9 10  2  0
 10 11  1  0
 11 12  2  0
  6 13  1  0
 13 14  2  0
 14 15  1  0
 15 16  2  0
 16 17  1  0
  2 18  1  0
 18 19  1  0
 20 19  1  6
 20 21  1  0
 21 22  1  0
 22 23  1  0
 23 24  1  0
 24 25  1  0
 25 26  1  0
 26 27  1  0
 27 28  1  0
 28 29  1  0
 29 30  1  0
 23 31  1  0
 20 32  1  0
 32 33  2  0
 33 34  1  0
 34 35  2  0
 35 36  1  0
 36 37  2  0
 17  3  1  0
 37 18  1  0
 16  5  1  0
 31 20  1  0
 37 32  1  0
 12  7  1  0
 30 25  1  0
  4 38  1  0
  8 39  1  0
  9 40  1  0
 10 41  1  0
 11 42  1  0
 13 43  1  0
 14 44  1  0
 15 45  1  0
 17 46  1  0
 19 47  1  0
 19 48  1  0
 21 49  1  0
 21 50  1  0
 22 51  1  0
 22 52  1  0
 24 53  1  0
 24 54  1  0
 25 55  1  1
 26 56  1  0
 26 57  1  0
 27 58  1  0
 27 59  1  0
 28 60  1  0
 28 61  1  0
 29 62  1  0
 30 63  1  0
 30 64  1  0
 31 65  1  0
 31 66  1  0
 33 67  1  0
 34 68  1  0
 35 69  1  0
 36 70  1  0
M  END
>  <smiles>  (5) 
O=C(c1cc2c(-c3ccccn3)cccc2[nH]1)N1C[C@]2(CCN(CC3CCCNC3)C2)c2ccccc21

>  <score_type>  (5) 
oracle

>  <origin>  (5) 
autodockgpu

>  <m_score__min__energy>  (5) 
-10.640000000000001

>  <m_primary>  (5) 
energy

>  <rmsd>  (5) 
7.927381601337608

>  <m_score__min__rmsd>  (5) 
7.927381601337608

>  <meeko>  (5) 
{"free_energy": -9.39, "intermolecular_energy": -10.88, "internal_energy": -1.56, "cluster_size": 1, "cluster_id": 6, "rank_in_cluster": 1}

>  <energy>  (5) 
-10.19

>  <cluster_rmsd>  (5) 
0.45

>  <cluster>  (5) 
1

$$$$

     RDKit          3D

 70 76  0  0  1  0  0  0  0  0999 V2000
  141.9870   71.8580  221.5060 O   0  0  0  0  0  0  0  0  0  0  0  0
  140.9180   72.4750  221.7950 C   0  0  0  0  0  0  0  0  0  0  0  0
  139.9290   71.7070  222.5330 C   0  0  0  0  0  0  0  0  0  0  0  0
  140.1510   71.0140  223.7130 C   0  0  0  0  0  0  0  0  0  0  0  0
  138.9850   70.4440  224.0960 C   0  0  0  0  0  0  0  0  0  0  0  0
  138.6300   69.6470  225.1510 C   0  0  0  0  0  0  0  0  0  0  0  0
  139.4920   69.1780  226.2040 C   0  0  0  0  0  0  0  0  0  0  0  0
  140.2280   68.0270  226.2270 C   0  0  0  0  0  0  0  0  0  0  0  0
  141.0650   67.7370  227.3140 C   0  0  0  0  0  0  0  0  0  0  0  0
  141.1890   68.5760  228.3910 C   0  0  0  0  0  0  0  0  0  0  0  0
  140.4240   69.7470  228.3350 C   0  0  0  0  0  0  0  0  0  0  0  0
  139.6340   69.9950  227.2840 N   0  0  0  0  0  0  0  0  0  0  0  0
  137.3060   69.2270  225.1820 C   0  0  0  0  0  0  0  0  0  0  0  0
  136.3840   69.5790  224.2230 C   0  0  0  0  0  0  0  0  0  0  0  0
  136.7400   70.3830  223.1640 C   0  0  0  0  0  0  0  0  0  0  0  0
  138.0530   70.8070  223.1190 C   0  0  0  0  0  0  0  0  0  0  0  0
  138.6400   71.5700  222.1840 N   0  0  0  0  0  0  0  0  0  0  0  0
  140.7350   73.8460  221.4010 N   0  0  0  0  0  0  0  0  0  0  0  0
  139.4730   74.5210  221.5860 C   0  0  0  0  0  0  0  0  0  0  0  0
  139.7280   75.9300  221.1670 C   0  0  1  0  0  0  0  0  0  0  0  0
  138.7410   76.4080  220.1260 C   0  0  0  0  0  0  0  0  0  0  0  0
  138.4970   77.8210  220.5580 C   0  0  0  0  0  0  0  0  0  0  0  0
  138.8450   78.0040  221.9110 N   0  0  0  0  0  0  0  0  0  0  0  0
  139.4940   79.1850  222.3050 C   0  0  0  0  0  0  0  0  0  0  0  0
  140.9360   79.3660  222.0140 C   0  0  2  0  0  0  0  0  0  0  0  0
  141.8690   78.8720  223.0750 C   0  0  0  0  0  0  0  0  0  0  0  0
  142.2060   79.8690  224.1440 C   0  0  0  0  0  0  0  0  0  0  0  0
  142.4450   81.2520  223.6610 C   0  0  0  0  0  0  0  0  0  0  0  0
  141.8090   81.6440  222.4660 N   0  0  0  0  0  0  0  0  0  0  0  0
  141.3960   80.6820  221.5320 C   0  0  0  0  0  0  0  0  0  0  0  0
  139.5250   76.8250  222.3410 C   0  0  0  0  0  0  0  0  0  0  0  0
  141.1060   75.9150  220.6640 C   0  0  0  0  0  0  0  0  0  0  0  0
  141.8330   76.9560  220.0920 C   0  0  0  0  0  0  0  0  0  0  0  0
  143.1330   76.8010  219.6590 C   0  0  0  0  0  0  0  0  0  0  0  0
  143.7300   75.5690  219.7980 C   0  0  0  0  0  0  0  0  0  0  0  0
  142.9970   74.5570  220.3620 C   0  0  0  0  0  0  0  0  0  0  0  0
  141.7020   74.6860  220.8020 C   0  0  0  0  0  0  0  0  0  0  0  0
  141.1102   70.9402  224.2463 H   0  0  0  0  0  0  0  0  0  0  0  0
  140.1633   67.3217  225.3854 H   0  0  0  0  0  0  0  0  0  0  0  0
  141.6436   66.8015  227.3020 H   0  0  0  0  0  0  0  0  0  0  0  0
  141.8458   68.3445  229.2425 H   0  0  0  0  0  0  0  0  0  0  0  0
  140.4728   70.4699  229.1627 H   0  0  0  0  0  0  0  0  0  0  0  0
  136.9795   68.5830  226.0119 H   0  0  0  0  0  0  0  0  0  0  0  0
  135.3497   69.2133  224.3037 H   0  0  0  0  0  0  0  0  0  0  0  0
  136.0134   70.6736  222.3909 H   0  0  0  0  0  0  0  0  0  0  0  0
  138.2030   71.9960  221.3280 H   0  0  0  0  0  0  0  0  0  0  0  0
  138.6941   74.0649  220.9573 H   0  0  0  0  0  0  0  0  0  0  0  0
  139.1158   74.4553  222.6243 H   0  0  0  0  0  0  0  0  0  0  0  0
  139.1740   76.3676  219.1156 H   0  0  0  0  0  0  0  0  0  0  0  0
  137.8279   75.7976  220.0656 H   0  0  0  0  0  0  0  0  0  0  0  0
  139.1029   78.4966  219.9364 H   0  0  0  0  0  0  0  0  0  0  0  0
  137.4263   78.0433  220.4390 H   0  0  0  0  0  0  0  0  0  0  0  0
  138.9641   80.0171  221.8183 H   0  0  0  0  0  0  0  0  0  0  0  0
  139.4594   79.1403  223.4035 H   0  0  0  0  0  0  0  0  0  0  0  0
  140.9930   78.7009  221.1397 H   0  0  0  0  0  0  0  0  0  0  0  0
  141.4042   77.9996  223.5576 H   0  0  0  0  0  0  0  0  0  0  0  0
  142.8155   78.6396  222.5650 H   0  0  0  0  0  0  0  0  0  0  0  0
  141.3709   79.8972  224.8594 H   0  0  0  0  0  0  0  0  0  0  0  0
  143.1532   79.5319  224.5903 H   0  0  0  0  0  0  0  0  0  0  0  0
  142.1114   81.9394  224.4523 H   0  0  0  0  0  0  0  0  0  0  0  0
  143.5199   81.2857  223.4298 H   0  0  0  0  0  0  0  0  0  0  0  0
  141.2060   82.4750  222.5310 H   0  0  0  0  0  0  0  0  0  0  0  0
  140.5663   81.1236  220.9605 H   0  0  0  0  0  0  0  0  0  0  0  0
  142.3129   80.4504  220.9701 H   0  0  0  0  0  0  0  0  0  0  0  0
  140.5002   77.0972  222.7709 H   0  0  0  0  0  0  0  0  0  0  0  0
  138.9268   76.3074  223.1054 H   0  0  0  0  0  0  0  0  0  0  0  0
  141.3520   77.9391  219.9814 H   0  0  0  0  0  0  0  0  0  0  0  0
  143.6808   77.6438  219.2122 H   0  0  0  0  0  0  0  0  0  0  0  0
  144.7652   75.4010  219.4662 H   0  0  0  0  0  0  0  0  0  0  0  0
  143.4790   73.5741  220.4696 H   0  0  0  0  0  0  0  0  0  0  0  0
  1  2  2  0
  2  3  1  0
  3  4  2  0
  4  5  1  0
  5  6  2  0
  6  7  1  0
  7  8  2  0
  8  9  1  0
  9 10  2  0
 10 11  1  0
 11 12  2  0
  6 13  1  0
 13 14  2  0
 14 15  1  0
 15 16  2  0
 16 17  1  0
  2 18  1  0
 18 19  1  0
 20 19  1  1
 20 21  1  0
 21 22  1  0
 22 23  1  0
 23 24  1  0
 24 25  1  0
 25 26  1  0
 26 27  1  0
 27 28  1  0
 28 29  1  0
 29 30  1  0
 23 31  1  0
 20 32  1  0
 32 33  2  0
 33 34  1  0
 34 35  2  0
 35 36  1  0
 36 37  2  0
 17  3  1  0
 37 18  1  0
 16  5  1  0
 31 20  1  0
 37 32  1  0
 12  7  1  0
 30 25  1  0
  4 38  1  0
  8 39  1  0
  9 40  1  0
 10 41  1  0
 11 42  1  0
 13 43  1  0
 14 44  1  0
 15 45  1  0
 17 46  1  0
 19 47  1  0
 19 48  1  0
 21 49  1  0
 21 50  1  0
 22 51  1  0
 22 52  1  0
 24 53  1  0
 24 54  1  0
 25 55  1  6
 26 56  1  0
 26 57  1  0
 27 58  1  0
 27 59  1  0
 28 60  1  0
 28 61  1  0
 29 62  1  0
 30 63  1  0
 30 64  1  0
 31 65  1  0
 31 66  1  0
 33 67  1  0
 34 68  1  0
 35 69  1  0
 36 70  1  0
M  END
>  <smiles>  (6) 
O=C(c1cc2c(-c3ccccn3)cccc2[nH]1)N1C[C@]2(CCN(CC3CCCNC3)C2)c2ccccc21

>  <score_type>  (6) 
oracle

>  <origin>  (6) 
autodockgpu

>  <m_score__min__energy>  (6) 
-10.640000000000001

>  <m_primary>  (6) 
energy

>  <rmsd>  (6) 
3.1544961223842876

>  <m_score__min__rmsd>  (6) 
3.1544961223842876

>  <meeko>  (6) 
{"free_energy": -9.92, "intermolecular_energy": -11.41, "internal_energy": -1.84, "cluster_size": 30, "cluster_id": 1, "rank_in_cluster": 13}

>  <energy>  (6) 
-9.97

>  <cluster_rmsd>  (6) 
1.07

>  <cluster>  (6) 
1

$$$$

     RDKit          3D

 70 76  0  0  1  0  0  0  0  0999 V2000
  138.1390   71.8630  219.7100 O   0  0  0  0  0  0  0  0  0  0  0  0
  138.9480   72.0980  220.6580 C   0  0  0  0  0  0  0  0  0  0  0  0
  139.0730   71.0440  221.6520 C   0  0  0  0  0  0  0  0  0  0  0  0
  139.5030   71.2040  222.9600 C   0  0  0  0  0  0  0  0  0  0  0  0
  139.4640   69.9970  223.5700 C   0  0  0  0  0  0  0  0  0  0  0  0
  139.7900   69.5700  224.8300 C   0  0  0  0  0  0  0  0  0  0  0  0
  140.3010   70.3750  225.9070 C   0  0  0  0  0  0  0  0  0  0  0  0
  141.0520   71.5130  225.8120 C   0  0  0  0  0  0  0  0  0  0  0  0
  141.4300   72.2170  226.9640 C   0  0  0  0  0  0  0  0  0  0  0  0
  141.0730   71.8100  228.2240 C   0  0  0  0  0  0  0  0  0  0  0  0
  140.3010   70.6430  228.2860 C   0  0  0  0  0  0  0  0  0  0  0  0
  139.9580   69.9940  227.1680 N   0  0  0  0  0  0  0  0  0  0  0  0
  139.6380   68.2100  225.0720 C   0  0  0  0  0  0  0  0  0  0  0  0
  139.1850   67.3240  224.1210 C   0  0  0  0  0  0  0  0  0  0  0  0
  138.8540   67.7550  222.8560 C   0  0  0  0  0  0  0  0  0  0  0  0
  139.0020   69.1030  222.6000 C   0  0  0  0  0  0  0  0  0  0  0  0
  138.7700   69.7520  221.4480 N   0  0  0  0  0  0  0  0  0  0  0  0
  139.6750   73.3370  220.7100 N   0  0  0  0  0  0  0  0  0  0  0  0
  139.0110   74.5900  220.9760 C   0  0  0  0  0  0  0  0  0  0  0  0
  140.1100   75.5960  221.0600 C   0  0  1  0  0  0  0  0  0  0  0  0
  139.8870   76.7710  220.1350 C   0  0  0  0  0  0  0  0  0  0  0  0
  140.3650   77.9170  220.9720 C   0  0  0  0  0  0  0  0  0  0  0  0
  140.3680   77.5780  222.3410 N   0  0  0  0  0  0  0  0  0  0  0  0
  141.4260   78.0070  223.1570 C   0  0  0  0  0  0  0  0  0  0  0  0
  141.5090   79.4290  223.5670 C   0  0  2  0  0  0  0  0  0  0  0  0
  140.2540   80.2230  223.3800 C   0  0  0  0  0  0  0  0  0  0  0  0
  140.1000   80.8690  222.0350 C   0  0  0  0  0  0  0  0  0  0  0  0
  141.3400   81.4730  221.4830 C   0  0  0  0  0  0  0  0  0  0  0  0
  142.5710   80.9300  221.9010 N   0  0  0  0  0  0  0  0  0  0  0  0
  142.6630   80.2260  223.1110 C   0  0  0  0  0  0  0  0  0  0  0  0
  140.1270   76.1740  222.4340 C   0  0  0  0  0  0  0  0  0  0  0  0
  141.3200   74.8390  220.7200 C   0  0  0  0  0  0  0  0  0  0  0  0
  142.6270   75.3030  220.5900 C   0  0  0  0  0  0  0  0  0  0  0  0
  143.6790   74.4740  220.2630 C   0  0  0  0  0  0  0  0  0  0  0  0
  143.4220   73.1380  220.0580 C   0  0  0  0  0  0  0  0  0  0  0  0
  142.1300   72.7000  220.1890 C   0  0  0  0  0  0  0  0  0  0  0  0
  141.0650   73.5060  220.5140 C   0  0  0  0  0  0  0  0  0  0  0  0
  139.8213   72.1499  223.4226 H   0  0  0  0  0  0  0  0  0  0  0  0
  141.3627   71.8799  224.8226 H   0  0  0  0  0  0  0  0  0  0  0  0
  142.0349   73.1290  226.8532 H   0  0  0  0  0  0  0  0  0  0  0  0
  141.3730   72.3633  229.1261 H   0  0  0  0  0  0  0  0  0  0  0  0
  139.9739   70.2569  229.2627 H   0  0  0  0  0  0  0  0  0  0  0  0
  139.8916   67.8235  226.0702 H   0  0  0  0  0  0  0  0  0  0  0  0
  139.0862   66.2583  224.3749 H   0  0  0  0  0  0  0  0  0  0  0  0
  138.4892   67.0586  222.0866 H   0  0  0  0  0  0  0  0  0  0  0  0
  138.4180   69.3550  220.5410 H   0  0  0  0  0  0  0  0  0  0  0  0
  138.3175   74.8415  220.1600 H   0  0  0  0  0  0  0  0  0  0  0  0
  138.4112   74.5537  221.8974 H   0  0  0  0  0  0  0  0  0  0  0  0
  140.4802   76.6734  219.2138 H   0  0  0  0  0  0  0  0  0  0  0  0
  138.8475   76.8749  219.7906 H   0  0  0  0  0  0  0  0  0  0  0  0
  141.3871   78.1841  220.6656 H   0  0  0  0  0  0  0  0  0  0  0  0
  139.6829   78.7671  220.8236 H   0  0  0  0  0  0  0  0  0  0  0  0
  141.3780   77.4113  224.0805 H   0  0  0  0  0  0  0  0  0  0  0  0
  142.3116   77.8731  222.5185 H   0  0  0  0  0  0  0  0  0  0  0  0
  141.6781   79.2605  224.6408 H   0  0  0  0  0  0  0  0  0  0  0  0
  139.3988   79.5484  223.5332 H   0  0  0  0  0  0  0  0  0  0  0  0
  140.3021   81.0452  224.1092 H   0  0  0  0  0  0  0  0  0  0  0  0
  139.7488   80.1038  221.3271 H   0  0  0  0  0  0  0  0  0  0  0  0
  139.3889   81.6971  222.1713 H   0  0  0  0  0  0  0  0  0  0  0  0
  141.2932   81.3784  220.3881 H   0  0  0  0  0  0  0  0  0  0  0  0
  141.3441   82.5038  221.8671 H   0  0  0  0  0  0  0  0  0  0  0  0
  143.1890   80.5910  221.1510 H   0  0  0  0  0  0  0  0  0  0  0  0
  143.5142   79.5355  223.0176 H   0  0  0  0  0  0  0  0  0  0  0  0
  142.7513   81.0179  223.8694 H   0  0  0  0  0  0  0  0  0  0  0  0
  140.9254   75.7004  223.0242 H   0  0  0  0  0  0  0  0  0  0  0  0
  139.1604   75.9932  222.9269 H   0  0  0  0  0  0  0  0  0  0  0  0
  142.8275   76.3720  220.7546 H   0  0  0  0  0  0  0  0  0  0  0  0
  144.7003   74.8716  220.1682 H   0  0  0  0  0  0  0  0  0  0  0  0
  144.2313   72.4406  219.7961 H   0  0  0  0  0  0  0  0  0  0  0  0
  141.9318   71.6308  220.0228 H   0  0  0  0  0  0  0  0  0  0  0  0
  1  2  2  0
  2  3  1  0
  3  4  2  0
  4  5  1  0
  5  6  2  0
  6  7  1  0
  7  8  2  0
  8  9  1  0
  9 10  2  0
 10 11  1  0
 11 12  2  0
  6 13  1  0
 13 14  2  0
 14 15  1  0
 15 16  2  0
 16 17  1  0
  2 18  1  0
 18 19  1  0
 20 19  1  1
 20 21  1  0
 21 22  1  0
 22 23  1  0
 23 24  1  0
 24 25  1  0
 25 26  1  0
 26 27  1  0
 27 28  1  0
 28 29  1  0
 29 30  1  0
 23 31  1  0
 20 32  1  0
 32 33  2  0
 33 34  1  0
 34 35  2  0
 35 36  1  0
 36 37  2  0
 17  3  1  0
 37 18  1  0
 16  5  1  0
 31 20  1  0
 37 32  1  0
 12  7  1  0
 30 25  1  0
  4 38  1  0
  8 39  1  0
  9 40  1  0
 10 41  1  0
 11 42  1  0
 13 43  1  0
 14 44  1  0
 15 45  1  0
 17 46  1  0
 19 47  1  0
 19 48  1  0
 21 49  1  0
 21 50  1  0
 22 51  1  0
 22 52  1  0
 24 53  1  0
 24 54  1  0
 25 55  1  1
 26 56  1  0
 26 57  1  0
 27 58  1  0
 27 59  1  0
 28 60  1  0
 28 61  1  0
 29 62  1  0
 30 63  1  0
 30 64  1  0
 31 65  1  0
 31 66  1  0
 33 67  1  0
 34 68  1  0
 35 69  1  0
 36 70  1  0
M  END
>  <smiles>  (7) 
O=C(c1cc2c(-c3ccccn3)cccc2[nH]1)N1C[C@]2(CCN(CC3CCCNC3)C2)c2ccccc21

>  <score_type>  (7) 
oracle

>  <origin>  (7) 
autodockgpu

>  <m_score__min__energy>  (7) 
-10.640000000000001

>  <m_primary>  (7) 
energy

>  <rmsd>  (7) 
2.7325636813136285

>  <m_score__min__rmsd>  (7) 
2.7325636813136285

>  <meeko>  (7) 
{"free_energy": -9.71, "intermolecular_energy": -11.2, "internal_energy": -1.9, "cluster_size": 30, "cluster_id": 1, "rank_in_cluster": 21}

>  <energy>  (7) 
-9.97

>  <cluster_rmsd>  (7) 
1.06

>  <cluster>  (7) 
1

$$$$

     RDKit          3D

 70 76  0  0  1  0  0  0  0  0999 V2000
  142.0620   71.6140  221.6440 O   0  0  0  0  0  0  0  0  0  0  0  0
  141.0070   72.2770  221.8820 C   0  0  0  0  0  0  0  0  0  0  0  0
  139.9780   71.5740  222.6300 C   0  0  0  0  0  0  0  0  0  0  0  0
  140.1460   70.9450  223.8540 C   0  0  0  0  0  0  0  0  0  0  0  0
  138.9560   70.4230  224.2290 C   0  0  0  0  0  0  0  0  0  0  0  0
  138.5500   69.6950  225.3160 C   0  0  0  0  0  0  0  0  0  0  0  0
  139.3660   69.2710  226.4220 C   0  0  0  0  0  0  0  0  0  0  0  0
  139.3240   69.7240  227.7100 C   0  0  0  0  0  0  0  0  0  0  0  0
  140.1580   69.1670  228.6910 C   0  0  0  0  0  0  0  0  0  0  0  0
  141.0410   68.1560  228.4160 C   0  0  0  0  0  0  0  0  0  0  0  0
  141.0570   67.7120  227.0880 C   0  0  0  0  0  0  0  0  0  0  0  0
  140.2500   68.2650  226.1760 N   0  0  0  0  0  0  0  0  0  0  0  0
  137.2160   69.3060  225.3270 C   0  0  0  0  0  0  0  0  0  0  0  0
  136.3330   69.6220  224.3190 C   0  0  0  0  0  0  0  0  0  0  0  0
  136.7410   70.3560  223.2280 C   0  0  0  0  0  0  0  0  0  0  0  0
  138.0640   70.7490  223.2030 C   0  0  0  0  0  0  0  0  0  0  0  0
  138.6990   71.4440  222.2460 N   0  0  0  0  0  0  0  0  0  0  0  0
  140.8780   73.6350  221.4260 N   0  0  0  0  0  0  0  0  0  0  0  0
  139.6240   74.3440  221.5150 C   0  0  0  0  0  0  0  0  0  0  0  0
  139.9340   75.7290  221.0560 C   0  0  1  0  0  0  0  0  0  0  0  0
  139.0170   76.1860  219.9450 C   0  0  0  0  0  0  0  0  0  0  0  0
  138.7830   77.6200  220.3080 C   0  0  0  0  0  0  0  0  0  0  0  0
  139.0610   77.8490  221.6700 N   0  0  0  0  0  0  0  0  0  0  0  0
  139.7150   79.0310  222.0540 C   0  0  0  0  0  0  0  0  0  0  0  0
  141.1930   79.1070  221.9940 C   0  0  2  0  0  0  0  0  0  0  0  0
  141.9050   78.7390  223.2590 C   0  0  0  0  0  0  0  0  0  0  0  0
  142.1250   79.8690  224.2210 C   0  0  0  0  0  0  0  0  0  0  0  0
  142.5310   81.1550  223.5970 C   0  0  0  0  0  0  0  0  0  0  0  0
  142.1270   81.3890  222.2670 N   0  0  0  0  0  0  0  0  0  0  0  0
  141.8120   80.3170  221.4200 C   0  0  0  0  0  0  0  0  0  0  0  0
  139.6890   76.6740  222.1830 C   0  0  0  0  0  0  0  0  0  0  0  0
  141.3370   75.6650  220.6320 C   0  0  0  0  0  0  0  0  0  0  0  0
  142.1190   76.6670  220.0610 C   0  0  0  0  0  0  0  0  0  0  0  0
  143.4360   76.4670  219.7070 C   0  0  0  0  0  0  0  0  0  0  0  0
  143.9950   75.2290  219.9270 C   0  0  0  0  0  0  0  0  0  0  0  0
  143.2100   74.2550  220.4880 C   0  0  0  0  0  0  0  0  0  0  0  0
  141.8960   74.4300  220.8500 C   0  0  0  0  0  0  0  0  0  0  0  0
  141.0856   70.8814  224.4224 H   0  0  0  0  0  0  0  0  0  0  0  0
  138.6297   70.5332  227.9806 H   0  0  0  0  0  0  0  0  0  0  0  0
  140.1010   69.5561  229.7183 H   0  0  0  0  0  0  0  0  0  0  0  0
  141.6941   67.7219  229.1874 H   0  0  0  0  0  0  0  0  0  0  0  0
  141.7392   66.9014  226.7923 H   0  0  0  0  0  0  0  0  0  0  0  0
  136.8483   68.7181  226.1809 H   0  0  0  0  0  0  0  0  0  0  0  0
  135.2884   69.2838  224.3862 H   0  0  0  0  0  0  0  0  0  0  0  0
  136.0465   70.6166  222.4158 H   0  0  0  0  0  0  0  0  0  0  0  0
  138.2990   71.8290  221.3540 H   0  0  0  0  0  0  0  0  0  0  0  0
  138.8696   73.8797  220.8629 H   0  0  0  0  0  0  0  0  0  0  0  0
  139.2101   74.3279  222.5340 H   0  0  0  0  0  0  0  0  0  0  0  0
  139.5033   76.0962  218.9624 H   0  0  0  0  0  0  0  0  0  0  0  0
  138.0945   75.5933  219.8579 H   0  0  0  0  0  0  0  0  0  0  0  0
  139.4376   78.2573  219.6954 H   0  0  0  0  0  0  0  0  0  0  0  0
  137.7259   77.8602  220.1214 H   0  0  0  0  0  0  0  0  0  0  0  0
  139.3283   79.8332  221.4083 H   0  0  0  0  0  0  0  0  0  0  0  0
  139.4992   79.1039  223.1302 H   0  0  0  0  0  0  0  0  0  0  0  0
  141.3483   78.3169  221.2446 H   0  0  0  0  0  0  0  0  0  0  0  0
  141.3118   77.9670  223.7710 H   0  0  0  0  0  0  0  0  0  0  0  0
  142.9057   78.3964  222.9570 H   0  0  0  0  0  0  0  0  0  0  0  0
  141.1868   80.0373  224.7700 H   0  0  0  0  0  0  0  0  0  0  0  0
  142.9608   79.5638  224.8678 H   0  0  0  0  0  0  0  0  0  0  0  0
  142.1175   81.9659  224.2145 H   0  0  0  0  0  0  0  0  0  0  0  0
  143.6292   81.1107  223.5527 H   0  0  0  0  0  0  0  0  0  0  0  0
  141.5770   82.2450  222.1100 H   0  0  0  0  0  0  0  0  0  0  0  0
  141.1191   80.7022  220.6574 H   0  0  0  0  0  0  0  0  0  0  0  0
  142.7920   79.9669  221.0637 H   0  0  0  0  0  0  0  0  0  0  0  0
  140.6456   76.9422  222.6551 H   0  0  0  0  0  0  0  0  0  0  0  0
  139.0391   76.2002  222.9334 H   0  0  0  0  0  0  0  0  0  0  0  0
  141.6682   77.6550  219.8861 H   0  0  0  0  0  0  0  0  0  0  0  0
  144.0271   77.2791  219.2585 H   0  0  0  0  0  0  0  0  0  0  0  0
  145.0427   75.0264  219.6601 H   0  0  0  0  0  0  0  0  0  0  0  0
  143.6624   73.2672  220.6599 H   0  0  0  0  0  0  0  0  0  0  0  0
  1  2  2  0
  2  3  1  0
  3  4  2  0
  4  5  1  0
  5  6  2  0
  6  7  1  0
  7  8  2  0
  8  9  1  0
  9 10  2  0
 10 11  1  0
 11 12  2  0
  6 13  1  0
 13 14  2  0
 14 15  1  0
 15 16  2  0
 16 17  1  0
  2 18  1  0
 18 19  1  0
 20 19  1  1
 20 21  1  0
 21 22  1  0
 22 23  1  0
 23 24  1  0
 24 25  1  0
 25 26  1  0
 26 27  1  0
 27 28  1  0
 28 29  1  0
 29 30  1  0
 23 31  1  0
 20 32  1  0
 32 33  2  0
 33 34  1  0
 34 35  2  0
 35 36  1  0
 36 37  2  0
 17  3  1  0
 37 18  1  0
 16  5  1  0
 31 20  1  0
 37 32  1  0
 12  7  1  0
 30 25  1  0
  4 38  1  0
  8 39  1  0
  9 40  1  0
 10 41  1  0
 11 42  1  0
 13 43  1  0
 14 44  1  0
 15 45  1  0
 17 46  1  0
 19 47  1  0
 19 48  1  0
 21 49  1  0
 21 50  1  0
 22 51  1  0
 22 52  1  0
 24 53  1  0
 24 54  1  0
 25 55  1  6
 26 56  1  0
 26 57  1  0
 27 58  1  0
 27 59  1  0
 28 60  1  0
 28 61  1  0
 29 62  1  0
 30 63  1  0
 30 64  1  0
 31 65  1  0
 31 66  1  0
 33 67  1  0
 34 68  1  0
 35 69  1  0
 36 70  1  0
M  END
>  <smiles>  (8) 
O=C(c1cc2c(-c3ccccn3)cccc2[nH]1)N1C[C@]2(CCN(CC3CCCNC3)C2)c2ccccc21

>  <score_type>  (8) 
oracle

>  <origin>  (8) 
autodockgpu

>  <m_score__min__energy>  (8) 
-10.640000000000001

>  <m_primary>  (8) 
energy

>  <rmsd>  (8) 
2.9823398925137554

>  <m_score__min__rmsd>  (8) 
2.9823398925137554

>  <meeko>  (8) 
{"free_energy": -9.77, "intermolecular_energy": -11.26, "internal_energy": -1.83, "cluster_size": 30, "cluster_id": 1, "rank_in_cluster": 18}

>  <energy>  (8) 
-9.96

>  <cluster_rmsd>  (8) 
1.05

>  <cluster>  (8) 
1

$$$$

     RDKit          3D

 70 76  0  0  1  0  0  0  0  0999 V2000
  135.8160   73.6170  223.2510 O   0  0  0  0  0  0  0  0  0  0  0  0
  136.8770   73.3520  222.6090 C   0  0  0  0  0  0  0  0  0  0  0  0
  137.2420   71.9460  222.5520 C   0  0  0  0  0  0  0  0  0  0  0  0
  137.9330   71.2430  223.5280 C   0  0  0  0  0  0  0  0  0  0  0  0
  138.0600   69.9610  223.1150 C   0  0  0  0  0  0  0  0  0  0  0  0
  138.6580   68.8550  223.6580 C   0  0  0  0  0  0  0  0  0  0  0  0
  139.3590   68.7830  224.9120 C   0  0  0  0  0  0  0  0  0  0  0  0
  140.1420   69.7450  225.4850 C   0  0  0  0  0  0  0  0  0  0  0  0
  140.7180   69.5400  226.7470 C   0  0  0  0  0  0  0  0  0  0  0  0
  140.5290   68.3850  227.4620 C   0  0  0  0  0  0  0  0  0  0  0  0
  139.7190   67.4210  226.8490 C   0  0  0  0  0  0  0  0  0  0  0  0
  139.1850   67.6480  225.6440 N   0  0  0  0  0  0  0  0  0  0  0  0
  138.6030   67.6940  222.8970 C   0  0  0  0  0  0  0  0  0  0  0  0
  137.9880   67.6320  221.6660 C   0  0  0  0  0  0  0  0  0  0  0  0
  137.3850   68.7440  221.1230 C   0  0  0  0  0  0  0  0  0  0  0  0
  137.4330   69.9050  221.8680 C   0  0  0  0  0  0  0  0  0  0  0  0
  136.9430   71.1120  221.5440 N   0  0  0  0  0  0  0  0  0  0  0  0
  137.6400   74.4020  221.9900 N   0  0  0  0  0  0  0  0  0  0  0  0
  137.0200   75.6350  221.5680 C   0  0  0  0  0  0  0  0  0  0  0  0
  138.1490   76.4880  221.0940 C   0  0  1  0  0  0  0  0  0  0  0  0
  137.9270   77.0110  219.6930 C   0  0  0  0  0  0  0  0  0  0  0  0
  138.4650   78.4040  219.7950 C   0  0  0  0  0  0  0  0  0  0  0  0
  138.5080   78.8340  221.1360 N   0  0  0  0  0  0  0  0  0  0  0  0
  139.6050   79.5830  221.5890 C   0  0  0  0  0  0  0  0  0  0  0  0
  140.2230   79.2670  222.8980 C   0  0  2  0  0  0  0  0  0  0  0  0
  140.4050   80.4330  223.8180 C   0  0  0  0  0  0  0  0  0  0  0  0
  141.6960   81.1790  223.6590 C   0  0  0  0  0  0  0  0  0  0  0  0
  142.8930   80.3240  223.4490 C   0  0  0  0  0  0  0  0  0  0  0  0
  142.6960   79.0610  222.8560 N   0  0  0  0  0  0  0  0  0  0  0  0
  141.4420   78.4350  222.9170 C   0  0  0  0  0  0  0  0  0  0  0  0
  138.2310   77.6990  221.9580 C   0  0  0  0  0  0  0  0  0  0  0  0
  139.3250   75.6150  221.1840 C   0  0  0  0  0  0  0  0  0  0  0  0
  140.6390   75.8870  220.8090 C   0  0  0  0  0  0  0  0  0  0  0  0
  141.6550   74.9650  220.9500 C   0  0  0  0  0  0  0  0  0  0  0  0
  141.3550   73.7320  221.4820 C   0  0  0  0  0  0  0  0  0  0  0  0
  140.0560   73.4830  221.8440 C   0  0  0  0  0  0  0  0  0  0  0  0
  139.0260   74.3840  221.7130 C   0  0  0  0  0  0  0  0  0  0  0  0
  138.3121   71.6565  224.4742 H   0  0  0  0  0  0  0  0  0  0  0  0
  140.3223   70.6897  224.9511 H   0  0  0  0  0  0  0  0  0  0  0  0
  141.3442   70.3344  227.1792 H   0  0  0  0  0  0  0  0  0  0  0  0
  140.9834   68.2264  228.4511 H   0  0  0  0  0  0  0  0  0  0  0  0
  139.5203   66.4690  227.3630 H   0  0  0  0  0  0  0  0  0  0  0  0
  139.0721   66.7824  223.2958 H   0  0  0  0  0  0  0  0  0  0  0  0
  137.9786   66.6827  221.1103 H   0  0  0  0  0  0  0  0  0  0  0  0
  136.8885   68.7090  220.1420 H   0  0  0  0  0  0  0  0  0  0  0  0
  136.4210   71.3860  220.6740 H   0  0  0  0  0  0  0  0  0  0  0  0
  136.3055   75.4499  220.7524 H   0  0  0  0  0  0  0  0  0  0  0  0
  136.4518   76.1126  222.3798 H   0  0  0  0  0  0  0  0  0  0  0  0
  138.4851   76.4198  218.9520 H   0  0  0  0  0  0  0  0  0  0  0  0
  136.8794   76.9622  219.3610 H   0  0  0  0  0  0  0  0  0  0  0  0
  139.4823   78.4277  219.3773 H   0  0  0  0  0  0  0  0  0  0  0  0
  137.8007   79.0772  219.2333 H   0  0  0  0  0  0  0  0  0  0  0  0
  140.3953   79.4806  220.8308 H   0  0  0  0  0  0  0  0  0  0  0  0
  139.1821   80.5868  221.7427 H   0  0  0  0  0  0  0  0  0  0  0  0
  139.4221   78.6195  223.2842 H   0  0  0  0  0  0  0  0  0  0  0  0
  139.5804   81.1388  223.6394 H   0  0  0  0  0  0  0  0  0  0  0  0
  140.4169   80.0179  224.8366 H   0  0  0  0  0  0  0  0  0  0  0  0
  141.5986   81.8488  222.7919 H   0  0  0  0  0  0  0  0  0  0  0  0
  141.8616   81.7128  224.6064 H   0  0  0  0  0  0  0  0  0  0  0  0
  143.5891   80.8840  222.8073 H   0  0  0  0  0  0  0  0  0  0  0  0
  143.2600   80.1030  224.4622 H   0  0  0  0  0  0  0  0  0  0  0  0
  143.2310   78.8820  221.9960 H   0  0  0  0  0  0  0  0  0  0  0  0
  141.3801   77.7536  222.0557 H   0  0  0  0  0  0  0  0  0  0  0  0
  141.4281   77.9711  223.9143 H   0  0  0  0  0  0  0  0  0  0  0  0
  139.0363   77.5722  222.6965 H   0  0  0  0  0  0  0  0  0  0  0  0
  137.2780   77.8451  222.4875 H   0  0  0  0  0  0  0  0  0  0  0  0
  140.8749   76.8740  220.3846 H   0  0  0  0  0  0  0  0  0  0  0  0
  142.6827   75.2100  220.6438 H   0  0  0  0  0  0  0  0  0  0  0  0
  142.1351   72.9677  221.6132 H   0  0  0  0  0  0  0  0  0  0  0  0
  139.8223   72.4953  222.2680 H   0  0  0  0  0  0  0  0  0  0  0  0
  1  2  2  0
  2  3  1  0
  3  4  2  0
  4  5  1  0
  5  6  2  0
  6  7  1  0
  7  8  2  0
  8  9  1  0
  9 10  2  0
 10 11  1  0
 11 12  2  0
  6 13  1  0
 13 14  2  0
 14 15  1  0
 15 16  2  0
 16 17  1  0
  2 18  1  0
 18 19  1  0
 20 19  1  1
 20 21  1  0
 21 22  1  0
 22 23  1  0
 23 24  1  0
 24 25  1  0
 25 26  1  0
 26 27  1  0
 27 28  1  0
 28 29  1  0
 29 30  1  0
 23 31  1  0
 20 32  1  0
 32 33  2  0
 33 34  1  0
 34 35  2  0
 35 36  1  0
 36 37  2  0
 17  3  1  0
 37 18  1  0
 16  5  1  0
 31 20  1  0
 37 32  1  0
 12  7  1  0
 30 25  1  0
  4 38  1  0
  8 39  1  0
  9 40  1  0
 10 41  1  0
 11 42  1  0
 13 43  1  0
 14 44  1  0
 15 45  1  0
 17 46  1  0
 19 47  1  0
 19 48  1  0
 21 49  1  0
 21 50  1  0
 22 51  1  0
 22 52  1  0
 24 53  1  0
 24 54  1  0
 25 55  1  1
 26 56  1  0
 26 57  1  0
 27 58  1  0
 27 59  1  0
 28 60  1  0
 28 61  1  0
 29 62  1  0
 30 63  1  0
 30 64  1  0
 31 65  1  0
 31 66  1  0
 33 67  1  0
 34 68  1  0
 35 69  1  0
 36 70  1  0
M  END
>  <smiles>  (9) 
O=C(c1cc2c(-c3ccccn3)cccc2[nH]1)N1C[C@]2(CCN(CC3CCCNC3)C2)c2ccccc21

>  <score_type>  (9) 
oracle

>  <origin>  (9) 
autodockgpu

>  <m_score__min__energy>  (9) 
-10.640000000000001

>  <m_primary>  (9) 
energy

>  <rmsd>  (9) 
2.9854827950942333

>  <m_score__min__rmsd>  (9) 
2.9854827950942333

>  <meeko>  (9) 
{"free_energy": -8.97, "intermolecular_energy": -10.46, "internal_energy": -1.94, "cluster_size": 30, "cluster_id": 1, "rank_in_cluster": 30}

>  <energy>  (9) 
-9.96

>  <cluster_rmsd>  (9) 
1.01

>  <cluster>  (9) 
1

$$$$

     RDKit          3D

 70 76  0  0  1  0  0  0  0  0999 V2000
  139.0300   71.7650  219.0490 O   0  0  0  0  0  0  0  0  0  0  0  0
  139.5360   72.0820  220.1680 C   0  0  0  0  0  0  0  0  0  0  0  0
  139.4470   71.0680  221.2060 C   0  0  0  0  0  0  0  0  0  0  0  0
  139.7880   71.2360  222.5400 C   0  0  0  0  0  0  0  0  0  0  0  0
  139.5480   70.0730  223.1880 C   0  0  0  0  0  0  0  0  0  0  0  0
  139.7160   69.6690  224.4860 C   0  0  0  0  0  0  0  0  0  0  0  0
  140.2370   70.4550  225.5720 C   0  0  0  0  0  0  0  0  0  0  0  0
  141.0750   71.5310  225.4940 C   0  0  0  0  0  0  0  0  0  0  0  0
  141.4530   72.2280  226.6500 C   0  0  0  0  0  0  0  0  0  0  0  0
  141.0100   71.8740  227.8990 C   0  0  0  0  0  0  0  0  0  0  0  0
  140.1510   70.7690  227.9440 C   0  0  0  0  0  0  0  0  0  0  0  0
  139.8100   70.1260  226.8220 N   0  0  0  0  0  0  0  0  0  0  0  0
  139.3740   68.3520  224.7650 C   0  0  0  0  0  0  0  0  0  0  0  0
  138.8890   67.4830  223.8120 C   0  0  0  0  0  0  0  0  0  0  0  0
  138.7180   67.8920  222.5080 C   0  0  0  0  0  0  0  0  0  0  0  0
  139.0550   69.1980  222.2160 C   0  0  0  0  0  0  0  0  0  0  0  0
  139.0000   69.8160  221.0260 N   0  0  0  0  0  0  0  0  0  0  0  0
  140.1500   73.3680  220.3550 N   0  0  0  0  0  0  0  0  0  0  0  0
  139.3760   74.5240  220.7400 C   0  0  0  0  0  0  0  0  0  0  0  0
  140.3810   75.6080  220.9410 C   0  0  1  0  0  0  0  0  0  0  0  0
  140.0570   76.8480  220.1390 C   0  0  0  0  0  0  0  0  0  0  0  0
  140.4280   77.9390  221.0950 C   0  0  0  0  0  0  0  0  0  0  0  0
  140.4580   77.4620  222.4210 N   0  0  0  0  0  0  0  0  0  0  0  0
  141.4710   77.8970  223.2900 C   0  0  0  0  0  0  0  0  0  0  0  0
  141.6010   79.3390  223.6070 C   0  0  2  0  0  0  0  0  0  0  0  0
  140.3290   80.1250  223.5380 C   0  0  0  0  0  0  0  0  0  0  0  0
  140.0030   80.6970  222.1900 C   0  0  0  0  0  0  0  0  0  0  0  0
  141.1590   81.2650  221.4510 C   0  0  0  0  0  0  0  0  0  0  0  0
  142.4360   80.7410  221.7380 N   0  0  0  0  0  0  0  0  0  0  0  0
  142.6840   80.1050  222.9630 C   0  0  0  0  0  0  0  0  0  0  0  0
  140.3420   76.0400  222.3660 C   0  0  0  0  0  0  0  0  0  0  0  0
  141.6540   75.0010  220.5390 C   0  0  0  0  0  0  0  0  0  0  0  0
  142.9150   75.5900  220.4730 C   0  0  0  0  0  0  0  0  0  0  0  0
  144.0370   74.8950  220.0750 C   0  0  0  0  0  0  0  0  0  0  0  0
  143.9010   73.5700  219.7300 C   0  0  0  0  0  0  0  0  0  0  0  0
  142.6530   73.0080  219.8000 C   0  0  0  0  0  0  0  0  0  0  0  0
  141.5200   73.6790  220.1940 C   0  0  0  0  0  0  0  0  0  0  0  0
  140.1851   72.1564  222.9930 H   0  0  0  0  0  0  0  0  0  0  0  0
  141.4570   71.8537  224.5142 H   0  0  0  0  0  0  0  0  0  0  0  0
  142.1293   73.0900  226.5520 H   0  0  0  0  0  0  0  0  0  0  0  0
  141.3095   72.4216  228.8048 H   0  0  0  0  0  0  0  0  0  0  0  0
  139.7532   70.4268  228.9108 H   0  0  0  0  0  0  0  0  0  0  0  0
  139.4960   67.9856  225.7950 H   0  0  0  0  0  0  0  0  0  0  0  0
  138.6355   66.4509  224.0959 H   0  0  0  0  0  0  0  0  0  0  0  0
  138.3313   67.2103  221.7362 H   0  0  0  0  0  0  0  0  0  0  0  0
  138.6740   69.4220  220.1070 H   0  0  0  0  0  0  0  0  0  0  0  0
  138.6660   74.7968  219.9453 H   0  0  0  0  0  0  0  0  0  0  0  0
  138.7783   74.3400  221.6449 H   0  0  0  0  0  0  0  0  0  0  0  0
  140.6595   76.8991  219.2201 H   0  0  0  0  0  0  0  0  0  0  0  0
  139.0135   76.8946  219.7943 H   0  0  0  0  0  0  0  0  0  0  0  0
  141.4228   78.3264  220.8298 H   0  0  0  0  0  0  0  0  0  0  0  0
  139.6726   78.7357  221.0268 H   0  0  0  0  0  0  0  0  0  0  0  0
  141.3176   77.3735  224.2452 H   0  0  0  0  0  0  0  0  0  0  0  0
  142.3950   77.6734  222.7366 H   0  0  0  0  0  0  0  0  0  0  0  0
  141.9073   79.2309  224.6579 H   0  0  0  0  0  0  0  0  0  0  0  0
  139.5030   79.4621  223.8350 H   0  0  0  0  0  0  0  0  0  0  0  0
  140.4655   80.9855  224.2094 H   0  0  0  0  0  0  0  0  0  0  0  0
  139.5665   79.8954  221.5761 H   0  0  0  0  0  0  0  0  0  0  0  0
  139.3134   81.5346  222.3710 H   0  0  0  0  0  0  0  0  0  0  0  0
  140.9726   81.1097  220.3781 H   0  0  0  0  0  0  0  0  0  0  0  0
  141.2084   82.3157  221.7727 H   0  0  0  0  0  0  0  0  0  0  0  0
  142.9540   80.3590  220.9350 H   0  0  0  0  0  0  0  0  0  0  0  0
  143.5185   79.4071  222.7999 H   0  0  0  0  0  0  0  0  0  0  0  0
  142.8655   80.9376  223.6585 H   0  0  0  0  0  0  0  0  0  0  0  0
  141.1771   75.5798  222.9144 H   0  0  0  0  0  0  0  0  0  0  0  0
  139.3933   75.7252  222.8253 H   0  0  0  0  0  0  0  0  0  0  0  0
  143.0191   76.6497  220.7490 H   0  0  0  0  0  0  0  0  0  0  0  0
  145.0191   75.3887  220.0341 H   0  0  0  0  0  0  0  0  0  0  0  0
  144.7700   72.9781  219.4069 H   0  0  0  0  0  0  0  0  0  0  0  0
  142.5512   71.9486  219.5222 H   0  0  0  0  0  0  0  0  0  0  0  0
  1  2  2  0
  2  3  1  0
  3  4  2  0
  4  5  1  0
  5  6  2  0
  6  7  1  0
  7  8  2  0
  8  9  1  0
  9 10  2  0
 10 11  1  0
 11 12  2  0
  6 13  1  0
 13 14  2  0
 14 15  1  0
 15 16  2  0
 16 17  1  0
  2 18  1  0
 18 19  1  0
 20 19  1  1
 20 21  1  0
 21 22  1  0
 22 23  1  0
 23 24  1  0
 24 25  1  0
 25 26  1  0
 26 27  1  0
 27 28  1  0
 28 29  1  0
 29 30  1  0
 23 31  1  0
 20 32  1  0
 32 33  2  0
 33 34  1  0
 34 35  2  0
 35 36  1  0
 36 37  2  0
 17  3  1  0
 37 18  1  0
 16  5  1  0
 31 20  1  0
 37 32  1  0
 12  7  1  0
 30 25  1  0
  4 38  1  0
  8 39  1  0
  9 40  1  0
 10 41  1  0
 11 42  1  0
 13 43  1  0
 14 44  1  0
 15 45  1  0
 17 46  1  0
 19 47  1  0
 19 48  1  0
 21 49  1  0
 21 50  1  0
 22 51  1  0
 22 52  1  0
 24 53  1  0
 24 54  1  0
 25 55  1  1
 26 56  1  0
 26 57  1  0
 27 58  1  0
 27 59  1  0
 28 60  1  0
 28 61  1  0
 29 62  1  0
 30 63  1  0
 30 64  1  0
 31 65  1  0
 31 66  1  0
 33 67  1  0
 34 68  1  0
 35 69  1  0
 36 70  1  0
M  END
>  <smiles>  (10) 
O=C(c1cc2c(-c3ccccn3)cccc2[nH]1)N1C[C@]2(CCN(CC3CCCNC3)C2)c2ccccc21

>  <score_type>  (10) 
oracle

>  <origin>  (10) 
autodockgpu

>  <m_score__min__energy>  (10) 
-10.640000000000001

>  <m_primary>  (10) 
energy

>  <rmsd>  (10) 
2.7537837467967257

>  <m_score__min__rmsd>  (10) 
2.7537837467967257

>  <meeko>  (10) 
{"free_energy": -9.4, "intermolecular_energy": -10.89, "internal_energy": -1.88, "cluster_size": 30, "cluster_id": 1, "rank_in_cluster": 28}

>  <energy>  (10) 
-9.94

>  <cluster_rmsd>  (10) 
1.09

>  <cluster>  (10) 
1

$$$$

     RDKit          3D

 70 76  0  0  1  0  0  0  0  0999 V2000
  140.1200   74.2100  222.0410 O   0  0  0  0  0  0  0  0  0  0  0  0
  140.5180   73.0080  221.9710 C   0  0  0  0  0  0  0  0  0  0  0  0
  141.8280   72.8140  221.3710 C   0  0  0  0  0  0  0  0  0  0  0  0
  142.3420   71.6120  220.9090 C   0  0  0  0  0  0  0  0  0  0  0  0
  143.5760   71.8450  220.4070 C   0  0  0  0  0  0  0  0  0  0  0  0
  144.5310   71.0370  219.8480 C   0  0  0  0  0  0  0  0  0  0  0  0
  144.4440   69.6170  219.6420 C   0  0  0  0  0  0  0  0  0  0  0  0
  143.3320   68.8870  219.3300 C   0  0  0  0  0  0  0  0  0  0  0  0
  143.4220   67.5050  219.1090 C   0  0  0  0  0  0  0  0  0  0  0  0
  144.6100   66.8240  219.1910 C   0  0  0  0  0  0  0  0  0  0  0  0
  145.7300   67.6010  219.5100 C   0  0  0  0  0  0  0  0  0  0  0  0
  145.6100   68.9170  219.7160 N   0  0  0  0  0  0  0  0  0  0  0  0
  145.7150   71.6600  219.4720 C   0  0  0  0  0  0  0  0  0  0  0  0
  145.9400   73.0090  219.6380 C   0  0  0  0  0  0  0  0  0  0  0  0
  144.9780   73.8200  220.1980 C   0  0  0  0  0  0  0  0  0  0  0  0
  143.7970   73.2150  220.5770 C   0  0  0  0  0  0  0  0  0  0  0  0
  142.7310   73.7840  221.1600 N   0  0  0  0  0  0  0  0  0  0  0  0
  139.6970   71.9360  222.4660 N   0  0  0  0  0  0  0  0  0  0  0  0
  138.4850   71.5410  221.7900 C   0  0  0  0  0  0  0  0  0  0  0  0
  138.0020   70.3440  222.5380 C   0  0  1  0  0  0  0  0  0  0  0  0
  136.5670   70.4890  222.9920 C   0  0  0  0  0  0  0  0  0  0  0  0
  136.0330   69.1080  222.7720 C   0  0  0  0  0  0  0  0  0  0  0  0
  136.8300   68.3960  221.8530 N   0  0  0  0  0  0  0  0  0  0  0  0
  137.1030   67.0380  222.0790 C   0  0  0  0  0  0  0  0  0  0  0  0
  137.7490   66.2310  221.0170 C   0  0  2  0  0  0  0  0  0  0  0  0
  139.1980   65.9260  221.2380 C   0  0  0  0  0  0  0  0  0  0  0  0
  140.1550   66.9510  220.7070 C   0  0  0  0  0  0  0  0  0  0  0  0
  139.8040   67.5090  219.3760 C   0  0  0  0  0  0  0  0  0  0  0  0
  138.4420   67.5160  219.0120 N   0  0  0  0  0  0  0  0  0  0  0  0
  137.5410   66.6240  219.6110 C   0  0  0  0  0  0  0  0  0  0  0  0
  138.0070   69.1700  221.6190 C   0  0  0  0  0  0  0  0  0  0  0  0
  138.9340   70.2200  223.6640 C   0  0  0  0  0  0  0  0  0  0  0  0
  138.9120   69.3030  224.7120 C   0  0  0  0  0  0  0  0  0  0  0  0
  139.8600   69.3000  225.7140 C   0  0  0  0  0  0  0  0  0  0  0  0
  140.8640   70.2400  225.6710 C   0  0  0  0  0  0  0  0  0  0  0  0
  140.8680   71.1340  224.6310 C   0  0  0  0  0  0  0  0  0  0  0  0
  139.9360   71.1580  223.6220 C   0  0  0  0  0  0  0  0  0  0  0  0
  141.8338   70.6371  220.9446 H   0  0  0  0  0  0  0  0  0  0  0  0
  142.3561   69.3884  219.2514 H   0  0  0  0  0  0  0  0  0  0  0  0
  142.5070   66.9470  218.8610 H   0  0  0  0  0  0  0  0  0  0  0  0
  144.6780   65.7399  219.0177 H   0  0  0  0  0  0  0  0  0  0  0  0
  146.7181   67.1246  219.5920 H   0  0  0  0  0  0  0  0  0  0  0  0
  146.5095   71.0475  219.0208 H   0  0  0  0  0  0  0  0  0  0  0  0
  146.8991   73.4434  219.3196 H   0  0  0  0  0  0  0  0  0  0  0  0
  145.1432   74.8987  220.3366 H   0  0  0  0  0  0  0  0  0  0  0  0
  142.5960   74.7940  221.4160 H   0  0  0  0  0  0  0  0  0  0  0  0
  137.7392   72.3487  221.8287 H   0  0  0  0  0  0  0  0  0  0  0  0
  138.6563   71.3232  220.7255 H   0  0  0  0  0  0  0  0  0  0  0  0
  136.5098   70.7759  224.0524 H   0  0  0  0  0  0  0  0  0  0  0  0
  136.0086   71.2720  222.4580 H   0  0  0  0  0  0  0  0  0  0  0  0
  136.0229   68.5697  223.7312 H   0  0  0  0  0  0  0  0  0  0  0  0
  135.0151   69.1882  222.3628 H   0  0  0  0  0  0  0  0  0  0  0  0
  137.7583   66.9871  222.9610 H   0  0  0  0  0  0  0  0  0  0  0  0
  136.1033   66.5880  222.1695 H   0  0  0  0  0  0  0  0  0  0  0  0
  137.1581   65.3130  221.1519 H   0  0  0  0  0  0  0  0  0  0  0  0
  139.3648   65.8338  222.3214 H   0  0  0  0  0  0  0  0  0  0  0  0
  139.4031   64.9998  220.6811 H   0  0  0  0  0  0  0  0  0  0  0  0
  140.1968   67.7830  221.4253 H   0  0  0  0  0  0  0  0  0  0  0  0
  141.1179   66.4348  220.5792 H   0  0  0  0  0  0  0  0  0  0  0  0
  140.1569   68.5506  219.3519 H   0  0  0  0  0  0  0  0  0  0  0  0
  140.2839   66.8329  218.6531 H   0  0  0  0  0  0  0  0  0  0  0  0
  138.0490   68.4350  218.7680 H   0  0  0  0  0  0  0  0  0  0  0  0
  136.5437   67.0840  219.5495 H   0  0  0  0  0  0  0  0  0  0  0  0
  137.6872   65.6879  219.0521 H   0  0  0  0  0  0  0  0  0  0  0  0
  138.8982   68.5544  221.8108 H   0  0  0  0  0  0  0  0  0  0  0  0
  138.0260   69.5138  220.5743 H   0  0  0  0  0  0  0  0  0  0  0  0
  138.1082   68.5527  224.7418 H   0  0  0  0  0  0  0  0  0  0  0  0
  139.8144   68.5628  226.5291 H   0  0  0  0  0  0  0  0  0  0  0  0
  141.6413   70.2734  226.4487 H   0  0  0  0  0  0  0  0  0  0  0  0
  141.6728   71.8834  224.6028 H   0  0  0  0  0  0  0  0  0  0  0  0
  1  2  2  0
  2  3  1  0
  3  4  2  0
  4  5  1  0
  5  6  2  0
  6  7  1  0
  7  8  2  0
  8  9  1  0
  9 10  2  0
 10 11  1  0
 11 12  2  0
  6 13  1  0
 13 14  2  0
 14 15  1  0
 15 16  2  0
 16 17  1  0
  2 18  1  0
 18 19  1  0
 20 19  1  6
 20 21  1  0
 21 22  1  0
 22 23  1  0
 23 24  1  0
 24 25  1  0
 25 26  1  0
 26 27  1  0
 27 28  1  0
 28 29  1  0
 29 30  1  0
 23 31  1  0
 20 32  1  0
 32 33  2  0
 33 34  1  0
 34 35  2  0
 35 36  1  0
 36 37  2  0
 17  3  1  0
 37 18  1  0
 16  5  1  0
 31 20  1  0
 37 32  1  0
 12  7  1  0
 30 25  1  0
  4 38  1  0
  8 39  1  0
  9 40  1  0
 10 41  1  0
 11 42  1  0
 13 43  1  0
 14 44  1  0
 15 45  1  0
 17 46  1  0
 19 47  1  0
 19 48  1  0
 21 49  1  0
 21 50  1  0
 22 51  1  0
 22 52  1  0
 24 53  1  0
 24 54  1  0
 25 55  1  6
 26 56  1  0
 26 57  1  0
 27 58  1  0
 27 59  1  0
 28 60  1  0
 28 61  1  0
 29 62  1  0
 30 63  1  0
 30 64  1  0
 31 65  1  0
 31 66  1  0
 33 67  1  0
 34 68  1  0
 35 69  1  0
 36 70  1  0
M  END
>  <smiles>  (11) 
O=C(c1cc2c(-c3ccccn3)cccc2[nH]1)N1C[C@]2(CCN(CC3CCCNC3)C2)c2ccccc21

>  <score_type>  (11) 
oracle

>  <origin>  (11) 
autodockgpu

>  <m_score__min__energy>  (11) 
-10.640000000000001

>  <m_primary>  (11) 
energy

>  <rmsd>  (11) 
9.95219390583021

>  <m_score__min__rmsd>  (11) 
9.95219390583021

>  <meeko>  (11) 
{"free_energy": -8.47, "intermolecular_energy": -9.97, "internal_energy": -2.56, "cluster_size": 1, "cluster_id": 9, "rank_in_cluster": 1}

>  <energy>  (11) 
-9.94

>  <cluster_rmsd>  (11) 
0.97

>  <cluster>  (11) 
1

$$$$

     RDKit          3D

 70 76  0  0  1  0  0  0  0  0999 V2000
  142.0510   72.0300  221.5450 O   0  0  0  0  0  0  0  0  0  0  0  0
  140.9630   72.6130  221.8330 C   0  0  0  0  0  0  0  0  0  0  0  0
  139.9980   71.8140  222.5700 C   0  0  0  0  0  0  0  0  0  0  0  0
  140.2350   71.1430  223.7610 C   0  0  0  0  0  0  0  0  0  0  0  0
  139.0880   70.5320  224.1380 C   0  0  0  0  0  0  0  0  0  0  0  0
  138.7550   69.7320  225.1990 C   0  0  0  0  0  0  0  0  0  0  0  0
  139.6230   69.3110  226.2650 C   0  0  0  0  0  0  0  0  0  0  0  0
  139.9650   70.0120  227.3870 C   0  0  0  0  0  0  0  0  0  0  0  0
  140.7880   69.4380  228.3660 C   0  0  0  0  0  0  0  0  0  0  0  0
  141.2830   68.1640  228.2540 C   0  0  0  0  0  0  0  0  0  0  0  0
  140.9130   67.4720  227.0950 C   0  0  0  0  0  0  0  0  0  0  0  0
  140.1270   68.0490  226.1790 N   0  0  0  0  0  0  0  0  0  0  0  0
  137.4490   69.2600  225.2210 C   0  0  0  0  0  0  0  0  0  0  0  0
  136.5230   69.5640  224.2480 C   0  0  0  0  0  0  0  0  0  0  0  0
  136.8580   70.3700  223.1840 C   0  0  0  0  0  0  0  0  0  0  0  0
  138.1530   70.8460  223.1470 C   0  0  0  0  0  0  0  0  0  0  0  0
  138.7190   71.6210  222.2090 N   0  0  0  0  0  0  0  0  0  0  0  0
  140.7370   73.9770  221.4390 N   0  0  0  0  0  0  0  0  0  0  0  0
  139.4710   74.6300  221.6730 C   0  0  0  0  0  0  0  0  0  0  0  0
  139.6810   76.0400  221.2350 C   0  0  1  0  0  0  0  0  0  0  0  0
  138.6430   76.4930  220.2330 C   0  0  0  0  0  0  0  0  0  0  0  0
  138.3900   77.9030  220.6670 C   0  0  0  0  0  0  0  0  0  0  0  0
  138.7890   78.1020  222.0040 N   0  0  0  0  0  0  0  0  0  0  0  0
  139.4300   79.2970  222.3650 C   0  0  0  0  0  0  0  0  0  0  0  0
  140.8660   79.4870  222.0500 C   0  0  2  0  0  0  0  0  0  0  0  0
  141.8210   78.9090  223.0470 C   0  0  0  0  0  0  0  0  0  0  0  0
  142.1950   79.8210  224.1770 C   0  0  0  0  0  0  0  0  0  0  0  0
  142.4360   81.2350  223.7900 C   0  0  0  0  0  0  0  0  0  0  0  0
  141.7730   81.7190  222.6450 N   0  0  0  0  0  0  0  0  0  0  0  0
  141.3260   80.8320  221.6540 C   0  0  0  0  0  0  0  0  0  0  0  0
  139.5090   76.9380  222.4120 C   0  0  0  0  0  0  0  0  0  0  0  0
  141.0370   76.0490  220.6770 C   0  0  0  0  0  0  0  0  0  0  0  0
  141.7200   77.1000  220.0700 C   0  0  0  0  0  0  0  0  0  0  0  0
  143.0040   76.9680  219.5850 C   0  0  0  0  0  0  0  0  0  0  0  0
  143.6300   75.7480  219.7070 C   0  0  0  0  0  0  0  0  0  0  0  0
  142.9410   74.7250  220.3050 C   0  0  0  0  0  0  0  0  0  0  0  0
  141.6620   74.8320  220.7970 C   0  0  0  0  0  0  0  0  0  0  0  0
  141.1906   71.1129  224.3050 H   0  0  0  0  0  0  0  0  0  0  0  0
  139.5907   71.0373  227.5234 H   0  0  0  0  0  0  0  0  0  0  0  0
  141.0460   70.0308  229.2560 H   0  0  0  0  0  0  0  0  0  0  0  0
  141.9281   67.7157  229.0240 H   0  0  0  0  0  0  0  0  0  0  0  0
  141.2717   66.4444  226.9359 H   0  0  0  0  0  0  0  0  0  0  0  0
  137.1397   68.6128  226.0549 H   0  0  0  0  0  0  0  0  0  0  0  0
  135.5035   69.1578  224.3222 H   0  0  0  0  0  0  0  0  0  0  0  0
  136.1285   70.6228  222.4005 H   0  0  0  0  0  0  0  0  0  0  0  0
  138.2750   72.0190  221.3440 H   0  0  0  0  0  0  0  0  0  0  0  0
  138.6750   74.1550  221.0807 H   0  0  0  0  0  0  0  0  0  0  0  0
  139.1594   74.5650  222.7260 H   0  0  0  0  0  0  0  0  0  0  0  0
  139.0349   76.4547  219.2059 H   0  0  0  0  0  0  0  0  0  0  0  0
  137.7401   75.8650  220.2135 H   0  0  0  0  0  0  0  0  0  0  0  0
  138.9571   78.5860  220.0175 H   0  0  0  0  0  0  0  0  0  0  0  0
  137.3111   78.1036  220.5910 H   0  0  0  0  0  0  0  0  0  0  0  0
  138.8844   80.1134  221.8692 H   0  0  0  0  0  0  0  0  0  0  0  0
  139.4109   79.2745  223.4646 H   0  0  0  0  0  0  0  0  0  0  0  0
  140.8946   78.8872  221.1283 H   0  0  0  0  0  0  0  0  0  0  0  0
  141.3602   78.0070  223.4761 H   0  0  0  0  0  0  0  0  0  0  0  0
  142.7519   78.7080  222.4965 H   0  0  0  0  0  0  0  0  0  0  0  0
  141.3786   79.8035  224.9140 H   0  0  0  0  0  0  0  0  0  0  0  0
  143.1495   79.4440  224.5730 H   0  0  0  0  0  0  0  0  0  0  0  0
  142.1307   81.8652  224.6383 H   0  0  0  0  0  0  0  0  0  0  0  0
  143.5047   81.2764  223.5329 H   0  0  0  0  0  0  0  0  0  0  0  0
  141.1800   82.5480  222.7860 H   0  0  0  0  0  0  0  0  0  0  0  0
  140.4858   81.3211  221.1394 H   0  0  0  0  0  0  0  0  0  0  0  0
  142.2254   80.6356  221.0519 H   0  0  0  0  0  0  0  0  0  0  0  0
  140.4956   77.2312  222.8002 H   0  0  0  0  0  0  0  0  0  0  0  0
  138.9527   76.4136  223.2029 H   0  0  0  0  0  0  0  0  0  0  0  0
  141.2158   78.0729  219.9738 H   0  0  0  0  0  0  0  0  0  0  0  0
  143.5165   77.8183  219.1113 H   0  0  0  0  0  0  0  0  0  0  0  0
  144.6543   75.5983  219.3350 H   0  0  0  0  0  0  0  0  0  0  0  0
  143.4460   73.7522  220.3974 H   0  0  0  0  0  0  0  0  0  0  0  0
  1  2  2  0
  2  3  1  0
  3  4  2  0
  4  5  1  0
  5  6  2  0
  6  7  1  0
  7  8  2  0
  8  9  1  0
  9 10  2  0
 10 11  1  0
 11 12  2  0
  6 13  1  0
 13 14  2  0
 14 15  1  0
 15 16  2  0
 16 17  1  0
  2 18  1  0
 18 19  1  0
 20 19  1  1
 20 21  1  0
 21 22  1  0
 22 23  1  0
 23 24  1  0
 24 25  1  0
 25 26  1  0
 26 27  1  0
 27 28  1  0
 28 29  1  0
 29 30  1  0
 23 31  1  0
 20 32  1  0
 32 33  2  0
 33 34  1  0
 34 35  2  0
 35 36  1  0
 36 37  2  0
 17  3  1  0
 37 18  1  0
 16  5  1  0
 31 20  1  0
 37 32  1  0
 12  7  1  0
 30 25  1  0
  4 38  1  0
  8 39  1  0
  9 40  1  0
 10 41  1  0
 11 42  1  0
 13 43  1  0
 14 44  1  0
 15 45  1  0
 17 46  1  0
 19 47  1  0
 19 48  1  0
 21 49  1  0
 21 50  1  0
 22 51  1  0
 22 52  1  0
 24 53  1  0
 24 54  1  0
 25 55  1  6
 26 56  1  0
 26 57  1  0
 27 58  1  0
 27 59  1  0
 28 60  1  0
 28 61  1  0
 29 62  1  0
 30 63  1  0
 30 64  1  0
 31 65  1  0
 31 66  1  0
 33 67  1  0
 34 68  1  0
 35 69  1  0
 36 70  1  0
M  END
>  <smiles>  (12) 
O=C(c1cc2c(-c3ccccn3)cccc2[nH]1)N1C[C@]2(CCN(CC3CCCNC3)C2)c2ccccc21

>  <score_type>  (12) 
oracle

>  <origin>  (12) 
autodockgpu

>  <m_score__min__energy>  (12) 
-10.640000000000001

>  <m_primary>  (12) 
energy

>  <rmsd>  (12) 
2.86853398343419

>  <m_score__min__rmsd>  (12) 
2.86853398343419

>  <meeko>  (12) 
{"free_energy": -9.94, "intermolecular_energy": -11.43, "internal_energy": -1.82, "cluster_size": 30, "cluster_id": 1, "rank_in_cluster": 11}

>  <energy>  (12) 
-9.93

>  <cluster_rmsd>  (12) 
0.97

>  <cluster>  (12) 
1

$$$$

     RDKit          3D

 70 76  0  0  1  0  0  0  0  0999 V2000
  139.5180   72.4790  219.6000 O   0  0  0  0  0  0  0  0  0  0  0  0
  139.4450   72.7380  220.8390 C   0  0  0  0  0  0  0  0  0  0  0  0
  139.3630   71.5830  221.7180 C   0  0  0  0  0  0  0  0  0  0  0  0
  139.6520   71.5680  223.0740 C   0  0  0  0  0  0  0  0  0  0  0  0
  139.4370   70.3160  223.5390 C   0  0  0  0  0  0  0  0  0  0  0  0
  139.5780   69.7350  224.7720 C   0  0  0  0  0  0  0  0  0  0  0  0
  140.0300   70.3740  225.9780 C   0  0  0  0  0  0  0  0  0  0  0  0
  139.8010   69.9790  227.2660 C   0  0  0  0  0  0  0  0  0  0  0  0
  140.3590   70.6870  228.3410 C   0  0  0  0  0  0  0  0  0  0  0  0
  141.1510   71.7910  228.1610 C   0  0  0  0  0  0  0  0  0  0  0  0
  141.3690   72.1680  226.8300 C   0  0  0  0  0  0  0  0  0  0  0  0
  140.8210   71.4720  225.8270 N   0  0  0  0  0  0  0  0  0  0  0  0
  139.2800   68.3800  224.8460 C   0  0  0  0  0  0  0  0  0  0  0  0
  138.8630   67.6420  223.7610 C   0  0  0  0  0  0  0  0  0  0  0  0
  138.7190   68.2280  222.5230 C   0  0  0  0  0  0  0  0  0  0  0  0
  139.0130   69.5730  222.4340 C   0  0  0  0  0  0  0  0  0  0  0  0
  138.9730   70.3540  221.3430 N   0  0  0  0  0  0  0  0  0  0  0  0
  139.4480   74.0980  221.3030 N   0  0  0  0  0  0  0  0  0  0  0  0
  140.6260   74.9260  221.2040 C   0  0  0  0  0  0  0  0  0  0  0  0
  140.1890   76.2720  221.6770 C   0  0  1  0  0  0  0  0  0  0  0  0
  141.0710   76.8090  222.7810 C   0  0  0  0  0  0  0  0  0  0  0  0
  141.1600   78.2610  222.4260 C   0  0  0  0  0  0  0  0  0  0  0  0
  140.8440   78.4710  221.0680 N   0  0  0  0  0  0  0  0  0  0  0  0
  140.0750   79.5850  220.7010 C   0  0  0  0  0  0  0  0  0  0  0  0
  140.3460   80.9040  221.3210 C   0  0  2  0  0  0  0  0  0  0  0  0
  141.7820   81.3270  221.3220 C   0  0  0  0  0  0  0  0  0  0  0  0
  142.5820   80.8740  222.5070 C   0  0  0  0  0  0  0  0  0  0  0  0
  141.8770   80.9630  223.8110 C   0  0  0  0  0  0  0  0  0  0  0  0
  140.4710   80.8790  223.7990 N   0  0  0  0  0  0  0  0  0  0  0  0
  139.7500   81.1960  222.6390 C   0  0  0  0  0  0  0  0  0  0  0  0
  140.3280   77.2430  220.5550 C   0  0  0  0  0  0  0  0  0  0  0  0
  138.8040   76.0690  222.1170 C   0  0  0  0  0  0  0  0  0  0  0  0
  137.9360   76.9870  222.7040 C   0  0  0  0  0  0  0  0  0  0  0  0
  136.6480   76.6580  223.0720 C   0  0  0  0  0  0  0  0  0  0  0  0
  136.2090   75.3730  222.8500 C   0  0  0  0  0  0  0  0  0  0  0  0
  137.0790   74.4840  222.2730 C   0  0  0  0  0  0  0  0  0  0  0  0
  138.3650   74.7870  221.8970 C   0  0  0  0  0  0  0  0  0  0  0  0
  139.9967   72.4264  223.6692 H   0  0  0  0  0  0  0  0  0  0  0  0
  139.1730   69.0973  227.4618 H   0  0  0  0  0  0  0  0  0  0  0  0
  140.1534   70.3436  229.3656 H   0  0  0  0  0  0  0  0  0  0  0  0
  141.5866   72.3443  229.0061 H   0  0  0  0  0  0  0  0  0  0  0  0
  141.9961   73.0438  226.6071 H   0  0  0  0  0  0  0  0  0  0  0  0
  139.3820   67.8731  225.8169 H   0  0  0  0  0  0  0  0  0  0  0  0
  138.6422   66.5715  223.8845 H   0  0  0  0  0  0  0  0  0  0  0  0
  138.3857   67.6515  221.6475 H   0  0  0  0  0  0  0  0  0  0  0  0
  138.6940   70.0860  220.3660 H   0  0  0  0  0  0  0  0  0  0  0  0
  141.4302   74.5332  221.8435 H   0  0  0  0  0  0  0  0  0  0  0  0
  141.0263   74.9564  220.1799 H   0  0  0  0  0  0  0  0  0  0  0  0
  140.6078   76.6661  223.7685 H   0  0  0  0  0  0  0  0  0  0  0  0
  142.0477   76.3082  222.8531 H   0  0  0  0  0  0  0  0  0  0  0  0
  140.4542   78.8277  223.0511 H   0  0  0  0  0  0  0  0  0  0  0  0
  142.1911   78.6015  222.6019 H   0  0  0  0  0  0  0  0  0  0  0  0
  140.1969   79.7124  219.6152 H   0  0  0  0  0  0  0  0  0  0  0  0
  139.0692   79.3326  221.0680 H   0  0  0  0  0  0  0  0  0  0  0  0
  139.7844   81.5210  220.6041 H   0  0  0  0  0  0  0  0  0  0  0  0
  142.2565   80.9214  220.4163 H   0  0  0  0  0  0  0  0  0  0  0  0
  141.7756   82.4263  221.3612 H   0  0  0  0  0  0  0  0  0  0  0  0
  142.8680   79.8243  222.3446 H   0  0  0  0  0  0  0  0  0  0  0  0
  143.4428   81.5555  222.5756 H   0  0  0  0  0  0  0  0  0  0  0  0
  142.2503   80.1441  224.4435 H   0  0  0  0  0  0  0  0  0  0  0  0
  142.0932   81.9776  224.1769 H   0  0  0  0  0  0  0  0  0  0  0  0
  140.0610   80.1310  224.3760 H   0  0  0  0  0  0  0  0  0  0  0  0
  138.7988   80.6461  222.6910 H   0  0  0  0  0  0  0  0  0  0  0  0
  139.6866   82.2939  222.6611 H   0  0  0  0  0  0  0  0  0  0  0  0
  139.3444   77.4191  220.0950 H   0  0  0  0  0  0  0  0  0  0  0  0
  141.0132   76.8391  219.7951 H   0  0  0  0  0  0  0  0  0  0  0  0
  138.2912   78.0130  222.8807 H   0  0  0  0  0  0  0  0  0  0  0  0
  135.9864   77.4064  223.5328 H   0  0  0  0  0  0  0  0  0  0  0  0
  135.1893   75.0676  223.1275 H   0  0  0  0  0  0  0  0  0  0  0  0
  136.7227   73.4579  222.0993 H   0  0  0  0  0  0  0  0  0  0  0  0
  1  2  2  0
  2  3  1  0
  3  4  2  0
  4  5  1  0
  5  6  2  0
  6  7  1  0
  7  8  2  0
  8  9  1  0
  9 10  2  0
 10 11  1  0
 11 12  2  0
  6 13  1  0
 13 14  2  0
 14 15  1  0
 15 16  2  0
 16 17  1  0
  2 18  1  0
 18 19  1  0
 20 19  1  6
 20 21  1  0
 21 22  1  0
 22 23  1  0
 23 24  1  0
 24 25  1  0
 25 26  1  0
 26 27  1  0
 27 28  1  0
 28 29  1  0
 29 30  1  0
 23 31  1  0
 20 32  1  0
 32 33  2  0
 33 34  1  0
 34 35  2  0
 35 36  1  0
 36 37  2  0
 17  3  1  0
 37 18  1  0
 16  5  1  0
 31 20  1  0
 37 32  1  0
 12  7  1  0
 30 25  1  0
  4 38  1  0
  8 39  1  0
  9 40  1  0
 10 41  1  0
 11 42  1  0
 13 43  1  0
 14 44  1  0
 15 45  1  0
 17 46  1  0
 19 47  1  0
 19 48  1  0
 21 49  1  0
 21 50  1  0
 22 51  1  0
 22 52  1  0
 24 53  1  0
 24 54  1  0
 25 55  1  6
 26 56  1  0
 26 57  1  0
 27 58  1  0
 27 59  1  0
 28 60  1  0
 28 61  1  0
 29 62  1  0
 30 63  1  0
 30 64  1  0
 31 65  1  0
 31 66  1  0
 33 67  1  0
 34 68  1  0
 35 69  1  0
 36 70  1  0
M  END
>  <smiles>  (13) 
O=C(c1cc2c(-c3ccccn3)cccc2[nH]1)N1C[C@]2(CCN(CC3CCCNC3)C2)c2ccccc21

>  <score_type>  (13) 
oracle

>  <origin>  (13) 
autodockgpu

>  <m_score__min__energy>  (13) 
-10.640000000000001

>  <m_primary>  (13) 
energy

>  <rmsd>  (13) 
3.028917875697151

>  <m_score__min__rmsd>  (13) 
3.028917875697151

>  <meeko>  (13) 
{"free_energy": -9.31, "intermolecular_energy": -10.8, "internal_energy": -1.78, "cluster_size": 6, "cluster_id": 5, "rank_in_cluster": 2}

>  <energy>  (13) 
-9.92

>  <cluster_rmsd>  (13) 
1.05

>  <cluster>  (13) 
1

$$$$

     RDKit          3D

 70 76  0  0  1  0  0  0  0  0999 V2000
  137.6200   72.3610  220.0900 O   0  0  0  0  0  0  0  0  0  0  0  0
  138.5780   72.5050  220.9080 C   0  0  0  0  0  0  0  0  0  0  0  0
  138.7920   71.3980  221.8260 C   0  0  0  0  0  0  0  0  0  0  0  0
  139.2720   71.4960  223.1230 C   0  0  0  0  0  0  0  0  0  0  0  0
  139.3120   70.2520  223.6550 C   0  0  0  0  0  0  0  0  0  0  0  0
  139.7110   69.7620  224.8700 C   0  0  0  0  0  0  0  0  0  0  0  0
  140.2320   70.5210  225.9750 C   0  0  0  0  0  0  0  0  0  0  0  0
  141.0890   71.5850  225.9240 C   0  0  0  0  0  0  0  0  0  0  0  0
  141.4660   72.2550  227.0970 C   0  0  0  0  0  0  0  0  0  0  0  0
  141.0020   71.8880  228.3340 C   0  0  0  0  0  0  0  0  0  0  0  0
  140.1240   70.7980  228.3510 C   0  0  0  0  0  0  0  0  0  0  0  0
  139.7860   70.1790  227.2140 N   0  0  0  0  0  0  0  0  0  0  0  0
  139.6290   68.3850  225.0300 C   0  0  0  0  0  0  0  0  0  0  0  0
  139.1740   67.5390  224.0430 C   0  0  0  0  0  0  0  0  0  0  0  0
  138.7700   68.0330  222.8230 C   0  0  0  0  0  0  0  0  0  0  0  0
  138.8480   69.4000  222.6490 C   0  0  0  0  0  0  0  0  0  0  0  0
  138.5370   70.1090  221.5520 N   0  0  0  0  0  0  0  0  0  0  0  0
  139.3770   73.7000  220.8960 N   0  0  0  0  0  0  0  0  0  0  0  0
  138.8000   74.9950  221.1690 C   0  0  0  0  0  0  0  0  0  0  0  0
  139.9580   75.9360  221.1750 C   0  0  1  0  0  0  0  0  0  0  0  0
  139.7550   77.1050  220.2380 C   0  0  0  0  0  0  0  0  0  0  0  0
  140.3400   78.2360  221.0250 C   0  0  0  0  0  0  0  0  0  0  0  0
  140.3970   77.9220  222.3980 N   0  0  0  0  0  0  0  0  0  0  0  0
  141.5190   78.3040  223.1500 C   0  0  0  0  0  0  0  0  0  0  0  0
  141.7210   79.7310  223.4980 C   0  0  2  0  0  0  0  0  0  0  0  0
  140.4680   80.5150  223.7340 C   0  0  0  0  0  0  0  0  0  0  0  0
  139.8700   81.1470  222.5120 C   0  0  0  0  0  0  0  0  0  0  0  0
  140.8500   81.7530  221.5740 C   0  0  0  0  0  0  0  0  0  0  0  0
  142.1540   81.2210  221.5620 N   0  0  0  0  0  0  0  0  0  0  0  0
  142.6510   80.5300  222.6770 C   0  0  0  0  0  0  0  0  0  0  0  0
  140.0800   76.5370  222.5340 C   0  0  0  0  0  0  0  0  0  0  0  0
  141.1030   75.1040  220.7890 C   0  0  0  0  0  0  0  0  0  0  0  0
  142.4260   75.4890  220.5820 C   0  0  0  0  0  0  0  0  0  0  0  0
  143.4100   74.5940  220.2190 C   0  0  0  0  0  0  0  0  0  0  0  0
  143.0670   73.2710  220.0550 C   0  0  0  0  0  0  0  0  0  0  0  0
  141.7600   72.9120  220.2620 C   0  0  0  0  0  0  0  0  0  0  0  0
  140.7620   73.7840  220.6250 C   0  0  0  0  0  0  0  0  0  0  0  0
  139.5692   72.4248  223.6320 H   0  0  0  0  0  0  0  0  0  0  0  0
  141.4865   71.9186  224.9541 H   0  0  0  0  0  0  0  0  0  0  0  0
  142.1591   73.1058  227.0219 H   0  0  0  0  0  0  0  0  0  0  0  0
  141.3000   72.4153  229.2522 H   0  0  0  0  0  0  0  0  0  0  0  0
  139.7084   70.4474  229.3072 H   0  0  0  0  0  0  0  0  0  0  0  0
  139.9422   67.9494  225.9903 H   0  0  0  0  0  0  0  0  0  0  0  0
  139.1329   66.4561  224.2316 H   0  0  0  0  0  0  0  0  0  0  0  0
  138.4028   67.3703  222.0255 H   0  0  0  0  0  0  0  0  0  0  0  0
  138.1640   69.7530  220.6360 H   0  0  0  0  0  0  0  0  0  0  0  0
  138.0803   75.2715  220.3844 H   0  0  0  0  0  0  0  0  0  0  0  0
  138.2478   75.0108  222.1203 H   0  0  0  0  0  0  0  0  0  0  0  0
  140.2933   76.9564  219.2903 H   0  0  0  0  0  0  0  0  0  0  0  0
  138.7067   77.2629  219.9446 H   0  0  0  0  0  0  0  0  0  0  0  0
  141.3577   78.4391  220.6602 H   0  0  0  0  0  0  0  0  0  0  0  0
  139.6993   79.1207  220.8949 H   0  0  0  0  0  0  0  0  0  0  0  0
  141.4712   77.7485  224.0982 H   0  0  0  0  0  0  0  0  0  0  0  0
  142.3628   78.0827  222.4800 H   0  0  0  0  0  0  0  0  0  0  0  0
  142.2396   79.5756  224.4555 H   0  0  0  0  0  0  0  0  0  0  0  0
  139.7186   79.8364  224.1674 H   0  0  0  0  0  0  0  0  0  0  0  0
  140.7478   81.3442  224.4005 H   0  0  0  0  0  0  0  0  0  0  0  0
  139.3100   80.3728  221.9670 H   0  0  0  0  0  0  0  0  0  0  0  0
  139.2380   81.9725  222.8713 H   0  0  0  0  0  0  0  0  0  0  0  0
  140.4420   81.6477  220.5579 H   0  0  0  0  0  0  0  0  0  0  0  0
  140.9729   82.7875  221.9272 H   0  0  0  0  0  0  0  0  0  0  0  0
  142.4900   80.8780  220.6520 H   0  0  0  0  0  0  0  0  0  0  0  0
  143.4281   79.8433  222.3102 H   0  0  0  0  0  0  0  0  0  0  0  0
  142.9813   81.3296  223.3564 H   0  0  0  0  0  0  0  0  0  0  0  0
  140.8791   76.0280  223.0929 H   0  0  0  0  0  0  0  0  0  0  0  0
  139.1317   76.4226  223.0796 H   0  0  0  0  0  0  0  0  0  0  0  0
  142.6957   76.5473  220.7132 H   0  0  0  0  0  0  0  0  0  0  0  0
  144.4460   74.9297  220.0639 H   0  0  0  0  0  0  0  0  0  0  0  0
  143.8201   72.5231  219.7661 H   0  0  0  0  0  0  0  0  0  0  0  0
  141.4920   71.8535  220.1283 H   0  0  0  0  0  0  0  0  0  0  0  0
  1  2  2  0
  2  3  1  0
  3  4  2  0
  4  5  1  0
  5  6  2  0
  6  7  1  0
  7  8  2  0
  8  9  1  0
  9 10  2  0
 10 11  1  0
 11 12  2  0
  6 13  1  0
 13 14  2  0
 14 15  1  0
 15 16  2  0
 16 17  1  0
  2 18  1  0
 18 19  1  0
 20 19  1  1
 20 21  1  0
 21 22  1  0
 22 23  1  0
 23 24  1  0
 24 25  1  0
 25 26  1  0
 26 27  1  0
 27 28  1  0
 28 29  1  0
 29 30  1  0
 23 31  1  0
 20 32  1  0
 32 33  2  0
 33 34  1  0
 34 35  2  0
 35 36  1  0
 36 37  2  0
 17  3  1  0
 37 18  1  0
 16  5  1  0
 31 20  1  0
 37 32  1  0
 12  7  1  0
 30 25  1  0
  4 38  1  0
  8 39  1  0
  9 40  1  0
 10 41  1  0
 11 42  1  0
 13 43  1  0
 14 44  1  0
 15 45  1  0
 17 46  1  0
 19 47  1  0
 19 48  1  0
 21 49  1  0
 21 50  1  0
 22 51  1  0
 22 52  1  0
 24 53  1  0
 24 54  1  0
 25 55  1  1
 26 56  1  0
 26 57  1  0
 27 58  1  0
 27 59  1  0
 28 60  1  0
 28 61  1  0
 29 62  1  0
 30 63  1  0
 30 64  1  0
 31 65  1  0
 31 66  1  0
 33 67  1  0
 34 68  1  0
 35 69  1  0
 36 70  1  0
M  END
>  <smiles>  (14) 
O=C(c1cc2c(-c3ccccn3)cccc2[nH]1)N1C[C@]2(CCN(CC3CCCNC3)C2)c2ccccc21

>  <score_type>  (14) 
oracle

>  <origin>  (14) 
autodockgpu

>  <m_score__min__energy>  (14) 
-10.640000000000001

>  <m_primary>  (14) 
energy

>  <rmsd>  (14) 
2.675475230299701

>  <m_score__min__rmsd>  (14) 
2.675475230299701

>  <meeko>  (14) 
{"free_energy": -9.57, "intermolecular_energy": -11.06, "internal_energy": -1.94, "cluster_size": 30, "cluster_id": 1, "rank_in_cluster": 27}

>  <energy>  (14) 
-9.89

>  <cluster_rmsd>  (14) 
0.95

>  <cluster>  (14) 
1

$$$$

     RDKit          3D

 70 76  0  0  1  0  0  0  0  0999 V2000
  141.2880   76.5000  219.2100 O   0  0  0  0  0  0  0  0  0  0  0  0
  140.8560   76.4170  220.4000 C   0  0  0  0  0  0  0  0  0  0  0  0
  141.0180   77.6120  221.2110 C   0  0  0  0  0  0  0  0  0  0  0  0
  140.0190   78.2540  221.9270 C   0  0  0  0  0  0  0  0  0  0  0  0
  140.5670   79.3130  222.5650 C   0  0  0  0  0  0  0  0  0  0  0  0
  140.0550   80.2880  223.3790 C   0  0  0  0  0  0  0  0  0  0  0  0
  138.6840   80.4340  223.7900 C   0  0  0  0  0  0  0  0  0  0  0  0
  137.5870   79.8120  223.2640 C   0  0  0  0  0  0  0  0  0  0  0  0
  136.3140   80.0230  223.8140 C   0  0  0  0  0  0  0  0  0  0  0  0
  136.1060   80.8490  224.8890 C   0  0  0  0  0  0  0  0  0  0  0  0
  137.2510   81.4690  225.4050 C   0  0  0  0  0  0  0  0  0  0  0  0
  138.4510   81.2470  224.8570 N   0  0  0  0  0  0  0  0  0  0  0  0
  140.9560   81.2470  223.8250 C   0  0  0  0  0  0  0  0  0  0  0  0
  142.2900   81.2400  223.4850 C   0  0  0  0  0  0  0  0  0  0  0  0
  142.8040   80.2580  222.6690 C   0  0  0  0  0  0  0  0  0  0  0  0
  141.9210   79.2990  222.2180 C   0  0  0  0  0  0  0  0  0  0  0  0
  142.1760   78.2650  221.4000 N   0  0  0  0  0  0  0  0  0  0  0  0
  140.2500   75.2030  220.8750 N   0  0  0  0  0  0  0  0  0  0  0  0
  140.9610   73.9480  220.8560 C   0  0  0  0  0  0  0  0  0  0  0  0
  140.0470   72.9790  221.5290 C   0  0  1  0  0  0  0  0  0  0  0  0
  139.7890   71.7510  220.6860 C   0  0  0  0  0  0  0  0  0  0  0  0
  139.7860   70.6650  221.7160 C   0  0  0  0  0  0  0  0  0  0  0  0
  140.4530   71.0770  222.8880 N   0  0  0  0  0  0  0  0  0  0  0  0
  139.9330   70.7210  224.1420 C   0  0  0  0  0  0  0  0  0  0  0  0
  140.8510   70.3070  225.2290 C   0  0  2  0  0  0  0  0  0  0  0  0
  140.3560   69.1880  226.0930 C   0  0  0  0  0  0  0  0  0  0  0  0
  139.5330   69.6090  227.2740 C   0  0  0  0  0  0  0  0  0  0  0  0
  140.0290   70.8120  227.9890 C   0  0  0  0  0  0  0  0  0  0  0  0
  140.7830   71.7450  227.2500 N   0  0  0  0  0  0  0  0  0  0  0  0
  141.4500   71.3530  226.0800 C   0  0  0  0  0  0  0  0  0  0  0  0
  140.7070   72.4760  222.7660 C   0  0  0  0  0  0  0  0  0  0  0  0
  138.8240   73.7500  221.7800 C   0  0  0  0  0  0  0  0  0  0  0  0
  137.6230   73.3160  222.3350 C   0  0  0  0  0  0  0  0  0  0  0  0
  136.5440   74.1560  222.5160 C   0  0  0  0  0  0  0  0  0  0  0  0
  136.6640   75.4720  222.1310 C   0  0  0  0  0  0  0  0  0  0  0  0
  137.8540   75.8800  221.5860 C   0  0  0  0  0  0  0  0  0  0  0  0
  138.9430   75.0630  221.3960 C   0  0  0  0  0  0  0  0  0  0  0  0
  138.9617   77.9533  221.9689 H   0  0  0  0  0  0  0  0  0  0  0  0
  137.7032   79.1396  222.4013 H   0  0  0  0  0  0  0  0  0  0  0  0
  135.4513   79.5074  223.3670 H   0  0  0  0  0  0  0  0  0  0  0  0
  135.1063   81.0136  225.3175 H   0  0  0  0  0  0  0  0  0  0  0  0
  137.1627   82.1446  226.2686 H   0  0  0  0  0  0  0  0  0  0  0  0
  140.5862   82.0493  224.4804 H   0  0  0  0  0  0  0  0  0  0  0  0
  142.9531   82.0287  223.8701 H   0  0  0  0  0  0  0  0  0  0  0  0
  143.8678   80.2389  222.3899 H   0  0  0  0  0  0  0  0  0  0  0  0
  143.0950   77.9900  220.9720 H   0  0  0  0  0  0  0  0  0  0  0  0
  141.1643   73.6339  219.8216 H   0  0  0  0  0  0  0  0  0  0  0  0
  141.9361   74.0166  221.3605 H   0  0  0  0  0  0  0  0  0  0  0  0
  138.8196   71.8161  220.1703 H   0  0  0  0  0  0  0  0  0  0  0  0
  140.5255   71.6002  219.8830 H   0  0  0  0  0  0  0  0  0  0  0  0
  138.7457   70.4090  221.9655 H   0  0  0  0  0  0  0  0  0  0  0  0
  140.3104   69.7903  221.3039 H   0  0  0  0  0  0  0  0  0  0  0  0
  139.3720   71.5914  224.5130 H   0  0  0  0  0  0  0  0  0  0  0  0
  139.3596   69.8065  223.9302 H   0  0  0  0  0  0  0  0  0  0  0  0
  141.6726   69.9427  224.5947 H   0  0  0  0  0  0  0  0  0  0  0  0
  139.7407   68.5230  225.4692 H   0  0  0  0  0  0  0  0  0  0  0  0
  141.2523   68.7002  226.5039 H   0  0  0  0  0  0  0  0  0  0  0  0
  138.5124   69.8186  226.9212 H   0  0  0  0  0  0  0  0  0  0  0  0
  139.5848   68.7801  227.9953 H   0  0  0  0  0  0  0  0  0  0  0  0
  139.1522   71.3413  228.3902 H   0  0  0  0  0  0  0  0  0  0  0  0
  140.7289   70.4208  228.7421 H   0  0  0  0  0  0  0  0  0  0  0  0
  140.4210   72.7090  227.2430 H   0  0  0  0  0  0  0  0  0  0  0  0
  141.5601   72.2519  225.4557 H   0  0  0  0  0  0  0  0  0  0  0  0
  142.3784   70.8922  226.4485 H   0  0  0  0  0  0  0  0  0  0  0  0
  140.3008   73.0030  223.6419 H   0  0  0  0  0  0  0  0  0  0  0  0
  141.7909   72.6550  222.7098 H   0  0  0  0  0  0  0  0  0  0  0  0
  137.5312   72.2633  222.6407 H   0  0  0  0  0  0  0  0  0  0  0  0
  135.6086   73.7825  222.9581 H   0  0  0  0  0  0  0  0  0  0  0  0
  135.8287   76.1765  222.2570 H   0  0  0  0  0  0  0  0  0  0  0  0
  137.9434   76.9328  221.2799 H   0  0  0  0  0  0  0  0  0  0  0  0
  1  2  2  0
  2  3  1  0
  3  4  2  0
  4  5  1  0
  5  6  2  0
  6  7  1  0
  7  8  2  0
  8  9  1  0
  9 10  2  0
 10 11  1  0
 11 12  2  0
  6 13  1  0
 13 14  2  0
 14 15  1  0
 15 16  2  0
 16 17  1  0
  2 18  1  0
 18 19  1  0
 20 19  1  6
 20 21  1  0
 21 22  1  0
 22 23  1  0
 23 24  1  0
 24 25  1  0
 25 26  1  0
 26 27  1  0
 27 28  1  0
 28 29  1  0
 29 30  1  0
 23 31  1  0
 20 32  1  0
 32 33  2  0
 33 34  1  0
 34 35  2  0
 35 36  1  0
 36 37  2  0
 17  3  1  0
 37 18  1  0
 16  5  1  0
 31 20  1  0
 37 32  1  0
 12  7  1  0
 30 25  1  0
  4 38  1  0
  8 39  1  0
  9 40  1  0
 10 41  1  0
 11 42  1  0
 13 43  1  0
 14 44  1  0
 15 45  1  0
 17 46  1  0
 19 47  1  0
 19 48  1  0
 21 49  1  0
 21 50  1  0
 22 51  1  0
 22 52  1  0
 24 53  1  0
 24 54  1  0
 25 55  1  6
 26 56  1  0
 26 57  1  0
 27 58  1  0
 27 59  1  0
 28 60  1  0
 28 61  1  0
 29 62  1  0
 30 63  1  0
 30 64  1  0
 31 65  1  0
 31 66  1  0
 33 67  1  0
 34 68  1  0
 35 69  1  0
 36 70  1  0
M  END
>  <smiles>  (15) 
O=C(c1cc2c(-c3ccccn3)cccc2[nH]1)N1C[C@]2(CCN(CC3CCCNC3)C2)c2ccccc21

>  <score_type>  (15) 
oracle

>  <origin>  (15) 
autodockgpu

>  <m_score__min__energy>  (15) 
-10.640000000000001

>  <m_primary>  (15) 
energy

>  <rmsd>  (15) 
10.155322821771042

>  <m_score__min__rmsd>  (15) 
10.155322821771042

>  <meeko>  (15) 
{"free_energy": -9.72, "intermolecular_energy": -11.21, "internal_energy": -1.72, "cluster_size": 7, "cluster_id": 2, "rank_in_cluster": 6}

>  <energy>  (15) 
-9.82

>  <cluster_rmsd>  (15) 
1.53

>  <cluster>  (15) 
1

$$$$

     RDKit          3D

 70 76  0  0  1  0  0  0  0  0999 V2000
  142.1240   71.8880  221.5940 O   0  0  0  0  0  0  0  0  0  0  0  0
  141.0380   72.4790  221.8770 C   0  0  0  0  0  0  0  0  0  0  0  0
  140.0720   71.6920  222.6260 C   0  0  0  0  0  0  0  0  0  0  0  0
  140.2970   71.0670  223.8430 C   0  0  0  0  0  0  0  0  0  0  0  0
  139.1530   70.4530  224.2220 C   0  0  0  0  0  0  0  0  0  0  0  0
  138.8130   69.6870  225.3050 C   0  0  0  0  0  0  0  0  0  0  0  0
  139.6680   69.3160  226.4010 C   0  0  0  0  0  0  0  0  0  0  0  0
  140.2090   68.0870  226.6560 C   0  0  0  0  0  0  0  0  0  0  0  0
  141.0720   67.8980  227.7450 C   0  0  0  0  0  0  0  0  0  0  0  0
  141.4150   68.9180  228.5960 C   0  0  0  0  0  0  0  0  0  0  0  0
  140.8460   70.1640  228.3050 C   0  0  0  0  0  0  0  0  0  0  0  0
  140.0260   70.3100  227.2590 N   0  0  0  0  0  0  0  0  0  0  0  0
  137.5130   69.1970  225.3230 C   0  0  0  0  0  0  0  0  0  0  0  0
  136.6000   69.4530  224.3240 C   0  0  0  0  0  0  0  0  0  0  0  0
  136.9420   70.2260  223.2380 C   0  0  0  0  0  0  0  0  0  0  0  0
  138.2310   70.7190  223.2060 C   0  0  0  0  0  0  0  0  0  0  0  0
  138.8030   71.4690  222.2510 N   0  0  0  0  0  0  0  0  0  0  0  0
  140.8170   73.8390  221.4680 N   0  0  0  0  0  0  0  0  0  0  0  0
  139.5490   74.4940  221.6830 C   0  0  0  0  0  0  0  0  0  0  0  0
  139.7640   75.9000  221.2330 C   0  0  1  0  0  0  0  0  0  0  0  0
  138.7370   76.3430  220.2160 C   0  0  0  0  0  0  0  0  0  0  0  0
  138.4800   77.7580  220.6340 C   0  0  0  0  0  0  0  0  0  0  0  0
  138.8670   77.9700  221.9730 N   0  0  0  0  0  0  0  0  0  0  0  0
  139.5050   79.1680  222.3280 C   0  0  0  0  0  0  0  0  0  0  0  0
  140.9490   79.3440  222.0470 C   0  0  2  0  0  0  0  0  0  0  0  0
  141.8740   78.8550  223.1180 C   0  0  0  0  0  0  0  0  0  0  0  0
  142.2040   79.8570  224.1850 C   0  0  0  0  0  0  0  0  0  0  0  0
  142.4490   81.2380  223.6950 C   0  0  0  0  0  0  0  0  0  0  0  0
  141.8230   81.6230  222.4930 N   0  0  0  0  0  0  0  0  0  0  0  0
  141.4160   80.6570  221.5620 C   0  0  0  0  0  0  0  0  0  0  0  0
  139.5820   76.8100  222.3990 C   0  0  0  0  0  0  0  0  0  0  0  0
  141.1260   75.9020  220.6870 C   0  0  0  0  0  0  0  0  0  0  0  0
  141.8160   76.9470  220.0760 C   0  0  0  0  0  0  0  0  0  0  0  0
  143.1040   76.8090  219.6050 C   0  0  0  0  0  0  0  0  0  0  0  0
  143.7280   75.5900  219.7450 C   0  0  0  0  0  0  0  0  0  0  0  0
  143.0320   74.5740  220.3470 C   0  0  0  0  0  0  0  0  0  0  0  0
  141.7490   74.6870  220.8260 C   0  0  0  0  0  0  0  0  0  0  0  0
  141.2432   71.0700  224.4039 H   0  0  0  0  0  0  0  0  0  0  0  0
  139.9651   67.2379  226.0006 H   0  0  0  0  0  0  0  0  0  0  0  0
  141.4890   66.8958  227.9233 H   0  0  0  0  0  0  0  0  0  0  0  0
  142.0918   68.7671  229.4499 H   0  0  0  0  0  0  0  0  0  0  0  0
  141.0757   71.0304  228.9426 H   0  0  0  0  0  0  0  0  0  0  0  0
  137.1983   68.5758  226.1745 H   0  0  0  0  0  0  0  0  0  0  0  0
  135.5852   69.0345  224.3951 H   0  0  0  0  0  0  0  0  0  0  0  0
  136.2227   70.4407  222.4340 H   0  0  0  0  0  0  0  0  0  0  0  0
  138.3670   71.8290  221.3650 H   0  0  0  0  0  0  0  0  0  0  0  0
  138.7589   74.0133  221.0875 H   0  0  0  0  0  0  0  0  0  0  0  0
  139.2267   74.4393  222.7333 H   0  0  0  0  0  0  0  0  0  0  0  0
  139.1396   76.2946  219.1935 H   0  0  0  0  0  0  0  0  0  0  0  0
  137.8342   75.7150  220.1930 H   0  0  0  0  0  0  0  0  0  0  0  0
  139.0530   78.4346  219.9830 H   0  0  0  0  0  0  0  0  0  0  0  0
  137.4019   77.9579  220.5461 H   0  0  0  0  0  0  0  0  0  0  0  0
  138.9772   79.9778  221.8029 H   0  0  0  0  0  0  0  0  0  0  0  0
  139.4571   79.1668  223.4270 H   0  0  0  0  0  0  0  0  0  0  0  0
  141.0099   78.6733  221.1773 H   0  0  0  0  0  0  0  0  0  0  0  0
  141.4050   77.9854  223.6015 H   0  0  0  0  0  0  0  0  0  0  0  0
  142.8242   78.6201  222.6161 H   0  0  0  0  0  0  0  0  0  0  0  0
  141.3633   79.8904  224.8936 H   0  0  0  0  0  0  0  0  0  0  0  0
  143.1467   79.5209  224.6415 H   0  0  0  0  0  0  0  0  0  0  0  0
  142.1102   81.9307  224.4794 H   0  0  0  0  0  0  0  0  0  0  0  0
  143.5258   81.2691  223.4723 H   0  0  0  0  0  0  0  0  0  0  0  0
  141.2210   82.4560  222.5480 H   0  0  0  0  0  0  0  0  0  0  0  0
  140.5920   81.0971  220.9811 H   0  0  0  0  0  0  0  0  0  0  0  0
  142.3374   80.4202  221.0097 H   0  0  0  0  0  0  0  0  0  0  0  0
  140.5653   77.1063  222.7932 H   0  0  0  0  0  0  0  0  0  0  0  0
  139.0179   76.2941  223.1900 H   0  0  0  0  0  0  0  0  0  0  0  0
  141.3136   77.9193  219.9653 H   0  0  0  0  0  0  0  0  0  0  0  0
  143.6218   77.6541  219.1279 H   0  0  0  0  0  0  0  0  0  0  0  0
  144.7556   75.4356  219.3842 H   0  0  0  0  0  0  0  0  0  0  0  0
  143.5350   73.6016  220.4540 H   0  0  0  0  0  0  0  0  0  0  0  0
  1  2  2  0
  2  3  1  0
  3  4  2  0
  4  5  1  0
  5  6  2  0
  6  7  1  0
  7  8  2  0
  8  9  1  0
  9 10  2  0
 10 11  1  0
 11 12  2  0
  6 13  1  0
 13 14  2  0
 14 15  1  0
 15 16  2  0
 16 17  1  0
  2 18  1  0
 18 19  1  0
 20 19  1  1
 20 21  1  0
 21 22  1  0
 22 23  1  0
 23 24  1  0
 24 25  1  0
 25 26  1  0
 26 27  1  0
 27 28  1  0
 28 29  1  0
 29 30  1  0
 23 31  1  0
 20 32  1  0
 32 33  2  0
 33 34  1  0
 34 35  2  0
 35 36  1  0
 36 37  2  0
 17  3  1  0
 37 18  1  0
 16  5  1  0
 31 20  1  0
 37 32  1  0
 12  7  1  0
 30 25  1  0
  4 38  1  0
  8 39  1  0
  9 40  1  0
 10 41  1  0
 11 42  1  0
 13 43  1  0
 14 44  1  0
 15 45  1  0
 17 46  1  0
 19 47  1  0
 19 48  1  0
 21 49  1  0
 21 50  1  0
 22 51  1  0
 22 52  1  0
 24 53  1  0
 24 54  1  0
 25 55  1  6
 26 56  1  0
 26 57  1  0
 27 58  1  0
 27 59  1  0
 28 60  1  0
 28 61  1  0
 29 62  1  0
 30 63  1  0
 30 64  1  0
 31 65  1  0
 31 66  1  0
 33 67  1  0
 34 68  1  0
 35 69  1  0
 36 70  1  0
M  END
>  <smiles>  (16) 
O=C(c1cc2c(-c3ccccn3)cccc2[nH]1)N1C[C@]2(CCN(CC3CCCNC3)C2)c2ccccc21

>  <score_type>  (16) 
oracle

>  <origin>  (16) 
autodockgpu

>  <m_score__min__energy>  (16) 
-10.640000000000001

>  <m_primary>  (16) 
energy

>  <rmsd>  (16) 
3.1649119993202675

>  <m_score__min__rmsd>  (16) 
3.1649119993202675

>  <meeko>  (16) 
{"free_energy": -9.97, "intermolecular_energy": -11.46, "internal_energy": -1.84, "cluster_size": 30, "cluster_id": 1, "rank_in_cluster": 6}

>  <energy>  (16) 
-9.8

>  <cluster_rmsd>  (16) 
1.02

>  <cluster>  (16) 
1

$$$$

     RDKit          3D

 70 76  0  0  1  0  0  0  0  0999 V2000
  141.0230   73.0160  221.0060 O   0  0  0  0  0  0  0  0  0  0  0  0
  140.1530   73.5230  221.7760 C   0  0  0  0  0  0  0  0  0  0  0  0
  139.2590   72.5760  222.4230 C   0  0  0  0  0  0  0  0  0  0  0  0
  139.6090   71.6730  223.4160 C   0  0  0  0  0  0  0  0  0  0  0  0
  138.5010   70.9840  223.7710 C   0  0  0  0  0  0  0  0  0  0  0  0
  138.2690   69.9760  224.6690 C   0  0  0  0  0  0  0  0  0  0  0  0
  139.2370   69.3500  225.5290 C   0  0  0  0  0  0  0  0  0  0  0  0
  140.1660   69.9620  226.3220 C   0  0  0  0  0  0  0  0  0  0  0  0
  141.0100   69.2070  227.1480 C   0  0  0  0  0  0  0  0  0  0  0  0
  140.9480   67.8380  227.2070 C   0  0  0  0  0  0  0  0  0  0  0  0
  139.9840   67.2420  226.3850 C   0  0  0  0  0  0  0  0  0  0  0  0
  139.1950   67.9910  225.6070 N   0  0  0  0  0  0  0  0  0  0  0  0
  136.9670   69.4950  224.7250 C   0  0  0  0  0  0  0  0  0  0  0  0
  135.9500   69.9860  223.9370 C   0  0  0  0  0  0  0  0  0  0  0  0
  136.1840   71.0010  223.0370 C   0  0  0  0  0  0  0  0  0  0  0  0
  137.4730   71.4880  222.9690 C   0  0  0  0  0  0  0  0  0  0  0  0
  137.9490   72.4500  222.1620 N   0  0  0  0  0  0  0  0  0  0  0  0
  140.0870   74.9460  221.9710 N   0  0  0  0  0  0  0  0  0  0  0  0
  141.2750   75.7650  221.9460 C   0  0  0  0  0  0  0  0  0  0  0  0
  140.7760   77.1660  222.0670 C   0  0  1  0  0  0  0  0  0  0  0  0
  141.4380   77.9170  223.2000 C   0  0  0  0  0  0  0  0  0  0  0  0
  141.6160   79.2800  222.6040 C   0  0  0  0  0  0  0  0  0  0  0  0
  141.5700   79.2270  221.1960 N   0  0  0  0  0  0  0  0  0  0  0  0
  140.9020   80.2380  220.4870 C   0  0  0  0  0  0  0  0  0  0  0  0
  141.1850   80.4360  219.0460 C   0  0  2  0  0  0  0  0  0  0  0  0
  140.2340   79.7590  218.1090 C   0  0  0  0  0  0  0  0  0  0  0  0
  140.5930   78.3500  217.7390 C   0  0  0  0  0  0  0  0  0  0  0  0
  142.0370   78.1180  217.4810 C   0  0  0  0  0  0  0  0  0  0  0  0
  142.9590   78.9670  218.1250 N   0  0  0  0  0  0  0  0  0  0  0  0
  142.5660   80.2380  218.5670 C   0  0  0  0  0  0  0  0  0  0  0  0
  141.1420   77.9140  220.8310 C   0  0  0  0  0  0  0  0  0  0  0  0
  139.3300   77.0200  222.2650 C   0  0  0  0  0  0  0  0  0  0  0  0
  138.3790   78.0130  222.4940 C   0  0  0  0  0  0  0  0  0  0  0  0
  137.0400   77.7310  222.6640 C   0  0  0  0  0  0  0  0  0  0  0  0
  136.6320   76.4180  222.6050 C   0  0  0  0  0  0  0  0  0  0  0  0
  137.5820   75.4560  222.3810 C   0  0  0  0  0  0  0  0  0  0  0  0
  138.9220   75.7100  222.2080 C   0  0  0  0  0  0  0  0  0  0  0  0
  140.6147   71.5402  223.8414 H   0  0  0  0  0  0  0  0  0  0  0  0
  140.2525   71.0585  226.3122 H   0  0  0  0  0  0  0  0  0  0  0  0
  141.7490   69.7314  227.7716 H   0  0  0  0  0  0  0  0  0  0  0  0
  141.6112   67.2480  227.8566 H   0  0  0  0  0  0  0  0  0  0  0  0
  139.8745   66.1475  226.3790 H   0  0  0  0  0  0  0  0  0  0  0  0
  136.7376   68.6840  225.4319 H   0  0  0  0  0  0  0  0  0  0  0  0
  134.9390   69.5622  224.0278 H   0  0  0  0  0  0  0  0  0  0  0  0
  135.3814   71.4046  222.4022 H   0  0  0  0  0  0  0  0  0  0  0  0
  137.4220   73.0150  221.4500 H   0  0  0  0  0  0  0  0  0  0  0  0
  141.9356   75.5150  222.7892 H   0  0  0  0  0  0  0  0  0  0  0  0
  141.8648   75.6124  221.0301 H   0  0  0  0  0  0  0  0  0  0  0  0
  140.7917   77.9504  224.0895 H   0  0  0  0  0  0  0  0  0  0  0  0
  142.3748   77.4588  223.5498 H   0  0  0  0  0  0  0  0  0  0  0  0
  140.8121   79.9381  222.9654 H   0  0  0  0  0  0  0  0  0  0  0  0
  142.5991   79.6689  222.9076 H   0  0  0  0  0  0  0  0  0  0  0  0
  139.8253   80.0306  220.5747 H   0  0  0  0  0  0  0  0  0  0  0  0
  141.2746   81.1636  220.9500 H   0  0  0  0  0  0  0  0  0  0  0  0
  141.0191   81.5229  219.0132 H   0  0  0  0  0  0  0  0  0  0  0  0
  139.2420   79.7435  218.5840 H   0  0  0  0  0  0  0  0  0  0  0  0
  140.2654   80.3368  217.1735 H   0  0  0  0  0  0  0  0  0  0  0  0
  140.2834   77.6911  218.5636 H   0  0  0  0  0  0  0  0  0  0  0  0
  140.0735   78.1385  216.7928 H   0  0  0  0  0  0  0  0  0  0  0  0
  142.2655   77.0878  217.7917 H   0  0  0  0  0  0  0  0  0  0  0  0
  142.1665   78.3268  216.4088 H   0  0  0  0  0  0  0  0  0  0  0  0
  143.6640   78.5000  218.7110 H   0  0  0  0  0  0  0  0  0  0  0  0
  143.2362   80.5122  219.3950 H   0  0  0  0  0  0  0  0  0  0  0  0
  142.6214   80.8597  217.6612 H   0  0  0  0  0  0  0  0  0  0  0  0
  140.2673   77.9816  220.1674 H   0  0  0  0  0  0  0  0  0  0  0  0
  141.9530   77.3901  220.3040 H   0  0  0  0  0  0  0  0  0  0  0  0
  138.7092   79.0612  222.5409 H   0  0  0  0  0  0  0  0  0  0  0  0
  136.3139   78.5378  222.8428 H   0  0  0  0  0  0  0  0  0  0  0  0
  135.5734   76.1483  222.7340 H   0  0  0  0  0  0  0  0  0  0  0  0
  137.2494   74.4084  222.3366 H   0  0  0  0  0  0  0  0  0  0  0  0
  1  2  2  0
  2  3  1  0
  3  4  2  0
  4  5  1  0
  5  6  2  0
  6  7  1  0
  7  8  2  0
  8  9  1  0
  9 10  2  0
 10 11  1  0
 11 12  2  0
  6 13  1  0
 13 14  2  0
 14 15  1  0
 15 16  2  0
 16 17  1  0
  2 18  1  0
 18 19  1  0
 20 19  1  6
 20 21  1  0
 21 22  1  0
 22 23  1  0
 23 24  1  0
 24 25  1  0
 25 26  1  0
 26 27  1  0
 27 28  1  0
 28 29  1  0
 29 30  1  0
 23 31  1  0
 20 32  1  0
 32 33  2  0
 33 34  1  0
 34 35  2  0
 35 36  1  0
 36 37  2  0
 17  3  1  0
 37 18  1  0
 16  5  1  0
 31 20  1  0
 37 32  1  0
 12  7  1  0
 30 25  1  0
  4 38  1  0
  8 39  1  0
  9 40  1  0
 10 41  1  0
 11 42  1  0
 13 43  1  0
 14 44  1  0
 15 45  1  0
 17 46  1  0
 19 47  1  0
 19 48  1  0
 21 49  1  0
 21 50  1  0
 22 51  1  0
 22 52  1  0
 24 53  1  0
 24 54  1  0
 25 55  1  6
 26 56  1  0
 26 57  1  0
 27 58  1  0
 27 59  1  0
 28 60  1  0
 28 61  1  0
 29 62  1  0
 30 63  1  0
 30 64  1  0
 31 65  1  0
 31 66  1  0
 33 67  1  0
 34 68  1  0
 35 69  1  0
 36 70  1  0
M  END
>  <smiles>  (17) 
O=C(c1cc2c(-c3ccccn3)cccc2[nH]1)N1C[C@]2(CCN(CC3CCCNC3)C2)c2ccccc21

>  <score_type>  (17) 
oracle

>  <origin>  (17) 
autodockgpu

>  <m_score__min__energy>  (17) 
-10.640000000000001

>  <m_primary>  (17) 
energy

>  <rmsd>  (17) 
3.187684362538251

>  <m_score__min__rmsd>  (17) 
3.187684362538251

>  <meeko>  (17) 
{"free_energy": -9.1, "intermolecular_energy": -10.59, "internal_energy": -1.88, "cluster_size": 1, "cluster_id": 8, "rank_in_cluster": 1}

>  <energy>  (17) 
-9.77

>  <cluster_rmsd>  (17) 
1.82

>  <cluster>  (17) 
1

$$$$

     RDKit          3D

 70 76  0  0  1  0  0  0  0  0999 V2000
  142.0980   71.8890  221.6140 O   0  0  0  0  0  0  0  0  0  0  0  0
  141.0150   72.4870  221.8890 C   0  0  0  0  0  0  0  0  0  0  0  0
  140.0440   71.7110  222.6440 C   0  0  0  0  0  0  0  0  0  0  0  0
  140.2760   71.0640  223.8470 C   0  0  0  0  0  0  0  0  0  0  0  0
  139.1240   70.4710  224.2380 C   0  0  0  0  0  0  0  0  0  0  0  0
  138.7850   69.6960  225.3160 C   0  0  0  0  0  0  0  0  0  0  0  0
  139.6510   69.2890  226.3900 C   0  0  0  0  0  0  0  0  0  0  0  0
  140.1990   68.0540  226.5960 C   0  0  0  0  0  0  0  0  0  0  0  0
  141.0710   67.8300  227.6700 C   0  0  0  0  0  0  0  0  0  0  0  0
  141.4170   68.8190  228.5550 C   0  0  0  0  0  0  0  0  0  0  0  0
  140.8410   70.0720  228.3150 C   0  0  0  0  0  0  0  0  0  0  0  0
  140.0110   70.2530  227.2810 N   0  0  0  0  0  0  0  0  0  0  0  0
  137.4750   69.2360  225.3490 C   0  0  0  0  0  0  0  0  0  0  0  0
  136.5510   69.5280  224.3710 C   0  0  0  0  0  0  0  0  0  0  0  0
  136.8920   70.3090  223.2900 C   0  0  0  0  0  0  0  0  0  0  0  0
  138.1910   70.7730  223.2430 C   0  0  0  0  0  0  0  0  0  0  0  0
  138.7630   71.5240  222.2880 N   0  0  0  0  0  0  0  0  0  0  0  0
  140.8000   73.8440  221.4660 N   0  0  0  0  0  0  0  0  0  0  0  0
  139.5370   74.5090  221.6780 C   0  0  0  0  0  0  0  0  0  0  0  0
  139.7590   75.9090  221.2140 C   0  0  1  0  0  0  0  0  0  0  0  0
  138.7310   76.3480  220.1960 C   0  0  0  0  0  0  0  0  0  0  0  0
  138.4840   77.7690  220.5990 C   0  0  0  0  0  0  0  0  0  0  0  0
  138.8770   77.9920  221.9340 N   0  0  0  0  0  0  0  0  0  0  0  0
  139.5230   79.1900  222.2750 C   0  0  0  0  0  0  0  0  0  0  0  0
  140.9700   79.3500  221.9980 C   0  0  2  0  0  0  0  0  0  0  0  0
  141.8860   78.8460  223.0700 C   0  0  0  0  0  0  0  0  0  0  0  0
  142.2250   79.8400  224.1410 C   0  0  0  0  0  0  0  0  0  0  0  0
  142.4880   81.2200  223.6570 C   0  0  0  0  0  0  0  0  0  0  0  0
  141.8700   81.6170  222.4550 N   0  0  0  0  0  0  0  0  0  0  0  0
  141.4530   80.6590  221.5190 C   0  0  0  0  0  0  0  0  0  0  0  0
  139.5860   76.8320  222.3710 C   0  0  0  0  0  0  0  0  0  0  0  0
  141.1190   75.8970  220.6630 C   0  0  0  0  0  0  0  0  0  0  0  0
  141.8130   76.9320  220.0390 C   0  0  0  0  0  0  0  0  0  0  0  0
  143.0980   76.7810  219.5650 C   0  0  0  0  0  0  0  0  0  0  0  0
  143.7150   75.5600  219.7150 C   0  0  0  0  0  0  0  0  0  0  0  0
  143.0160   74.5540  220.3310 C   0  0  0  0  0  0  0  0  0  0  0  0
  141.7350   74.6800  220.8120 C   0  0  0  0  0  0  0  0  0  0  0  0
  141.2319   71.0370  224.3907 H   0  0  0  0  0  0  0  0  0  0  0  0
  139.9533   67.2280  225.9123 H   0  0  0  0  0  0  0  0  0  0  0  0
  141.4935   66.8238  227.8083 H   0  0  0  0  0  0  0  0  0  0  0  0
  142.1015   68.6395  229.3972 H   0  0  0  0  0  0  0  0  0  0  0  0
  141.0727   70.9153  228.9822 H   0  0  0  0  0  0  0  0  0  0  0  0
  137.1609   68.6089  226.1964 H   0  0  0  0  0  0  0  0  0  0  0  0
  135.5280   69.1324  224.4545 H   0  0  0  0  0  0  0  0  0  0  0  0
  136.1643   70.5516  222.5016 H   0  0  0  0  0  0  0  0  0  0  0  0
  138.3210   71.9070  221.4160 H   0  0  0  0  0  0  0  0  0  0  0  0
  138.7423   74.0274  221.0894 H   0  0  0  0  0  0  0  0  0  0  0  0
  139.2176   74.4666  222.7297 H   0  0  0  0  0  0  0  0  0  0  0  0
  139.1296   76.2859  219.1726 H   0  0  0  0  0  0  0  0  0  0  0  0
  137.8241   75.7256  220.1835 H   0  0  0  0  0  0  0  0  0  0  0  0
  139.0590   78.4351  219.9389 H   0  0  0  0  0  0  0  0  0  0  0  0
  137.4070   77.9753  220.5121 H   0  0  0  0  0  0  0  0  0  0  0  0
  139.0042   79.9964  221.7360 H   0  0  0  0  0  0  0  0  0  0  0  0
  139.4699   79.2052  223.3736 H   0  0  0  0  0  0  0  0  0  0  0  0
  141.0263   78.6820  221.1259 H   0  0  0  0  0  0  0  0  0  0  0  0
  141.4050   77.9805  223.5492 H   0  0  0  0  0  0  0  0  0  0  0  0
  142.8347   78.6011  222.5700 H   0  0  0  0  0  0  0  0  0  0  0  0
  141.3828   79.8809  224.8474 H   0  0  0  0  0  0  0  0  0  0  0  0
  143.1625   79.4910  224.5985 H   0  0  0  0  0  0  0  0  0  0  0  0
  142.1554   81.9138  224.4432 H   0  0  0  0  0  0  0  0  0  0  0  0
  143.5657   81.2390  223.4373 H   0  0  0  0  0  0  0  0  0  0  0  0
  141.2770   82.4570  222.5120 H   0  0  0  0  0  0  0  0  0  0  0  0
  140.6352   81.1110  220.9386 H   0  0  0  0  0  0  0  0  0  0  0  0
  142.3724   80.4136  220.9672 H   0  0  0  0  0  0  0  0  0  0  0  0
  140.5721   77.1263  222.7595 H   0  0  0  0  0  0  0  0  0  0  0  0
  139.0212   76.3281  223.1691 H   0  0  0  0  0  0  0  0  0  0  0  0
  141.3162   77.9062  219.9204 H   0  0  0  0  0  0  0  0  0  0  0  0
  143.6192   77.6180  219.0774 H   0  0  0  0  0  0  0  0  0  0  0  0
  144.7399   75.3958  219.3510 H   0  0  0  0  0  0  0  0  0  0  0  0
  143.5143   73.5804  220.4480 H   0  0  0  0  0  0  0  0  0  0  0  0
  1  2  2  0
  2  3  1  0
  3  4  2  0
  4  5  1  0
  5  6  2  0
  6  7  1  0
  7  8  2  0
  8  9  1  0
  9 10  2  0
 10 11  1  0
 11 12  2  0
  6 13  1  0
 13 14  2  0
 14 15  1  0
 15 16  2  0
 16 17  1  0
  2 18  1  0
 18 19  1  0
 20 19  1  1
 20 21  1  0
 21 22  1  0
 22 23  1  0
 23 24  1  0
 24 25  1  0
 25 26  1  0
 26 27  1  0
 27 28  1  0
 28 29  1  0
 29 30  1  0
 23 31  1  0
 20 32  1  0
 32 33  2  0
 33 34  1  0
 34 35  2  0
 35 36  1  0
 36 37  2  0
 17  3  1  0
 37 18  1  0
 16  5  1  0
 31 20  1  0
 37 32  1  0
 12  7  1  0
 30 25  1  0
  4 38  1  0
  8 39  1  0
  9 40  1  0
 10 41  1  0
 11 42  1  0
 13 43  1  0
 14 44  1  0
 15 45  1  0
 17 46  1  0
 19 47  1  0
 19 48  1  0
 21 49  1  0
 21 50  1  0
 22 51  1  0
 22 52  1  0
 24 53  1  0
 24 54  1  0
 25 55  1  6
 26 56  1  0
 26 57  1  0
 27 58  1  0
 27 59  1  0
 28 60  1  0
 28 61  1  0
 29 62  1  0
 30 63  1  0
 30 64  1  0
 31 65  1  0
 31 66  1  0
 33 67  1  0
 34 68  1  0
 35 69  1  0
 36 70  1  0
M  END
>  <smiles>  (18) 
O=C(c1cc2c(-c3ccccn3)cccc2[nH]1)N1C[C@]2(CCN(CC3CCCNC3)C2)c2ccccc21

>  <score_type>  (18) 
oracle

>  <origin>  (18) 
autodockgpu

>  <m_score__min__energy>  (18) 
-10.640000000000001

>  <m_primary>  (18) 
energy

>  <rmsd>  (18) 
3.166366599573473

>  <m_score__min__rmsd>  (18) 
3.166366599573473

>  <meeko>  (18) 
{"free_energy": -9.97, "intermolecular_energy": -11.46, "internal_energy": -1.83, "cluster_size": 30, "cluster_id": 1, "rank_in_cluster": 7}

>  <energy>  (18) 
-9.77

>  <cluster_rmsd>  (18) 
0.96

>  <cluster>  (18) 
1

$$$$

     RDKit          3D

 70 76  0  0  1  0  0  0  0  0999 V2000
  137.8120   72.1020  219.9390 O   0  0  0  0  0  0  0  0  0  0  0  0
  138.7150   72.2880  220.8100 C   0  0  0  0  0  0  0  0  0  0  0  0
  138.8980   71.2070  221.7650 C   0  0  0  0  0  0  0  0  0  0  0  0
  139.3490   71.3400  223.0700 C   0  0  0  0  0  0  0  0  0  0  0  0
  139.3650   70.1130  223.6390 C   0  0  0  0  0  0  0  0  0  0  0  0
  139.7320   69.6570  224.8780 C   0  0  0  0  0  0  0  0  0  0  0  0
  140.2370   70.4450  225.9700 C   0  0  0  0  0  0  0  0  0  0  0  0
  141.0800   71.5180  225.9040 C   0  0  0  0  0  0  0  0  0  0  0  0
  141.4410   72.2160  227.0650 C   0  0  0  0  0  0  0  0  0  0  0  0
  140.9740   71.8680  228.3060 C   0  0  0  0  0  0  0  0  0  0  0  0
  140.1110   70.7660  228.3400 C   0  0  0  0  0  0  0  0  0  0  0  0
  139.7880   70.1210  227.2140 N   0  0  0  0  0  0  0  0  0  0  0  0
  139.6320   68.2860  225.0780 C   0  0  0  0  0  0  0  0  0  0  0  0
  139.1910   67.4150  224.1070 C   0  0  0  0  0  0  0  0  0  0  0  0
  138.8190   67.8750  222.8640 C   0  0  0  0  0  0  0  0  0  0  0  0
  138.9140   69.2350  222.6500 C   0  0  0  0  0  0  0  0  0  0  0  0
  138.6360   69.9130  221.5250 N   0  0  0  0  0  0  0  0  0  0  0  0
  139.4870   73.5010  220.8170 N   0  0  0  0  0  0  0  0  0  0  0  0
  138.8720   74.7840  221.0570 C   0  0  0  0  0  0  0  0  0  0  0  0
  140.0070   75.7510  221.0980 C   0  0  1  0  0  0  0  0  0  0  0  0
  139.8120   76.9080  220.1440 C   0  0  0  0  0  0  0  0  0  0  0  0
  140.3420   78.0590  220.9420 C   0  0  0  0  0  0  0  0  0  0  0  0
  140.3550   77.7570  222.3190 N   0  0  0  0  0  0  0  0  0  0  0  0
  141.4400   78.1700  223.1080 C   0  0  0  0  0  0  0  0  0  0  0  0
  141.5640   79.5940  223.5010 C   0  0  2  0  0  0  0  0  0  0  0  0
  140.3210   80.4120  223.3410 C   0  0  0  0  0  0  0  0  0  0  0  0
  140.1430   81.0490  221.9940 C   0  0  0  0  0  0  0  0  0  0  0  0
  141.3780   81.6210  221.4020 C   0  0  0  0  0  0  0  0  0  0  0  0
  142.6090   81.0560  221.7900 N   0  0  0  0  0  0  0  0  0  0  0  0
  142.7210   80.3620  223.0040 C   0  0  0  0  0  0  0  0  0  0  0  0
  140.0650   76.3660  222.4540 C   0  0  0  0  0  0  0  0  0  0  0  0
  141.1840   74.9430  220.7620 C   0  0  0  0  0  0  0  0  0  0  0  0
  142.5040   75.3560  220.6000 C   0  0  0  0  0  0  0  0  0  0  0  0
  143.5210   74.4810  220.2810 C   0  0  0  0  0  0  0  0  0  0  0  0
  143.2140   73.1500  220.1160 C   0  0  0  0  0  0  0  0  0  0  0  0
  141.9090   72.7620  220.2780 C   0  0  0  0  0  0  0  0  0  0  0  0
  140.8790   73.6150  220.5960 C   0  0  0  0  0  0  0  0  0  0  0  0
  139.6429   72.2810  223.5580 H   0  0  0  0  0  0  0  0  0  0  0  0
  141.4795   71.8375  224.9302 H   0  0  0  0  0  0  0  0  0  0  0  0
  142.1237   73.0740  226.9770 H   0  0  0  0  0  0  0  0  0  0  0  0
  141.2585   72.4182  229.2150 H   0  0  0  0  0  0  0  0  0  0  0  0
  139.6953   70.4280  229.3007 H   0  0  0  0  0  0  0  0  0  0  0  0
  139.9186   67.8770  226.0581 H   0  0  0  0  0  0  0  0  0  0  0  0
  139.1353   66.3387  224.3272 H   0  0  0  0  0  0  0  0  0  0  0  0
  138.4631   67.1914  222.0791 H   0  0  0  0  0  0  0  0  0  0  0  0
  138.2790   69.5330  220.6130 H   0  0  0  0  0  0  0  0  0  0  0  0
  138.1761   75.0380  220.2438 H   0  0  0  0  0  0  0  0  0  0  0  0
  138.2847   74.7946  221.9870 H   0  0  0  0  0  0  0  0  0  0  0  0
  140.3879   76.7644  219.2179 H   0  0  0  0  0  0  0  0  0  0  0  0
  138.7718   77.0393  219.8114 H   0  0  0  0  0  0  0  0  0  0  0  0
  141.3677   78.2824  220.6132 H   0  0  0  0  0  0  0  0  0  0  0  0
  139.6871   78.9279  220.7804 H   0  0  0  0  0  0  0  0  0  0  0  0
  141.3983   77.5850  224.0386 H   0  0  0  0  0  0  0  0  0  0  0  0
  142.3085   78.0093  222.4523 H   0  0  0  0  0  0  0  0  0  0  0  0
  141.7599   79.4329  224.5714 H   0  0  0  0  0  0  0  0  0  0  0  0
  139.4567   79.7567  223.5242 H   0  0  0  0  0  0  0  0  0  0  0  0
  140.4061   81.2396  224.0606 H   0  0  0  0  0  0  0  0  0  0  0  0
  139.7560   80.2849  221.3038 H   0  0  0  0  0  0  0  0  0  0  0  0
  139.4538   81.8934  222.1422 H   0  0  0  0  0  0  0  0  0  0  0  0
  141.2980   81.5176  220.3098 H   0  0  0  0  0  0  0  0  0  0  0  0
  141.4146   82.6548  221.7761 H   0  0  0  0  0  0  0  0  0  0  0  0
  143.1980   80.6970  221.0270 H   0  0  0  0  0  0  0  0  0  0  0  0
  143.5545   79.6528  222.8935 H   0  0  0  0  0  0  0  0  0  0  0  0
  142.8476   81.1591  223.7514 H   0  0  0  0  0  0  0  0  0  0  0  0
  140.8543   75.8801  223.0463 H   0  0  0  0  0  0  0  0  0  0  0  0
  139.0995   76.2345  222.9644 H   0  0  0  0  0  0  0  0  0  0  0  0
  142.7447   76.4212  220.7316 H   0  0  0  0  0  0  0  0  0  0  0  0
  144.5542   74.8390  220.1612 H   0  0  0  0  0  0  0  0  0  0  0  0
  143.9940   72.4174  219.8611 H   0  0  0  0  0  0  0  0  0  0  0  0
  141.6702   71.6966  220.1445 H   0  0  0  0  0  0  0  0  0  0  0  0
  1  2  2  0
  2  3  1  0
  3  4  2  0
  4  5  1  0
  5  6  2  0
  6  7  1  0
  7  8  2  0
  8  9  1  0
  9 10  2  0
 10 11  1  0
 11 12  2  0
  6 13  1  0
 13 14  2  0
 14 15  1  0
 15 16  2  0
 16 17  1  0
  2 18  1  0
 18 19  1  0
 20 19  1  1
 20 21  1  0
 21 22  1  0
 22 23  1  0
 23 24  1  0
 24 25  1  0
 25 26  1  0
 26 27  1  0
 27 28  1  0
 28 29  1  0
 29 30  1  0
 23 31  1  0
 20 32  1  0
 32 33  2  0
 33 34  1  0
 34 35  2  0
 35 36  1  0
 36 37  2  0
 17  3  1  0
 37 18  1  0
 16  5  1  0
 31 20  1  0
 37 32  1  0
 12  7  1  0
 30 25  1  0
  4 38  1  0
  8 39  1  0
  9 40  1  0
 10 41  1  0
 11 42  1  0
 13 43  1  0
 14 44  1  0
 15 45  1  0
 17 46  1  0
 19 47  1  0
 19 48  1  0
 21 49  1  0
 21 50  1  0
 22 51  1  0
 22 52  1  0
 24 53  1  0
 24 54  1  0
 25 55  1  1
 26 56  1  0
 26 57  1  0
 27 58  1  0
 27 59  1  0
 28 60  1  0
 28 61  1  0
 29 62  1  0
 30 63  1  0
 30 64  1  0
 31 65  1  0
 31 66  1  0
 33 67  1  0
 34 68  1  0
 35 69  1  0
 36 70  1  0
M  END
>  <smiles>  (19) 
O=C(c1cc2c(-c3ccccn3)cccc2[nH]1)N1C[C@]2(CCN(CC3CCCNC3)C2)c2ccccc21

>  <score_type>  (19) 
oracle

>  <origin>  (19) 
autodockgpu

>  <m_score__min__energy>  (19) 
-10.640000000000001

>  <m_primary>  (19) 
energy

>  <rmsd>  (19) 
2.676319318380297

>  <m_score__min__rmsd>  (19) 
2.676319318380297

>  <meeko>  (19) 
{"free_energy": -9.71, "intermolecular_energy": -11.21, "internal_energy": -1.9, "cluster_size": 30, "cluster_id": 1, "rank_in_cluster": 20}

>  <energy>  (19) 
-9.73

>  <cluster_rmsd>  (19) 
1.83

>  <cluster>  (19) 
1

$$$$

     RDKit          3D

 70 76  0  0  1  0  0  0  0  0999 V2000
  142.0200   71.8400  221.4910 O   0  0  0  0  0  0  0  0  0  0  0  0
  140.9620   72.4630  221.8070 C   0  0  0  0  0  0  0  0  0  0  0  0
  139.9940   71.7030  222.5810 C   0  0  0  0  0  0  0  0  0  0  0  0
  140.2380   71.0570  223.7840 C   0  0  0  0  0  0  0  0  0  0  0  0
  139.0860   70.4800  224.1970 C   0  0  0  0  0  0  0  0  0  0  0  0
  138.7560   69.7150  225.2830 C   0  0  0  0  0  0  0  0  0  0  0  0
  139.6340   69.3000  226.3440 C   0  0  0  0  0  0  0  0  0  0  0  0
  139.9540   69.9920  227.4780 C   0  0  0  0  0  0  0  0  0  0  0  0
  140.7920   69.4240  228.4490 C   0  0  0  0  0  0  0  0  0  0  0  0
  141.3240   68.1680  228.3160 C   0  0  0  0  0  0  0  0  0  0  0  0
  140.9750   67.4850  227.1440 C   0  0  0  0  0  0  0  0  0  0  0  0
  140.1740   68.0550  226.2370 N   0  0  0  0  0  0  0  0  0  0  0  0
  137.4400   69.2720  225.3410 C   0  0  0  0  0  0  0  0  0  0  0  0
  136.5030   69.5720  224.3780 C   0  0  0  0  0  0  0  0  0  0  0  0
  136.8360   70.3450  223.2880 C   0  0  0  0  0  0  0  0  0  0  0  0
  138.1400   70.7910  223.2160 C   0  0  0  0  0  0  0  0  0  0  0  0
  138.7050   71.5300  222.2490 N   0  0  0  0  0  0  0  0  0  0  0  0
  140.7710   73.8300  221.4080 N   0  0  0  0  0  0  0  0  0  0  0  0
  139.5030   74.4970  221.5860 C   0  0  0  0  0  0  0  0  0  0  0  0
  139.7500   75.9070  221.1630 C   0  0  1  0  0  0  0  0  0  0  0  0
  138.7640   76.3740  220.1160 C   0  0  0  0  0  0  0  0  0  0  0  0
  138.5090   77.7870  220.5420 C   0  0  0  0  0  0  0  0  0  0  0  0
  138.8490   77.9770  221.8970 N   0  0  0  0  0  0  0  0  0  0  0  0
  139.4870   79.1630  222.2900 C   0  0  0  0  0  0  0  0  0  0  0  0
  140.9310   79.3480  222.0170 C   0  0  2  0  0  0  0  0  0  0  0  0
  141.8540   78.8330  223.0780 C   0  0  0  0  0  0  0  0  0  0  0  0
  142.1810   79.8080  224.1700 C   0  0  0  0  0  0  0  0  0  0  0  0
  142.4260   81.2010  223.7150 C   0  0  0  0  0  0  0  0  0  0  0  0
  141.8020   81.6160  222.5220 N   0  0  0  0  0  0  0  0  0  0  0  0
  141.3980   80.6730  221.5660 C   0  0  0  0  0  0  0  0  0  0  0  0
  139.5350   76.8030  222.3340 C   0  0  0  0  0  0  0  0  0  0  0  0
  141.1300   75.9000  220.6670 C   0  0  0  0  0  0  0  0  0  0  0  0
  141.8530   76.9450  220.0950 C   0  0  0  0  0  0  0  0  0  0  0  0
  143.1560   76.7980  219.6680 C   0  0  0  0  0  0  0  0  0  0  0  0
  143.7610   75.5710  219.8150 C   0  0  0  0  0  0  0  0  0  0  0  0
  143.0330   74.5540  220.3780 C   0  0  0  0  0  0  0  0  0  0  0  0
  141.7340   74.6760  220.8110 C   0  0  0  0  0  0  0  0  0  0  0  0
  141.2025   71.0201  224.3116 H   0  0  0  0  0  0  0  0  0  0  0  0
  139.5507   71.0039  227.6309 H   0  0  0  0  0  0  0  0  0  0  0  0
  141.0309   70.0080  229.3501 H   0  0  0  0  0  0  0  0  0  0  0  0
  141.9814   67.7257  229.0790 H   0  0  0  0  0  0  0  0  0  0  0  0
  141.3631   66.4709  226.9679 H   0  0  0  0  0  0  0  0  0  0  0  0
  137.1326   68.6526  226.1965 H   0  0  0  0  0  0  0  0  0  0  0  0
  135.4766   69.1899  224.4804 H   0  0  0  0  0  0  0  0  0  0  0  0
  136.0978   70.5950  222.5118 H   0  0  0  0  0  0  0  0  0  0  0  0
  138.2530   71.9170  221.3830 H   0  0  0  0  0  0  0  0  0  0  0  0
  138.7297   74.0334  220.9559 H   0  0  0  0  0  0  0  0  0  0  0  0
  139.1422   74.4322  222.6231 H   0  0  0  0  0  0  0  0  0  0  0  0
  139.2014   76.3327  219.1075 H   0  0  0  0  0  0  0  0  0  0  0  0
  137.8554   75.7571  220.0539 H   0  0  0  0  0  0  0  0  0  0  0  0
  139.1140   78.4643  219.9213 H   0  0  0  0  0  0  0  0  0  0  0  0
  137.4375   78.0021  220.4168 H   0  0  0  0  0  0  0  0  0  0  0  0
  138.9600   79.9889  221.7897 H   0  0  0  0  0  0  0  0  0  0  0  0
  139.4379   79.1268  223.3883 H   0  0  0  0  0  0  0  0  0  0  0  0
  140.9946   78.6999  221.1305 H   0  0  0  0  0  0  0  0  0  0  0  0
  141.3843   77.9514  223.5387 H   0  0  0  0  0  0  0  0  0  0  0  0
  142.8055   78.6111  222.5726 H   0  0  0  0  0  0  0  0  0  0  0  0
  141.3388   79.8232  224.8774 H   0  0  0  0  0  0  0  0  0  0  0  0
  143.1230   79.4613  224.6200 H   0  0  0  0  0  0  0  0  0  0  0  0
  142.0854   81.8737  224.5159 H   0  0  0  0  0  0  0  0  0  0  0  0
  143.5031   81.2379  223.4948 H   0  0  0  0  0  0  0  0  0  0  0  0
  141.1990   82.4460  222.5970 H   0  0  0  0  0  0  0  0  0  0  0  0
  140.5750   81.1267  220.9943 H   0  0  0  0  0  0  0  0  0  0  0  0
  142.3209   80.4508  221.0102 H   0  0  0  0  0  0  0  0  0  0  0  0
  140.5061   77.0827  222.7684 H   0  0  0  0  0  0  0  0  0  0  0  0
  138.9366   76.2832  223.0967 H   0  0  0  0  0  0  0  0  0  0  0  0
  141.3658   77.9245  219.9797 H   0  0  0  0  0  0  0  0  0  0  0  0
  143.6996   77.6428  219.2199 H   0  0  0  0  0  0  0  0  0  0  0  0
  144.7995   75.4102  219.4901 H   0  0  0  0  0  0  0  0  0  0  0  0
  143.5215   73.5749  220.4906 H   0  0  0  0  0  0  0  0  0  0  0  0
  1  2  2  0
  2  3  1  0
  3  4  2  0
  4  5  1  0
  5  6  2  0
  6  7  1  0
  7  8  2  0
  8  9  1  0
  9 10  2  0
 10 11  1  0
 11 12  2  0
  6 13  1  0
 13 14  2  0
 14 15  1  0
 15 16  2  0
 16 17  1  0
  2 18  1  0
 18 19  1  0
 20 19  1  1
 20 21  1  0
 21 22  1  0
 22 23  1  0
 23 24  1  0
 24 25  1  0
 25 26  1  0
 26 27  1  0
 27 28  1  0
 28 29  1  0
 29 30  1  0
 23 31  1  0
 20 32  1  0
 32 33  2  0
 33 34  1  0
 34 35  2  0
 35 36  1  0
 36 37  2  0
 17  3  1  0
 37 18  1  0
 16  5  1  0
 31 20  1  0
 37 32  1  0
 12  7  1  0
 30 25  1  0
  4 38  1  0
  8 39  1  0
  9 40  1  0
 10 41  1  0
 11 42  1  0
 13 43  1  0
 14 44  1  0
 15 45  1  0
 17 46  1  0
 19 47  1  0
 19 48  1  0
 21 49  1  0
 21 50  1  0
 22 51  1  0
 22 52  1  0
 24 53  1  0
 24 54  1  0
 25 55  1  6
 26 56  1  0
 26 57  1  0
 27 58  1  0
 27 59  1  0
 28 60  1  0
 28 61  1  0
 29 62  1  0
 30 63  1  0
 30 64  1  0
 31 65  1  0
 31 66  1  0
 33 67  1  0
 34 68  1  0
 35 69  1  0
 36 70  1  0
M  END
>  <smiles>  (20) 
O=C(c1cc2c(-c3ccccn3)cccc2[nH]1)N1C[C@]2(CCN(CC3CCCNC3)C2)c2ccccc21

>  <score_type>  (20) 
oracle

>  <origin>  (20) 
autodockgpu

>  <m_score__min__energy>  (20) 
-10.640000000000001

>  <m_primary>  (20) 
energy

>  <rmsd>  (20) 
2.892871839847929

>  <m_score__min__rmsd>  (20) 
2.892871839847929

>  <meeko>  (20) 
{"free_energy": -9.89, "intermolecular_energy": -11.38, "internal_energy": -1.83, "cluster_size": 30, "cluster_id": 1, "rank_in_cluster": 14}

>  <energy>  (20) 
-9.71

>  <cluster_rmsd>  (20) 
1.83

>  <cluster>  (20) 
1

$$$$

     RDKit          3D

 70 76  0  0  1  0  0  0  0  0999 V2000
  142.1690   71.8780  221.6600 O   0  0  0  0  0  0  0  0  0  0  0  0
  141.0770   72.4780  221.8960 C   0  0  0  0  0  0  0  0  0  0  0  0
  140.0910   71.7170  222.6450 C   0  0  0  0  0  0  0  0  0  0  0  0
  140.3120   71.0520  223.8410 C   0  0  0  0  0  0  0  0  0  0  0  0
  139.1490   70.4800  224.2290 C   0  0  0  0  0  0  0  0  0  0  0  0
  138.7960   69.7020  225.3000 C   0  0  0  0  0  0  0  0  0  0  0  0
  139.6550   69.2650  226.3670 C   0  0  0  0  0  0  0  0  0  0  0  0
  140.2310   68.0360  226.5230 C   0  0  0  0  0  0  0  0  0  0  0  0
  141.0920   67.7820  227.6000 C   0  0  0  0  0  0  0  0  0  0  0  0
  141.3990   68.7350  228.5360 C   0  0  0  0  0  0  0  0  0  0  0  0
  140.7950   69.9840  228.3470 C   0  0  0  0  0  0  0  0  0  0  0  0
  139.9770   70.1940  227.3100 N   0  0  0  0  0  0  0  0  0  0  0  0
  137.4760   69.2700  225.3320 C   0  0  0  0  0  0  0  0  0  0  0  0
  136.5560   69.5920  224.3600 C   0  0  0  0  0  0  0  0  0  0  0  0
  136.9110   70.3770  223.2860 C   0  0  0  0  0  0  0  0  0  0  0  0
  138.2200   70.8120  223.2390 C   0  0  0  0  0  0  0  0  0  0  0  0
  138.8060   71.5600  222.2910 N   0  0  0  0  0  0  0  0  0  0  0  0
  140.8670   73.8240  221.4360 N   0  0  0  0  0  0  0  0  0  0  0  0
  139.6100   74.5030  221.6390 C   0  0  0  0  0  0  0  0  0  0  0  0
  139.8370   75.8880  221.1330 C   0  0  1  0  0  0  0  0  0  0  0  0
  138.8030   76.3040  220.1110 C   0  0  0  0  0  0  0  0  0  0  0  0
  138.5680   77.7370  220.4760 C   0  0  0  0  0  0  0  0  0  0  0  0
  138.9720   77.9950  221.8010 N   0  0  0  0  0  0  0  0  0  0  0  0
  139.6280   79.1990  222.1030 C   0  0  0  0  0  0  0  0  0  0  0  0
  140.4620   79.2970  223.3240 C   0  0  2  0  0  0  0  0  0  0  0  0
  140.6630   80.6830  223.8520 C   0  0  0  0  0  0  0  0  0  0  0  0
  141.8380   81.4210  223.2810 C   0  0  0  0  0  0  0  0  0  0  0  0
  143.0680   80.6070  223.1090 C   0  0  0  0  0  0  0  0  0  0  0  0
  142.9090   79.2190  222.9200 N   0  0  0  0  0  0  0  0  0  0  0  0
  141.7460   78.5700  223.3590 C   0  0  0  0  0  0  0  0  0  0  0  0
  139.6780   76.8440  222.2650 C   0  0  0  0  0  0  0  0  0  0  0  0
  141.1920   75.8520  220.5730 C   0  0  0  0  0  0  0  0  0  0  0  0
  141.8880   76.8640  219.9150 C   0  0  0  0  0  0  0  0  0  0  0  0
  143.1690   76.6920  219.4360 C   0  0  0  0  0  0  0  0  0  0  0  0
  143.7790   75.4720  219.6160 C   0  0  0  0  0  0  0  0  0  0  0  0
  143.0790   74.4880  220.2650 C   0  0  0  0  0  0  0  0  0  0  0  0
  141.8020   74.6350  220.7520 C   0  0  0  0  0  0  0  0  0  0  0  0
  141.2685   70.9986  224.3816 H   0  0  0  0  0  0  0  0  0  0  0  0
  140.0172   67.2381  225.7966 H   0  0  0  0  0  0  0  0  0  0  0  0
  141.5375   66.7810  227.6974 H   0  0  0  0  0  0  0  0  0  0  0  0
  142.0750   68.5321  229.3797 H   0  0  0  0  0  0  0  0  0  0  0  0
  140.9950   70.7995  229.0576 H   0  0  0  0  0  0  0  0  0  0  0  0
  137.1507   68.6410  226.1737 H   0  0  0  0  0  0  0  0  0  0  0  0
  135.5249   69.2177  224.4423 H   0  0  0  0  0  0  0  0  0  0  0  0
  136.1862   70.6446  222.5030 H   0  0  0  0  0  0  0  0  0  0  0  0
  138.3700   71.9620  221.4230 H   0  0  0  0  0  0  0  0  0  0  0  0
  138.8074   74.0099  221.0709 H   0  0  0  0  0  0  0  0  0  0  0  0
  139.2991   74.4929  222.6941 H   0  0  0  0  0  0  0  0  0  0  0  0
  139.1927   76.2107  219.0866 H   0  0  0  0  0  0  0  0  0  0  0  0
  137.8925   75.6869  220.1230 H   0  0  0  0  0  0  0  0  0  0  0  0
  139.1423   78.3806  219.7934 H   0  0  0  0  0  0  0  0  0  0  0  0
  137.4916   77.9475  220.3913 H   0  0  0  0  0  0  0  0  0  0  0  0
  140.2841   79.4269  221.2500 H   0  0  0  0  0  0  0  0  0  0  0  0
  138.8014   79.8969  222.3020 H   0  0  0  0  0  0  0  0  0  0  0  0
  139.7950   78.7420  224.0001 H   0  0  0  0  0  0  0  0  0  0  0  0
  139.7561   81.2655  223.6324 H   0  0  0  0  0  0  0  0  0  0  0  0
  140.8655   80.5731  224.9276 H   0  0  0  0  0  0  0  0  0  0  0  0
  141.5480   81.8134  222.2951 H   0  0  0  0  0  0  0  0  0  0  0  0
  142.0894   82.2074  224.0079 H   0  0  0  0  0  0  0  0  0  0  0  0
  143.6030   80.9998  222.2318 H   0  0  0  0  0  0  0  0  0  0  0  0
  143.6017   80.7001  224.0663 H   0  0  0  0  0  0  0  0  0  0  0  0
  143.3260   78.8330  222.0620 H   0  0  0  0  0  0  0  0  0  0  0  0
  141.6242   77.6714  222.7363 H   0  0  0  0  0  0  0  0  0  0  0  0
  141.9258   78.4055  224.4317 H   0  0  0  0  0  0  0  0  0  0  0  0
  140.6687   77.1435  222.6376 H   0  0  0  0  0  0  0  0  0  0  0  0
  139.1167   76.3658  223.0813 H   0  0  0  0  0  0  0  0  0  0  0  0
  141.3963   77.8376  219.7723 H   0  0  0  0  0  0  0  0  0  0  0  0
  143.6918   77.5117  218.9214 H   0  0  0  0  0  0  0  0  0  0  0  0
  144.8002   75.2911  219.2493 H   0  0  0  0  0  0  0  0  0  0  0  0
  143.5726   73.5151  220.4055 H   0  0  0  0  0  0  0  0  0  0  0  0
  1  2  2  0
  2  3  1  0
  3  4  2  0
  4  5  1  0
  5  6  2  0
  6  7  1  0
  7  8  2  0
  8  9  1  0
  9 10  2  0
 10 11  1  0
 11 12  2  0
  6 13  1  0
 13 14  2  0
 14 15  1  0
 15 16  2  0
 16 17  1  0
  2 18  1  0
 18 19  1  0
 20 19  1  1
 20 21  1  0
 21 22  1  0
 22 23  1  0
 23 24  1  0
 24 25  1  0
 25 26  1  0
 26 27  1  0
 27 28  1  0
 28 29  1  0
 29 30  1  0
 23 31  1  0
 20 32  1  0
 32 33  2  0
 33 34  1  0
 34 35  2  0
 35 36  1  0
 36 37  2  0
 17  3  1  0
 37 18  1  0
 16  5  1  0
 31 20  1  0
 37 32  1  0
 12  7  1  0
 30 25  1  0
  4 38  1  0
  8 39  1  0
  9 40  1  0
 10 41  1  0
 11 42  1  0
 13 43  1  0
 14 44  1  0
 15 45  1  0
 17 46  1  0
 19 47  1  0
 19 48  1  0
 21 49  1  0
 21 50  1  0
 22 51  1  0
 22 52  1  0
 24 53  1  0
 24 54  1  0
 25 55  1  1
 26 56  1  0
 26 57  1  0
 27 58  1  0
 27 59  1  0
 28 60  1  0
 28 61  1  0
 29 62  1  0
 30 63  1  0
 30 64  1  0
 31 65  1  0
 31 66  1  0
 33 67  1  0
 34 68  1  0
 35 69  1  0
 36 70  1  0
M  END
>  <smiles>  (21) 
O=C(c1cc2c(-c3ccccn3)cccc2[nH]1)N1C[C@]2(CCN(CC3CCCNC3)C2)c2ccccc21

>  <score_type>  (21) 
oracle

>  <origin>  (21) 
autodockgpu

>  <m_score__min__energy>  (21) 
-10.640000000000001

>  <m_primary>  (21) 
energy

>  <rmsd>  (21) 
3.004015399442569

>  <m_score__min__rmsd>  (21) 
3.004015399442569

>  <meeko>  (21) 
{"free_energy": -10.62, "intermolecular_energy": -12.11, "internal_energy": -1.62, "cluster_size": 30, "cluster_id": 1, "rank_in_cluster": 2}

>  <energy>  (21) 
-9.71

>  <cluster_rmsd>  (21) 
1.81

>  <cluster>  (21) 
1

$$$$

     RDKit          3D

 70 76  0  0  1  0  0  0  0  0999 V2000
  142.1350   71.8900  221.2390 O   0  0  0  0  0  0  0  0  0  0  0  0
  141.0760   72.4390  221.6700 C   0  0  0  0  0  0  0  0  0  0  0  0
  140.1860   71.5760  222.4290 C   0  0  0  0  0  0  0  0  0  0  0  0
  140.4150   71.0920  223.7080 C   0  0  0  0  0  0  0  0  0  0  0  0
  139.3500   70.3440  224.0750 C   0  0  0  0  0  0  0  0  0  0  0  0
  139.0500   69.6230  225.2010 C   0  0  0  0  0  0  0  0  0  0  0  0
  139.8720   69.4750  226.3720 C   0  0  0  0  0  0  0  0  0  0  0  0
  140.2990   70.4580  227.2200 C   0  0  0  0  0  0  0  0  0  0  0  0
  141.0580   70.1420  228.3560 C   0  0  0  0  0  0  0  0  0  0  0  0
  141.4050   68.8540  228.6720 C   0  0  0  0  0  0  0  0  0  0  0  0
  140.9510   67.8710  227.7850 C   0  0  0  0  0  0  0  0  0  0  0  0
  140.2300   68.2050  226.7090 N   0  0  0  0  0  0  0  0  0  0  0  0
  137.8380   68.9440  225.1880 C   0  0  0  0  0  0  0  0  0  0  0  0
  136.9700   68.9780  224.1200 C   0  0  0  0  0  0  0  0  0  0  0  0
  137.2700   69.7050  222.9900 C   0  0  0  0  0  0  0  0  0  0  0  0
  138.4720   70.3840  222.9880 C   0  0  0  0  0  0  0  0  0  0  0  0
  138.9920   71.1340  222.0040 N   0  0  0  0  0  0  0  0  0  0  0  0
  140.8120   73.8260  221.4040 N   0  0  0  0  0  0  0  0  0  0  0  0
  139.5520   74.4350  221.7590 C   0  0  0  0  0  0  0  0  0  0  0  0
  139.7190   75.8810  221.4300 C   0  0  1  0  0  0  0  0  0  0  0  0
  138.6220   76.3960  220.5260 C   0  0  0  0  0  0  0  0  0  0  0  0
  138.3750   77.7620  221.0890 C   0  0  0  0  0  0  0  0  0  0  0  0
  138.8450   77.8560  222.4150 N   0  0  0  0  0  0  0  0  0  0  0  0
  139.4890   79.0280  222.8390 C   0  0  0  0  0  0  0  0  0  0  0  0
  140.8840   79.2970  222.4150 C   0  0  2  0  0  0  0  0  0  0  0  0
  141.7960   79.7960  223.4930 C   0  0  0  0  0  0  0  0  0  0  0  0
  141.8180   81.2850  223.6730 C   0  0  0  0  0  0  0  0  0  0  0  0
  141.8100   82.0700  222.4130 C   0  0  0  0  0  0  0  0  0  0  0  0
  141.2210   81.4770  221.2790 N   0  0  0  0  0  0  0  0  0  0  0  0
  141.1050   80.0820  221.1860 C   0  0  0  0  0  0  0  0  0  0  0  0
  139.6010   76.6750  222.6850 C   0  0  0  0  0  0  0  0  0  0  0  0
  141.0430   75.9590  220.8020 C   0  0  0  0  0  0  0  0  0  0  0  0
  141.6780   77.0680  220.2490 C   0  0  0  0  0  0  0  0  0  0  0  0
  142.9350   76.9990  219.6860 C   0  0  0  0  0  0  0  0  0  0  0  0
  143.5820   75.7840  219.6720 C   0  0  0  0  0  0  0  0  0  0  0  0
  142.9400   74.7040  220.2190 C   0  0  0  0  0  0  0  0  0  0  0  0
  141.6890   74.7470  220.7860 C   0  0  0  0  0  0  0  0  0  0  0  0
  141.3093   71.2836  224.3191 H   0  0  0  0  0  0  0  0  0  0  0  0
  140.0448   71.5073  227.0094 H   0  0  0  0  0  0  0  0  0  0  0  0
  141.3868   70.9571  229.0174 H   0  0  0  0  0  0  0  0  0  0  0  0
  142.0008   68.6092  229.5637 H   0  0  0  0  0  0  0  0  0  0  0  0
  141.1894   66.8140  227.9746 H   0  0  0  0  0  0  0  0  0  0  0  0
  137.5590   68.3518  226.0720 H   0  0  0  0  0  0  0  0  0  0  0  0
  136.0250   68.4173  224.1701 H   0  0  0  0  0  0  0  0  0  0  0  0
  136.5850   69.7430  222.1302 H   0  0  0  0  0  0  0  0  0  0  0  0
  138.5710   71.3520  221.0660 H   0  0  0  0  0  0  0  0  0  0  0  0
  138.7313   73.9967  221.1722 H   0  0  0  0  0  0  0  0  0  0  0  0
  139.2994   74.2775  222.8180 H   0  0  0  0  0  0  0  0  0  0  0  0
  138.9574   76.4489  219.4797 H   0  0  0  0  0  0  0  0  0  0  0  0
  137.7276   75.7560  220.5027 H   0  0  0  0  0  0  0  0  0  0  0  0
  138.8967   78.5060  220.4691 H   0  0  0  0  0  0  0  0  0  0  0  0
  137.2912   77.9502  221.0878 H   0  0  0  0  0  0  0  0  0  0  0  0
  138.8798   79.8724  222.4841 H   0  0  0  0  0  0  0  0  0  0  0  0
  139.5749   78.8923  223.9272 H   0  0  0  0  0  0  0  0  0  0  0  0
  141.1589   78.2643  222.1545 H   0  0  0  0  0  0  0  0  0  0  0  0
  141.4786   79.3430  224.4438 H   0  0  0  0  0  0  0  0  0  0  0  0
  142.8136   79.5105  223.1880 H   0  0  0  0  0  0  0  0  0  0  0  0
  140.9319   81.5709  224.2587 H   0  0  0  0  0  0  0  0  0  0  0  0
  142.7681   81.5197  224.1751 H   0  0  0  0  0  0  0  0  0  0  0  0
  141.2696   83.0071  222.6125 H   0  0  0  0  0  0  0  0  0  0  0  0
  142.8716   82.1848  222.1486 H   0  0  0  0  0  0  0  0  0  0  0  0
  140.4560   82.0080  220.8410 H   0  0  0  0  0  0  0  0  0  0  0  0
  140.2591   79.8734  220.5144 H   0  0  0  0  0  0  0  0  0  0  0  0
  142.0986   79.7581  220.8426 H   0  0  0  0  0  0  0  0  0  0  0  0
  140.6037   76.9520  223.0425 H   0  0  0  0  0  0  0  0  0  0  0  0
  139.0960   76.0775  223.4583 H   0  0  0  0  0  0  0  0  0  0  0  0
  141.1568   78.0366  220.2617 H   0  0  0  0  0  0  0  0  0  0  0  0
  143.4097   77.8942  219.2580 H   0  0  0  0  0  0  0  0  0  0  0  0
  144.5860   75.6829  219.2341 H   0  0  0  0  0  0  0  0  0  0  0  0
  143.4620   73.7359  220.2031 H   0  0  0  0  0  0  0  0  0  0  0  0
  1  2  2  0
  2  3  1  0
  3  4  2  0
  4  5  1  0
  5  6  2  0
  6  7  1  0
  7  8  2  0
  8  9  1  0
  9 10  2  0
 10 11  1  0
 11 12  2  0
  6 13  1  0
 13 14  2  0
 14 15  1  0
 15 16  2  0
 16 17  1  0
  2 18  1  0
 18 19  1  0
 20 19  1  1
 20 21  1  0
 21 22  1  0
 22 23  1  0
 23 24  1  0
 24 25  1  0
 25 26  1  0
 26 27  1  0
 27 28  1  0
 28 29  1  0
 29 30  1  0
 23 31  1  0
 20 32  1  0
 32 33  2  0
 33 34  1  0
 34 35  2  0
 35 36  1  0
 36 37  2  0
 17  3  1  0
 37 18  1  0
 16  5  1  0
 31 20  1  0
 37 32  1  0
 12  7  1  0
 30 25  1  0
  4 38  1  0
  8 39  1  0
  9 40  1  0
 10 41  1  0
 11 42  1  0
 13 43  1  0
 14 44  1  0
 15 45  1  0
 17 46  1  0
 19 47  1  0
 19 48  1  0
 21 49  1  0
 21 50  1  0
 22 51  1  0
 22 52  1  0
 24 53  1  0
 24 54  1  0
 25 55  1  6
 26 56  1  0
 26 57  1  0
 27 58  1  0
 27 59  1  0
 28 60  1  0
 28 61  1  0
 29 62  1  0
 30 63  1  0
 30 64  1  0
 31 65  1  0
 31 66  1  0
 33 67  1  0
 34 68  1  0
 35 69  1  0
 36 70  1  0
M  END
>  <smiles>  (22) 
O=C(c1cc2c(-c3ccccn3)cccc2[nH]1)N1C[C@]2(CCN(CC3CCCNC3)C2)c2ccccc21

>  <score_type>  (22) 
oracle

>  <origin>  (22) 
autodockgpu

>  <m_score__min__energy>  (22) 
-10.640000000000001

>  <m_primary>  (22) 
energy

>  <rmsd>  (22) 
2.6858733227138414

>  <m_score__min__rmsd>  (22) 
2.6858733227138414

>  <meeko>  (22) 
{"free_energy": -9.7, "intermolecular_energy": -11.19, "internal_energy": -1.8, "cluster_size": 30, "cluster_id": 1, "rank_in_cluster": 22}

>  <energy>  (22) 
-9.7

>  <cluster_rmsd>  (22) 
1.1

>  <cluster>  (22) 
1

$$$$

     RDKit          3D

 70 76  0  0  1  0  0  0  0  0999 V2000
  139.8810   75.6430  219.4070 O   0  0  0  0  0  0  0  0  0  0  0  0
  139.7770   75.5490  220.6670 C   0  0  0  0  0  0  0  0  0  0  0  0
  140.1610   76.7330  221.4190 C   0  0  0  0  0  0  0  0  0  0  0  0
  139.3010   77.5720  222.1120 C   0  0  0  0  0  0  0  0  0  0  0  0
  140.0380   78.5470  222.6930 C   0  0  0  0  0  0  0  0  0  0  0  0
  139.7180   79.6330  223.4640 C   0  0  0  0  0  0  0  0  0  0  0  0
  138.4020   80.0370  223.8790 C   0  0  0  0  0  0  0  0  0  0  0  0
  138.0750   80.9420  224.8490 C   0  0  0  0  0  0  0  0  0  0  0  0
  136.7350   81.2680  225.1000 C   0  0  0  0  0  0  0  0  0  0  0  0
  135.6980   80.7070  224.3990 C   0  0  0  0  0  0  0  0  0  0  0  0
  136.0670   79.7860  223.4110 C   0  0  0  0  0  0  0  0  0  0  0  0
  137.3550   79.4960  223.1960 N   0  0  0  0  0  0  0  0  0  0  0  0
  140.7800   80.4380  223.8550 C   0  0  0  0  0  0  0  0  0  0  0  0
  142.0870   80.1820  223.5040 C   0  0  0  0  0  0  0  0  0  0  0  0
  142.4080   79.0880  222.7320 C   0  0  0  0  0  0  0  0  0  0  0  0
  141.3620   78.2790  222.3350 C   0  0  0  0  0  0  0  0  0  0  0  0
  141.4180   77.1800  221.5660 N   0  0  0  0  0  0  0  0  0  0  0  0
  139.3060   74.3340  221.2740 N   0  0  0  0  0  0  0  0  0  0  0  0
  140.1030   73.1310  221.2700 C   0  0  0  0  0  0  0  0  0  0  0  0
  139.3250   72.1530  222.0850 C   0  0  1  0  0  0  0  0  0  0  0  0
  139.0840   70.8540  221.3500 C   0  0  0  0  0  0  0  0  0  0  0  0
  139.2510   69.8460  222.4440 C   0  0  0  0  0  0  0  0  0  0  0  0
  139.9880   70.3820  223.5190 N   0  0  0  0  0  0  0  0  0  0  0  0
  139.6080   70.0820  224.8360 C   0  0  0  0  0  0  0  0  0  0  0  0
  140.6410   69.9600  225.8910 C   0  0  2  0  0  0  0  0  0  0  0  0
  140.1850   69.3160  227.1630 C   0  0  0  0  0  0  0  0  0  0  0  0
  139.6000   70.2510  228.1800 C   0  0  0  0  0  0  0  0  0  0  0  0
  140.3140   71.5450  228.3270 C   0  0  0  0  0  0  0  0  0  0  0  0
  141.0270   72.0260  227.2100 N   0  0  0  0  0  0  0  0  0  0  0  0
  141.4620   71.1440  226.2110 C   0  0  0  0  0  0  0  0  0  0  0  0
  140.1270   71.7840  223.2850 C   0  0  0  0  0  0  0  0  0  0  0  0
  138.0760   72.8560  222.3990 C   0  0  0  0  0  0  0  0  0  0  0  0
  136.9630   72.3830  223.0900 C   0  0  0  0  0  0  0  0  0  0  0  0
  135.8460   73.1590  223.3170 C   0  0  0  0  0  0  0  0  0  0  0  0
  135.8360   74.4500  222.8390 C   0  0  0  0  0  0  0  0  0  0  0  0
  136.9400   74.8970  222.1600 C   0  0  0  0  0  0  0  0  0  0  0  0
  138.0640   74.1440  221.9220 C   0  0  0  0  0  0  0  0  0  0  0  0
  138.2083   77.4636  222.1780 H   0  0  0  0  0  0  0  0  0  0  0  0
  138.8713   81.4195  225.4388 H   0  0  0  0  0  0  0  0  0  0  0  0
  136.5067   82.0006  225.8881 H   0  0  0  0  0  0  0  0  0  0  0  0
  134.6473   80.9634  224.5995 H   0  0  0  0  0  0  0  0  0  0  0  0
  135.2901   79.2961  222.8057 H   0  0  0  0  0  0  0  0  0  0  0  0
  140.5673   81.3219  224.4743 H   0  0  0  0  0  0  0  0  0  0  0  0
  142.8839   80.8596  223.8445 H   0  0  0  0  0  0  0  0  0  0  0  0
  143.4473   78.8692  222.4455 H   0  0  0  0  0  0  0  0  0  0  0  0
  142.2670   76.7290  221.1430 H   0  0  0  0  0  0  0  0  0  0  0  0
  140.2375   72.7592  220.2435 H   0  0  0  0  0  0  0  0  0  0  0  0
  141.1108   73.3004  221.6769 H   0  0  0  0  0  0  0  0  0  0  0  0
  138.0708   70.8175  220.9234 H   0  0  0  0  0  0  0  0  0  0  0  0
  139.7557   70.6963  220.4933 H   0  0  0  0  0  0  0  0  0  0  0  0
  138.2581   69.5406  222.8059 H   0  0  0  0  0  0  0  0  0  0  0  0
  139.7985   68.9809  222.0417 H   0  0  0  0  0  0  0  0  0  0  0  0
  138.9174   70.8758  225.1568 H   0  0  0  0  0  0  0  0  0  0  0  0
  139.2016   69.0628  224.7581 H   0  0  0  0  0  0  0  0  0  0  0  0
  141.3139   69.2739  225.3557 H   0  0  0  0  0  0  0  0  0  0  0  0
  139.4200   68.5672  226.9098 H   0  0  0  0  0  0  0  0  0  0  0  0
  141.0852   68.8862  227.6266 H   0  0  0  0  0  0  0  0  0  0  0  0
  138.5613   70.4656  227.8885 H   0  0  0  0  0  0  0  0  0  0  0  0
  139.6848   69.7411  229.1510 H   0  0  0  0  0  0  0  0  0  0  0  0
  139.5654   72.3060  228.5926 H   0  0  0  0  0  0  0  0  0  0  0  0
  141.0834   71.3552  229.0898 H   0  0  0  0  0  0  0  0  0  0  0  0
  140.7610   72.9630  226.8790 H   0  0  0  0  0  0  0  0  0  0  0  0
  141.5576   71.7292  225.2845 H   0  0  0  0  0  0  0  0  0  0  0  0
  142.3886   70.7174  226.6227 H   0  0  0  0  0  0  0  0  0  0  0  0
  139.7620   72.3426  224.1595 H   0  0  0  0  0  0  0  0  0  0  0  0
  141.1856   72.0315  223.1172 H   0  0  0  0  0  0  0  0  0  0  0  0
  136.9755   71.3505  223.4693 H   0  0  0  0  0  0  0  0  0  0  0  0
  134.9830   72.7559  223.8672 H   0  0  0  0  0  0  0  0  0  0  0  0
  134.9664   75.1047  222.9975 H   0  0  0  0  0  0  0  0  0  0  0  0
  136.9247   75.9291  221.7798 H   0  0  0  0  0  0  0  0  0  0  0  0
  1  2  2  0
  2  3  1  0
  3  4  2  0
  4  5  1  0
  5  6  2  0
  6  7  1  0
  7  8  2  0
  8  9  1  0
  9 10  2  0
 10 11  1  0
 11 12  2  0
  6 13  1  0
 13 14  2  0
 14 15  1  0
 15 16  2  0
 16 17  1  0
  2 18  1  0
 18 19  1  0
 20 19  1  6
 20 21  1  0
 21 22  1  0
 22 23  1  0
 23 24  1  0
 24 25  1  0
 25 26  1  0
 26 27  1  0
 27 28  1  0
 28 29  1  0
 29 30  1  0
 23 31  1  0
 20 32  1  0
 32 33  2  0
 33 34  1  0
 34 35  2  0
 35 36  1  0
 36 37  2  0
 17  3  1  0
 37 18  1  0
 16  5  1  0
 31 20  1  0
 37 32  1  0
 12  7  1  0
 30 25  1  0
  4 38  1  0
  8 39  1  0
  9 40  1  0
 10 41  1  0
 11 42  1  0
 13 43  1  0
 14 44  1  0
 15 45  1  0
 17 46  1  0
 19 47  1  0
 19 48  1  0
 21 49  1  0
 21 50  1  0
 22 51  1  0
 22 52  1  0
 24 53  1  0
 24 54  1  0
 25 55  1  6
 26 56  1  0
 26 57  1  0
 27 58  1  0
 27 59  1  0
 28 60  1  0
 28 61  1  0
 29 62  1  0
 30 63  1  0
 30 64  1  0
 31 65  1  0
 31 66  1  0
 33 67  1  0
 34 68  1  0
 35 69  1  0
 36 70  1  0
M  END
>  <smiles>  (23) 
O=C(c1cc2c(-c3ccccn3)cccc2[nH]1)N1C[C@]2(CCN(CC3CCCNC3)C2)c2ccccc21

>  <score_type>  (23) 
oracle

>  <origin>  (23) 
autodockgpu

>  <m_score__min__energy>  (23) 
-10.640000000000001

>  <m_primary>  (23) 
energy

>  <rmsd>  (23) 
10.052685583975567

>  <m_score__min__rmsd>  (23) 
10.052685583975567

>  <meeko>  (23) 
{"free_energy": -9.79, "intermolecular_energy": -11.29, "internal_energy": -1.66, "cluster_size": 7, "cluster_id": 2, "rank_in_cluster": 2}

>  <energy>  (23) 
-9.68

>  <cluster_rmsd>  (23) 
1.33

>  <cluster>  (23) 
1

$$$$

     RDKit          3D

 70 76  0  0  1  0  0  0  0  0999 V2000
  141.8700   71.5290  221.1630 O   0  0  0  0  0  0  0  0  0  0  0  0
  140.9040   72.2730  221.5130 C   0  0  0  0  0  0  0  0  0  0  0  0
  139.9020   71.6450  222.3590 C   0  0  0  0  0  0  0  0  0  0  0  0
  140.1410   70.9980  223.5620 C   0  0  0  0  0  0  0  0  0  0  0  0
  138.9570   70.5660  224.0530 C   0  0  0  0  0  0  0  0  0  0  0  0
  138.6040   69.8640  225.1750 C   0  0  0  0  0  0  0  0  0  0  0  0
  139.4900   69.3710  226.1950 C   0  0  0  0  0  0  0  0  0  0  0  0
  139.8530   69.9940  227.3560 C   0  0  0  0  0  0  0  0  0  0  0  0
  140.6920   69.3530  228.2790 C   0  0  0  0  0  0  0  0  0  0  0  0
  141.1830   68.0900  228.0720 C   0  0  0  0  0  0  0  0  0  0  0  0
  140.7910   67.4790  226.8750 C   0  0  0  0  0  0  0  0  0  0  0  0
  139.9900   68.1180  226.0150 N   0  0  0  0  0  0  0  0  0  0  0  0
  137.2520   69.5780  225.3180 C   0  0  0  0  0  0  0  0  0  0  0  0
  136.3010   69.9680  224.4010 C   0  0  0  0  0  0  0  0  0  0  0  0
  136.6560   70.6760  223.2750 C   0  0  0  0  0  0  0  0  0  0  0  0
  137.9960   70.9660  223.1190 C   0  0  0  0  0  0  0  0  0  0  0  0
  138.5850   71.6170  222.1030 N   0  0  0  0  0  0  0  0  0  0  0  0
  140.8420   73.6430  221.0810 N   0  0  0  0  0  0  0  0  0  0  0  0
  139.5950   74.3680  221.0500 C   0  0  0  0  0  0  0  0  0  0  0  0
  139.9700   75.7590  220.6650 C   0  0  1  0  0  0  0  0  0  0  0  0
  139.1870   76.2570  219.4710 C   0  0  0  0  0  0  0  0  0  0  0  0
  138.9310   77.6850  219.8440 C   0  0  0  0  0  0  0  0  0  0  0  0
  139.0590   77.8760  221.2340 N   0  0  0  0  0  0  0  0  0  0  0  0
  139.6800   79.0380  221.7190 C   0  0  0  0  0  0  0  0  0  0  0  0
  140.4090   79.0000  223.0080 C   0  0  2  0  0  0  0  0  0  0  0  0
  140.3370   80.2550  223.8220 C   0  0  0  0  0  0  0  0  0  0  0  0
  141.4000   81.2710  223.5250 C   0  0  0  0  0  0  0  0  0  0  0  0
  142.7600   80.7130  223.3090 C   0  0  0  0  0  0  0  0  0  0  0  0
  142.8530   79.3910  222.8300 N   0  0  0  0  0  0  0  0  0  0  0  0
  141.7940   78.4910  223.0170 C   0  0  0  0  0  0  0  0  0  0  0  0
  139.6120   76.6790  221.7820 C   0  0  0  0  0  0  0  0  0  0  0  0
  141.4100   75.6850  220.3960 C   0  0  0  0  0  0  0  0  0  0  0  0
  142.2620   76.6900  219.9430 C   0  0  0  0  0  0  0  0  0  0  0  0
  143.6080   76.4800  219.7310 C   0  0  0  0  0  0  0  0  0  0  0  0
  144.1250   75.2290  219.9790 C   0  0  0  0  0  0  0  0  0  0  0  0
  143.2710   74.2530  220.4240 C   0  0  0  0  0  0  0  0  0  0  0  0
  141.9270   74.4370  220.6420 C   0  0  0  0  0  0  0  0  0  0  0  0
  141.1242   70.8599  224.0355 H   0  0  0  0  0  0  0  0  0  0  0  0
  139.4835   71.0081  227.5685 H   0  0  0  0  0  0  0  0  0  0  0  0
  140.9661   69.8832  229.2030 H   0  0  0  0  0  0  0  0  0  0  0  0
  141.8410   67.5900  228.7979 H   0  0  0  0  0  0  0  0  0  0  0  0
  141.1448   66.4644  226.6395 H   0  0  0  0  0  0  0  0  0  0  0  0
  136.9259   69.0141  226.2044 H   0  0  0  0  0  0  0  0  0  0  0  0
  135.2451   69.7106  224.5705 H   0  0  0  0  0  0  0  0  0  0  0  0
  135.9073   70.9953  222.5351 H   0  0  0  0  0  0  0  0  0  0  0  0
  138.1300   72.0370  221.2540 H   0  0  0  0  0  0  0  0  0  0  0  0
  138.9118   73.9314  220.3066 H   0  0  0  0  0  0  0  0  0  0  0  0
  139.0710   74.3326  222.0165 H   0  0  0  0  0  0  0  0  0  0  0  0
  139.7783   76.1848  218.5462 H   0  0  0  0  0  0  0  0  0  0  0  0
  138.2730   75.6801  219.2665 H   0  0  0  0  0  0  0  0  0  0  0  0
  139.6568   78.3279  219.3245 H   0  0  0  0  0  0  0  0  0  0  0  0
  137.9039   77.9450  219.5483 H   0  0  0  0  0  0  0  0  0  0  0  0
  140.4031   79.3559  220.9534 H   0  0  0  0  0  0  0  0  0  0  0  0
  138.8352   79.7121  221.9236 H   0  0  0  0  0  0  0  0  0  0  0  0
  139.8073   78.2166  223.4920 H   0  0  0  0  0  0  0  0  0  0  0  0
  139.3584   80.7231  223.6397 H   0  0  0  0  0  0  0  0  0  0  0  0
  140.4902   79.9497  224.8676 H   0  0  0  0  0  0  0  0  0  0  0  0
  141.1065   81.8159  222.6156 H   0  0  0  0  0  0  0  0  0  0  0  0
  141.4692   81.9126  224.4158 H   0  0  0  0  0  0  0  0  0  0  0  0
  143.2712   81.3629  222.5836 H   0  0  0  0  0  0  0  0  0  0  0  0
  143.2114   80.6799  224.3116 H   0  0  0  0  0  0  0  0  0  0  0  0
  143.3810   79.2680  221.9550 H   0  0  0  0  0  0  0  0  0  0  0  0
  141.8657   77.7391  222.2173 H   0  0  0  0  0  0  0  0  0  0  0  0
  141.9345   78.1306  224.0467 H   0  0  0  0  0  0  0  0  0  0  0  0
  140.5131   76.9212  222.3646 H   0  0  0  0  0  0  0  0  0  0  0  0
  138.8766   76.1961  222.4423 H   0  0  0  0  0  0  0  0  0  0  0  0
  141.8449   77.6888  219.7471 H   0  0  0  0  0  0  0  0  0  0  0  0
  144.2543   77.2943  219.3716 H   0  0  0  0  0  0  0  0  0  0  0  0
  145.1935   75.0180  219.8246 H   0  0  0  0  0  0  0  0  0  0  0  0
  143.6903   73.2551  220.6197 H   0  0  0  0  0  0  0  0  0  0  0  0
  1  2  2  0
  2  3  1  0
  3  4  2  0
  4  5  1  0
  5  6  2  0
  6  7  1  0
  7  8  2  0
  8  9  1  0
  9 10  2  0
 10 11  1  0
 11 12  2  0
  6 13  1  0
 13 14  2  0
 14 15  1  0
 15 16  2  0
 16 17  1  0
  2 18  1  0
 18 19  1  0
 20 19  1  1
 20 21  1  0
 21 22  1  0
 22 23  1  0
 23 24  1  0
 24 25  1  0
 25 26  1  0
 26 27  1  0
 27 28  1  0
 28 29  1  0
 29 30  1  0
 23 31  1  0
 20 32  1  0
 32 33  2  0
 33 34  1  0
 34 35  2  0
 35 36  1  0
 36 37  2  0
 17  3  1  0
 37 18  1  0
 16  5  1  0
 31 20  1  0
 37 32  1  0
 12  7  1  0
 30 25  1  0
  4 38  1  0
  8 39  1  0
  9 40  1  0
 10 41  1  0
 11 42  1  0
 13 43  1  0
 14 44  1  0
 15 45  1  0
 17 46  1  0
 19 47  1  0
 19 48  1  0
 21 49  1  0
 21 50  1  0
 22 51  1  0
 22 52  1  0
 24 53  1  0
 24 54  1  0
 25 55  1  1
 26 56  1  0
 26 57  1  0
 27 58  1  0
 27 59  1  0
 28 60  1  0
 28 61  1  0
 29 62  1  0
 30 63  1  0
 30 64  1  0
 31 65  1  0
 31 66  1  0
 33 67  1  0
 34 68  1  0
 35 69  1  0
 36 70  1  0
M  END
>  <smiles>  (24) 
O=C(c1cc2c(-c3ccccn3)cccc2[nH]1)N1C[C@]2(CCN(CC3CCCNC3)C2)c2ccccc21

>  <score_type>  (24) 
oracle

>  <origin>  (24) 
autodockgpu

>  <m_score__min__energy>  (24) 
-10.640000000000001

>  <m_primary>  (24) 
energy

>  <rmsd>  (24) 
2.7318505492138803

>  <m_score__min__rmsd>  (24) 
2.7318505492138803

>  <meeko>  (24) 
{"free_energy": -10.19, "intermolecular_energy": -11.68, "internal_energy": -1.74, "cluster_size": 30, "cluster_id": 1, "rank_in_cluster": 5}

>  <energy>  (24) 
-9.67

>  <cluster_rmsd>  (24) 
1.59

>  <cluster>  (24) 
1

$$$$

     RDKit          3D

 70 76  0  0  1  0  0  0  0  0999 V2000
  137.5600   72.3600  220.1790 O   0  0  0  0  0  0  0  0  0  0  0  0
  138.5280   72.4690  220.9910 C   0  0  0  0  0  0  0  0  0  0  0  0
  138.7440   71.3290  221.8670 C   0  0  0  0  0  0  0  0  0  0  0  0
  139.1850   71.3820  223.1810 C   0  0  0  0  0  0  0  0  0  0  0  0
  139.2420   70.1180  223.6600 C   0  0  0  0  0  0  0  0  0  0  0  0
  139.6190   69.5860  224.8640 C   0  0  0  0  0  0  0  0  0  0  0  0
  140.0910   70.3090  226.0150 C   0  0  0  0  0  0  0  0  0  0  0  0
  139.8800   70.0080  227.3310 C   0  0  0  0  0  0  0  0  0  0  0  0
  140.4560   70.7900  228.3430 C   0  0  0  0  0  0  0  0  0  0  0  0
  141.2470   71.8760  228.0730 C   0  0  0  0  0  0  0  0  0  0  0  0
  141.4460   72.1550  226.7150 C   0  0  0  0  0  0  0  0  0  0  0  0
  140.8810   71.3910  225.7730 N   0  0  0  0  0  0  0  0  0  0  0  0
  139.5670   68.2010  224.9640 C   0  0  0  0  0  0  0  0  0  0  0  0
  139.1600   67.3890  223.9300 C   0  0  0  0  0  0  0  0  0  0  0  0
  138.7780   67.9250  222.7200 C   0  0  0  0  0  0  0  0  0  0  0  0
  138.8270   69.2990  222.6060 C   0  0  0  0  0  0  0  0  0  0  0  0
  138.5290   70.0470  221.5320 N   0  0  0  0  0  0  0  0  0  0  0  0
  139.3360   73.6580  221.0120 N   0  0  0  0  0  0  0  0  0  0  0  0
  138.7640   74.9520  221.2970 C   0  0  0  0  0  0  0  0  0  0  0  0
  139.9290   75.8840  221.3370 C   0  0  1  0  0  0  0  0  0  0  0  0
  139.7490   77.0700  220.4170 C   0  0  0  0  0  0  0  0  0  0  0  0
  140.3300   78.1840  221.2320 C   0  0  0  0  0  0  0  0  0  0  0  0
  140.3630   77.8470  222.6000 N   0  0  0  0  0  0  0  0  0  0  0  0
  141.4750   78.2080  223.3750 C   0  0  0  0  0  0  0  0  0  0  0  0
  141.7600   79.6390  223.6330 C   0  0  2  0  0  0  0  0  0  0  0  0
  140.5630   80.5390  223.6380 C   0  0  0  0  0  0  0  0  0  0  0  0
  140.1820   81.1030  222.3010 C   0  0  0  0  0  0  0  0  0  0  0  0
  141.3220   81.5420  221.4560 C   0  0  0  0  0  0  0  0  0  0  0  0
  142.5650   80.9100  221.6600 N   0  0  0  0  0  0  0  0  0  0  0  0
  142.8530   80.2850  222.8820 C   0  0  0  0  0  0  0  0  0  0  0  0
  140.0340   76.4620  222.7070 C   0  0  0  0  0  0  0  0  0  0  0  0
  141.0740   75.0500  220.9560 C   0  0  0  0  0  0  0  0  0  0  0  0
  142.4030   75.4280  220.7760 C   0  0  0  0  0  0  0  0  0  0  0  0
  143.3860   74.5320  220.4140 C   0  0  0  0  0  0  0  0  0  0  0  0
  143.0350   73.2150  220.2230 C   0  0  0  0  0  0  0  0  0  0  0  0
  141.7230   72.8620  220.4030 C   0  0  0  0  0  0  0  0  0  0  0  0
  140.7260   73.7360  220.7640 C   0  0  0  0  0  0  0  0  0  0  0  0
  139.4438   72.2947  223.7378 H   0  0  0  0  0  0  0  0  0  0  0  0
  139.2530   69.1449  227.5991 H   0  0  0  0  0  0  0  0  0  0  0  0
  140.2657   70.5215  229.3926 H   0  0  0  0  0  0  0  0  0  0  0  0
  141.6956   72.4877  228.8696 H   0  0  0  0  0  0  0  0  0  0  0  0
  142.0724   73.0098  226.4202 H   0  0  0  0  0  0  0  0  0  0  0  0
  139.8649   67.7320  225.9134 H   0  0  0  0  0  0  0  0  0  0  0  0
  139.1395   66.2983  224.0716 H   0  0  0  0  0  0  0  0  0  0  0  0
  138.4498   67.2884  221.8851 H   0  0  0  0  0  0  0  0  0  0  0  0
  138.1900   69.7220  220.5920 H   0  0  0  0  0  0  0  0  0  0  0  0
  138.0591   75.2468  220.5057 H   0  0  0  0  0  0  0  0  0  0  0  0
  138.1965   74.9564  222.2393 H   0  0  0  0  0  0  0  0  0  0  0  0
  140.3008   76.9333  219.4753 H   0  0  0  0  0  0  0  0  0  0  0  0
  138.7064   77.2405  220.1104 H   0  0  0  0  0  0  0  0  0  0  0  0
  141.3548   78.3854  220.8866 H   0  0  0  0  0  0  0  0  0  0  0  0
  139.6980   79.0755  221.1066 H   0  0  0  0  0  0  0  0  0  0  0  0
  141.3493   77.7265  224.3560 H   0  0  0  0  0  0  0  0  0  0  0  0
  142.3289   77.8847  222.7616 H   0  0  0  0  0  0  0  0  0  0  0  0
  142.1386   79.5285  224.6599 H   0  0  0  0  0  0  0  0  0  0  0  0
  139.7069   79.9645  224.0214 H   0  0  0  0  0  0  0  0  0  0  0  0
  140.8315   81.4004  224.2673 H   0  0  0  0  0  0  0  0  0  0  0  0
  139.6271   80.3293  221.7500 H   0  0  0  0  0  0  0  0  0  0  0  0
  139.5869   82.0050  222.5065 H   0  0  0  0  0  0  0  0  0  0  0  0
  141.0369   81.3769  220.4065 H   0  0  0  0  0  0  0  0  0  0  0  0
  141.4919   82.5915  221.7382 H   0  0  0  0  0  0  0  0  0  0  0  0
  142.9800   80.4610  220.8320 H   0  0  0  0  0  0  0  0  0  0  0  0
  143.6051   79.5089  222.6771 H   0  0  0  0  0  0  0  0  0  0  0  0
  143.1650   81.1143  223.5339 H   0  0  0  0  0  0  0  0  0  0  0  0
  140.8206   75.9379  223.2697 H   0  0  0  0  0  0  0  0  0  0  0  0
  139.0761   76.3460  223.2351 H   0  0  0  0  0  0  0  0  0  0  0  0
  142.6783   76.4820  220.9287 H   0  0  0  0  0  0  0  0  0  0  0  0
  144.4269   74.8620  220.2809 H   0  0  0  0  0  0  0  0  0  0  0  0
  143.7870   72.4661  219.9338 H   0  0  0  0  0  0  0  0  0  0  0  0
  141.4496   71.8078  220.2480 H   0  0  0  0  0  0  0  0  0  0  0  0
  1  2  2  0
  2  3  1  0
  3  4  2  0
  4  5  1  0
  5  6  2  0
  6  7  1  0
  7  8  2  0
  8  9  1  0
  9 10  2  0
 10 11  1  0
 11 12  2  0
  6 13  1  0
 13 14  2  0
 14 15  1  0
 15 16  2  0
 16 17  1  0
  2 18  1  0
 18 19  1  0
 20 19  1  1
 20 21  1  0
 21 22  1  0
 22 23  1  0
 23 24  1  0
 24 25  1  0
 25 26  1  0
 26 27  1  0
 27 28  1  0
 28 29  1  0
 29 30  1  0
 23 31  1  0
 20 32  1  0
 32 33  2  0
 33 34  1  0
 34 35  2  0
 35 36  1  0
 36 37  2  0
 17  3  1  0
 37 18  1  0
 16  5  1  0
 31 20  1  0
 37 32  1  0
 12  7  1  0
 30 25  1  0
  4 38  1  0
  8 39  1  0
  9 40  1  0
 10 41  1  0
 11 42  1  0
 13 43  1  0
 14 44  1  0
 15 45  1  0
 17 46  1  0
 19 47  1  0
 19 48  1  0
 21 49  1  0
 21 50  1  0
 22 51  1  0
 22 52  1  0
 24 53  1  0
 24 54  1  0
 25 55  1  1
 26 56  1  0
 26 57  1  0
 27 58  1  0
 27 59  1  0
 28 60  1  0
 28 61  1  0
 29 62  1  0
 30 63  1  0
 30 64  1  0
 31 65  1  0
 31 66  1  0
 33 67  1  0
 34 68  1  0
 35 69  1  0
 36 70  1  0
M  END
>  <smiles>  (25) 
O=C(c1cc2c(-c3ccccn3)cccc2[nH]1)N1C[C@]2(CCN(CC3CCCNC3)C2)c2ccccc21

>  <score_type>  (25) 
oracle

>  <origin>  (25) 
autodockgpu

>  <m_score__min__energy>  (25) 
-10.640000000000001

>  <m_primary>  (25) 
energy

>  <rmsd>  (25) 
2.835193527162267

>  <m_score__min__rmsd>  (25) 
2.835193527162267

>  <meeko>  (25) 
{"free_energy": -9.65, "intermolecular_energy": -11.14, "internal_energy": -1.89, "cluster_size": 30, "cluster_id": 1, "rank_in_cluster": 25}

>  <energy>  (25) 
-9.65

>  <cluster_rmsd>  (25) 
1.82

>  <cluster>  (25) 
1

$$$$

     RDKit          3D

 70 76  0  0  1  0  0  0  0  0999 V2000
  142.0920   71.8350  221.5800 O   0  0  0  0  0  0  0  0  0  0  0  0
  141.0170   72.4430  221.8700 C   0  0  0  0  0  0  0  0  0  0  0  0
  140.0440   71.6710  222.6260 C   0  0  0  0  0  0  0  0  0  0  0  0
  140.2760   71.0250  223.8310 C   0  0  0  0  0  0  0  0  0  0  0  0
  139.1230   70.4360  224.2240 C   0  0  0  0  0  0  0  0  0  0  0  0
  138.7830   69.6640  225.3030 C   0  0  0  0  0  0  0  0  0  0  0  0
  139.6480   69.2570  226.3780 C   0  0  0  0  0  0  0  0  0  0  0  0
  140.1990   68.0230  226.5820 C   0  0  0  0  0  0  0  0  0  0  0  0
  141.0700   67.7980  227.6570 C   0  0  0  0  0  0  0  0  0  0  0  0
  141.4130   68.7860  228.5440 C   0  0  0  0  0  0  0  0  0  0  0  0
  140.8340   70.0380  228.3060 C   0  0  0  0  0  0  0  0  0  0  0  0
  140.0050   70.2200  227.2710 N   0  0  0  0  0  0  0  0  0  0  0  0
  137.4710   69.2070  225.3390 C   0  0  0  0  0  0  0  0  0  0  0  0
  136.5470   69.5000  224.3610 C   0  0  0  0  0  0  0  0  0  0  0  0
  136.8900   70.2780  223.2780 C   0  0  0  0  0  0  0  0  0  0  0  0
  138.1900   70.7380  223.2290 C   0  0  0  0  0  0  0  0  0  0  0  0
  138.7630   71.4860  222.2720 N   0  0  0  0  0  0  0  0  0  0  0  0
  140.8130   73.8050  221.4600 N   0  0  0  0  0  0  0  0  0  0  0  0
  139.5470   74.4690  221.6530 C   0  0  0  0  0  0  0  0  0  0  0  0
  139.7800   75.8750  221.2120 C   0  0  1  0  0  0  0  0  0  0  0  0
  138.7740   76.3280  220.1780 C   0  0  0  0  0  0  0  0  0  0  0  0
  138.5200   77.7440  220.5940 C   0  0  0  0  0  0  0  0  0  0  0  0
  138.8840   77.9490  221.9400 N   0  0  0  0  0  0  0  0  0  0  0  0
  139.5230   79.1420  222.3110 C   0  0  0  0  0  0  0  0  0  0  0  0
  140.9690   79.3170  222.0380 C   0  0  2  0  0  0  0  0  0  0  0  0
  141.8880   78.8160  223.1090 C   0  0  0  0  0  0  0  0  0  0  0  0
  142.2160   79.8090  224.1850 C   0  0  0  0  0  0  0  0  0  0  0  0
  142.4670   81.1930  223.7080 C   0  0  0  0  0  0  0  0  0  0  0  0
  141.8470   81.5900  222.5070 N   0  0  0  0  0  0  0  0  0  0  0  0
  141.4410   80.6320  221.5660 C   0  0  0  0  0  0  0  0  0  0  0  0
  139.5820   76.7830  222.3770 C   0  0  0  0  0  0  0  0  0  0  0  0
  141.1510   75.8690  220.6910 C   0  0  0  0  0  0  0  0  0  0  0  0
  141.8600   76.9100  220.0970 C   0  0  0  0  0  0  0  0  0  0  0  0
  143.1550   76.7640  219.6480 C   0  0  0  0  0  0  0  0  0  0  0  0
  143.7680   75.5410  219.7970 C   0  0  0  0  0  0  0  0  0  0  0  0
  143.0540   74.5280  220.3830 C   0  0  0  0  0  0  0  0  0  0  0  0
  141.7630   74.6480  220.8380 C   0  0  0  0  0  0  0  0  0  0  0  0
  141.2324   70.9964  224.3737 H   0  0  0  0  0  0  0  0  0  0  0  0
  139.9566   67.1982  225.8958 H   0  0  0  0  0  0  0  0  0  0  0  0
  141.4939   66.7922  227.7941 H   0  0  0  0  0  0  0  0  0  0  0  0
  142.0974   68.6066  229.3863 H   0  0  0  0  0  0  0  0  0  0  0  0
  141.0624   70.8801  228.9758 H   0  0  0  0  0  0  0  0  0  0  0  0
  137.1561   68.5824  226.1880 H   0  0  0  0  0  0  0  0  0  0  0  0
  135.5228   69.1079  224.4459 H   0  0  0  0  0  0  0  0  0  0  0  0
  136.1625   70.5212  222.4896 H   0  0  0  0  0  0  0  0  0  0  0  0
  138.3210   71.8690  221.3990 H   0  0  0  0  0  0  0  0  0  0  0  0
  138.7647   73.9961  221.0412 H   0  0  0  0  0  0  0  0  0  0  0  0
  139.2052   74.4137  222.6971 H   0  0  0  0  0  0  0  0  0  0  0  0
  139.1940   76.2785  219.1626 H   0  0  0  0  0  0  0  0  0  0  0  0
  137.8670   75.7069  220.1382 H   0  0  0  0  0  0  0  0  0  0  0  0
  139.1101   78.4177  219.9554 H   0  0  0  0  0  0  0  0  0  0  0  0
  137.4454   77.9531  220.4863 H   0  0  0  0  0  0  0  0  0  0  0  0
  138.9995   79.9587  221.7924 H   0  0  0  0  0  0  0  0  0  0  0  0
  139.4698   79.1296  223.4097 H   0  0  0  0  0  0  0  0  0  0  0  0
  141.0325   78.6537  221.1628 H   0  0  0  0  0  0  0  0  0  0  0  0
  141.4142   77.9440  223.5835 H   0  0  0  0  0  0  0  0  0  0  0  0
  142.8396   78.5813  222.6096 H   0  0  0  0  0  0  0  0  0  0  0  0
  141.3722   79.8390  224.8900 H   0  0  0  0  0  0  0  0  0  0  0  0
  143.1561   79.4667  224.6423 H   0  0  0  0  0  0  0  0  0  0  0  0
  142.1270   81.8800  224.4969 H   0  0  0  0  0  0  0  0  0  0  0  0
  143.5447   81.2228  223.4899 H   0  0  0  0  0  0  0  0  0  0  0  0
  141.2470   82.4240  222.5670 H   0  0  0  0  0  0  0  0  0  0  0  0
  140.6205   81.0789  220.9855 H   0  0  0  0  0  0  0  0  0  0  0  0
  142.3640   80.3973  221.0156 H   0  0  0  0  0  0  0  0  0  0  0  0
  140.5595   77.0711  222.7911 H   0  0  0  0  0  0  0  0  0  0  0  0
  138.9991   76.2692  223.1556 H   0  0  0  0  0  0  0  0  0  0  0  0
  141.3675   77.8868  219.9816 H   0  0  0  0  0  0  0  0  0  0  0  0
  143.6866   77.6062  219.1810 H   0  0  0  0  0  0  0  0  0  0  0  0
  144.8014   75.3808  219.4557 H   0  0  0  0  0  0  0  0  0  0  0  0
  143.5486   73.5521  220.4968 H   0  0  0  0  0  0  0  0  0  0  0  0
  1  2  2  0
  2  3  1  0
  3  4  2  0
  4  5  1  0
  5  6  2  0
  6  7  1  0
  7  8  2  0
  8  9  1  0
  9 10  2  0
 10 11  1  0
 11 12  2  0
  6 13  1  0
 13 14  2  0
 14 15  1  0
 15 16  2  0
 16 17  1  0
  2 18  1  0
 18 19  1  0
 20 19  1  1
 20 21  1  0
 21 22  1  0
 22 23  1  0
 23 24  1  0
 24 25  1  0
 25 26  1  0
 26 27  1  0
 27 28  1  0
 28 29  1  0
 29 30  1  0
 23 31  1  0
 20 32  1  0
 32 33  2  0
 33 34  1  0
 34 35  2  0
 35 36  1  0
 36 37  2  0
 17  3  1  0
 37 18  1  0
 16  5  1  0
 31 20  1  0
 37 32  1  0
 12  7  1  0
 30 25  1  0
  4 38  1  0
  8 39  1  0
  9 40  1  0
 10 41  1  0
 11 42  1  0
 13 43  1  0
 14 44  1  0
 15 45  1  0
 17 46  1  0
 19 47  1  0
 19 48  1  0
 21 49  1  0
 21 50  1  0
 22 51  1  0
 22 52  1  0
 24 53  1  0
 24 54  1  0
 25 55  1  6
 26 56  1  0
 26 57  1  0
 27 58  1  0
 27 59  1  0
 28 60  1  0
 28 61  1  0
 29 62  1  0
 30 63  1  0
 30 64  1  0
 31 65  1  0
 31 66  1  0
 33 67  1  0
 34 68  1  0
 35 69  1  0
 36 70  1  0
M  END
>  <smiles>  (26) 
O=C(c1cc2c(-c3ccccn3)cccc2[nH]1)N1C[C@]2(CCN(CC3CCCNC3)C2)c2ccccc21

>  <score_type>  (26) 
oracle

>  <origin>  (26) 
autodockgpu

>  <m_score__min__energy>  (26) 
-10.640000000000001

>  <m_primary>  (26) 
energy

>  <rmsd>  (26) 
3.181071370741655

>  <m_score__min__rmsd>  (26) 
3.181071370741655

>  <meeko>  (26) 
{"free_energy": -9.96, "intermolecular_energy": -11.46, "internal_energy": -1.84, "cluster_size": 30, "cluster_id": 1, "rank_in_cluster": 8}

>  <energy>  (26) 
-9.62

>  <cluster_rmsd>  (26) 
1.71

>  <cluster>  (26) 
1

$$$$

     RDKit          3D

 70 76  0  0  1  0  0  0  0  0999 V2000
  141.2590   76.5310  219.2070 O   0  0  0  0  0  0  0  0  0  0  0  0
  140.8350   76.4410  220.3990 C   0  0  0  0  0  0  0  0  0  0  0  0
  141.0020   77.6310  221.2170 C   0  0  0  0  0  0  0  0  0  0  0  0
  140.0030   78.2770  221.9290 C   0  0  0  0  0  0  0  0  0  0  0  0
  140.5570   79.3280  222.5760 C   0  0  0  0  0  0  0  0  0  0  0  0
  140.0470   80.3040  223.3910 C   0  0  0  0  0  0  0  0  0  0  0  0
  138.6750   80.4600  223.7930 C   0  0  0  0  0  0  0  0  0  0  0  0
  137.5760   79.8480  223.2590 C   0  0  0  0  0  0  0  0  0  0  0  0
  136.3020   80.0680  223.8010 C   0  0  0  0  0  0  0  0  0  0  0  0
  136.0930   80.8930  224.8760 C   0  0  0  0  0  0  0  0  0  0  0  0
  137.2390   81.5040  225.4000 C   0  0  0  0  0  0  0  0  0  0  0  0
  138.4410   81.2730  224.8600 N   0  0  0  0  0  0  0  0  0  0  0  0
  140.9530   81.2530  223.8480 C   0  0  0  0  0  0  0  0  0  0  0  0
  142.2900   81.2370  223.5170 C   0  0  0  0  0  0  0  0  0  0  0  0
  142.8010   80.2540  222.7000 C   0  0  0  0  0  0  0  0  0  0  0  0
  141.9130   79.3040  222.2380 C   0  0  0  0  0  0  0  0  0  0  0  0
  142.1640   78.2720  221.4170 N   0  0  0  0  0  0  0  0  0  0  0  0
  140.2330   75.2240  220.8710 N   0  0  0  0  0  0  0  0  0  0  0  0
  140.9510   73.9720  220.8560 C   0  0  0  0  0  0  0  0  0  0  0  0
  140.0380   72.9980  221.5220 C   0  0  1  0  0  0  0  0  0  0  0  0
  139.7920   71.7690  220.6780 C   0  0  0  0  0  0  0  0  0  0  0  0
  139.7880   70.6820  221.7080 C   0  0  0  0  0  0  0  0  0  0  0  0
  140.4460   71.0980  222.8840 N   0  0  0  0  0  0  0  0  0  0  0  0
  139.9190   70.7390  224.1340 C   0  0  0  0  0  0  0  0  0  0  0  0
  140.8320   70.3190  225.2240 C   0  0  2  0  0  0  0  0  0  0  0  0
  140.3290   69.2020  226.0850 C   0  0  0  0  0  0  0  0  0  0  0  0
  139.5040   69.6250  227.2640 C   0  0  0  0  0  0  0  0  0  0  0  0
  140.0040   70.8250  227.9820 C   0  0  0  0  0  0  0  0  0  0  0  0
  140.7650   71.7550  227.2460 N   0  0  0  0  0  0  0  0  0  0  0  0
  141.4330   71.3610  226.0780 C   0  0  0  0  0  0  0  0  0  0  0  0
  140.6930   72.4980  222.7640 C   0  0  0  0  0  0  0  0  0  0  0  0
  138.8090   73.7620  221.7660 C   0  0  0  0  0  0  0  0  0  0  0  0
  137.6060   73.3220  222.3130 C   0  0  0  0  0  0  0  0  0  0  0  0
  136.5220   74.1550  222.4870 C   0  0  0  0  0  0  0  0  0  0  0  0
  136.6370   75.4720  222.1040 C   0  0  0  0  0  0  0  0  0  0  0  0
  137.8290   75.8870  221.5660 C   0  0  0  0  0  0  0  0  0  0  0  0
  138.9230   75.0760  221.3830 C   0  0  0  0  0  0  0  0  0  0  0  0
  138.9429   77.9853  221.9621 H   0  0  0  0  0  0  0  0  0  0  0  0
  137.6922   79.1763  222.3956 H   0  0  0  0  0  0  0  0  0  0  0  0
  135.4383   79.5601  223.3471 H   0  0  0  0  0  0  0  0  0  0  0  0
  135.0919   81.0636  225.2987 H   0  0  0  0  0  0  0  0  0  0  0  0
  137.1500   82.1799  226.2633 H   0  0  0  0  0  0  0  0  0  0  0  0
  140.5853   82.0549  224.5051 H   0  0  0  0  0  0  0  0  0  0  0  0
  142.9569   82.0186  223.9100 H   0  0  0  0  0  0  0  0  0  0  0  0
  143.8666   80.2270  222.4283 H   0  0  0  0  0  0  0  0  0  0  0  0
  143.0840   77.9920  220.9940 H   0  0  0  0  0  0  0  0  0  0  0  0
  141.1629   73.6597  219.8228 H   0  0  0  0  0  0  0  0  0  0  0  0
  141.9223   74.0454  221.3672 H   0  0  0  0  0  0  0  0  0  0  0  0
  138.8256   71.8291  220.1561 H   0  0  0  0  0  0  0  0  0  0  0  0
  140.5347   71.6221  219.8800 H   0  0  0  0  0  0  0  0  0  0  0  0
  138.7475   70.4206  221.9512 H   0  0  0  0  0  0  0  0  0  0  0  0
  140.3189   69.8096  221.2991 H   0  0  0  0  0  0  0  0  0  0  0  0
  139.3583   71.6094  224.5055 H   0  0  0  0  0  0  0  0  0  0  0  0
  139.3439   69.8269  223.9166 H   0  0  0  0  0  0  0  0  0  0  0  0
  141.6537   69.9512  224.5919 H   0  0  0  0  0  0  0  0  0  0  0  0
  139.7127   68.5406  225.4584 H   0  0  0  0  0  0  0  0  0  0  0  0
  141.2218   68.7101  226.4984 H   0  0  0  0  0  0  0  0  0  0  0  0
  138.4855   69.8399  226.9083 H   0  0  0  0  0  0  0  0  0  0  0  0
  139.5490   68.7949  227.9843 H   0  0  0  0  0  0  0  0  0  0  0  0
  139.1286   71.3583  228.3811 H   0  0  0  0  0  0  0  0  0  0  0  0
  140.6996   70.4296  228.7368 H   0  0  0  0  0  0  0  0  0  0  0  0
  140.4080   72.7210  227.2390 H   0  0  0  0  0  0  0  0  0  0  0  0
  141.5493   72.2601  225.4550 H   0  0  0  0  0  0  0  0  0  0  0  0
  142.3578   70.8951  226.4490 H   0  0  0  0  0  0  0  0  0  0  0  0
  140.2781   73.0225  223.6373 H   0  0  0  0  0  0  0  0  0  0  0  0
  141.7762   72.6830  222.7150 H   0  0  0  0  0  0  0  0  0  0  0  0
  137.5177   72.2688  222.6179 H   0  0  0  0  0  0  0  0  0  0  0  0
  135.5857   73.7758  222.9223 H   0  0  0  0  0  0  0  0  0  0  0  0
  135.7972   76.1719  222.2258 H   0  0  0  0  0  0  0  0  0  0  0  0
  137.9146   76.9402  221.2605 H   0  0  0  0  0  0  0  0  0  0  0  0
  1  2  2  0
  2  3  1  0
  3  4  2  0
  4  5  1  0
  5  6  2  0
  6  7  1  0
  7  8  2  0
  8  9  1  0
  9 10  2  0
 10 11  1  0
 11 12  2  0
  6 13  1  0
 13 14  2  0
 14 15  1  0
 15 16  2  0
 16 17  1  0
  2 18  1  0
 18 19  1  0
 20 19  1  6
 20 21  1  0
 21 22  1  0
 22 23  1  0
 23 24  1  0
 24 25  1  0
 25 26  1  0
 26 27  1  0
 27 28  1  0
 28 29  1  0
 29 30  1  0
 23 31  1  0
 20 32  1  0
 32 33  2  0
 33 34  1  0
 34 35  2  0
 35 36  1  0
 36 37  2  0
 17  3  1  0
 37 18  1  0
 16  5  1  0
 31 20  1  0
 37 32  1  0
 12  7  1  0
 30 25  1  0
  4 38  1  0
  8 39  1  0
  9 40  1  0
 10 41  1  0
 11 42  1  0
 13 43  1  0
 14 44  1  0
 15 45  1  0
 17 46  1  0
 19 47  1  0
 19 48  1  0
 21 49  1  0
 21 50  1  0
 22 51  1  0
 22 52  1  0
 24 53  1  0
 24 54  1  0
 25 55  1  6
 26 56  1  0
 26 57  1  0
 27 58  1  0
 27 59  1  0
 28 60  1  0
 28 61  1  0
 29 62  1  0
 30 63  1  0
 30 64  1  0
 31 65  1  0
 31 66  1  0
 33 67  1  0
 34 68  1  0
 35 69  1  0
 36 70  1  0
M  END
>  <smiles>  (27) 
O=C(c1cc2c(-c3ccccn3)cccc2[nH]1)N1C[C@]2(CCN(CC3CCCNC3)C2)c2ccccc21

>  <score_type>  (27) 
oracle

>  <origin>  (27) 
autodockgpu

>  <m_score__min__energy>  (27) 
-10.640000000000001

>  <m_primary>  (27) 
energy

>  <rmsd>  (27) 
10.15960512459619

>  <m_score__min__rmsd>  (27) 
10.15960512459619

>  <meeko>  (27) 
{"free_energy": -9.71, "intermolecular_energy": -11.2, "internal_energy": -1.72, "cluster_size": 7, "cluster_id": 2, "rank_in_cluster": 7}

>  <energy>  (27) 
-9.57

>  <cluster_rmsd>  (27) 
1.83

>  <cluster>  (27) 
1

$$$$

     RDKit          3D

 70 76  0  0  1  0  0  0  0  0999 V2000
  142.6910   72.2980  220.6120 O   0  0  0  0  0  0  0  0  0  0  0  0
  141.5840   72.7530  221.0310 C   0  0  0  0  0  0  0  0  0  0  0  0
  140.7740   71.8240  221.8010 C   0  0  0  0  0  0  0  0  0  0  0  0
  140.7630   71.7030  223.1830 C   0  0  0  0  0  0  0  0  0  0  0  0
  139.8680   70.7460  223.5170 C   0  0  0  0  0  0  0  0  0  0  0  0
  139.4700   70.2080  224.7120 C   0  0  0  0  0  0  0  0  0  0  0  0
  139.9520   70.5650  226.0200 C   0  0  0  0  0  0  0  0  0  0  0  0
  139.9330   69.7990  227.1520 C   0  0  0  0  0  0  0  0  0  0  0  0
  140.4930   70.2750  228.3460 C   0  0  0  0  0  0  0  0  0  0  0  0
  141.0810   71.5100  228.4400 C   0  0  0  0  0  0  0  0  0  0  0  0
  141.0860   72.2680  227.2630 C   0  0  0  0  0  0  0  0  0  0  0  0
  140.5420   71.7860  226.1400 N   0  0  0  0  0  0  0  0  0  0  0  0
  138.5240   69.1930  224.6410 C   0  0  0  0  0  0  0  0  0  0  0  0
  138.0000   68.7370  223.4520 C   0  0  0  0  0  0  0  0  0  0  0  0
  138.3990   69.2800  222.2520 C   0  0  0  0  0  0  0  0  0  0  0  0
  139.3390   70.2890  222.3070 C   0  0  0  0  0  0  0  0  0  0  0  0
  139.8970   70.9520  221.2810 N   0  0  0  0  0  0  0  0  0  0  0  0
  141.1940   74.1070  220.7430 N   0  0  0  0  0  0  0  0  0  0  0  0
  139.9290   74.6380  221.1910 C   0  0  0  0  0  0  0  0  0  0  0  0
  139.9580   76.0770  220.7980 C   0  0  1  0  0  0  0  0  0  0  0  0
  138.7490   76.4760  219.9820 C   0  0  0  0  0  0  0  0  0  0  0  0
  138.4520   77.8420  220.5180 C   0  0  0  0  0  0  0  0  0  0  0  0
  139.0310   78.0240  221.7910 N   0  0  0  0  0  0  0  0  0  0  0  0
  139.6210   79.2560  222.1130 C   0  0  0  0  0  0  0  0  0  0  0  0
  140.4540   79.3760  223.3320 C   0  0  2  0  0  0  0  0  0  0  0  0
  140.6580   80.7720  223.8330 C   0  0  0  0  0  0  0  0  0  0  0  0
  141.8340   81.4960  223.2480 C   0  0  0  0  0  0  0  0  0  0  0  0
  143.0630   80.6760  223.0920 C   0  0  0  0  0  0  0  0  0  0  0  0
  142.9010   79.2850  222.9300 N   0  0  0  0  0  0  0  0  0  0  0  0
  141.7360   78.6480  223.3820 C   0  0  0  0  0  0  0  0  0  0  0  0
  139.8930   76.9120  222.0310 C   0  0  0  0  0  0  0  0  0  0  0  0
  141.2110   76.2230  220.0480 C   0  0  0  0  0  0  0  0  0  0  0  0
  141.7090   77.3520  219.4010 C   0  0  0  0  0  0  0  0  0  0  0  0
  142.9120   77.3480  218.7270 C   0  0  0  0  0  0  0  0  0  0  0  0
  143.6440   76.1840  218.6960 C   0  0  0  0  0  0  0  0  0  0  0  0
  143.1370   75.0830  219.3370 C   0  0  0  0  0  0  0  0  0  0  0  0
  141.9410   75.0610  220.0150 C   0  0  0  0  0  0  0  0  0  0  0  0
  141.3767   72.2853  223.8860 H   0  0  0  0  0  0  0  0  0  0  0  0
  139.4740   68.7997  227.1259 H   0  0  0  0  0  0  0  0  0  0  0  0
  140.4594   69.6345  229.2396 H   0  0  0  0  0  0  0  0  0  0  0  0
  141.5198   71.8807  229.3781 H   0  0  0  0  0  0  0  0  0  0  0  0
  141.5415   73.2693  227.2616 H   0  0  0  0  0  0  0  0  0  0  0  0
  138.1776   68.7323  225.5779 H   0  0  0  0  0  0  0  0  0  0  0  0
  137.2536   67.9291  223.4614 H   0  0  0  0  0  0  0  0  0  0  0  0
  137.9883   68.9266  221.2947 H   0  0  0  0  0  0  0  0  0  0  0  0
  139.7050   70.8340  220.2550 H   0  0  0  0  0  0  0  0  0  0  0  0
  139.0943   74.1185  220.6976 H   0  0  0  0  0  0  0  0  0  0  0  0
  139.7838   74.5064  222.2734 H   0  0  0  0  0  0  0  0  0  0  0  0
  138.9846   76.5101  218.9081 H   0  0  0  0  0  0  0  0  0  0  0  0
  137.9063   75.7737  220.0633 H   0  0  0  0  0  0  0  0  0  0  0  0
  138.8585   78.5954  219.8272 H   0  0  0  0  0  0  0  0  0  0  0  0
  137.3614   77.9518  220.6109 H   0  0  0  0  0  0  0  0  0  0  0  0
  140.2593   79.5358  221.2620 H   0  0  0  0  0  0  0  0  0  0  0  0
  138.7585   79.9039  222.3282 H   0  0  0  0  0  0  0  0  0  0  0  0
  139.7852   78.8356  224.0180 H   0  0  0  0  0  0  0  0  0  0  0  0
  139.7523   81.3520  223.6020 H   0  0  0  0  0  0  0  0  0  0  0  0
  140.8603   80.6826  224.9105 H   0  0  0  0  0  0  0  0  0  0  0  0
  141.5448   81.8696  222.2546 H   0  0  0  0  0  0  0  0  0  0  0  0
  142.0869   82.2960  223.9593 H   0  0  0  0  0  0  0  0  0  0  0  0
  143.5989   81.0506  222.2074 H   0  0  0  0  0  0  0  0  0  0  0  0
  143.5969   80.7866  224.0474 H   0  0  0  0  0  0  0  0  0  0  0  0
  143.3170   78.8820  222.0800 H   0  0  0  0  0  0  0  0  0  0  0  0
  141.6124   77.7370  222.7780 H   0  0  0  0  0  0  0  0  0  0  0  0
  141.9152   78.5060  224.4580 H   0  0  0  0  0  0  0  0  0  0  0  0
  140.9002   77.2737  222.2856 H   0  0  0  0  0  0  0  0  0  0  0  0
  139.5041   76.3125  222.8672 H   0  0  0  0  0  0  0  0  0  0  0  0
  141.1207   78.2810  219.4289 H   0  0  0  0  0  0  0  0  0  0  0  0
  143.2782   78.2558  218.2252 H   0  0  0  0  0  0  0  0  0  0  0  0
  144.6097   76.1376  218.1713 H   0  0  0  0  0  0  0  0  0  0  0  0
  143.7267   74.1549  219.3068 H   0  0  0  0  0  0  0  0  0  0  0  0
  1  2  2  0
  2  3  1  0
  3  4  2  0
  4  5  1  0
  5  6  2  0
  6  7  1  0
  7  8  2  0
  8  9  1  0
  9 10  2  0
 10 11  1  0
 11 12  2  0
  6 13  1  0
 13 14  2  0
 14 15  1  0
 15 16  2  0
 16 17  1  0
  2 18  1  0
 18 19  1  0
 20 19  1  1
 20 21  1  0
 21 22  1  0
 22 23  1  0
 23 24  1  0
 24 25  1  0
 25 26  1  0
 26 27  1  0
 27 28  1  0
 28 29  1  0
 29 30  1  0
 23 31  1  0
 20 32  1  0
 32 33  2  0
 33 34  1  0
 34 35  2  0
 35 36  1  0
 36 37  2  0
 17  3  1  0
 37 18  1  0
 16  5  1  0
 31 20  1  0
 37 32  1  0
 12  7  1  0
 30 25  1  0
  4 38  1  0
  8 39  1  0
  9 40  1  0
 10 41  1  0
 11 42  1  0
 13 43  1  0
 14 44  1  0
 15 45  1  0
 17 46  1  0
 19 47  1  0
 19 48  1  0
 21 49  1  0
 21 50  1  0
 22 51  1  0
 22 52  1  0
 24 53  1  0
 24 54  1  0
 25 55  1  1
 26 56  1  0
 26 57  1  0
 27 58  1  0
 27 59  1  0
 28 60  1  0
 28 61  1  0
 29 62  1  0
 30 63  1  0
 30 64  1  0
 31 65  1  0
 31 66  1  0
 33 67  1  0
 34 68  1  0
 35 69  1  0
 36 70  1  0
M  END
>  <smiles>  (28) 
O=C(c1cc2c(-c3ccccn3)cccc2[nH]1)N1C[C@]2(CCN(CC3CCCNC3)C2)c2ccccc21

>  <score_type>  (28) 
oracle

>  <origin>  (28) 
autodockgpu

>  <m_score__min__energy>  (28) 
-10.640000000000001

>  <m_primary>  (28) 
energy

>  <rmsd>  (28) 
2.8575253505653837

>  <m_score__min__rmsd>  (28) 
2.8575253505653837

>  <meeko>  (28) 
{"free_energy": -10.36, "intermolecular_energy": -11.85, "internal_energy": -1.53, "cluster_size": 30, "cluster_id": 1, "rank_in_cluster": 4}

>  <energy>  (28) 
-9.4

>  <cluster_rmsd>  (28) 
1.78

>  <cluster>  (28) 
1

$$$$

     RDKit          3D

 70 76  0  0  1  0  0  0  0  0999 V2000
  142.1310   71.9490  221.5790 O   0  0  0  0  0  0  0  0  0  0  0  0
  141.0360   72.5430  221.8160 C   0  0  0  0  0  0  0  0  0  0  0  0
  140.0450   71.7670  222.5450 C   0  0  0  0  0  0  0  0  0  0  0  0
  140.2510   71.1040  223.7450 C   0  0  0  0  0  0  0  0  0  0  0  0
  139.0890   70.5160  224.1090 C   0  0  0  0  0  0  0  0  0  0  0  0
  138.7250   69.7330  225.1720 C   0  0  0  0  0  0  0  0  0  0  0  0
  139.5680   69.3070  226.2560 C   0  0  0  0  0  0  0  0  0  0  0  0
  139.9340   70.0250  227.3590 C   0  0  0  0  0  0  0  0  0  0  0  0
  140.7260   69.4450  228.3600 C   0  0  0  0  0  0  0  0  0  0  0  0
  141.1670   68.1490  228.2880 C   0  0  0  0  0  0  0  0  0  0  0  0
  140.7730   67.4390  227.1480 C   0  0  0  0  0  0  0  0  0  0  0  0
  140.0180   68.0220  226.2100 N   0  0  0  0  0  0  0  0  0  0  0  0
  137.4100   69.2830  225.1780 C   0  0  0  0  0  0  0  0  0  0  0  0
  136.5050   69.5950  224.1880 C   0  0  0  0  0  0  0  0  0  0  0  0
  136.8710   70.3850  223.1220 C   0  0  0  0  0  0  0  0  0  0  0  0
  138.1750   70.8370  223.1010 C   0  0  0  0  0  0  0  0  0  0  0  0
  138.7700   71.5940  222.1650 N   0  0  0  0  0  0  0  0  0  0  0  0
  140.8270   73.8960  221.3760 N   0  0  0  0  0  0  0  0  0  0  0  0
  139.5780   74.5800  221.6100 C   0  0  0  0  0  0  0  0  0  0  0  0
  139.8050   75.9700  221.1170 C   0  0  1  0  0  0  0  0  0  0  0  0
  138.7560   76.4050  220.1190 C   0  0  0  0  0  0  0  0  0  0  0  0
  138.5380   77.8350  220.5050 C   0  0  0  0  0  0  0  0  0  0  0  0
  138.9680   78.0750  221.8250 N   0  0  0  0  0  0  0  0  0  0  0  0
  139.6380   79.2700  222.1290 C   0  0  0  0  0  0  0  0  0  0  0  0
  140.4810   79.3530  223.3440 C   0  0  2  0  0  0  0  0  0  0  0  0
  140.7500   80.7390  223.8430 C   0  0  0  0  0  0  0  0  0  0  0  0
  141.9560   81.4090  223.2530 C   0  0  0  0  0  0  0  0  0  0  0  0
  143.1450   80.5340  223.0920 C   0  0  0  0  0  0  0  0  0  0  0  0
  142.9200   79.1520  222.9320 N   0  0  0  0  0  0  0  0  0  0  0  0
  141.7290   78.5680  223.3890 C   0  0  0  0  0  0  0  0  0  0  0  0
  139.6740   76.9130  222.2620 C   0  0  0  0  0  0  0  0  0  0  0  0
  141.1500   75.9310  220.5310 C   0  0  0  0  0  0  0  0  0  0  0  0
  141.8400   76.9460  219.8720 C   0  0  0  0  0  0  0  0  0  0  0  0
  143.1110   76.7710  219.3670 C   0  0  0  0  0  0  0  0  0  0  0  0
  143.7160   75.5450  219.5220 C   0  0  0  0  0  0  0  0  0  0  0  0
  143.0210   74.5590  220.1720 C   0  0  0  0  0  0  0  0  0  0  0  0
  141.7550   74.7080  220.6840 C   0  0  0  0  0  0  0  0  0  0  0  0
  141.1971   71.0633  224.3048 H   0  0  0  0  0  0  0  0  0  0  0  0
  139.6039   71.0691  227.4629 H   0  0  0  0  0  0  0  0  0  0  0  0
  141.0035   70.0517  229.2346 H   0  0  0  0  0  0  0  0  0  0  0  0
  141.7894   67.6969  229.0743 H   0  0  0  0  0  0  0  0  0  0  0  0
  141.0869   66.3923  227.0222 H   0  0  0  0  0  0  0  0  0  0  0  0
  137.0767   68.6482  226.0122 H   0  0  0  0  0  0  0  0  0  0  0  0
  135.4771   69.2082  224.2499 H   0  0  0  0  0  0  0  0  0  0  0  0
  136.1584   70.6438  222.3250 H   0  0  0  0  0  0  0  0  0  0  0  0
  138.3450   71.9920  221.2900 H   0  0  0  0  0  0  0  0  0  0  0  0
  138.7623   74.0990  221.0504 H   0  0  0  0  0  0  0  0  0  0  0  0
  139.2857   74.5586  222.6702 H   0  0  0  0  0  0  0  0  0  0  0  0
  139.1265   76.3211  219.0867 H   0  0  0  0  0  0  0  0  0  0  0  0
  137.8414   75.7941  220.1402 H   0  0  0  0  0  0  0  0  0  0  0  0
  139.1041   78.4826  219.8193 H   0  0  0  0  0  0  0  0  0  0  0  0
  137.4617   78.0536  220.4428 H   0  0  0  0  0  0  0  0  0  0  0  0
  140.2904   79.4960  221.2727 H   0  0  0  0  0  0  0  0  0  0  0  0
  138.8198   79.9749  222.3378 H   0  0  0  0  0  0  0  0  0  0  0  0
  139.7916   78.8436  224.0334 H   0  0  0  0  0  0  0  0  0  0  0  0
  139.8707   81.3592  223.6147 H   0  0  0  0  0  0  0  0  0  0  0  0
  140.9521   80.6412  224.9198 H   0  0  0  0  0  0  0  0  0  0  0  0
  141.6802   81.7957  222.2608 H   0  0  0  0  0  0  0  0  0  0  0  0
  142.2481   82.1965  223.9633 H   0  0  0  0  0  0  0  0  0  0  0  0
  143.6932   80.8833  222.2046 H   0  0  0  0  0  0  0  0  0  0  0  0
  143.6874   80.6207  224.0451 H   0  0  0  0  0  0  0  0  0  0  0  0
  143.3140   78.7290  222.0810 H   0  0  0  0  0  0  0  0  0  0  0  0
  141.5621   77.6635  222.7857 H   0  0  0  0  0  0  0  0  0  0  0  0
  141.9060   78.4181  224.4643 H   0  0  0  0  0  0  0  0  0  0  0  0
  140.6736   77.2009  222.6197 H   0  0  0  0  0  0  0  0  0  0  0  0
  139.1241   76.4291  223.0827 H   0  0  0  0  0  0  0  0  0  0  0  0
  141.3523   77.9244  219.7498 H   0  0  0  0  0  0  0  0  0  0  0  0
  143.6296   77.5930  218.8518 H   0  0  0  0  0  0  0  0  0  0  0  0
  144.7292   75.3615  219.1350 H   0  0  0  0  0  0  0  0  0  0  0  0
  143.5104   73.5812  220.2920 H   0  0  0  0  0  0  0  0  0  0  0  0
  1  2  2  0
  2  3  1  0
  3  4  2  0
  4  5  1  0
  5  6  2  0
  6  7  1  0
  7  8  2  0
  8  9  1  0
  9 10  2  0
 10 11  1  0
 11 12  2  0
  6 13  1  0
 13 14  2  0
 14 15  1  0
 15 16  2  0
 16 17  1  0
  2 18  1  0
 18 19  1  0
 20 19  1  1
 20 21  1  0
 21 22  1  0
 22 23  1  0
 23 24  1  0
 24 25  1  0
 25 26  1  0
 26 27  1  0
 27 28  1  0
 28 29  1  0
 29 30  1  0
 23 31  1  0
 20 32  1  0
 32 33  2  0
 33 34  1  0
 34 35  2  0
 35 36  1  0
 36 37  2  0
 17  3  1  0
 37 18  1  0
 16  5  1  0
 31 20  1  0
 37 32  1  0
 12  7  1  0
 30 25  1  0
  4 38  1  0
  8 39  1  0
  9 40  1  0
 10 41  1  0
 11 42  1  0
 13 43  1  0
 14 44  1  0
 15 45  1  0
 17 46  1  0
 19 47  1  0
 19 48  1  0
 21 49  1  0
 21 50  1  0
 22 51  1  0
 22 52  1  0
 24 53  1  0
 24 54  1  0
 25 55  1  1
 26 56  1  0
 26 57  1  0
 27 58  1  0
 27 59  1  0
 28 60  1  0
 28 61  1  0
 29 62  1  0
 30 63  1  0
 30 64  1  0
 31 65  1  0
 31 66  1  0
 33 67  1  0
 34 68  1  0
 35 69  1  0
 36 70  1  0
M  END
>  <smiles>  (29) 
O=C(c1cc2c(-c3ccccn3)cccc2[nH]1)N1C[C@]2(CCN(CC3CCCNC3)C2)c2ccccc21

>  <score_type>  (29) 
oracle

>  <origin>  (29) 
autodockgpu

>  <m_score__min__energy>  (29) 
-10.640000000000001

>  <m_primary>  (29) 
energy

>  <rmsd>  (29) 
2.68177305148793

>  <m_score__min__rmsd>  (29) 
2.68177305148793

>  <meeko>  (29) 
{"free_energy": -10.64, "intermolecular_energy": -12.13, "internal_energy": -1.58, "cluster_size": 30, "cluster_id": 1, "rank_in_cluster": 1}

>  <energy>  (29) 
-9.38

>  <cluster_rmsd>  (29) 
1.57

>  <cluster>  (29) 
1

$$$$

     RDKit          3D

 70 76  0  0  1  0  0  0  0  0999 V2000
  142.1260   71.8730  221.5560 O   0  0  0  0  0  0  0  0  0  0  0  0
  141.0490   72.4710  221.8570 C   0  0  0  0  0  0  0  0  0  0  0  0
  140.0910   71.6920  222.6240 C   0  0  0  0  0  0  0  0  0  0  0  0
  140.3130   71.1250  223.8700 C   0  0  0  0  0  0  0  0  0  0  0  0
  139.1790   70.4980  224.2580 C   0  0  0  0  0  0  0  0  0  0  0  0
  138.8410   69.7690  225.3670 C   0  0  0  0  0  0  0  0  0  0  0  0
  139.6880   69.4670  226.4900 C   0  0  0  0  0  0  0  0  0  0  0  0
  140.1880   68.2480  226.8510 C   0  0  0  0  0  0  0  0  0  0  0  0
  141.0490   68.1260  227.9520 C   0  0  0  0  0  0  0  0  0  0  0  0
  141.4290   69.2040  228.7100 C   0  0  0  0  0  0  0  0  0  0  0  0
  140.9010   70.4380  228.3120 C   0  0  0  0  0  0  0  0  0  0  0  0
  140.0820   70.5200  227.2580 N   0  0  0  0  0  0  0  0  0  0  0  0
  137.5540   69.2460  225.3860 C   0  0  0  0  0  0  0  0  0  0  0  0
  136.6510   69.4360  224.3640 C   0  0  0  0  0  0  0  0  0  0  0  0
  136.9910   70.1720  223.2510 C   0  0  0  0  0  0  0  0  0  0  0  0
  138.2670   70.6960  223.2180 C   0  0  0  0  0  0  0  0  0  0  0  0
  138.8340   71.4200  222.2400 N   0  0  0  0  0  0  0  0  0  0  0  0
  140.8290   73.8320  221.4490 N   0  0  0  0  0  0  0  0  0  0  0  0
  139.5560   74.4820  221.6480 C   0  0  0  0  0  0  0  0  0  0  0  0
  139.7730   75.8910  221.2060 C   0  0  1  0  0  0  0  0  0  0  0  0
  138.7580   76.3330  220.1760 C   0  0  0  0  0  0  0  0  0  0  0  0
  138.4910   77.7460  220.5940 C   0  0  0  0  0  0  0  0  0  0  0  0
  138.8580   77.9540  221.9390 N   0  0  0  0  0  0  0  0  0  0  0  0
  139.4870   79.1540  222.3070 C   0  0  0  0  0  0  0  0  0  0  0  0
  140.9290   79.3460  222.0240 C   0  0  2  0  0  0  0  0  0  0  0  0
  141.8590   78.8770  223.0990 C   0  0  0  0  0  0  0  0  0  0  0  0
  142.1770   79.8910  224.1570 C   0  0  0  0  0  0  0  0  0  0  0  0
  142.4050   81.2710  223.6570 C   0  0  0  0  0  0  0  0  0  0  0  0
  141.7740   81.6390  222.4520 N   0  0  0  0  0  0  0  0  0  0  0  0
  141.3790   80.6610  221.5280 C   0  0  0  0  0  0  0  0  0  0  0  0
  139.5700   76.7960  222.3720 C   0  0  0  0  0  0  0  0  0  0  0  0
  141.1420   75.8990  220.6790 C   0  0  0  0  0  0  0  0  0  0  0  0
  141.8360   76.9480  220.0810 C   0  0  0  0  0  0  0  0  0  0  0  0
  143.1320   76.8160  219.6270 C   0  0  0  0  0  0  0  0  0  0  0  0
  143.7570   75.5990  219.7730 C   0  0  0  0  0  0  0  0  0  0  0  0
  143.0570   74.5780  220.3620 C   0  0  0  0  0  0  0  0  0  0  0  0
  141.7670   74.6850  220.8230 C   0  0  0  0  0  0  0  0  0  0  0  0
  141.2500   71.1763  224.4440 H   0  0  0  0  0  0  0  0  0  0  0  0
  139.9129   67.3535  226.2729 H   0  0  0  0  0  0  0  0  0  0  0  0
  141.4331   67.1298  228.2168 H   0  0  0  0  0  0  0  0  0  0  0  0
  142.1037   69.1056  229.5732 H   0  0  0  0  0  0  0  0  0  0  0  0
  141.1622   71.3485  228.8713 H   0  0  0  0  0  0  0  0  0  0  0  0
  137.2419   68.6526  226.2580 H   0  0  0  0  0  0  0  0  0  0  0  0
  135.6461   68.9946  224.4375 H   0  0  0  0  0  0  0  0  0  0  0  0
  136.2796   70.3344  222.4279 H   0  0  0  0  0  0  0  0  0  0  0  0
  138.4040   71.7320  221.3330 H   0  0  0  0  0  0  0  0  0  0  0  0
  138.7761   74.0009  221.0394 H   0  0  0  0  0  0  0  0  0  0  0  0
  139.2187   74.4224  222.6933 H   0  0  0  0  0  0  0  0  0  0  0  0
  139.1744   76.2883  219.1588 H   0  0  0  0  0  0  0  0  0  0  0  0
  137.8576   75.7021  220.1392 H   0  0  0  0  0  0  0  0  0  0  0  0
  139.0717   78.4262  219.9536 H   0  0  0  0  0  0  0  0  0  0  0  0
  137.4139   77.9440  220.4905 H   0  0  0  0  0  0  0  0  0  0  0  0
  138.9507   79.9654  221.7933 H   0  0  0  0  0  0  0  0  0  0  0  0
  139.4423   79.1391  223.4060 H   0  0  0  0  0  0  0  0  0  0  0  0
  140.9996   78.6697  221.1593 H   0  0  0  0  0  0  0  0  0  0  0  0
  141.3999   78.0061  223.5897 H   0  0  0  0  0  0  0  0  0  0  0  0
  142.8120   78.6489  222.5993 H   0  0  0  0  0  0  0  0  0  0  0  0
  141.3362   79.9196  224.8657 H   0  0  0  0  0  0  0  0  0  0  0  0
  143.1242   79.5700  224.6150 H   0  0  0  0  0  0  0  0  0  0  0  0
  142.0576   81.9654  224.4362 H   0  0  0  0  0  0  0  0  0  0  0  0
  143.4813   81.3140  223.4342 H   0  0  0  0  0  0  0  0  0  0  0  0
  141.1620   82.4650  222.5010 H   0  0  0  0  0  0  0  0  0  0  0  0
  140.5493   81.0861  220.9442 H   0  0  0  0  0  0  0  0  0  0  0  0
  142.3027   80.4320  220.9764 H   0  0  0  0  0  0  0  0  0  0  0  0
  140.5460   77.0945  222.7822 H   0  0  0  0  0  0  0  0  0  0  0  0
  138.9959   76.2754  223.1526 H   0  0  0  0  0  0  0  0  0  0  0  0
  141.3315   77.9188  219.9663 H   0  0  0  0  0  0  0  0  0  0  0  0
  143.6536   77.6640  219.1592 H   0  0  0  0  0  0  0  0  0  0  0  0
  144.7902   75.4493  219.4265 H   0  0  0  0  0  0  0  0  0  0  0  0
  143.5623   73.6073  220.4731 H   0  0  0  0  0  0  0  0  0  0  0  0
  1  2  2  0
  2  3  1  0
  3  4  2  0
  4  5  1  0
  5  6  2  0
  6  7  1  0
  7  8  2  0
  8  9  1  0
  9 10  2  0
 10 11  1  0
 11 12  2  0
  6 13  1  0
 13 14  2  0
 14 15  1  0
 15 16  2  0
 16 17  1  0
  2 18  1  0
 18 19  1  0
 20 19  1  1
 20 21  1  0
 21 22  1  0
 22 23  1  0
 23 24  1  0
 24 25  1  0
 25 26  1  0
 26 27  1  0
 27 28  1  0
 28 29  1  0
 29 30  1  0
 23 31  1  0
 20 32  1  0
 32 33  2  0
 33 34  1  0
 34 35  2  0
 35 36  1  0
 36 37  2  0
 17  3  1  0
 37 18  1  0
 16  5  1  0
 31 20  1  0
 37 32  1  0
 12  7  1  0
 30 25  1  0
  4 38  1  0
  8 39  1  0
  9 40  1  0
 10 41  1  0
 11 42  1  0
 13 43  1  0
 14 44  1  0
 15 45  1  0
 17 46  1  0
 19 47  1  0
 19 48  1  0
 21 49  1  0
 21 50  1  0
 22 51  1  0
 22 52  1  0
 24 53  1  0
 24 54  1  0
 25 55  1  6
 26 56  1  0
 26 57  1  0
 27 58  1  0
 27 59  1  0
 28 60  1  0
 28 61  1  0
 29 62  1  0
 30 63  1  0
 30 64  1  0
 31 65  1  0
 31 66  1  0
 33 67  1  0
 34 68  1  0
 35 69  1  0
 36 70  1  0
M  END
>  <smiles>  (30) 
O=C(c1cc2c(-c3ccccn3)cccc2[nH]1)N1C[C@]2(CCN(CC3CCCNC3)C2)c2ccccc21

>  <score_type>  (30) 
oracle

>  <origin>  (30) 
autodockgpu

>  <m_score__min__energy>  (30) 
-10.640000000000001

>  <m_primary>  (30) 
energy

>  <rmsd>  (30) 
3.1485759915156675

>  <m_score__min__rmsd>  (30) 
3.1485759915156675

>  <meeko>  (30) 
{"free_energy": -9.94, "intermolecular_energy": -11.43, "internal_energy": -1.85, "cluster_size": 30, "cluster_id": 1, "rank_in_cluster": 10}

>  <energy>  (30) 
-8.97

>  <cluster_rmsd>  (30) 
1.95

>  <cluster>  (30) 
1

$$$$

     RDKit          3D

 70 76  0  0  1  0  0  0  0  0999 V2000
  142.1290   72.0610  221.3940 O   0  0  0  0  0  0  0  0  0  0  0  0
  141.0470   72.6270  221.7350 C   0  0  0  0  0  0  0  0  0  0  0  0
  140.1220   71.8060  222.4990 C   0  0  0  0  0  0  0  0  0  0  0  0
  140.3640   71.2520  223.7470 C   0  0  0  0  0  0  0  0  0  0  0  0
  139.2580   70.5750  224.1320 C   0  0  0  0  0  0  0  0  0  0  0  0
  138.9490   69.8330  225.2410 C   0  0  0  0  0  0  0  0  0  0  0  0
  139.8050   69.5710  226.3670 C   0  0  0  0  0  0  0  0  0  0  0  0
  140.3020   70.4750  227.2630 C   0  0  0  0  0  0  0  0  0  0  0  0
  141.0860   70.0510  228.3460 C   0  0  0  0  0  0  0  0  0  0  0  0
  141.3890   68.7310  228.5600 C   0  0  0  0  0  0  0  0  0  0  0  0
  140.8630   67.8310  227.6270 C   0  0  0  0  0  0  0  0  0  0  0  0
  140.1190   68.2680  226.6040 N   0  0  0  0  0  0  0  0  0  0  0  0
  137.6870   69.2530  225.2560 C   0  0  0  0  0  0  0  0  0  0  0  0
  136.7800   69.4010  224.2300 C   0  0  0  0  0  0  0  0  0  0  0  0
  137.0910   70.1490  223.1170 C   0  0  0  0  0  0  0  0  0  0  0  0
  138.3420   70.7300  223.0880 C   0  0  0  0  0  0  0  0  0  0  0  0
  138.8800   71.4780  222.1110 N   0  0  0  0  0  0  0  0  0  0  0  0
  140.7900   73.9940  221.3710 N   0  0  0  0  0  0  0  0  0  0  0  0
  139.5170   74.6190  221.6390 C   0  0  0  0  0  0  0  0  0  0  0  0
  139.6950   76.0420  221.2240 C   0  0  1  0  0  0  0  0  0  0  0  0
  138.6310   76.4940  220.2500 C   0  0  0  0  0  0  0  0  0  0  0  0
  138.3610   77.8910  220.7140 C   0  0  0  0  0  0  0  0  0  0  0  0
  138.7820   78.0720  222.0470 N   0  0  0  0  0  0  0  0  0  0  0  0
  139.4090   79.2720  222.4180 C   0  0  0  0  0  0  0  0  0  0  0  0
  140.8300   79.5000  222.0660 C   0  0  2  0  0  0  0  0  0  0  0  0
  141.8270   78.9290  223.0250 C   0  0  0  0  0  0  0  0  0  0  0  0
  142.2130   79.8320  224.1590 C   0  0  0  0  0  0  0  0  0  0  0  0
  142.4100   81.2560  223.7890 C   0  0  0  0  0  0  0  0  0  0  0  0
  141.7030   81.7420  222.6710 N   0  0  0  0  0  0  0  0  0  0  0  0
  141.2490   80.8610  221.6790 C   0  0  0  0  0  0  0  0  0  0  0  0
  139.5290   76.9150  222.4210 C   0  0  0  0  0  0  0  0  0  0  0  0
  141.0400   76.0840  220.6410 C   0  0  0  0  0  0  0  0  0  0  0  0
  141.6930   77.1580  220.0410 C   0  0  0  0  0  0  0  0  0  0  0  0
  142.9700   77.0570  219.5290 C   0  0  0  0  0  0  0  0  0  0  0  0
  143.6180   75.8470  219.6170 C   0  0  0  0  0  0  0  0  0  0  0  0
  142.9590   74.8010  220.2100 C   0  0  0  0  0  0  0  0  0  0  0  0
  141.6880   74.8770  220.7270 C   0  0  0  0  0  0  0  0  0  0  0  0
  141.2953   71.3468  224.3246 H   0  0  0  0  0  0  0  0  0  0  0  0
  140.0852   71.5456  227.1337 H   0  0  0  0  0  0  0  0  0  0  0  0
  141.4715   70.8043  229.0487 H   0  0  0  0  0  0  0  0  0  0  0  0
  142.0052   68.4013  229.4095 H   0  0  0  0  0  0  0  0  0  0  0  0
  141.0627   66.7547  227.7352 H   0  0  0  0  0  0  0  0  0  0  0  0
  137.3985   68.6473  226.1277 H   0  0  0  0  0  0  0  0  0  0  0  0
  135.7954   68.9157  224.3008 H   0  0  0  0  0  0  0  0  0  0  0  0
  136.3765   70.2773  222.2906 H   0  0  0  0  0  0  0  0  0  0  0  0
  138.4400   71.7680  221.2020 H   0  0  0  0  0  0  0  0  0  0  0  0
  138.7194   74.1410  221.0513 H   0  0  0  0  0  0  0  0  0  0  0  0
  139.2246   74.5284  222.6956 H   0  0  0  0  0  0  0  0  0  0  0  0
  139.0043   76.4812  219.2154 H   0  0  0  0  0  0  0  0  0  0  0  0
  137.7392   75.8502  220.2358 H   0  0  0  0  0  0  0  0  0  0  0  0
  138.9034   78.5959  220.0668 H   0  0  0  0  0  0  0  0  0  0  0  0
  137.2776   78.0740  220.6613 H   0  0  0  0  0  0  0  0  0  0  0  0
  138.8322   80.0881  221.9583 H   0  0  0  0  0  0  0  0  0  0  0  0
  139.4232   79.2231  223.5168 H   0  0  0  0  0  0  0  0  0  0  0  0
  140.8436   78.9151  221.1345 H   0  0  0  0  0  0  0  0  0  0  0  0
  141.4001   78.0097  223.4523 H   0  0  0  0  0  0  0  0  0  0  0  0
  142.7457   78.7587  222.4445 H   0  0  0  0  0  0  0  0  0  0  0  0
  141.4191   79.7837  224.9189 H   0  0  0  0  0  0  0  0  0  0  0  0
  143.1871   79.4712  224.5209 H   0  0  0  0  0  0  0  0  0  0  0  0
  142.1148   81.8654  224.6558 H   0  0  0  0  0  0  0  0  0  0  0  0
  143.4697   81.3269  223.5026 H   0  0  0  0  0  0  0  0  0  0  0  0
  141.0960   82.5550  222.8430 H   0  0  0  0  0  0  0  0  0  0  0  0
  140.3843   81.3388  221.1952 H   0  0  0  0  0  0  0  0  0  0  0  0
  142.1355   80.6943  221.0495 H   0  0  0  0  0  0  0  0  0  0  0  0
  140.5172   77.2186  222.7969 H   0  0  0  0  0  0  0  0  0  0  0  0
  138.9970   76.3666  223.2124 H   0  0  0  0  0  0  0  0  0  0  0  0
  141.1705   78.1236  219.9728 H   0  0  0  0  0  0  0  0  0  0  0  0
  143.4588   77.9243  219.0611 H   0  0  0  0  0  0  0  0  0  0  0  0
  144.6371   75.7218  219.2224 H   0  0  0  0  0  0  0  0  0  0  0  0
  143.4830   73.8361  220.2764 H   0  0  0  0  0  0  0  0  0  0  0  0
  1  2  2  0
  2  3  1  0
  3  4  2  0
  4  5  1  0
  5  6  2  0
  6  7  1  0
  7  8  2  0
  8  9  1  0
  9 10  2  0
 10 11  1  0
 11 12  2  0
  6 13  1  0
 13 14  2  0
 14 15  1  0
 15 16  2  0
 16 17  1  0
  2 18  1  0
 18 19  1  0
 20 19  1  1
 20 21  1  0
 21 22  1  0
 22 23  1  0
 23 24  1  0
 24 25  1  0
 25 26  1  0
 26 27  1  0
 27 28  1  0
 28 29  1  0
 29 30  1  0
 23 31  1  0
 20 32  1  0
 32 33  2  0
 33 34  1  0
 34 35  2  0
 35 36  1  0
 36 37  2  0
 17  3  1  0
 37 18  1  0
 16  5  1  0
 31 20  1  0
 37 32  1  0
 12  7  1  0
 30 25  1  0
  4 38  1  0
  8 39  1  0
  9 40  1  0
 10 41  1  0
 11 42  1  0
 13 43  1  0
 14 44  1  0
 15 45  1  0
 17 46  1  0
 19 47  1  0
 19 48  1  0
 21 49  1  0
 21 50  1  0
 22 51  1  0
 22 52  1  0
 24 53  1  0
 24 54  1  0
 25 55  1  6
 26 56  1  0
 26 57  1  0
 27 58  1  0
 27 59  1  0
 28 60  1  0
 28 61  1  0
 29 62  1  0
 30 63  1  0
 30 64  1  0
 31 65  1  0
 31 66  1  0
 33 67  1  0
 34 68  1  0
 35 69  1  0
 36 70  1  0
M  END
>  <smiles>  (31) 
O=C(c1cc2c(-c3ccccn3)cccc2[nH]1)N1C[C@]2(CCN(CC3CCCNC3)C2)c2ccccc21

>  <score_type>  (31) 
oracle

>  <origin>  (31) 
autodockgpu

>  <m_score__min__energy>  (31) 
-10.640000000000001

>  <m_primary>  (31) 
energy

>  <rmsd>  (31) 
2.8174992886116166

>  <m_score__min__rmsd>  (31) 
2.8174992886116166

>  <meeko>  (31) 
{"free_energy": -9.96, "intermolecular_energy": -11.45, "internal_energy": -1.83, "cluster_size": 30, "cluster_id": 1, "rank_in_cluster": 9}

>  <energy>  (31) 
-9.84

>  <cluster_rmsd>  (31) 
0.0

>  <cluster>  (31) 
2

$$$$

     RDKit          3D

 70 76  0  0  1  0  0  0  0  0999 V2000
  136.9030   73.4420  221.3360 O   0  0  0  0  0  0  0  0  0  0  0  0
  138.1210   73.1530  221.5360 C   0  0  0  0  0  0  0  0  0  0  0  0
  138.3670   71.8650  222.1640 C   0  0  0  0  0  0  0  0  0  0  0  0
  138.8750   71.6640  223.4390 C   0  0  0  0  0  0  0  0  0  0  0  0
  138.9390   70.3310  223.6640 C   0  0  0  0  0  0  0  0  0  0  0  0
  139.3700   69.5770  224.7220 C   0  0  0  0  0  0  0  0  0  0  0  0
  139.9090   70.0640  225.9640 C   0  0  0  0  0  0  0  0  0  0  0  0
  139.9670   69.4080  227.1610 C   0  0  0  0  0  0  0  0  0  0  0  0
  140.5750   70.0050  228.2740 C   0  0  0  0  0  0  0  0  0  0  0  0
  141.1370   71.2540  228.2230 C   0  0  0  0  0  0  0  0  0  0  0  0
  141.0630   71.8980  226.9820 C   0  0  0  0  0  0  0  0  0  0  0  0
  140.4750   71.3020  225.9390 N   0  0  0  0  0  0  0  0  0  0  0  0
  139.3050   68.1990  224.5570 C   0  0  0  0  0  0  0  0  0  0  0  0
  138.8360   67.6010  223.4090 C   0  0  0  0  0  0  0  0  0  0  0  0
  138.3990   68.3610  222.3470 C   0  0  0  0  0  0  0  0  0  0  0  0
  138.4600   69.7310  222.4960 C   0  0  0  0  0  0  0  0  0  0  0  0
  138.1180   70.6730  221.6010 N   0  0  0  0  0  0  0  0  0  0  0  0
  139.1620   74.0670  221.1510 N   0  0  0  0  0  0  0  0  0  0  0  0
  138.8770   75.4480  220.8430 C   0  0  0  0  0  0  0  0  0  0  0  0
  140.2120   76.0720  220.6100 C   0  0  1  0  0  0  0  0  0  0  0  0
  140.2890   76.7860  219.2800 C   0  0  0  0  0  0  0  0  0  0  0  0
  141.0910   78.0020  219.6290 C   0  0  0  0  0  0  0  0  0  0  0  0
  141.0490   78.2560  221.0150 N   0  0  0  0  0  0  0  0  0  0  0  0
  142.2110   78.6820  221.6760 C   0  0  0  0  0  0  0  0  0  0  0  0
  142.1200   79.7180  222.7310 C   0  0  2  0  0  0  0  0  0  0  0  0
  141.3170   79.3360  223.9360 C   0  0  0  0  0  0  0  0  0  0  0  0
  139.8500   79.6370  223.8490 C   0  0  0  0  0  0  0  0  0  0  0  0
  139.5130   80.9450  223.2310 C   0  0  0  0  0  0  0  0  0  0  0  0
  140.4300   81.4850  222.3080 N   0  0  0  0  0  0  0  0  0  0  0  0
  141.7780   81.0970  222.3340 C   0  0  0  0  0  0  0  0  0  0  0  0
  140.4340   77.1280  221.6370 C   0  0  0  0  0  0  0  0  0  0  0  0
  141.1560   74.9510  220.6970 C   0  0  0  0  0  0  0  0  0  0  0  0
  142.5350   74.9600  220.4990 C   0  0  0  0  0  0  0  0  0  0  0  0
  143.3070   73.8230  220.6140 C   0  0  0  0  0  0  0  0  0  0  0  0
  142.6860   72.6380  220.9360 C   0  0  0  0  0  0  0  0  0  0  0  0
  141.3280   72.6490  221.1250 C   0  0  0  0  0  0  0  0  0  0  0  0
  140.5380   73.7680  221.0170 C   0  0  0  0  0  0  0  0  0  0  0  0
  139.1743   72.4522  224.1455 H   0  0  0  0  0  0  0  0  0  0  0  0
  139.5324   68.4016  227.2522 H   0  0  0  0  0  0  0  0  0  0  0  0
  140.6021   69.4505  229.2236 H   0  0  0  0  0  0  0  0  0  0  0  0
  141.6141   71.7192  229.0982 H   0  0  0  0  0  0  0  0  0  0  0  0
  141.4926   72.9037  226.8637 H   0  0  0  0  0  0  0  0  0  0  0  0
  139.6441   67.5556  225.3823 H   0  0  0  0  0  0  0  0  0  0  0  0
  138.8101   66.5035  223.3393 H   0  0  0  0  0  0  0  0  0  0  0  0
  138.0195   67.8979  221.4242 H   0  0  0  0  0  0  0  0  0  0  0  0
  137.7280   70.5350  220.6360 H   0  0  0  0  0  0  0  0  0  0  0  0
  138.2521   75.5224  219.9408 H   0  0  0  0  0  0  0  0  0  0  0  0
  138.3218   75.9467  221.6511 H   0  0  0  0  0  0  0  0  0  0  0  0
  140.8015   76.1717  218.5250 H   0  0  0  0  0  0  0  0  0  0  0  0
  139.3069   77.0124  218.8392 H   0  0  0  0  0  0  0  0  0  0  0  0
  142.1359   77.8431  219.3242 H   0  0  0  0  0  0  0  0  0  0  0  0
  140.6623   78.8670  219.1017 H   0  0  0  0  0  0  0  0  0  0  0  0
  142.6571   77.7911  222.1421 H   0  0  0  0  0  0  0  0  0  0  0  0
  142.7893   79.1768  220.8818 H   0  0  0  0  0  0  0  0  0  0  0  0
  143.1868   79.7476  222.9977 H   0  0  0  0  0  0  0  0  0  0  0  0
  141.4333   78.2535  224.0930 H   0  0  0  0  0  0  0  0  0  0  0  0
  141.7044   79.9451  224.7660 H   0  0  0  0  0  0  0  0  0  0  0  0
  139.3740   78.8449  223.2523 H   0  0  0  0  0  0  0  0  0  0  0  0
  139.4837   79.6832  224.8852 H   0  0  0  0  0  0  0  0  0  0  0  0
  138.5524   80.8246  222.7087 H   0  0  0  0  0  0  0  0  0  0  0  0
  139.5076   81.6573  224.0692 H   0  0  0  0  0  0  0  0  0  0  0  0
  140.0540   81.6920  221.3720 H   0  0  0  0  0  0  0  0  0  0  0  0
  142.1760   81.2480  221.3197 H   0  0  0  0  0  0  0  0  0  0  0  0
  142.2142   81.7160  223.1319 H   0  0  0  0  0  0  0  0  0  0  0  0
  141.0905   76.7399  222.4297 H   0  0  0  0  0  0  0  0  0  0  0  0
  139.4720   77.4252  222.0799 H   0  0  0  0  0  0  0  0  0  0  0  0
  143.0265   75.9097  220.2412 H   0  0  0  0  0  0  0  0  0  0  0  0
  144.3943   73.8625  220.4520 H   0  0  0  0  0  0  0  0  0  0  0  0
  143.2633   71.7073  221.0390 H   0  0  0  0  0  0  0  0  0  0  0  0
  140.8380   71.6979  221.3803 H   0  0  0  0  0  0  0  0  0  0  0  0
  1  2  2  0
  2  3  1  0
  3  4  2  0
  4  5  1  0
  5  6  2  0
  6  7  1  0
  7  8  2  0
  8  9  1  0
  9 10  2  0
 10 11  1  0
 11 12  2  0
  6 13  1  0
 13 14  2  0
 14 15  1  0
 15 16  2  0
 16 17  1  0
  2 18  1  0
 18 19  1  0
 20 19  1  1
 20 21  1  0
 21 22  1  0
 22 23  1  0
 23 24  1  0
 24 25  1  0
 25 26  1  0
 26 27  1  0
 27 28  1  0
 28 29  1  0
 29 30  1  0
 23 31  1  0
 20 32  1  0
 32 33  2  0
 33 34  1  0
 34 35  2  0
 35 36  1  0
 36 37  2  0
 17  3  1  0
 37 18  1  0
 16  5  1  0
 31 20  1  0
 37 32  1  0
 12  7  1  0
 30 25  1  0
  4 38  1  0
  8 39  1  0
  9 40  1  0
 10 41  1  0
 11 42  1  0
 13 43  1  0
 14 44  1  0
 15 45  1  0
 17 46  1  0
 19 47  1  0
 19 48  1  0
 21 49  1  0
 21 50  1  0
 22 51  1  0
 22 52  1  0
 24 53  1  0
 24 54  1  0
 25 55  1  1
 26 56  1  0
 26 57  1  0
 27 58  1  0
 27 59  1  0
 28 60  1  0
 28 61  1  0
 29 62  1  0
 30 63  1  0
 30 64  1  0
 31 65  1  0
 31 66  1  0
 33 67  1  0
 34 68  1  0
 35 69  1  0
 36 70  1  0
M  END
>  <smiles>  (32) 
O=C(c1cc2c(-c3ccccn3)cccc2[nH]1)N1C[C@]2(CCN(CC3CCCNC3)C2)c2ccccc21

>  <score_type>  (32) 
oracle

>  <origin>  (32) 
autodockgpu

>  <m_score__min__energy>  (32) 
-10.640000000000001

>  <m_primary>  (32) 
energy

>  <rmsd>  (32) 
2.855861954049529

>  <m_score__min__rmsd>  (32) 
2.855861954049529

>  <meeko>  (32) 
{"free_energy": -9.21, "intermolecular_energy": -10.71, "internal_energy": -1.87, "cluster_size": 6, "cluster_id": 5, "rank_in_cluster": 3}

>  <energy>  (32) 
-9.79

>  <cluster_rmsd>  (32) 
0.78

>  <cluster>  (32) 
2

$$$$

     RDKit          3D

 70 76  0  0  1  0  0  0  0  0999 V2000
  142.0130   72.0170  221.5740 O   0  0  0  0  0  0  0  0  0  0  0  0
  140.9210   72.6060  221.8350 C   0  0  0  0  0  0  0  0  0  0  0  0
  139.9340   71.8120  222.5470 C   0  0  0  0  0  0  0  0  0  0  0  0
  140.1390   71.1360  223.7410 C   0  0  0  0  0  0  0  0  0  0  0  0
  138.9790   70.5330  224.0900 C   0  0  0  0  0  0  0  0  0  0  0  0
  138.6160   69.7330  225.1410 C   0  0  0  0  0  0  0  0  0  0  0  0
  139.4570   69.3010  226.2250 C   0  0  0  0  0  0  0  0  0  0  0  0
  139.6760   69.9390  227.4140 C   0  0  0  0  0  0  0  0  0  0  0  0
  140.4900   69.3580  228.3970 C   0  0  0  0  0  0  0  0  0  0  0  0
  141.0960   68.1400  228.2230 C   0  0  0  0  0  0  0  0  0  0  0  0
  140.8500   67.5120  226.9960 C   0  0  0  0  0  0  0  0  0  0  0  0
  140.0690   68.0940  226.0790 N   0  0  0  0  0  0  0  0  0  0  0  0
  137.3060   69.2710  225.1330 C   0  0  0  0  0  0  0  0  0  0  0  0
  136.4050   69.5850  224.1400 C   0  0  0  0  0  0  0  0  0  0  0  0
  136.7700   70.3920  223.0860 C   0  0  0  0  0  0  0  0  0  0  0  0
  138.0690   70.8570  223.0800 C   0  0  0  0  0  0  0  0  0  0  0  0
  138.6620   71.6310  222.1580 N   0  0  0  0  0  0  0  0  0  0  0  0
  140.7130   73.9710  221.4350 N   0  0  0  0  0  0  0  0  0  0  0  0
  139.4520   74.6370  221.6560 C   0  0  0  0  0  0  0  0  0  0  0  0
  139.6800   76.0450  221.2170 C   0  0  1  0  0  0  0  0  0  0  0  0
  138.6560   76.5050  220.2050 C   0  0  0  0  0  0  0  0  0  0  0  0
  138.4140   77.9190  220.6320 C   0  0  0  0  0  0  0  0  0  0  0  0
  138.8040   78.1170  221.9720 N   0  0  0  0  0  0  0  0  0  0  0  0
  139.4550   79.3070  222.3350 C   0  0  0  0  0  0  0  0  0  0  0  0
  140.8980   79.4760  222.0440 C   0  0  2  0  0  0  0  0  0  0  0  0
  141.8280   78.9200  223.0770 C   0  0  0  0  0  0  0  0  0  0  0  0
  142.1870   79.8640  224.1870 C   0  0  0  0  0  0  0  0  0  0  0  0
  142.4480   81.2630  223.7620 C   0  0  0  0  0  0  0  0  0  0  0  0
  141.8120   81.7170  222.5890 N   0  0  0  0  0  0  0  0  0  0  0  0
  141.3780   80.8030  221.6170 C   0  0  0  0  0  0  0  0  0  0  0  0
  139.5080   76.9480  222.3900 C   0  0  0  0  0  0  0  0  0  0  0  0
  141.0410   76.0370  220.6690 C   0  0  0  0  0  0  0  0  0  0  0  0
  141.7410   77.0800  220.0650 C   0  0  0  0  0  0  0  0  0  0  0  0
  143.0270   76.9320  219.5910 C   0  0  0  0  0  0  0  0  0  0  0  0
  143.6390   75.7070  219.7210 C   0  0  0  0  0  0  0  0  0  0  0  0
  142.9340   74.6920  220.3170 C   0  0  0  0  0  0  0  0  0  0  0  0
  141.6520   74.8140  220.7980 C   0  0  0  0  0  0  0  0  0  0  0  0
  141.0818   71.0969  224.3064 H   0  0  0  0  0  0  0  0  0  0  0  0
  139.2093   70.9173  227.6014 H   0  0  0  0  0  0  0  0  0  0  0  0
  140.6482   69.8987  229.3418 H   0  0  0  0  0  0  0  0  0  0  0  0
  141.7332   67.6864  228.9964 H   0  0  0  0  0  0  0  0  0  0  0  0
  141.3027   66.5320  226.7843 H   0  0  0  0  0  0  0  0  0  0  0  0
  136.9729   68.6243  225.9581 H   0  0  0  0  0  0  0  0  0  0  0  0
  135.3811   69.1861  224.1896 H   0  0  0  0  0  0  0  0  0  0  0  0
  136.0603   70.6534  222.2873 H   0  0  0  0  0  0  0  0  0  0  0  0
  138.2400   72.0350  221.2840 H   0  0  0  0  0  0  0  0  0  0  0  0
  138.6568   74.1688  221.0574 H   0  0  0  0  0  0  0  0  0  0  0  0
  139.1304   74.5774  222.7062 H   0  0  0  0  0  0  0  0  0  0  0  0
  139.0563   76.4590  219.1815 H   0  0  0  0  0  0  0  0  0  0  0  0
  137.7468   75.8864  220.1798 H   0  0  0  0  0  0  0  0  0  0  0  0
  138.9938   78.5940  219.9854 H   0  0  0  0  0  0  0  0  0  0  0  0
  137.3382   78.1314  220.5456 H   0  0  0  0  0  0  0  0  0  0  0  0
  138.9289   80.1265  221.8234 H   0  0  0  0  0  0  0  0  0  0  0  0
  139.4167   79.2932  223.4343 H   0  0  0  0  0  0  0  0  0  0  0  0
  140.9389   78.8488  221.1412 H   0  0  0  0  0  0  0  0  0  0  0  0
  141.3509   78.0351  223.5236 H   0  0  0  0  0  0  0  0  0  0  0  0
  142.7679   78.6941  222.5520 H   0  0  0  0  0  0  0  0  0  0  0  0
  141.3556   79.8757  224.9072 H   0  0  0  0  0  0  0  0  0  0  0  0
  143.1299   79.4917  224.6141 H   0  0  0  0  0  0  0  0  0  0  0  0
  142.1313   81.9215  224.5843 H   0  0  0  0  0  0  0  0  0  0  0  0
  143.5220   81.2879  223.5255 H   0  0  0  0  0  0  0  0  0  0  0  0
  141.2240   82.5550  222.6930 H   0  0  0  0  0  0  0  0  0  0  0  0
  140.5533   81.2827  221.0696 H   0  0  0  0  0  0  0  0  0  0  0  0
  142.2883   80.5802  221.0410 H   0  0  0  0  0  0  0  0  0  0  0  0
  140.4944   77.2322  222.7854 H   0  0  0  0  0  0  0  0  0  0  0  0
  138.9403   76.4321  223.1784 H   0  0  0  0  0  0  0  0  0  0  0  0
  141.2486   78.0583  219.9627 H   0  0  0  0  0  0  0  0  0  0  0  0
  143.5524   77.7753  219.1190 H   0  0  0  0  0  0  0  0  0  0  0  0
  144.6646   75.5457  219.3574 H   0  0  0  0  0  0  0  0  0  0  0  0
  143.4281   73.7143  220.4167 H   0  0  0  0  0  0  0  0  0  0  0  0
  1  2  2  0
  2  3  1  0
  3  4  2  0
  4  5  1  0
  5  6  2  0
  6  7  1  0
  7  8  2  0
  8  9  1  0
  9 10  2  0
 10 11  1  0
 11 12  2  0
  6 13  1  0
 13 14  2  0
 14 15  1  0
 15 16  2  0
 16 17  1  0
  2 18  1  0
 18 19  1  0
 20 19  1  1
 20 21  1  0
 21 22  1  0
 22 23  1  0
 23 24  1  0
 24 25  1  0
 25 26  1  0
 26 27  1  0
 27 28  1  0
 28 29  1  0
 29 30  1  0
 23 31  1  0
 20 32  1  0
 32 33  2  0
 33 34  1  0
 34 35  2  0
 35 36  1  0
 36 37  2  0
 17  3  1  0
 37 18  1  0
 16  5  1  0
 31 20  1  0
 37 32  1  0
 12  7  1  0
 30 25  1  0
  4 38  1  0
  8 39  1  0
  9 40  1  0
 10 41  1  0
 11 42  1  0
 13 43  1  0
 14 44  1  0
 15 45  1  0
 17 46  1  0
 19 47  1  0
 19 48  1  0
 21 49  1  0
 21 50  1  0
 22 51  1  0
 22 52  1  0
 24 53  1  0
 24 54  1  0
 25 55  1  6
 26 56  1  0
 26 57  1  0
 27 58  1  0
 27 59  1  0
 28 60  1  0
 28 61  1  0
 29 62  1  0
 30 63  1  0
 30 64  1  0
 31 65  1  0
 31 66  1  0
 33 67  1  0
 34 68  1  0
 35 69  1  0
 36 70  1  0
M  END
>  <smiles>  (33) 
O=C(c1cc2c(-c3ccccn3)cccc2[nH]1)N1C[C@]2(CCN(CC3CCCNC3)C2)c2ccccc21

>  <score_type>  (33) 
oracle

>  <origin>  (33) 
autodockgpu

>  <m_score__min__energy>  (33) 
-10.640000000000001

>  <m_primary>  (33) 
energy

>  <rmsd>  (33) 
2.88192718782325

>  <m_score__min__rmsd>  (33) 
2.88192718782325

>  <meeko>  (33) 
{"free_energy": -9.93, "intermolecular_energy": -11.42, "internal_energy": -1.82, "cluster_size": 30, "cluster_id": 1, "rank_in_cluster": 12}

>  <energy>  (33) 
-9.76

>  <cluster_rmsd>  (33) 
0.78

>  <cluster>  (33) 
2

$$$$

     RDKit          3D

 70 76  0  0  1  0  0  0  0  0999 V2000
  137.5570   75.3630  220.1480 O   0  0  0  0  0  0  0  0  0  0  0  0
  137.3870   75.3210  221.4040 C   0  0  0  0  0  0  0  0  0  0  0  0
  137.4150   76.6060  222.0840 C   0  0  0  0  0  0  0  0  0  0  0  0
  138.5470   77.3580  222.3590 C   0  0  0  0  0  0  0  0  0  0  0  0
  138.1590   78.4940  222.9840 C   0  0  0  0  0  0  0  0  0  0  0  0
  138.8420   79.5670  223.4920 C   0  0  0  0  0  0  0  0  0  0  0  0
  140.2670   79.7630  223.4830 C   0  0  0  0  0  0  0  0  0  0  0  0
  141.2280   78.8680  223.1070 C   0  0  0  0  0  0  0  0  0  0  0  0
  142.5820   79.2320  223.1060 C   0  0  0  0  0  0  0  0  0  0  0  0
  143.0070   80.4830  223.4730 C   0  0  0  0  0  0  0  0  0  0  0  0
  141.9970   81.3770  223.8500 C   0  0  0  0  0  0  0  0  0  0  0  0
  140.7150   80.9980  223.8410 N   0  0  0  0  0  0  0  0  0  0  0  0
  138.0710   80.5470  224.1050 C   0  0  0  0  0  0  0  0  0  0  0  0
  136.7000   80.4700  224.2060 C   0  0  0  0  0  0  0  0  0  0  0  0
  136.0150   79.3930  223.6930 C   0  0  0  0  0  0  0  0  0  0  0  0
  136.7670   78.4100  223.0820 C   0  0  0  0  0  0  0  0  0  0  0  0
  136.3350   77.2640  222.5330 N   0  0  0  0  0  0  0  0  0  0  0  0
  137.1830   74.0660  222.0730 N   0  0  0  0  0  0  0  0  0  0  0  0
  137.9820   72.9050  221.7600 C   0  0  0  0  0  0  0  0  0  0  0  0
  137.5440   71.8650  222.7350 C   0  0  1  0  0  0  0  0  0  0  0  0
  137.1310   70.5780  222.0570 C   0  0  0  0  0  0  0  0  0  0  0  0
  137.6780   69.5460  222.9940 C   0  0  0  0  0  0  0  0  0  0  0  0
  138.6990   70.0870  223.8020 N   0  0  0  0  0  0  0  0  0  0  0  0
  138.7720   69.7260  225.1570 C   0  0  0  0  0  0  0  0  0  0  0  0
  140.0940   69.6170  225.8180 C   0  0  2  0  0  0  0  0  0  0  0  0
  140.0580   69.1790  227.2500 C   0  0  0  0  0  0  0  0  0  0  0  0
  139.9160   70.2850  228.2530 C   0  0  0  0  0  0  0  0  0  0  0  0
  140.7170   71.5020  227.9650 C   0  0  0  0  0  0  0  0  0  0  0  0
  141.0360   71.7680  226.6180 N   0  0  0  0  0  0  0  0  0  0  0  0
  141.0480   70.7320  225.6720 C   0  0  0  0  0  0  0  0  0  0  0  0
  138.7020   71.5000  223.6000 C   0  0  0  0  0  0  0  0  0  0  0  0
  136.4350   72.4930  223.4620 C   0  0  0  0  0  0  0  0  0  0  0  0
  135.6210   71.9420  224.4500 C   0  0  0  0  0  0  0  0  0  0  0  0
  134.6070   72.6530  225.0550 C   0  0  0  0  0  0  0  0  0  0  0  0
  134.3940   73.9560  224.6650 C   0  0  0  0  0  0  0  0  0  0  0  0
  135.2040   74.4790  223.6910 C   0  0  0  0  0  0  0  0  0  0  0  0
  136.2220   73.7920  223.0730 C   0  0  0  0  0  0  0  0  0  0  0  0
  139.5820   77.0793  222.1118 H   0  0  0  0  0  0  0  0  0  0  0  0
  140.9368   77.8520  222.8021 H   0  0  0  0  0  0  0  0  0  0  0  0
  143.3308   78.4867  222.7996 H   0  0  0  0  0  0  0  0  0  0  0  0
  144.0701   80.7655  223.4714 H   0  0  0  0  0  0  0  0  0  0  0  0
  142.2609   82.4000  224.1562 H   0  0  0  0  0  0  0  0  0  0  0  0
  138.5796   81.4252  224.5293 H   0  0  0  0  0  0  0  0  0  0  0  0
  136.1456   81.2797  224.7030 H   0  0  0  0  0  0  0  0  0  0  0  0
  134.9200   79.3187  223.7662 H   0  0  0  0  0  0  0  0  0  0  0  0
  135.3460   76.9180  222.4530 H   0  0  0  0  0  0  0  0  0  0  0  0
  137.7941   72.5723  220.7285 H   0  0  0  0  0  0  0  0  0  0  0  0
  139.0600   73.1122  221.8311 H   0  0  0  0  0  0  0  0  0  0  0  0
  136.0367   70.5029  221.9738 H   0  0  0  0  0  0  0  0  0  0  0  0
  137.4993   70.4812  221.0250 H   0  0  0  0  0  0  0  0  0  0  0  0
  136.8657   69.1789  223.6386 H   0  0  0  0  0  0  0  0  0  0  0  0
  138.1009   68.7225  222.3999 H   0  0  0  0  0  0  0  0  0  0  0  0
  138.1956   70.4761  225.7184 H   0  0  0  0  0  0  0  0  0  0  0  0
  138.3947   68.6928  225.1673 H   0  0  0  0  0  0  0  0  0  0  0  0
  140.5006   68.8052  225.1970 H   0  0  0  0  0  0  0  0  0  0  0  0
  139.2059   68.4947  227.3752 H   0  0  0  0  0  0  0  0  0  0  0  0
  141.0323   68.7090  227.4499 H   0  0  0  0  0  0  0  0  0  0  0  0
  138.8559   70.5759  228.2920 H   0  0  0  0  0  0  0  0  0  0  0  0
  140.2956   69.8862  229.2053 H   0  0  0  0  0  0  0  0  0  0  0  0
  140.1527   72.3657  228.3466 H   0  0  0  0  0  0  0  0  0  0  0  0
  141.6866   71.3207  228.4518 H   0  0  0  0  0  0  0  0  0  0  0  0
  140.7340   72.6830  226.2590 H   0  0  0  0  0  0  0  0  0  0  0  0
  140.8595   71.1905  224.6900 H   0  0  0  0  0  0  0  0  0  0  0  0
  142.0303   70.2578  225.8139 H   0  0  0  0  0  0  0  0  0  0  0  0
  138.6148   72.0121  224.5696 H   0  0  0  0  0  0  0  0  0  0  0  0
  139.6410   71.8059  223.1155 H   0  0  0  0  0  0  0  0  0  0  0  0
  135.7943   70.9005  224.7586 H   0  0  0  0  0  0  0  0  0  0  0  0
  133.9817   72.1895  225.8323 H   0  0  0  0  0  0  0  0  0  0  0  0
  133.5964   74.5601  225.1221 H   0  0  0  0  0  0  0  0  0  0  0  0
  135.0275   75.5200  223.3825 H   0  0  0  0  0  0  0  0  0  0  0  0
  1  2  2  0
  2  3  1  0
  3  4  2  0
  4  5  1  0
  5  6  2  0
  6  7  1  0
  7  8  2  0
  8  9  1  0
  9 10  2  0
 10 11  1  0
 11 12  2  0
  6 13  1  0
 13 14  2  0
 14 15  1  0
 15 16  2  0
 16 17  1  0
  2 18  1  0
 18 19  1  0
 20 19  1  6
 20 21  1  0
 21 22  1  0
 22 23  1  0
 23 24  1  0
 24 25  1  0
 25 26  1  0
 26 27  1  0
 27 28  1  0
 28 29  1  0
 29 30  1  0
 23 31  1  0
 20 32  1  0
 32 33  2  0
 33 34  1  0
 34 35  2  0
 35 36  1  0
 36 37  2  0
 17  3  1  0
 37 18  1  0
 16  5  1  0
 31 20  1  0
 37 32  1  0
 12  7  1  0
 30 25  1  0
  4 38  1  0
  8 39  1  0
  9 40  1  0
 10 41  1  0
 11 42  1  0
 13 43  1  0
 14 44  1  0
 15 45  1  0
 17 46  1  0
 19 47  1  0
 19 48  1  0
 21 49  1  0
 21 50  1  0
 22 51  1  0
 22 52  1  0
 24 53  1  0
 24 54  1  0
 25 55  1  6
 26 56  1  0
 26 57  1  0
 27 58  1  0
 27 59  1  0
 28 60  1  0
 28 61  1  0
 29 62  1  0
 30 63  1  0
 30 64  1  0
 31 65  1  0
 31 66  1  0
 33 67  1  0
 34 68  1  0
 35 69  1  0
 36 70  1  0
M  END
>  <smiles>  (34) 
O=C(c1cc2c(-c3ccccn3)cccc2[nH]1)N1C[C@]2(CCN(CC3CCCNC3)C2)c2ccccc21

>  <score_type>  (34) 
oracle

>  <origin>  (34) 
autodockgpu

>  <m_score__min__energy>  (34) 
-10.640000000000001

>  <m_primary>  (34) 
energy

>  <rmsd>  (34) 
10.220122280917689

>  <m_score__min__rmsd>  (34) 
10.220122280917689

>  <meeko>  (34) 
{"free_energy": -9.31, "intermolecular_energy": -10.8, "internal_energy": -1.59, "cluster_size": 1, "cluster_id": 7, "rank_in_cluster": 1}

>  <energy>  (34) 
-9.76

>  <cluster_rmsd>  (34) 
0.77

>  <cluster>  (34) 
2

$$$$

     RDKit          3D

 70 76  0  0  1  0  0  0  0  0999 V2000
  137.8560   72.1120  219.9460 O   0  0  0  0  0  0  0  0  0  0  0  0
  138.7530   72.2970  220.8230 C   0  0  0  0  0  0  0  0  0  0  0  0
  138.9260   71.2170  221.7810 C   0  0  0  0  0  0  0  0  0  0  0  0
  139.3660   71.3510  223.0890 C   0  0  0  0  0  0  0  0  0  0  0  0
  139.3760   70.1250  223.6610 C   0  0  0  0  0  0  0  0  0  0  0  0
  139.7320   69.6700  224.9030 C   0  0  0  0  0  0  0  0  0  0  0  0
  140.2280   70.4590  225.9990 C   0  0  0  0  0  0  0  0  0  0  0  0
  141.0710   71.5320  225.9380 C   0  0  0  0  0  0  0  0  0  0  0  0
  141.4220   72.2310  227.1020 C   0  0  0  0  0  0  0  0  0  0  0  0
  140.9460   71.8840  228.3400 C   0  0  0  0  0  0  0  0  0  0  0  0
  140.0820   70.7820  228.3670 C   0  0  0  0  0  0  0  0  0  0  0  0
  139.7680   70.1360  227.2390 N   0  0  0  0  0  0  0  0  0  0  0  0
  139.6290   68.2990  225.1040 C   0  0  0  0  0  0  0  0  0  0  0  0
  139.1960   67.4280  224.1300 C   0  0  0  0  0  0  0  0  0  0  0  0
  138.8350   67.8860  222.8830 C   0  0  0  0  0  0  0  0  0  0  0  0
  138.9340   69.2460  222.6680 C   0  0  0  0  0  0  0  0  0  0  0  0
  138.6650   69.9230  221.5400 N   0  0  0  0  0  0  0  0  0  0  0  0
  139.5260   73.5090  220.8350 N   0  0  0  0  0  0  0  0  0  0  0  0
  138.9100   74.7940  221.0630 C   0  0  0  0  0  0  0  0  0  0  0  0
  140.0470   75.7590  221.1130 C   0  0  1  0  0  0  0  0  0  0  0  0
  139.8650   76.9130  220.1530 C   0  0  0  0  0  0  0  0  0  0  0  0
  140.3880   78.0650  220.9520 C   0  0  0  0  0  0  0  0  0  0  0  0
  140.3840   77.7690  222.3300 N   0  0  0  0  0  0  0  0  0  0  0  0
  141.4610   78.1830  223.1300 C   0  0  0  0  0  0  0  0  0  0  0  0
  141.6500   79.6240  223.4210 C   0  0  2  0  0  0  0  0  0  0  0  0
  140.4090   80.4590  223.3520 C   0  0  0  0  0  0  0  0  0  0  0  0
  140.0900   81.0200  221.9970 C   0  0  0  0  0  0  0  0  0  0  0  0
  141.2600   81.5300  221.2380 C   0  0  0  0  0  0  0  0  0  0  0  0
  142.5180   80.9620  221.5200 N   0  0  0  0  0  0  0  0  0  0  0  0
  142.7550   80.3370  222.7530 C   0  0  0  0  0  0  0  0  0  0  0  0
  140.0910   76.3780  222.4680 C   0  0  0  0  0  0  0  0  0  0  0  0
  141.2260   74.9480  220.7930 C   0  0  0  0  0  0  0  0  0  0  0  0
  142.5490   75.3580  220.6450 C   0  0  0  0  0  0  0  0  0  0  0  0
  143.5680   74.4800  220.3410 C   0  0  0  0  0  0  0  0  0  0  0  0
  143.2610   73.1490  220.1780 C   0  0  0  0  0  0  0  0  0  0  0  0
  141.9530   72.7640  220.3260 C   0  0  0  0  0  0  0  0  0  0  0  0
  140.9210   73.6190  220.6290 C   0  0  0  0  0  0  0  0  0  0  0  0
  139.6570   72.2925  223.5778 H   0  0  0  0  0  0  0  0  0  0  0  0
  141.4782   71.8507  224.9671 H   0  0  0  0  0  0  0  0  0  0  0  0
  142.1046   73.0896  227.0186 H   0  0  0  0  0  0  0  0  0  0  0  0
  141.2240   72.4342  229.2510 H   0  0  0  0  0  0  0  0  0  0  0  0
  139.6580   70.4449  229.3244 H   0  0  0  0  0  0  0  0  0  0  0  0
  139.9063   67.8907  226.0871 H   0  0  0  0  0  0  0  0  0  0  0  0
  139.1377   66.3520  224.3510 H   0  0  0  0  0  0  0  0  0  0  0  0
  138.4847   67.2016  222.0963 H   0  0  0  0  0  0  0  0  0  0  0  0
  138.3170   69.5420  220.6250 H   0  0  0  0  0  0  0  0  0  0  0  0
  138.2239   75.0460  220.2410 H   0  0  0  0  0  0  0  0  0  0  0  0
  138.3117   74.8095  221.9860 H   0  0  0  0  0  0  0  0  0  0  0  0
  140.4509   76.7649  219.2338 H   0  0  0  0  0  0  0  0  0  0  0  0
  138.8287   77.0452  219.8085 H   0  0  0  0  0  0  0  0  0  0  0  0
  141.4181   78.2844  220.6345 H   0  0  0  0  0  0  0  0  0  0  0  0
  139.7371   78.9347  220.7792 H   0  0  0  0  0  0  0  0  0  0  0  0
  141.3525   77.6737  224.0990 H   0  0  0  0  0  0  0  0  0  0  0  0
  142.3426   77.9270  222.5240 H   0  0  0  0  0  0  0  0  0  0  0  0
  141.9627   79.5201  224.4705 H   0  0  0  0  0  0  0  0  0  0  0  0
  139.5609   79.8348  223.6700 H   0  0  0  0  0  0  0  0  0  0  0  0
  140.5874   81.3250  224.0063 H   0  0  0  0  0  0  0  0  0  0  0  0
  139.6168   80.2254  221.4014 H   0  0  0  0  0  0  0  0  0  0  0  0
  139.4339   81.8859  222.1693 H   0  0  0  0  0  0  0  0  0  0  0  0
  141.0565   81.3652  220.1696 H   0  0  0  0  0  0  0  0  0  0  0  0
  141.3539   82.5826  221.5433 H   0  0  0  0  0  0  0  0  0  0  0  0
  143.0120   80.5460  220.7180 H   0  0  0  0  0  0  0  0  0  0  0  0
  143.5601   79.6047  222.5930 H   0  0  0  0  0  0  0  0  0  0  0  0
  142.9764   81.1732  223.4326 H   0  0  0  0  0  0  0  0  0  0  0  0
  140.8735   75.8935  223.0704 H   0  0  0  0  0  0  0  0  0  0  0  0
  139.1205   76.2487  222.9693 H   0  0  0  0  0  0  0  0  0  0  0  0
  142.7902   76.4232  220.7757 H   0  0  0  0  0  0  0  0  0  0  0  0
  144.6030   74.8359  220.2313 H   0  0  0  0  0  0  0  0  0  0  0  0
  144.0427   72.4140  219.9357 H   0  0  0  0  0  0  0  0  0  0  0  0
  141.7139   71.6985  220.1931 H   0  0  0  0  0  0  0  0  0  0  0  0
  1  2  2  0
  2  3  1  0
  3  4  2  0
  4  5  1  0
  5  6  2  0
  6  7  1  0
  7  8  2  0
  8  9  1  0
  9 10  2  0
 10 11  1  0
 11 12  2  0
  6 13  1  0
 13 14  2  0
 14 15  1  0
 15 16  2  0
 16 17  1  0
  2 18  1  0
 18 19  1  0
 20 19  1  1
 20 21  1  0
 21 22  1  0
 22 23  1  0
 23 24  1  0
 24 25  1  0
 25 26  1  0
 26 27  1  0
 27 28  1  0
 28 29  1  0
 29 30  1  0
 23 31  1  0
 20 32  1  0
 32 33  2  0
 33 34  1  0
 34 35  2  0
 35 36  1  0
 36 37  2  0
 17  3  1  0
 37 18  1  0
 16  5  1  0
 31 20  1  0
 37 32  1  0
 12  7  1  0
 30 25  1  0
  4 38  1  0
  8 39  1  0
  9 40  1  0
 10 41  1  0
 11 42  1  0
 13 43  1  0
 14 44  1  0
 15 45  1  0
 17 46  1  0
 19 47  1  0
 19 48  1  0
 21 49  1  0
 21 50  1  0
 22 51  1  0
 22 52  1  0
 24 53  1  0
 24 54  1  0
 25 55  1  1
 26 56  1  0
 26 57  1  0
 27 58  1  0
 27 59  1  0
 28 60  1  0
 28 61  1  0
 29 62  1  0
 30 63  1  0
 30 64  1  0
 31 65  1  0
 31 66  1  0
 33 67  1  0
 34 68  1  0
 35 69  1  0
 36 70  1  0
M  END
>  <smiles>  (35) 
O=C(c1cc2c(-c3ccccn3)cccc2[nH]1)N1C[C@]2(CCN(CC3CCCNC3)C2)c2ccccc21

>  <score_type>  (35) 
oracle

>  <origin>  (35) 
autodockgpu

>  <m_score__min__energy>  (35) 
-10.640000000000001

>  <m_primary>  (35) 
energy

>  <rmsd>  (35) 
2.680227940427388

>  <m_score__min__rmsd>  (35) 
2.680227940427388

>  <meeko>  (35) 
{"free_energy": -9.73, "intermolecular_energy": -11.22, "internal_energy": -1.91, "cluster_size": 30, "cluster_id": 1, "rank_in_cluster": 19}

>  <energy>  (35) 
-9.72

>  <cluster_rmsd>  (35) 
0.66

>  <cluster>  (35) 
2

$$$$

     RDKit          3D

 70 76  0  0  1  0  0  0  0  0999 V2000
  138.1270   71.7240  219.7470 O   0  0  0  0  0  0  0  0  0  0  0  0
  138.9270   71.9820  220.6970 C   0  0  0  0  0  0  0  0  0  0  0  0
  139.0520   70.9480  221.7110 C   0  0  0  0  0  0  0  0  0  0  0  0
  139.4490   71.1390  223.0260 C   0  0  0  0  0  0  0  0  0  0  0  0
  139.4210   69.9420  223.6550 C   0  0  0  0  0  0  0  0  0  0  0  0
  139.7280   69.5440  224.9290 C   0  0  0  0  0  0  0  0  0  0  0  0
  140.1980   70.3770  226.0030 C   0  0  0  0  0  0  0  0  0  0  0  0
  141.0290   71.4590  225.9150 C   0  0  0  0  0  0  0  0  0  0  0  0
  141.3540   72.2040  227.0570 C   0  0  0  0  0  0  0  0  0  0  0  0
  140.8640   71.8960  228.3000 C   0  0  0  0  0  0  0  0  0  0  0  0
  140.0140   70.7850  228.3550 C   0  0  0  0  0  0  0  0  0  0  0  0
  139.7240   70.0940  227.2470 N   0  0  0  0  0  0  0  0  0  0  0  0
  139.5980   68.1860  225.1920 C   0  0  0  0  0  0  0  0  0  0  0  0
  139.1840   67.2730  224.2470 C   0  0  0  0  0  0  0  0  0  0  0  0
  138.8730   67.6760  222.9680 C   0  0  0  0  0  0  0  0  0  0  0  0
  138.9990   69.0220  222.6910 C   0  0  0  0  0  0  0  0  0  0  0  0
  138.7800   69.6470  221.5240 N   0  0  0  0  0  0  0  0  0  0  0  0
  139.6460   73.2260  220.7300 N   0  0  0  0  0  0  0  0  0  0  0  0
  138.9710   74.4810  220.9610 C   0  0  0  0  0  0  0  0  0  0  0  0
  140.0630   75.4950  221.0360 C   0  0  1  0  0  0  0  0  0  0  0  0
  139.8440   76.6480  220.0840 C   0  0  0  0  0  0  0  0  0  0  0  0
  140.3040   77.8150  220.9010 C   0  0  0  0  0  0  0  0  0  0  0  0
  140.2940   77.5050  222.2760 N   0  0  0  0  0  0  0  0  0  0  0  0
  141.3400   77.9590  223.0950 C   0  0  0  0  0  0  0  0  0  0  0  0
  141.3620   79.3710  223.5470 C   0  0  2  0  0  0  0  0  0  0  0  0
  140.2130   80.2100  223.0800 C   0  0  0  0  0  0  0  0  0  0  0  0
  140.4100   80.8820  221.7540 C   0  0  0  0  0  0  0  0  0  0  0  0
  141.7640   81.4530  221.5340 C   0  0  0  0  0  0  0  0  0  0  0  0
  142.8400   80.8610  222.2250 N   0  0  0  0  0  0  0  0  0  0  0  0
  142.6150   80.1350  223.4040 C   0  0  0  0  0  0  0  0  0  0  0  0
  140.0600   76.1020  222.3970 C   0  0  0  0  0  0  0  0  0  0  0  0
  141.2810   74.7390  220.7270 C   0  0  0  0  0  0  0  0  0  0  0  0
  142.5870   75.2090  220.6020 C   0  0  0  0  0  0  0  0  0  0  0  0
  143.6480   74.3790  220.3050 C   0  0  0  0  0  0  0  0  0  0  0  0
  143.4020   73.0370  220.1250 C   0  0  0  0  0  0  0  0  0  0  0  0
  142.1100   72.5940  220.2510 C   0  0  0  0  0  0  0  0  0  0  0  0
  141.0370   73.4000  220.5470 C   0  0  0  0  0  0  0  0  0  0  0  0
  139.7371   72.0989  223.4794 H   0  0  0  0  0  0  0  0  0  0  0  0
  141.4464   71.7476  224.9390 H   0  0  0  0  0  0  0  0  0  0  0  0
  142.0271   73.0677  226.9521 H   0  0  0  0  0  0  0  0  0  0  0  0
  141.1215   72.4826  229.1942 H   0  0  0  0  0  0  0  0  0  0  0  0
  139.5807   70.4775  229.3181 H   0  0  0  0  0  0  0  0  0  0  0  0
  139.8369   67.8226  226.2024 H   0  0  0  0  0  0  0  0  0  0  0  0
  139.1010   66.2100  224.5175 H   0  0  0  0  0  0  0  0  0  0  0  0
  138.5399   66.9591  222.2031 H   0  0  0  0  0  0  0  0  0  0  0  0
  138.4570   69.2270  220.6160 H   0  0  0  0  0  0  0  0  0  0  0  0
  138.2858   74.7105  220.1316 H   0  0  0  0  0  0  0  0  0  0  0  0
  138.3604   74.4610  221.8757 H   0  0  0  0  0  0  0  0  0  0  0  0
  140.4490   76.5346  219.1724 H   0  0  0  0  0  0  0  0  0  0  0  0
  138.8080   76.7375  219.7253 H   0  0  0  0  0  0  0  0  0  0  0  0
  141.3275   78.0834  220.6003 H   0  0  0  0  0  0  0  0  0  0  0  0
  139.6176   78.6567  220.7268 H   0  0  0  0  0  0  0  0  0  0  0  0
  141.3294   77.3348  224.0007 H   0  0  0  0  0  0  0  0  0  0  0  0
  142.2238   77.8856  222.4442 H   0  0  0  0  0  0  0  0  0  0  0  0
  141.2598   79.1804  224.6255 H   0  0  0  0  0  0  0  0  0  0  0  0
  139.3272   79.5622  223.0048 H   0  0  0  0  0  0  0  0  0  0  0  0
  140.1053   81.0181  223.8185 H   0  0  0  0  0  0  0  0  0  0  0  0
  140.2200   80.1404  220.9641 H   0  0  0  0  0  0  0  0  0  0  0  0
  139.7113   81.7313  221.7331 H   0  0  0  0  0  0  0  0  0  0  0  0
  141.9822   81.3784  220.4584 H   0  0  0  0  0  0  0  0  0  0  0  0
  141.7045   82.4766  221.9323 H   0  0  0  0  0  0  0  0  0  0  0  0
  143.6120   80.5140  221.6390 H   0  0  0  0  0  0  0  0  0  0  0  0
  143.4428   79.4174  223.5031 H   0  0  0  0  0  0  0  0  0  0  0  0
  142.5400   80.9108  224.1803 H   0  0  0  0  0  0  0  0  0  0  0  0
  140.8539   75.6461  223.0068 H   0  0  0  0  0  0  0  0  0  0  0  0
  139.0888   75.9258  222.8825 H   0  0  0  0  0  0  0  0  0  0  0  0
  142.7791   76.2825  220.7456 H   0  0  0  0  0  0  0  0  0  0  0  0
  144.6679   74.7808  220.2140 H   0  0  0  0  0  0  0  0  0  0  0  0
  144.2184   72.3393  219.8868 H   0  0  0  0  0  0  0  0  0  0  0  0
  141.9198   71.5204  220.1052 H   0  0  0  0  0  0  0  0  0  0  0  0
  1  2  2  0
  2  3  1  0
  3  4  2  0
  4  5  1  0
  5  6  2  0
  6  7  1  0
  7  8  2  0
  8  9  1  0
  9 10  2  0
 10 11  1  0
 11 12  2  0
  6 13  1  0
 13 14  2  0
 14 15  1  0
 15 16  2  0
 16 17  1  0
  2 18  1  0
 18 19  1  0
 20 19  1  1
 20 21  1  0
 21 22  1  0
 22 23  1  0
 23 24  1  0
 24 25  1  0
 25 26  1  0
 26 27  1  0
 27 28  1  0
 28 29  1  0
 29 30  1  0
 23 31  1  0
 20 32  1  0
 32 33  2  0
 33 34  1  0
 34 35  2  0
 35 36  1  0
 36 37  2  0
 17  3  1  0
 37 18  1  0
 16  5  1  0
 31 20  1  0
 37 32  1  0
 12  7  1  0
 30 25  1  0
  4 38  1  0
  8 39  1  0
  9 40  1  0
 10 41  1  0
 11 42  1  0
 13 43  1  0
 14 44  1  0
 15 45  1  0
 17 46  1  0
 19 47  1  0
 19 48  1  0
 21 49  1  0
 21 50  1  0
 22 51  1  0
 22 52  1  0
 24 53  1  0
 24 54  1  0
 25 55  1  1
 26 56  1  0
 26 57  1  0
 27 58  1  0
 27 59  1  0
 28 60  1  0
 28 61  1  0
 29 62  1  0
 30 63  1  0
 30 64  1  0
 31 65  1  0
 31 66  1  0
 33 67  1  0
 34 68  1  0
 35 69  1  0
 36 70  1  0
M  END
>  <smiles>  (36) 
O=C(c1cc2c(-c3ccccn3)cccc2[nH]1)N1C[C@]2(CCN(CC3CCCNC3)C2)c2ccccc21

>  <score_type>  (36) 
oracle

>  <origin>  (36) 
autodockgpu

>  <m_score__min__energy>  (36) 
-10.640000000000001

>  <m_primary>  (36) 
energy

>  <rmsd>  (36) 
2.748007586019314

>  <m_score__min__rmsd>  (36) 
2.748007586019314

>  <meeko>  (36) 
{"free_energy": -9.77, "intermolecular_energy": -11.26, "internal_energy": -1.87, "cluster_size": 30, "cluster_id": 1, "rank_in_cluster": 17}

>  <energy>  (36) 
-9.72

>  <cluster_rmsd>  (36) 
0.52

>  <cluster>  (36) 
2

$$$$

     RDKit          3D

 70 76  0  0  1  0  0  0  0  0999 V2000
  142.3350   72.1640  220.4190 O   0  0  0  0  0  0  0  0  0  0  0  0
  141.3220   72.6380  221.0160 C   0  0  0  0  0  0  0  0  0  0  0  0
  140.5970   71.7030  221.8620 C   0  0  0  0  0  0  0  0  0  0  0  0
  140.7120   71.5930  223.2390 C   0  0  0  0  0  0  0  0  0  0  0  0
  139.8650   70.6250  223.6580 C   0  0  0  0  0  0  0  0  0  0  0  0
  139.5830   70.0910  224.8880 C   0  0  0  0  0  0  0  0  0  0  0  0
  140.1750   70.4640  226.1450 C   0  0  0  0  0  0  0  0  0  0  0  0
  140.4540   69.6510  227.2070 C   0  0  0  0  0  0  0  0  0  0  0  0
  141.0850   70.1620  228.3510 C   0  0  0  0  0  0  0  0  0  0  0  0
  141.4510   71.4790  228.4620 C   0  0  0  0  0  0  0  0  0  0  0  0
  141.1530   72.2830  227.3560 C   0  0  0  0  0  0  0  0  0  0  0  0
  140.5500   71.7660  226.2800 N   0  0  0  0  0  0  0  0  0  0  0  0
  138.6500   69.0620  224.9080 C   0  0  0  0  0  0  0  0  0  0  0  0
  138.0280   68.5900  223.7740 C   0  0  0  0  0  0  0  0  0  0  0  0
  138.3100   69.1290  222.5390 C   0  0  0  0  0  0  0  0  0  0  0  0
  139.2360   70.1520  222.5030 C   0  0  0  0  0  0  0  0  0  0  0  0
  139.6900   70.8150  221.4280 N   0  0  0  0  0  0  0  0  0  0  0  0
  140.9490   74.0160  220.8440 N   0  0  0  0  0  0  0  0  0  0  0  0
  139.6720   74.5130  221.2980 C   0  0  0  0  0  0  0  0  0  0  0  0
  139.7220   75.9830  221.0430 C   0  0  1  0  0  0  0  0  0  0  0  0
  138.5430   76.4660  220.2290 C   0  0  0  0  0  0  0  0  0  0  0  0
  138.2350   77.7780  220.8810 C   0  0  0  0  0  0  0  0  0  0  0  0
  138.7720   77.8350  222.1830 N   0  0  0  0  0  0  0  0  0  0  0  0
  139.3570   79.0270  222.6380 C   0  0  0  0  0  0  0  0  0  0  0  0
  140.6310   79.4960  222.0430 C   0  0  2  0  0  0  0  0  0  0  0  0
  141.8730   79.0150  222.7280 C   0  0  0  0  0  0  0  0  0  0  0  0
  142.3580   79.8800  223.8530 C   0  0  0  0  0  0  0  0  0  0  0  0
  142.2790   81.3420  223.6000 C   0  0  0  0  0  0  0  0  0  0  0  0
  141.2980   81.7950  222.6960 N   0  0  0  0  0  0  0  0  0  0  0  0
  140.7730   80.9290  221.7250 C   0  0  0  0  0  0  0  0  0  0  0  0
  139.6200   76.6990  222.3460 C   0  0  0  0  0  0  0  0  0  0  0  0
  140.9990   76.1880  220.3520 C   0  0  0  0  0  0  0  0  0  0  0  0
  141.5250   77.3670  219.8300 C   0  0  0  0  0  0  0  0  0  0  0  0
  142.7490   77.4170  219.1980 C   0  0  0  0  0  0  0  0  0  0  0  0
  143.4760   76.2550  219.0810 C   0  0  0  0  0  0  0  0  0  0  0  0
  142.9420   75.1030  219.6000 C   0  0  0  0  0  0  0  0  0  0  0  0
  141.7250   75.0280  220.2340 C   0  0  0  0  0  0  0  0  0  0  0  0
  141.3772   72.1898  223.8803 H   0  0  0  0  0  0  0  0  0  0  0  0
  140.1814   68.5862  227.1646 H   0  0  0  0  0  0  0  0  0  0  0  0
  141.2939   69.4815  229.1896 H   0  0  0  0  0  0  0  0  0  0  0  0
  141.9457   71.8768  229.3603 H   0  0  0  0  0  0  0  0  0  0  0  0
  141.4173   73.3507  227.3718 H   0  0  0  0  0  0  0  0  0  0  0  0
  138.3963   68.6029  225.8749 H   0  0  0  0  0  0  0  0  0  0  0  0
  137.2968   67.7723  223.8558 H   0  0  0  0  0  0  0  0  0  0  0  0
  137.8208   68.7620  221.6247 H   0  0  0  0  0  0  0  0  0  0  0  0
  139.4090   70.6870  220.4230 H   0  0  0  0  0  0  0  0  0  0  0  0
  138.8517   74.0490  220.7306 H   0  0  0  0  0  0  0  0  0  0  0  0
  139.4895   74.2815  222.3578 H   0  0  0  0  0  0  0  0  0  0  0  0
  138.8144   76.5987  219.1713 H   0  0  0  0  0  0  0  0  0  0  0  0
  137.6947   75.7658  220.2162 H   0  0  0  0  0  0  0  0  0  0  0  0
  138.6680   78.5896  220.2778 H   0  0  0  0  0  0  0  0  0  0  0  0
  137.1425   77.8874  220.9481 H   0  0  0  0  0  0  0  0  0  0  0  0
  138.6178   79.8258  222.4784 H   0  0  0  0  0  0  0  0  0  0  0  0
  139.6309   78.7960  223.6780 H   0  0  0  0  0  0  0  0  0  0  0  0
  140.5312   78.9910  221.0709 H   0  0  0  0  0  0  0  0  0  0  0  0
  141.6718   78.0120  223.1324 H   0  0  0  0  0  0  0  0  0  0  0  0
  142.6669   79.0310  221.9668 H   0  0  0  0  0  0  0  0  0  0  0  0
  141.7518   79.6544  224.7427 H   0  0  0  0  0  0  0  0  0  0  0  0
  143.4254   79.6475  223.9814 H   0  0  0  0  0  0  0  0  0  0  0  0
  142.0888   81.8334  224.5656 H   0  0  0  0  0  0  0  0  0  0  0  0
  143.2372   81.5953  223.1228 H   0  0  0  0  0  0  0  0  0  0  0  0
  140.6350   82.4900  223.0650 H   0  0  0  0  0  0  0  0  0  0  0  0
  139.7706   81.3026  221.4688 H   0  0  0  0  0  0  0  0  0  0  0  0
  141.5257   80.9466  220.9230 H   0  0  0  0  0  0  0  0  0  0  0  0
  140.6198   77.0273  222.6664 H   0  0  0  0  0  0  0  0  0  0  0  0
  139.2007   76.0269  223.1092 H   0  0  0  0  0  0  0  0  0  0  0  0
  140.9411   78.2943  219.9257 H   0  0  0  0  0  0  0  0  0  0  0  0
  143.1359   78.3651  218.7961 H   0  0  0  0  0  0  0  0  0  0  0  0
  144.4579   76.2498  218.5852 H   0  0  0  0  0  0  0  0  0  0  0  0
  143.5273   74.1768  219.5022 H   0  0  0  0  0  0  0  0  0  0  0  0
  1  2  2  0
  2  3  1  0
  3  4  2  0
  4  5  1  0
  5  6  2  0
  6  7  1  0
  7  8  2  0
  8  9  1  0
  9 10  2  0
 10 11  1  0
 11 12  2  0
  6 13  1  0
 13 14  2  0
 14 15  1  0
 15 16  2  0
 16 17  1  0
  2 18  1  0
 18 19  1  0
 20 19  1  1
 20 21  1  0
 21 22  1  0
 22 23  1  0
 23 24  1  0
 24 25  1  0
 25 26  1  0
 26 27  1  0
 27 28  1  0
 28 29  1  0
 29 30  1  0
 23 31  1  0
 20 32  1  0
 32 33  2  0
 33 34  1  0
 34 35  2  0
 35 36  1  0
 36 37  2  0
 17  3  1  0
 37 18  1  0
 16  5  1  0
 31 20  1  0
 37 32  1  0
 12  7  1  0
 30 25  1  0
  4 38  1  0
  8 39  1  0
  9 40  1  0
 10 41  1  0
 11 42  1  0
 13 43  1  0
 14 44  1  0
 15 45  1  0
 17 46  1  0
 19 47  1  0
 19 48  1  0
 21 49  1  0
 21 50  1  0
 22 51  1  0
 22 52  1  0
 24 53  1  0
 24 54  1  0
 25 55  1  6
 26 56  1  0
 26 57  1  0
 27 58  1  0
 27 59  1  0
 28 60  1  0
 28 61  1  0
 29 62  1  0
 30 63  1  0
 30 64  1  0
 31 65  1  0
 31 66  1  0
 33 67  1  0
 34 68  1  0
 35 69  1  0
 36 70  1  0
M  END
>  <smiles>  (37) 
O=C(c1cc2c(-c3ccccn3)cccc2[nH]1)N1C[C@]2(CCN(CC3CCCNC3)C2)c2ccccc21

>  <score_type>  (37) 
oracle

>  <origin>  (37) 
autodockgpu

>  <m_score__min__energy>  (37) 
-10.640000000000001

>  <m_primary>  (37) 
energy

>  <rmsd>  (37) 
3.0191694306700785

>  <m_score__min__rmsd>  (37) 
3.0191694306700785

>  <meeko>  (37) 
{"free_energy": -9.82, "intermolecular_energy": -11.32, "internal_energy": -1.88, "cluster_size": 30, "cluster_id": 1, "rank_in_cluster": 15}

>  <energy>  (37) 
-9.71

>  <cluster_rmsd>  (37) 
0.52

>  <cluster>  (37) 
2

$$$$

     RDKit          3D

 70 76  0  0  1  0  0  0  0  0999 V2000
  141.0270   73.4220  219.9100 O   0  0  0  0  0  0  0  0  0  0  0  0
  140.4990   73.6320  221.0430 C   0  0  0  0  0  0  0  0  0  0  0  0
  140.1110   72.4440  221.7860 C   0  0  0  0  0  0  0  0  0  0  0  0
  140.2720   72.2470  223.1490 C   0  0  0  0  0  0  0  0  0  0  0  0
  139.7730   71.0290  223.4620 C   0  0  0  0  0  0  0  0  0  0  0  0
  139.6860   70.3210  224.6320 C   0  0  0  0  0  0  0  0  0  0  0  0
  140.1480   70.7410  225.9280 C   0  0  0  0  0  0  0  0  0  0  0  0
  139.8970   70.1490  227.1340 C   0  0  0  0  0  0  0  0  0  0  0  0
  140.4680   70.6540  228.3100 C   0  0  0  0  0  0  0  0  0  0  0  0
  141.2950   71.7470  228.3150 C   0  0  0  0  0  0  0  0  0  0  0  0
  141.5350   72.3280  227.0640 C   0  0  0  0  0  0  0  0  0  0  0  0
  140.9740   71.8230  225.9600 N   0  0  0  0  0  0  0  0  0  0  0  0
  139.1200   69.0560  224.5410 C   0  0  0  0  0  0  0  0  0  0  0  0
  138.6620   68.5220  223.3570 C   0  0  0  0  0  0  0  0  0  0  0  0
  138.7460   69.2350  222.1820 C   0  0  0  0  0  0  0  0  0  0  0  0
  139.3080   70.4930  222.2580 C   0  0  0  0  0  0  0  0  0  0  0  0
  139.5200   71.3620  221.2560 N   0  0  0  0  0  0  0  0  0  0  0  0
  140.3140   74.9730  221.5260 N   0  0  0  0  0  0  0  0  0  0  0  0
  141.4180   75.8970  221.6280 C   0  0  0  0  0  0  0  0  0  0  0  0
  140.7990   77.1880  222.0500 C   0  0  1  0  0  0  0  0  0  0  0  0
  141.4510   77.7610  223.2880 C   0  0  0  0  0  0  0  0  0  0  0  0
  141.4700   79.2250  222.9770 C   0  0  0  0  0  0  0  0  0  0  0  0
  141.3520   79.4500  221.5900 N   0  0  0  0  0  0  0  0  0  0  0  0
  140.5560   80.5090  221.1260 C   0  0  0  0  0  0  0  0  0  0  0  0
  140.0940   81.5520  222.0730 C   0  0  2  0  0  0  0  0  0  0  0  0
  139.0560   81.1090  223.0560 C   0  0  0  0  0  0  0  0  0  0  0  0
  137.6360   81.2420  222.5900 C   0  0  0  0  0  0  0  0  0  0  0  0
  137.3340   82.4900  221.8440 C   0  0  0  0  0  0  0  0  0  0  0  0
  138.3940   83.1090  221.1530 N   0  0  0  0  0  0  0  0  0  0  0  0
  139.7240   82.8750  221.5350 C   0  0  0  0  0  0  0  0  0  0  0  0
  141.0270   78.2010  220.9810 C   0  0  0  0  0  0  0  0  0  0  0  0
  139.3860   76.8590  222.2640 C   0  0  0  0  0  0  0  0  0  0  0  0
  138.3620   77.6850  222.7230 C   0  0  0  0  0  0  0  0  0  0  0  0
  137.0660   77.2420  222.8790 C   0  0  0  0  0  0  0  0  0  0  0  0
  136.7780   75.9330  222.5680 C   0  0  0  0  0  0  0  0  0  0  0  0
  137.7990   75.1350  222.1190 C   0  0  0  0  0  0  0  0  0  0  0  0
  139.0970   75.5530  221.9550 C   0  0  0  0  0  0  0  0  0  0  0  0
  140.7269   72.9582  223.8541 H   0  0  0  0  0  0  0  0  0  0  0  0
  139.2405   69.2677  227.1821 H   0  0  0  0  0  0  0  0  0  0  0  0
  140.2442   70.1547  229.2643 H   0  0  0  0  0  0  0  0  0  0  0  0
  141.7404   72.1414  229.2402 H   0  0  0  0  0  0  0  0  0  0  0  0
  142.1909   73.2078  226.9885 H   0  0  0  0  0  0  0  0  0  0  0  0
  139.0335   68.4528  225.4568 H   0  0  0  0  0  0  0  0  0  0  0  0
  138.2236   67.5132  223.3499 H   0  0  0  0  0  0  0  0  0  0  0  0
  138.3829   68.8220  221.2294 H   0  0  0  0  0  0  0  0  0  0  0  0
  139.2810   71.2470  220.2390 H   0  0  0  0  0  0  0  0  0  0  0  0
  142.1438   75.5518  222.3791 H   0  0  0  0  0  0  0  0  0  0  0  0
  141.9685   75.9914  220.6804 H   0  0  0  0  0  0  0  0  0  0  0  0
  140.8546   77.5508  224.1881 H   0  0  0  0  0  0  0  0  0  0  0  0
  142.4439   77.3393  223.5033 H   0  0  0  0  0  0  0  0  0  0  0  0
  140.6300   79.7130  223.4930 H   0  0  0  0  0  0  0  0  0  0  0  0
  142.4284   79.6428  223.3189 H   0  0  0  0  0  0  0  0  0  0  0  0
  141.1335   81.0225  220.3432 H   0  0  0  0  0  0  0  0  0  0  0  0
  139.6240   80.0123  220.8183 H   0  0  0  0  0  0  0  0  0  0  0  0
  141.0491   81.7071  222.5962 H   0  0  0  0  0  0  0  0  0  0  0  0
  139.2394   80.0500  223.2903 H   0  0  0  0  0  0  0  0  0  0  0  0
  139.1553   81.7754  223.9255 H   0  0  0  0  0  0  0  0  0  0  0  0
  137.4113   80.3889  221.9329 H   0  0  0  0  0  0  0  0  0  0  0  0
  137.0160   81.2693  223.4982 H   0  0  0  0  0  0  0  0  0  0  0  0
  136.5544   82.2516  221.1055 H   0  0  0  0  0  0  0  0  0  0  0  0
  137.0438   83.2153  222.6184 H   0  0  0  0  0  0  0  0  0  0  0  0
  138.2490   83.2520  220.1450 H   0  0  0  0  0  0  0  0  0  0  0  0
  140.3491   83.0474  220.6465 H   0  0  0  0  0  0  0  0  0  0  0  0
  139.8768   83.5563  222.3850 H   0  0  0  0  0  0  0  0  0  0  0  0
  140.1149   78.3113  220.3761 H   0  0  0  0  0  0  0  0  0  0  0  0
  141.8529   77.8772  220.3306 H   0  0  0  0  0  0  0  0  0  0  0  0
  138.5968   78.7308  222.9704 H   0  0  0  0  0  0  0  0  0  0  0  0
  136.2800   77.9196  223.2438 H   0  0  0  0  0  0  0  0  0  0  0  0
  135.7573   75.5376  222.6765 H   0  0  0  0  0  0  0  0  0  0  0  0
  137.5623   74.0892  221.8736 H   0  0  0  0  0  0  0  0  0  0  0  0
  1  2  2  0
  2  3  1  0
  3  4  2  0
  4  5  1  0
  5  6  2  0
  6  7  1  0
  7  8  2  0
  8  9  1  0
  9 10  2  0
 10 11  1  0
 11 12  2  0
  6 13  1  0
 13 14  2  0
 14 15  1  0
 15 16  2  0
 16 17  1  0
  2 18  1  0
 18 19  1  0
 20 19  1  6
 20 21  1  0
 21 22  1  0
 22 23  1  0
 23 24  1  0
 24 25  1  0
 25 26  1  0
 26 27  1  0
 27 28  1  0
 28 29  1  0
 29 30  1  0
 23 31  1  0
 20 32  1  0
 32 33  2  0
 33 34  1  0
 34 35  2  0
 35 36  1  0
 36 37  2  0
 17  3  1  0
 37 18  1  0
 16  5  1  0
 31 20  1  0
 37 32  1  0
 12  7  1  0
 30 25  1  0
  4 38  1  0
  8 39  1  0
  9 40  1  0
 10 41  1  0
 11 42  1  0
 13 43  1  0
 14 44  1  0
 15 45  1  0
 17 46  1  0
 19 47  1  0
 19 48  1  0
 21 49  1  0
 21 50  1  0
 22 51  1  0
 22 52  1  0
 24 53  1  0
 24 54  1  0
 25 55  1  1
 26 56  1  0
 26 57  1  0
 27 58  1  0
 27 59  1  0
 28 60  1  0
 28 61  1  0
 29 62  1  0
 30 63  1  0
 30 64  1  0
 31 65  1  0
 31 66  1  0
 33 67  1  0
 34 68  1  0
 35 69  1  0
 36 70  1  0
M  END
>  <smiles>  (38) 
O=C(c1cc2c(-c3ccccn3)cccc2[nH]1)N1C[C@]2(CCN(CC3CCCNC3)C2)c2ccccc21

>  <score_type>  (38) 
oracle

>  <origin>  (38) 
autodockgpu

>  <m_score__min__energy>  (38) 
-10.640000000000001

>  <m_primary>  (38) 
energy

>  <rmsd>  (38) 
3.042865678951518

>  <m_score__min__rmsd>  (38) 
3.042865678951518

>  <meeko>  (38) 
{"free_energy": -9.13, "intermolecular_energy": -10.62, "internal_energy": -1.95, "cluster_size": 6, "cluster_id": 5, "rank_in_cluster": 4}

>  <energy>  (38) 
-9.64

>  <cluster_rmsd>  (38) 
0.0

>  <cluster>  (38) 
3

$$$$

     RDKit          3D

 70 76  0  0  1  0  0  0  0  0999 V2000
  139.1490   72.5660  219.5960 O   0  0  0  0  0  0  0  0  0  0  0  0
  139.2070   72.8290  220.8350 C   0  0  0  0  0  0  0  0  0  0  0  0
  139.1980   71.6780  221.7230 C   0  0  0  0  0  0  0  0  0  0  0  0
  139.5870   71.6720  223.0540 C   0  0  0  0  0  0  0  0  0  0  0  0
  139.4160   70.4210  223.5390 C   0  0  0  0  0  0  0  0  0  0  0  0
  139.6520   69.8460  224.7600 C   0  0  0  0  0  0  0  0  0  0  0  0
  140.1870   70.4940  225.9270 C   0  0  0  0  0  0  0  0  0  0  0  0
  141.0320   71.5680  225.9700 C   0  0  0  0  0  0  0  0  0  0  0  0
  141.4260   72.1190  227.1980 C   0  0  0  0  0  0  0  0  0  0  0  0
  140.9900   71.6220  228.3990 C   0  0  0  0  0  0  0  0  0  0  0  0
  140.1240   70.5250  228.3210 C   0  0  0  0  0  0  0  0  0  0  0  0
  139.7690   70.0210  227.1330 N   0  0  0  0  0  0  0  0  0  0  0  0
  139.3700   68.4900  224.8620 C   0  0  0  0  0  0  0  0  0  0  0  0
  138.8790   67.7440  223.8140 C   0  0  0  0  0  0  0  0  0  0  0  0
  138.6400   68.3230  222.5880 C   0  0  0  0  0  0  0  0  0  0  0  0
  138.9170   69.6700  222.4720 C   0  0  0  0  0  0  0  0  0  0  0  0
  138.7900   70.4450  221.3830 N   0  0  0  0  0  0  0  0  0  0  0  0
  139.2760   74.1900  221.2910 N   0  0  0  0  0  0  0  0  0  0  0  0
  140.4870   74.9670  221.1650 C   0  0  0  0  0  0  0  0  0  0  0  0
  140.1160   76.3330  221.6380 C   0  0  1  0  0  0  0  0  0  0  0  0
  141.0410   76.8370  222.7220 C   0  0  0  0  0  0  0  0  0  0  0  0
  141.1850   78.2820  222.3570 C   0  0  0  0  0  0  0  0  0  0  0  0
  140.8530   78.4980  221.0040 N   0  0  0  0  0  0  0  0  0  0  0  0
  140.1260   79.6430  220.6440 C   0  0  0  0  0  0  0  0  0  0  0  0
  140.3850   80.9270  221.3350 C   0  0  2  0  0  0  0  0  0  0  0  0
  141.8210   81.3510  221.3800 C   0  0  0  0  0  0  0  0  0  0  0  0
  142.6030   80.8380  222.5520 C   0  0  0  0  0  0  0  0  0  0  0  0
  141.8780   80.8600  223.8480 C   0  0  0  0  0  0  0  0  0  0  0  0
  140.4720   80.7760  223.8100 N   0  0  0  0  0  0  0  0  0  0  0  0
  139.7690   81.1520  222.6560 C   0  0  0  0  0  0  0  0  0  0  0  0
  140.2750   77.2910  220.5080 C   0  0  0  0  0  0  0  0  0  0  0  0
  138.7330   76.1910  222.1050 C   0  0  0  0  0  0  0  0  0  0  0  0
  137.9160   77.1490  222.7020 C   0  0  0  0  0  0  0  0  0  0  0  0
  136.6230   76.8780  223.0970 C   0  0  0  0  0  0  0  0  0  0  0  0
  136.1250   75.6110  222.8900 C   0  0  0  0  0  0  0  0  0  0  0  0
  136.9440   74.6820  222.3020 C   0  0  0  0  0  0  0  0  0  0  0  0
  138.2350   74.9280  221.9010 C   0  0  0  0  0  0  0  0  0  0  0  0
  139.9688   72.5357  223.6181 H   0  0  0  0  0  0  0  0  0  0  0  0
  141.4065   72.0042  225.0322 H   0  0  0  0  0  0  0  0  0  0  0  0
  142.1094   72.9809  227.1975 H   0  0  0  0  0  0  0  0  0  0  0  0
  141.3003   72.0567  229.3607 H   0  0  0  0  0  0  0  0  0  0  0  0
  139.7318   70.0732  229.2441 H   0  0  0  0  0  0  0  0  0  0  0  0
  139.5471   67.9885  225.8249 H   0  0  0  0  0  0  0  0  0  0  0  0
  138.6753   66.6727  223.9580 H   0  0  0  0  0  0  0  0  0  0  0  0
  138.2472   67.7401  221.7418 H   0  0  0  0  0  0  0  0  0  0  0  0
  138.4420   70.1700  220.4300 H   0  0  0  0  0  0  0  0  0  0  0  0
  141.2857   74.5437  221.7919 H   0  0  0  0  0  0  0  0  0  0  0  0
  140.8692   74.9749  220.1336 H   0  0  0  0  0  0  0  0  0  0  0  0
  140.5911   76.7189  223.7188 H   0  0  0  0  0  0  0  0  0  0  0  0
  141.9967   76.2952  222.7785 H   0  0  0  0  0  0  0  0  0  0  0  0
  140.5157   78.8815  222.9915 H   0  0  0  0  0  0  0  0  0  0  0  0
  142.2326   78.5794  222.5120 H   0  0  0  0  0  0  0  0  0  0  0  0
  140.3115   79.8144  219.5734 H   0  0  0  0  0  0  0  0  0  0  0  0
  139.0966   79.3958  220.9428 H   0  0  0  0  0  0  0  0  0  0  0  0
  139.8323   81.5783  220.6419 H   0  0  0  0  0  0  0  0  0  0  0  0
  142.3101   80.9932  220.4620 H   0  0  0  0  0  0  0  0  0  0  0  0
  141.8123   82.4468  221.4757 H   0  0  0  0  0  0  0  0  0  0  0  0
  142.8923   79.7980  222.3404 H   0  0  0  0  0  0  0  0  0  0  0  0
  143.4621   81.5150  222.6686 H   0  0  0  0  0  0  0  0  0  0  0  0
  142.2426   80.0101  224.4436 H   0  0  0  0  0  0  0  0  0  0  0  0
  142.0873   81.8546  224.2686 H   0  0  0  0  0  0  0  0  0  0  0  0
  140.0540   80.0000  224.3420 H   0  0  0  0  0  0  0  0  0  0  0  0
  138.8171   80.6008  222.6652 H   0  0  0  0  0  0  0  0  0  0  0  0
  139.7054   82.2475  222.7327 H   0  0  0  0  0  0  0  0  0  0  0  0
  139.2913   77.5071  220.0657 H   0  0  0  0  0  0  0  0  0  0  0  0
  140.9274   76.8541  219.7376 H   0  0  0  0  0  0  0  0  0  0  0  0
  138.3179   78.1600  222.8644 H   0  0  0  0  0  0  0  0  0  0  0  0
  136.0035   77.6562  223.5667 H   0  0  0  0  0  0  0  0  0  0  0  0
  135.0985   75.3515  223.1882 H   0  0  0  0  0  0  0  0  0  0  0  0
  136.5404   73.6716  222.1403 H   0  0  0  0  0  0  0  0  0  0  0  0
  1  2  2  0
  2  3  1  0
  3  4  2  0
  4  5  1  0
  5  6  2  0
  6  7  1  0
  7  8  2  0
  8  9  1  0
  9 10  2  0
 10 11  1  0
 11 12  2  0
  6 13  1  0
 13 14  2  0
 14 15  1  0
 15 16  2  0
 16 17  1  0
  2 18  1  0
 18 19  1  0
 20 19  1  6
 20 21  1  0
 21 22  1  0
 22 23  1  0
 23 24  1  0
 24 25  1  0
 25 26  1  0
 26 27  1  0
 27 28  1  0
 28 29  1  0
 29 30  1  0
 23 31  1  0
 20 32  1  0
 32 33  2  0
 33 34  1  0
 34 35  2  0
 35 36  1  0
 36 37  2  0
 17  3  1  0
 37 18  1  0
 16  5  1  0
 31 20  1  0
 37 32  1  0
 12  7  1  0
 30 25  1  0
  4 38  1  0
  8 39  1  0
  9 40  1  0
 10 41  1  0
 11 42  1  0
 13 43  1  0
 14 44  1  0
 15 45  1  0
 17 46  1  0
 19 47  1  0
 19 48  1  0
 21 49  1  0
 21 50  1  0
 22 51  1  0
 22 52  1  0
 24 53  1  0
 24 54  1  0
 25 55  1  6
 26 56  1  0
 26 57  1  0
 27 58  1  0
 27 59  1  0
 28 60  1  0
 28 61  1  0
 29 62  1  0
 30 63  1  0
 30 64  1  0
 31 65  1  0
 31 66  1  0
 33 67  1  0
 34 68  1  0
 35 69  1  0
 36 70  1  0
M  END
>  <smiles>  (39) 
O=C(c1cc2c(-c3ccccn3)cccc2[nH]1)N1C[C@]2(CCN(CC3CCCNC3)C2)c2ccccc21

>  <score_type>  (39) 
oracle

>  <origin>  (39) 
autodockgpu

>  <m_score__min__energy>  (39) 
-10.640000000000001

>  <m_primary>  (39) 
energy

>  <rmsd>  (39) 
2.881732598408164

>  <m_score__min__rmsd>  (39) 
2.881732598408164

>  <meeko>  (39) 
{"free_energy": -9.41, "intermolecular_energy": -10.9, "internal_energy": -1.69, "cluster_size": 6, "cluster_id": 5, "rank_in_cluster": 1}

>  <energy>  (39) 
-9.43

>  <cluster_rmsd>  (39) 
0.0

>  <cluster>  (39) 
4

$$$$

     RDKit          3D

 70 76  0  0  1  0  0  0  0  0999 V2000
  139.7220   67.3020  219.1420 O   0  0  0  0  0  0  0  0  0  0  0  0
  140.3780   68.0810  219.8960 C   0  0  0  0  0  0  0  0  0  0  0  0
  141.7620   68.3090  219.5120 C   0  0  0  0  0  0  0  0  0  0  0  0
  142.4890   69.4690  219.7340 C   0  0  0  0  0  0  0  0  0  0  0  0
  143.7380   69.2850  219.2490 C   0  0  0  0  0  0  0  0  0  0  0  0
  144.8470   70.0860  219.1810 C   0  0  0  0  0  0  0  0  0  0  0  0
  144.9610   71.4400  219.6510 C   0  0  0  0  0  0  0  0  0  0  0  0
  144.0820   72.1230  220.4440 C   0  0  0  0  0  0  0  0  0  0  0  0
  144.3640   73.4320  220.8620 C   0  0  0  0  0  0  0  0  0  0  0  0
  145.5160   74.0840  220.5060 C   0  0  0  0  0  0  0  0  0  0  0  0
  146.3970   73.3560  219.6960 C   0  0  0  0  0  0  0  0  0  0  0  0
  146.0970   72.1100  219.3140 N   0  0  0  0  0  0  0  0  0  0  0  0
  145.9630   69.5340  218.5640 C   0  0  0  0  0  0  0  0  0  0  0  0
  145.9810   68.2580  218.0450 C   0  0  0  0  0  0  0  0  0  0  0  0
  144.8670   67.4530  218.1170 C   0  0  0  0  0  0  0  0  0  0  0  0
  143.7500   67.9890  218.7260 C   0  0  0  0  0  0  0  0  0  0  0  0
  142.5480   67.4140  218.8940 N   0  0  0  0  0  0  0  0  0  0  0  0
  139.7590   68.6810  221.0470 N   0  0  0  0  0  0  0  0  0  0  0  0
  138.9860   67.8980  221.9800 C   0  0  0  0  0  0  0  0  0  0  0  0
  138.6220   68.8500  223.0700 C   0  0  1  0  0  0  0  0  0  0  0  0
  137.1340   68.8800  223.3350 C   0  0  0  0  0  0  0  0  0  0  0  0
  137.0890   68.9900  224.8280 C   0  0  0  0  0  0  0  0  0  0  0  0
  138.3020   68.5620  225.4040 N   0  0  0  0  0  0  0  0  0  0  0  0
  138.8380   69.2650  226.4940 C   0  0  0  0  0  0  0  0  0  0  0  0
  140.2980   69.5070  226.5690 C   0  0  2  0  0  0  0  0  0  0  0  0
  140.8230   69.8340  227.9320 C   0  0  0  0  0  0  0  0  0  0  0  0
  140.8060   71.2910  228.2920 C   0  0  0  0  0  0  0  0  0  0  0  0
  141.2130   72.2120  227.2000 C   0  0  0  0  0  0  0  0  0  0  0  0
  141.0110   71.7800  225.8740 N   0  0  0  0  0  0  0  0  0  0  0  0
  140.9120   70.4120  225.5790 C   0  0  0  0  0  0  0  0  0  0  0  0
  139.2400   68.3810  224.3420 C   0  0  0  0  0  0  0  0  0  0  0  0
  139.1320   70.1440  222.6050 C   0  0  0  0  0  0  0  0  0  0  0  0
  139.0140   71.3930  223.2110 C   0  0  0  0  0  0  0  0  0  0  0  0
  139.5470   72.5380  222.6580 C   0  0  0  0  0  0  0  0  0  0  0  0
  140.2210   72.4390  221.4620 C   0  0  0  0  0  0  0  0  0  0  0  0
  140.3260   71.2010  220.8810 C   0  0  0  0  0  0  0  0  0  0  0  0
  139.8040   70.0460  221.4110 C   0  0  0  0  0  0  0  0  0  0  0  0
  142.1143   70.3815  220.2207 H   0  0  0  0  0  0  0  0  0  0  0  0
  143.1441   71.6414  220.7576 H   0  0  0  0  0  0  0  0  0  0  0  0
  143.6344   73.9541  221.4984 H   0  0  0  0  0  0  0  0  0  0  0  0
  145.7342   75.1108  220.8346 H   0  0  0  0  0  0  0  0  0  0  0  0
  147.3435   73.8130  219.3714 H   0  0  0  0  0  0  0  0  0  0  0  0
  146.8748   70.1445  218.4863 H   0  0  0  0  0  0  0  0  0  0  0  0
  146.8963   67.8782  217.5675 H   0  0  0  0  0  0  0  0  0  0  0  0
  144.8667   66.4315  217.7089 H   0  0  0  0  0  0  0  0  0  0  0  0
  142.2480   66.4490  218.6080 H   0  0  0  0  0  0  0  0  0  0  0  0
  138.0821   67.5001  221.4957 H   0  0  0  0  0  0  0  0  0  0  0  0
  139.5472   67.0306  222.3577 H   0  0  0  0  0  0  0  0  0  0  0  0
  136.6595   69.7487  222.8552 H   0  0  0  0  0  0  0  0  0  0  0  0
  136.5937   68.0085  222.9368 H   0  0  0  0  0  0  0  0  0  0  0  0
  136.9095   70.0391  225.1059 H   0  0  0  0  0  0  0  0  0  0  0  0
  136.2782   68.3475  225.2019 H   0  0  0  0  0  0  0  0  0  0  0  0
  138.3507   70.2511  226.5075 H   0  0  0  0  0  0  0  0  0  0  0  0
  138.6464   68.5972  227.3469 H   0  0  0  0  0  0  0  0  0  0  0  0
  140.6277   68.4971  226.2837 H   0  0  0  0  0  0  0  0  0  0  0  0
  140.2119   69.2941  228.6703 H   0  0  0  0  0  0  0  0  0  0  0  0
  141.8809   69.5325  227.9315 H   0  0  0  0  0  0  0  0  0  0  0  0
  139.7829   71.5551  228.5976 H   0  0  0  0  0  0  0  0  0  0  0  0
  141.5479   71.4183  229.0941 H   0  0  0  0  0  0  0  0  0  0  0  0
  140.6493   73.1475  227.3310 H   0  0  0  0  0  0  0  0  0  0  0  0
  142.3046   72.3014  227.3018 H   0  0  0  0  0  0  0  0  0  0  0  0
  140.4330   72.3960  225.2850 H   0  0  0  0  0  0  0  0  0  0  0  0
  140.3233   70.3240  224.6540 H   0  0  0  0  0  0  0  0  0  0  0  0
  141.9587   70.0773  225.5309 H   0  0  0  0  0  0  0  0  0  0  0  0
  140.1493   68.9647  224.5484 H   0  0  0  0  0  0  0  0  0  0  0  0
  139.5079   67.3175  224.2573 H   0  0  0  0  0  0  0  0  0  0  0  0
  138.4751   71.4685  224.1670 H   0  0  0  0  0  0  0  0  0  0  0  0
  139.4360   73.5096  223.1617 H   0  0  0  0  0  0  0  0  0  0  0  0
  140.6626   73.3269  220.9860 H   0  0  0  0  0  0  0  0  0  0  0  0
  140.8652   71.1279  219.9250 H   0  0  0  0  0  0  0  0  0  0  0  0
  1  2  2  0
  2  3  1  0
  3  4  2  0
  4  5  1  0
  5  6  2  0
  6  7  1  0
  7  8  2  0
  8  9  1  0
  9 10  2  0
 10 11  1  0
 11 12  2  0
  6 13  1  0
 13 14  2  0
 14 15  1  0
 15 16  2  0
 16 17  1  0
  2 18  1  0
 18 19  1  0
 20 19  1  6
 20 21  1  0
 21 22  1  0
 22 23  1  0
 23 24  1  0
 24 25  1  0
 25 26  1  0
 26 27  1  0
 27 28  1  0
 28 29  1  0
 29 30  1  0
 23 31  1  0
 20 32  1  0
 32 33  2  0
 33 34  1  0
 34 35  2  0
 35 36  1  0
 36 37  2  0
 17  3  1  0
 37 18  1  0
 16  5  1  0
 31 20  1  0
 37 32  1  0
 12  7  1  0
 30 25  1  0
  4 38  1  0
  8 39  1  0
  9 40  1  0
 10 41  1  0
 11 42  1  0
 13 43  1  0
 14 44  1  0
 15 45  1  0
 17 46  1  0
 19 47  1  0
 19 48  1  0
 21 49  1  0
 21 50  1  0
 22 51  1  0
 22 52  1  0
 24 53  1  0
 24 54  1  0
 25 55  1  6
 26 56  1  0
 26 57  1  0
 27 58  1  0
 27 59  1  0
 28 60  1  0
 28 61  1  0
 29 62  1  0
 30 63  1  0
 30 64  1  0
 31 65  1  0
 31 66  1  0
 33 67  1  0
 34 68  1  0
 35 69  1  0
 36 70  1  0
M  END
>  <smiles>  (40) 
O=C(c1cc2c(-c3ccccn3)cccc2[nH]1)N1C[C@]2(CCN(CC3CCCNC3)C2)c2ccccc21

>  <score_type>  (40) 
oracle

>  <origin>  (40) 
autodockgpu

>  <m_score__min__energy>  (40) 
-10.640000000000001

>  <m_primary>  (40) 
energy

>  <rmsd>  (40) 
9.697982091298705

>  <m_score__min__rmsd>  (40) 
9.697982091298705

>  <meeko>  (40) 
{"free_energy": -9.43, "intermolecular_energy": -10.93, "internal_energy": -2.03, "cluster_size": 2, "cluster_id": 4, "rank_in_cluster": 1}

>  <energy>  (40) 
-9.37

>  <cluster_rmsd>  (40) 
0.17

>  <cluster>  (40) 
4

$$$$

     RDKit          3D

 70 76  0  0  1  0  0  0  0  0999 V2000
  140.9930   73.3870  219.9130 O   0  0  0  0  0  0  0  0  0  0  0  0
  140.4760   73.6320  221.0450 C   0  0  0  0  0  0  0  0  0  0  0  0
  140.0830   72.4670  221.8210 C   0  0  0  0  0  0  0  0  0  0  0  0
  140.2930   72.2850  223.1800 C   0  0  0  0  0  0  0  0  0  0  0  0
  139.7700   71.0880  223.5320 C   0  0  0  0  0  0  0  0  0  0  0  0
  139.7100   70.4000  224.7150 C   0  0  0  0  0  0  0  0  0  0  0  0
  140.2370   70.8240  225.9850 C   0  0  0  0  0  0  0  0  0  0  0  0
  141.0750   71.8750  226.2300 C   0  0  0  0  0  0  0  0  0  0  0  0
  141.4600   72.1920  227.5400 C   0  0  0  0  0  0  0  0  0  0  0  0
  141.0230   71.4780  228.6270 C   0  0  0  0  0  0  0  0  0  0  0  0
  140.1640   70.4100  228.3420 C   0  0  0  0  0  0  0  0  0  0  0  0
  139.8170   70.1330  227.0800 N   0  0  0  0  0  0  0  0  0  0  0  0
  139.1020   69.1520  224.6660 C   0  0  0  0  0  0  0  0  0  0  0  0
  138.5800   68.6150  223.5110 C   0  0  0  0  0  0  0  0  0  0  0  0
  138.6390   69.3080  222.3230 C   0  0  0  0  0  0  0  0  0  0  0  0
  139.2410   70.5500  222.3560 C   0  0  0  0  0  0  0  0  0  0  0  0
  139.4380   71.3970  221.3330 N   0  0  0  0  0  0  0  0  0  0  0  0
  140.3080   74.9870  221.4950 N   0  0  0  0  0  0  0  0  0  0  0  0
  141.4300   75.8870  221.6130 C   0  0  0  0  0  0  0  0  0  0  0  0
  140.8300   77.2000  221.9880 C   0  0  1  0  0  0  0  0  0  0  0  0
  141.4560   77.7840  223.2350 C   0  0  0  0  0  0  0  0  0  0  0  0
  141.5200   79.2410  222.8950 C   0  0  0  0  0  0  0  0  0  0  0  0
  141.4500   79.4390  221.5010 N   0  0  0  0  0  0  0  0  0  0  0  0
  140.6950   80.5060  220.9910 C   0  0  0  0  0  0  0  0  0  0  0  0
  140.8590   80.9150  219.5760 C   0  0  2  0  0  0  0  0  0  0  0  0
  139.8320   80.3750  218.6300 C   0  0  0  0  0  0  0  0  0  0  0  0
  140.1540   79.0380  218.0320 C   0  0  0  0  0  0  0  0  0  0  0  0
  141.5710   78.8570  217.6250 C   0  0  0  0  0  0  0  0  0  0  0  0
  142.5460   79.6090  218.3080 N   0  0  0  0  0  0  0  0  0  0  0  0
  142.1960   80.8000  218.9620 C   0  0  0  0  0  0  0  0  0  0  0  0
  141.1150   78.1850  220.9070 C   0  0  0  0  0  0  0  0  0  0  0  0
  139.4030   76.9090  222.1650 C   0  0  0  0  0  0  0  0  0  0  0  0
  138.3860   77.7680  222.5750 C   0  0  0  0  0  0  0  0  0  0  0  0
  137.0750   77.3580  222.6990 C   0  0  0  0  0  0  0  0  0  0  0  0
  136.7660   76.0500  222.4050 C   0  0  0  0  0  0  0  0  0  0  0  0
  137.7800   75.2200  222.0050 C   0  0  0  0  0  0  0  0  0  0  0  0
  139.0930   75.6040  221.8730 C   0  0  0  0  0  0  0  0  0  0  0  0
  140.7977   72.9919  223.8550 H   0  0  0  0  0  0  0  0  0  0  0  0
  141.4513   72.4784  225.3908 H   0  0  0  0  0  0  0  0  0  0  0  0
  142.1368   73.0438  227.7023 H   0  0  0  0  0  0  0  0  0  0  0  0
  141.3273   71.7281  229.6541 H   0  0  0  0  0  0  0  0  0  0  0  0
  139.7707   69.7929  229.1633 H   0  0  0  0  0  0  0  0  0  0  0  0
  139.0345   68.5652  225.5939 H   0  0  0  0  0  0  0  0  0  0  0  0
  138.1103   67.6207  223.5376 H   0  0  0  0  0  0  0  0  0  0  0  0
  138.2263   68.8921  221.3920 H   0  0  0  0  0  0  0  0  0  0  0  0
  139.1540   71.2750  220.3280 H   0  0  0  0  0  0  0  0  0  0  0  0
  142.1233   75.5411  222.3938 H   0  0  0  0  0  0  0  0  0  0  0  0
  142.0119   75.9482  220.6815 H   0  0  0  0  0  0  0  0  0  0  0  0
  140.8264   77.6068  224.1194 H   0  0  0  0  0  0  0  0  0  0  0  0
  142.4312   77.3439  223.4908 H   0  0  0  0  0  0  0  0  0  0  0  0
  140.6767   79.7595  223.3746 H   0  0  0  0  0  0  0  0  0  0  0  0
  142.4772   79.6434  223.2581 H   0  0  0  0  0  0  0  0  0  0  0  0
  139.6362   80.2394  221.1247 H   0  0  0  0  0  0  0  0  0  0  0  0
  141.0699   81.3745  221.5523 H   0  0  0  0  0  0  0  0  0  0  0  0
  140.6940   81.9934  219.7166 H   0  0  0  0  0  0  0  0  0  0  0  0
  138.8814   80.2834  219.1759 H   0  0  0  0  0  0  0  0  0  0  0  0
  139.7898   81.0829  217.7891 H   0  0  0  0  0  0  0  0  0  0  0  0
  139.9110   78.2643  218.7752 H   0  0  0  0  0  0  0  0  0  0  0  0
  139.5575   78.9616  217.1109 H   0  0  0  0  0  0  0  0  0  0  0  0
  141.8196   77.7942  217.7616 H   0  0  0  0  0  0  0  0  0  0  0  0
  141.6127   79.2213  216.5879 H   0  0  0  0  0  0  0  0  0  0  0  0
  143.2950   79.0680  218.7610 H   0  0  0  0  0  0  0  0  0  0  0  0
  142.9329   80.9556  219.7637 H   0  0  0  0  0  0  0  0  0  0  0  0
  142.1801   81.5479  218.1555 H   0  0  0  0  0  0  0  0  0  0  0  0
  140.2251   78.3035  220.2713 H   0  0  0  0  0  0  0  0  0  0  0  0
  141.9531   77.8291  220.2898 H   0  0  0  0  0  0  0  0  0  0  0  0
  138.6380   78.8129  222.8087 H   0  0  0  0  0  0  0  0  0  0  0  0
  136.2943   78.0608  223.0255 H   0  0  0  0  0  0  0  0  0  0  0  0
  135.7332   75.6807  222.4888 H   0  0  0  0  0  0  0  0  0  0  0  0
  137.5259   74.1750  221.7737 H   0  0  0  0  0  0  0  0  0  0  0  0
  1  2  2  0
  2  3  1  0
  3  4  2  0
  4  5  1  0
  5  6  2  0
  6  7  1  0
  7  8  2  0
  8  9  1  0
  9 10  2  0
 10 11  1  0
 11 12  2  0
  6 13  1  0
 13 14  2  0
 14 15  1  0
 15 16  2  0
 16 17  1  0
  2 18  1  0
 18 19  1  0
 20 19  1  6
 20 21  1  0
 21 22  1  0
 22 23  1  0
 23 24  1  0
 24 25  1  0
 25 26  1  0
 26 27  1  0
 27 28  1  0
 28 29  1  0
 29 30  1  0
 23 31  1  0
 20 32  1  0
 32 33  2  0
 33 34  1  0
 34 35  2  0
 35 36  1  0
 36 37  2  0
 17  3  1  0
 37 18  1  0
 16  5  1  0
 31 20  1  0
 37 32  1  0
 12  7  1  0
 30 25  1  0
  4 38  1  0
  8 39  1  0
  9 40  1  0
 10 41  1  0
 11 42  1  0
 13 43  1  0
 14 44  1  0
 15 45  1  0
 17 46  1  0
 19 47  1  0
 19 48  1  0
 21 49  1  0
 21 50  1  0
 22 51  1  0
 22 52  1  0
 24 53  1  0
 24 54  1  0
 25 55  1  1
 26 56  1  0
 26 57  1  0
 27 58  1  0
 27 59  1  0
 28 60  1  0
 28 61  1  0
 29 62  1  0
 30 63  1  0
 30 64  1  0
 31 65  1  0
 31 66  1  0
 33 67  1  0
 34 68  1  0
 35 69  1  0
 36 70  1  0
M  END
>  <smiles>  (41) 
O=C(c1cc2c(-c3ccccn3)cccc2[nH]1)N1C[C@]2(CCN(CC3CCCNC3)C2)c2ccccc21

>  <score_type>  (41) 
oracle

>  <origin>  (41) 
autodockgpu

>  <m_score__min__energy>  (41) 
-10.640000000000001

>  <m_primary>  (41) 
energy

>  <rmsd>  (41) 
2.9593131897459397

>  <m_score__min__rmsd>  (41) 
2.9593131897459397

>  <meeko>  (41) 
{"free_energy": -9.03, "intermolecular_energy": -10.52, "internal_energy": -2.0, "cluster_size": 6, "cluster_id": 5, "rank_in_cluster": 6}

>  <energy>  (41) 
-9.41

>  <cluster_rmsd>  (41) 
0.0

>  <cluster>  (41) 
5

$$$$

     RDKit          3D

 70 76  0  0  1  0  0  0  0  0999 V2000
  139.9580   75.6430  219.4000 O   0  0  0  0  0  0  0  0  0  0  0  0
  139.8120   75.5610  220.6570 C   0  0  0  0  0  0  0  0  0  0  0  0
  140.1680   76.7530  221.4090 C   0  0  0  0  0  0  0  0  0  0  0  0
  139.2900   77.5690  222.1050 C   0  0  0  0  0  0  0  0  0  0  0  0
  140.0040   78.5600  222.6870 C   0  0  0  0  0  0  0  0  0  0  0  0
  139.6600   79.6370  223.4600 C   0  0  0  0  0  0  0  0  0  0  0  0
  138.3350   80.0080  223.8780 C   0  0  0  0  0  0  0  0  0  0  0  0
  137.9880   80.8830  224.8690 C   0  0  0  0  0  0  0  0  0  0  0  0
  136.6410   81.1800  225.1220 C   0  0  0  0  0  0  0  0  0  0  0  0
  135.6180   80.6200  224.4010 C   0  0  0  0  0  0  0  0  0  0  0  0
  136.0060   79.7300  223.3920 C   0  0  0  0  0  0  0  0  0  0  0  0
  137.3000   79.4680  223.1770 N   0  0  0  0  0  0  0  0  0  0  0  0
  140.7030   80.4680  223.8510 C   0  0  0  0  0  0  0  0  0  0  0  0
  142.0150   80.2430  223.4970 C   0  0  0  0  0  0  0  0  0  0  0  0
  142.3600   79.1590  222.7220 C   0  0  0  0  0  0  0  0  0  0  0  0
  141.3340   78.3260  222.3260 C   0  0  0  0  0  0  0  0  0  0  0  0
  141.4140   77.2290  221.5550 N   0  0  0  0  0  0  0  0  0  0  0  0
  139.3230   74.3510  221.2590 N   0  0  0  0  0  0  0  0  0  0  0  0
  140.0980   73.1330  221.2420 C   0  0  0  0  0  0  0  0  0  0  0  0
  139.3070   72.1640  222.0560 C   0  0  1  0  0  0  0  0  0  0  0  0
  139.0370   70.8750  221.3140 C   0  0  0  0  0  0  0  0  0  0  0  0
  139.1930   69.8560  222.4010 C   0  0  0  0  0  0  0  0  0  0  0  0
  139.9460   70.3720  223.4750 N   0  0  0  0  0  0  0  0  0  0  0  0
  139.5690   70.0700  224.7920 C   0  0  0  0  0  0  0  0  0  0  0  0
  140.6080   69.9160  225.8380 C   0  0  2  0  0  0  0  0  0  0  0  0
  140.1480   69.2660  227.1060 C   0  0  0  0  0  0  0  0  0  0  0  0
  139.5890   70.2000  228.1380 C   0  0  0  0  0  0  0  0  0  0  0  0
  140.3290   71.4780  228.2940 C   0  0  0  0  0  0  0  0  0  0  0  0
  141.0430   71.9580  227.1780 N   0  0  0  0  0  0  0  0  0  0  0  0
  141.4540   71.0800  226.1650 C   0  0  0  0  0  0  0  0  0  0  0  0
  140.1100   71.7720  223.2480 C   0  0  0  0  0  0  0  0  0  0  0  0
  138.0730   72.8880  222.3830 C   0  0  0  0  0  0  0  0  0  0  0  0
  136.9560   72.4310  223.0780 C   0  0  0  0  0  0  0  0  0  0  0  0
  135.8550   73.2260  223.3170 C   0  0  0  0  0  0  0  0  0  0  0  0
  135.8650   74.5200  222.8470 C   0  0  0  0  0  0  0  0  0  0  0  0
  136.9730   74.9510  222.1640 C   0  0  0  0  0  0  0  0  0  0  0  0
  138.0820   74.1790  221.9140 C   0  0  0  0  0  0  0  0  0  0  0  0
  138.2004   77.4341  222.1725 H   0  0  0  0  0  0  0  0  0  0  0  0
  138.7734   81.3591  225.4744 H   0  0  0  0  0  0  0  0  0  0  0  0
  136.3964   81.8877  225.9278 H   0  0  0  0  0  0  0  0  0  0  0  0
  134.5622   80.8544  224.6019 H   0  0  0  0  0  0  0  0  0  0  0  0
  135.2403   79.2422  222.7709 H   0  0  0  0  0  0  0  0  0  0  0  0
  140.4701   81.3458  224.4717 H   0  0  0  0  0  0  0  0  0  0  0  0
  142.7965   80.9380  223.8378 H   0  0  0  0  0  0  0  0  0  0  0  0
  143.4035   78.9662  222.4323 H   0  0  0  0  0  0  0  0  0  0  0  0
  142.2740   76.8000  221.1300 H   0  0  0  0  0  0  0  0  0  0  0  0
  140.2190   72.7655  220.2123 H   0  0  0  0  0  0  0  0  0  0  0  0
  141.1114   73.2811  221.6433 H   0  0  0  0  0  0  0  0  0  0  0  0
  138.0204   70.8601  220.8942 H   0  0  0  0  0  0  0  0  0  0  0  0
  139.6997   70.7107  220.4515 H   0  0  0  0  0  0  0  0  0  0  0  0
  138.1971   69.5656  222.7670 H   0  0  0  0  0  0  0  0  0  0  0  0
  139.7226   68.9841  221.9896 H   0  0  0  0  0  0  0  0  0  0  0  0
  138.8991   70.8766  225.1246 H   0  0  0  0  0  0  0  0  0  0  0  0
  139.1383   69.0612  224.7094 H   0  0  0  0  0  0  0  0  0  0  0  0
  141.2644   69.2238  225.2903 H   0  0  0  0  0  0  0  0  0  0  0  0
  139.3665   68.5356  226.8495 H   0  0  0  0  0  0  0  0  0  0  0  0
  141.0427   68.8130  227.5580 H   0  0  0  0  0  0  0  0  0  0  0  0
  138.5524   70.4379  227.8572 H   0  0  0  0  0  0  0  0  0  0  0  0
  139.6711   69.6774  229.1024 H   0  0  0  0  0  0  0  0  0  0  0  0
  139.5972   72.2502  228.5737 H   0  0  0  0  0  0  0  0  0  0  0  0
  141.1002   71.2643  229.0487 H   0  0  0  0  0  0  0  0  0  0  0  0
  140.7940   72.9050  226.8600 H   0  0  0  0  0  0  0  0  0  0  0  0
  141.5536   71.6743  225.2447 H   0  0  0  0  0  0  0  0  0  0  0  0
  142.3757   70.6314  226.5639 H   0  0  0  0  0  0  0  0  0  0  0  0
  139.7620   72.3322  224.1284 H   0  0  0  0  0  0  0  0  0  0  0  0
  141.1720   71.9998  223.0738 H   0  0  0  0  0  0  0  0  0  0  0  0
  136.9519   71.3960  223.4506 H   0  0  0  0  0  0  0  0  0  0  0  0
  134.9885   72.8352  223.8706 H   0  0  0  0  0  0  0  0  0  0  0  0
  135.0083   75.1892  223.0147 H   0  0  0  0  0  0  0  0  0  0  0  0
  136.9743   75.9857  221.7906 H   0  0  0  0  0  0  0  0  0  0  0  0
  1  2  2  0
  2  3  1  0
  3  4  2  0
  4  5  1  0
  5  6  2  0
  6  7  1  0
  7  8  2  0
  8  9  1  0
  9 10  2  0
 10 11  1  0
 11 12  2  0
  6 13  1  0
 13 14  2  0
 14 15  1  0
 15 16  2  0
 16 17  1  0
  2 18  1  0
 18 19  1  0
 20 19  1  6
 20 21  1  0
 21 22  1  0
 22 23  1  0
 23 24  1  0
 24 25  1  0
 25 26  1  0
 26 27  1  0
 27 28  1  0
 28 29  1  0
 29 30  1  0
 23 31  1  0
 20 32  1  0
 32 33  2  0
 33 34  1  0
 34 35  2  0
 35 36  1  0
 36 37  2  0
 17  3  1  0
 37 18  1  0
 16  5  1  0
 31 20  1  0
 37 32  1  0
 12  7  1  0
 30 25  1  0
  4 38  1  0
  8 39  1  0
  9 40  1  0
 10 41  1  0
 11 42  1  0
 13 43  1  0
 14 44  1  0
 15 45  1  0
 17 46  1  0
 19 47  1  0
 19 48  1  0
 21 49  1  0
 21 50  1  0
 22 51  1  0
 22 52  1  0
 24 53  1  0
 24 54  1  0
 25 55  1  6
 26 56  1  0
 26 57  1  0
 27 58  1  0
 27 59  1  0
 28 60  1  0
 28 61  1  0
 29 62  1  0
 30 63  1  0
 30 64  1  0
 31 65  1  0
 31 66  1  0
 33 67  1  0
 34 68  1  0
 35 69  1  0
 36 70  1  0
M  END
>  <smiles>  (42) 
O=C(c1cc2c(-c3ccccn3)cccc2[nH]1)N1C[C@]2(CCN(CC3CCCNC3)C2)c2ccccc21

>  <score_type>  (42) 
oracle

>  <origin>  (42) 
autodockgpu

>  <m_score__min__energy>  (42) 
-10.640000000000001

>  <m_primary>  (42) 
energy

>  <rmsd>  (42) 
10.05348441455618

>  <m_score__min__rmsd>  (42) 
10.05348441455618

>  <meeko>  (42) 
{"free_energy": -9.76, "intermolecular_energy": -11.25, "internal_energy": -1.68, "cluster_size": 7, "cluster_id": 2, "rank_in_cluster": 4}

>  <energy>  (42) 
-9.31

>  <cluster_rmsd>  (42) 
0.44

>  <cluster>  (42) 
5

$$$$

     RDKit          3D

 70 76  0  0  1  0  0  0  0  0999 V2000
  139.8840   75.6550  219.3890 O   0  0  0  0  0  0  0  0  0  0  0  0
  139.7660   75.5630  220.6480 C   0  0  0  0  0  0  0  0  0  0  0  0
  140.1310   76.7520  221.4010 C   0  0  0  0  0  0  0  0  0  0  0  0
  139.2560   77.5860  222.0820 C   0  0  0  0  0  0  0  0  0  0  0  0
  139.9780   78.5670  222.6700 C   0  0  0  0  0  0  0  0  0  0  0  0
  139.6400   79.6530  223.4340 C   0  0  0  0  0  0  0  0  0  0  0  0
  138.3150   80.0470  223.8320 C   0  0  0  0  0  0  0  0  0  0  0  0
  137.9690   80.9630  224.7850 C   0  0  0  0  0  0  0  0  0  0  0  0
  136.6230   81.2750  225.0210 C   0  0  0  0  0  0  0  0  0  0  0  0
  135.6000   80.6920  224.3200 C   0  0  0  0  0  0  0  0  0  0  0  0
  135.9870   79.7610  223.3490 C   0  0  0  0  0  0  0  0  0  0  0  0
  137.2810   79.4840  223.1490 N   0  0  0  0  0  0  0  0  0  0  0  0
  140.6900   80.4680  223.8360 C   0  0  0  0  0  0  0  0  0  0  0  0
  142.0030   80.2210  223.5020 C   0  0  0  0  0  0  0  0  0  0  0  0
  142.3420   79.1280  222.7360 C   0  0  0  0  0  0  0  0  0  0  0  0
  141.3080   78.3100  222.3280 C   0  0  0  0  0  0  0  0  0  0  0  0
  141.3820   77.2100  221.5630 N   0  0  0  0  0  0  0  0  0  0  0  0
  139.2980   74.3460  221.2530 N   0  0  0  0  0  0  0  0  0  0  0  0
  140.0970   73.1440  221.2430 C   0  0  0  0  0  0  0  0  0  0  0  0
  139.3220   72.1630  222.0570 C   0  0  1  0  0  0  0  0  0  0  0  0
  139.0820   70.8650  221.3190 C   0  0  0  0  0  0  0  0  0  0  0  0
  139.2530   69.8540  222.4100 C   0  0  0  0  0  0  0  0  0  0  0  0
  139.9900   70.3890  223.4860 N   0  0  0  0  0  0  0  0  0  0  0  0
  139.6120   70.0840  224.8030 C   0  0  0  0  0  0  0  0  0  0  0  0
  140.6460   69.9780  225.8590 C   0  0  2  0  0  0  0  0  0  0  0  0
  140.2000   69.3160  227.1260 C   0  0  0  0  0  0  0  0  0  0  0  0
  139.5940   70.2330  228.1470 C   0  0  0  0  0  0  0  0  0  0  0  0
  140.2790   71.5410  228.3030 C   0  0  0  0  0  0  0  0  0  0  0  0
  140.9840   72.0440  227.1910 N   0  0  0  0  0  0  0  0  0  0  0  0
  141.4400   71.1770  226.1870 C   0  0  0  0  0  0  0  0  0  0  0  0
  140.1260   71.7910  223.2550 C   0  0  0  0  0  0  0  0  0  0  0  0
  138.0720   72.8630  222.3750 C   0  0  0  0  0  0  0  0  0  0  0  0
  136.9610   72.3860  223.0670 C   0  0  0  0  0  0  0  0  0  0  0  0
  135.8430   73.1590  223.2970 C   0  0  0  0  0  0  0  0  0  0  0  0
  135.8290   74.4510  222.8220 C   0  0  0  0  0  0  0  0  0  0  0  0
  136.9320   74.9020  222.1430 C   0  0  0  0  0  0  0  0  0  0  0  0
  138.0570   74.1510  221.9020 C   0  0  0  0  0  0  0  0  0  0  0  0
  138.1635   77.4695  222.1346 H   0  0  0  0  0  0  0  0  0  0  0  0
  138.7545   81.4605  225.3728 H   0  0  0  0  0  0  0  0  0  0  0  0
  136.3789   82.0150  225.7974 H   0  0  0  0  0  0  0  0  0  0  0  0
  134.5447   80.9392  224.5079 H   0  0  0  0  0  0  0  0  0  0  0  0
  135.2209   79.2527  222.7451 H   0  0  0  0  0  0  0  0  0  0  0  0
  140.4624   81.3520  224.4498 H   0  0  0  0  0  0  0  0  0  0  0  0
  142.7905   80.9050  223.8513 H   0  0  0  0  0  0  0  0  0  0  0  0
  143.3864   78.9171  222.4625 H   0  0  0  0  0  0  0  0  0  0  0  0
  142.2410   76.7640  221.1520 H   0  0  0  0  0  0  0  0  0  0  0  0
  140.2293   72.7755  220.2151 H   0  0  0  0  0  0  0  0  0  0  0  0
  141.1059   73.3132  221.6474 H   0  0  0  0  0  0  0  0  0  0  0  0
  138.0680   70.8277  220.8942 H   0  0  0  0  0  0  0  0  0  0  0  0
  139.7526   70.7108  220.4608 H   0  0  0  0  0  0  0  0  0  0  0  0
  138.2614   69.5449  222.7721 H   0  0  0  0  0  0  0  0  0  0  0  0
  139.8024   68.9916  222.0045 H   0  0  0  0  0  0  0  0  0  0  0  0
  138.9093   70.8677  225.1225 H   0  0  0  0  0  0  0  0  0  0  0  0
  139.2199   69.0592  224.7255 H   0  0  0  0  0  0  0  0  0  0  0  0
  141.3361   69.3105  225.3221 H   0  0  0  0  0  0  0  0  0  0  0  0
  139.4508   68.5536  226.8661 H   0  0  0  0  0  0  0  0  0  0  0  0
  141.1073   68.9008  227.5891 H   0  0  0  0  0  0  0  0  0  0  0  0
  138.5513   70.4269  227.8550 H   0  0  0  0  0  0  0  0  0  0  0  0
  139.6890   69.7196  229.1152 H   0  0  0  0  0  0  0  0  0  0  0  0
  139.5133   72.2839  228.5710 H   0  0  0  0  0  0  0  0  0  0  0  0
  141.0507   71.3634  229.0666 H   0  0  0  0  0  0  0  0  0  0  0  0
  140.6990   72.9770  226.8640 H   0  0  0  0  0  0  0  0  0  0  0  0
  141.5243   71.7695  225.2641 H   0  0  0  0  0  0  0  0  0  0  0  0
  142.3750   70.7684  226.5978 H   0  0  0  0  0  0  0  0  0  0  0  0
  139.7614   72.3467  224.1315 H   0  0  0  0  0  0  0  0  0  0  0  0
  141.1840   72.0399  223.0857 H   0  0  0  0  0  0  0  0  0  0  0  0
  136.9764   71.3529  223.4444 H   0  0  0  0  0  0  0  0  0  0  0  0
  134.9817   72.7527  223.8475 H   0  0  0  0  0  0  0  0  0  0  0  0
  134.9578   75.1032  222.9825 H   0  0  0  0  0  0  0  0  0  0  0  0
  136.9148   75.9351  221.7658 H   0  0  0  0  0  0  0  0  0  0  0  0
  1  2  2  0
  2  3  1  0
  3  4  2  0
  4  5  1  0
  5  6  2  0
  6  7  1  0
  7  8  2  0
  8  9  1  0
  9 10  2  0
 10 11  1  0
 11 12  2  0
  6 13  1  0
 13 14  2  0
 14 15  1  0
 15 16  2  0
 16 17  1  0
  2 18  1  0
 18 19  1  0
 20 19  1  6
 20 21  1  0
 21 22  1  0
 22 23  1  0
 23 24  1  0
 24 25  1  0
 25 26  1  0
 26 27  1  0
 27 28  1  0
 28 29  1  0
 29 30  1  0
 23 31  1  0
 20 32  1  0
 32 33  2  0
 33 34  1  0
 34 35  2  0
 35 36  1  0
 36 37  2  0
 17  3  1  0
 37 18  1  0
 16  5  1  0
 31 20  1  0
 37 32  1  0
 12  7  1  0
 30 25  1  0
  4 38  1  0
  8 39  1  0
  9 40  1  0
 10 41  1  0
 11 42  1  0
 13 43  1  0
 14 44  1  0
 15 45  1  0
 17 46  1  0
 19 47  1  0
 19 48  1  0
 21 49  1  0
 21 50  1  0
 22 51  1  0
 22 52  1  0
 24 53  1  0
 24 54  1  0
 25 55  1  6
 26 56  1  0
 26 57  1  0
 27 58  1  0
 27 59  1  0
 28 60  1  0
 28 61  1  0
 29 62  1  0
 30 63  1  0
 30 64  1  0
 31 65  1  0
 31 66  1  0
 33 67  1  0
 34 68  1  0
 35 69  1  0
 36 70  1  0
M  END
>  <smiles>  (43) 
O=C(c1cc2c(-c3ccccn3)cccc2[nH]1)N1C[C@]2(CCN(CC3CCCNC3)C2)c2ccccc21

>  <score_type>  (43) 
oracle

>  <origin>  (43) 
autodockgpu

>  <m_score__min__energy>  (43) 
-10.640000000000001

>  <m_primary>  (43) 
energy

>  <rmsd>  (43) 
10.061442208681294

>  <m_score__min__rmsd>  (43) 
10.061442208681294

>  <meeko>  (43) 
{"free_energy": -9.76, "intermolecular_energy": -11.25, "internal_energy": -1.66, "cluster_size": 7, "cluster_id": 2, "rank_in_cluster": 3}

>  <energy>  (43) 
-9.21

>  <cluster_rmsd>  (43) 
1.84

>  <cluster>  (43) 
5

$$$$

     RDKit          3D

 70 76  0  0  1  0  0  0  0  0999 V2000
  135.4550   72.8730  221.9910 O   0  0  0  0  0  0  0  0  0  0  0  0
  136.7090   72.9080  222.1780 C   0  0  0  0  0  0  0  0  0  0  0  0
  137.3070   71.6710  222.6560 C   0  0  0  0  0  0  0  0  0  0  0  0
  138.0340   71.5170  223.8270 C   0  0  0  0  0  0  0  0  0  0  0  0
  138.4030   70.2190  223.9270 C   0  0  0  0  0  0  0  0  0  0  0  0
  139.1370   69.5200  224.8490 C   0  0  0  0  0  0  0  0  0  0  0  0
  139.7480   70.0450  226.0400 C   0  0  0  0  0  0  0  0  0  0  0  0
  139.8660   69.4320  227.2560 C   0  0  0  0  0  0  0  0  0  0  0  0
  140.5400   70.0620  228.3120 C   0  0  0  0  0  0  0  0  0  0  0  0
  141.1090   71.3030  228.1840 C   0  0  0  0  0  0  0  0  0  0  0  0
  140.9740   71.9030  226.9260 C   0  0  0  0  0  0  0  0  0  0  0  0
  140.3230   71.2750  225.9390 N   0  0  0  0  0  0  0  0  0  0  0  0
  139.3300   68.1710  224.5800 C   0  0  0  0  0  0  0  0  0  0  0  0
  138.8240   67.5480  223.4610 C   0  0  0  0  0  0  0  0  0  0  0  0
  138.0840   68.2510  222.5370 C   0  0  0  0  0  0  0  0  0  0  0  0
  137.8840   69.5930  222.7910 C   0  0  0  0  0  0  0  0  0  0  0  0
  137.2240   70.4840  222.0350 N   0  0  0  0  0  0  0  0  0  0  0  0
  137.4550   74.1090  221.9210 N   0  0  0  0  0  0  0  0  0  0  0  0
  136.8020   75.3920  221.8100 C   0  0  0  0  0  0  0  0  0  0  0  0
  137.9140   76.3760  221.6630 C   0  0  1  0  0  0  0  0  0  0  0  0
  137.7460   77.2570  220.4460 C   0  0  0  0  0  0  0  0  0  0  0  0
  138.2110   78.5840  220.9590 C   0  0  0  0  0  0  0  0  0  0  0  0
  138.1590   78.6290  222.3670 N   0  0  0  0  0  0  0  0  0  0  0  0
  139.1930   79.2580  223.0780 C   0  0  0  0  0  0  0  0  0  0  0  0
  140.2570   79.9820  222.3430 C   0  0  2  0  0  0  0  0  0  0  0  0
  141.4830   79.1800  222.0360 C   0  0  0  0  0  0  0  0  0  0  0  0
  142.5400   79.1950  223.1000 C   0  0  0  0  0  0  0  0  0  0  0  0
  142.7710   80.5160  223.7370 C   0  0  0  0  0  0  0  0  0  0  0  0
  141.6960   81.4270  223.7580 N   0  0  0  0  0  0  0  0  0  0  0  0
  140.6560   81.3190  222.8220 C   0  0  0  0  0  0  0  0  0  0  0  0
  137.8900   77.3050  222.8270 C   0  0  0  0  0  0  0  0  0  0  0  0
  139.1230   75.5480  221.5900 C   0  0  0  0  0  0  0  0  0  0  0  0
  140.4420   75.9510  221.3910 C   0  0  0  0  0  0  0  0  0  0  0  0
  141.4910   75.0580  221.3440 C   0  0  0  0  0  0  0  0  0  0  0  0
  141.2200   73.7170  221.4980 C   0  0  0  0  0  0  0  0  0  0  0  0
  139.9160   73.3400  221.6910 C   0  0  0  0  0  0  0  0  0  0  0  0
  138.8540   74.2100  221.7430 C   0  0  0  0  0  0  0  0  0  0  0  0
  138.2698   72.3123  224.5494 H   0  0  0  0  0  0  0  0  0  0  0  0
  139.4279   68.4345  227.4077 H   0  0  0  0  0  0  0  0  0  0  0  0
  140.6150   69.5417  229.2783 H   0  0  0  0  0  0  0  0  0  0  0  0
  141.6366   71.7947  229.0146 H   0  0  0  0  0  0  0  0  0  0  0  0
  141.4064   72.8985  226.7472 H   0  0  0  0  0  0  0  0  0  0  0  0
  139.9144   67.5724  225.2942 H   0  0  0  0  0  0  0  0  0  0  0  0
  139.0133   66.4759  223.3035 H   0  0  0  0  0  0  0  0  0  0  0  0
  137.6719   67.7665  221.6395 H   0  0  0  0  0  0  0  0  0  0  0  0
  136.7270   70.3180  221.1240 H   0  0  0  0  0  0  0  0  0  0  0  0
  136.1441   75.4167  220.9288 H   0  0  0  0  0  0  0  0  0  0  0  0
  136.1672   75.6109  222.6813 H   0  0  0  0  0  0  0  0  0  0  0  0
  138.3718   76.9093  219.6109 H   0  0  0  0  0  0  0  0  0  0  0  0
  136.7220   77.2697  220.0444 H   0  0  0  0  0  0  0  0  0  0  0  0
  139.2476   78.7527  220.6320 H   0  0  0  0  0  0  0  0  0  0  0  0
  137.5481   79.3655  220.5592 H   0  0  0  0  0  0  0  0  0  0  0  0
  138.7189   79.9867  223.7519 H   0  0  0  0  0  0  0  0  0  0  0  0
  139.7302   78.4185  223.5436 H   0  0  0  0  0  0  0  0  0  0  0  0
  139.6960   80.1601  221.4137 H   0  0  0  0  0  0  0  0  0  0  0  0
  141.1754   78.1359  221.8768 H   0  0  0  0  0  0  0  0  0  0  0  0
  141.9371   79.6450  221.1486 H   0  0  0  0  0  0  0  0  0  0  0  0
  142.2432   78.4846  223.8857 H   0  0  0  0  0  0  0  0  0  0  0  0
  143.4824   78.9257  222.6007 H   0  0  0  0  0  0  0  0  0  0  0  0
  143.0662   80.3311  224.7804 H   0  0  0  0  0  0  0  0  0  0  0  0
  143.5344   80.9991  223.1094 H   0  0  0  0  0  0  0  0  0  0  0  0
  141.4130   81.7660  224.6870 H   0  0  0  0  0  0  0  0  0  0  0  0
  139.7652   81.7769  223.2766 H   0  0  0  0  0  0  0  0  0  0  0  0
  141.0592   81.8099  221.9240 H   0  0  0  0  0  0  0  0  0  0  0  0
  138.6573   77.0041  223.5555 H   0  0  0  0  0  0  0  0  0  0  0  0
  136.9024   77.2717  223.3103 H   0  0  0  0  0  0  0  0  0  0  0  0
  140.6543   77.0231  221.2666 H   0  0  0  0  0  0  0  0  0  0  0  0
  142.5216   75.4090  221.1869 H   0  0  0  0  0  0  0  0  0  0  0  0
  142.0265   72.9696  221.4671 H   0  0  0  0  0  0  0  0  0  0  0  0
  139.7056   72.2672  221.8126 H   0  0  0  0  0  0  0  0  0  0  0  0
  1  2  2  0
  2  3  1  0
  3  4  2  0
  4  5  1  0
  5  6  2  0
  6  7  1  0
  7  8  2  0
  8  9  1  0
  9 10  2  0
 10 11  1  0
 11 12  2  0
  6 13  1  0
 13 14  2  0
 14 15  1  0
 15 16  2  0
 16 17  1  0
  2 18  1  0
 18 19  1  0
 20 19  1  1
 20 21  1  0
 21 22  1  0
 22 23  1  0
 23 24  1  0
 24 25  1  0
 25 26  1  0
 26 27  1  0
 27 28  1  0
 28 29  1  0
 29 30  1  0
 23 31  1  0
 20 32  1  0
 32 33  2  0
 33 34  1  0
 34 35  2  0
 35 36  1  0
 36 37  2  0
 17  3  1  0
 37 18  1  0
 16  5  1  0
 31 20  1  0
 37 32  1  0
 12  7  1  0
 30 25  1  0
  4 38  1  0
  8 39  1  0
  9 40  1  0
 10 41  1  0
 11 42  1  0
 13 43  1  0
 14 44  1  0
 15 45  1  0
 17 46  1  0
 19 47  1  0
 19 48  1  0
 21 49  1  0
 21 50  1  0
 22 51  1  0
 22 52  1  0
 24 53  1  0
 24 54  1  0
 25 55  1  6
 26 56  1  0
 26 57  1  0
 27 58  1  0
 27 59  1  0
 28 60  1  0
 28 61  1  0
 29 62  1  0
 30 63  1  0
 30 64  1  0
 31 65  1  0
 31 66  1  0
 33 67  1  0
 34 68  1  0
 35 69  1  0
 36 70  1  0
M  END
>  <smiles>  (44) 
O=C(c1cc2c(-c3ccccn3)cccc2[nH]1)N1C[C@]2(CCN(CC3CCCNC3)C2)c2ccccc21

>  <score_type>  (44) 
oracle

>  <origin>  (44) 
autodockgpu

>  <m_score__min__energy>  (44) 
-10.640000000000001

>  <m_primary>  (44) 
energy

>  <rmsd>  (44) 
3.2936012592584447

>  <m_score__min__rmsd>  (44) 
3.2936012592584447

>  <meeko>  (44) 
{"free_energy": -9.07, "intermolecular_energy": -10.56, "internal_energy": -2.04, "cluster_size": 6, "cluster_id": 5, "rank_in_cluster": 5}

>  <energy>  (44) 
-9.13

>  <cluster_rmsd>  (44) 
1.62

>  <cluster>  (44) 
5

$$$$

     RDKit          3D

 70 76  0  0  1  0  0  0  0  0999 V2000
  140.1590   75.7590  219.3660 O   0  0  0  0  0  0  0  0  0  0  0  0
  139.9640   75.6900  220.6170 C   0  0  0  0  0  0  0  0  0  0  0  0
  140.2960   76.8880  221.3700 C   0  0  0  0  0  0  0  0  0  0  0  0
  139.4060   77.6730  222.0870 C   0  0  0  0  0  0  0  0  0  0  0  0
  140.0990   78.6830  222.6620 C   0  0  0  0  0  0  0  0  0  0  0  0
  139.7350   79.7440  223.4480 C   0  0  0  0  0  0  0  0  0  0  0  0
  138.4060   80.0710  223.8920 C   0  0  0  0  0  0  0  0  0  0  0  0
  138.0500   80.9460  224.8790 C   0  0  0  0  0  0  0  0  0  0  0  0
  136.6990   81.1950  225.1590 C   0  0  0  0  0  0  0  0  0  0  0  0
  135.6810   80.5880  224.4690 C   0  0  0  0  0  0  0  0  0  0  0  0
  136.0800   79.7000  223.4630 C   0  0  0  0  0  0  0  0  0  0  0  0
  137.3780   79.4830  223.2210 N   0  0  0  0  0  0  0  0  0  0  0  0
  140.7580   80.6040  223.8250 C   0  0  0  0  0  0  0  0  0  0  0  0
  142.0700   80.4230  223.4470 C   0  0  0  0  0  0  0  0  0  0  0  0
  142.4350   79.3540  222.6600 C   0  0  0  0  0  0  0  0  0  0  0  0
  141.4280   78.4920  222.2760 C   0  0  0  0  0  0  0  0  0  0  0  0
  141.5290   77.4030  221.4970 N   0  0  0  0  0  0  0  0  0  0  0  0
  139.4460   74.4890  221.2120 N   0  0  0  0  0  0  0  0  0  0  0  0
  140.1950   73.2550  221.1940 C   0  0  0  0  0  0  0  0  0  0  0  0
  139.3800   72.3010  222.0000 C   0  0  1  0  0  0  0  0  0  0  0  0
  139.0880   71.0190  221.2520 C   0  0  0  0  0  0  0  0  0  0  0  0
  139.2160   69.9940  222.3360 C   0  0  0  0  0  0  0  0  0  0  0  0
  139.9730   70.4910  223.4160 N   0  0  0  0  0  0  0  0  0  0  0  0
  139.5820   70.1920  224.7300 C   0  0  0  0  0  0  0  0  0  0  0  0
  140.6120   69.9980  225.7790 C   0  0  2  0  0  0  0  0  0  0  0  0
  140.1450   69.2870  227.0110 C   0  0  0  0  0  0  0  0  0  0  0  0
  139.5680   70.1690  228.0780 C   0  0  0  0  0  0  0  0  0  0  0  0
  140.2970   71.4450  228.3000 C   0  0  0  0  0  0  0  0  0  0  0  0
  141.0180   71.9800  227.2140 N   0  0  0  0  0  0  0  0  0  0  0  0
  141.4450   71.1520  226.1670 C   0  0  0  0  0  0  0  0  0  0  0  0
  140.1670   71.8880  223.1960 C   0  0  0  0  0  0  0  0  0  0  0  0
  138.1600   73.0490  222.3220 C   0  0  0  0  0  0  0  0  0  0  0  0
  137.0290   72.6130  223.0100 C   0  0  0  0  0  0  0  0  0  0  0  0
  135.9440   73.4290  223.2450 C   0  0  0  0  0  0  0  0  0  0  0  0
  135.9830   74.7240  222.7800 C   0  0  0  0  0  0  0  0  0  0  0  0
  137.1040   75.1350  222.1050 C   0  0  0  0  0  0  0  0  0  0  0  0
  138.1980   74.3400  221.8590 C   0  0  0  0  0  0  0  0  0  0  0  0
  138.3226   77.5038  222.1736 H   0  0  0  0  0  0  0  0  0  0  0  0
  138.8305   81.4598  225.4593 H   0  0  0  0  0  0  0  0  0  0  0  0
  136.4462   81.9033  225.9617 H   0  0  0  0  0  0  0  0  0  0  0  0
  134.6220   80.7856  224.6911 H   0  0  0  0  0  0  0  0  0  0  0  0
  135.3194   79.1757  222.8659 H   0  0  0  0  0  0  0  0  0  0  0  0
  140.5088   81.4705  224.4551 H   0  0  0  0  0  0  0  0  0  0  0  0
  142.8350   81.1409  223.7778 H   0  0  0  0  0  0  0  0  0  0  0  0
  143.4789   79.1946  222.3521 H   0  0  0  0  0  0  0  0  0  0  0  0
  142.3940   77.0030  221.0540 H   0  0  0  0  0  0  0  0  0  0  0  0
  140.3131   72.8887  220.1635 H   0  0  0  0  0  0  0  0  0  0  0  0
  141.2095   73.3798  221.6005 H   0  0  0  0  0  0  0  0  0  0  0  0
  138.0739   71.0264  220.8258 H   0  0  0  0  0  0  0  0  0  0  0  0
  139.7528   70.8437  220.3933 H   0  0  0  0  0  0  0  0  0  0  0  0
  138.2121   69.7233  222.6951 H   0  0  0  0  0  0  0  0  0  0  0  0
  139.7297   69.1124  221.9250 H   0  0  0  0  0  0  0  0  0  0  0  0
  138.9367   71.0171  225.0659 H   0  0  0  0  0  0  0  0  0  0  0  0
  139.1202   69.1978  224.6388 H   0  0  0  0  0  0  0  0  0  0  0  0
  141.2793   69.3362  225.2074 H   0  0  0  0  0  0  0  0  0  0  0  0
  139.3723   68.5628  226.7136 H   0  0  0  0  0  0  0  0  0  0  0  0
  141.0387   68.8205  227.4512 H   0  0  0  0  0  0  0  0  0  0  0  0
  138.5326   70.4119  227.7970 H   0  0  0  0  0  0  0  0  0  0  0  0
  139.6440   69.6037  229.0186 H   0  0  0  0  0  0  0  0  0  0  0  0
  139.5566   72.1983  228.6070 H   0  0  0  0  0  0  0  0  0  0  0  0
  141.0622   71.2032  229.0524 H   0  0  0  0  0  0  0  0  0  0  0  0
  140.7640   72.9380  226.9360 H   0  0  0  0  0  0  0  0  0  0  0  0
  141.5488   71.7881  225.2756 H   0  0  0  0  0  0  0  0  0  0  0  0
  142.3660   70.6923  226.5548 H   0  0  0  0  0  0  0  0  0  0  0  0
  139.8245   72.4517  224.0763 H   0  0  0  0  0  0  0  0  0  0  0  0
  141.2345   72.0949  223.0299 H   0  0  0  0  0  0  0  0  0  0  0  0
  137.0016   71.5773  223.3797 H   0  0  0  0  0  0  0  0  0  0  0  0
  135.0663   73.0540  223.7919 H   0  0  0  0  0  0  0  0  0  0  0  0
  135.1390   75.4098  222.9451 H   0  0  0  0  0  0  0  0  0  0  0  0
  137.1293   76.1708  221.7356 H   0  0  0  0  0  0  0  0  0  0  0  0
  1  2  2  0
  2  3  1  0
  3  4  2  0
  4  5  1  0
  5  6  2  0
  6  7  1  0
  7  8  2  0
  8  9  1  0
  9 10  2  0
 10 11  1  0
 11 12  2  0
  6 13  1  0
 13 14  2  0
 14 15  1  0
 15 16  2  0
 16 17  1  0
  2 18  1  0
 18 19  1  0
 20 19  1  6
 20 21  1  0
 21 22  1  0
 22 23  1  0
 23 24  1  0
 24 25  1  0
 25 26  1  0
 26 27  1  0
 27 28  1  0
 28 29  1  0
 29 30  1  0
 23 31  1  0
 20 32  1  0
 32 33  2  0
 33 34  1  0
 34 35  2  0
 35 36  1  0
 36 37  2  0
 17  3  1  0
 37 18  1  0
 16  5  1  0
 31 20  1  0
 37 32  1  0
 12  7  1  0
 30 25  1  0
  4 38  1  0
  8 39  1  0
  9 40  1  0
 10 41  1  0
 11 42  1  0
 13 43  1  0
 14 44  1  0
 15 45  1  0
 17 46  1  0
 19 47  1  0
 19 48  1  0
 21 49  1  0
 21 50  1  0
 22 51  1  0
 22 52  1  0
 24 53  1  0
 24 54  1  0
 25 55  1  6
 26 56  1  0
 26 57  1  0
 27 58  1  0
 27 59  1  0
 28 60  1  0
 28 61  1  0
 29 62  1  0
 30 63  1  0
 30 64  1  0
 31 65  1  0
 31 66  1  0
 33 67  1  0
 34 68  1  0
 35 69  1  0
 36 70  1  0
M  END
>  <smiles>  (45) 
O=C(c1cc2c(-c3ccccn3)cccc2[nH]1)N1C[C@]2(CCN(CC3CCCNC3)C2)c2ccccc21

>  <score_type>  (45) 
oracle

>  <origin>  (45) 
autodockgpu

>  <m_score__min__energy>  (45) 
-10.640000000000001

>  <m_primary>  (45) 
energy

>  <rmsd>  (45) 
10.0523854295337

>  <m_score__min__rmsd>  (45) 
10.0523854295337

>  <meeko>  (45) 
{"free_energy": -9.72, "intermolecular_energy": -11.21, "internal_energy": -1.7, "cluster_size": 7, "cluster_id": 2, "rank_in_cluster": 5}

>  <energy>  (45) 
-9.07

>  <cluster_rmsd>  (45) 
1.93

>  <cluster>  (45) 
5

$$$$

     RDKit          3D

 70 76  0  0  1  0  0  0  0  0999 V2000
  139.9410   67.2620  219.1190 O   0  0  0  0  0  0  0  0  0  0  0  0
  140.5630   68.0710  219.8710 C   0  0  0  0  0  0  0  0  0  0  0  0
  141.9470   68.3270  219.5080 C   0  0  0  0  0  0  0  0  0  0  0  0
  142.6490   69.4990  219.7480 C   0  0  0  0  0  0  0  0  0  0  0  0
  143.9090   69.3420  219.2790 C   0  0  0  0  0  0  0  0  0  0  0  0
  145.0030   70.1640  219.2320 C   0  0  0  0  0  0  0  0  0  0  0  0
  145.0840   71.5170  219.7120 C   0  0  0  0  0  0  0  0  0  0  0  0
  144.1180   72.2280  220.3660 C   0  0  0  0  0  0  0  0  0  0  0  0
  144.3720   73.5310  220.8190 C   0  0  0  0  0  0  0  0  0  0  0  0
  145.5820   74.1490  220.6360 C   0  0  0  0  0  0  0  0  0  0  0  0
  146.5510   73.3930  219.9650 C   0  0  0  0  0  0  0  0  0  0  0  0
  146.2760   72.1530  219.5450 N   0  0  0  0  0  0  0  0  0  0  0  0
  146.1370   69.6370  218.6270 C   0  0  0  0  0  0  0  0  0  0  0  0
  146.1870   68.3660  218.1010 C   0  0  0  0  0  0  0  0  0  0  0  0
  145.0870   67.5390  218.1520 C   0  0  0  0  0  0  0  0  0  0  0  0
  143.9520   68.0490  218.7480 C   0  0  0  0  0  0  0  0  0  0  0  0
  142.7590   67.4510  218.8960 N   0  0  0  0  0  0  0  0  0  0  0  0
  139.9080   68.6740  221.0000 N   0  0  0  0  0  0  0  0  0  0  0  0
  139.1300   67.8880  221.9280 C   0  0  0  0  0  0  0  0  0  0  0  0
  138.7250   68.8480  222.9960 C   0  0  1  0  0  0  0  0  0  0  0  0
  137.2310   68.8530  223.2290 C   0  0  0  0  0  0  0  0  0  0  0  0
  137.1520   68.9830  224.7190 C   0  0  0  0  0  0  0  0  0  0  0  0
  138.3610   68.5860  225.3270 N   0  0  0  0  0  0  0  0  0  0  0  0
  138.8590   69.3150  226.4180 C   0  0  0  0  0  0  0  0  0  0  0  0
  140.3200   69.5150  226.5640 C   0  0  2  0  0  0  0  0  0  0  0  0
  140.7880   69.8170  227.9540 C   0  0  0  0  0  0  0  0  0  0  0  0
  140.7950   71.2710  228.3240 C   0  0  0  0  0  0  0  0  0  0  0  0
  141.2790   72.1880  227.2610 C   0  0  0  0  0  0  0  0  0  0  0  0
  141.1290   71.7710  225.9230 N   0  0  0  0  0  0  0  0  0  0  0  0
  141.0060   70.4090  225.6120 C   0  0  0  0  0  0  0  0  0  0  0  0
  139.3240   68.4090  224.2880 C   0  0  0  0  0  0  0  0  0  0  0  0
  139.2200   70.1460  222.5230 C   0  0  0  0  0  0  0  0  0  0  0  0
  139.0640   71.4000  223.1090 C   0  0  0  0  0  0  0  0  0  0  0  0
  139.5870   72.5480  222.5510 C   0  0  0  0  0  0  0  0  0  0  0  0
  140.2880   72.4450  221.3720 C   0  0  0  0  0  0  0  0  0  0  0  0
  140.4290   71.2020  220.8100 C   0  0  0  0  0  0  0  0  0  0  0  0
  139.9190   70.0440  221.3460 C   0  0  0  0  0  0  0  0  0  0  0  0
  142.2504   70.4009  220.2356 H   0  0  0  0  0  0  0  0  0  0  0  0
  143.1311   71.7741  220.5391 H   0  0  0  0  0  0  0  0  0  0  0  0
  143.5714   74.0767  221.3399 H   0  0  0  0  0  0  0  0  0  0  0  0
  145.7786   75.1709  220.9926 H   0  0  0  0  0  0  0  0  0  0  0  0
  147.5470   73.8224  219.7816 H   0  0  0  0  0  0  0  0  0  0  0  0
  147.0378   70.2653  218.5654 H   0  0  0  0  0  0  0  0  0  0  0  0
  147.1162   68.0067  217.6346 H   0  0  0  0  0  0  0  0  0  0  0  0
  145.1121   66.5205  217.7373 H   0  0  0  0  0  0  0  0  0  0  0  0
  142.4810   66.4820  218.6000 H   0  0  0  0  0  0  0  0  0  0  0  0
  138.2444   67.4658  221.4305 H   0  0  0  0  0  0  0  0  0  0  0  0
  139.6992   67.0367  222.3295 H   0  0  0  0  0  0  0  0  0  0  0  0
  136.7505   69.7056  222.7268 H   0  0  0  0  0  0  0  0  0  0  0  0
  136.7159   67.9658  222.8320 H   0  0  0  0  0  0  0  0  0  0  0  0
  136.9470   70.0323  224.9779 H   0  0  0  0  0  0  0  0  0  0  0  0
  136.3456   68.3305  225.0849 H   0  0  0  0  0  0  0  0  0  0  0  0
  138.4040   70.3152  226.3673 H   0  0  0  0  0  0  0  0  0  0  0  0
  138.5993   68.6882  227.2838 H   0  0  0  0  0  0  0  0  0  0  0  0
  140.6349   68.4985  226.2854 H   0  0  0  0  0  0  0  0  0  0  0  0
  140.1269   69.2900  228.6577 H   0  0  0  0  0  0  0  0  0  0  0  0
  141.8355   69.4847  228.0023 H   0  0  0  0  0  0  0  0  0  0  0  0
  139.7663   71.5619  228.5829 H   0  0  0  0  0  0  0  0  0  0  0  0
  141.5017   71.3713  229.1610 H   0  0  0  0  0  0  0  0  0  0  0  0
  140.7356   73.1378  227.3728 H   0  0  0  0  0  0  0  0  0  0  0  0
  142.3665   72.2466  227.4157 H   0  0  0  0  0  0  0  0  0  0  0  0
  140.5980   72.4070  225.3130 H   0  0  0  0  0  0  0  0  0  0  0  0
  140.4601   70.3444  224.6592 H   0  0  0  0  0  0  0  0  0  0  0  0
  142.0440   70.0449  225.6109 H   0  0  0  0  0  0  0  0  0  0  0  0
  140.2172   69.0132  224.5053 H   0  0  0  0  0  0  0  0  0  0  0  0
  139.6135   67.3497  224.2242 H   0  0  0  0  0  0  0  0  0  0  0  0
  138.5028   71.4777  224.0519 H   0  0  0  0  0  0  0  0  0  0  0  0
  139.4466   73.5242  223.0381 H   0  0  0  0  0  0  0  0  0  0  0  0
  140.7232   73.3346  220.8934 H   0  0  0  0  0  0  0  0  0  0  0  0
  140.9884   71.1268  219.8659 H   0  0  0  0  0  0  0  0  0  0  0  0
  1  2  2  0
  2  3  1  0
  3  4  2  0
  4  5  1  0
  5  6  2  0
  6  7  1  0
  7  8  2  0
  8  9  1  0
  9 10  2  0
 10 11  1  0
 11 12  2  0
  6 13  1  0
 13 14  2  0
 14 15  1  0
 15 16  2  0
 16 17  1  0
  2 18  1  0
 18 19  1  0
 20 19  1  6
 20 21  1  0
 21 22  1  0
 22 23  1  0
 23 24  1  0
 24 25  1  0
 25 26  1  0
 26 27  1  0
 27 28  1  0
 28 29  1  0
 29 30  1  0
 23 31  1  0
 20 32  1  0
 32 33  2  0
 33 34  1  0
 34 35  2  0
 35 36  1  0
 36 37  2  0
 17  3  1  0
 37 18  1  0
 16  5  1  0
 31 20  1  0
 37 32  1  0
 12  7  1  0
 30 25  1  0
  4 38  1  0
  8 39  1  0
  9 40  1  0
 10 41  1  0
 11 42  1  0
 13 43  1  0
 14 44  1  0
 15 45  1  0
 17 46  1  0
 19 47  1  0
 19 48  1  0
 21 49  1  0
 21 50  1  0
 22 51  1  0
 22 52  1  0
 24 53  1  0
 24 54  1  0
 25 55  1  6
 26 56  1  0
 26 57  1  0
 27 58  1  0
 27 59  1  0
 28 60  1  0
 28 61  1  0
 29 62  1  0
 30 63  1  0
 30 64  1  0
 31 65  1  0
 31 66  1  0
 33 67  1  0
 34 68  1  0
 35 69  1  0
 36 70  1  0
M  END
>  <smiles>  (46) 
O=C(c1cc2c(-c3ccccn3)cccc2[nH]1)N1C[C@]2(CCN(CC3CCCNC3)C2)c2ccccc21

>  <score_type>  (46) 
oracle

>  <origin>  (46) 
autodockgpu

>  <m_score__min__energy>  (46) 
-10.640000000000001

>  <m_primary>  (46) 
energy

>  <rmsd>  (46) 
9.715330241798931

>  <m_score__min__rmsd>  (46) 
9.715330241798931

>  <meeko>  (46) 
{"free_energy": -9.37, "intermolecular_energy": -10.86, "internal_energy": -2.04, "cluster_size": 2, "cluster_id": 4, "rank_in_cluster": 2}

>  <energy>  (46) 
-9.03

>  <cluster_rmsd>  (46) 
1.73

>  <cluster>  (46) 
5

$$$$

     RDKit          3D

 70 76  0  0  1  0  0  0  0  0999 V2000
  142.0460   71.8350  221.0550 O   0  0  0  0  0  0  0  0  0  0  0  0
  141.1250   72.5750  221.5150 C   0  0  0  0  0  0  0  0  0  0  0  0
  140.0940   71.8930  222.2790 C   0  0  0  0  0  0  0  0  0  0  0  0
  140.2840   71.1910  223.4600 C   0  0  0  0  0  0  0  0  0  0  0  0
  139.0850   70.7200  223.8710 C   0  0  0  0  0  0  0  0  0  0  0  0
  138.6910   69.9590  224.9400 C   0  0  0  0  0  0  0  0  0  0  0  0
  139.5340   69.4300  225.9770 C   0  0  0  0  0  0  0  0  0  0  0  0
  140.0610   70.1000  227.0450 C   0  0  0  0  0  0  0  0  0  0  0  0
  140.8270   69.4250  228.0050 C   0  0  0  0  0  0  0  0  0  0  0  0
  141.0840   68.0800  227.9280 C   0  0  0  0  0  0  0  0  0  0  0  0
  140.5280   67.4220  226.8240 C   0  0  0  0  0  0  0  0  0  0  0  0
  139.8020   68.0960  225.9250 N   0  0  0  0  0  0  0  0  0  0  0  0
  137.3380   69.6470  225.0010 C   0  0  0  0  0  0  0  0  0  0  0  0
  136.4260   70.0660  224.0580 C   0  0  0  0  0  0  0  0  0  0  0  0
  136.8240   70.8330  222.9860 C   0  0  0  0  0  0  0  0  0  0  0  0
  138.1650   71.1500  222.9110 C   0  0  0  0  0  0  0  0  0  0  0  0
  138.7910   71.8580  221.9580 N   0  0  0  0  0  0  0  0  0  0  0  0
  141.1360   73.9930  221.2740 N   0  0  0  0  0  0  0  0  0  0  0  0
  140.2070   74.8770  221.9350 C   0  0  0  0  0  0  0  0  0  0  0  0
  140.6170   76.2480  221.5130 C   0  0  1  0  0  0  0  0  0  0  0  0
  139.4690   77.0370  220.9240 C   0  0  0  0  0  0  0  0  0  0  0  0
  139.7200   78.4060  221.4760 C   0  0  0  0  0  0  0  0  0  0  0  0
  140.5460   78.3480  222.6160 N   0  0  0  0  0  0  0  0  0  0  0  0
  141.5430   79.3200  222.7980 C   0  0  0  0  0  0  0  0  0  0  0  0
  141.1730   80.6760  223.2680 C   0  0  2  0  0  0  0  0  0  0  0  0
  139.7800   80.8100  223.8000 C   0  0  0  0  0  0  0  0  0  0  0  0
  138.7340   81.1400  222.7770 C   0  0  0  0  0  0  0  0  0  0  0  0
  139.1420   82.1450  221.7620 C   0  0  0  0  0  0  0  0  0  0  0  0
  140.5160   82.2530  221.4690 N   0  0  0  0  0  0  0  0  0  0  0  0
  141.4770   81.8280  222.3980 C   0  0  0  0  0  0  0  0  0  0  0  0
  141.0430   77.0140  222.7180 C   0  0  0  0  0  0  0  0  0  0  0  0
  141.6940   76.0220  220.5430 C   0  0  0  0  0  0  0  0  0  0  0  0
  142.3970   76.9600  219.7910 C   0  0  0  0  0  0  0  0  0  0  0  0
  143.3950   76.6050  218.9080 C   0  0  0  0  0  0  0  0  0  0  0  0
  143.7040   75.2710  218.7680 C   0  0  0  0  0  0  0  0  0  0  0  0
  143.0000   74.3630  219.5150 C   0  0  0  0  0  0  0  0  0  0  0  0
  142.0020   74.6910  220.4010 C   0  0  0  0  0  0  0  0  0  0  0  0
  141.2451   71.0428  223.9741 H   0  0  0  0  0  0  0  0  0  0  0  0
  139.8822   71.1801  227.1523 H   0  0  0  0  0  0  0  0  0  0  0  0
  141.2373   69.9950  228.8516 H   0  0  0  0  0  0  0  0  0  0  0  0
  141.6865   67.5535  228.6828 H   0  0  0  0  0  0  0  0  0  0  0  0
  140.6896   66.3416  226.6949 H   0  0  0  0  0  0  0  0  0  0  0  0
  136.9786   69.0364  225.8424 H   0  0  0  0  0  0  0  0  0  0  0  0
  135.3677   69.7848  224.1624 H   0  0  0  0  0  0  0  0  0  0  0  0
  136.1072   71.1767  222.2256 H   0  0  0  0  0  0  0  0  0  0  0  0
  138.3710   72.3120  221.1080 H   0  0  0  0  0  0  0  0  0  0  0  0
  139.1762   74.6653  221.6146 H   0  0  0  0  0  0  0  0  0  0  0  0
  140.2264   74.7566  223.0282 H   0  0  0  0  0  0  0  0  0  0  0  0
  139.5053   77.0360  219.8246 H   0  0  0  0  0  0  0  0  0  0  0  0
  138.4771   76.6321  221.1734 H   0  0  0  0  0  0  0  0  0  0  0  0
  140.2117   79.0194  220.7066 H   0  0  0  0  0  0  0  0  0  0  0  0
  138.7556   78.8493  221.7647 H   0  0  0  0  0  0  0  0  0  0  0  0
  142.2552   78.9124  223.5305 H   0  0  0  0  0  0  0  0  0  0  0  0
  141.9160   79.4966  221.7783 H   0  0  0  0  0  0  0  0  0  0  0  0
  141.8893   80.7432  224.1001 H   0  0  0  0  0  0  0  0  0  0  0  0
  139.5036   79.8565  224.2738 H   0  0  0  0  0  0  0  0  0  0  0  0
  139.8010   81.6588  224.4994 H   0  0  0  0  0  0  0  0  0  0  0  0
  138.4676   80.2119  222.2500 H   0  0  0  0  0  0  0  0  0  0  0  0
  137.8939   81.5857  223.3298 H   0  0  0  0  0  0  0  0  0  0  0  0
  138.6238   81.8954  220.8244 H   0  0  0  0  0  0  0  0  0  0  0  0
  138.8728   83.1154  222.2045 H   0  0  0  0  0  0  0  0  0  0  0  0
  140.7750   82.1220  220.4820 H   0  0  0  0  0  0  0  0  0  0  0  0
  142.3832   81.5718  221.8295 H   0  0  0  0  0  0  0  0  0  0  0  0
  141.5571   82.6725  223.0983 H   0  0  0  0  0  0  0  0  0  0  0  0
  142.1414   77.0323  222.7749 H   0  0  0  0  0  0  0  0  0  0  0  0
  140.6442   76.5355  223.6246 H   0  0  0  0  0  0  0  0  0  0  0  0
  142.1466   78.0249  219.9058 H   0  0  0  0  0  0  0  0  0  0  0  0
  143.9320   77.3705  218.3287 H   0  0  0  0  0  0  0  0  0  0  0  0
  144.4937   74.9430  218.0761 H   0  0  0  0  0  0  0  0  0  0  0  0
  143.2510   73.2985  219.3973 H   0  0  0  0  0  0  0  0  0  0  0  0
  1  2  2  0
  2  3  1  0
  3  4  2  0
  4  5  1  0
  5  6  2  0
  6  7  1  0
  7  8  2  0
  8  9  1  0
  9 10  2  0
 10 11  1  0
 11 12  2  0
  6 13  1  0
 13 14  2  0
 14 15  1  0
 15 16  2  0
 16 17  1  0
  2 18  1  0
 18 19  1  0
 20 19  1  1
 20 21  1  0
 21 22  1  0
 22 23  1  0
 23 24  1  0
 24 25  1  0
 25 26  1  0
 26 27  1  0
 27 28  1  0
 28 29  1  0
 29 30  1  0
 23 31  1  0
 20 32  1  0
 32 33  2  0
 33 34  1  0
 34 35  2  0
 35 36  1  0
 36 37  2  0
 17  3  1  0
 37 18  1  0
 16  5  1  0
 31 20  1  0
 37 32  1  0
 12  7  1  0
 30 25  1  0
  4 38  1  0
  8 39  1  0
  9 40  1  0
 10 41  1  0
 11 42  1  0
 13 43  1  0
 14 44  1  0
 15 45  1  0
 17 46  1  0
 19 47  1  0
 19 48  1  0
 21 49  1  0
 21 50  1  0
 22 51  1  0
 22 52  1  0
 24 53  1  0
 24 54  1  0
 25 55  1  1
 26 56  1  0
 26 57  1  0
 27 58  1  0
 27 59  1  0
 28 60  1  0
 28 61  1  0
 29 62  1  0
 30 63  1  0
 30 64  1  0
 31 65  1  0
 31 66  1  0
 33 67  1  0
 34 68  1  0
 35 69  1  0
 36 70  1  0
M  END
>  <smiles>  (47) 
O=C(c1cc2c(-c3ccccn3)cccc2[nH]1)N1C[C@]2(CCN(CC3CCCNC3)C2)c2ccccc21

>  <score_type>  (47) 
oracle

>  <origin>  (47) 
autodockgpu

>  <m_score__min__energy>  (47) 
-10.640000000000001

>  <m_primary>  (47) 
energy

>  <rmsd>  (47) 
2.5073293687098333

>  <m_score__min__rmsd>  (47) 
2.5073293687098333

>  <meeko>  (47) 
{"free_energy": -9.68, "intermolecular_energy": -11.18, "internal_energy": -1.57, "cluster_size": 30, "cluster_id": 1, "rank_in_cluster": 23}

>  <energy>  (47) 
-9.39

>  <cluster_rmsd>  (47) 
0.0

>  <cluster>  (47) 
6

$$$$

     RDKit          3D

 70 76  0  0  1  0  0  0  0  0999 V2000
  142.0210   71.5590  221.5720 O   0  0  0  0  0  0  0  0  0  0  0  0
  140.9800   72.2380  221.8220 C   0  0  0  0  0  0  0  0  0  0  0  0
  139.9500   71.5510  222.5850 C   0  0  0  0  0  0  0  0  0  0  0  0
  140.1490   70.8130  223.7420 C   0  0  0  0  0  0  0  0  0  0  0  0
  138.9490   70.3490  224.1590 C   0  0  0  0  0  0  0  0  0  0  0  0
  138.5590   69.5660  225.2130 C   0  0  0  0  0  0  0  0  0  0  0  0
  139.4110   68.9940  226.2210 C   0  0  0  0  0  0  0  0  0  0  0  0
  140.2440   67.9180  226.0950 C   0  0  0  0  0  0  0  0  0  0  0  0
  141.0540   67.5130  227.1660 C   0  0  0  0  0  0  0  0  0  0  0  0
  141.0550   68.1620  228.3730 C   0  0  0  0  0  0  0  0  0  0  0  0
  140.1930   69.2610  228.4690 C   0  0  0  0  0  0  0  0  0  0  0  0
  139.4320   69.6210  227.4290 N   0  0  0  0  0  0  0  0  0  0  0  0
  137.2030   69.2730  225.2890 C   0  0  0  0  0  0  0  0  0  0  0  0
  136.2830   69.7340  224.3740 C   0  0  0  0  0  0  0  0  0  0  0  0
  136.6750   70.5240  223.3170 C   0  0  0  0  0  0  0  0  0  0  0  0
  138.0200   70.8220  223.2280 C   0  0  0  0  0  0  0  0  0  0  0  0
  138.6420   71.5460  222.2840 N   0  0  0  0  0  0  0  0  0  0  0  0
  140.8650   73.5960  221.3640 N   0  0  0  0  0  0  0  0  0  0  0  0
  139.6110   74.3080  221.4270 C   0  0  0  0  0  0  0  0  0  0  0  0
  139.9350   75.6930  220.9760 C   0  0  1  0  0  0  0  0  0  0  0  0
  139.0440   76.1540  219.8460 C   0  0  0  0  0  0  0  0  0  0  0  0
  138.8060   77.5880  220.2050 C   0  0  0  0  0  0  0  0  0  0  0  0
  139.0560   77.8150  221.5730 N   0  0  0  0  0  0  0  0  0  0  0  0
  139.7040   78.9950  221.9720 C   0  0  0  0  0  0  0  0  0  0  0  0
  141.1830   79.0740  221.9240 C   0  0  2  0  0  0  0  0  0  0  0  0
  141.8870   78.6510  223.1760 C   0  0  0  0  0  0  0  0  0  0  0  0
  142.1010   79.7380  224.1870 C   0  0  0  0  0  0  0  0  0  0  0  0
  142.5100   81.0500  223.6230 C   0  0  0  0  0  0  0  0  0  0  0  0
  142.1140   81.3420  222.3030 N   0  0  0  0  0  0  0  0  0  0  0  0
  141.8040   80.3080  221.4070 C   0  0  0  0  0  0  0  0  0  0  0  0
  139.6680   76.6380  222.0980 C   0  0  0  0  0  0  0  0  0  0  0  0
  141.3460   75.6250  220.5820 C   0  0  0  0  0  0  0  0  0  0  0  0
  142.1430   76.6250  220.0290 C   0  0  0  0  0  0  0  0  0  0  0  0
  143.4680   76.4220  219.7030 C   0  0  0  0  0  0  0  0  0  0  0  0
  144.0180   75.1820  219.9340 C   0  0  0  0  0  0  0  0  0  0  0  0
  143.2180   74.2100  220.4770 C   0  0  0  0  0  0  0  0  0  0  0  0
  141.8970   74.3880  220.8110 C   0  0  0  0  0  0  0  0  0  0  0  0
  141.1160   70.6356  224.2355 H   0  0  0  0  0  0  0  0  0  0  0  0
  140.2796   67.3645  225.1450 H   0  0  0  0  0  0  0  0  0  0  0  0
  141.7128   66.6423  227.0322 H   0  0  0  0  0  0  0  0  0  0  0  0
  141.6910   67.8407  229.2110 H   0  0  0  0  0  0  0  0  0  0  0  0
  140.1409   69.8332  229.4070 H   0  0  0  0  0  0  0  0  0  0  0  0
  136.8480   68.6437  226.1184 H   0  0  0  0  0  0  0  0  0  0  0  0
  135.2219   69.4678  224.4891 H   0  0  0  0  0  0  0  0  0  0  0  0
  135.9513   70.8998  222.5788 H   0  0  0  0  0  0  0  0  0  0  0  0
  138.2160   72.0300  221.4550 H   0  0  0  0  0  0  0  0  0  0  0  0
  138.8695   73.8464  220.7584 H   0  0  0  0  0  0  0  0  0  0  0  0
  139.1750   74.2918  222.4368 H   0  0  0  0  0  0  0  0  0  0  0  0
  139.5515   76.0639  218.8742 H   0  0  0  0  0  0  0  0  0  0  0  0
  138.1219   75.5640  219.7383 H   0  0  0  0  0  0  0  0  0  0  0  0
  139.4749   78.2242  219.6068 H   0  0  0  0  0  0  0  0  0  0  0  0
  137.7537   77.8312  219.9963 H   0  0  0  0  0  0  0  0  0  0  0  0
  139.3207   79.8018  221.3301 H   0  0  0  0  0  0  0  0  0  0  0  0
  139.4794   79.0590  223.0469 H   0  0  0  0  0  0  0  0  0  0  0  0
  141.3444   78.3177  221.1417 H   0  0  0  0  0  0  0  0  0  0  0  0
  141.2905   77.8578  223.6503 H   0  0  0  0  0  0  0  0  0  0  0  0
  142.8895   78.3212  222.8658 H   0  0  0  0  0  0  0  0  0  0  0  0
  141.1595   79.8820  224.7373 H   0  0  0  0  0  0  0  0  0  0  0  0
  142.9336   79.4049  224.8241 H   0  0  0  0  0  0  0  0  0  0  0  0
  142.0923   81.8328  224.2732 H   0  0  0  0  0  0  0  0  0  0  0  0
  143.6085   81.0081  223.5834 H   0  0  0  0  0  0  0  0  0  0  0  0
  141.5650   82.2040  222.1800 H   0  0  0  0  0  0  0  0  0  0  0  0
  141.1148   80.7262  220.6586 H   0  0  0  0  0  0  0  0  0  0  0  0
  142.7860   79.9746  221.0401 H   0  0  0  0  0  0  0  0  0  0  0  0
  140.6148   76.9025  222.5916 H   0  0  0  0  0  0  0  0  0  0  0  0
  138.9997   76.1657  222.8330 H   0  0  0  0  0  0  0  0  0  0  0  0
  141.6987   77.6144  219.8453 H   0  0  0  0  0  0  0  0  0  0  0  0
  144.0710   77.2328  219.2683 H   0  0  0  0  0  0  0  0  0  0  0  0
  145.0706   74.9763  219.6897 H   0  0  0  0  0  0  0  0  0  0  0  0
  143.6638   73.2207  220.6575 H   0  0  0  0  0  0  0  0  0  0  0  0
  1  2  2  0
  2  3  1  0
  3  4  2  0
  4  5  1  0
  5  6  2  0
  6  7  1  0
  7  8  2  0
  8  9  1  0
  9 10  2  0
 10 11  1  0
 11 12  2  0
  6 13  1  0
 13 14  2  0
 14 15  1  0
 15 16  2  0
 16 17  1  0
  2 18  1  0
 18 19  1  0
 20 19  1  1
 20 21  1  0
 21 22  1  0
 22 23  1  0
 23 24  1  0
 24 25  1  0
 25 26  1  0
 26 27  1  0
 27 28  1  0
 28 29  1  0
 29 30  1  0
 23 31  1  0
 20 32  1  0
 32 33  2  0
 33 34  1  0
 34 35  2  0
 35 36  1  0
 36 37  2  0
 17  3  1  0
 37 18  1  0
 16  5  1  0
 31 20  1  0
 37 32  1  0
 12  7  1  0
 30 25  1  0
  4 38  1  0
  8 39  1  0
  9 40  1  0
 10 41  1  0
 11 42  1  0
 13 43  1  0
 14 44  1  0
 15 45  1  0
 17 46  1  0
 19 47  1  0
 19 48  1  0
 21 49  1  0
 21 50  1  0
 22 51  1  0
 22 52  1  0
 24 53  1  0
 24 54  1  0
 25 55  1  6
 26 56  1  0
 26 57  1  0
 27 58  1  0
 27 59  1  0
 28 60  1  0
 28 61  1  0
 29 62  1  0
 30 63  1  0
 30 64  1  0
 31 65  1  0
 31 66  1  0
 33 67  1  0
 34 68  1  0
 35 69  1  0
 36 70  1  0
M  END
>  <smiles>  (48) 
O=C(c1cc2c(-c3ccccn3)cccc2[nH]1)N1C[C@]2(CCN(CC3CCCNC3)C2)c2ccccc21

>  <score_type>  (48) 
oracle

>  <origin>  (48) 
autodockgpu

>  <m_score__min__energy>  (48) 
-10.640000000000001

>  <m_primary>  (48) 
energy

>  <rmsd>  (48) 
3.216579229997378

>  <m_score__min__rmsd>  (48) 
3.216579229997378

>  <meeko>  (48) 
{"free_energy": -9.8, "intermolecular_energy": -11.29, "internal_energy": -1.82, "cluster_size": 30, "cluster_id": 1, "rank_in_cluster": 16}

>  <energy>  (48) 
-9.31

>  <cluster_rmsd>  (48) 
0.0

>  <cluster>  (48) 
7

$$$$

     RDKit          3D

 70 76  0  0  1  0  0  0  0  0999 V2000
  142.2840   72.3590  220.0660 O   0  0  0  0  0  0  0  0  0  0  0  0
  141.3280   72.8010  220.7720 C   0  0  0  0  0  0  0  0  0  0  0  0
  140.6890   71.8290  221.6440 C   0  0  0  0  0  0  0  0  0  0  0  0
  140.7500   71.8130  223.0290 C   0  0  0  0  0  0  0  0  0  0  0  0
  140.0140   70.7680  223.4730 C   0  0  0  0  0  0  0  0  0  0  0  0
  139.7440   70.2730  224.7210 C   0  0  0  0  0  0  0  0  0  0  0  0
  140.2210   70.7900  225.9750 C   0  0  0  0  0  0  0  0  0  0  0  0
  141.0590   71.8510  226.1730 C   0  0  0  0  0  0  0  0  0  0  0  0
  141.3920   72.2670  227.4700 C   0  0  0  0  0  0  0  0  0  0  0  0
  140.9020   71.6440  228.5890 C   0  0  0  0  0  0  0  0  0  0  0  0
  140.0440   70.5630  228.3520 C   0  0  0  0  0  0  0  0  0  0  0  0
  139.7480   70.1910  227.1020 N   0  0  0  0  0  0  0  0  0  0  0  0
  138.9500   69.1330  224.7670 C   0  0  0  0  0  0  0  0  0  0  0  0
  138.4500   68.5200  223.6400 C   0  0  0  0  0  0  0  0  0  0  0  0
  138.7200   69.0210  222.3870 C   0  0  0  0  0  0  0  0  0  0  0  0
  139.5080   70.1520  222.3250 C   0  0  0  0  0  0  0  0  0  0  0  0
  139.9250   70.8060  221.2300 N   0  0  0  0  0  0  0  0  0  0  0  0
  140.9330   74.1810  220.6870 N   0  0  0  0  0  0  0  0  0  0  0  0
  139.7010   74.6500  221.2730 C   0  0  0  0  0  0  0  0  0  0  0  0
  139.7200   76.1290  221.0720 C   0  0  1  0  0  0  0  0  0  0  0  0
  138.4690   76.6320  220.3870 C   0  0  0  0  0  0  0  0  0  0  0  0
  138.2150   77.9160  221.1130 C   0  0  0  0  0  0  0  0  0  0  0  0
  138.8670   77.9290  222.3630 N   0  0  0  0  0  0  0  0  0  0  0  0
  139.4860   79.1070  222.8090 C   0  0  0  0  0  0  0  0  0  0  0  0
  140.8210   79.4810  222.2870 C   0  0  2  0  0  0  0  0  0  0  0  0
  141.9790   79.0850  223.1500 C   0  0  0  0  0  0  0  0  0  0  0  0
  142.3710   80.0890  224.1940 C   0  0  0  0  0  0  0  0  0  0  0  0
  142.3500   81.5040  223.7430 C   0  0  0  0  0  0  0  0  0  0  0  0
  141.4720   81.8400  222.6940 N   0  0  0  0  0  0  0  0  0  0  0  0
  141.0250   80.8580  221.7990 C   0  0  0  0  0  0  0  0  0  0  0  0
  139.7330   76.7940  222.4050 C   0  0  0  0  0  0  0  0  0  0  0  0
  140.9280   76.3710  220.2760 C   0  0  0  0  0  0  0  0  0  0  0  0
  141.3980   77.5740  219.7550 C   0  0  0  0  0  0  0  0  0  0  0  0
  142.5600   77.6580  219.0180 C   0  0  0  0  0  0  0  0  0  0  0  0
  143.2790   76.5070  218.7910 C   0  0  0  0  0  0  0  0  0  0  0  0
  142.8000   75.3320  219.3110 C   0  0  0  0  0  0  0  0  0  0  0  0
  141.6460   75.2230  220.0490 C   0  0  0  0  0  0  0  0  0  0  0  0
  141.3016   72.5268  223.6584 H   0  0  0  0  0  0  0  0  0  0  0  0
  141.4766   72.3841  225.3062 H   0  0  0  0  0  0  0  0  0  0  0  0
  142.0706   73.1238  227.5943 H   0  0  0  0  0  0  0  0  0  0  0  0
  141.1655   71.9717  229.6055 H   0  0  0  0  0  0  0  0  0  0  0  0
  139.6098   70.0151  229.2013 H   0  0  0  0  0  0  0  0  0  0  0  0
  138.7099   68.7004  225.7495 H   0  0  0  0  0  0  0  0  0  0  0  0
  137.8273   67.6190  223.7424 H   0  0  0  0  0  0  0  0  0  0  0  0
  138.3263   68.5426  221.4781 H   0  0  0  0  0  0  0  0  0  0  0  0
  139.7120   70.5860  220.2250 H   0  0  0  0  0  0  0  0  0  0  0  0
  138.8349   74.2012  220.7646 H   0  0  0  0  0  0  0  0  0  0  0  0
  139.6169   74.3770  222.3353 H   0  0  0  0  0  0  0  0  0  0  0  0
  138.6423   76.8061  219.3148 H   0  0  0  0  0  0  0  0  0  0  0  0
  137.6266   75.9256  220.4250 H   0  0  0  0  0  0  0  0  0  0  0  0
  138.5880   78.7529  220.5044 H   0  0  0  0  0  0  0  0  0  0  0  0
  137.1325   78.0139  221.2822 H   0  0  0  0  0  0  0  0  0  0  0  0
  138.8053   79.9361  222.5657 H   0  0  0  0  0  0  0  0  0  0  0  0
  139.6756   78.9076  223.8740 H   0  0  0  0  0  0  0  0  0  0  0  0
  140.8053   78.8522  221.3846 H   0  0  0  0  0  0  0  0  0  0  0  0
  141.7171   78.1470  223.6614 H   0  0  0  0  0  0  0  0  0  0  0  0
  142.8437   78.9919  222.4764 H   0  0  0  0  0  0  0  0  0  0  0  0
  141.6756   79.9903  225.0406 H   0  0  0  0  0  0  0  0  0  0  0  0
  143.4152   79.8660  224.4584 H   0  0  0  0  0  0  0  0  0  0  0  0
  142.0778   82.1223  224.6111 H   0  0  0  0  0  0  0  0  0  0  0  0
  143.3556   81.6825  223.3343 H   0  0  0  0  0  0  0  0  0  0  0  0
  140.7910   82.5840  222.9000 H   0  0  0  0  0  0  0  0  0  0  0  0
  140.0607   81.2033  221.3978 H   0  0  0  0  0  0  0  0  0  0  0  0
  141.8523   80.7618  221.0804 H   0  0  0  0  0  0  0  0  0  0  0  0
  140.7560   77.1186  222.6460 H   0  0  0  0  0  0  0  0  0  0  0  0
  139.3883   76.0899  223.1767 H   0  0  0  0  0  0  0  0  0  0  0  0
  140.8202   78.4919  219.9385 H   0  0  0  0  0  0  0  0  0  0  0  0
  142.9048   78.6239  218.6202 H   0  0  0  0  0  0  0  0  0  0  0  0
  144.2120   76.5288  218.2087 H   0  0  0  0  0  0  0  0  0  0  0  0
  143.3784   74.4151  219.1248 H   0  0  0  0  0  0  0  0  0  0  0  0
  1  2  2  0
  2  3  1  0
  3  4  2  0
  4  5  1  0
  5  6  2  0
  6  7  1  0
  7  8  2  0
  8  9  1  0
  9 10  2  0
 10 11  1  0
 11 12  2  0
  6 13  1  0
 13 14  2  0
 14 15  1  0
 15 16  2  0
 16 17  1  0
  2 18  1  0
 18 19  1  0
 20 19  1  1
 20 21  1  0
 21 22  1  0
 22 23  1  0
 23 24  1  0
 24 25  1  0
 25 26  1  0
 26 27  1  0
 27 28  1  0
 28 29  1  0
 29 30  1  0
 23 31  1  0
 20 32  1  0
 32 33  2  0
 33 34  1  0
 34 35  2  0
 35 36  1  0
 36 37  2  0
 17  3  1  0
 37 18  1  0
 16  5  1  0
 31 20  1  0
 37 32  1  0
 12  7  1  0
 30 25  1  0
  4 38  1  0
  8 39  1  0
  9 40  1  0
 10 41  1  0
 11 42  1  0
 13 43  1  0
 14 44  1  0
 15 45  1  0
 17 46  1  0
 19 47  1  0
 19 48  1  0
 21 49  1  0
 21 50  1  0
 22 51  1  0
 22 52  1  0
 24 53  1  0
 24 54  1  0
 25 55  1  6
 26 56  1  0
 26 57  1  0
 27 58  1  0
 27 59  1  0
 28 60  1  0
 28 61  1  0
 29 62  1  0
 30 63  1  0
 30 64  1  0
 31 65  1  0
 31 66  1  0
 33 67  1  0
 34 68  1  0
 35 69  1  0
 36 70  1  0
M  END
>  <smiles>  (49) 
O=C(c1cc2c(-c3ccccn3)cccc2[nH]1)N1C[C@]2(CCN(CC3CCCNC3)C2)c2ccccc21

>  <score_type>  (49) 
oracle

>  <origin>  (49) 
autodockgpu

>  <m_score__min__energy>  (49) 
-10.640000000000001

>  <m_primary>  (49) 
energy

>  <rmsd>  (49) 
2.893292023242123

>  <m_score__min__rmsd>  (49) 
2.893292023242123

>  <meeko>  (49) 
{"free_energy": -9.67, "intermolecular_energy": -11.16, "internal_energy": -1.87, "cluster_size": 30, "cluster_id": 1, "rank_in_cluster": 24}

>  <energy>  (49) 
-9.1

>  <cluster_rmsd>  (49) 
0.0

>  <cluster>  (49) 
8

$$$$

     RDKit          3D

 70 76  0  0  1  0  0  0  0  0999 V2000
  142.3640   72.0320  220.4080 O   0  0  0  0  0  0  0  0  0  0  0  0
  141.4610   72.6620  221.0370 C   0  0  0  0  0  0  0  0  0  0  0  0
  140.5930   71.8490  221.8720 C   0  0  0  0  0  0  0  0  0  0  0  0
  140.6900   71.7010  223.2480 C   0  0  0  0  0  0  0  0  0  0  0  0
  139.6950   70.8820  223.6570 C   0  0  0  0  0  0  0  0  0  0  0  0
  139.3310   70.3840  224.8800 C   0  0  0  0  0  0  0  0  0  0  0  0
  139.9790   70.6350  226.1390 C   0  0  0  0  0  0  0  0  0  0  0  0
  140.1280   69.7700  227.1860 C   0  0  0  0  0  0  0  0  0  0  0  0
  140.8360   70.1530  228.3340 C   0  0  0  0  0  0  0  0  0  0  0  0
  141.4080   71.3920  228.4660 C   0  0  0  0  0  0  0  0  0  0  0  0
  141.2390   72.2540  227.3750 C   0  0  0  0  0  0  0  0  0  0  0  0
  140.5570   71.8580  226.2950 N   0  0  0  0  0  0  0  0  0  0  0  0
  138.2390   69.5240  224.8900 C   0  0  0  0  0  0  0  0  0  0  0  0
  137.5450   69.1780  223.7520 C   0  0  0  0  0  0  0  0  0  0  0  0
  137.9100   69.6810  222.5240 C   0  0  0  0  0  0  0  0  0  0  0  0
  138.9940   70.5360  222.4980 C   0  0  0  0  0  0  0  0  0  0  0  0
  139.5490   71.1290  221.4300 N   0  0  0  0  0  0  0  0  0  0  0  0
  141.3380   74.0880  220.9050 N   0  0  0  0  0  0  0  0  0  0  0  0
  140.3760   74.8360  221.6780 C   0  0  0  0  0  0  0  0  0  0  0  0
  140.6430   76.2650  221.3420 C   0  0  1  0  0  0  0  0  0  0  0  0
  139.4000   76.9880  220.8740 C   0  0  0  0  0  0  0  0  0  0  0  0
  139.5650   78.3310  221.5160 C   0  0  0  0  0  0  0  0  0  0  0  0
  140.4560   78.2660  222.6060 N   0  0  0  0  0  0  0  0  0  0  0  0
  141.3750   79.3070  222.8110 C   0  0  0  0  0  0  0  0  0  0  0  0
  140.9090   80.6040  223.3550 C   0  0  2  0  0  0  0  0  0  0  0  0
  139.4930   80.6220  223.8400 C   0  0  0  0  0  0  0  0  0  0  0  0
  138.4650   80.9620  222.8010 C   0  0  0  0  0  0  0  0  0  0  0  0
  138.8490   82.0560  221.8720 C   0  0  0  0  0  0  0  0  0  0  0  0
  140.2230   82.2620  221.6410 N   0  0  0  0  0  0  0  0  0  0  0  0
  141.1740   81.8290  222.5760 C   0  0  0  0  0  0  0  0  0  0  0  0
  141.0700   76.9770  222.5800 C   0  0  0  0  0  0  0  0  0  0  0  0
  141.6780   76.2060  220.3050 C   0  0  0  0  0  0  0  0  0  0  0  0
  142.2550   77.2550  219.5920 C   0  0  0  0  0  0  0  0  0  0  0  0
  143.2270   77.0550  218.6360 C   0  0  0  0  0  0  0  0  0  0  0  0
  143.6400   75.7680  218.3780 C   0  0  0  0  0  0  0  0  0  0  0  0
  143.0600   74.7490  219.0880 C   0  0  0  0  0  0  0  0  0  0  0  0
  142.0900   74.9220  220.0460 C   0  0  0  0  0  0  0  0  0  0  0  0
  141.4463   72.1694  223.8950 H   0  0  0  0  0  0  0  0  0  0  0  0
  139.6883   68.7634  227.1278 H   0  0  0  0  0  0  0  0  0  0  0  0
  140.9362   69.4327  229.1593 H   0  0  0  0  0  0  0  0  0  0  0  0
  141.9625   71.6892  229.3683 H   0  0  0  0  0  0  0  0  0  0  0  0
  141.6709   73.2652  227.4068 H   0  0  0  0  0  0  0  0  0  0  0  0
  137.9141   69.1001  225.8516 H   0  0  0  0  0  0  0  0  0  0  0  0
  136.6887   68.4914  223.8253 H   0  0  0  0  0  0  0  0  0  0  0  0
  137.3642   69.4146  221.6069 H   0  0  0  0  0  0  0  0  0  0  0  0
  139.2490   71.0640  220.4250 H   0  0  0  0  0  0  0  0  0  0  0  0
  139.3504   74.5567  221.3948 H   0  0  0  0  0  0  0  0  0  0  0  0
  140.4679   74.6395  222.7564 H   0  0  0  0  0  0  0  0  0  0  0  0
  139.3731   77.0692  219.7773 H   0  0  0  0  0  0  0  0  0  0  0  0
  138.4621   76.4792  221.1414 H   0  0  0  0  0  0  0  0  0  0  0  0
  139.9586   79.0390  220.7719 H   0  0  0  0  0  0  0  0  0  0  0  0
  138.5842   78.6645  221.8858 H   0  0  0  0  0  0  0  0  0  0  0  0
  142.1381   78.9260  223.5056 H   0  0  0  0  0  0  0  0  0  0  0  0
  141.7041   79.5610  221.7926 H   0  0  0  0  0  0  0  0  0  0  0  0
  141.5909   80.6541  224.2167 H   0  0  0  0  0  0  0  0  0  0  0  0
  139.2571   79.6240  224.2380 H   0  0  0  0  0  0  0  0  0  0  0  0
  139.4394   81.4206  224.5946 H   0  0  0  0  0  0  0  0  0  0  0  0
  138.2722   80.0588  222.2034 H   0  0  0  0  0  0  0  0  0  0  0  0
  137.5810   81.3202  223.3489 H   0  0  0  0  0  0  0  0  0  0  0  0
  138.3801   81.8425  220.9001 H   0  0  0  0  0  0  0  0  0  0  0  0
  138.5076   82.9767  222.3677 H   0  0  0  0  0  0  0  0  0  0  0  0
  140.5250   82.2130  220.6580 H   0  0  0  0  0  0  0  0  0  0  0  0
  142.1131   81.6646  222.0273 H   0  0  0  0  0  0  0  0  0  0  0  0
  141.1789   82.6262  223.3339 H   0  0  0  0  0  0  0  0  0  0  0  0
  142.1643   77.0889  222.5831 H   0  0  0  0  0  0  0  0  0  0  0  0
  140.7654   76.4006  223.4660 H   0  0  0  0  0  0  0  0  0  0  0  0
  141.9217   78.2824  219.8004 H   0  0  0  0  0  0  0  0  0  0  0  0
  143.6631   77.9053  218.0912 H   0  0  0  0  0  0  0  0  0  0  0  0
  144.4136   75.5628  217.6234 H   0  0  0  0  0  0  0  0  0  0  0  0
  143.3938   73.7224  218.8765 H   0  0  0  0  0  0  0  0  0  0  0  0
  1  2  2  0
  2  3  1  0
  3  4  2  0
  4  5  1  0
  5  6  2  0
  6  7  1  0
  7  8  2  0
  8  9  1  0
  9 10  2  0
 10 11  1  0
 11 12  2  0
  6 13  1  0
 13 14  2  0
 14 15  1  0
 15 16  2  0
 16 17  1  0
  2 18  1  0
 18 19  1  0
 20 19  1  1
 20 21  1  0
 21 22  1  0
 22 23  1  0
 23 24  1  0
 24 25  1  0
 25 26  1  0
 26 27  1  0
 27 28  1  0
 28 29  1  0
 29 30  1  0
 23 31  1  0
 20 32  1  0
 32 33  2  0
 33 34  1  0
 34 35  2  0
 35 36  1  0
 36 37  2  0
 17  3  1  0
 37 18  1  0
 16  5  1  0
 31 20  1  0
 37 32  1  0
 12  7  1  0
 30 25  1  0
  4 38  1  0
  8 39  1  0
  9 40  1  0
 10 41  1  0
 11 42  1  0
 13 43  1  0
 14 44  1  0
 15 45  1  0
 17 46  1  0
 19 47  1  0
 19 48  1  0
 21 49  1  0
 21 50  1  0
 22 51  1  0
 22 52  1  0
 24 53  1  0
 24 54  1  0
 25 55  1  1
 26 56  1  0
 26 57  1  0
 27 58  1  0
 27 59  1  0
 28 60  1  0
 28 61  1  0
 29 62  1  0
 30 63  1  0
 30 64  1  0
 31 65  1  0
 31 66  1  0
 33 67  1  0
 34 68  1  0
 35 69  1  0
 36 70  1  0
M  END
>  <smiles>  (50) 
O=C(c1cc2c(-c3ccccn3)cccc2[nH]1)N1C[C@]2(CCN(CC3CCCNC3)C2)c2ccccc21

>  <score_type>  (50) 
oracle

>  <origin>  (50) 
autodockgpu

>  <m_score__min__energy>  (50) 
-10.640000000000001

>  <m_primary>  (50) 
energy

>  <rmsd>  (50) 
2.7693107076314982

>  <m_score__min__rmsd>  (50) 
2.7693107076314982

>  <meeko>  (50) 
{"free_energy": -9.62, "intermolecular_energy": -11.12, "internal_energy": -1.56, "cluster_size": 30, "cluster_id": 1, "rank_in_cluster": 26}

>  <energy>  (50) 
-8.47

>  <cluster_rmsd>  (50) 
0.0

>  <cluster>  (50) 
9

$$$$

     RDKit          3D

 70 76  0  0  1  0  0  0  0  0999 V2000
  140.2420   74.8900  221.9900 O   0  0  0  0  0  0  0  0  0  0  0  0
  139.8970   76.1020  221.9320 C   0  0  0  0  0  0  0  0  0  0  0  0
  138.5720   76.4330  222.4220 C   0  0  0  0  0  0  0  0  0  0  0  0
  138.0530   77.6950  222.6140 C   0  0  0  0  0  0  0  0  0  0  0  0
  136.7780   77.5470  223.0870 C   0  0  0  0  0  0  0  0  0  0  0  0
  135.8130   78.4430  223.4640 C   0  0  0  0  0  0  0  0  0  0  0  0
  135.9070   79.8700  223.4590 C   0  0  0  0  0  0  0  0  0  0  0  0
  135.1570   80.7720  222.7610 C   0  0  0  0  0  0  0  0  0  0  0  0
  135.3300   82.1600  222.8960 C   0  0  0  0  0  0  0  0  0  0  0  0
  136.2820   82.6590  223.7550 C   0  0  0  0  0  0  0  0  0  0  0  0
  137.0310   81.7310  224.4530 C   0  0  0  0  0  0  0  0  0  0  0  0
  136.8360   80.4230  224.2960 N   0  0  0  0  0  0  0  0  0  0  0  0
  134.6200   77.8820  223.9310 C   0  0  0  0  0  0  0  0  0  0  0  0
  134.4110   76.5280  224.0130 C   0  0  0  0  0  0  0  0  0  0  0  0
  135.3800   75.6440  223.6320 C   0  0  0  0  0  0  0  0  0  0  0  0
  136.5740   76.1770  223.1640 C   0  0  0  0  0  0  0  0  0  0  0  0
  137.6610   75.5070  222.7610 N   0  0  0  0  0  0  0  0  0  0  0  0
  140.7730   77.0890  221.4100 N   0  0  0  0  0  0  0  0  0  0  0  0
  141.2500   77.1430  220.0180 C   0  0  0  0  0  0  0  0  0  0  0  0
  141.3450   78.6400  219.7760 C   0  0  1  0  0  0  0  0  0  0  0  0
  142.4690   78.9820  218.8260 C   0  0  0  0  0  0  0  0  0  0  0  0
  141.9120   80.1640  218.0800 C   0  0  0  0  0  0  0  0  0  0  0  0
  140.4860   79.9500  217.9770 N   0  0  0  0  0  0  0  0  0  0  0  0
  139.8160   81.2230  218.0150 C   0  0  0  0  0  0  0  0  0  0  0  0
  139.6120   81.7240  219.4160 C   0  0  1  0  0  0  0  0  0  0  0  0
  140.3270   83.0270  219.7050 C   0  0  0  0  0  0  0  0  0  0  0  0
  140.4790   83.0820  221.2210 C   0  0  0  0  0  0  0  0  0  0  0  0
  139.1680   82.5660  221.8010 C   0  0  0  0  0  0  0  0  0  0  0  0
  138.0680   82.8010  220.8880 N   0  0  0  0  0  0  0  0  0  0  0  0
  138.1410   81.9970  219.6880 C   0  0  0  0  0  0  0  0  0  0  0  0
  140.1070   79.2290  219.1970 C   0  0  0  0  0  0  0  0  0  0  0  0
  141.7150   79.1790  221.1150 C   0  0  0  0  0  0  0  0  0  0  0  0
  142.2940   80.3300  221.5890 C   0  0  0  0  0  0  0  0  0  0  0  0
  142.5290   80.5440  222.9370 C   0  0  0  0  0  0  0  0  0  0  0  0
  142.1870   79.5960  223.8660 C   0  0  0  0  0  0  0  0  0  0  0  0
  141.6040   78.4350  223.4000 C   0  0  0  0  0  0  0  0  0  0  0  0
  141.3650   78.2150  222.0500 C   0  0  0  0  0  0  0  0  0  0  0  0
  138.5694   78.6471  222.4220 H   0  0  0  0  0  0  0  0  0  0  0  0
  134.3891   80.3987  222.0675 H   0  0  0  0  0  0  0  0  0  0  0  0
  134.7022   82.8499  222.3130 H   0  0  0  0  0  0  0  0  0  0  0  0
  136.4387   83.7406  223.8796 H   0  0  0  0  0  0  0  0  0  0  0  0
  137.8045   82.0799  225.1530 H   0  0  0  0  0  0  0  0  0  0  0  0
  133.8115   78.5575  224.2473 H   0  0  0  0  0  0  0  0  0  0  0  0
  133.4497   76.1495  224.3908 H   0  0  0  0  0  0  0  0  0  0  0  0
  135.2216   74.5572  223.6932 H   0  0  0  0  0  0  0  0  0  0  0  0
  137.7900   74.4690  222.7130 H   0  0  0  0  0  0  0  0  0  0  0  0
  142.2315   76.6578  219.9125 H   0  0  0  0  0  0  0  0  0  0  0  0
  140.5977   76.6183  219.3044 H   0  0  0  0  0  0  0  0  0  0  0  0
  143.3844   79.2519  219.3731 H   0  0  0  0  0  0  0  0  0  0  0  0
  142.7615   78.1473  218.1721 H   0  0  0  0  0  0  0  0  0  0  0  0
  142.1179   81.0930  218.6319 H   0  0  0  0  0  0  0  0  0  0  0  0
  142.3726   80.2596  217.0857 H   0  0  0  0  0  0  0  0  0  0  0  0
  140.4213   81.9568  217.4626 H   0  0  0  0  0  0  0  0  0  0  0  0
  138.8235   81.0921  217.5591 H   0  0  0  0  0  0  0  0  0  0  0  0
  140.0185   80.9247  220.0531 H   0  0  0  0  0  0  0  0  0  0  0  0
  141.3138   83.0397  219.2192 H   0  0  0  0  0  0  0  0  0  0  0  0
  139.7683   83.8927  219.3197 H   0  0  0  0  0  0  0  0  0  0  0  0
  141.3153   82.4443  221.5433 H   0  0  0  0  0  0  0  0  0  0  0  0
  140.6932   84.1048  221.5646 H   0  0  0  0  0  0  0  0  0  0  0  0
  139.2572   81.4854  221.9861 H   0  0  0  0  0  0  0  0  0  0  0  0
  138.9650   83.1024  222.7396 H   0  0  0  0  0  0  0  0  0  0  0  0
  138.0110   83.8310  220.6940 H   0  0  0  0  0  0  0  0  0  0  0  0
  137.6033   81.0490  219.8367 H   0  0  0  0  0  0  0  0  0  0  0  0
  137.6785   82.5215  218.8389 H   0  0  0  0  0  0  0  0  0  0  0  0
  139.6505   79.9243  219.9168 H   0  0  0  0  0  0  0  0  0  0  0  0
  139.3753   78.4403  218.9675 H   0  0  0  0  0  0  0  0  0  0  0  0
  142.5822   81.1119  220.8710 H   0  0  0  0  0  0  0  0  0  0  0  0
  142.9950   81.4847  223.2655 H   0  0  0  0  0  0  0  0  0  0  0  0
  142.3697   79.7540  224.9391 H   0  0  0  0  0  0  0  0  0  0  0  0
  141.3188   77.6569  224.1233 H   0  0  0  0  0  0  0  0  0  0  0  0
  1  2  2  0
  2  3  1  0
  3  4  2  0
  4  5  1  0
  5  6  2  0
  6  7  1  0
  7  8  2  0
  8  9  1  0
  9 10  2  0
 10 11  1  0
 11 12  2  0
  6 13  1  0
 13 14  2  0
 14 15  1  0
 15 16  2  0
 16 17  1  0
  2 18  1  0
 18 19  1  0
 20 19  1  1
 20 21  1  0
 21 22  1  0
 22 23  1  0
 23 24  1  0
 24 25  1  0
 25 26  1  0
 26 27  1  0
 27 28  1  0
 28 29  1  0
 29 30  1  0
 23 31  1  0
 20 32  1  0
 32 33  2  0
 33 34  1  0
 34 35  2  0
 35 36  1  0
 36 37  2  0
 17  3  1  0
 37 18  1  0
 16  5  1  0
 31 20  1  0
 37 32  1  0
 12  7  1  0
 30 25  1  0
  4 38  1  0
  8 39  1  0
  9 40  1  0
 10 41  1  0
 11 42  1  0
 13 43  1  0
 14 44  1  0
 15 45  1  0
 17 46  1  0
 19 47  1  0
 19 48  1  0
 21 49  1  0
 21 50  1  0
 22 51  1  0
 22 52  1  0
 24 53  1  0
 24 54  1  0
 25 55  1  1
 26 56  1  0
 26 57  1  0
 27 58  1  0
 27 59  1  0
 28 60  1  0
 28 61  1  0
 29 62  1  0
 30 63  1  0
 30 64  1  0
 31 65  1  0
 31 66  1  0
 33 67  1  0
 34 68  1  0
 35 69  1  0
 36 70  1  0
M  END
>  <smiles>  (51) 
O=C(c1cc2c(-c3ccccn3)cccc2[nH]1)N1C[C@]2(CCN(CC3CCCNC3)C2)c2ccccc21

>  <score_type>  (51) 
oracle

>  <origin>  (51) 
autodockgpu

>  <m_score__min__energy>  (51) 
-9.9199999999999999

>  <m_primary>  (51) 
energy

>  <rmsd>  (51) 
7.817610174564846

>  <m_score__min__rmsd>  (51) 
7.817610174564846

>  <meeko>  (51) 
{"free_energy": -7.43, "intermolecular_energy": -8.92, "internal_energy": -3.44, "cluster_size": 7, "cluster_id": 13, "rank_in_cluster": 6}

>  <energy>  (51) 
-9.92

>  <cluster_rmsd>  (51) 
0.0

>  <cluster>  (51) 
1

$$$$

     RDKit          3D

 70 76  0  0  1  0  0  0  0  0999 V2000
  140.3660   74.9990  221.9890 O   0  0  0  0  0  0  0  0  0  0  0  0
  139.9970   76.2030  221.9280 C   0  0  0  0  0  0  0  0  0  0  0  0
  138.6660   76.5100  222.4160 C   0  0  0  0  0  0  0  0  0  0  0  0
  138.1220   77.7620  222.6070 C   0  0  0  0  0  0  0  0  0  0  0  0
  136.8500   77.5890  223.0770 C   0  0  0  0  0  0  0  0  0  0  0  0
  135.8670   78.4670  223.4530 C   0  0  0  0  0  0  0  0  0  0  0  0
  135.9350   79.8960  223.4490 C   0  0  0  0  0  0  0  0  0  0  0  0
  135.1610   80.7840  222.7590 C   0  0  0  0  0  0  0  0  0  0  0  0
  135.3090   82.1750  222.8940 C   0  0  0  0  0  0  0  0  0  0  0  0
  136.2600   82.6910  223.7440 C   0  0  0  0  0  0  0  0  0  0  0  0
  137.0320   81.7770  224.4350 C   0  0  0  0  0  0  0  0  0  0  0  0
  136.8610   80.4660  224.2780 N   0  0  0  0  0  0  0  0  0  0  0  0
  134.6850   77.8840  223.9190 C   0  0  0  0  0  0  0  0  0  0  0  0
  134.5010   76.5260  224.0010 C   0  0  0  0  0  0  0  0  0  0  0  0
  135.4860   75.6610  223.6200 C   0  0  0  0  0  0  0  0  0  0  0  0
  136.6710   76.2160  223.1550 C   0  0  0  0  0  0  0  0  0  0  0  0
  137.7720   75.5670  222.7530 N   0  0  0  0  0  0  0  0  0  0  0  0
  140.8530   77.2060  221.4030 N   0  0  0  0  0  0  0  0  0  0  0  0
  141.3260   77.2700  220.0100 C   0  0  0  0  0  0  0  0  0  0  0  0
  141.3930   78.7680  219.7680 C   0  0  1  0  0  0  0  0  0  0  0  0
  142.5080   79.1300  218.8150 C   0  0  0  0  0  0  0  0  0  0  0  0
  141.9280   80.3020  218.0710 C   0  0  0  0  0  0  0  0  0  0  0  0
  140.5060   80.0620  217.9720 N   0  0  0  0  0  0  0  0  0  0  0  0
  139.8130   81.3230  218.0110 C   0  0  0  0  0  0  0  0  0  0  0  0
  139.6000   81.8170  219.4120 C   0  0  1  0  0  0  0  0  0  0  0  0
  140.2920   83.1330  219.7040 C   0  0  0  0  0  0  0  0  0  0  0  0
  140.4430   83.1890  221.2190 C   0  0  0  0  0  0  0  0  0  0  0  0
  139.1420   82.6490  221.7990 C   0  0  0  0  0  0  0  0  0  0  0  0
  138.0370   82.8650  220.8870 N   0  0  0  0  0  0  0  0  0  0  0  0
  138.1240   82.0650  219.6860 C   0  0  0  0  0  0  0  0  0  0  0  0
  140.1430   79.3340  219.1920 C   0  0  0  0  0  0  0  0  0  0  0  0
  141.7560   79.3140  221.1060 C   0  0  0  0  0  0  0  0  0  0  0  0
  142.3160   80.4750  221.5780 C   0  0  0  0  0  0  0  0  0  0  0  0
  142.5500   80.6930  222.9260 C   0  0  0  0  0  0  0  0  0  0  0  0
  142.2280   79.7380  223.8560 C   0  0  0  0  0  0  0  0  0  0  0  0
  141.6660   78.5670  223.3910 C   0  0  0  0  0  0  0  0  0  0  0  0
  141.4270   78.3430  222.0420 C   0  0  0  0  0  0  0  0  0  0  0  0
  138.6201   78.7240  222.4162 H   0  0  0  0  0  0  0  0  0  0  0  0
  134.3937   80.3967  222.0725 H   0  0  0  0  0  0  0  0  0  0  0  0
  134.6624   82.8535  222.3182 H   0  0  0  0  0  0  0  0  0  0  0  0
  136.3985   83.7753  223.8671 H   0  0  0  0  0  0  0  0  0  0  0  0
  137.8041   82.1400  225.1294 H   0  0  0  0  0  0  0  0  0  0  0  0
  133.8638   78.5443  224.2348 H   0  0  0  0  0  0  0  0  0  0  0  0
  133.5470   76.1296  224.3788 H   0  0  0  0  0  0  0  0  0  0  0  0
  135.3470   74.5714  223.6788 H   0  0  0  0  0  0  0  0  0  0  0  0
  137.9200   74.5310  222.7050 H   0  0  0  0  0  0  0  0  0  0  0  0
  142.3161   76.8030  219.9022 H   0  0  0  0  0  0  0  0  0  0  0  0
  140.6816   76.7340  219.2976 H   0  0  0  0  0  0  0  0  0  0  0  0
  143.4200   79.4159  219.3595 H   0  0  0  0  0  0  0  0  0  0  0  0
  142.8135   78.3007  218.1600 H   0  0  0  0  0  0  0  0  0  0  0  0
  142.1186   81.2344  218.6227 H   0  0  0  0  0  0  0  0  0  0  0  0
  142.3841   80.4065  217.0755 H   0  0  0  0  0  0  0  0  0  0  0  0
  140.4052   82.0685  217.4600 H   0  0  0  0  0  0  0  0  0  0  0  0
  138.8234   81.1755  217.5538 H   0  0  0  0  0  0  0  0  0  0  0  0
  140.0202   81.0226  220.0463 H   0  0  0  0  0  0  0  0  0  0  0  0
  141.2785   83.1642  219.2184 H   0  0  0  0  0  0  0  0  0  0  0  0
  139.7175   83.9890  219.3202 H   0  0  0  0  0  0  0  0  0  0  0  0
  141.2907   82.5661  221.5405 H   0  0  0  0  0  0  0  0  0  0  0  0
  140.6385   84.2152  221.5635 H   0  0  0  0  0  0  0  0  0  0  0  0
  139.2508   81.5700  221.9829 H   0  0  0  0  0  0  0  0  0  0  0  0
  138.9299   83.1809  222.7382 H   0  0  0  0  0  0  0  0  0  0  0  0
  137.9630   83.8950  220.6940 H   0  0  0  0  0  0  0  0  0  0  0  0
  137.6026   81.1076  219.8331 H   0  0  0  0  0  0  0  0  0  0  0  0
  137.6528   82.5838  218.8381 H   0  0  0  0  0  0  0  0  0  0  0  0
  139.6752   80.0204  219.9131 H   0  0  0  0  0  0  0  0  0  0  0  0
  139.4255   78.5320  218.9639 H   0  0  0  0  0  0  0  0  0  0  0  0
  142.5891   81.2616  220.8592 H   0  0  0  0  0  0  0  0  0  0  0  0
  142.9989   81.6422  223.2538 H   0  0  0  0  0  0  0  0  0  0  0  0
  142.4103   79.8990  224.9288 H   0  0  0  0  0  0  0  0  0  0  0  0
  141.3978   77.7832  224.1147 H   0  0  0  0  0  0  0  0  0  0  0  0
  1  2  2  0
  2  3  1  0
  3  4  2  0
  4  5  1  0
  5  6  2  0
  6  7  1  0
  7  8  2  0
  8  9  1  0
  9 10  2  0
 10 11  1  0
 11 12  2  0
  6 13  1  0
 13 14  2  0
 14 15  1  0
 15 16  2  0
 16 17  1  0
  2 18  1  0
 18 19  1  0
 20 19  1  1
 20 21  1  0
 21 22  1  0
 22 23  1  0
 23 24  1  0
 24 25  1  0
 25 26  1  0
 26 27  1  0
 27 28  1  0
 28 29  1  0
 29 30  1  0
 23 31  1  0
 20 32  1  0
 32 33  2  0
 33 34  1  0
 34 35  2  0
 35 36  1  0
 36 37  2  0
 17  3  1  0
 37 18  1  0
 16  5  1  0
 31 20  1  0
 37 32  1  0
 12  7  1  0
 30 25  1  0
  4 38  1  0
  8 39  1  0
  9 40  1  0
 10 41  1  0
 11 42  1  0
 13 43  1  0
 14 44  1  0
 15 45  1  0
 17 46  1  0
 19 47  1  0
 19 48  1  0
 21 49  1  0
 21 50  1  0
 22 51  1  0
 22 52  1  0
 24 53  1  0
 24 54  1  0
 25 55  1  1
 26 56  1  0
 26 57  1  0
 27 58  1  0
 27 59  1  0
 28 60  1  0
 28 61  1  0
 29 62  1  0
 30 63  1  0
 30 64  1  0
 31 65  1  0
 31 66  1  0
 33 67  1  0
 34 68  1  0
 35 69  1  0
 36 70  1  0
M  END
>  <smiles>  (52) 
O=C(c1cc2c(-c3ccccn3)cccc2[nH]1)N1C[C@]2(CCN(CC3CCCNC3)C2)c2ccccc21

>  <score_type>  (52) 
oracle

>  <origin>  (52) 
autodockgpu

>  <m_score__min__energy>  (52) 
-9.9199999999999999

>  <m_primary>  (52) 
energy

>  <rmsd>  (52) 
7.839831977079397

>  <m_score__min__rmsd>  (52) 
7.839831977079397

>  <meeko>  (52) 
{"free_energy": -7.44, "intermolecular_energy": -8.94, "internal_energy": -3.44, "cluster_size": 7, "cluster_id": 13, "rank_in_cluster": 4}

>  <energy>  (52) 
-9.91

>  <cluster_rmsd>  (52) 
0.57

>  <cluster>  (52) 
1

$$$$

     RDKit          3D

 70 76  0  0  1  0  0  0  0  0999 V2000
  141.0560   73.9790  221.8960 O   0  0  0  0  0  0  0  0  0  0  0  0
  139.8170   73.7510  221.9690 C   0  0  0  0  0  0  0  0  0  0  0  0
  139.4110   72.3690  222.1430 C   0  0  0  0  0  0  0  0  0  0  0  0
  139.6300   71.5750  223.2470 C   0  0  0  0  0  0  0  0  0  0  0  0
  139.0830   70.3490  222.9860 C   0  0  0  0  0  0  0  0  0  0  0  0
  139.0200   69.1840  223.7030 C   0  0  0  0  0  0  0  0  0  0  0  0
  139.5560   68.9400  225.0070 C   0  0  0  0  0  0  0  0  0  0  0  0
  140.3300   69.7590  225.7790 C   0  0  0  0  0  0  0  0  0  0  0  0
  140.7440   69.4030  227.0740 C   0  0  0  0  0  0  0  0  0  0  0  0
  140.3720   68.1930  227.6120 C   0  0  0  0  0  0  0  0  0  0  0  0
  139.5880   67.3780  226.8170 C   0  0  0  0  0  0  0  0  0  0  0  0
  139.2170   67.7520  225.5940 N   0  0  0  0  0  0  0  0  0  0  0  0
  138.3850   68.1150  223.0630 C   0  0  0  0  0  0  0  0  0  0  0  0
  137.8530   68.2080  221.8010 C   0  0  0  0  0  0  0  0  0  0  0  0
  137.9190   69.3760  221.0970 C   0  0  0  0  0  0  0  0  0  0  0  0
  138.5470   70.4520  221.7120 C   0  0  0  0  0  0  0  0  0  0  0  0
  138.7460   71.6760  221.2050 N   0  0  0  0  0  0  0  0  0  0  0  0
  138.8720   74.8060  221.8840 N   0  0  0  0  0  0  0  0  0  0  0  0
  137.4910   74.6660  221.3940 C   0  0  0  0  0  0  0  0  0  0  0  0
  136.7450   75.6670  222.2600 C   0  0  1  0  0  0  0  0  0  0  0  0
  135.5850   76.2920  221.5200 C   0  0  0  0  0  0  0  0  0  0  0  0
  134.5710   76.4840  222.6140 C   0  0  0  0  0  0  0  0  0  0  0  0
  134.7520   75.3870  223.5380 N   0  0  0  0  0  0  0  0  0  0  0  0
  134.4510   75.8420  224.8700 C   0  0  0  0  0  0  0  0  0  0  0  0
  133.5100   74.9220  225.5930 C   0  0  1  0  0  0  0  0  0  0  0  0
  134.1180   73.5770  225.9350 C   0  0  0  0  0  0  0  0  0  0  0  0
  132.9380   72.6320  226.1270 C   0  0  0  0  0  0  0  0  0  0  0  0
  131.8790   73.4200  226.8890 C   0  0  0  0  0  0  0  0  0  0  0  0
  132.4850   74.4550  227.7010 N   0  0  0  0  0  0  0  0  0  0  0  0
  133.0730   75.5210  226.9210 C   0  0  0  0  0  0  0  0  0  0  0  0
  136.1840   75.0750  223.5040 C   0  0  0  0  0  0  0  0  0  0  0  0
  137.7550   76.7380  222.4890 C   0  0  0  0  0  0  0  0  0  0  0  0
  137.7240   78.0620  222.8530 C   0  0  0  0  0  0  0  0  0  0  0  0
  138.8720   78.8270  222.9760 C   0  0  0  0  0  0  0  0  0  0  0  0
  140.1060   78.2820  222.7310 C   0  0  0  0  0  0  0  0  0  0  0  0
  140.1480   76.9520  222.3650 C   0  0  0  0  0  0  0  0  0  0  0  0
  139.0020   76.1790  222.2420 C   0  0  0  0  0  0  0  0  0  0  0  0
  140.1497   71.8725  224.1697 H   0  0  0  0  0  0  0  0  0  0  0  0
  140.6406   70.7327  225.3723 H   0  0  0  0  0  0  0  0  0  0  0  0
  141.3678   70.0945  227.6594 H   0  0  0  0  0  0  0  0  0  0  0  0
  140.6823   67.8895  228.6227 H   0  0  0  0  0  0  0  0  0  0  0  0
  139.2639   66.4002  227.2027 H   0  0  0  0  0  0  0  0  0  0  0  0
  138.3083   67.1555  223.5954 H   0  0  0  0  0  0  0  0  0  0  0  0
  137.3670   67.3298  221.3509 H   0  0  0  0  0  0  0  0  0  0  0  0
  137.4933   69.4614  220.0863 H   0  0  0  0  0  0  0  0  0  0  0  0
  138.4480   72.0360  220.2680 H   0  0  0  0  0  0  0  0  0  0  0  0
  137.4169   74.9266  220.3279 H   0  0  0  0  0  0  0  0  0  0  0  0
  137.0980   73.6409  221.4626 H   0  0  0  0  0  0  0  0  0  0  0  0
  135.8718   77.2538  221.0697 H   0  0  0  0  0  0  0  0  0  0  0  0
  135.2176   75.6815  220.6820 H   0  0  0  0  0  0  0  0  0  0  0  0
  134.7402   77.4433  223.1250 H   0  0  0  0  0  0  0  0  0  0  0  0
  133.5479   76.4995  222.2101 H   0  0  0  0  0  0  0  0  0  0  0  0
  135.3890   75.9070  225.4409 H   0  0  0  0  0  0  0  0  0  0  0  0
  133.9603   76.8228  224.7852 H   0  0  0  0  0  0  0  0  0  0  0  0
  132.6714   74.7874  224.8940 H   0  0  0  0  0  0  0  0  0  0  0  0
  134.7614   73.2264  225.1145 H   0  0  0  0  0  0  0  0  0  0  0  0
  134.7472   73.6314  226.8356 H   0  0  0  0  0  0  0  0  0  0  0  0
  132.5449   72.3103  225.1513 H   0  0  0  0  0  0  0  0  0  0  0  0
  133.2357   71.7269  226.6767 H   0  0  0  0  0  0  0  0  0  0  0  0
  131.1897   73.8853  226.1690 H   0  0  0  0  0  0  0  0  0  0  0  0
  131.3368   72.7285  227.5507 H   0  0  0  0  0  0  0  0  0  0  0  0
  133.1630   74.0030  228.3630 H   0  0  0  0  0  0  0  0  0  0  0  0
  132.3315   76.3153  226.7498 H   0  0  0  0  0  0  0  0  0  0  0  0
  133.9304   75.9630  227.4497 H   0  0  0  0  0  0  0  0  0  0  0  0
  136.6830   75.5081  224.3834 H   0  0  0  0  0  0  0  0  0  0  0  0
  136.3422   73.9865  223.5188 H   0  0  0  0  0  0  0  0  0  0  0  0
  136.7504   78.5327  223.0545 H   0  0  0  0  0  0  0  0  0  0  0  0
  138.7929   79.8831  223.2734 H   0  0  0  0  0  0  0  0  0  0  0  0
  141.0246   78.8801  222.8224 H   0  0  0  0  0  0  0  0  0  0  0  0
  141.1248   76.4880  222.1636 H   0  0  0  0  0  0  0  0  0  0  0  0
  1  2  2  0
  2  3  1  0
  3  4  2  0
  4  5  1  0
  5  6  2  0
  6  7  1  0
  7  8  2  0
  8  9  1  0
  9 10  2  0
 10 11  1  0
 11 12  2  0
  6 13  1  0
 13 14  2  0
 14 15  1  0
 15 16  2  0
 16 17  1  0
  2 18  1  0
 18 19  1  0
 20 19  1  6
 20 21  1  0
 21 22  1  0
 22 23  1  0
 23 24  1  0
 24 25  1  0
 25 26  1  0
 26 27  1  0
 27 28  1  0
 28 29  1  0
 29 30  1  0
 23 31  1  0
 20 32  1  0
 32 33  2  0
 33 34  1  0
 34 35  2  0
 35 36  1  0
 36 37  2  0
 17  3  1  0
 37 18  1  0
 16  5  1  0
 31 20  1  0
 37 32  1  0
 12  7  1  0
 30 25  1  0
  4 38  1  0
  8 39  1  0
  9 40  1  0
 10 41  1  0
 11 42  1  0
 13 43  1  0
 14 44  1  0
 15 45  1  0
 17 46  1  0
 19 47  1  0
 19 48  1  0
 21 49  1  0
 21 50  1  0
 22 51  1  0
 22 52  1  0
 24 53  1  0
 24 54  1  0
 25 55  1  6
 26 56  1  0
 26 57  1  0
 27 58  1  0
 27 59  1  0
 28 60  1  0
 28 61  1  0
 29 62  1  0
 30 63  1  0
 30 64  1  0
 31 65  1  0
 31 66  1  0
 33 67  1  0
 34 68  1  0
 35 69  1  0
 36 70  1  0
M  END
>  <smiles>  (53) 
O=C(c1cc2c(-c3ccccn3)cccc2[nH]1)N1C[C@]2(CCN(CC3CCCNC3)C2)c2ccccc21

>  <score_type>  (53) 
oracle

>  <origin>  (53) 
autodockgpu

>  <m_score__min__energy>  (53) 
-9.9199999999999999

>  <m_primary>  (53) 
energy

>  <rmsd>  (53) 
6.222672537136752

>  <m_score__min__rmsd>  (53) 
6.222672537136752

>  <meeko>  (53) 
{"free_energy": -9.92, "intermolecular_energy": -11.41, "internal_energy": -1.57, "cluster_size": 6, "cluster_id": 1, "rank_in_cluster": 1}

>  <energy>  (53) 
-9.87

>  <cluster_rmsd>  (53) 
0.73

>  <cluster>  (53) 
1

$$$$

     RDKit          3D

 70 76  0  0  1  0  0  0  0  0999 V2000
  141.9140   72.7880  221.5390 O   0  0  0  0  0  0  0  0  0  0  0  0
  140.7340   73.2260  221.6230 C   0  0  0  0  0  0  0  0  0  0  0  0
  139.7660   72.3870  222.3050 C   0  0  0  0  0  0  0  0  0  0  0  0
  140.0100   71.5250  223.3520 C   0  0  0  0  0  0  0  0  0  0  0  0
  138.8220   70.9370  223.6850 C   0  0  0  0  0  0  0  0  0  0  0  0
  138.4750   70.0000  224.6220 C   0  0  0  0  0  0  0  0  0  0  0  0
  139.3390   69.3510  225.5590 C   0  0  0  0  0  0  0  0  0  0  0  0
  140.2150   69.9140  226.4440 C   0  0  0  0  0  0  0  0  0  0  0  0
  140.9690   69.1470  227.3480 C   0  0  0  0  0  0  0  0  0  0  0  0
  140.8430   67.7770  227.3670 C   0  0  0  0  0  0  0  0  0  0  0  0
  139.9520   67.2260  226.4650 C   0  0  0  0  0  0  0  0  0  0  0  0
  139.2560   67.9880  225.6240 N   0  0  0  0  0  0  0  0  0  0  0  0
  137.1280   69.6260  224.6300 C   0  0  0  0  0  0  0  0  0  0  0  0
  136.1990   70.1510  223.7660 C   0  0  0  0  0  0  0  0  0  0  0  0
  136.5560   71.0870  222.8380 C   0  0  0  0  0  0  0  0  0  0  0  0
  137.8900   71.4740  222.8100 C   0  0  0  0  0  0  0  0  0  0  0  0
  138.4650   72.3510  221.9770 N   0  0  0  0  0  0  0  0  0  0  0  0
  140.3790   74.4850  221.0720 N   0  0  0  0  0  0  0  0  0  0  0  0
  139.0160   75.0400  221.0410 C   0  0  0  0  0  0  0  0  0  0  0  0
  139.2770   76.5270  221.2080 C   0  0  1  0  0  0  0  0  0  0  0  0
  138.2550   77.3600  220.4690 C   0  0  0  0  0  0  0  0  0  0  0  0
  138.1100   78.5600  221.3650 C   0  0  0  0  0  0  0  0  0  0  0  0
  138.2880   78.0860  222.7180 N   0  0  0  0  0  0  0  0  0  0  0  0
  138.9140   79.1210  223.5000 C   0  0  0  0  0  0  0  0  0  0  0  0
  140.2420   79.5400  222.9400 C   0  0  1  0  0  0  0  0  0  0  0  0
  140.4010   81.0420  222.8150 C   0  0  0  0  0  0  0  0  0  0  0  0
  141.4890   81.2510  221.7690 C   0  0  0  0  0  0  0  0  0  0  0  0
  142.5570   80.2000  222.0450 C   0  0  0  0  0  0  0  0  0  0  0  0
  142.5620   79.8190  223.4430 N   0  0  0  0  0  0  0  0  0  0  0  0
  141.3820   79.0830  223.8380 C   0  0  0  0  0  0  0  0  0  0  0  0
  139.2470   76.9800  222.6260 C   0  0  0  0  0  0  0  0  0  0  0  0
  140.5870   76.7220  220.5270 C   0  0  0  0  0  0  0  0  0  0  0  0
  141.2660   77.7830  219.9810 C   0  0  0  0  0  0  0  0  0  0  0  0
  142.5090   77.6430  219.3840 C   0  0  0  0  0  0  0  0  0  0  0  0
  143.1170   76.4170  219.3140 C   0  0  0  0  0  0  0  0  0  0  0  0
  142.4430   75.3440  219.8600 C   0  0  0  0  0  0  0  0  0  0  0  0
  141.1980   75.4770  220.4610 C   0  0  0  0  0  0  0  0  0  0  0  0
  140.9829   71.3434  223.8320 H   0  0  0  0  0  0  0  0  0  0  0  0
  140.3341   71.0075  226.4488 H   0  0  0  0  0  0  0  0  0  0  0  0
  141.6623   69.6434  228.0429 H   0  0  0  0  0  0  0  0  0  0  0  0
  141.4213   67.1525  228.0638 H   0  0  0  0  0  0  0  0  0  0  0  0
  139.8152   66.1348  226.4417 H   0  0  0  0  0  0  0  0  0  0  0  0
  136.7968   68.8757  225.3631 H   0  0  0  0  0  0  0  0  0  0  0  0
  135.1536   69.8133  223.8221 H   0  0  0  0  0  0  0  0  0  0  0  0
  135.8193   71.5159  222.1428 H   0  0  0  0  0  0  0  0  0  0  0  0
  138.0050   72.9070  221.2170 H   0  0  0  0  0  0  0  0  0  0  0  0
  138.5192   74.8265  220.0831 H   0  0  0  0  0  0  0  0  0  0  0  0
  138.3477   74.6182  221.8062 H   0  0  0  0  0  0  0  0  0  0  0  0
  138.6216   77.6487  219.4729 H   0  0  0  0  0  0  0  0  0  0  0  0
  137.3079   76.8322  220.2834 H   0  0  0  0  0  0  0  0  0  0  0  0
  138.8762   79.3108  221.1215 H   0  0  0  0  0  0  0  0  0  0  0  0
  137.1265   79.0357  221.2365 H   0  0  0  0  0  0  0  0  0  0  0  0
  138.2488   79.9967  223.5234 H   0  0  0  0  0  0  0  0  0  0  0  0
  139.0883   78.7188  224.5089 H   0  0  0  0  0  0  0  0  0  0  0  0
  140.2766   79.0746  221.9439 H   0  0  0  0  0  0  0  0  0  0  0  0
  139.4577   81.5023  222.4857 H   0  0  0  0  0  0  0  0  0  0  0  0
  140.6654   81.5056  223.7768 H   0  0  0  0  0  0  0  0  0  0  0  0
  141.0759   81.1176  220.7583 H   0  0  0  0  0  0  0  0  0  0  0  0
  141.9056   82.2676  221.8239 H   0  0  0  0  0  0  0  0  0  0  0  0
  142.3536   79.3106  221.4305 H   0  0  0  0  0  0  0  0  0  0  0  0
  143.5400   80.6252  221.7943 H   0  0  0  0  0  0  0  0  0  0  0  0
  142.7260   80.6800  224.0210 H   0  0  0  0  0  0  0  0  0  0  0  0
  141.5516   78.0036  223.7111 H   0  0  0  0  0  0  0  0  0  0  0  0
  141.1431   79.2687  224.8956 H   0  0  0  0  0  0  0  0  0  0  0  0
  140.2464   77.3237  222.9312 H   0  0  0  0  0  0  0  0  0  0  0  0
  138.9493   76.1544  223.2891 H   0  0  0  0  0  0  0  0  0  0  0  0
  140.8063   78.7816  220.0188 H   0  0  0  0  0  0  0  0  0  0  0  0
  143.0126   78.5252  218.9620 H   0  0  0  0  0  0  0  0  0  0  0  0
  144.1027   76.2932  218.8416 H   0  0  0  0  0  0  0  0  0  0  0  0
  142.9081   74.3481  219.8178 H   0  0  0  0  0  0  0  0  0  0  0  0
  1  2  2  0
  2  3  1  0
  3  4  2  0
  4  5  1  0
  5  6  2  0
  6  7  1  0
  7  8  2  0
  8  9  1  0
  9 10  2  0
 10 11  1  0
 11 12  2  0
  6 13  1  0
 13 14  2  0
 14 15  1  0
 15 16  2  0
 16 17  1  0
  2 18  1  0
 18 19  1  0
 20 19  1  1
 20 21  1  0
 21 22  1  0
 22 23  1  0
 23 24  1  0
 24 25  1  0
 25 26  1  0
 26 27  1  0
 27 28  1  0
 28 29  1  0
 29 30  1  0
 23 31  1  0
 20 32  1  0
 32 33  2  0
 33 34  1  0
 34 35  2  0
 35 36  1  0
 36 37  2  0
 17  3  1  0
 37 18  1  0
 16  5  1  0
 31 20  1  0
 37 32  1  0
 12  7  1  0
 30 25  1  0
  4 38  1  0
  8 39  1  0
  9 40  1  0
 10 41  1  0
 11 42  1  0
 13 43  1  0
 14 44  1  0
 15 45  1  0
 17 46  1  0
 19 47  1  0
 19 48  1  0
 21 49  1  0
 21 50  1  0
 22 51  1  0
 22 52  1  0
 24 53  1  0
 24 54  1  0
 25 55  1  6
 26 56  1  0
 26 57  1  0
 27 58  1  0
 27 59  1  0
 28 60  1  0
 28 61  1  0
 29 62  1  0
 30 63  1  0
 30 64  1  0
 31 65  1  0
 31 66  1  0
 33 67  1  0
 34 68  1  0
 35 69  1  0
 36 70  1  0
M  END
>  <smiles>  (54) 
O=C(c1cc2c(-c3ccccn3)cccc2[nH]1)N1C[C@]2(CCN(CC3CCCNC3)C2)c2ccccc21

>  <score_type>  (54) 
oracle

>  <origin>  (54) 
autodockgpu

>  <m_score__min__energy>  (54) 
-9.9199999999999999

>  <m_primary>  (54) 
energy

>  <rmsd>  (54) 
2.558488122523162

>  <m_score__min__rmsd>  (54) 
2.558488122523162

>  <meeko>  (54) 
{"free_energy": -9.6, "intermolecular_energy": -11.09, "internal_energy": -2.1, "cluster_size": 13, "cluster_id": 3, "rank_in_cluster": 4}

>  <energy>  (54) 
-9.81

>  <cluster_rmsd>  (54) 
1.13

>  <cluster>  (54) 
1

$$$$

     RDKit          3D

 70 76  0  0  1  0  0  0  0  0999 V2000
  140.9120   70.0110  219.1630 O   0  0  0  0  0  0  0  0  0  0  0  0
  140.7970   70.8990  220.0510 C   0  0  0  0  0  0  0  0  0  0  0  0
  140.0150   70.5600  221.2240 C   0  0  0  0  0  0  0  0  0  0  0  0
  140.3270   70.8410  222.5370 C   0  0  0  0  0  0  0  0  0  0  0  0
  139.3190   70.3430  223.3150 C   0  0  0  0  0  0  0  0  0  0  0  0
  139.1110   70.3160  224.6680 C   0  0  0  0  0  0  0  0  0  0  0  0
  139.9660   70.8430  225.6860 C   0  0  0  0  0  0  0  0  0  0  0  0
  140.9440   71.7900  225.5720 C   0  0  0  0  0  0  0  0  0  0  0  0
  141.6770   72.2530  226.6790 C   0  0  0  0  0  0  0  0  0  0  0  0
  141.4220   71.7530  227.9350 C   0  0  0  0  0  0  0  0  0  0  0  0
  140.4290   70.7970  228.0300 C   0  0  0  0  0  0  0  0  0  0  0  0
  139.7580   70.3850  226.9570 N   0  0  0  0  0  0  0  0  0  0  0  0
  137.9430   69.6710  225.0860 C   0  0  0  0  0  0  0  0  0  0  0  0
  137.0510   69.0980  224.2130 C   0  0  0  0  0  0  0  0  0  0  0  0
  137.2670   69.1340  222.8660 C   0  0  0  0  0  0  0  0  0  0  0  0
  138.4220   69.7680  222.4270 C   0  0  0  0  0  0  0  0  0  0  0  0
  138.8460   69.9020  221.1630 N   0  0  0  0  0  0  0  0  0  0  0  0
  141.4090   72.1710  219.8990 N   0  0  0  0  0  0  0  0  0  0  0  0
  140.7490   73.3660  219.3480 C   0  0  0  0  0  0  0  0  0  0  0  0
  141.3900   74.4810  220.1560 C   0  0  1  0  0  0  0  0  0  0  0  0
  141.5190   75.7520  219.3490 C   0  0  0  0  0  0  0  0  0  0  0  0
  141.3100   76.8170  220.3910 C   0  0  0  0  0  0  0  0  0  0  0  0
  140.3700   76.2790  221.3460 N   0  0  0  0  0  0  0  0  0  0  0  0
  140.6770   76.7980  222.6530 C   0  0  0  0  0  0  0  0  0  0  0  0
  141.1030   78.2370  222.6140 C   0  0  1  0  0  0  0  0  0  0  0  0
  139.9440   79.2130  222.5880 C   0  0  0  0  0  0  0  0  0  0  0  0
  140.5090   80.5020  222.0040 C   0  0  0  0  0  0  0  0  0  0  0  0
  141.8910   80.6820  222.6190 C   0  0  0  0  0  0  0  0  0  0  0  0
  141.9690   80.0440  223.9180 N   0  0  0  0  0  0  0  0  0  0  0  0
  141.9140   78.6000  223.8480 C   0  0  0  0  0  0  0  0  0  0  0  0
  140.6300   74.8360  221.3860 C   0  0  0  0  0  0  0  0  0  0  0  0
  142.7660   73.9720  220.4090 C   0  0  0  0  0  0  0  0  0  0  0  0
  143.9770   74.5260  220.7410 C   0  0  0  0  0  0  0  0  0  0  0  0
  145.1250   73.7670  220.9000 C   0  0  0  0  0  0  0  0  0  0  0  0
  145.0940   72.4070  220.7250 C   0  0  0  0  0  0  0  0  0  0  0  0
  143.8820   71.8400  220.3910 C   0  0  0  0  0  0  0  0  0  0  0  0
  142.7280   72.5950  220.2320 C   0  0  0  0  0  0  0  0  0  0  0  0
  141.2234   71.3695  222.8937 H   0  0  0  0  0  0  0  0  0  0  0  0
  141.1661   72.2054  224.5780 H   0  0  0  0  0  0  0  0  0  0  0  0
  142.4563   73.0169  226.5404 H   0  0  0  0  0  0  0  0  0  0  0  0
  141.9801   72.0967  228.8184 H   0  0  0  0  0  0  0  0  0  0  0  0
  140.1879   70.3672  229.0134 H   0  0  0  0  0  0  0  0  0  0  0  0
  137.7287   69.6202  226.1637 H   0  0  0  0  0  0  0  0  0  0  0  0
  136.1501   68.6032  224.6049 H   0  0  0  0  0  0  0  0  0  0  0  0
  136.5571   68.6805  222.1586 H   0  0  0  0  0  0  0  0  0  0  0  0
  138.3720   69.5670  220.2910 H   0  0  0  0  0  0  0  0  0  0  0  0
  140.9587   73.4791  218.2741 H   0  0  0  0  0  0  0  0  0  0  0  0
  139.6517   73.3399  219.4204 H   0  0  0  0  0  0  0  0  0  0  0  0
  142.5157   75.8333  218.8908 H   0  0  0  0  0  0  0  0  0  0  0  0
  140.8118   75.8135  218.5087 H   0  0  0  0  0  0  0  0  0  0  0  0
  142.2623   77.0544  220.8878 H   0  0  0  0  0  0  0  0  0  0  0  0
  140.9303   77.7454  219.9396 H   0  0  0  0  0  0  0  0  0  0  0  0
  139.7815   76.7121  223.2861 H   0  0  0  0  0  0  0  0  0  0  0  0
  141.5154   76.2118  223.0572 H   0  0  0  0  0  0  0  0  0  0  0  0
  141.6863   78.3228  221.6853 H   0  0  0  0  0  0  0  0  0  0  0  0
  139.1314   78.8279  221.9544 H   0  0  0  0  0  0  0  0  0  0  0  0
  139.5213   79.3708  223.5912 H   0  0  0  0  0  0  0  0  0  0  0  0
  140.5869   80.4220  220.9097 H   0  0  0  0  0  0  0  0  0  0  0  0
  139.8580   81.3602  222.2268 H   0  0  0  0  0  0  0  0  0  0  0  0
  142.6425   80.2337  221.9524 H   0  0  0  0  0  0  0  0  0  0  0  0
  142.0807   81.7581  222.7454 H   0  0  0  0  0  0  0  0  0  0  0  0
  141.2280   80.4570  224.5360 H   0  0  0  0  0  0  0  0  0  0  0  0
  142.9306   78.1883  223.7647 H   0  0  0  0  0  0  0  0  0  0  0  0
  141.4505   78.1838  224.7546 H   0  0  0  0  0  0  0  0  0  0  0  0
  141.2228   74.5863  222.2783 H   0  0  0  0  0  0  0  0  0  0  0  0
  139.6852   74.2745  221.4318 H   0  0  0  0  0  0  0  0  0  0  0  0
  144.0384   75.6146  220.8864 H   0  0  0  0  0  0  0  0  0  0  0  0
  146.0708   74.2600  221.1693 H   0  0  0  0  0  0  0  0  0  0  0  0
  145.9990   71.7935  220.8461 H   0  0  0  0  0  0  0  0  0  0  0  0
  143.8278   70.7510  220.2455 H   0  0  0  0  0  0  0  0  0  0  0  0
  1  2  2  0
  2  3  1  0
  3  4  2  0
  4  5  1  0
  5  6  2  0
  6  7  1  0
  7  8  2  0
  8  9  1  0
  9 10  2  0
 10 11  1  0
 11 12  2  0
  6 13  1  0
 13 14  2  0
 14 15  1  0
 15 16  2  0
 16 17  1  0
  2 18  1  0
 18 19  1  0
 20 19  1  6
 20 21  1  0
 21 22  1  0
 22 23  1  0
 23 24  1  0
 24 25  1  0
 25 26  1  0
 26 27  1  0
 27 28  1  0
 28 29  1  0
 29 30  1  0
 23 31  1  0
 20 32  1  0
 32 33  2  0
 33 34  1  0
 34 35  2  0
 35 36  1  0
 36 37  2  0
 17  3  1  0
 37 18  1  0
 16  5  1  0
 31 20  1  0
 37 32  1  0
 12  7  1  0
 30 25  1  0
  4 38  1  0
  8 39  1  0
  9 40  1  0
 10 41  1  0
 11 42  1  0
 13 43  1  0
 14 44  1  0
 15 45  1  0
 17 46  1  0
 19 47  1  0
 19 48  1  0
 21 49  1  0
 21 50  1  0
 22 51  1  0
 22 52  1  0
 24 53  1  0
 24 54  1  0
 25 55  1  6
 26 56  1  0
 26 57  1  0
 27 58  1  0
 27 59  1  0
 28 60  1  0
 28 61  1  0
 29 62  1  0
 30 63  1  0
 30 64  1  0
 31 65  1  0
 31 66  1  0
 33 67  1  0
 34 68  1  0
 35 69  1  0
 36 70  1  0
M  END
>  <smiles>  (55) 
O=C(c1cc2c(-c3ccccn3)cccc2[nH]1)N1C[C@]2(CCN(CC3CCCNC3)C2)c2ccccc21

>  <score_type>  (55) 
oracle

>  <origin>  (55) 
autodockgpu

>  <m_score__min__energy>  (55) 
-9.9199999999999999

>  <m_primary>  (55) 
energy

>  <rmsd>  (55) 
3.070506311187054

>  <m_score__min__rmsd>  (55) 
3.070506311187054

>  <meeko>  (55) 
{"free_energy": -9.21, "intermolecular_energy": -10.7, "internal_energy": -1.94, "cluster_size": 13, "cluster_id": 3, "rank_in_cluster": 13}

>  <energy>  (55) 
-9.75

>  <cluster_rmsd>  (55) 
0.78

>  <cluster>  (55) 
1

$$$$

     RDKit          3D

 70 76  0  0  1  0  0  0  0  0999 V2000
  140.2450   74.5310  222.1790 O   0  0  0  0  0  0  0  0  0  0  0  0
  140.4850   73.3510  221.8040 C   0  0  0  0  0  0  0  0  0  0  0  0
  141.8150   73.0790  221.2930 C   0  0  0  0  0  0  0  0  0  0  0  0
  142.2970   71.8700  220.8420 C   0  0  0  0  0  0  0  0  0  0  0  0
  143.5940   72.0640  220.4540 C   0  0  0  0  0  0  0  0  0  0  0  0
  144.5530   71.2250  219.9530 C   0  0  0  0  0  0  0  0  0  0  0  0
  144.4270   69.8240  219.6920 C   0  0  0  0  0  0  0  0  0  0  0  0
  143.3040   69.1110  219.3830 C   0  0  0  0  0  0  0  0  0  0  0  0
  143.3390   67.7360  219.0990 C   0  0  0  0  0  0  0  0  0  0  0  0
  144.5340   67.0540  219.1240 C   0  0  0  0  0  0  0  0  0  0  0  0
  145.6600   67.7920  219.4380 C   0  0  0  0  0  0  0  0  0  0  0  0
  145.5840   69.0940  219.7020 N   0  0  0  0  0  0  0  0  0  0  0  0
  145.7970   71.8120  219.7030 C   0  0  0  0  0  0  0  0  0  0  0  0
  146.0590   73.1400  219.9360 C   0  0  0  0  0  0  0  0  0  0  0  0
  145.0930   73.9680  220.4330 C   0  0  0  0  0  0  0  0  0  0  0  0
  143.8500   73.4060  220.6910 C   0  0  0  0  0  0  0  0  0  0  0  0
  142.7700   74.0170  221.1970 N   0  0  0  0  0  0  0  0  0  0  0  0
  139.4900   72.3410  221.8820 N   0  0  0  0  0  0  0  0  0  0  0  0
  139.6970   70.9240  221.5440 C   0  0  0  0  0  0  0  0  0  0  0  0
  138.7870   70.2260  222.5410 C   0  0  1  0  0  0  0  0  0  0  0  0
  138.2060   68.9520  221.9720 C   0  0  0  0  0  0  0  0  0  0  0  0
  138.1310   68.0630  223.1830 C   0  0  0  0  0  0  0  0  0  0  0  0
  139.2550   68.4140  224.0200 N   0  0  0  0  0  0  0  0  0  0  0  0
  138.8830   68.2440  225.4010 C   0  0  0  0  0  0  0  0  0  0  0  0
  139.8060   68.9670  226.3380 C   0  0  1  0  0  0  0  0  0  0  0  0
  139.0940   69.6390  227.4940 C   0  0  0  0  0  0  0  0  0  0  0  0
  140.0440   70.7280  227.9800 C   0  0  0  0  0  0  0  0  0  0  0  0
  141.4420   70.1240  227.9450 C   0  0  0  0  0  0  0  0  0  0  0  0
  141.3910   68.6850  228.1060 N   0  0  0  0  0  0  0  0  0  0  0  0
  140.7990   68.0060  226.9750 C   0  0  0  0  0  0  0  0  0  0  0  0
  139.4710   69.8490  223.8080 C   0  0  0  0  0  0  0  0  0  0  0  0
  137.6650   71.1900  222.7120 C   0  0  0  0  0  0  0  0  0  0  0  0
  136.3640   71.1220  223.1470 C   0  0  0  0  0  0  0  0  0  0  0  0
  135.5320   72.2300  223.1790 C   0  0  0  0  0  0  0  0  0  0  0  0
  135.9840   73.4570  222.7680 C   0  0  0  0  0  0  0  0  0  0  0  0
  137.2900   73.5360  222.3290 C   0  0  0  0  0  0  0  0  0  0  0  0
  138.1290   72.4300  222.2960 C   0  0  0  0  0  0  0  0  0  0  0  0
  141.7405   70.9220  220.8014 H   0  0  0  0  0  0  0  0  0  0  0  0
  142.3361   69.6330  219.3555 H   0  0  0  0  0  0  0  0  0  0  0  0
  142.4083   67.2025  218.8558 H   0  0  0  0  0  0  0  0  0  0  0  0
  144.5903   65.9774  218.9054 H   0  0  0  0  0  0  0  0  0  0  0  0
  146.6395   67.2924  219.4703 H   0  0  0  0  0  0  0  0  0  0  0  0
  146.6034   71.1810  219.3010 H   0  0  0  0  0  0  0  0  0  0  0  0
  147.0598   73.5420  219.7196 H   0  0  0  0  0  0  0  0  0  0  0  0
  145.2913   75.0336  220.6206 H   0  0  0  0  0  0  0  0  0  0  0  0
  142.6750   75.0240  221.4690 H   0  0  0  0  0  0  0  0  0  0  0  0
  139.3931   70.7115  220.5084 H   0  0  0  0  0  0  0  0  0  0  0  0
  140.7475   70.6029  221.6016 H   0  0  0  0  0  0  0  0  0  0  0  0
  137.2079   69.1262  221.5437 H   0  0  0  0  0  0  0  0  0  0  0  0
  138.8003   68.5263  221.1501 H   0  0  0  0  0  0  0  0  0  0  0  0
  137.1876   68.2342  223.7222 H   0  0  0  0  0  0  0  0  0  0  0  0
  138.1629   67.0007  222.8991 H   0  0  0  0  0  0  0  0  0  0  0  0
  137.8631   68.6312  225.5418 H   0  0  0  0  0  0  0  0  0  0  0  0
  138.9438   67.1707  225.6339 H   0  0  0  0  0  0  0  0  0  0  0  0
  140.2950   69.7243  225.7076 H   0  0  0  0  0  0  0  0  0  0  0  0
  138.1443   70.0798  227.1566 H   0  0  0  0  0  0  0  0  0  0  0  0
  138.8494   68.9243  228.2936 H   0  0  0  0  0  0  0  0  0  0  0  0
  139.9909   71.6036  227.3163 H   0  0  0  0  0  0  0  0  0  0  0  0
  139.7799   71.0654  228.9931 H   0  0  0  0  0  0  0  0  0  0  0  0
  141.9121   70.3613  226.9793 H   0  0  0  0  0  0  0  0  0  0  0  0
  142.0276   70.5485  228.7738 H   0  0  0  0  0  0  0  0  0  0  0  0
  140.9120   68.4700  229.0150 H   0  0  0  0  0  0  0  0  0  0  0  0
  141.5791   67.7348  226.2485 H   0  0  0  0  0  0  0  0  0  0  0  0
  140.2953   67.0823  227.2959 H   0  0  0  0  0  0  0  0  0  0  0  0
  139.0469   70.4199  224.6472 H   0  0  0  0  0  0  0  0  0  0  0  0
  140.5463   70.0724  223.7471 H   0  0  0  0  0  0  0  0  0  0  0  0
  135.9677   70.1522  223.4824 H   0  0  0  0  0  0  0  0  0  0  0  0
  134.4977   72.1235  223.5381 H   0  0  0  0  0  0  0  0  0  0  0  0
  135.3322   74.3429  222.7873 H   0  0  0  0  0  0  0  0  0  0  0  0
  137.6797   74.5085  221.9937 H   0  0  0  0  0  0  0  0  0  0  0  0
  1  2  2  0
  2  3  1  0
  3  4  2  0
  4  5  1  0
  5  6  2  0
  6  7  1  0
  7  8  2  0
  8  9  1  0
  9 10  2  0
 10 11  1  0
 11 12  2  0
  6 13  1  0
 13 14  2  0
 14 15  1  0
 15 16  2  0
 16 17  1  0
  2 18  1  0
 18 19  1  0
 20 19  1  6
 20 21  1  0
 21 22  1  0
 22 23  1  0
 23 24  1  0
 24 25  1  0
 25 26  1  0
 26 27  1  0
 27 28  1  0
 28 29  1  0
 29 30  1  0
 23 31  1  0
 20 32  1  0
 32 33  2  0
 33 34  1  0
 34 35  2  0
 35 36  1  0
 36 37  2  0
 17  3  1  0
 37 18  1  0
 16  5  1  0
 31 20  1  0
 37 32  1  0
 12  7  1  0
 30 25  1  0
  4 38  1  0
  8 39  1  0
  9 40  1  0
 10 41  1  0
 11 42  1  0
 13 43  1  0
 14 44  1  0
 15 45  1  0
 17 46  1  0
 19 47  1  0
 19 48  1  0
 21 49  1  0
 21 50  1  0
 22 51  1  0
 22 52  1  0
 24 53  1  0
 24 54  1  0
 25 55  1  6
 26 56  1  0
 26 57  1  0
 27 58  1  0
 27 59  1  0
 28 60  1  0
 28 61  1  0
 29 62  1  0
 30 63  1  0
 30 64  1  0
 31 65  1  0
 31 66  1  0
 33 67  1  0
 34 68  1  0
 35 69  1  0
 36 70  1  0
M  END
>  <smiles>  (56) 
O=C(c1cc2c(-c3ccccn3)cccc2[nH]1)N1C[C@]2(CCN(CC3CCCNC3)C2)c2ccccc21

>  <score_type>  (56) 
oracle

>  <origin>  (56) 
autodockgpu

>  <m_score__min__energy>  (56) 
-9.9199999999999999

>  <m_primary>  (56) 
energy

>  <rmsd>  (56) 
9.409916412168863

>  <m_score__min__rmsd>  (56) 
9.409916412168863

>  <meeko>  (56) 
{"free_energy": -9.46, "intermolecular_energy": -10.95, "internal_energy": -1.74, "cluster_size": 1, "cluster_id": 5, "rank_in_cluster": 1}

>  <energy>  (56) 
-9.11

>  <cluster_rmsd>  (56) 
1.53

>  <cluster>  (56) 
1

$$$$

     RDKit          3D

 70 76  0  0  1  0  0  0  0  0999 V2000
  140.4040   74.9960  221.9760 O   0  0  0  0  0  0  0  0  0  0  0  0
  140.0310   76.2000  221.9200 C   0  0  0  0  0  0  0  0  0  0  0  0
  138.7000   76.5010  222.4110 C   0  0  0  0  0  0  0  0  0  0  0  0
  138.1530   77.7510  222.6080 C   0  0  0  0  0  0  0  0  0  0  0  0
  136.8820   77.5730  223.0800 C   0  0  0  0  0  0  0  0  0  0  0  0
  135.8980   78.4460  223.4600 C   0  0  0  0  0  0  0  0  0  0  0  0
  135.9610   79.8750  223.4610 C   0  0  0  0  0  0  0  0  0  0  0  0
  135.1830   80.7640  222.7760 C   0  0  0  0  0  0  0  0  0  0  0  0
  135.3270   82.1550  222.9150 C   0  0  0  0  0  0  0  0  0  0  0  0
  136.2780   82.6700  223.7650 C   0  0  0  0  0  0  0  0  0  0  0  0
  137.0550   81.7560  224.4510 C   0  0  0  0  0  0  0  0  0  0  0  0
  136.8870   80.4450  224.2900 N   0  0  0  0  0  0  0  0  0  0  0  0
  134.7180   77.8580  223.9260 C   0  0  0  0  0  0  0  0  0  0  0  0
  134.5380   76.5000  224.0030 C   0  0  0  0  0  0  0  0  0  0  0  0
  135.5250   75.6390  223.6180 C   0  0  0  0  0  0  0  0  0  0  0  0
  136.7070   76.1990  223.1520 C   0  0  0  0  0  0  0  0  0  0  0  0
  137.8090   75.5540  222.7460 N   0  0  0  0  0  0  0  0  0  0  0  0
  140.8840   77.2070  221.3960 N   0  0  0  0  0  0  0  0  0  0  0  0
  141.3550   77.2760  220.0040 C   0  0  0  0  0  0  0  0  0  0  0  0
  141.4170   78.7750  219.7650 C   0  0  1  0  0  0  0  0  0  0  0  0
  142.5300   79.1430  218.8120 C   0  0  0  0  0  0  0  0  0  0  0  0
  141.9450   80.3140  218.0710 C   0  0  0  0  0  0  0  0  0  0  0  0
  140.5250   80.0690  217.9720 N   0  0  0  0  0  0  0  0  0  0  0  0
  139.8270   81.3270  218.0140 C   0  0  0  0  0  0  0  0  0  0  0  0
  139.6090   81.8170  219.4160 C   0  0  1  0  0  0  0  0  0  0  0  0
  140.2990   83.1320  219.7140 C   0  0  0  0  0  0  0  0  0  0  0  0
  140.4460   83.1820  221.2310 C   0  0  0  0  0  0  0  0  0  0  0  0
  139.1430   82.6390  221.8050 C   0  0  0  0  0  0  0  0  0  0  0  0
  138.0410   82.8570  220.8910 N   0  0  0  0  0  0  0  0  0  0  0  0
  138.1320   82.0600  219.6870 C   0  0  0  0  0  0  0  0  0  0  0  0
  140.1650   79.3370  219.1910 C   0  0  0  0  0  0  0  0  0  0  0  0
  141.7790   79.3190  221.1040 C   0  0  0  0  0  0  0  0  0  0  0  0
  142.3340   80.4810  221.5780 C   0  0  0  0  0  0  0  0  0  0  0  0
  142.5680   80.6970  222.9270 C   0  0  0  0  0  0  0  0  0  0  0  0
  142.2500   79.7400  223.8550 C   0  0  0  0  0  0  0  0  0  0  0  0
  141.6910   78.5670  223.3880 C   0  0  0  0  0  0  0  0  0  0  0  0
  141.4530   78.3450  222.0380 C   0  0  0  0  0  0  0  0  0  0  0  0
  138.6483   78.7150  222.4199 H   0  0  0  0  0  0  0  0  0  0  0  0
  134.4151   80.3770  222.0900 H   0  0  0  0  0  0  0  0  0  0  0  0
  134.6776   82.8337  222.3426 H   0  0  0  0  0  0  0  0  0  0  0  0
  136.4131   83.7542  223.8922 H   0  0  0  0  0  0  0  0  0  0  0  0
  137.8281   82.1190  225.1443 H   0  0  0  0  0  0  0  0  0  0  0  0
  133.8956   78.5149  224.2458 H   0  0  0  0  0  0  0  0  0  0  0  0
  133.5854   76.0995  224.3801 H   0  0  0  0  0  0  0  0  0  0  0  0
  135.3897   74.5488  223.6745 H   0  0  0  0  0  0  0  0  0  0  0  0
  137.9610   74.5190  222.6940 H   0  0  0  0  0  0  0  0  0  0  0  0
  142.3465   76.8125  219.8942 H   0  0  0  0  0  0  0  0  0  0  0  0
  140.7115   76.7397  219.2911 H   0  0  0  0  0  0  0  0  0  0  0  0
  143.4413   79.4313  219.3564 H   0  0  0  0  0  0  0  0  0  0  0  0
  142.8383   78.3162  218.1552 H   0  0  0  0  0  0  0  0  0  0  0  0
  142.1321   81.2459  218.6247 H   0  0  0  0  0  0  0  0  0  0  0  0
  142.4003   80.4224  217.0755 H   0  0  0  0  0  0  0  0  0  0  0  0
  140.4172   82.0764  217.4662 H   0  0  0  0  0  0  0  0  0  0  0  0
  138.8387   81.1763  217.5552 H   0  0  0  0  0  0  0  0  0  0  0  0
  140.0286   81.0218  220.0498 H   0  0  0  0  0  0  0  0  0  0  0  0
  141.2867   83.1657  219.2310 H   0  0  0  0  0  0  0  0  0  0  0  0
  139.7252   83.9891  219.3317 H   0  0  0  0  0  0  0  0  0  0  0  0
  141.2930   82.5581  221.5524 H   0  0  0  0  0  0  0  0  0  0  0  0
  140.6404   84.2068  221.5803 H   0  0  0  0  0  0  0  0  0  0  0  0
  139.2521   81.5594  221.9856 H   0  0  0  0  0  0  0  0  0  0  0  0
  138.9276   83.1679  222.7452 H   0  0  0  0  0  0  0  0  0  0  0  0
  137.9650   83.8860  220.7010 H   0  0  0  0  0  0  0  0  0  0  0  0
  137.6128   81.1009  219.8303 H   0  0  0  0  0  0  0  0  0  0  0  0
  137.6609   82.5795  218.8395 H   0  0  0  0  0  0  0  0  0  0  0  0
  139.6948   80.0202  219.9136 H   0  0  0  0  0  0  0  0  0  0  0  0
  139.4504   78.5328  218.9616 H   0  0  0  0  0  0  0  0  0  0  0  0
  142.6032   81.2704  220.8608 H   0  0  0  0  0  0  0  0  0  0  0  0
  143.0139   81.6471  223.2564 H   0  0  0  0  0  0  0  0  0  0  0  0
  142.4326   79.8998  224.9279 H   0  0  0  0  0  0  0  0  0  0  0  0
  141.4250   77.7812  224.1103 H   0  0  0  0  0  0  0  0  0  0  0  0
  1  2  2  0
  2  3  1  0
  3  4  2  0
  4  5  1  0
  5  6  2  0
  6  7  1  0
  7  8  2  0
  8  9  1  0
  9 10  2  0
 10 11  1  0
 11 12  2  0
  6 13  1  0
 13 14  2  0
 14 15  1  0
 15 16  2  0
 16 17  1  0
  2 18  1  0
 18 19  1  0
 20 19  1  1
 20 21  1  0
 21 22  1  0
 22 23  1  0
 23 24  1  0
 24 25  1  0
 25 26  1  0
 26 27  1  0
 27 28  1  0
 28 29  1  0
 29 30  1  0
 23 31  1  0
 20 32  1  0
 32 33  2  0
 33 34  1  0
 34 35  2  0
 35 36  1  0
 36 37  2  0
 17  3  1  0
 37 18  1  0
 16  5  1  0
 31 20  1  0
 37 32  1  0
 12  7  1  0
 30 25  1  0
  4 38  1  0
  8 39  1  0
  9 40  1  0
 10 41  1  0
 11 42  1  0
 13 43  1  0
 14 44  1  0
 15 45  1  0
 17 46  1  0
 19 47  1  0
 19 48  1  0
 21 49  1  0
 21 50  1  0
 22 51  1  0
 22 52  1  0
 24 53  1  0
 24 54  1  0
 25 55  1  1
 26 56  1  0
 26 57  1  0
 27 58  1  0
 27 59  1  0
 28 60  1  0
 28 61  1  0
 29 62  1  0
 30 63  1  0
 30 64  1  0
 31 65  1  0
 31 66  1  0
 33 67  1  0
 34 68  1  0
 35 69  1  0
 36 70  1  0
M  END
>  <smiles>  (57) 
O=C(c1cc2c(-c3ccccn3)cccc2[nH]1)N1C[C@]2(CCN(CC3CCCNC3)C2)c2ccccc21

>  <score_type>  (57) 
oracle

>  <origin>  (57) 
autodockgpu

>  <m_score__min__energy>  (57) 
-9.9199999999999999

>  <m_primary>  (57) 
energy

>  <rmsd>  (57) 
7.821397727973878

>  <m_score__min__rmsd>  (57) 
7.821397727973878

>  <meeko>  (57) 
{"free_energy": -7.45, "intermolecular_energy": -8.94, "internal_energy": -3.44, "cluster_size": 7, "cluster_id": 13, "rank_in_cluster": 2}

>  <energy>  (57) 
-9.67

>  <cluster_rmsd>  (57) 
0.0

>  <cluster>  (57) 
2

$$$$

     RDKit          3D

 70 76  0  0  1  0  0  0  0  0999 V2000
  140.3970   74.9890  221.9730 O   0  0  0  0  0  0  0  0  0  0  0  0
  140.0250   76.1930  221.9150 C   0  0  0  0  0  0  0  0  0  0  0  0
  138.6940   76.4950  222.4040 C   0  0  0  0  0  0  0  0  0  0  0  0
  138.1460   77.7450  222.5940 C   0  0  0  0  0  0  0  0  0  0  0  0
  136.8740   77.5690  223.0660 C   0  0  0  0  0  0  0  0  0  0  0  0
  135.8890   78.4430  223.4420 C   0  0  0  0  0  0  0  0  0  0  0  0
  135.9510   79.8720  223.4360 C   0  0  0  0  0  0  0  0  0  0  0  0
  135.1760   80.7560  222.7410 C   0  0  0  0  0  0  0  0  0  0  0  0
  135.3190   82.1480  222.8740 C   0  0  0  0  0  0  0  0  0  0  0  0
  136.2640   82.6690  223.7280 C   0  0  0  0  0  0  0  0  0  0  0  0
  137.0370   81.7580  224.4230 C   0  0  0  0  0  0  0  0  0  0  0  0
  136.8710   80.4470  224.2680 N   0  0  0  0  0  0  0  0  0  0  0  0
  134.7090   77.8560  223.9100 C   0  0  0  0  0  0  0  0  0  0  0  0
  134.5300   76.4970  223.9930 C   0  0  0  0  0  0  0  0  0  0  0  0
  135.5190   75.6360  223.6120 C   0  0  0  0  0  0  0  0  0  0  0  0
  136.7010   76.1950  223.1450 C   0  0  0  0  0  0  0  0  0  0  0  0
  137.8040   75.5490  222.7430 N   0  0  0  0  0  0  0  0  0  0  0  0
  140.8800   77.1990  221.3940 N   0  0  0  0  0  0  0  0  0  0  0  0
  141.3540   77.2670  220.0020 C   0  0  0  0  0  0  0  0  0  0  0  0
  141.4180   78.7660  219.7630 C   0  0  1  0  0  0  0  0  0  0  0  0
  142.5330   79.1330  218.8110 C   0  0  0  0  0  0  0  0  0  0  0  0
  141.9500   80.3040  218.0690 C   0  0  0  0  0  0  0  0  0  0  0  0
  140.5300   80.0600  217.9670 N   0  0  0  0  0  0  0  0  0  0  0  0
  139.8330   81.3190  218.0080 C   0  0  0  0  0  0  0  0  0  0  0  0
  139.6120   81.8080  219.4100 C   0  0  1  0  0  0  0  0  0  0  0  0
  140.3010   83.1240  219.7090 C   0  0  0  0  0  0  0  0  0  0  0  0
  140.4440   83.1740  221.2260 C   0  0  0  0  0  0  0  0  0  0  0  0
  139.1400   82.6300  221.7970 C   0  0  0  0  0  0  0  0  0  0  0  0
  138.0400   82.8490  220.8800 N   0  0  0  0  0  0  0  0  0  0  0  0
  138.1340   82.0530  219.6760 C   0  0  0  0  0  0  0  0  0  0  0  0
  140.1670   79.3290  219.1860 C   0  0  0  0  0  0  0  0  0  0  0  0
  141.7770   79.3100  221.1020 C   0  0  0  0  0  0  0  0  0  0  0  0
  142.3320   80.4720  221.5770 C   0  0  0  0  0  0  0  0  0  0  0  0
  142.5640   80.6890  222.9260 C   0  0  0  0  0  0  0  0  0  0  0  0
  142.2430   79.7310  223.8530 C   0  0  0  0  0  0  0  0  0  0  0  0
  141.6850   78.5600  223.3860 C   0  0  0  0  0  0  0  0  0  0  0  0
  141.4490   78.3370  222.0360 C   0  0  0  0  0  0  0  0  0  0  0  0
  138.6409   78.7083  222.4013 H   0  0  0  0  0  0  0  0  0  0  0  0
  134.4125   80.3647  222.0525 H   0  0  0  0  0  0  0  0  0  0  0  0
  134.6733   82.8233  222.2934 H   0  0  0  0  0  0  0  0  0  0  0  0
  136.3973   83.7539  223.8511 H   0  0  0  0  0  0  0  0  0  0  0  0
  137.8058   82.1247  225.1191 H   0  0  0  0  0  0  0  0  0  0  0  0
  133.8859   78.5136  224.2264 H   0  0  0  0  0  0  0  0  0  0  0  0
  133.5777   76.0969  224.3712 H   0  0  0  0  0  0  0  0  0  0  0  0
  135.3849   74.5459  223.6725 H   0  0  0  0  0  0  0  0  0  0  0  0
  137.9560   74.5140  222.6960 H   0  0  0  0  0  0  0  0  0  0  0  0
  142.3452   76.8024  219.8942 H   0  0  0  0  0  0  0  0  0  0  0  0
  140.7114   76.7311  219.2880 H   0  0  0  0  0  0  0  0  0  0  0  0
  143.4438   79.4208  219.3566 H   0  0  0  0  0  0  0  0  0  0  0  0
  142.8415   78.3058  218.1549 H   0  0  0  0  0  0  0  0  0  0  0  0
  142.1365   81.2358  218.6230 H   0  0  0  0  0  0  0  0  0  0  0  0
  142.4072   80.4119  217.0744 H   0  0  0  0  0  0  0  0  0  0  0  0
  140.4254   82.0682  217.4623 H   0  0  0  0  0  0  0  0  0  0  0  0
  138.8457   81.1698  217.5464 H   0  0  0  0  0  0  0  0  0  0  0  0
  140.0295   81.0126  220.0449 H   0  0  0  0  0  0  0  0  0  0  0  0
  141.2899   83.1580  219.2284 H   0  0  0  0  0  0  0  0  0  0  0  0
  139.7281   83.9809  219.3248 H   0  0  0  0  0  0  0  0  0  0  0  0
  141.2907   82.5507  221.5494 H   0  0  0  0  0  0  0  0  0  0  0  0
  140.6366   84.1990  221.5757 H   0  0  0  0  0  0  0  0  0  0  0  0
  139.2488   81.5503  221.9768 H   0  0  0  0  0  0  0  0  0  0  0  0
  138.9224   83.1574  222.7375 H   0  0  0  0  0  0  0  0  0  0  0  0
  137.9650   83.8790  220.6900 H   0  0  0  0  0  0  0  0  0  0  0  0
  137.6129   81.0945  219.8167 H   0  0  0  0  0  0  0  0  0  0  0  0
  137.6666   82.5738  218.8273 H   0  0  0  0  0  0  0  0  0  0  0  0
  139.6961   80.0131  219.9073 H   0  0  0  0  0  0  0  0  0  0  0  0
  139.4521   78.5253  218.9558 H   0  0  0  0  0  0  0  0  0  0  0  0
  142.6029   81.2609  220.8598 H   0  0  0  0  0  0  0  0  0  0  0  0
  143.0099   81.6388  223.2562 H   0  0  0  0  0  0  0  0  0  0  0  0
  142.4235   79.8904  224.9263 H   0  0  0  0  0  0  0  0  0  0  0  0
  141.4173   77.7747  224.1083 H   0  0  0  0  0  0  0  0  0  0  0  0
  1  2  2  0
  2  3  1  0
  3  4  2  0
  4  5  1  0
  5  6  2  0
  6  7  1  0
  7  8  2  0
  8  9  1  0
  9 10  2  0
 10 11  1  0
 11 12  2  0
  6 13  1  0
 13 14  2  0
 14 15  1  0
 15 16  2  0
 16 17  1  0
  2 18  1  0
 18 19  1  0
 20 19  1  1
 20 21  1  0
 21 22  1  0
 22 23  1  0
 23 24  1  0
 24 25  1  0
 25 26  1  0
 26 27  1  0
 27 28  1  0
 28 29  1  0
 29 30  1  0
 23 31  1  0
 20 32  1  0
 32 33  2  0
 33 34  1  0
 34 35  2  0
 35 36  1  0
 36 37  2  0
 17  3  1  0
 37 18  1  0
 16  5  1  0
 31 20  1  0
 37 32  1  0
 12  7  1  0
 30 25  1  0
  4 38  1  0
  8 39  1  0
  9 40  1  0
 10 41  1  0
 11 42  1  0
 13 43  1  0
 14 44  1  0
 15 45  1  0
 17 46  1  0
 19 47  1  0
 19 48  1  0
 21 49  1  0
 21 50  1  0
 22 51  1  0
 22 52  1  0
 24 53  1  0
 24 54  1  0
 25 55  1  1
 26 56  1  0
 26 57  1  0
 27 58  1  0
 27 59  1  0
 28 60  1  0
 28 61  1  0
 29 62  1  0
 30 63  1  0
 30 64  1  0
 31 65  1  0
 31 66  1  0
 33 67  1  0
 34 68  1  0
 35 69  1  0
 36 70  1  0
M  END
>  <smiles>  (58) 
O=C(c1cc2c(-c3ccccn3)cccc2[nH]1)N1C[C@]2(CCN(CC3CCCNC3)C2)c2ccccc21

>  <score_type>  (58) 
oracle

>  <origin>  (58) 
autodockgpu

>  <m_score__min__energy>  (58) 
-9.9199999999999999

>  <m_primary>  (58) 
energy

>  <rmsd>  (58) 
7.82448234966308

>  <m_score__min__rmsd>  (58) 
7.82448234966308

>  <meeko>  (58) 
{"free_energy": -7.45, "intermolecular_energy": -8.94, "internal_energy": -3.44, "cluster_size": 7, "cluster_id": 13, "rank_in_cluster": 3}

>  <energy>  (58) 
-9.6

>  <cluster_rmsd>  (58) 
0.62

>  <cluster>  (58) 
2

$$$$

     RDKit          3D

 70 76  0  0  1  0  0  0  0  0999 V2000
  142.1080   72.2690  221.5700 O   0  0  0  0  0  0  0  0  0  0  0  0
  140.9700   72.7950  221.7120 C   0  0  0  0  0  0  0  0  0  0  0  0
  139.9950   72.0540  222.4880 C   0  0  0  0  0  0  0  0  0  0  0  0
  140.2260   71.3400  223.6440 C   0  0  0  0  0  0  0  0  0  0  0  0
  139.0330   70.8010  224.0390 C   0  0  0  0  0  0  0  0  0  0  0  0
  138.6740   69.9970  225.0890 C   0  0  0  0  0  0  0  0  0  0  0  0
  139.5280   69.4800  226.1130 C   0  0  0  0  0  0  0  0  0  0  0  0
  139.9820   70.1020  227.2410 C   0  0  0  0  0  0  0  0  0  0  0  0
  140.7810   69.4460  228.1930 C   0  0  0  0  0  0  0  0  0  0  0  0
  141.1330   68.1290  228.0110 C   0  0  0  0  0  0  0  0  0  0  0  0
  140.6630   67.5150  226.8660 C   0  0  0  0  0  0  0  0  0  0  0  0
  139.9090   68.1730  225.9870 N   0  0  0  0  0  0  0  0  0  0  0  0
  137.3270   69.6270  225.1310 C   0  0  0  0  0  0  0  0  0  0  0  0
  136.4090   70.0320  224.1950 C   0  0  0  0  0  0  0  0  0  0  0  0
  136.7770   70.8360  223.1540 C   0  0  0  0  0  0  0  0  0  0  0  0
  138.1110   71.2160  223.0890 C   0  0  0  0  0  0  0  0  0  0  0  0
  138.6970   71.9750  222.1530 N   0  0  0  0  0  0  0  0  0  0  0  0
  140.6690   74.0570  221.1340 N   0  0  0  0  0  0  0  0  0  0  0  0
  139.3170   74.6230  221.0000 C   0  0  0  0  0  0  0  0  0  0  0  0
  139.5770   76.1080  221.1850 C   0  0  1  0  0  0  0  0  0  0  0  0
  138.6210   76.9480  220.3700 C   0  0  0  0  0  0  0  0  0  0  0  0
  138.4190   78.1510  221.2510 C   0  0  0  0  0  0  0  0  0  0  0  0
  138.4910   77.6780  222.6140 N   0  0  0  0  0  0  0  0  0  0  0  0
  139.0650   78.7090  223.4390 C   0  0  0  0  0  0  0  0  0  0  0  0
  140.3430   79.2540  222.8720 C   0  0  1  0  0  0  0  0  0  0  0  0
  140.3280   80.7560  222.6740 C   0  0  0  0  0  0  0  0  0  0  0  0
  141.4000   81.0410  221.6280 C   0  0  0  0  0  0  0  0  0  0  0  0
  142.5790   80.1380  221.9670 C   0  0  0  0  0  0  0  0  0  0  0  0
  142.6070   79.8280  223.3820 N   0  0  0  0  0  0  0  0  0  0  0  0
  141.5150   78.9780  223.8020 C   0  0  0  0  0  0  0  0  0  0  0  0
  139.4450   76.5640  222.5950 C   0  0  0  0  0  0  0  0  0  0  0  0
  140.9360   76.2910  220.6040 C   0  0  0  0  0  0  0  0  0  0  0  0
  141.6640   77.3450  220.1090 C   0  0  0  0  0  0  0  0  0  0  0  0
  142.9460   77.1930  219.6080 C   0  0  0  0  0  0  0  0  0  0  0  0
  143.5480   75.9620  219.5850 C   0  0  0  0  0  0  0  0  0  0  0  0
  142.8250   74.8960  220.0800 C   0  0  0  0  0  0  0  0  0  0  0  0
  141.5400   75.0410  220.5850 C   0  0  0  0  0  0  0  0  0  0  0  0
  141.1931   71.2248  224.1553 H   0  0  0  0  0  0  0  0  0  0  0  0
  139.7124   71.1549  227.4105 H   0  0  0  0  0  0  0  0  0  0  0  0
  141.1259   69.9874  229.0863 H   0  0  0  0  0  0  0  0  0  0  0  0
  141.7572   67.5917  228.7402 H   0  0  0  0  0  0  0  0  0  0  0  0
  140.9166   66.4615  226.6765 H   0  0  0  0  0  0  0  0  0  0  0  0
  136.9866   68.9805  225.9533 H   0  0  0  0  0  0  0  0  0  0  0  0
  135.3626   69.7047  224.2843 H   0  0  0  0  0  0  0  0  0  0  0  0
  136.0483   71.1681  222.3999 H   0  0  0  0  0  0  0  0  0  0  0  0
  138.2460   72.4240  221.3210 H   0  0  0  0  0  0  0  0  0  0  0  0
  138.8919   74.4122  220.0076 H   0  0  0  0  0  0  0  0  0  0  0  0
  138.5895   74.2078  221.7130 H   0  0  0  0  0  0  0  0  0  0  0  0
  139.0642   77.2317  219.4040 H   0  0  0  0  0  0  0  0  0  0  0  0
  137.6862   76.4278  220.1142 H   0  0  0  0  0  0  0  0  0  0  0  0
  139.2075   78.8950  221.0648 H   0  0  0  0  0  0  0  0  0  0  0  0
  137.4520   78.6346  221.0483 H   0  0  0  0  0  0  0  0  0  0  0  0
  138.3406   79.5317  223.5305 H   0  0  0  0  0  0  0  0  0  0  0  0
  139.2969   78.2634  224.4176 H   0  0  0  0  0  0  0  0  0  0  0  0
  140.4462   78.7484  221.9005 H   0  0  0  0  0  0  0  0  0  0  0  0
  139.3425   81.0862  222.3140 H   0  0  0  0  0  0  0  0  0  0  0  0
  140.5228   81.2930  223.6140 H   0  0  0  0  0  0  0  0  0  0  0  0
  141.0208   80.8105  220.6215 H   0  0  0  0  0  0  0  0  0  0  0  0
  141.6934   82.1011  221.6349 H   0  0  0  0  0  0  0  0  0  0  0  0
  142.4910   79.2022  221.3956 H   0  0  0  0  0  0  0  0  0  0  0  0
  143.5091   80.6639  221.7055 H   0  0  0  0  0  0  0  0  0  0  0  0
  142.6600   80.7290  223.9180 H   0  0  0  0  0  0  0  0  0  0  0  0
  141.8116   77.9212  223.7303 H   0  0  0  0  0  0  0  0  0  0  0  0
  141.2401   79.1850  224.8468 H   0  0  0  0  0  0  0  0  0  0  0  0
  140.4216   76.9002  222.9734 H   0  0  0  0  0  0  0  0  0  0  0  0
  139.0916   75.7421  223.2351 H   0  0  0  0  0  0  0  0  0  0  0  0
  141.2117   78.3477  220.1105 H   0  0  0  0  0  0  0  0  0  0  0  0
  143.4873   78.0703  219.2241 H   0  0  0  0  0  0  0  0  0  0  0  0
  144.5654   75.8292  219.1884 H   0  0  0  0  0  0  0  0  0  0  0  0
  143.2830   73.8959  220.0742 H   0  0  0  0  0  0  0  0  0  0  0  0
  1  2  2  0
  2  3  1  0
  3  4  2  0
  4  5  1  0
  5  6  2  0
  6  7  1  0
  7  8  2  0
  8  9  1  0
  9 10  2  0
 10 11  1  0
 11 12  2  0
  6 13  1  0
 13 14  2  0
 14 15  1  0
 15 16  2  0
 16 17  1  0
  2 18  1  0
 18 19  1  0
 20 19  1  1
 20 21  1  0
 21 22  1  0
 22 23  1  0
 23 24  1  0
 24 25  1  0
 25 26  1  0
 26 27  1  0
 27 28  1  0
 28 29  1  0
 29 30  1  0
 23 31  1  0
 20 32  1  0
 32 33  2  0
 33 34  1  0
 34 35  2  0
 35 36  1  0
 36 37  2  0
 17  3  1  0
 37 18  1  0
 16  5  1  0
 31 20  1  0
 37 32  1  0
 12  7  1  0
 30 25  1  0
  4 38  1  0
  8 39  1  0
  9 40  1  0
 10 41  1  0
 11 42  1  0
 13 43  1  0
 14 44  1  0
 15 45  1  0
 17 46  1  0
 19 47  1  0
 19 48  1  0
 21 49  1  0
 21 50  1  0
 22 51  1  0
 22 52  1  0
 24 53  1  0
 24 54  1  0
 25 55  1  6
 26 56  1  0
 26 57  1  0
 27 58  1  0
 27 59  1  0
 28 60  1  0
 28 61  1  0
 29 62  1  0
 30 63  1  0
 30 64  1  0
 31 65  1  0
 31 66  1  0
 33 67  1  0
 34 68  1  0
 35 69  1  0
 36 70  1  0
M  END
>  <smiles>  (59) 
O=C(c1cc2c(-c3ccccn3)cccc2[nH]1)N1C[C@]2(CCN(CC3CCCNC3)C2)c2ccccc21

>  <score_type>  (59) 
oracle

>  <origin>  (59) 
autodockgpu

>  <m_score__min__energy>  (59) 
-9.9199999999999999

>  <m_primary>  (59) 
energy

>  <rmsd>  (59) 
2.5415570521691615

>  <m_score__min__rmsd>  (59) 
2.5415570521691615

>  <meeko>  (59) 
{"free_energy": -9.58, "intermolecular_energy": -11.07, "internal_energy": -2.14, "cluster_size": 13, "cluster_id": 3, "rank_in_cluster": 6}

>  <energy>  (59) 
-9.6

>  <cluster_rmsd>  (59) 
0.63

>  <cluster>  (59) 
2

$$$$

     RDKit          3D

 70 76  0  0  1  0  0  0  0  0999 V2000
  141.1290   73.8970  221.8910 O   0  0  0  0  0  0  0  0  0  0  0  0
  139.9110   73.6300  222.0810 C   0  0  0  0  0  0  0  0  0  0  0  0
  139.5870   72.2660  222.4530 C   0  0  0  0  0  0  0  0  0  0  0  0
  139.8560   71.6500  223.6560 C   0  0  0  0  0  0  0  0  0  0  0  0
  139.3810   70.3700  223.5770 C   0  0  0  0  0  0  0  0  0  0  0  0
  139.3890   69.3160  224.4520 C   0  0  0  0  0  0  0  0  0  0  0  0
  139.9420   69.2910  225.7710 C   0  0  0  0  0  0  0  0  0  0  0  0
  140.3450   68.2130  226.5060 C   0  0  0  0  0  0  0  0  0  0  0  0
  140.9230   68.3440  227.7800 C   0  0  0  0  0  0  0  0  0  0  0  0
  141.1030   69.5910  228.3340 C   0  0  0  0  0  0  0  0  0  0  0  0
  140.6900   70.6700  227.5750 C   0  0  0  0  0  0  0  0  0  0  0  0
  140.1460   70.5020  226.3710 N   0  0  0  0  0  0  0  0  0  0  0  0
  138.8150   68.1330  223.9770 C   0  0  0  0  0  0  0  0  0  0  0  0
  138.2740   68.0160  222.7200 C   0  0  0  0  0  0  0  0  0  0  0  0
  138.2690   69.0740  221.8570 C   0  0  0  0  0  0  0  0  0  0  0  0
  138.8350   70.2600  222.3070 C   0  0  0  0  0  0  0  0  0  0  0  0
  138.9610   71.4090  221.6300 N   0  0  0  0  0  0  0  0  0  0  0  0
  138.9110   74.6260  221.9330 N   0  0  0  0  0  0  0  0  0  0  0  0
  137.5470   74.3860  221.4340 C   0  0  0  0  0  0  0  0  0  0  0  0
  136.7350   75.3840  222.2420 C   0  0  1  0  0  0  0  0  0  0  0  0
  135.5530   75.9070  221.4590 C   0  0  0  0  0  0  0  0  0  0  0  0
  134.5150   76.0940  222.5310 C   0  0  0  0  0  0  0  0  0  0  0  0
  134.7410   75.0550  223.5090 N   0  0  0  0  0  0  0  0  0  0  0  0
  134.3970   75.5550  224.8140 C   0  0  0  0  0  0  0  0  0  0  0  0
  133.4650   74.6390  225.5530 C   0  0  1  0  0  0  0  0  0  0  0  0
  134.0800   73.2990  225.9010 C   0  0  0  0  0  0  0  0  0  0  0  0
  132.9040   72.3520  226.1120 C   0  0  0  0  0  0  0  0  0  0  0  0
  131.8500   73.1430  226.8760 C   0  0  0  0  0  0  0  0  0  0  0  0
  132.4600   74.1870  227.6740 N   0  0  0  0  0  0  0  0  0  0  0  0
  133.0380   75.2480  226.8790 C   0  0  0  0  0  0  0  0  0  0  0  0
  136.1890   74.8210  223.5070 C   0  0  0  0  0  0  0  0  0  0  0  0
  137.6810   76.5190  222.4320 C   0  0  0  0  0  0  0  0  0  0  0  0
  137.5710   77.8550  222.7310 C   0  0  0  0  0  0  0  0  0  0  0  0
  138.6740   78.6880  222.8300 C   0  0  0  0  0  0  0  0  0  0  0  0
  139.9390   78.2010  222.6270 C   0  0  0  0  0  0  0  0  0  0  0  0
  140.0600   76.8600  222.3250 C   0  0  0  0  0  0  0  0  0  0  0  0
  138.9600   76.0190  222.2260 C   0  0  0  0  0  0  0  0  0  0  0  0
  140.3604   72.1046  224.5214 H   0  0  0  0  0  0  0  0  0  0  0  0
  140.2123   67.2053  226.0854 H   0  0  0  0  0  0  0  0  0  0  0  0
  141.2326   67.4470  228.3364 H   0  0  0  0  0  0  0  0  0  0  0  0
  141.5523   69.7223  229.3294 H   0  0  0  0  0  0  0  0  0  0  0  0
  140.8132   71.6879  227.9735 H   0  0  0  0  0  0  0  0  0  0  0  0
  138.7958   67.2558  224.6404 H   0  0  0  0  0  0  0  0  0  0  0  0
  137.8387   67.0565  222.4041 H   0  0  0  0  0  0  0  0  0  0  0  0
  137.8357   68.9908  220.8494 H   0  0  0  0  0  0  0  0  0  0  0  0
  138.6400   71.6150  220.6550 H   0  0  0  0  0  0  0  0  0  0  0  0
  137.4740   74.5911  220.3558 H   0  0  0  0  0  0  0  0  0  0  0  0
  137.2101   73.3450  221.5472 H   0  0  0  0  0  0  0  0  0  0  0  0
  135.7925   76.8606  220.9658 H   0  0  0  0  0  0  0  0  0  0  0  0
  135.2318   75.2378  220.6472 H   0  0  0  0  0  0  0  0  0  0  0  0
  134.6246   77.0844  222.9970 H   0  0  0  0  0  0  0  0  0  0  0  0
  133.4987   76.0330  222.1146 H   0  0  0  0  0  0  0  0  0  0  0  0
  135.3193   75.6695  225.4024 H   0  0  0  0  0  0  0  0  0  0  0  0
  133.8820   76.5175  224.6782 H   0  0  0  0  0  0  0  0  0  0  0  0
  132.6205   74.4962  224.8628 H   0  0  0  0  0  0  0  0  0  0  0  0
  134.7169   72.9432  225.0778 H   0  0  0  0  0  0  0  0  0  0  0  0
  134.7172   73.3630  226.7953 H   0  0  0  0  0  0  0  0  0  0  0  0
  132.5032   72.0206  225.1427 H   0  0  0  0  0  0  0  0  0  0  0  0
  133.2094   71.4528  226.6671 H   0  0  0  0  0  0  0  0  0  0  0  0
  131.1531   73.6001  226.1581 H   0  0  0  0  0  0  0  0  0  0  0  0
  131.3158   72.4556  227.5484 H   0  0  0  0  0  0  0  0  0  0  0  0
  133.1460   73.7430  228.3340 H   0  0  0  0  0  0  0  0  0  0  0  0
  132.2925   76.0385  226.7074 H   0  0  0  0  0  0  0  0  0  0  0  0
  133.8987   75.6971  227.3961 H   0  0  0  0  0  0  0  0  0  0  0  0
  136.6509   75.3220  224.3705 H   0  0  0  0  0  0  0  0  0  0  0  0
  136.4061   73.7448  223.5759 H   0  0  0  0  0  0  0  0  0  0  0  0
  136.5701   78.2796  222.8981 H   0  0  0  0  0  0  0  0  0  0  0  0
  138.5328   79.7513  223.0741 H   0  0  0  0  0  0  0  0  0  0  0  0
  140.8220   78.8527  222.7018 H   0  0  0  0  0  0  0  0  0  0  0  0
  141.0637   76.4426  222.1567 H   0  0  0  0  0  0  0  0  0  0  0  0
  1  2  2  0
  2  3  1  0
  3  4  2  0
  4  5  1  0
  5  6  2  0
  6  7  1  0
  7  8  2  0
  8  9  1  0
  9 10  2  0
 10 11  1  0
 11 12  2  0
  6 13  1  0
 13 14  2  0
 14 15  1  0
 15 16  2  0
 16 17  1  0
  2 18  1  0
 18 19  1  0
 20 19  1  6
 20 21  1  0
 21 22  1  0
 22 23  1  0
 23 24  1  0
 24 25  1  0
 25 26  1  0
 26 27  1  0
 27 28  1  0
 28 29  1  0
 29 30  1  0
 23 31  1  0
 20 32  1  0
 32 33  2  0
 33 34  1  0
 34 35  2  0
 35 36  1  0
 36 37  2  0
 17  3  1  0
 37 18  1  0
 16  5  1  0
 31 20  1  0
 37 32  1  0
 12  7  1  0
 30 25  1  0
  4 38  1  0
  8 39  1  0
  9 40  1  0
 10 41  1  0
 11 42  1  0
 13 43  1  0
 14 44  1  0
 15 45  1  0
 17 46  1  0
 19 47  1  0
 19 48  1  0
 21 49  1  0
 21 50  1  0
 22 51  1  0
 22 52  1  0
 24 53  1  0
 24 54  1  0
 25 55  1  6
 26 56  1  0
 26 57  1  0
 27 58  1  0
 27 59  1  0
 28 60  1  0
 28 61  1  0
 29 62  1  0
 30 63  1  0
 30 64  1  0
 31 65  1  0
 31 66  1  0
 33 67  1  0
 34 68  1  0
 35 69  1  0
 36 70  1  0
M  END
>  <smiles>  (60) 
O=C(c1cc2c(-c3ccccn3)cccc2[nH]1)N1C[C@]2(CCN(CC3CCCNC3)C2)c2ccccc21

>  <score_type>  (60) 
oracle

>  <origin>  (60) 
autodockgpu

>  <m_score__min__energy>  (60) 
-9.9199999999999999

>  <m_primary>  (60) 
energy

>  <rmsd>  (60) 
6.402439673440701

>  <m_score__min__rmsd>  (60) 
6.402439673440701

>  <meeko>  (60) 
{"free_energy": -9.87, "intermolecular_energy": -11.37, "internal_energy": -1.6, "cluster_size": 6, "cluster_id": 1, "rank_in_cluster": 3}

>  <energy>  (60) 
-9.67

>  <cluster_rmsd>  (60) 
0.0

>  <cluster>  (60) 
3

$$$$

     RDKit          3D

 70 76  0  0  1  0  0  0  0  0999 V2000
  137.0130   74.9550  221.9090 O   0  0  0  0  0  0  0  0  0  0  0  0
  136.7110   75.9360  222.6430 C   0  0  0  0  0  0  0  0  0  0  0  0
  135.7600   75.6910  223.7110 C   0  0  0  0  0  0  0  0  0  0  0  0
  135.0950   76.6380  224.4600 C   0  0  0  0  0  0  0  0  0  0  0  0
  134.3010   75.9720  225.3520 C   0  0  0  0  0  0  0  0  0  0  0  0
  133.4500   76.3940  226.3380 C   0  0  0  0  0  0  0  0  0  0  0  0
  133.1580   77.7440  226.7120 C   0  0  0  0  0  0  0  0  0  0  0  0
  132.8190   78.2350  227.9400 C   0  0  0  0  0  0  0  0  0  0  0  0
  132.6100   79.6050  228.1710 C   0  0  0  0  0  0  0  0  0  0  0  0
  132.7450   80.5100  227.1430 C   0  0  0  0  0  0  0  0  0  0  0  0
  133.0890   79.9940  225.9080 C   0  0  0  0  0  0  0  0  0  0  0  0
  133.2780   78.6880  225.7300 N   0  0  0  0  0  0  0  0  0  0  0  0
  132.8280   75.3790  227.0720 C   0  0  0  0  0  0  0  0  0  0  0  0
  133.0420   74.0440  226.8340 C   0  0  0  0  0  0  0  0  0  0  0  0
  133.8910   73.6360  225.8460 C   0  0  0  0  0  0  0  0  0  0  0  0
  134.5210   74.6260  225.1040 C   0  0  0  0  0  0  0  0  0  0  0  0
  135.4040   74.4600  224.1100 N   0  0  0  0  0  0  0  0  0  0  0  0
  137.2810   77.2170  222.4240 N   0  0  0  0  0  0  0  0  0  0  0  0
  136.5210   78.4390  222.1170 C   0  0  0  0  0  0  0  0  0  0  0  0
  137.3460   79.5080  222.8140 C   0  0  1  0  0  0  0  0  0  0  0  0
  137.2920   80.8250  222.0760 C   0  0  0  0  0  0  0  0  0  0  0  0
  137.3480   81.8250  223.1980 C   0  0  0  0  0  0  0  0  0  0  0  0
  136.6560   81.2270  224.3160 N   0  0  0  0  0  0  0  0  0  0  0  0
  137.2710   81.6690  225.5400 C   0  0  0  0  0  0  0  0  0  0  0  0
  136.2670   82.1430  226.5500 C   0  0  1  0  0  0  0  0  0  0  0  0
  136.5340   81.6410  227.9540 C   0  0  0  0  0  0  0  0  0  0  0  0
  135.1970   81.7290  228.6810 C   0  0  0  0  0  0  0  0  0  0  0  0
  134.5590   83.0420  228.2450 C   0  0  0  0  0  0  0  0  0  0  0  0
  135.5680   84.0110  227.8680 N   0  0  0  0  0  0  0  0  0  0  0  0
  136.2690   83.6600  226.6530 C   0  0  0  0  0  0  0  0  0  0  0  0
  136.9050   79.7850  224.2080 C   0  0  0  0  0  0  0  0  0  0  0  0
  138.7380   78.9900  222.7010 C   0  0  0  0  0  0  0  0  0  0  0  0
  139.9990   79.5300  222.7670 C   0  0  0  0  0  0  0  0  0  0  0  0
  141.1440   78.7670  222.6030 C   0  0  0  0  0  0  0  0  0  0  0  0
  141.0590   77.4210  222.3620 C   0  0  0  0  0  0  0  0  0  0  0  0
  139.7970   76.8680  222.2930 C   0  0  0  0  0  0  0  0  0  0  0  0
  138.6450   77.6270  222.4580 C   0  0  0  0  0  0  0  0  0  0  0  0
  135.1863   77.7295  224.3587 H   0  0  0  0  0  0  0  0  0  0  0  0
  132.7054   77.5326  228.7789 H   0  0  0  0  0  0  0  0  0  0  0  0
  132.3374   79.9556  229.1774 H   0  0  0  0  0  0  0  0  0  0  0  0
  132.5873   81.5878  227.2964 H   0  0  0  0  0  0  0  0  0  0  0  0
  133.2093   80.6767  225.0539 H   0  0  0  0  0  0  0  0  0  0  0  0
  132.1351   75.6636  227.8775 H   0  0  0  0  0  0  0  0  0  0  0  0
  132.5225   73.2932  227.4475 H   0  0  0  0  0  0  0  0  0  0  0  0
  134.0683   72.5689  225.6463 H   0  0  0  0  0  0  0  0  0  0  0  0
  135.7560   73.5570  223.7120 H   0  0  0  0  0  0  0  0  0  0  0  0
  136.4709   78.6166  221.0326 H   0  0  0  0  0  0  0  0  0  0  0  0
  135.4721   78.4033  222.4465 H   0  0  0  0  0  0  0  0  0  0  0  0
  138.1517   80.9376  221.3990 H   0  0  0  0  0  0  0  0  0  0  0  0
  136.4056   80.9335  221.4338 H   0  0  0  0  0  0  0  0  0  0  0  0
  138.3935   82.0359  223.4671 H   0  0  0  0  0  0  0  0  0  0  0  0
  136.8819   82.7774  222.9053 H   0  0  0  0  0  0  0  0  0  0  0  0
  137.8377   80.8312  225.9725 H   0  0  0  0  0  0  0  0  0  0  0  0
  137.9264   82.5183  225.2967 H   0  0  0  0  0  0  0  0  0  0  0  0
  135.3081   81.7459  226.1856 H   0  0  0  0  0  0  0  0  0  0  0  0
  136.8897   80.6004  227.9287 H   0  0  0  0  0  0  0  0  0  0  0  0
  137.3115   82.2341  228.4577 H   0  0  0  0  0  0  0  0  0  0  0  0
  134.5543   80.8815  228.4004 H   0  0  0  0  0  0  0  0  0  0  0  0
  135.3320   81.6929  229.7721 H   0  0  0  0  0  0  0  0  0  0  0  0
  133.9018   82.8536  227.3833 H   0  0  0  0  0  0  0  0  0  0  0  0
  133.9821   83.4479  229.0890 H   0  0  0  0  0  0  0  0  0  0  0  0
  136.2080   84.1600  228.6870 H   0  0  0  0  0  0  0  0  0  0  0  0
  135.7562   84.0967  225.7833 H   0  0  0  0  0  0  0  0  0  0  0  0
  137.2985   84.0470  226.6725 H   0  0  0  0  0  0  0  0  0  0  0  0
  137.6914   79.4860  224.9166 H   0  0  0  0  0  0  0  0  0  0  0  0
  135.9935   79.2166  224.4451 H   0  0  0  0  0  0  0  0  0  0  0  0
  140.1040   80.6083  222.9571 H   0  0  0  0  0  0  0  0  0  0  0  0
  142.1316   79.2471  222.6670 H   0  0  0  0  0  0  0  0  0  0  0  0
  141.9611   76.8058  222.2288 H   0  0  0  0  0  0  0  0  0  0  0  0
  139.6995   75.7893  222.1008 H   0  0  0  0  0  0  0  0  0  0  0  0
  1  2  2  0
  2  3  1  0
  3  4  2  0
  4  5  1  0
  5  6  2  0
  6  7  1  0
  7  8  2  0
  8  9  1  0
  9 10  2  0
 10 11  1  0
 11 12  2  0
  6 13  1  0
 13 14  2  0
 14 15  1  0
 15 16  2  0
 16 17  1  0
  2 18  1  0
 18 19  1  0
 20 19  1  6
 20 21  1  0
 21 22  1  0
 22 23  1  0
 23 24  1  0
 24 25  1  0
 25 26  1  0
 26 27  1  0
 27 28  1  0
 28 29  1  0
 29 30  1  0
 23 31  1  0
 20 32  1  0
 32 33  2  0
 33 34  1  0
 34 35  2  0
 35 36  1  0
 36 37  2  0
 17  3  1  0
 37 18  1  0
 16  5  1  0
 31 20  1  0
 37 32  1  0
 12  7  1  0
 30 25  1  0
  4 38  1  0
  8 39  1  0
  9 40  1  0
 10 41  1  0
 11 42  1  0
 13 43  1  0
 14 44  1  0
 15 45  1  0
 17 46  1  0
 19 47  1  0
 19 48  1  0
 21 49  1  0
 21 50  1  0
 22 51  1  0
 22 52  1  0
 24 53  1  0
 24 54  1  0
 25 55  1  6
 26 56  1  0
 26 57  1  0
 27 58  1  0
 27 59  1  0
 28 60  1  0
 28 61  1  0
 29 62  1  0
 30 63  1  0
 30 64  1  0
 31 65  1  0
 31 66  1  0
 33 67  1  0
 34 68  1  0
 35 69  1  0
 36 70  1  0
M  END
>  <smiles>  (61) 
O=C(c1cc2c(-c3ccccn3)cccc2[nH]1)N1C[C@]2(CCN(CC3CCCNC3)C2)c2ccccc21

>  <score_type>  (61) 
oracle

>  <origin>  (61) 
autodockgpu

>  <m_score__min__energy>  (61) 
-9.9199999999999999

>  <m_primary>  (61) 
energy

>  <rmsd>  (61) 
8.531429375180517

>  <m_score__min__rmsd>  (61) 
8.531429375180517

>  <meeko>  (61) 
{"free_energy": -8.21, "intermolecular_energy": -9.7, "internal_energy": -2.61, "cluster_size": 2, "cluster_id": 11, "rank_in_cluster": 2}

>  <energy>  (61) 
-9.66

>  <cluster_rmsd>  (61) 
0.16

>  <cluster>  (61) 
3

$$$$

     RDKit          3D

 70 76  0  0  1  0  0  0  0  0999 V2000
  141.1060   73.9550  221.6200 O   0  0  0  0  0  0  0  0  0  0  0  0
  139.8980   73.8200  221.9570 C   0  0  0  0  0  0  0  0  0  0  0  0
  139.4820   72.5040  222.4020 C   0  0  0  0  0  0  0  0  0  0  0  0
  139.7640   71.9120  223.6140 C   0  0  0  0  0  0  0  0  0  0  0  0
  139.1800   70.6760  223.6140 C   0  0  0  0  0  0  0  0  0  0  0  0
  139.1470   69.6590  224.5310 C   0  0  0  0  0  0  0  0  0  0  0  0
  139.7680   69.6360  225.8200 C   0  0  0  0  0  0  0  0  0  0  0  0
  140.1560   68.5560  226.5600 C   0  0  0  0  0  0  0  0  0  0  0  0
  140.8070   68.6870  227.7990 C   0  0  0  0  0  0  0  0  0  0  0  0
  141.0770   69.9360  228.3100 C   0  0  0  0  0  0  0  0  0  0  0  0
  140.6770   71.0160  227.5470 C   0  0  0  0  0  0  0  0  0  0  0  0
  140.0630   70.8490  226.3780 N   0  0  0  0  0  0  0  0  0  0  0  0
  138.4520   68.5130  224.1360 C   0  0  0  0  0  0  0  0  0  0  0  0
  137.8350   68.3950  222.9150 C   0  0  0  0  0  0  0  0  0  0  0  0
  137.8720   69.4160  222.0090 C   0  0  0  0  0  0  0  0  0  0  0  0
  138.5580   70.5650  222.3790 C   0  0  0  0  0  0  0  0  0  0  0  0
  138.7420   71.6740  221.6490 N   0  0  0  0  0  0  0  0  0  0  0  0
  138.9940   74.9130  221.8980 N   0  0  0  0  0  0  0  0  0  0  0  0
  137.6190   74.8460  221.3780 C   0  0  0  0  0  0  0  0  0  0  0  0
  136.8950   75.8380  222.2720 C   0  0  1  0  0  0  0  0  0  0  0  0
  135.7730   76.5360  221.5380 C   0  0  0  0  0  0  0  0  0  0  0  0
  134.7460   76.7220  222.6210 C   0  0  0  0  0  0  0  0  0  0  0  0
  134.8680   75.5830  223.5020 N   0  0  0  0  0  0  0  0  0  0  0  0
  134.5590   75.9940  224.8470 C   0  0  0  0  0  0  0  0  0  0  0  0
  133.6130   75.0520  225.5330 C   0  0  1  0  0  0  0  0  0  0  0  0
  134.2230   73.7030  225.8510 C   0  0  0  0  0  0  0  0  0  0  0  0
  133.0450   72.7480  226.0030 C   0  0  0  0  0  0  0  0  0  0  0  0
  131.9710   73.5110  226.7680 C   0  0  0  0  0  0  0  0  0  0  0  0
  132.5600   74.5290  227.6140 N   0  0  0  0  0  0  0  0  0  0  0  0
  133.1540   75.6170  226.8690 C   0  0  0  0  0  0  0  0  0  0  0  0
  136.2880   75.2180  223.4810 C   0  0  0  0  0  0  0  0  0  0  0  0
  137.9390   76.8600  222.5630 C   0  0  0  0  0  0  0  0  0  0  0  0
  137.9500   78.1680  222.9800 C   0  0  0  0  0  0  0  0  0  0  0  0
  139.1230   78.8840  223.1540 C   0  0  0  0  0  0  0  0  0  0  0  0
  140.3400   78.3020  222.9090 C   0  0  0  0  0  0  0  0  0  0  0  0
  140.3410   76.9880  222.4890 C   0  0  0  0  0  0  0  0  0  0  0  0
  139.1680   76.2650  222.3140 C   0  0  0  0  0  0  0  0  0  0  0  0
  140.3518   72.3535  224.4322 H   0  0  0  0  0  0  0  0  0  0  0  0
  139.9518   67.5469  226.1726 H   0  0  0  0  0  0  0  0  0  0  0  0
  141.1014   67.7888  228.3616 H   0  0  0  0  0  0  0  0  0  0  0  0
  141.5853   70.0676  229.2766 H   0  0  0  0  0  0  0  0  0  0  0  0
  140.8700   72.0351  227.9132 H   0  0  0  0  0  0  0  0  0  0  0  0
  138.3965   67.6660  224.8357 H   0  0  0  0  0  0  0  0  0  0  0  0
  137.3037   67.4653  222.6632 H   0  0  0  0  0  0  0  0  0  0  0  0
  137.3798   69.3318  221.0289 H   0  0  0  0  0  0  0  0  0  0  0  0
  138.3870   71.8690  220.6840 H   0  0  0  0  0  0  0  0  0  0  0  0
  137.5753   75.1531  220.3226 H   0  0  0  0  0  0  0  0  0  0  0  0
  137.1866   73.8347  221.3961 H   0  0  0  0  0  0  0  0  0  0  0  0
  136.1038   77.5036  221.1327 H   0  0  0  0  0  0  0  0  0  0  0  0
  135.3992   75.9741  220.6693 H   0  0  0  0  0  0  0  0  0  0  0  0
  134.9411   77.6527  223.1739 H   0  0  0  0  0  0  0  0  0  0  0  0
  133.7322   76.7925  222.2000 H   0  0  0  0  0  0  0  0  0  0  0  0
  135.4935   76.0390  225.4256 H   0  0  0  0  0  0  0  0  0  0  0  0
  134.0697   76.9776  224.7918 H   0  0  0  0  0  0  0  0  0  0  0  0
  132.7853   74.9297  224.8189 H   0  0  0  0  0  0  0  0  0  0  0  0
  134.8799   73.3756  225.0317 H   0  0  0  0  0  0  0  0  0  0  0  0
  134.8391   73.7386  226.7616 H   0  0  0  0  0  0  0  0  0  0  0  0
  132.6678   72.4483  225.0141 H   0  0  0  0  0  0  0  0  0  0  0  0
  133.3397   71.8316  226.5353 H   0  0  0  0  0  0  0  0  0  0  0  0
  131.2897   73.9903  226.0497 H   0  0  0  0  0  0  0  0  0  0  0  0
  131.4228   72.8008  227.4044 H   0  0  0  0  0  0  0  0  0  0  0  0
  133.2310   74.0650  228.2750 H   0  0  0  0  0  0  0  0  0  0  0  0
  132.4112   76.4118  226.7065 H   0  0  0  0  0  0  0  0  0  0  0  0
  134.0013   76.0503  227.4207 H   0  0  0  0  0  0  0  0  0  0  0  0
  136.7857   75.5960  224.3862 H   0  0  0  0  0  0  0  0  0  0  0  0
  136.4051   74.1246  223.4541 H   0  0  0  0  0  0  0  0  0  0  0  0
  136.9908   78.6664  223.1837 H   0  0  0  0  0  0  0  0  0  0  0  0
  139.0776   79.9298  223.4921 H   0  0  0  0  0  0  0  0  0  0  0  0
  141.2782   78.8606  223.0420 H   0  0  0  0  0  0  0  0  0  0  0  0
  141.3036   76.4960  222.2857 H   0  0  0  0  0  0  0  0  0  0  0  0
  1  2  2  0
  2  3  1  0
  3  4  2  0
  4  5  1  0
  5  6  2  0
  6  7  1  0
  7  8  2  0
  8  9  1  0
  9 10  2  0
 10 11  1  0
 11 12  2  0
  6 13  1  0
 13 14  2  0
 14 15  1  0
 15 16  2  0
 16 17  1  0
  2 18  1  0
 18 19  1  0
 20 19  1  6
 20 21  1  0
 21 22  1  0
 22 23  1  0
 23 24  1  0
 24 25  1  0
 25 26  1  0
 26 27  1  0
 27 28  1  0
 28 29  1  0
 29 30  1  0
 23 31  1  0
 20 32  1  0
 32 33  2  0
 33 34  1  0
 34 35  2  0
 35 36  1  0
 36 37  2  0
 17  3  1  0
 37 18  1  0
 16  5  1  0
 31 20  1  0
 37 32  1  0
 12  7  1  0
 30 25  1  0
  4 38  1  0
  8 39  1  0
  9 40  1  0
 10 41  1  0
 11 42  1  0
 13 43  1  0
 14 44  1  0
 15 45  1  0
 17 46  1  0
 19 47  1  0
 19 48  1  0
 21 49  1  0
 21 50  1  0
 22 51  1  0
 22 52  1  0
 24 53  1  0
 24 54  1  0
 25 55  1  6
 26 56  1  0
 26 57  1  0
 27 58  1  0
 27 59  1  0
 28 60  1  0
 28 61  1  0
 29 62  1  0
 30 63  1  0
 30 64  1  0
 31 65  1  0
 31 66  1  0
 33 67  1  0
 34 68  1  0
 35 69  1  0
 36 70  1  0
M  END
>  <smiles>  (62) 
O=C(c1cc2c(-c3ccccn3)cccc2[nH]1)N1C[C@]2(CCN(CC3CCCNC3)C2)c2ccccc21

>  <score_type>  (62) 
oracle

>  <origin>  (62) 
autodockgpu

>  <m_score__min__energy>  (62) 
-9.9199999999999999

>  <m_primary>  (62) 
energy

>  <rmsd>  (62) 
6.208910076421542

>  <m_score__min__rmsd>  (62) 
6.208910076421542

>  <meeko>  (62) 
{"free_energy": -9.75, "intermolecular_energy": -11.24, "internal_energy": -1.65, "cluster_size": 6, "cluster_id": 1, "rank_in_cluster": 5}

>  <energy>  (62) 
-9.65

>  <cluster_rmsd>  (62) 
1.78

>  <cluster>  (62) 
3

$$$$

     RDKit          3D

 70 76  0  0  1  0  0  0  0  0999 V2000
  140.1240   73.2940  222.3130 O   0  0  0  0  0  0  0  0  0  0  0  0
  140.7700   73.9950  221.4870 C   0  0  0  0  0  0  0  0  0  0  0  0
  142.0590   73.4880  221.0590 C   0  0  0  0  0  0  0  0  0  0  0  0
  142.3400   72.2160  220.6070 C   0  0  0  0  0  0  0  0  0  0  0  0
  143.6750   72.1700  220.3120 C   0  0  0  0  0  0  0  0  0  0  0  0
  144.4940   71.1740  219.8530 C   0  0  0  0  0  0  0  0  0  0  0  0
  144.1290   69.8260  219.5440 C   0  0  0  0  0  0  0  0  0  0  0  0
  144.9060   68.7030  219.5750 C   0  0  0  0  0  0  0  0  0  0  0  0
  144.3940   67.4250  219.2930 C   0  0  0  0  0  0  0  0  0  0  0  0
  143.0660   67.2670  218.9720 C   0  0  0  0  0  0  0  0  0  0  0  0
  142.2950   68.4140  218.9470 C   0  0  0  0  0  0  0  0  0  0  0  0
  142.8190   69.6070  219.2190 N   0  0  0  0  0  0  0  0  0  0  0  0
  145.8400   71.5220  219.7030 C   0  0  0  0  0  0  0  0  0  0  0  0
  146.3270   72.7730  219.9910 C   0  0  0  0  0  0  0  0  0  0  0  0
  145.4990   73.7590  220.4460 C   0  0  0  0  0  0  0  0  0  0  0  0
  144.1570   73.4370  220.6040 C   0  0  0  0  0  0  0  0  0  0  0  0
  143.1770   74.2310  221.0540 N   0  0  0  0  0  0  0  0  0  0  0  0
  140.2500   75.2250  221.0050 N   0  0  0  0  0  0  0  0  0  0  0  0
  138.8710   75.6980  221.2120 C   0  0  0  0  0  0  0  0  0  0  0  0
  139.0680   77.2000  221.3310 C   0  0  1  0  0  0  0  0  0  0  0  0
  137.8850   77.9630  220.7810 C   0  0  0  0  0  0  0  0  0  0  0  0
  137.8260   79.1610  221.6880 C   0  0  0  0  0  0  0  0  0  0  0  0
  138.2650   78.7140  222.9890 N   0  0  0  0  0  0  0  0  0  0  0  0
  138.9540   79.7920  223.6490 C   0  0  0  0  0  0  0  0  0  0  0  0
  140.3600   79.9660  223.1530 C   0  0  1  0  0  0  0  0  0  0  0  0
  140.7390   81.4100  222.8940 C   0  0  0  0  0  0  0  0  0  0  0  0
  141.9070   81.3560  221.9160 C   0  0  0  0  0  0  0  0  0  0  0  0
  142.7960   80.2060  222.3740 C   0  0  0  0  0  0  0  0  0  0  0  0
  142.6610   79.9810  223.7990 N   0  0  0  0  0  0  0  0  0  0  0  0
  141.3660   79.4580  224.1740 C   0  0  0  0  0  0  0  0  0  0  0  0
  139.2580   77.6660  222.7310 C   0  0  0  0  0  0  0  0  0  0  0  0
  140.2250   77.4640  220.4320 C   0  0  0  0  0  0  0  0  0  0  0  0
  140.7340   78.5570  219.7750 C   0  0  0  0  0  0  0  0  0  0  0  0
  141.8590   78.4850  218.9700 C   0  0  0  0  0  0  0  0  0  0  0  0
  142.5190   77.2960  218.7960 C   0  0  0  0  0  0  0  0  0  0  0  0
  142.0160   76.1910  219.4510 C   0  0  0  0  0  0  0  0  0  0  0  0
  140.8890   76.2570  220.2600 C   0  0  0  0  0  0  0  0  0  0  0  0
  141.6219   71.3893  220.5027 H   0  0  0  0  0  0  0  0  0  0  0  0
  145.9714   68.8026  219.8300 H   0  0  0  0  0  0  0  0  0  0  0  0
  145.0574   66.5483  219.3291 H   0  0  0  0  0  0  0  0  0  0  0  0
  142.6393   66.2785  218.7467 H   0  0  0  0  0  0  0  0  0  0  0  0
  141.2263   68.3394  218.6972 H   0  0  0  0  0  0  0  0  0  0  0  0
  146.5415   70.7577  219.3372 H   0  0  0  0  0  0  0  0  0  0  0  0
  147.3978   72.9837  219.8535 H   0  0  0  0  0  0  0  0  0  0  0  0
  145.8785   74.7652  220.6775 H   0  0  0  0  0  0  0  0  0  0  0  0
  143.2520   75.2340  221.3480 H   0  0  0  0  0  0  0  0  0  0  0  0
  138.2288   75.4455  220.3553 H   0  0  0  0  0  0  0  0  0  0  0  0
  138.3722   75.2454  222.0817 H   0  0  0  0  0  0  0  0  0  0  0  0
  138.0550   78.2624  219.7363 H   0  0  0  0  0  0  0  0  0  0  0  0
  136.9536   77.3781  220.7631 H   0  0  0  0  0  0  0  0  0  0  0  0
  138.4912   79.9534  221.3143 H   0  0  0  0  0  0  0  0  0  0  0  0
  136.8080   79.5754  221.7330 H   0  0  0  0  0  0  0  0  0  0  0  0
  138.3996   80.7255  223.4720 H   0  0  0  0  0  0  0  0  0  0  0  0
  139.0058   79.5486  224.7205 H   0  0  0  0  0  0  0  0  0  0  0  0
  140.3883   79.3965  222.2123 H   0  0  0  0  0  0  0  0  0  0  0  0
  139.8926   81.9562  222.4520 H   0  0  0  0  0  0  0  0  0  0  0  0
  141.0087   81.9338  223.8229 H   0  0  0  0  0  0  0  0  0  0  0  0
  141.5408   81.1711  220.8953 H   0  0  0  0  0  0  0  0  0  0  0  0
  142.4598   82.3069  221.9007 H   0  0  0  0  0  0  0  0  0  0  0  0
  142.5062   79.2912  221.8363 H   0  0  0  0  0  0  0  0  0  0  0  0
  143.8430   80.4648  222.1577 H   0  0  0  0  0  0  0  0  0  0  0  0
  142.9100   80.8690  224.3010 H   0  0  0  0  0  0  0  0  0  0  0  0
  141.3876   78.3582  224.1662 H   0  0  0  0  0  0  0  0  0  0  0  0
  141.0920   79.7866  225.1874 H   0  0  0  0  0  0  0  0  0  0  0  0
  140.2727   78.0718  222.8567 H   0  0  0  0  0  0  0  0  0  0  0  0
  139.1305   76.8315  223.4362 H   0  0  0  0  0  0  0  0  0  0  0  0
  140.2289   79.5271  219.8924 H   0  0  0  0  0  0  0  0  0  0  0  0
  142.2264   79.3907  218.4654 H   0  0  0  0  0  0  0  0  0  0  0  0
  143.4136   77.2259  218.1598 H   0  0  0  0  0  0  0  0  0  0  0  0
  142.5253   75.2238  219.3283 H   0  0  0  0  0  0  0  0  0  0  0  0
  1  2  2  0
  2  3  1  0
  3  4  2  0
  4  5  1  0
  5  6  2  0
  6  7  1  0
  7  8  2  0
  8  9  1  0
  9 10  2  0
 10 11  1  0
 11 12  2  0
  6 13  1  0
 13 14  2  0
 14 15  1  0
 15 16  2  0
 16 17  1  0
  2 18  1  0
 18 19  1  0
 20 19  1  1
 20 21  1  0
 21 22  1  0
 22 23  1  0
 23 24  1  0
 24 25  1  0
 25 26  1  0
 26 27  1  0
 27 28  1  0
 28 29  1  0
 29 30  1  0
 23 31  1  0
 20 32  1  0
 32 33  2  0
 33 34  1  0
 34 35  2  0
 35 36  1  0
 36 37  2  0
 17  3  1  0
 37 18  1  0
 16  5  1  0
 31 20  1  0
 37 32  1  0
 12  7  1  0
 30 25  1  0
  4 38  1  0
  8 39  1  0
  9 40  1  0
 10 41  1  0
 11 42  1  0
 13 43  1  0
 14 44  1  0
 15 45  1  0
 17 46  1  0
 19 47  1  0
 19 48  1  0
 21 49  1  0
 21 50  1  0
 22 51  1  0
 22 52  1  0
 24 53  1  0
 24 54  1  0
 25 55  1  6
 26 56  1  0
 26 57  1  0
 27 58  1  0
 27 59  1  0
 28 60  1  0
 28 61  1  0
 29 62  1  0
 30 63  1  0
 30 64  1  0
 31 65  1  0
 31 66  1  0
 33 67  1  0
 34 68  1  0
 35 69  1  0
 36 70  1  0
M  END
>  <smiles>  (63) 
O=C(c1cc2c(-c3ccccn3)cccc2[nH]1)N1C[C@]2(CCN(CC3CCCNC3)C2)c2ccccc21

>  <score_type>  (63) 
oracle

>  <origin>  (63) 
autodockgpu

>  <m_score__min__energy>  (63) 
-9.9199999999999999

>  <m_primary>  (63) 
energy

>  <rmsd>  (63) 
6.06952607146669

>  <m_score__min__rmsd>  (63) 
6.06952607146669

>  <meeko>  (63) 
{"free_energy": -8.8, "intermolecular_energy": -10.29, "internal_energy": -2.13, "cluster_size": 1, "cluster_id": 8, "rank_in_cluster": 1}

>  <energy>  (63) 
-9.6

>  <cluster_rmsd>  (63) 
1.8

>  <cluster>  (63) 
3

$$$$

     RDKit          3D

 70 76  0  0  1  0  0  0  0  0999 V2000
  142.6400   74.6810  220.5190 O   0  0  0  0  0  0  0  0  0  0  0  0
  141.5300   75.0550  220.9870 C   0  0  0  0  0  0  0  0  0  0  0  0
  141.4170   76.4460  221.3820 C   0  0  0  0  0  0  0  0  0  0  0  0
  141.6120   77.5520  220.5830 C   0  0  0  0  0  0  0  0  0  0  0  0
  141.4050   78.6600  221.3570 C   0  0  0  0  0  0  0  0  0  0  0  0
  141.4790   80.0030  221.1020 C   0  0  0  0  0  0  0  0  0  0  0  0
  141.8210   80.6310  219.8630 C   0  0  0  0  0  0  0  0  0  0  0  0
  142.3640   80.0690  218.7420 C   0  0  0  0  0  0  0  0  0  0  0  0
  142.6000   80.8060  217.5700 C   0  0  0  0  0  0  0  0  0  0  0  0
  142.2840   82.1440  217.5170 C   0  0  0  0  0  0  0  0  0  0  0  0
  141.7350   82.6950  218.6590 C   0  0  0  0  0  0  0  0  0  0  0  0
  141.5270   81.9620  219.7510 N   0  0  0  0  0  0  0  0  0  0  0  0
  141.2170   80.8390  222.1920 C   0  0  0  0  0  0  0  0  0  0  0  0
  140.9050   80.3650  223.4410 C   0  0  0  0  0  0  0  0  0  0  0  0
  140.8310   79.0230  223.6830 C   0  0  0  0  0  0  0  0  0  0  0  0
  141.0880   78.1720  222.6160 C   0  0  0  0  0  0  0  0  0  0  0  0
  141.0950   76.8330  222.6270 N   0  0  0  0  0  0  0  0  0  0  0  0
  140.4470   74.1470  221.1190 N   0  0  0  0  0  0  0  0  0  0  0  0
  140.5430   72.6880  220.9540 C   0  0  0  0  0  0  0  0  0  0  0  0
  139.5270   72.1880  221.9670 C   0  0  1  0  0  0  0  0  0  0  0  0
  138.8640   70.9090  221.5090 C   0  0  0  0  0  0  0  0  0  0  0  0
  138.6500   70.1760  222.8050 C   0  0  0  0  0  0  0  0  0  0  0  0
  139.7570   70.5290  223.6640 N   0  0  0  0  0  0  0  0  0  0  0  0
  139.3030   70.5520  225.0300 C   0  0  0  0  0  0  0  0  0  0  0  0
  140.0120   69.5460  225.8890 C   0  0  1  0  0  0  0  0  0  0  0  0
  139.6900   69.6720  227.3640 C   0  0  0  0  0  0  0  0  0  0  0  0
  140.8520   69.0080  228.0940 C   0  0  0  0  0  0  0  0  0  0  0  0
  141.1980   67.7550  227.2980 C   0  0  0  0  0  0  0  0  0  0  0  0
  140.0410   67.2580  226.5820 N   0  0  0  0  0  0  0  0  0  0  0  0
  139.6200   68.1270  225.5060 C   0  0  0  0  0  0  0  0  0  0  0  0
  140.1110   71.9060  223.3060 C   0  0  0  0  0  0  0  0  0  0  0  0
  138.4870   73.2550  221.9610 C   0  0  0  0  0  0  0  0  0  0  0  0
  137.1660   73.3460  222.3220 C   0  0  0  0  0  0  0  0  0  0  0  0
  136.4350   74.5140  222.1810 C   0  0  0  0  0  0  0  0  0  0  0  0
  137.0140   75.6440  221.6630 C   0  0  0  0  0  0  0  0  0  0  0  0
  138.3420   75.5630  221.2970 C   0  0  0  0  0  0  0  0  0  0  0  0
  139.0810   74.3950  221.4370 C   0  0  0  0  0  0  0  0  0  0  0  0
  141.8844   77.5447  219.5173 H   0  0  0  0  0  0  0  0  0  0  0  0
  142.6257   79.0007  218.7582 H   0  0  0  0  0  0  0  0  0  0  0  0
  143.0392   80.3116  216.6910 H   0  0  0  0  0  0  0  0  0  0  0  0
  142.4594   82.7442  216.6120 H   0  0  0  0  0  0  0  0  0  0  0  0
  141.4642   83.7611  218.6662 H   0  0  0  0  0  0  0  0  0  0  0  0
  141.2632   81.9276  222.0408 H   0  0  0  0  0  0  0  0  0  0  0  0
  140.7119   81.0753  224.2584 H   0  0  0  0  0  0  0  0  0  0  0  0
  140.5787   78.6329  224.6801 H   0  0  0  0  0  0  0  0  0  0  0  0
  140.8920   76.1990  223.4360 H   0  0  0  0  0  0  0  0  0  0  0  0
  140.2724   72.3827  219.9325 H   0  0  0  0  0  0  0  0  0  0  0  0
  141.5567   72.2899  221.1090 H   0  0  0  0  0  0  0  0  0  0  0  0
  137.9080   71.1143  221.0051 H   0  0  0  0  0  0  0  0  0  0  0  0
  139.4581   70.3432  220.7763 H   0  0  0  0  0  0  0  0  0  0  0  0
  137.6993   70.4852  223.2639 H   0  0  0  0  0  0  0  0  0  0  0  0
  138.6026   69.0889  222.6439 H   0  0  0  0  0  0  0  0  0  0  0  0
  139.4798   71.5559  225.4435 H   0  0  0  0  0  0  0  0  0  0  0  0
  138.2330   70.2967  225.0306 H   0  0  0  0  0  0  0  0  0  0  0  0
  141.0797   69.7492  225.7197 H   0  0  0  0  0  0  0  0  0  0  0  0
  139.6108   70.7310  227.6509 H   0  0  0  0  0  0  0  0  0  0  0  0
  138.7286   69.1992  227.6131 H   0  0  0  0  0  0  0  0  0  0  0  0
  141.7167   69.6869  228.1303 H   0  0  0  0  0  0  0  0  0  0  0  0
  140.5831   68.7607  229.1316 H   0  0  0  0  0  0  0  0  0  0  0  0
  141.9918   67.9957  226.5756 H   0  0  0  0  0  0  0  0  0  0  0  0
  141.5367   66.9776  227.9986 H   0  0  0  0  0  0  0  0  0  0  0  0
  139.2790   67.0610  227.2780 H   0  0  0  0  0  0  0  0  0  0  0  0
  140.1214   67.8377  224.5707 H   0  0  0  0  0  0  0  0  0  0  0  0
  138.5339   68.0527  225.3484 H   0  0  0  0  0  0  0  0  0  0  0  0
  139.6990   72.6044  224.0493 H   0  0  0  0  0  0  0  0  0  0  0  0
  141.2037   72.0304  223.2844 H   0  0  0  0  0  0  0  0  0  0  0  0
  136.6690   72.4577  222.7391 H   0  0  0  0  0  0  0  0  0  0  0  0
  135.3789   74.5354  222.4878 H   0  0  0  0  0  0  0  0  0  0  0  0
  136.4432   76.5768  221.5441 H   0  0  0  0  0  0  0  0  0  0  0  0
  138.8328   76.4546  220.8797 H   0  0  0  0  0  0  0  0  0  0  0  0
  1  2  2  0
  2  3  1  0
  3  4  2  0
  4  5  1  0
  5  6  2  0
  6  7  1  0
  7  8  2  0
  8  9  1  0
  9 10  2  0
 10 11  1  0
 11 12  2  0
  6 13  1  0
 13 14  2  0
 14 15  1  0
 15 16  2  0
 16 17  1  0
  2 18  1  0
 18 19  1  0
 20 19  1  6
 20 21  1  0
 21 22  1  0
 22 23  1  0
 23 24  1  0
 24 25  1  0
 25 26  1  0
 26 27  1  0
 27 28  1  0
 28 29  1  0
 29 30  1  0
 23 31  1  0
 20 32  1  0
 32 33  2  0
 33 34  1  0
 34 35  2  0
 35 36  1  0
 36 37  2  0
 17  3  1  0
 37 18  1  0
 16  5  1  0
 31 20  1  0
 37 32  1  0
 12  7  1  0
 30 25  1  0
  4 38  1  0
  8 39  1  0
  9 40  1  0
 10 41  1  0
 11 42  1  0
 13 43  1  0
 14 44  1  0
 15 45  1  0
 17 46  1  0
 19 47  1  0
 19 48  1  0
 21 49  1  0
 21 50  1  0
 22 51  1  0
 22 52  1  0
 24 53  1  0
 24 54  1  0
 25 55  1  1
 26 56  1  0
 26 57  1  0
 27 58  1  0
 27 59  1  0
 28 60  1  0
 28 61  1  0
 29 62  1  0
 30 63  1  0
 30 64  1  0
 31 65  1  0
 31 66  1  0
 33 67  1  0
 34 68  1  0
 35 69  1  0
 36 70  1  0
M  END
>  <smiles>  (64) 
O=C(c1cc2c(-c3ccccn3)cccc2[nH]1)N1C[C@]2(CCN(CC3CCCNC3)C2)c2ccccc21

>  <score_type>  (64) 
oracle

>  <origin>  (64) 
autodockgpu

>  <m_score__min__energy>  (64) 
-9.9199999999999999

>  <m_primary>  (64) 
energy

>  <rmsd>  (64) 
11.07334928420256

>  <m_score__min__rmsd>  (64) 
11.07334928420256

>  <meeko>  (64) 
{"free_energy": -9.6, "intermolecular_energy": -11.09, "internal_energy": -1.58, "cluster_size": 3, "cluster_id": 2, "rank_in_cluster": 2}

>  <energy>  (64) 
-9.58

>  <cluster_rmsd>  (64) 
1.83

>  <cluster>  (64) 
3

$$$$

     RDKit          3D

 70 76  0  0  1  0  0  0  0  0999 V2000
  140.3110   74.9440  221.9820 O   0  0  0  0  0  0  0  0  0  0  0  0
  139.9650   76.1550  221.9180 C   0  0  0  0  0  0  0  0  0  0  0  0
  138.6390   76.4880  222.4020 C   0  0  0  0  0  0  0  0  0  0  0  0
  138.1140   77.7500  222.5760 C   0  0  0  0  0  0  0  0  0  0  0  0
  136.8390   77.6030  223.0500 C   0  0  0  0  0  0  0  0  0  0  0  0
  135.8700   78.5000  223.4140 C   0  0  0  0  0  0  0  0  0  0  0  0
  135.9590   79.9270  223.3890 C   0  0  0  0  0  0  0  0  0  0  0  0
  135.1690   80.8190  222.7210 C   0  0  0  0  0  0  0  0  0  0  0  0
  135.3430   82.2090  222.8330 C   0  0  0  0  0  0  0  0  0  0  0  0
  136.3360   82.7210  223.6360 C   0  0  0  0  0  0  0  0  0  0  0  0
  137.1240   81.8030  224.3040 C   0  0  0  0  0  0  0  0  0  0  0  0
  136.9270   80.4930  224.1720 N   0  0  0  0  0  0  0  0  0  0  0  0
  134.6800   77.9410  223.8900 C   0  0  0  0  0  0  0  0  0  0  0  0
  134.4760   76.5870  223.9910 C   0  0  0  0  0  0  0  0  0  0  0  0
  135.4490   75.7030  223.6220 C   0  0  0  0  0  0  0  0  0  0  0  0
  136.6410   76.2340  223.1470 C   0  0  0  0  0  0  0  0  0  0  0  0
  137.7320   75.5630  222.7540 N   0  0  0  0  0  0  0  0  0  0  0  0
  140.8410   77.1410  221.3920 N   0  0  0  0  0  0  0  0  0  0  0  0
  141.3390   77.1770  220.0080 C   0  0  0  0  0  0  0  0  0  0  0  0
  141.4270   78.6700  219.7430 C   0  0  1  0  0  0  0  0  0  0  0  0
  142.5620   79.0060  218.8040 C   0  0  0  0  0  0  0  0  0  0  0  0
  142.0070   80.1710  218.0310 C   0  0  0  0  0  0  0  0  0  0  0  0
  140.5860   79.9440  217.9100 N   0  0  0  0  0  0  0  0  0  0  0  0
  139.9050   81.2120  217.9170 C   0  0  0  0  0  0  0  0  0  0  0  0
  139.7110   81.7530  219.3040 C   0  0  1  0  0  0  0  0  0  0  0  0
  140.3870   83.0880  219.5360 C   0  0  0  0  0  0  0  0  0  0  0  0
  140.5660   83.1990  221.0450 C   0  0  0  0  0  0  0  0  0  0  0  0
  139.2840   82.6600  221.6690 C   0  0  0  0  0  0  0  0  0  0  0  0
  138.1590   82.8270  220.7710 N   0  0  0  0  0  0  0  0  0  0  0  0
  138.2370   81.9860  219.5970 C   0  0  0  0  0  0  0  0  0  0  0  0
  140.1930   79.2400  219.1350 C   0  0  0  0  0  0  0  0  0  0  0  0
  141.7720   79.2340  221.0780 C   0  0  0  0  0  0  0  0  0  0  0  0
  142.3350   80.3970  221.5410 C   0  0  0  0  0  0  0  0  0  0  0  0
  142.5470   80.6340  222.8900 C   0  0  0  0  0  0  0  0  0  0  0  0
  142.1990   79.6980  223.8290 C   0  0  0  0  0  0  0  0  0  0  0  0
  141.6320   78.5260  223.3730 C   0  0  0  0  0  0  0  0  0  0  0  0
  141.4150   78.2820  222.0230 C   0  0  0  0  0  0  0  0  0  0  0  0
  138.6263   78.7017  222.3713 H   0  0  0  0  0  0  0  0  0  0  0  0
  134.3679   80.4355  222.0721 H   0  0  0  0  0  0  0  0  0  0  0  0
  134.6827   82.8904  222.2765 H   0  0  0  0  0  0  0  0  0  0  0  0
  136.4944   83.8045  223.7408 H   0  0  0  0  0  0  0  0  0  0  0  0
  137.9314   82.1625  224.9589 H   0  0  0  0  0  0  0  0  0  0  0  0
  133.8693   78.6177  224.1980 H   0  0  0  0  0  0  0  0  0  0  0  0
  133.5164   76.2096  224.3741 H   0  0  0  0  0  0  0  0  0  0  0  0
  135.2952   74.6164  223.6977 H   0  0  0  0  0  0  0  0  0  0  0  0
  137.8650   74.5250  222.7200 H   0  0  0  0  0  0  0  0  0  0  0  0
  142.3256   76.6976  219.9256 H   0  0  0  0  0  0  0  0  0  0  0  0
  140.7015   76.6364  219.2930 H   0  0  0  0  0  0  0  0  0  0  0  0
  143.4671   79.2921  219.3599 H   0  0  0  0  0  0  0  0  0  0  0  0
  142.8706   78.1633  218.1679 H   0  0  0  0  0  0  0  0  0  0  0  0
  142.1970   81.1103  218.5710 H   0  0  0  0  0  0  0  0  0  0  0  0
  142.4818   80.2544  217.0423 H   0  0  0  0  0  0  0  0  0  0  0  0
  140.4980   81.9341  217.3365 H   0  0  0  0  0  0  0  0  0  0  0  0
  138.9091   81.0588  217.4758 H   0  0  0  0  0  0  0  0  0  0  0  0
  140.1566   80.9893  219.9584 H   0  0  0  0  0  0  0  0  0  0  0  0
  141.3634   83.1172  219.0302 H   0  0  0  0  0  0  0  0  0  0  0  0
  139.7919   83.9212  219.1340 H   0  0  0  0  0  0  0  0  0  0  0  0
  141.4292   82.6003  221.3711 H   0  0  0  0  0  0  0  0  0  0  0  0
  140.7522   84.2394  221.3499 H   0  0  0  0  0  0  0  0  0  0  0  0
  139.4131   81.5899  221.8886 H   0  0  0  0  0  0  0  0  0  0  0  0
  139.0811   83.2214  222.5930 H   0  0  0  0  0  0  0  0  0  0  0  0
  138.0640   83.8480  220.5440 H   0  0  0  0  0  0  0  0  0  0  0  0
  137.7349   81.0260  219.7877 H   0  0  0  0  0  0  0  0  0  0  0  0
  137.7411   82.4663  218.7406 H   0  0  0  0  0  0  0  0  0  0  0  0
  139.7198   79.9431  219.8362 H   0  0  0  0  0  0  0  0  0  0  0  0
  139.4709   78.4421  218.9070 H   0  0  0  0  0  0  0  0  0  0  0  0
  142.6287   81.1692  220.8148 H   0  0  0  0  0  0  0  0  0  0  0  0
  142.9996   81.5839  223.2107 H   0  0  0  0  0  0  0  0  0  0  0  0
  142.3650   79.8742  224.9020 H   0  0  0  0  0  0  0  0  0  0  0  0
  141.3415   77.7575  224.1044 H   0  0  0  0  0  0  0  0  0  0  0  0
  1  2  2  0
  2  3  1  0
  3  4  2  0
  4  5  1  0
  5  6  2  0
  6  7  1  0
  7  8  2  0
  8  9  1  0
  9 10  2  0
 10 11  1  0
 11 12  2  0
  6 13  1  0
 13 14  2  0
 14 15  1  0
 15 16  2  0
 16 17  1  0
  2 18  1  0
 18 19  1  0
 20 19  1  1
 20 21  1  0
 21 22  1  0
 22 23  1  0
 23 24  1  0
 24 25  1  0
 25 26  1  0
 26 27  1  0
 27 28  1  0
 28 29  1  0
 29 30  1  0
 23 31  1  0
 20 32  1  0
 32 33  2  0
 33 34  1  0
 34 35  2  0
 35 36  1  0
 36 37  2  0
 17  3  1  0
 37 18  1  0
 16  5  1  0
 31 20  1  0
 37 32  1  0
 12  7  1  0
 30 25  1  0
  4 38  1  0
  8 39  1  0
  9 40  1  0
 10 41  1  0
 11 42  1  0
 13 43  1  0
 14 44  1  0
 15 45  1  0
 17 46  1  0
 19 47  1  0
 19 48  1  0
 21 49  1  0
 21 50  1  0
 22 51  1  0
 22 52  1  0
 24 53  1  0
 24 54  1  0
 25 55  1  1
 26 56  1  0
 26 57  1  0
 27 58  1  0
 27 59  1  0
 28 60  1  0
 28 61  1  0
 29 62  1  0
 30 63  1  0
 30 64  1  0
 31 65  1  0
 31 66  1  0
 33 67  1  0
 34 68  1  0
 35 69  1  0
 36 70  1  0
M  END
>  <smiles>  (65) 
O=C(c1cc2c(-c3ccccn3)cccc2[nH]1)N1C[C@]2(CCN(CC3CCCNC3)C2)c2ccccc21

>  <score_type>  (65) 
oracle

>  <origin>  (65) 
autodockgpu

>  <m_score__min__energy>  (65) 
-9.9199999999999999

>  <m_primary>  (65) 
energy

>  <rmsd>  (65) 
7.855544964934624

>  <m_score__min__rmsd>  (65) 
7.855544964934624

>  <meeko>  (65) 
{"free_energy": -7.43, "intermolecular_energy": -8.93, "internal_energy": -3.43, "cluster_size": 7, "cluster_id": 13, "rank_in_cluster": 5}

>  <energy>  (65) 
-9.58

>  <cluster_rmsd>  (65) 
1.66

>  <cluster>  (65) 
3

$$$$

     RDKit          3D

 70 76  0  0  1  0  0  0  0  0999 V2000
  140.3130   74.8980  221.9840 O   0  0  0  0  0  0  0  0  0  0  0  0
  139.9660   76.1090  221.9280 C   0  0  0  0  0  0  0  0  0  0  0  0
  138.6410   76.4380  222.4170 C   0  0  0  0  0  0  0  0  0  0  0  0
  138.1220   77.6990  222.6160 C   0  0  0  0  0  0  0  0  0  0  0  0
  136.8460   77.5490  223.0850 C   0  0  0  0  0  0  0  0  0  0  0  0
  135.8810   78.4420  223.4660 C   0  0  0  0  0  0  0  0  0  0  0  0
  135.9760   79.8690  223.4710 C   0  0  0  0  0  0  0  0  0  0  0  0
  136.8010   80.6670  224.2120 C   0  0  0  0  0  0  0  0  0  0  0  0
  136.8200   82.0650  224.0730 C   0  0  0  0  0  0  0  0  0  0  0  0
  135.9910   82.6830  223.1660 C   0  0  0  0  0  0  0  0  0  0  0  0
  135.1640   81.8590  222.4250 C   0  0  0  0  0  0  0  0  0  0  0  0
  135.1750   80.5380  222.5870 N   0  0  0  0  0  0  0  0  0  0  0  0
  134.6870   77.8790  223.9280 C   0  0  0  0  0  0  0  0  0  0  0  0
  134.4760   76.5250  224.0000 C   0  0  0  0  0  0  0  0  0  0  0  0
  135.4450   75.6430  223.6140 C   0  0  0  0  0  0  0  0  0  0  0  0
  136.6410   76.1790  223.1530 C   0  0  0  0  0  0  0  0  0  0  0  0
  137.7290   75.5110  222.7470 N   0  0  0  0  0  0  0  0  0  0  0  0
  140.8420   77.0990  221.4070 N   0  0  0  0  0  0  0  0  0  0  0  0
  141.3300   77.1480  220.0200 C   0  0  0  0  0  0  0  0  0  0  0  0
  141.4190   78.6440  219.7700 C   0  0  1  0  0  0  0  0  0  0  0  0
  142.5490   78.9870  218.8270 C   0  0  0  0  0  0  0  0  0  0  0  0
  141.9920   80.1610  218.0700 C   0  0  0  0  0  0  0  0  0  0  0  0
  140.5690   79.9380  217.9560 N   0  0  0  0  0  0  0  0  0  0  0  0
  139.8910   81.2080  217.9810 C   0  0  0  0  0  0  0  0  0  0  0  0
  139.7110   81.7360  219.3740 C   0  0  1  0  0  0  0  0  0  0  0  0
  140.4170   83.0540  219.6190 C   0  0  0  0  0  0  0  0  0  0  0  0
  140.6020   83.1440  221.1290 C   0  0  0  0  0  0  0  0  0  0  0  0
  139.3100   82.6260  221.7500 C   0  0  0  0  0  0  0  0  0  0  0  0
  138.1870   82.8280  220.8570 N   0  0  0  0  0  0  0  0  0  0  0  0
  138.2440   81.9990  219.6730 C   0  0  0  0  0  0  0  0  0  0  0  0
  140.1830   79.2220  219.1770 C   0  0  0  0  0  0  0  0  0  0  0  0
  141.7740   79.1930  221.1080 C   0  0  0  0  0  0  0  0  0  0  0  0
  142.3430   80.3500  221.5800 C   0  0  0  0  0  0  0  0  0  0  0  0
  142.5640   80.5730  222.9300 C   0  0  0  0  0  0  0  0  0  0  0  0
  142.2200   79.6280  223.8610 C   0  0  0  0  0  0  0  0  0  0  0  0
  141.6480   78.4610  223.3970 C   0  0  0  0  0  0  0  0  0  0  0  0
  141.4220   78.2320  222.0460 C   0  0  0  0  0  0  0  0  0  0  0  0
  138.6394   78.6520  222.4314 H   0  0  0  0  0  0  0  0  0  0  0  0
  137.4748   80.1980  224.9441 H   0  0  0  0  0  0  0  0  0  0  0  0
  137.5007   82.6678  224.6921 H   0  0  0  0  0  0  0  0  0  0  0  0
  135.9861   83.7754  223.0369 H   0  0  0  0  0  0  0  0  0  0  0  0
  134.4823   82.3049  221.6857 H   0  0  0  0  0  0  0  0  0  0  0  0
  133.8792   78.5532  224.2487 H   0  0  0  0  0  0  0  0  0  0  0  0
  133.5137   76.1448  224.3735 H   0  0  0  0  0  0  0  0  0  0  0  0
  135.2854   74.5559  223.6659 H   0  0  0  0  0  0  0  0  0  0  0  0
  137.8580   74.4730  222.6930 H   0  0  0  0  0  0  0  0  0  0  0  0
  142.3150   76.6676  219.9255 H   0  0  0  0  0  0  0  0  0  0  0  0
  140.6864   76.6159  219.3040 H   0  0  0  0  0  0  0  0  0  0  0  0
  143.4584   79.2651  219.3799 H   0  0  0  0  0  0  0  0  0  0  0  0
  142.8514   78.1502  218.1803 H   0  0  0  0  0  0  0  0  0  0  0  0
  142.1876   81.0942  218.6185 H   0  0  0  0  0  0  0  0  0  0  0  0
  142.4607   80.2540  217.0792 H   0  0  0  0  0  0  0  0  0  0  0  0
  140.4806   81.9341  217.4020 H   0  0  0  0  0  0  0  0  0  0  0  0
  138.8908   81.0615  217.5473 H   0  0  0  0  0  0  0  0  0  0  0  0
  140.1398   80.9545  220.0185 H   0  0  0  0  0  0  0  0  0  0  0  0
  141.3926   83.0675  219.1110 H   0  0  0  0  0  0  0  0  0  0  0  0
  139.8394   83.9045  219.2278 H   0  0  0  0  0  0  0  0  0  0  0  0
  141.4527   82.5230  221.4462 H   0  0  0  0  0  0  0  0  0  0  0  0
  140.8117   84.1765  221.4452 H   0  0  0  0  0  0  0  0  0  0  0  0
  139.4162   81.5509  221.9569 H   0  0  0  0  0  0  0  0  0  0  0  0
  139.1216   83.1809  222.6809 H   0  0  0  0  0  0  0  0  0  0  0  0
  138.1140   83.8530  220.6420 H   0  0  0  0  0  0  0  0  0  0  0  0
  137.7206   81.0485  219.8537 H   0  0  0  0  0  0  0  0  0  0  0  0
  137.7577   82.5005  218.8233 H   0  0  0  0  0  0  0  0  0  0  0  0
  139.7161   79.9189  219.8886 H   0  0  0  0  0  0  0  0  0  0  0  0
  139.4578   78.4279  218.9459 H   0  0  0  0  0  0  0  0  0  0  0  0
  142.6343   81.1289  220.8600 H   0  0  0  0  0  0  0  0  0  0  0  0
  143.0204   81.5187  223.2577 H   0  0  0  0  0  0  0  0  0  0  0  0
  142.3929   79.7930  224.9347 H   0  0  0  0  0  0  0  0  0  0  0  0
  141.3611   77.6853  224.1223 H   0  0  0  0  0  0  0  0  0  0  0  0
  1  2  2  0
  2  3  1  0
  3  4  2  0
  4  5  1  0
  5  6  2  0
  6  7  1  0
  7  8  2  0
  8  9  1  0
  9 10  2  0
 10 11  1  0
 11 12  2  0
  6 13  1  0
 13 14  2  0
 14 15  1  0
 15 16  2  0
 16 17  1  0
  2 18  1  0
 18 19  1  0
 20 19  1  1
 20 21  1  0
 21 22  1  0
 22 23  1  0
 23 24  1  0
 24 25  1  0
 25 26  1  0
 26 27  1  0
 27 28  1  0
 28 29  1  0
 29 30  1  0
 23 31  1  0
 20 32  1  0
 32 33  2  0
 33 34  1  0
 34 35  2  0
 35 36  1  0
 36 37  2  0
 17  3  1  0
 37 18  1  0
 16  5  1  0
 31 20  1  0
 37 32  1  0
 12  7  1  0
 30 25  1  0
  4 38  1  0
  8 39  1  0
  9 40  1  0
 10 41  1  0
 11 42  1  0
 13 43  1  0
 14 44  1  0
 15 45  1  0
 17 46  1  0
 19 47  1  0
 19 48  1  0
 21 49  1  0
 21 50  1  0
 22 51  1  0
 22 52  1  0
 24 53  1  0
 24 54  1  0
 25 55  1  1
 26 56  1  0
 26 57  1  0
 27 58  1  0
 27 59  1  0
 28 60  1  0
 28 61  1  0
 29 62  1  0
 30 63  1  0
 30 64  1  0
 31 65  1  0
 31 66  1  0
 33 67  1  0
 34 68  1  0
 35 69  1  0
 36 70  1  0
M  END
>  <smiles>  (66) 
O=C(c1cc2c(-c3ccccn3)cccc2[nH]1)N1C[C@]2(CCN(CC3CCCNC3)C2)c2ccccc21

>  <score_type>  (66) 
oracle

>  <origin>  (66) 
autodockgpu

>  <m_score__min__energy>  (66) 
-9.9199999999999999

>  <m_primary>  (66) 
energy

>  <rmsd>  (66) 
7.732876423406646

>  <m_score__min__rmsd>  (66) 
7.732876423406646

>  <meeko>  (66) 
{"free_energy": -7.4, "intermolecular_energy": -8.89, "internal_energy": -3.42, "cluster_size": 7, "cluster_id": 13, "rank_in_cluster": 7}

>  <energy>  (66) 
-9.56

>  <cluster_rmsd>  (66) 
1.84

>  <cluster>  (66) 
3

$$$$

     RDKit          3D

 70 76  0  0  1  0  0  0  0  0999 V2000
  142.7100   73.4570  220.9520 O   0  0  0  0  0  0  0  0  0  0  0  0
  141.4820   73.6590  221.1590 C   0  0  0  0  0  0  0  0  0  0  0  0
  140.7420   72.5990  221.8160 C   0  0  0  0  0  0  0  0  0  0  0  0
  140.7250   72.3130  223.1640 C   0  0  0  0  0  0  0  0  0  0  0  0
  139.9000   71.2380  223.3460 C   0  0  0  0  0  0  0  0  0  0  0  0
  139.5290   70.5230  224.4540 C   0  0  0  0  0  0  0  0  0  0  0  0
  139.9490   70.7400  225.8040 C   0  0  0  0  0  0  0  0  0  0  0  0
  139.7370   69.9530  226.9000 C   0  0  0  0  0  0  0  0  0  0  0  0
  140.2580   70.2710  228.1660 C   0  0  0  0  0  0  0  0  0  0  0  0
  141.0120   71.4080  228.3400 C   0  0  0  0  0  0  0  0  0  0  0  0
  141.2160   72.1910  227.2200 C   0  0  0  0  0  0  0  0  0  0  0  0
  140.7040   71.8560  226.0370 N   0  0  0  0  0  0  0  0  0  0  0  0
  138.6690   69.4470  224.2170 C   0  0  0  0  0  0  0  0  0  0  0  0
  138.2140   69.1130  222.9650 C   0  0  0  0  0  0  0  0  0  0  0  0
  138.5890   69.8350  221.8680 C   0  0  0  0  0  0  0  0  0  0  0  0
  139.4440   70.9090  222.0780 C   0  0  0  0  0  0  0  0  0  0  0  0
  139.9550   71.7350  221.1560 N   0  0  0  0  0  0  0  0  0  0  0  0
  140.8620   74.8730  220.7620 N   0  0  0  0  0  0  0  0  0  0  0  0
  139.4490   75.2150  220.9930 C   0  0  0  0  0  0  0  0  0  0  0  0
  139.5210   76.7150  221.2190 C   0  0  1  0  0  0  0  0  0  0  0  0
  138.2790   77.4160  220.7170 C   0  0  0  0  0  0  0  0  0  0  0  0
  138.1200   78.5370  221.7060 C   0  0  0  0  0  0  0  0  0  0  0  0
  138.5940   78.0360  222.9760 N   0  0  0  0  0  0  0  0  0  0  0  0
  139.1900   79.1170  223.7150 C   0  0  0  0  0  0  0  0  0  0  0  0
  140.5340   79.5120  223.1740 C   0  0  1  0  0  0  0  0  0  0  0  0
  140.6630   80.9950  222.8930 C   0  0  0  0  0  0  0  0  0  0  0  0
  141.7960   81.1210  221.8800 C   0  0  0  0  0  0  0  0  0  0  0  0
  142.8730   80.1380  222.3180 C   0  0  0  0  0  0  0  0  0  0  0  0
  142.8200   79.9100  223.7480 N   0  0  0  0  0  0  0  0  0  0  0  0
  141.6390   79.1870  224.1670 C   0  0  0  0  0  0  0  0  0  0  0  0
  139.6710   77.0940  222.6510 C   0  0  0  0  0  0  0  0  0  0  0  0
  140.6530   77.1380  220.3490 C   0  0  0  0  0  0  0  0  0  0  0  0
  141.0700   78.3130  219.7750 C   0  0  0  0  0  0  0  0  0  0  0  0
  142.1990   78.3910  218.9760 C   0  0  0  0  0  0  0  0  0  0  0  0
  142.9550   77.2760  218.7220 C   0  0  0  0  0  0  0  0  0  0  0  0
  142.5440   76.0900  219.2940 C   0  0  0  0  0  0  0  0  0  0  0  0
  141.4150   76.0050  220.0970 C   0  0  0  0  0  0  0  0  0  0  0  0
  141.2748   72.8513  223.9501 H   0  0  0  0  0  0  0  0  0  0  0  0
  139.1372   69.0378  226.7878 H   0  0  0  0  0  0  0  0  0  0  0  0
  140.0619   69.6077  229.0213 H   0  0  0  0  0  0  0  0  0  0  0  0
  141.4309   71.6799  229.3201 H   0  0  0  0  0  0  0  0  0  0  0  0
  141.8138   73.1103  227.3072 H   0  0  0  0  0  0  0  0  0  0  0  0
  138.3413   68.8393  225.0733 H   0  0  0  0  0  0  0  0  0  0  0  0
  137.5389   68.2530  222.8442 H   0  0  0  0  0  0  0  0  0  0  0  0
  138.2292   69.5768  220.8611 H   0  0  0  0  0  0  0  0  0  0  0  0
  139.7840   71.7220  220.1220 H   0  0  0  0  0  0  0  0  0  0  0  0
  138.8304   74.9720  220.1165 H   0  0  0  0  0  0  0  0  0  0  0  0
  138.9889   74.6623  221.8254 H   0  0  0  0  0  0  0  0  0  0  0  0
  138.4246   77.8023  219.6974 H   0  0  0  0  0  0  0  0  0  0  0  0
  137.3992   76.7590  220.6516 H   0  0  0  0  0  0  0  0  0  0  0  0
  138.7173   79.4064  221.3939 H   0  0  0  0  0  0  0  0  0  0  0  0
  137.0711   78.8613  221.7735 H   0  0  0  0  0  0  0  0  0  0  0  0
  138.5205   79.9884  223.6668 H   0  0  0  0  0  0  0  0  0  0  0  0
  139.3343   78.7742  224.7502 H   0  0  0  0  0  0  0  0  0  0  0  0
  140.6282   78.9435  222.2370 H   0  0  0  0  0  0  0  0  0  0  0  0
  139.7261   81.3895  222.4728 H   0  0  0  0  0  0  0  0  0  0  0  0
  140.8695   81.5674  223.8094 H   0  0  0  0  0  0  0  0  0  0  0  0
  141.4357   80.8670  220.8722 H   0  0  0  0  0  0  0  0  0  0  0  0
  142.1852   82.1491  221.8417 H   0  0  0  0  0  0  0  0  0  0  0  0
  142.7208   79.1819  221.7958 H   0  0  0  0  0  0  0  0  0  0  0  0
  143.8565   80.5625  222.0678 H   0  0  0  0  0  0  0  0  0  0  0  0
  142.9350   80.8330  224.2360 H   0  0  0  0  0  0  0  0  0  0  0  0
  141.8397   78.1055  224.1663 H   0  0  0  0  0  0  0  0  0  0  0  0
  141.3450   79.4784  225.1861 H   0  0  0  0  0  0  0  0  0  0  0  0
  140.6486   77.5719  222.8121 H   0  0  0  0  0  0  0  0  0  0  0  0
  139.6126   76.2037  223.2943 H   0  0  0  0  0  0  0  0  0  0  0  0
  140.4857   79.2272  219.9563 H   0  0  0  0  0  0  0  0  0  0  0  0
  142.4919   79.3578  218.5408 H   0  0  0  0  0  0  0  0  0  0  0  0
  143.8526   77.3251  218.0880 H   0  0  0  0  0  0  0  0  0  0  0  0
  143.1319   75.1792  219.1072 H   0  0  0  0  0  0  0  0  0  0  0  0
  1  2  2  0
  2  3  1  0
  3  4  2  0
  4  5  1  0
  5  6  2  0
  6  7  1  0
  7  8  2  0
  8  9  1  0
  9 10  2  0
 10 11  1  0
 11 12  2  0
  6 13  1  0
 13 14  2  0
 14 15  1  0
 15 16  2  0
 16 17  1  0
  2 18  1  0
 18 19  1  0
 20 19  1  1
 20 21  1  0
 21 22  1  0
 22 23  1  0
 23 24  1  0
 24 25  1  0
 25 26  1  0
 26 27  1  0
 27 28  1  0
 28 29  1  0
 29 30  1  0
 23 31  1  0
 20 32  1  0
 32 33  2  0
 33 34  1  0
 34 35  2  0
 35 36  1  0
 36 37  2  0
 17  3  1  0
 37 18  1  0
 16  5  1  0
 31 20  1  0
 37 32  1  0
 12  7  1  0
 30 25  1  0
  4 38  1  0
  8 39  1  0
  9 40  1  0
 10 41  1  0
 11 42  1  0
 13 43  1  0
 14 44  1  0
 15 45  1  0
 17 46  1  0
 19 47  1  0
 19 48  1  0
 21 49  1  0
 21 50  1  0
 22 51  1  0
 22 52  1  0
 24 53  1  0
 24 54  1  0
 25 55  1  6
 26 56  1  0
 26 57  1  0
 27 58  1  0
 27 59  1  0
 28 60  1  0
 28 61  1  0
 29 62  1  0
 30 63  1  0
 30 64  1  0
 31 65  1  0
 31 66  1  0
 33 67  1  0
 34 68  1  0
 35 69  1  0
 36 70  1  0
M  END
>  <smiles>  (67) 
O=C(c1cc2c(-c3ccccn3)cccc2[nH]1)N1C[C@]2(CCN(CC3CCCNC3)C2)c2ccccc21

>  <score_type>  (67) 
oracle

>  <origin>  (67) 
autodockgpu

>  <m_score__min__energy>  (67) 
-9.9199999999999999

>  <m_primary>  (67) 
energy

>  <rmsd>  (67) 
2.779592898987424

>  <m_score__min__rmsd>  (67) 
2.779592898987424

>  <meeko>  (67) 
{"free_energy": -9.52, "intermolecular_energy": -11.01, "internal_energy": -2.19, "cluster_size": 6, "cluster_id": 4, "rank_in_cluster": 4}

>  <energy>  (67) 
-9.48

>  <cluster_rmsd>  (67) 
1.9

>  <cluster>  (67) 
3

$$$$

     RDKit          3D

 70 76  0  0  1  0  0  0  0  0999 V2000
  142.4990   75.1350  220.0800 O   0  0  0  0  0  0  0  0  0  0  0  0
  141.4680   75.4710  220.7230 C   0  0  0  0  0  0  0  0  0  0  0  0
  141.4320   76.8210  221.2510 C   0  0  0  0  0  0  0  0  0  0  0  0
  141.4990   77.9940  220.5300 C   0  0  0  0  0  0  0  0  0  0  0  0
  141.4310   79.0290  221.4220 C   0  0  0  0  0  0  0  0  0  0  0  0
  141.4710   80.3900  221.2750 C   0  0  0  0  0  0  0  0  0  0  0  0
  141.6050   81.1260  220.0560 C   0  0  0  0  0  0  0  0  0  0  0  0
  141.1880   82.3960  219.7770 C   0  0  0  0  0  0  0  0  0  0  0  0
  141.4370   83.0150  218.5390 C   0  0  0  0  0  0  0  0  0  0  0  0
  142.1230   82.3420  217.5550 C   0  0  0  0  0  0  0  0  0  0  0  0
  142.5380   81.0590  217.8560 C   0  0  0  0  0  0  0  0  0  0  0  0
  142.2810   80.5080  219.0410 N   0  0  0  0  0  0  0  0  0  0  0  0
  141.4020   81.1260  222.4620 C   0  0  0  0  0  0  0  0  0  0  0  0
  141.2990   80.5420  223.7010 C   0  0  0  0  0  0  0  0  0  0  0  0
  141.2580   79.1830  223.8340 C   0  0  0  0  0  0  0  0  0  0  0  0
  141.3260   78.4310  222.6680 C   0  0  0  0  0  0  0  0  0  0  0  0
  141.3260   77.0950  222.5610 N   0  0  0  0  0  0  0  0  0  0  0  0
  140.3960   74.5600  220.9170 N   0  0  0  0  0  0  0  0  0  0  0  0
  140.4770   73.1050  220.7150 C   0  0  0  0  0  0  0  0  0  0  0  0
  139.5390   72.5850  221.7910 C   0  0  1  0  0  0  0  0  0  0  0  0
  138.8410   71.3160  221.3590 C   0  0  0  0  0  0  0  0  0  0  0  0
  138.7240   70.5560  222.6510 C   0  0  0  0  0  0  0  0  0  0  0  0
  139.8930   70.8900  223.4320 N   0  0  0  0  0  0  0  0  0  0  0  0
  139.5430   70.8860  224.8280 C   0  0  0  0  0  0  0  0  0  0  0  0
  139.9380   69.6110  225.5150 C   0  0  1  0  0  0  0  0  0  0  0  0
  139.8950   69.6970  227.0270 C   0  0  0  0  0  0  0  0  0  0  0  0
  140.8140   68.5890  227.5260 C   0  0  0  0  0  0  0  0  0  0  0  0
  140.5530   67.3820  226.6340 C   0  0  0  0  0  0  0  0  0  0  0  0
  139.2060   67.4110  226.1000 N   0  0  0  0  0  0  0  0  0  0  0  0
  138.9940   68.4760  225.1450 C   0  0  0  0  0  0  0  0  0  0  0  0
  140.2210   72.2750  223.0770 C   0  0  0  0  0  0  0  0  0  0  0  0
  138.5040   73.6520  221.8860 C   0  0  0  0  0  0  0  0  0  0  0  0
  137.2130   73.7360  222.3470 C   0  0  0  0  0  0  0  0  0  0  0  0
  136.4760   74.9070  222.2850 C   0  0  0  0  0  0  0  0  0  0  0  0
  137.0170   76.0470  221.7490 C   0  0  0  0  0  0  0  0  0  0  0  0
  138.3130   75.9730  221.2820 C   0  0  0  0  0  0  0  0  0  0  0  0
  139.0580   74.8030  221.3430 C   0  0  0  0  0  0  0  0  0  0  0  0
  141.5904   78.0818  219.4373 H   0  0  0  0  0  0  0  0  0  0  0  0
  140.6376   82.9549  220.5482 H   0  0  0  0  0  0  0  0  0  0  0  0
  141.0822   84.0402  218.3571 H   0  0  0  0  0  0  0  0  0  0  0  0
  142.3308   82.8021  216.5777 H   0  0  0  0  0  0  0  0  0  0  0  0
  143.0919   80.4809  217.1017 H   0  0  0  0  0  0  0  0  0  0  0  0
  141.4316   82.2239  222.4007 H   0  0  0  0  0  0  0  0  0  0  0  0
  141.2489   81.1769  224.5979 H   0  0  0  0  0  0  0  0  0  0  0  0
  141.1748   78.7051  224.8213 H   0  0  0  0  0  0  0  0  0  0  0  0
  141.2570   76.3920  223.3340 H   0  0  0  0  0  0  0  0  0  0  0  0
  140.1300   72.8208  219.7106 H   0  0  0  0  0  0  0  0  0  0  0  0
  141.4987   72.7034  220.7848 H   0  0  0  0  0  0  0  0  0  0  0  0
  137.8500   71.5321  220.9333 H   0  0  0  0  0  0  0  0  0  0  0  0
  139.3774   70.7654  220.5722 H   0  0  0  0  0  0  0  0  0  0  0  0
  137.8111   70.8556  223.1866 H   0  0  0  0  0  0  0  0  0  0  0  0
  138.6629   69.4726  222.4706 H   0  0  0  0  0  0  0  0  0  0  0  0
  140.0532   71.7259  225.3222 H   0  0  0  0  0  0  0  0  0  0  0  0
  138.4493   70.9795  224.8991 H   0  0  0  0  0  0  0  0  0  0  0  0
  140.9695   69.4296  225.1787 H   0  0  0  0  0  0  0  0  0  0  0  0
  140.2574   70.6786  227.3663 H   0  0  0  0  0  0  0  0  0  0  0  0
  138.8713   69.5816  227.4126 H   0  0  0  0  0  0  0  0  0  0  0  0
  141.8656   68.9015  227.4457 H   0  0  0  0  0  0  0  0  0  0  0  0
  140.6195   68.3543  228.5829 H   0  0  0  0  0  0  0  0  0  0  0  0
  141.2705   67.3893  225.8002 H   0  0  0  0  0  0  0  0  0  0  0  0
  140.6709   66.4694  227.2367 H   0  0  0  0  0  0  0  0  0  0  0  0
  138.5310   67.4360  226.9040 H   0  0  0  0  0  0  0  0  0  0  0  0
  139.2149   68.1192  224.1282 H   0  0  0  0  0  0  0  0  0  0  0  0
  137.9483   68.8165  225.1675 H   0  0  0  0  0  0  0  0  0  0  0  0
  139.8664   72.9575  223.8634 H   0  0  0  0  0  0  0  0  0  0  0  0
  141.3092   72.4000  222.9764 H   0  0  0  0  0  0  0  0  0  0  0  0
  136.7468   72.8396  222.7818 H   0  0  0  0  0  0  0  0  0  0  0  0
  135.4457   74.9225  222.6699 H   0  0  0  0  0  0  0  0  0  0  0  0
  136.4411   76.9826  221.6935 H   0  0  0  0  0  0  0  0  0  0  0  0
  138.7722   76.8725  220.8460 H   0  0  0  0  0  0  0  0  0  0  0  0
  1  2  2  0
  2  3  1  0
  3  4  2  0
  4  5  1  0
  5  6  2  0
  6  7  1  0
  7  8  2  0
  8  9  1  0
  9 10  2  0
 10 11  1  0
 11 12  2  0
  6 13  1  0
 13 14  2  0
 14 15  1  0
 15 16  2  0
 16 17  1  0
  2 18  1  0
 18 19  1  0
 20 19  1  6
 20 21  1  0
 21 22  1  0
 22 23  1  0
 23 24  1  0
 24 25  1  0
 25 26  1  0
 26 27  1  0
 27 28  1  0
 28 29  1  0
 29 30  1  0
 23 31  1  0
 20 32  1  0
 32 33  2  0
 33 34  1  0
 34 35  2  0
 35 36  1  0
 36 37  2  0
 17  3  1  0
 37 18  1  0
 16  5  1  0
 31 20  1  0
 37 32  1  0
 12  7  1  0
 30 25  1  0
  4 38  1  0
  8 39  1  0
  9 40  1  0
 10 41  1  0
 11 42  1  0
 13 43  1  0
 14 44  1  0
 15 45  1  0
 17 46  1  0
 19 47  1  0
 19 48  1  0
 21 49  1  0
 21 50  1  0
 22 51  1  0
 22 52  1  0
 24 53  1  0
 24 54  1  0
 25 55  1  1
 26 56  1  0
 26 57  1  0
 27 58  1  0
 27 59  1  0
 28 60  1  0
 28 61  1  0
 29 62  1  0
 30 63  1  0
 30 64  1  0
 31 65  1  0
 31 66  1  0
 33 67  1  0
 34 68  1  0
 35 69  1  0
 36 70  1  0
M  END
>  <smiles>  (68) 
O=C(c1cc2c(-c3ccccn3)cccc2[nH]1)N1C[C@]2(CCN(CC3CCCNC3)C2)c2ccccc21

>  <score_type>  (68) 
oracle

>  <origin>  (68) 
autodockgpu

>  <m_score__min__energy>  (68) 
-9.9199999999999999

>  <m_primary>  (68) 
energy

>  <rmsd>  (68) 
11.122021361052486

>  <m_score__min__rmsd>  (68) 
11.122021361052486

>  <meeko>  (68) 
{"free_energy": -9.67, "intermolecular_energy": -11.16, "internal_energy": -1.58, "cluster_size": 3, "cluster_id": 2, "rank_in_cluster": 1}

>  <energy>  (68) 
-9.48

>  <cluster_rmsd>  (68) 
1.7

>  <cluster>  (68) 
3

$$$$

     RDKit          3D

 70 76  0  0  1  0  0  0  0  0999 V2000
  141.9140   72.6400  221.5720 O   0  0  0  0  0  0  0  0  0  0  0  0
  140.7510   73.1140  221.6910 C   0  0  0  0  0  0  0  0  0  0  0  0
  139.7860   72.3160  222.4220 C   0  0  0  0  0  0  0  0  0  0  0  0
  140.0420   71.4740  223.4820 C   0  0  0  0  0  0  0  0  0  0  0  0
  138.8510   70.9230  223.8670 C   0  0  0  0  0  0  0  0  0  0  0  0
  138.5120   70.0170  224.8370 C   0  0  0  0  0  0  0  0  0  0  0  0
  139.3900   69.3700  225.7620 C   0  0  0  0  0  0  0  0  0  0  0  0
  140.1410   69.9260  226.7580 C   0  0  0  0  0  0  0  0  0  0  0  0
  140.9250   69.1520  227.6310 C   0  0  0  0  0  0  0  0  0  0  0  0
  140.9580   67.7830  227.5020 C   0  0  0  0  0  0  0  0  0  0  0  0
  140.1910   67.2390  226.4900 C   0  0  0  0  0  0  0  0  0  0  0  0
  139.4620   68.0060  225.6830 N   0  0  0  0  0  0  0  0  0  0  0  0
  137.1570   69.6770  224.8960 C   0  0  0  0  0  0  0  0  0  0  0  0
  136.2140   70.2050  224.0490 C   0  0  0  0  0  0  0  0  0  0  0  0
  136.5640   71.1090  223.0870 C   0  0  0  0  0  0  0  0  0  0  0  0
  137.9050   71.4620  223.0080 C   0  0  0  0  0  0  0  0  0  0  0  0
  138.4740   72.3050  222.1360 N   0  0  0  0  0  0  0  0  0  0  0  0
  140.4120   74.3730  221.1290 N   0  0  0  0  0  0  0  0  0  0  0  0
  139.0530   74.9360  221.0760 C   0  0  0  0  0  0  0  0  0  0  0  0
  139.3210   76.4220  221.2410 C   0  0  1  0  0  0  0  0  0  0  0  0
  138.3150   77.2590  220.4840 C   0  0  0  0  0  0  0  0  0  0  0  0
  138.1640   78.4630  221.3720 C   0  0  0  0  0  0  0  0  0  0  0  0
  138.3200   77.9940  222.7300 N   0  0  0  0  0  0  0  0  0  0  0  0
  138.9400   79.0280  223.5160 C   0  0  0  0  0  0  0  0  0  0  0  0
  140.2670   79.4560  222.9590 C   0  0  1  0  0  0  0  0  0  0  0  0
  140.4020   80.9560  222.7990 C   0  0  0  0  0  0  0  0  0  0  0  0
  141.4970   81.1590  221.7580 C   0  0  0  0  0  0  0  0  0  0  0  0
  142.5790   80.1330  222.0690 C   0  0  0  0  0  0  0  0  0  0  0  0
  142.5770   79.7860  223.4760 N   0  0  0  0  0  0  0  0  0  0  0  0
  141.4050   79.0400  223.8770 C   0  0  0  0  0  0  0  0  0  0  0  0
  139.2730   76.8810  222.6560 C   0  0  0  0  0  0  0  0  0  0  0  0
  140.6420   76.6070  220.5780 C   0  0  0  0  0  0  0  0  0  0  0  0
  141.3350   77.6610  220.0380 C   0  0  0  0  0  0  0  0  0  0  0  0
  142.5860   77.5110  219.4600 C   0  0  0  0  0  0  0  0  0  0  0  0
  143.1880   76.2800  219.4030 C   0  0  0  0  0  0  0  0  0  0  0  0
  142.4990   75.2140  219.9440 C   0  0  0  0  0  0  0  0  0  0  0  0
  141.2460   75.3580  220.5260 C   0  0  0  0  0  0  0  0  0  0  0  0
  141.0251   71.2802  223.9359 H   0  0  0  0  0  0  0  0  0  0  0  0
  140.1321   71.0190  226.8815 H   0  0  0  0  0  0  0  0  0  0  0  0
  141.5140   69.6427  228.4198 H   0  0  0  0  0  0  0  0  0  0  0  0
  141.5640   67.1537  228.1703 H   0  0  0  0  0  0  0  0  0  0  0  0
  140.1826   66.1482  226.3482 H   0  0  0  0  0  0  0  0  0  0  0  0
  136.8311   68.9524  225.6568 H   0  0  0  0  0  0  0  0  0  0  0  0
  135.1629   69.8958  224.1466 H   0  0  0  0  0  0  0  0  0  0  0  0
  135.8163   71.5389  222.4043 H   0  0  0  0  0  0  0  0  0  0  0  0
  138.0040   72.8530  221.3780 H   0  0  0  0  0  0  0  0  0  0  0  0
  138.5688   74.7217  220.1118 H   0  0  0  0  0  0  0  0  0  0  0  0
  138.3710   74.5213  221.8329 H   0  0  0  0  0  0  0  0  0  0  0  0
  138.6981   77.5414  219.4923 H   0  0  0  0  0  0  0  0  0  0  0  0
  137.3674   76.7362  220.2871 H   0  0  0  0  0  0  0  0  0  0  0  0
  138.9378   79.2084  221.1362 H   0  0  0  0  0  0  0  0  0  0  0  0
  137.1851   78.9435  221.2273 H   0  0  0  0  0  0  0  0  0  0  0  0
  138.2705   79.9004  223.5423 H   0  0  0  0  0  0  0  0  0  0  0  0
  139.1155   78.6223  224.5233 H   0  0  0  0  0  0  0  0  0  0  0  0
  140.3191   78.9673  221.9749 H   0  0  0  0  0  0  0  0  0  0  0  0
  139.4544   81.3920  222.4498 H   0  0  0  0  0  0  0  0  0  0  0  0
  140.6494   81.4469  223.7518 H   0  0  0  0  0  0  0  0  0  0  0  0
  141.0962   80.9950  220.7468 H   0  0  0  0  0  0  0  0  0  0  0  0
  141.8961   82.1835  221.7925 H   0  0  0  0  0  0  0  0  0  0  0  0
  142.3959   79.2258  221.4745 H   0  0  0  0  0  0  0  0  0  0  0  0
  143.5573   80.5682  221.8169 H   0  0  0  0  0  0  0  0  0  0  0  0
  142.7210   80.6630  224.0350 H   0  0  0  0  0  0  0  0  0  0  0  0
  141.5936   77.9609  223.7772 H   0  0  0  0  0  0  0  0  0  0  0  0
  141.1528   79.2469  224.9275 H   0  0  0  0  0  0  0  0  0  0  0  0
  140.2701   77.2193  222.9745 H   0  0  0  0  0  0  0  0  0  0  0  0
  138.9598   76.0600  223.3177 H   0  0  0  0  0  0  0  0  0  0  0  0
  140.8808   78.6625  220.0647 H   0  0  0  0  0  0  0  0  0  0  0  0
  143.1014   78.3886  219.0426 H   0  0  0  0  0  0  0  0  0  0  0  0
  144.1793   76.1480  218.9448 H   0  0  0  0  0  0  0  0  0  0  0  0
  142.9581   74.2149  219.9133 H   0  0  0  0  0  0  0  0  0  0  0  0
  1  2  2  0
  2  3  1  0
  3  4  2  0
  4  5  1  0
  5  6  2  0
  6  7  1  0
  7  8  2  0
  8  9  1  0
  9 10  2  0
 10 11  1  0
 11 12  2  0
  6 13  1  0
 13 14  2  0
 14 15  1  0
 15 16  2  0
 16 17  1  0
  2 18  1  0
 18 19  1  0
 20 19  1  1
 20 21  1  0
 21 22  1  0
 22 23  1  0
 23 24  1  0
 24 25  1  0
 25 26  1  0
 26 27  1  0
 27 28  1  0
 28 29  1  0
 29 30  1  0
 23 31  1  0
 20 32  1  0
 32 33  2  0
 33 34  1  0
 34 35  2  0
 35 36  1  0
 36 37  2  0
 17  3  1  0
 37 18  1  0
 16  5  1  0
 31 20  1  0
 37 32  1  0
 12  7  1  0
 30 25  1  0
  4 38  1  0
  8 39  1  0
  9 40  1  0
 10 41  1  0
 11 42  1  0
 13 43  1  0
 14 44  1  0
 15 45  1  0
 17 46  1  0
 19 47  1  0
 19 48  1  0
 21 49  1  0
 21 50  1  0
 22 51  1  0
 22 52  1  0
 24 53  1  0
 24 54  1  0
 25 55  1  6
 26 56  1  0
 26 57  1  0
 27 58  1  0
 27 59  1  0
 28 60  1  0
 28 61  1  0
 29 62  1  0
 30 63  1  0
 30 64  1  0
 31 65  1  0
 31 66  1  0
 33 67  1  0
 34 68  1  0
 35 69  1  0
 36 70  1  0
M  END
>  <smiles>  (69) 
O=C(c1cc2c(-c3ccccn3)cccc2[nH]1)N1C[C@]2(CCN(CC3CCCNC3)C2)c2ccccc21

>  <score_type>  (69) 
oracle

>  <origin>  (69) 
autodockgpu

>  <m_score__min__energy>  (69) 
-9.9199999999999999

>  <m_primary>  (69) 
energy

>  <rmsd>  (69) 
2.5754224317945775

>  <m_score__min__rmsd>  (69) 
2.5754224317945775

>  <meeko>  (69) 
{"free_energy": -9.65, "intermolecular_energy": -11.14, "internal_energy": -2.11, "cluster_size": 13, "cluster_id": 3, "rank_in_cluster": 3}

>  <energy>  (69) 
-9.44

>  <cluster_rmsd>  (69) 
1.9

>  <cluster>  (69) 
3

$$$$

     RDKit          3D

 70 76  0  0  1  0  0  0  0  0999 V2000
  142.5750   81.4490  218.5210 O   0  0  0  0  0  0  0  0  0  0  0  0
  142.0350   80.3780  218.9130 C   0  0  0  0  0  0  0  0  0  0  0  0
  142.3710   79.1670  218.1900 C   0  0  0  0  0  0  0  0  0  0  0  0
  142.5760   77.9140  218.7250 C   0  0  0  0  0  0  0  0  0  0  0  0
  142.8720   77.0690  217.6900 C   0  0  0  0  0  0  0  0  0  0  0  0
  143.1790   75.7360  217.6340 C   0  0  0  0  0  0  0  0  0  0  0  0
  143.2790   74.8230  218.7300 C   0  0  0  0  0  0  0  0  0  0  0  0
  144.0740   74.9030  219.8380 C   0  0  0  0  0  0  0  0  0  0  0  0
  144.0270   73.9490  220.8690 C   0  0  0  0  0  0  0  0  0  0  0  0
  143.1590   72.8850  220.7890 C   0  0  0  0  0  0  0  0  0  0  0  0
  142.3620   72.8220  219.6620 C   0  0  0  0  0  0  0  0  0  0  0  0
  142.4370   73.7460  218.7060 N   0  0  0  0  0  0  0  0  0  0  0  0
  143.4540   75.2340  216.3570 C   0  0  0  0  0  0  0  0  0  0  0  0
  143.4210   76.0100  215.2250 C   0  0  0  0  0  0  0  0  0  0  0  0
  143.1100   77.3380  215.2940 C   0  0  0  0  0  0  0  0  0  0  0  0
  142.8340   77.8590  216.5510 C   0  0  0  0  0  0  0  0  0  0  0  0
  142.5310   79.1280  216.8580 N   0  0  0  0  0  0  0  0  0  0  0  0
  141.1380   80.3710  220.0140 N   0  0  0  0  0  0  0  0  0  0  0  0
  139.6990   80.6700  219.9340 C   0  0  0  0  0  0  0  0  0  0  0  0
  139.1260   79.7440  220.9930 C   0  0  1  0  0  0  0  0  0  0  0  0
  137.9080   80.3430  221.6590 C   0  0  0  0  0  0  0  0  0  0  0  0
  137.0610   79.1310  221.9300 C   0  0  0  0  0  0  0  0  0  0  0  0
  137.3100   78.2050  220.8490 N   0  0  0  0  0  0  0  0  0  0  0  0
  137.2130   76.8590  221.3520 C   0  0  0  0  0  0  0  0  0  0  0  0
  138.5510   76.1850  221.4510 C   0  0  1  0  0  0  0  0  0  0  0  0
  139.3440   76.5870  222.6780 C   0  0  0  0  0  0  0  0  0  0  0  0
  140.7990   76.2810  222.3420 C   0  0  0  0  0  0  0  0  0  0  0  0
  140.7960   74.9480  221.6040 C   0  0  0  0  0  0  0  0  0  0  0  0
  139.6600   74.1390  221.9950 N   0  0  0  0  0  0  0  0  0  0  0  0
  138.3950   74.6750  221.5430 C   0  0  0  0  0  0  0  0  0  0  0  0
  138.7080   78.4180  220.4620 C   0  0  0  0  0  0  0  0  0  0  0  0
  140.2070   79.6840  222.0160 C   0  0  0  0  0  0  0  0  0  0  0  0
  140.2890   79.3620  223.3480 C   0  0  0  0  0  0  0  0  0  0  0  0
  141.4780   79.4170  224.0550 C   0  0  0  0  0  0  0  0  0  0  0  0
  142.6410   79.8050  223.4410 C   0  0  0  0  0  0  0  0  0  0  0  0
  142.5700   80.1310  222.1020 C   0  0  0  0  0  0  0  0  0  0  0  0
  141.3810   80.0770  221.3870 C   0  0  0  0  0  0  0  0  0  0  0  0
  142.5133   77.6425  219.7891 H   0  0  0  0  0  0  0  0  0  0  0  0
  144.7766   75.7448  219.9265 H   0  0  0  0  0  0  0  0  0  0  0  0
  144.6867   74.0536  221.7430 H   0  0  0  0  0  0  0  0  0  0  0  0
  143.1023   72.1238  221.5811 H   0  0  0  0  0  0  0  0  0  0  0  0
  141.6502   71.9906  219.5521 H   0  0  0  0  0  0  0  0  0  0  0  0
  143.7083   74.1686  216.2556 H   0  0  0  0  0  0  0  0  0  0  0  0
  143.6482   75.5560  214.2492 H   0  0  0  0  0  0  0  0  0  0  0  0
  143.0795   77.9677  214.3926 H   0  0  0  0  0  0  0  0  0  0  0  0
  142.4330   79.9370  216.2010 H   0  0  0  0  0  0  0  0  0  0  0  0
  139.4958   81.7244  220.1725 H   0  0  0  0  0  0  0  0  0  0  0  0
  139.2692   80.5192  218.9327 H   0  0  0  0  0  0  0  0  0  0  0  0
  138.1776   80.8574  222.5932 H   0  0  0  0  0  0  0  0  0  0  0  0
  137.4026   81.1053  221.0479 H   0  0  0  0  0  0  0  0  0  0  0  0
  137.3437   78.6773  222.8914 H   0  0  0  0  0  0  0  0  0  0  0  0
  135.9951   79.3962  221.9884 H   0  0  0  0  0  0  0  0  0  0  0  0
  136.7577   76.8883  222.3529 H   0  0  0  0  0  0  0  0  0  0  0  0
  136.5989   76.2813  220.6455 H   0  0  0  0  0  0  0  0  0  0  0  0
  139.0830   76.5002  220.5413 H   0  0  0  0  0  0  0  0  0  0  0  0
  139.2147   77.6597  222.8846 H   0  0  0  0  0  0  0  0  0  0  0  0
  139.0100   76.0449  223.5750 H   0  0  0  0  0  0  0  0  0  0  0  0
  141.2159   77.0709  221.7000 H   0  0  0  0  0  0  0  0  0  0  0  0
  141.4178   76.2339  223.2502 H   0  0  0  0  0  0  0  0  0  0  0  0
  140.7473   75.1367  220.5214 H   0  0  0  0  0  0  0  0  0  0  0  0
  141.7173   74.4043  221.8602 H   0  0  0  0  0  0  0  0  0  0  0  0
  139.6990   73.9910  223.0340 H   0  0  0  0  0  0  0  0  0  0  0  0
  138.1423   74.2618  220.5554 H   0  0  0  0  0  0  0  0  0  0  0  0
  137.5874   74.4086  222.2407 H   0  0  0  0  0  0  0  0  0  0  0  0
  139.3403   77.6264  220.8903 H   0  0  0  0  0  0  0  0  0  0  0  0
  138.8140   78.3898  219.3675 H   0  0  0  0  0  0  0  0  0  0  0  0
  139.3750   79.0483  223.8736 H   0  0  0  0  0  0  0  0  0  0  0  0
  141.4899   79.1464  225.1211 H   0  0  0  0  0  0  0  0  0  0  0  0
  143.5912   79.8544  223.9929 H   0  0  0  0  0  0  0  0  0  0  0  0
  143.4877   80.4447  221.5828 H   0  0  0  0  0  0  0  0  0  0  0  0
  1  2  2  0
  2  3  1  0
  3  4  2  0
  4  5  1  0
  5  6  2  0
  6  7  1  0
  7  8  2  0
  8  9  1  0
  9 10  2  0
 10 11  1  0
 11 12  2  0
  6 13  1  0
 13 14  2  0
 14 15  1  0
 15 16  2  0
 16 17  1  0
  2 18  1  0
 18 19  1  0
 20 19  1  6
 20 21  1  0
 21 22  1  0
 22 23  1  0
 23 24  1  0
 24 25  1  0
 25 26  1  0
 26 27  1  0
 27 28  1  0
 28 29  1  0
 29 30  1  0
 23 31  1  0
 20 32  1  0
 32 33  2  0
 33 34  1  0
 34 35  2  0
 35 36  1  0
 36 37  2  0
 17  3  1  0
 37 18  1  0
 16  5  1  0
 31 20  1  0
 37 32  1  0
 12  7  1  0
 30 25  1  0
  4 38  1  0
  8 39  1  0
  9 40  1  0
 10 41  1  0
 11 42  1  0
 13 43  1  0
 14 44  1  0
 15 45  1  0
 17 46  1  0
 19 47  1  0
 19 48  1  0
 21 49  1  0
 21 50  1  0
 22 51  1  0
 22 52  1  0
 24 53  1  0
 24 54  1  0
 25 55  1  6
 26 56  1  0
 26 57  1  0
 27 58  1  0
 27 59  1  0
 28 60  1  0
 28 61  1  0
 29 62  1  0
 30 63  1  0
 30 64  1  0
 31 65  1  0
 31 66  1  0
 33 67  1  0
 34 68  1  0
 35 69  1  0
 36 70  1  0
M  END
>  <smiles>  (70) 
O=C(c1cc2c(-c3ccccn3)cccc2[nH]1)N1C[C@]2(CCN(CC3CCCNC3)C2)c2ccccc21

>  <score_type>  (70) 
oracle

>  <origin>  (70) 
autodockgpu

>  <m_score__min__energy>  (70) 
-9.9199999999999999

>  <m_primary>  (70) 
energy

>  <rmsd>  (70) 
7.863267888552329

>  <m_score__min__rmsd>  (70) 
7.863267888552329

>  <meeko>  (70) 
{"free_energy": -8.14, "intermolecular_energy": -9.63, "internal_energy": -2.95, "cluster_size": 2, "cluster_id": 12, "rank_in_cluster": 1}

>  <energy>  (70) 
-9.39

>  <cluster_rmsd>  (70) 
1.93

>  <cluster>  (70) 
3

$$$$

     RDKit          3D

 70 76  0  0  1  0  0  0  0  0999 V2000
  141.1250   70.3320  219.4830 O   0  0  0  0  0  0  0  0  0  0  0  0
  140.8220   71.3410  220.1770 C   0  0  0  0  0  0  0  0  0  0  0  0
  139.8260   71.1530  221.2140 C   0  0  0  0  0  0  0  0  0  0  0  0
  140.0160   70.5750  222.4500 C   0  0  0  0  0  0  0  0  0  0  0  0
  138.8160   70.6010  223.1050 C   0  0  0  0  0  0  0  0  0  0  0  0
  138.4150   70.1550  224.3370 C   0  0  0  0  0  0  0  0  0  0  0  0
  139.2170   69.4970  225.3220 C   0  0  0  0  0  0  0  0  0  0  0  0
  140.1680   70.0310  226.1440 C   0  0  0  0  0  0  0  0  0  0  0  0
  140.8460   69.2660  227.1080 C   0  0  0  0  0  0  0  0  0  0  0  0
  140.5620   67.9280  227.2540 C   0  0  0  0  0  0  0  0  0  0  0  0
  139.5970   67.4060  226.4150 C   0  0  0  0  0  0  0  0  0  0  0  0
  138.9780   68.1650  225.5130 N   0  0  0  0  0  0  0  0  0  0  0  0
  137.0630   70.3460  224.6360 C   0  0  0  0  0  0  0  0  0  0  0  0
  136.1800   70.9390  223.7680 C   0  0  0  0  0  0  0  0  0  0  0  0
  136.5920   71.3820  222.5440 C   0  0  0  0  0  0  0  0  0  0  0  0
  137.9310   71.2030  222.2230 C   0  0  0  0  0  0  0  0  0  0  0  0
  138.5460   71.5360  221.0800 N   0  0  0  0  0  0  0  0  0  0  0  0
  141.4360   72.6000  219.9450 N   0  0  0  0  0  0  0  0  0  0  0  0
  140.7410   73.8000  219.4530 C   0  0  0  0  0  0  0  0  0  0  0  0
  141.4820   74.9130  220.1750 C   0  0  1  0  0  0  0  0  0  0  0  0
  141.5470   76.1730  219.3430 C   0  0  0  0  0  0  0  0  0  0  0  0
  141.4670   77.2520  220.3880 C   0  0  0  0  0  0  0  0  0  0  0  0
  140.6240   76.7400  221.4440 N   0  0  0  0  0  0  0  0  0  0  0  0
  141.0770   77.2680  222.7040 C   0  0  0  0  0  0  0  0  0  0  0  0
  141.1820   78.7650  222.6960 C   0  0  1  0  0  0  0  0  0  0  0  0
  140.2190   79.4460  223.6480 C   0  0  0  0  0  0  0  0  0  0  0  0
  140.0650   80.8690  223.1240 C   0  0  0  0  0  0  0  0  0  0  0  0
  141.4550   81.3190  222.6920 C   0  0  0  0  0  0  0  0  0  0  0  0
  142.4820   80.6270  223.4430 N   0  0  0  0  0  0  0  0  0  0  0  0
  142.5680   79.2180  223.1270 C   0  0  0  0  0  0  0  0  0  0  0  0
  140.8640   75.2940  221.4740 C   0  0  0  0  0  0  0  0  0  0  0  0
  142.8690   74.3810  220.2870 C   0  0  0  0  0  0  0  0  0  0  0  0
  144.1180   74.9180  220.4830 C   0  0  0  0  0  0  0  0  0  0  0  0
  145.2630   74.1390  220.5290 C   0  0  0  0  0  0  0  0  0  0  0  0
  145.1910   72.7790  220.3750 C   0  0  0  0  0  0  0  0  0  0  0  0
  143.9410   72.2300  220.1780 C   0  0  0  0  0  0  0  0  0  0  0  0
  142.7890   73.0040  220.1320 C   0  0  0  0  0  0  0  0  0  0  0  0
  140.9606   70.1670  222.8390 H   0  0  0  0  0  0  0  0  0  0  0  0
  140.4121   71.0992  226.0478 H   0  0  0  0  0  0  0  0  0  0  0  0
  141.6060   69.7384  227.7477 H   0  0  0  0  0  0  0  0  0  0  0  0
  141.0770   67.3057  228.0007 H   0  0  0  0  0  0  0  0  0  0  0  0
  139.3343   66.3407  226.4936 H   0  0  0  0  0  0  0  0  0  0  0  0
  136.6890   70.0052  225.6127 H   0  0  0  0  0  0  0  0  0  0  0  0
  135.1269   71.0588  224.0625 H   0  0  0  0  0  0  0  0  0  0  0  0
  135.8930   71.8603  221.8421 H   0  0  0  0  0  0  0  0  0  0  0  0
  138.1260   72.0020  220.2420 H   0  0  0  0  0  0  0  0  0  0  0  0
  140.8372   73.8983  218.3616 H   0  0  0  0  0  0  0  0  0  0  0  0
  139.6574   73.7935  219.6420 H   0  0  0  0  0  0  0  0  0  0  0  0
  142.4912   76.2314  218.7817 H   0  0  0  0  0  0  0  0  0  0  0  0
  140.7566   76.2387  218.5808 H   0  0  0  0  0  0  0  0  0  0  0  0
  142.4703   77.4777  220.7786 H   0  0  0  0  0  0  0  0  0  0  0  0
  141.0570   78.1823  219.9680 H   0  0  0  0  0  0  0  0  0  0  0  0
  140.3659   76.9685  223.4880 H   0  0  0  0  0  0  0  0  0  0  0  0
  142.0823   76.8637  222.8935 H   0  0  0  0  0  0  0  0  0  0  0  0
  140.9488   79.0481  221.6590 H   0  0  0  0  0  0  0  0  0  0  0  0
  139.2480   78.9291  223.6474 H   0  0  0  0  0  0  0  0  0  0  0  0
  140.5900   79.4307  224.6834 H   0  0  0  0  0  0  0  0  0  0  0  0
  139.3756   80.8867  222.2670 H   0  0  0  0  0  0  0  0  0  0  0  0
  139.6506   81.5359  223.8944 H   0  0  0  0  0  0  0  0  0  0  0  0
  141.5860   81.1039  221.6212 H   0  0  0  0  0  0  0  0  0  0  0  0
  141.5488   82.3982  222.8829 H   0  0  0  0  0  0  0  0  0  0  0  0
  142.3290   80.8130  224.4650 H   0  0  0  0  0  0  0  0  0  0  0  0
  143.2869   79.0588  222.3098 H   0  0  0  0  0  0  0  0  0  0  0  0
  142.9110   78.6437  224.0002 H   0  0  0  0  0  0  0  0  0  0  0  0
  141.5450   75.0440  222.3009 H   0  0  0  0  0  0  0  0  0  0  0  0
  139.9208   74.7491  221.6274 H   0  0  0  0  0  0  0  0  0  0  0  0
  144.2127   76.0068  220.6081 H   0  0  0  0  0  0  0  0  0  0  0  0
  146.2403   74.6172  220.6909 H   0  0  0  0  0  0  0  0  0  0  0  0
  146.0934   72.1508  220.4072 H   0  0  0  0  0  0  0  0  0  0  0  0
  143.8536   71.1406  220.0529 H   0  0  0  0  0  0  0  0  0  0  0  0
  1  2  2  0
  2  3  1  0
  3  4  2  0
  4  5  1  0
  5  6  2  0
  6  7  1  0
  7  8  2  0
  8  9  1  0
  9 10  2  0
 10 11  1  0
 11 12  2  0
  6 13  1  0
 13 14  2  0
 14 15  1  0
 15 16  2  0
 16 17  1  0
  2 18  1  0
 18 19  1  0
 20 19  1  6
 20 21  1  0
 21 22  1  0
 22 23  1  0
 23 24  1  0
 24 25  1  0
 25 26  1  0
 26 27  1  0
 27 28  1  0
 28 29  1  0
 29 30  1  0
 23 31  1  0
 20 32  1  0
 32 33  2  0
 33 34  1  0
 34 35  2  0
 35 36  1  0
 36 37  2  0
 17  3  1  0
 37 18  1  0
 16  5  1  0
 31 20  1  0
 37 32  1  0
 12  7  1  0
 30 25  1  0
  4 38  1  0
  8 39  1  0
  9 40  1  0
 10 41  1  0
 11 42  1  0
 13 43  1  0
 14 44  1  0
 15 45  1  0
 17 46  1  0
 19 47  1  0
 19 48  1  0
 21 49  1  0
 21 50  1  0
 22 51  1  0
 22 52  1  0
 24 53  1  0
 24 54  1  0
 25 55  1  6
 26 56  1  0
 26 57  1  0
 27 58  1  0
 27 59  1  0
 28 60  1  0
 28 61  1  0
 29 62  1  0
 30 63  1  0
 30 64  1  0
 31 65  1  0
 31 66  1  0
 33 67  1  0
 34 68  1  0
 35 69  1  0
 36 70  1  0
M  END
>  <smiles>  (71) 
O=C(c1cc2c(-c3ccccn3)cccc2[nH]1)N1C[C@]2(CCN(CC3CCCNC3)C2)c2ccccc21

>  <score_type>  (71) 
oracle

>  <origin>  (71) 
autodockgpu

>  <m_score__min__energy>  (71) 
-9.9199999999999999

>  <m_primary>  (71) 
energy

>  <rmsd>  (71) 
2.9237720982612205

>  <m_score__min__rmsd>  (71) 
2.9237720982612205

>  <meeko>  (71) 
{"free_energy": -9.67, "intermolecular_energy": -11.16, "internal_energy": -1.68, "cluster_size": 13, "cluster_id": 3, "rank_in_cluster": 1}

>  <energy>  (71) 
-9.32

>  <cluster_rmsd>  (71) 
1.72

>  <cluster>  (71) 
3

$$$$

     RDKit          3D

 70 76  0  0  1  0  0  0  0  0999 V2000
  134.5990   68.0190  224.3410 O   0  0  0  0  0  0  0  0  0  0  0  0
  134.7870   69.2420  224.5830 C   0  0  0  0  0  0  0  0  0  0  0  0
  136.1290   69.7550  224.3840 C   0  0  0  0  0  0  0  0  0  0  0  0
  137.2270   69.5340  225.1870 C   0  0  0  0  0  0  0  0  0  0  0  0
  138.2830   70.2020  224.6320 C   0  0  0  0  0  0  0  0  0  0  0  0
  139.5930   70.3510  225.0040 C   0  0  0  0  0  0  0  0  0  0  0  0
  140.2310   69.8020  226.1600 C   0  0  0  0  0  0  0  0  0  0  0  0
  140.6630   70.4470  227.2840 C   0  0  0  0  0  0  0  0  0  0  0  0
  141.2320   69.7640  228.3730 C   0  0  0  0  0  0  0  0  0  0  0  0
  141.3720   68.3960  228.3350 C   0  0  0  0  0  0  0  0  0  0  0  0
  140.9290   67.7610  227.1910 C   0  0  0  0  0  0  0  0  0  0  0  0
  140.3960   68.4440  226.1800 N   0  0  0  0  0  0  0  0  0  0  0  0
  140.3700   71.1560  224.1660 C   0  0  0  0  0  0  0  0  0  0  0  0
  139.8720   71.7650  223.0410 C   0  0  0  0  0  0  0  0  0  0  0  0
  138.5650   71.6070  222.6780 C   0  0  0  0  0  0  0  0  0  0  0  0
  137.7730   70.8120  223.4960 C   0  0  0  0  0  0  0  0  0  0  0  0
  136.4700   70.5380  223.3490 N   0  0  0  0  0  0  0  0  0  0  0  0
  133.7250   70.0720  225.0310 N   0  0  0  0  0  0  0  0  0  0  0  0
  133.6130   70.6450  226.3820 C   0  0  0  0  0  0  0  0  0  0  0  0
  132.9520   71.9840  226.1040 C   0  0  1  0  0  0  0  0  0  0  0  0
  132.0490   72.4080  227.2380 C   0  0  0  0  0  0  0  0  0  0  0  0
  132.2110   73.9040  227.2370 C   0  0  0  0  0  0  0  0  0  0  0  0
  133.5720   74.1690  226.8310 N   0  0  0  0  0  0  0  0  0  0  0  0
  133.6100   75.4010  226.0880 C   0  0  0  0  0  0  0  0  0  0  0  0
  134.2170   75.2330  224.7260 C   0  0  1  0  0  0  0  0  0  0  0  0
  133.1930   75.1320  223.6130 C   0  0  0  0  0  0  0  0  0  0  0  0
  133.9080   74.4320  222.4630 C   0  0  0  0  0  0  0  0  0  0  0  0
  135.3140   75.0170  222.4130 C   0  0  0  0  0  0  0  0  0  0  0  0
  135.3340   76.3660  222.9420 N   0  0  0  0  0  0  0  0  0  0  0  0
  135.0920   76.4240  224.3670 C   0  0  0  0  0  0  0  0  0  0  0  0
  133.9220   73.0940  225.8970 C   0  0  0  0  0  0  0  0  0  0  0  0
  132.0850   71.6980  224.9270 C   0  0  0  0  0  0  0  0  0  0  0  0
  130.9790   72.2750  224.3540 C   0  0  0  0  0  0  0  0  0  0  0  0
  130.3640   71.7490  223.2290 C   0  0  0  0  0  0  0  0  0  0  0  0
  130.8460   70.6110  222.6350 C   0  0  0  0  0  0  0  0  0  0  0  0
  131.9580   70.0240  223.2040 C   0  0  0  0  0  0  0  0  0  0  0  0
  132.5790   70.5460  224.3310 C   0  0  0  0  0  0  0  0  0  0  0  0
  137.2497   68.9305  226.1064 H   0  0  0  0  0  0  0  0  0  0  0  0
  140.5619   71.5410  227.3390 H   0  0  0  0  0  0  0  0  0  0  0  0
  141.5663   70.3251  229.2581 H   0  0  0  0  0  0  0  0  0  0  0  0
  141.8140   67.8365  229.1726 H   0  0  0  0  0  0  0  0  0  0  0  0
  141.0185   66.6674  227.1136 H   0  0  0  0  0  0  0  0  0  0  0  0
  141.4294   71.3085  224.4197 H   0  0  0  0  0  0  0  0  0  0  0  0
  140.5349   72.3889  222.4234 H   0  0  0  0  0  0  0  0  0  0  0  0
  138.1574   72.0885  221.7769 H   0  0  0  0  0  0  0  0  0  0  0  0
  135.8310   70.8630  222.5850 H   0  0  0  0  0  0  0  0  0  0  0  0
  132.9857   70.0169  227.0317 H   0  0  0  0  0  0  0  0  0  0  0  0
  134.5745   70.7265  226.9100 H   0  0  0  0  0  0  0  0  0  0  0  0
  131.0050   72.1205  227.0444 H   0  0  0  0  0  0  0  0  0  0  0  0
  132.3017   71.9389  228.2004 H   0  0  0  0  0  0  0  0  0  0  0  0
  131.5066   74.3620  226.5270 H   0  0  0  0  0  0  0  0  0  0  0  0
  132.0028   74.3273  228.2307 H   0  0  0  0  0  0  0  0  0  0  0  0
  132.5820   75.7748  225.9722 H   0  0  0  0  0  0  0  0  0  0  0  0
  134.2377   76.1096  226.6482 H   0  0  0  0  0  0  0  0  0  0  0  0
  134.7881   74.2956  224.7969 H   0  0  0  0  0  0  0  0  0  0  0  0
  132.3249   74.5419  223.9419 H   0  0  0  0  0  0  0  0  0  0  0  0
  132.8145   76.1212  223.3161 H   0  0  0  0  0  0  0  0  0  0  0  0
  133.9529   73.3482  222.6459 H   0  0  0  0  0  0  0  0  0  0  0  0
  133.3779   74.5843  221.5113 H   0  0  0  0  0  0  0  0  0  0  0  0
  135.9877   74.3859  223.0112 H   0  0  0  0  0  0  0  0  0  0  0  0
  135.6442   75.0468  221.3642 H   0  0  0  0  0  0  0  0  0  0  0  0
  134.6650   76.9520  222.3840 H   0  0  0  0  0  0  0  0  0  0  0  0
  136.0452   76.3690  224.9132 H   0  0  0  0  0  0  0  0  0  0  0  0
  134.5966   77.3675  224.6398 H   0  0  0  0  0  0  0  0  0  0  0  0
  133.8571   73.4606  224.8619 H   0  0  0  0  0  0  0  0  0  0  0  0
  134.9503   72.7467  226.0758 H   0  0  0  0  0  0  0  0  0  0  0  0
  130.5654   73.1892  224.8048 H   0  0  0  0  0  0  0  0  0  0  0  0
  129.4797   72.2498  222.8080 H   0  0  0  0  0  0  0  0  0  0  0  0
  130.3663   70.1837  221.7421 H   0  0  0  0  0  0  0  0  0  0  0  0
  132.3669   69.1101  222.7485 H   0  0  0  0  0  0  0  0  0  0  0  0
  1  2  2  0
  2  3  1  0
  3  4  2  0
  4  5  1  0
  5  6  2  0
  6  7  1  0
  7  8  2  0
  8  9  1  0
  9 10  2  0
 10 11  1  0
 11 12  2  0
  6 13  1  0
 13 14  2  0
 14 15  1  0
 15 16  2  0
 16 17  1  0
  2 18  1  0
 18 19  1  0
 20 19  1  1
 20 21  1  0
 21 22  1  0
 22 23  1  0
 23 24  1  0
 24 25  1  0
 25 26  1  0
 26 27  1  0
 27 28  1  0
 28 29  1  0
 29 30  1  0
 23 31  1  0
 20 32  1  0
 32 33  2  0
 33 34  1  0
 34 35  2  0
 35 36  1  0
 36 37  2  0
 17  3  1  0
 37 18  1  0
 16  5  1  0
 31 20  1  0
 37 32  1  0
 12  7  1  0
 30 25  1  0
  4 38  1  0
  8 39  1  0
  9 40  1  0
 10 41  1  0
 11 42  1  0
 13 43  1  0
 14 44  1  0
 15 45  1  0
 17 46  1  0
 19 47  1  0
 19 48  1  0
 21 49  1  0
 21 50  1  0
 22 51  1  0
 22 52  1  0
 24 53  1  0
 24 54  1  0
 25 55  1  1
 26 56  1  0
 26 57  1  0
 27 58  1  0
 27 59  1  0
 28 60  1  0
 28 61  1  0
 29 62  1  0
 30 63  1  0
 30 64  1  0
 31 65  1  0
 31 66  1  0
 33 67  1  0
 34 68  1  0
 35 69  1  0
 36 70  1  0
M  END
>  <smiles>  (72) 
O=C(c1cc2c(-c3ccccn3)cccc2[nH]1)N1C[C@]2(CCN(CC3CCCNC3)C2)c2ccccc21

>  <score_type>  (72) 
oracle

>  <origin>  (72) 
autodockgpu

>  <m_score__min__energy>  (72) 
-9.9199999999999999

>  <m_primary>  (72) 
energy

>  <rmsd>  (72) 
7.789635468287675

>  <m_score__min__rmsd>  (72) 
7.789635468287675

>  <meeko>  (72) 
{"free_energy": -8.57, "intermolecular_energy": -10.06, "internal_energy": -2.39, "cluster_size": 2, "cluster_id": 10, "rank_in_cluster": 2}

>  <energy>  (72) 
-9.21

>  <cluster_rmsd>  (72) 
1.25

>  <cluster>  (72) 
3

$$$$

     RDKit          3D

 70 76  0  0  1  0  0  0  0  0999 V2000
  142.6770   73.4520  220.9710 O   0  0  0  0  0  0  0  0  0  0  0  0
  141.4470   73.6370  221.1770 C   0  0  0  0  0  0  0  0  0  0  0  0
  140.7190   72.5630  221.8250 C   0  0  0  0  0  0  0  0  0  0  0  0
  140.7070   72.2650  223.1710 C   0  0  0  0  0  0  0  0  0  0  0  0
  139.8940   71.1790  223.3440 C   0  0  0  0  0  0  0  0  0  0  0  0
  139.5320   70.4500  224.4460 C   0  0  0  0  0  0  0  0  0  0  0  0
  139.9510   70.6590  225.7970 C   0  0  0  0  0  0  0  0  0  0  0  0
  139.8220   69.8230  226.8700 C   0  0  0  0  0  0  0  0  0  0  0  0
  140.3330   70.1430  228.1390 C   0  0  0  0  0  0  0  0  0  0  0  0
  140.9920   71.3340  228.3410 C   0  0  0  0  0  0  0  0  0  0  0  0
  141.1140   72.1660  227.2440 C   0  0  0  0  0  0  0  0  0  0  0  0
  140.6150   71.8260  226.0570 N   0  0  0  0  0  0  0  0  0  0  0  0
  138.6830   69.3670  224.2000 C   0  0  0  0  0  0  0  0  0  0  0  0
  138.2300   69.0400  222.9460 C   0  0  0  0  0  0  0  0  0  0  0  0
  138.5950   69.7760  221.8550 C   0  0  0  0  0  0  0  0  0  0  0  0
  139.4390   70.8570  222.0740 C   0  0  0  0  0  0  0  0  0  0  0  0
  139.9400   71.6970  221.1580 N   0  0  0  0  0  0  0  0  0  0  0  0
  140.8130   74.8460  220.7890 N   0  0  0  0  0  0  0  0  0  0  0  0
  139.4050   75.1850  221.0540 C   0  0  0  0  0  0  0  0  0  0  0  0
  139.4770   76.6870  221.2680 C   0  0  1  0  0  0  0  0  0  0  0  0
  138.2210   77.3800  220.7940 C   0  0  0  0  0  0  0  0  0  0  0  0
  138.0850   78.5090  221.7790 C   0  0  0  0  0  0  0  0  0  0  0  0
  138.5940   78.0180  223.0390 N   0  0  0  0  0  0  0  0  0  0  0  0
  139.2070   79.1070  223.7540 C   0  0  0  0  0  0  0  0  0  0  0  0
  140.4360   79.6260  223.0680 C   0  0  1  0  0  0  0  0  0  0  0  0
  140.4370   81.1300  222.8800 C   0  0  0  0  0  0  0  0  0  0  0  0
  141.4080   81.3980  221.7360 C   0  0  0  0  0  0  0  0  0  0  0  0
  142.5930   80.4650  221.9530 C   0  0  0  0  0  0  0  0  0  0  0  0
  142.7520   80.1440  223.3570 N   0  0  0  0  0  0  0  0  0  0  0  0
  141.6860   79.3170  223.8770 C   0  0  0  0  0  0  0  0  0  0  0  0
  139.6650   77.0770  222.6920 C   0  0  0  0  0  0  0  0  0  0  0  0
  140.5850   77.1070  220.3650 C   0  0  0  0  0  0  0  0  0  0  0  0
  140.9830   78.2790  219.7710 C   0  0  0  0  0  0  0  0  0  0  0  0
  142.0900   78.3550  218.9410 C   0  0  0  0  0  0  0  0  0  0  0  0
  142.8420   77.2400  218.6750 C   0  0  0  0  0  0  0  0  0  0  0  0
  142.4500   76.0570  219.2660 C   0  0  0  0  0  0  0  0  0  0  0  0
  141.3430   75.9750  220.1000 C   0  0  0  0  0  0  0  0  0  0  0  0
  141.2517   72.8024  223.9612 H   0  0  0  0  0  0  0  0  0  0  0  0
  139.2991   68.8646  226.7354 H   0  0  0  0  0  0  0  0  0  0  0  0
  140.2058   69.4387  228.9744 H   0  0  0  0  0  0  0  0  0  0  0  0
  141.4005   71.6096  229.3244 H   0  0  0  0  0  0  0  0  0  0  0  0
  141.6341   73.1291  227.3537 H   0  0  0  0  0  0  0  0  0  0  0  0
  138.3629   68.7479  225.0510 H   0  0  0  0  0  0  0  0  0  0  0  0
  137.5642   68.1737  222.8182 H   0  0  0  0  0  0  0  0  0  0  0  0
  138.2360   69.5235  220.8463 H   0  0  0  0  0  0  0  0  0  0  0  0
  139.7670   71.6920  220.1250 H   0  0  0  0  0  0  0  0  0  0  0  0
  138.7649   74.9338  220.1954 H   0  0  0  0  0  0  0  0  0  0  0  0
  138.9686   74.6365  221.9018 H   0  0  0  0  0  0  0  0  0  0  0  0
  138.3383   77.7588  219.7680 H   0  0  0  0  0  0  0  0  0  0  0  0
  137.3417   76.7201  220.7570 H   0  0  0  0  0  0  0  0  0  0  0  0
  138.6715   79.3775  221.4448 H   0  0  0  0  0  0  0  0  0  0  0  0
  137.0375   78.8318  221.8719 H   0  0  0  0  0  0  0  0  0  0  0  0
  138.4785   79.9267  223.8402 H   0  0  0  0  0  0  0  0  0  0  0  0
  139.5102   78.7294  224.7417 H   0  0  0  0  0  0  0  0  0  0  0  0
  140.4322   79.1246  222.0889 H   0  0  0  0  0  0  0  0  0  0  0  0
  139.4290   81.4853  222.6197 H   0  0  0  0  0  0  0  0  0  0  0  0
  140.7351   81.6555  223.7992 H   0  0  0  0  0  0  0  0  0  0  0  0
  140.9269   81.1843  220.7702 H   0  0  0  0  0  0  0  0  0  0  0  0
  141.7260   82.4509  221.7200 H   0  0  0  0  0  0  0  0  0  0  0  0
  142.4271   79.5357  221.3883 H   0  0  0  0  0  0  0  0  0  0  0  0
  143.5053   80.9709  221.6041 H   0  0  0  0  0  0  0  0  0  0  0  0
  142.8780   81.0400  223.8900 H   0  0  0  0  0  0  0  0  0  0  0  0
  141.9490   78.2541  223.7717 H   0  0  0  0  0  0  0  0  0  0  0  0
  141.5191   79.5236  224.9445 H   0  0  0  0  0  0  0  0  0  0  0  0
  140.6450   77.5592  222.8227 H   0  0  0  0  0  0  0  0  0  0  0  0
  139.6274   76.1914  223.3434 H   0  0  0  0  0  0  0  0  0  0  0  0
  140.4008   79.1927  219.9612 H   0  0  0  0  0  0  0  0  0  0  0  0
  142.3681   79.3195  218.4911 H   0  0  0  0  0  0  0  0  0  0  0  0
  143.7222   77.2869  218.0170 H   0  0  0  0  0  0  0  0  0  0  0  0
  143.0350   75.1464  219.0697 H   0  0  0  0  0  0  0  0  0  0  0  0
  1  2  2  0
  2  3  1  0
  3  4  2  0
  4  5  1  0
  5  6  2  0
  6  7  1  0
  7  8  2  0
  8  9  1  0
  9 10  2  0
 10 11  1  0
 11 12  2  0
  6 13  1  0
 13 14  2  0
 14 15  1  0
 15 16  2  0
 16 17  1  0
  2 18  1  0
 18 19  1  0
 20 19  1  1
 20 21  1  0
 21 22  1  0
 22 23  1  0
 23 24  1  0
 24 25  1  0
 25 26  1  0
 26 27  1  0
 27 28  1  0
 28 29  1  0
 29 30  1  0
 23 31  1  0
 20 32  1  0
 32 33  2  0
 33 34  1  0
 34 35  2  0
 35 36  1  0
 36 37  2  0
 17  3  1  0
 37 18  1  0
 16  5  1  0
 31 20  1  0
 37 32  1  0
 12  7  1  0
 30 25  1  0
  4 38  1  0
  8 39  1  0
  9 40  1  0
 10 41  1  0
 11 42  1  0
 13 43  1  0
 14 44  1  0
 15 45  1  0
 17 46  1  0
 19 47  1  0
 19 48  1  0
 21 49  1  0
 21 50  1  0
 22 51  1  0
 22 52  1  0
 24 53  1  0
 24 54  1  0
 25 55  1  6
 26 56  1  0
 26 57  1  0
 27 58  1  0
 27 59  1  0
 28 60  1  0
 28 61  1  0
 29 62  1  0
 30 63  1  0
 30 64  1  0
 31 65  1  0
 31 66  1  0
 33 67  1  0
 34 68  1  0
 35 69  1  0
 36 70  1  0
M  END
>  <smiles>  (73) 
O=C(c1cc2c(-c3ccccn3)cccc2[nH]1)N1C[C@]2(CCN(CC3CCCNC3)C2)c2ccccc21

>  <score_type>  (73) 
oracle

>  <origin>  (73) 
autodockgpu

>  <m_score__min__energy>  (73) 
-9.9199999999999999

>  <m_primary>  (73) 
energy

>  <rmsd>  (73) 
2.740393397202775

>  <m_score__min__rmsd>  (73) 
2.740393397202775

>  <meeko>  (73) 
{"free_energy": -9.54, "intermolecular_energy": -11.03, "internal_energy": -2.18, "cluster_size": 6, "cluster_id": 4, "rank_in_cluster": 3}

>  <energy>  (73) 
-9.6

>  <cluster_rmsd>  (73) 
0.0

>  <cluster>  (73) 
4

$$$$

     RDKit          3D

 70 76  0  0  1  0  0  0  0  0999 V2000
  142.2000   72.7860  221.4330 O   0  0  0  0  0  0  0  0  0  0  0  0
  141.0100   73.1830  221.5680 C   0  0  0  0  0  0  0  0  0  0  0  0
  140.1070   72.3190  222.3040 C   0  0  0  0  0  0  0  0  0  0  0  0
  140.3300   71.7480  223.5380 C   0  0  0  0  0  0  0  0  0  0  0  0
  139.2220   71.0110  223.8560 C   0  0  0  0  0  0  0  0  0  0  0  0
  138.9000   70.2280  224.9320 C   0  0  0  0  0  0  0  0  0  0  0  0
  139.7070   69.9640  226.0830 C   0  0  0  0  0  0  0  0  0  0  0  0
  140.3450   70.8530  226.9000 C   0  0  0  0  0  0  0  0  0  0  0  0
  141.0680   70.4480  228.0350 C   0  0  0  0  0  0  0  0  0  0  0  0
  141.1530   69.1140  228.3620 C   0  0  0  0  0  0  0  0  0  0  0  0
  140.5010   68.2300  227.5240 C   0  0  0  0  0  0  0  0  0  0  0  0
  139.8270   68.6540  226.4570 N   0  0  0  0  0  0  0  0  0  0  0  0
  137.6520   69.6010  224.8690 C   0  0  0  0  0  0  0  0  0  0  0  0
  136.7930   69.7480  223.8090 C   0  0  0  0  0  0  0  0  0  0  0  0
  137.1240   70.5340  222.7420 C   0  0  0  0  0  0  0  0  0  0  0  0
  138.3590   71.1670  222.7820 C   0  0  0  0  0  0  0  0  0  0  0  0
  138.8980   71.9600  221.8450 N   0  0  0  0  0  0  0  0  0  0  0  0
  140.5850   74.4220  221.0200 N   0  0  0  0  0  0  0  0  0  0  0  0
  139.1950   74.9070  221.0080 C   0  0  0  0  0  0  0  0  0  0  0  0
  139.3830   76.4060  221.1700 C   0  0  1  0  0  0  0  0  0  0  0  0
  138.3100   77.1850  220.4450 C   0  0  0  0  0  0  0  0  0  0  0  0
  138.1180   78.3780  221.3400 C   0  0  0  0  0  0  0  0  0  0  0  0
  138.3400   77.9170  222.6920 N   0  0  0  0  0  0  0  0  0  0  0  0
  138.9240   78.9830  223.4620 C   0  0  0  0  0  0  0  0  0  0  0  0
  140.2500   79.4280  222.9160 C   0  0  1  0  0  0  0  0  0  0  0  0
  140.3690   80.9300  222.7600 C   0  0  0  0  0  0  0  0  0  0  0  0
  141.4700   81.1470  221.7270 C   0  0  0  0  0  0  0  0  0  0  0  0
  142.5610   80.1330  222.0460 C   0  0  0  0  0  0  0  0  0  0  0  0
  142.5520   79.7830  223.4520 N   0  0  0  0  0  0  0  0  0  0  0  0
  141.3850   79.0230  223.8430 C   0  0  0  0  0  0  0  0  0  0  0  0
  139.3520   76.8600  222.5860 C   0  0  0  0  0  0  0  0  0  0  0  0
  140.6720   76.6650  220.4690 C   0  0  0  0  0  0  0  0  0  0  0  0
  141.2890   77.7570  219.9110 C   0  0  0  0  0  0  0  0  0  0  0  0
  142.5280   77.6790  219.2960 C   0  0  0  0  0  0  0  0  0  0  0  0
  143.1960   76.4840  219.2190 C   0  0  0  0  0  0  0  0  0  0  0  0
  142.5850   75.3800  219.7770 C   0  0  0  0  0  0  0  0  0  0  0  0
  141.3440   75.4530  220.3950 C   0  0  0  0  0  0  0  0  0  0  0  0
  141.2335   71.8635  224.1546 H   0  0  0  0  0  0  0  0  0  0  0  0
  140.2910   71.9254  226.6609 H   0  0  0  0  0  0  0  0  0  0  0  0
  141.5675   71.1996  228.6639 H   0  0  0  0  0  0  0  0  0  0  0  0
  141.7112   68.7693  229.2449 H   0  0  0  0  0  0  0  0  0  0  0  0
  140.5396   67.1527  227.7431 H   0  0  0  0  0  0  0  0  0  0  0  0
  137.3443   68.9599  225.7083 H   0  0  0  0  0  0  0  0  0  0  0  0
  135.8249   69.2259  223.8187 H   0  0  0  0  0  0  0  0  0  0  0  0
  136.4418   70.6599  221.8883 H   0  0  0  0  0  0  0  0  0  0  0  0
  138.4730   72.2500  220.9330 H   0  0  0  0  0  0  0  0  0  0  0  0
  138.6960   74.6670  220.0575 H   0  0  0  0  0  0  0  0  0  0  0  0
  138.5598   74.4530  221.7829 H   0  0  0  0  0  0  0  0  0  0  0  0
  138.6471   77.4891  219.4431 H   0  0  0  0  0  0  0  0  0  0  0  0
  137.3879   76.6099  220.2748 H   0  0  0  0  0  0  0  0  0  0  0  0
  138.8416   79.1658  221.0835 H   0  0  0  0  0  0  0  0  0  0  0  0
  137.1100   78.8032  221.2252 H   0  0  0  0  0  0  0  0  0  0  0  0
  138.2348   79.8403  223.4567 H   0  0  0  0  0  0  0  0  0  0  0  0
  139.0924   78.6052  224.4813 H   0  0  0  0  0  0  0  0  0  0  0  0
  140.3157   78.9427  221.9310 H   0  0  0  0  0  0  0  0  0  0  0  0
  139.4191   81.3559  222.4046 H   0  0  0  0  0  0  0  0  0  0  0  0
  140.6035   81.4220  223.7155 H   0  0  0  0  0  0  0  0  0  0  0  0
  141.0790   80.9794  220.7126 H   0  0  0  0  0  0  0  0  0  0  0  0
  141.8569   82.1760  221.7650 H   0  0  0  0  0  0  0  0  0  0  0  0
  142.3934   79.2248  221.4485 H   0  0  0  0  0  0  0  0  0  0  0  0
  143.5361   80.5805  221.8033 H   0  0  0  0  0  0  0  0  0  0  0  0
  142.6810   80.6610  224.0140 H   0  0  0  0  0  0  0  0  0  0  0  0
  141.5863   77.9462  223.7434 H   0  0  0  0  0  0  0  0  0  0  0  0
  141.1221   79.2252  224.8918 H   0  0  0  0  0  0  0  0  0  0  0  0
  140.3375   77.2542  222.8750 H   0  0  0  0  0  0  0  0  0  0  0  0
  139.1061   76.0219  223.2546 H   0  0  0  0  0  0  0  0  0  0  0  0
  140.7802   78.7313  219.9538 H   0  0  0  0  0  0  0  0  0  0  0  0
  142.9803   78.5845  218.8653 H   0  0  0  0  0  0  0  0  0  0  0  0
  144.1794   76.4086  218.7319 H   0  0  0  0  0  0  0  0  0  0  0  0
  143.0989   74.4085  219.7306 H   0  0  0  0  0  0  0  0  0  0  0  0
  1  2  2  0
  2  3  1  0
  3  4  2  0
  4  5  1  0
  5  6  2  0
  6  7  1  0
  7  8  2  0
  8  9  1  0
  9 10  2  0
 10 11  1  0
 11 12  2  0
  6 13  1  0
 13 14  2  0
 14 15  1  0
 15 16  2  0
 16 17  1  0
  2 18  1  0
 18 19  1  0
 20 19  1  1
 20 21  1  0
 21 22  1  0
 22 23  1  0
 23 24  1  0
 24 25  1  0
 25 26  1  0
 26 27  1  0
 27 28  1  0
 28 29  1  0
 29 30  1  0
 23 31  1  0
 20 32  1  0
 32 33  2  0
 33 34  1  0
 34 35  2  0
 35 36  1  0
 36 37  2  0
 17  3  1  0
 37 18  1  0
 16  5  1  0
 31 20  1  0
 37 32  1  0
 12  7  1  0
 30 25  1  0
  4 38  1  0
  8 39  1  0
  9 40  1  0
 10 41  1  0
 11 42  1  0
 13 43  1  0
 14 44  1  0
 15 45  1  0
 17 46  1  0
 19 47  1  0
 19 48  1  0
 21 49  1  0
 21 50  1  0
 22 51  1  0
 22 52  1  0
 24 53  1  0
 24 54  1  0
 25 55  1  6
 26 56  1  0
 26 57  1  0
 27 58  1  0
 27 59  1  0
 28 60  1  0
 28 61  1  0
 29 62  1  0
 30 63  1  0
 30 64  1  0
 31 65  1  0
 31 66  1  0
 33 67  1  0
 34 68  1  0
 35 69  1  0
 36 70  1  0
M  END
>  <smiles>  (74) 
O=C(c1cc2c(-c3ccccn3)cccc2[nH]1)N1C[C@]2(CCN(CC3CCCNC3)C2)c2ccccc21

>  <score_type>  (74) 
oracle

>  <origin>  (74) 
autodockgpu

>  <m_score__min__energy>  (74) 
-9.9199999999999999

>  <m_primary>  (74) 
energy

>  <rmsd>  (74) 
2.437847086805779

>  <m_score__min__rmsd>  (74) 
2.437847086805779

>  <meeko>  (74) 
{"free_energy": -9.56, "intermolecular_energy": -11.05, "internal_energy": -2.18, "cluster_size": 13, "cluster_id": 3, "rank_in_cluster": 7}

>  <energy>  (74) 
-9.6

>  <cluster_rmsd>  (74) 
0.06

>  <cluster>  (74) 
4

$$$$

     RDKit          3D

 70 76  0  0  1  0  0  0  0  0999 V2000
  139.2560   67.5280  219.1260 O   0  0  0  0  0  0  0  0  0  0  0  0
  139.9120   68.2910  219.8870 C   0  0  0  0  0  0  0  0  0  0  0  0
  141.3320   68.4220  219.6220 C   0  0  0  0  0  0  0  0  0  0  0  0
  142.1120   69.5400  219.8260 C   0  0  0  0  0  0  0  0  0  0  0  0
  143.3870   69.2270  219.4440 C   0  0  0  0  0  0  0  0  0  0  0  0
  144.5530   69.9440  219.4090 C   0  0  0  0  0  0  0  0  0  0  0  0
  144.7420   71.3090  219.7930 C   0  0  0  0  0  0  0  0  0  0  0  0
  143.8890   72.1290  220.4750 C   0  0  0  0  0  0  0  0  0  0  0  0
  144.2320   73.4440  220.8300 C   0  0  0  0  0  0  0  0  0  0  0  0
  145.4660   73.9530  220.4940 C   0  0  0  0  0  0  0  0  0  0  0  0
  146.3150   73.1080  219.8060 C   0  0  0  0  0  0  0  0  0  0  0  0
  145.9520   71.8680  219.4870 N   0  0  0  0  0  0  0  0  0  0  0  0
  145.6670   69.2600  218.9120 C   0  0  0  0  0  0  0  0  0  0  0  0
  145.6150   67.9560  218.4840 C   0  0  0  0  0  0  0  0  0  0  0  0
  144.4470   67.2500  218.5260 C   0  0  0  0  0  0  0  0  0  0  0  0
  143.3270   67.9090  219.0150 C   0  0  0  0  0  0  0  0  0  0  0  0
  142.0820   67.4260  219.1260 N   0  0  0  0  0  0  0  0  0  0  0  0
  139.2790   68.9840  220.9520 N   0  0  0  0  0  0  0  0  0  0  0  0
  138.1430   68.4730  221.7350 C   0  0  0  0  0  0  0  0  0  0  0  0
  138.4250   69.0490  223.1130 C   0  0  1  0  0  0  0  0  0  0  0  0
  137.1490   69.3590  223.8600 C   0  0  0  0  0  0  0  0  0  0  0  0
  137.5290   69.0590  225.2840 C   0  0  0  0  0  0  0  0  0  0  0  0
  138.4710   67.9640  225.2360 N   0  0  0  0  0  0  0  0  0  0  0  0
  139.4150   68.1080  226.3130 C   0  0  0  0  0  0  0  0  0  0  0  0
  139.8740   69.5270  226.4890 C   0  0  1  0  0  0  0  0  0  0  0  0
  140.4420   69.8150  227.8640 C   0  0  0  0  0  0  0  0  0  0  0  0
  140.3260   71.3240  228.0450 C   0  0  0  0  0  0  0  0  0  0  0  0
  140.7070   71.9460  226.7080 C   0  0  0  0  0  0  0  0  0  0  0  0
  141.6110   71.0850  225.9730 N   0  0  0  0  0  0  0  0  0  0  0  0
  140.9870   69.8660  225.5090 C   0  0  0  0  0  0  0  0  0  0  0  0
  139.2170   68.1410  223.9860 C   0  0  0  0  0  0  0  0  0  0  0  0
  139.0900   70.3470  222.8100 C   0  0  0  0  0  0  0  0  0  0  0  0
  139.3050   71.5250  223.4810 C   0  0  0  0  0  0  0  0  0  0  0  0
  139.9700   72.5970  222.9090 C   0  0  0  0  0  0  0  0  0  0  0  0
  140.4470   72.5200  221.6260 C   0  0  0  0  0  0  0  0  0  0  0  0
  140.2360   71.3400  220.9420 C   0  0  0  0  0  0  0  0  0  0  0  0
  139.5710   70.2620  221.5110 C   0  0  0  0  0  0  0  0  0  0  0  0
  141.7710   70.5073  220.2235 H   0  0  0  0  0  0  0  0  0  0  0  0
  142.8972   71.7456  220.7566 H   0  0  0  0  0  0  0  0  0  0  0  0
  143.5120   74.0692  221.3784 H   0  0  0  0  0  0  0  0  0  0  0  0
  145.7607   74.9790  220.7595 H   0  0  0  0  0  0  0  0  0  0  0  0
  147.3130   73.4679  219.5154 H   0  0  0  0  0  0  0  0  0  0  0  0
  146.6291   69.7908  218.8616 H   0  0  0  0  0  0  0  0  0  0  0  0
  146.5269   67.4737  218.1021 H   0  0  0  0  0  0  0  0  0  0  0  0
  144.3956   66.2047  218.1872 H   0  0  0  0  0  0  0  0  0  0  0  0
  141.7460   66.4650  218.8790 H   0  0  0  0  0  0  0  0  0  0  0  0
  137.1856   68.8400  221.3366 H   0  0  0  0  0  0  0  0  0  0  0  0
  138.0527   67.3768  221.7223 H   0  0  0  0  0  0  0  0  0  0  0  0
  136.8626   70.4140  223.7381 H   0  0  0  0  0  0  0  0  0  0  0  0
  136.2809   68.7838  223.5057 H   0  0  0  0  0  0  0  0  0  0  0  0
  137.9954   69.9413  225.7467 H   0  0  0  0  0  0  0  0  0  0  0  0
  136.6454   68.7972  225.8845 H   0  0  0  0  0  0  0  0  0  0  0  0
  138.9392   67.7727  227.2464 H   0  0  0  0  0  0  0  0  0  0  0  0
  140.2976   67.4990  226.0678 H   0  0  0  0  0  0  0  0  0  0  0  0
  138.9681   70.1288  226.3239 H   0  0  0  0  0  0  0  0  0  0  0  0
  139.8623   69.2894  228.6371 H   0  0  0  0  0  0  0  0  0  0  0  0
  141.4832   69.4720  227.9553 H   0  0  0  0  0  0  0  0  0  0  0  0
  139.2945   71.5973  228.3120 H   0  0  0  0  0  0  0  0  0  0  0  0
  140.9814   71.6811  228.8531 H   0  0  0  0  0  0  0  0  0  0  0  0
  139.7960   72.1034  226.1119 H   0  0  0  0  0  0  0  0  0  0  0  0
  141.2132   72.9038  226.8989 H   0  0  0  0  0  0  0  0  0  0  0  0
  142.4630   70.9160  226.5630 H   0  0  0  0  0  0  0  0  0  0  0  0
  140.5696   70.0162  224.5024 H   0  0  0  0  0  0  0  0  0  0  0  0
  141.7211   69.0485  225.4550 H   0  0  0  0  0  0  0  0  0  0  0  0
  140.2005   68.5866  224.1962 H   0  0  0  0  0  0  0  0  0  0  0  0
  139.3762   67.1716  223.4910 H   0  0  0  0  0  0  0  0  0  0  0  0
  138.9350   71.6214  224.5124 H   0  0  0  0  0  0  0  0  0  0  0  0
  140.1169   73.5194  223.4900 H   0  0  0  0  0  0  0  0  0  0  0  0
  140.9764   73.3645  221.1606 H   0  0  0  0  0  0  0  0  0  0  0  0
  140.6074   71.2504  219.9105 H   0  0  0  0  0  0  0  0  0  0  0  0
  1  2  2  0
  2  3  1  0
  3  4  2  0
  4  5  1  0
  5  6  2  0
  6  7  1  0
  7  8  2  0
  8  9  1  0
  9 10  2  0
 10 11  1  0
 11 12  2  0
  6 13  1  0
 13 14  2  0
 14 15  1  0
 15 16  2  0
 16 17  1  0
  2 18  1  0
 18 19  1  0
 20 19  1  6
 20 21  1  0
 21 22  1  0
 22 23  1  0
 23 24  1  0
 24 25  1  0
 25 26  1  0
 26 27  1  0
 27 28  1  0
 28 29  1  0
 29 30  1  0
 23 31  1  0
 20 32  1  0
 32 33  2  0
 33 34  1  0
 34 35  2  0
 35 36  1  0
 36 37  2  0
 17  3  1  0
 37 18  1  0
 16  5  1  0
 31 20  1  0
 37 32  1  0
 12  7  1  0
 30 25  1  0
  4 38  1  0
  8 39  1  0
  9 40  1  0
 10 41  1  0
 11 42  1  0
 13 43  1  0
 14 44  1  0
 15 45  1  0
 17 46  1  0
 19 47  1  0
 19 48  1  0
 21 49  1  0
 21 50  1  0
 22 51  1  0
 22 52  1  0
 24 53  1  0
 24 54  1  0
 25 55  1  6
 26 56  1  0
 26 57  1  0
 27 58  1  0
 27 59  1  0
 28 60  1  0
 28 61  1  0
 29 62  1  0
 30 63  1  0
 30 64  1  0
 31 65  1  0
 31 66  1  0
 33 67  1  0
 34 68  1  0
 35 69  1  0
 36 70  1  0
M  END
>  <smiles>  (75) 
O=C(c1cc2c(-c3ccccn3)cccc2[nH]1)N1C[C@]2(CCN(CC3CCCNC3)C2)c2ccccc21

>  <score_type>  (75) 
oracle

>  <origin>  (75) 
autodockgpu

>  <m_score__min__energy>  (75) 
-9.9199999999999999

>  <m_primary>  (75) 
energy

>  <rmsd>  (75) 
9.65656423762944

>  <m_score__min__rmsd>  (75) 
9.65656423762944

>  <meeko>  (75) 
{"free_energy": -9.19, "intermolecular_energy": -10.68, "internal_energy": -2.03, "cluster_size": 1, "cluster_id": 6, "rank_in_cluster": 1}

>  <energy>  (75) 
-9.54

>  <cluster_rmsd>  (75) 
0.27

>  <cluster>  (75) 
4

$$$$

     RDKit          3D

 70 76  0  0  1  0  0  0  0  0999 V2000
  139.8180   74.1310  219.7910 O   0  0  0  0  0  0  0  0  0  0  0  0
  139.7690   74.1510  221.0510 C   0  0  0  0  0  0  0  0  0  0  0  0
  139.6370   72.8740  221.7260 C   0  0  0  0  0  0  0  0  0  0  0  0
  139.9360   72.5990  223.0430 C   0  0  0  0  0  0  0  0  0  0  0  0
  139.6660   71.2750  223.2570 C   0  0  0  0  0  0  0  0  0  0  0  0
  139.7890   70.4640  224.3540 C   0  0  0  0  0  0  0  0  0  0  0  0
  140.2730   70.8280  225.6500 C   0  0  0  0  0  0  0  0  0  0  0  0
  141.0930   71.8650  225.9940 C   0  0  0  0  0  0  0  0  0  0  0  0
  141.4470   72.1340  227.3270 C   0  0  0  0  0  0  0  0  0  0  0  0
  140.9660   71.3420  228.3450 C   0  0  0  0  0  0  0  0  0  0  0  0
  140.1370   70.2990  227.9770 C   0  0  0  0  0  0  0  0  0  0  0  0
  139.8260   70.0770  226.7020 N   0  0  0  0  0  0  0  0  0  0  0  0
  139.4260   69.1280  224.1590 C   0  0  0  0  0  0  0  0  0  0  0  0
  138.9730   68.6430  222.9570 C   0  0  0  0  0  0  0  0  0  0  0  0
  138.8510   69.4620  221.8720 C   0  0  0  0  0  0  0  0  0  0  0  0
  139.2070   70.7940  222.0410 C   0  0  0  0  0  0  0  0  0  0  0  0
  139.1900   71.7640  221.1170 N   0  0  0  0  0  0  0  0  0  0  0  0
  139.8390   75.3750  221.7670 N   0  0  0  0  0  0  0  0  0  0  0  0
  141.0740   75.9680  222.3070 C   0  0  0  0  0  0  0  0  0  0  0  0
  140.8040   77.4550  222.1490 C   0  0  1  0  0  0  0  0  0  0  0  0
  141.4570   78.2610  223.2480 C   0  0  0  0  0  0  0  0  0  0  0  0
  141.8370   79.5290  222.5340 C   0  0  0  0  0  0  0  0  0  0  0  0
  142.1650   79.1550  221.1780 N   0  0  0  0  0  0  0  0  0  0  0  0
  141.7920   80.2260  220.2910 C   0  0  0  0  0  0  0  0  0  0  0  0
  140.6110   81.0040  220.7950 C   0  0  1  0  0  0  0  0  0  0  0  0
  140.7290   82.4980  220.5740 C   0  0  0  0  0  0  0  0  0  0  0  0
  139.7880   83.1370  221.5890 C   0  0  0  0  0  0  0  0  0  0  0  0
  138.5330   82.2740  221.6110 C   0  0  0  0  0  0  0  0  0  0  0  0
  138.3410   81.6020  220.3420 N   0  0  0  0  0  0  0  0  0  0  0  0
  139.3360   80.5860  220.0790 C   0  0  0  0  0  0  0  0  0  0  0  0
  141.2970   78.0160  220.8620 C   0  0  0  0  0  0  0  0  0  0  0  0
  139.3300   77.5560  222.3400 C   0  0  0  0  0  0  0  0  0  0  0  0
  138.4450   78.5500  222.6770 C   0  0  0  0  0  0  0  0  0  0  0  0
  137.0830   78.3260  222.7920 C   0  0  0  0  0  0  0  0  0  0  0  0
  136.5580   77.0790  222.5710 C   0  0  0  0  0  0  0  0  0  0  0  0
  137.4380   76.0730  222.2310 C   0  0  0  0  0  0  0  0  0  0  0  0
  138.8050   76.2910  222.1130 C   0  0  0  0  0  0  0  0  0  0  0  0
  140.3211   73.3131  223.7858 H   0  0  0  0  0  0  0  0  0  0  0  0
  141.4905   72.5128  225.1988 H   0  0  0  0  0  0  0  0  0  0  0  0
  142.1107   72.9803  227.5578 H   0  0  0  0  0  0  0  0  0  0  0  0
  141.2278   71.5295  229.3968 H   0  0  0  0  0  0  0  0  0  0  0  0
  139.7255   69.6384  228.7544 H   0  0  0  0  0  0  0  0  0  0  0  0
  139.5071   68.4332  225.0079 H   0  0  0  0  0  0  0  0  0  0  0  0
  138.7048   67.5800  222.8673 H   0  0  0  0  0  0  0  0  0  0  0  0
  138.4865   69.0836  220.9056 H   0  0  0  0  0  0  0  0  0  0  0  0
  138.8910   71.6880  220.1160 H   0  0  0  0  0  0  0  0  0  0  0  0
  141.2186   75.6978  223.3635 H   0  0  0  0  0  0  0  0  0  0  0  0
  141.9889   75.6265  221.8007 H   0  0  0  0  0  0  0  0  0  0  0  0
  140.7514   78.4617  224.0677 H   0  0  0  0  0  0  0  0  0  0  0  0
  142.3084   77.7505  223.7218 H   0  0  0  0  0  0  0  0  0  0  0  0
  140.9938   80.2354  222.5398 H   0  0  0  0  0  0  0  0  0  0  0  0
  142.6876   80.0228  223.0267 H   0  0  0  0  0  0  0  0  0  0  0  0
  142.6465   80.9106  220.1854 H   0  0  0  0  0  0  0  0  0  0  0  0
  141.5109   79.7788  219.3261 H   0  0  0  0  0  0  0  0  0  0  0  0
  140.5814   80.7854  221.8727 H   0  0  0  0  0  0  0  0  0  0  0  0
  141.7631   82.8313  220.7459 H   0  0  0  0  0  0  0  0  0  0  0  0
  140.4681   82.7793  219.5431 H   0  0  0  0  0  0  0  0  0  0  0  0
  140.2560   83.1540  222.5843 H   0  0  0  0  0  0  0  0  0  0  0  0
  139.5534   84.1768  221.3174 H   0  0  0  0  0  0  0  0  0  0  0  0
  138.6292   81.5200  222.4061 H   0  0  0  0  0  0  0  0  0  0  0  0
  137.6651   82.9235  221.7977 H   0  0  0  0  0  0  0  0  0  0  0  0
  138.2820   82.3290  219.5870 H   0  0  0  0  0  0  0  0  0  0  0  0
  138.9912   79.6139  220.4613 H   0  0  0  0  0  0  0  0  0  0  0  0
  139.5123   80.4848  218.9979 H   0  0  0  0  0  0  0  0  0  0  0  0
  140.4473   78.3508  220.2488 H   0  0  0  0  0  0  0  0  0  0  0  0
  141.8515   77.2534  220.2955 H   0  0  0  0  0  0  0  0  0  0  0  0
  138.8323   79.5627  222.8627 H   0  0  0  0  0  0  0  0  0  0  0  0
  136.4157   79.1572  223.0635 H   0  0  0  0  0  0  0  0  0  0  0  0
  135.4784   76.8885  222.6612 H   0  0  0  0  0  0  0  0  0  0  0  0
  137.0438   75.0627  222.0468 H   0  0  0  0  0  0  0  0  0  0  0  0
  1  2  2  0
  2  3  1  0
  3  4  2  0
  4  5  1  0
  5  6  2  0
  6  7  1  0
  7  8  2  0
  8  9  1  0
  9 10  2  0
 10 11  1  0
 11 12  2  0
  6 13  1  0
 13 14  2  0
 14 15  1  0
 15 16  2  0
 16 17  1  0
  2 18  1  0
 18 19  1  0
 20 19  1  1
 20 21  1  0
 21 22  1  0
 22 23  1  0
 23 24  1  0
 24 25  1  0
 25 26  1  0
 26 27  1  0
 27 28  1  0
 28 29  1  0
 29 30  1  0
 23 31  1  0
 20 32  1  0
 32 33  2  0
 33 34  1  0
 34 35  2  0
 35 36  1  0
 36 37  2  0
 17  3  1  0
 37 18  1  0
 16  5  1  0
 31 20  1  0
 37 32  1  0
 12  7  1  0
 30 25  1  0
  4 38  1  0
  8 39  1  0
  9 40  1  0
 10 41  1  0
 11 42  1  0
 13 43  1  0
 14 44  1  0
 15 45  1  0
 17 46  1  0
 19 47  1  0
 19 48  1  0
 21 49  1  0
 21 50  1  0
 22 51  1  0
 22 52  1  0
 24 53  1  0
 24 54  1  0
 25 55  1  1
 26 56  1  0
 26 57  1  0
 27 58  1  0
 27 59  1  0
 28 60  1  0
 28 61  1  0
 29 62  1  0
 30 63  1  0
 30 64  1  0
 31 65  1  0
 31 66  1  0
 33 67  1  0
 34 68  1  0
 35 69  1  0
 36 70  1  0
M  END
>  <smiles>  (76) 
O=C(c1cc2c(-c3ccccn3)cccc2[nH]1)N1C[C@]2(CCN(CC3CCCNC3)C2)c2ccccc21

>  <score_type>  (76) 
oracle

>  <origin>  (76) 
autodockgpu

>  <m_score__min__energy>  (76) 
-9.9199999999999999

>  <m_primary>  (76) 
energy

>  <rmsd>  (76) 
2.6909054943901167

>  <m_score__min__rmsd>  (76) 
2.6909054943901167

>  <meeko>  (76) 
{"free_energy": -8.76, "intermolecular_energy": -10.25, "internal_energy": -2.26, "cluster_size": 5, "cluster_id": 7, "rank_in_cluster": 2}

>  <energy>  (76) 
-9.52

>  <cluster_rmsd>  (76) 
0.3

>  <cluster>  (76) 
4

$$$$

     RDKit          3D

 70 76  0  0  1  0  0  0  0  0999 V2000
  142.5930   73.5600  221.1320 O   0  0  0  0  0  0  0  0  0  0  0  0
  141.3550   73.7640  221.2590 C   0  0  0  0  0  0  0  0  0  0  0  0
  140.5730   72.7130  221.8810 C   0  0  0  0  0  0  0  0  0  0  0  0
  140.6750   72.2640  223.1790 C   0  0  0  0  0  0  0  0  0  0  0  0
  139.7540   71.2660  223.3420 C   0  0  0  0  0  0  0  0  0  0  0  0
  139.4290   70.4600  224.4010 C   0  0  0  0  0  0  0  0  0  0  0  0
  140.0210   70.4610  225.7030 C   0  0  0  0  0  0  0  0  0  0  0  0
  140.5610   71.5090  226.3940 C   0  0  0  0  0  0  0  0  0  0  0  0
  141.0650   71.3700  227.6990 C   0  0  0  0  0  0  0  0  0  0  0  0
  141.0260   70.1480  228.3300 C   0  0  0  0  0  0  0  0  0  0  0  0
  140.4760   69.1010  227.6160 C   0  0  0  0  0  0  0  0  0  0  0  0
  140.0100   69.2740  226.3810 N   0  0  0  0  0  0  0  0  0  0  0  0
  138.4270   69.5170  224.1560 C   0  0  0  0  0  0  0  0  0  0  0  0
  137.7970   69.3920  222.9420 C   0  0  0  0  0  0  0  0  0  0  0  0
  138.1280   70.2040  221.8940 C   0  0  0  0  0  0  0  0  0  0  0  0
  139.1220   71.1480  222.1140 C   0  0  0  0  0  0  0  0  0  0  0  0
  139.6200   72.0250  221.2320 N   0  0  0  0  0  0  0  0  0  0  0  0
  140.7630   74.9740  220.8080 N   0  0  0  0  0  0  0  0  0  0  0  0
  139.3490   75.3400  220.9880 C   0  0  0  0  0  0  0  0  0  0  0  0
  139.4340   76.8460  221.1710 C   0  0  1  0  0  0  0  0  0  0  0  0
  138.2170   77.5460  220.6130 C   0  0  0  0  0  0  0  0  0  0  0  0
  138.0450   78.6990  221.5630 C   0  0  0  0  0  0  0  0  0  0  0  0
  138.4760   78.2310  222.8600 N   0  0  0  0  0  0  0  0  0  0  0  0
  139.0660   79.3260  223.5840 C   0  0  0  0  0  0  0  0  0  0  0  0
  140.4540   79.6460  223.1110 C   0  0  1  0  0  0  0  0  0  0  0  0
  140.6690   81.1150  222.8070 C   0  0  0  0  0  0  0  0  0  0  0  0
  141.8600   81.1660  221.8570 C   0  0  0  0  0  0  0  0  0  0  0  0
  142.8650   80.1440  222.3750 C   0  0  0  0  0  0  0  0  0  0  0  0
  142.7210   79.9530  223.8040 N   0  0  0  0  0  0  0  0  0  0  0  0
  141.4870   79.2950  224.1710 C   0  0  0  0  0  0  0  0  0  0  0  0
  139.5490   77.2660  222.5940 C   0  0  0  0  0  0  0  0  0  0  0  0
  140.5960   77.2280  220.3220 C   0  0  0  0  0  0  0  0  0  0  0  0
  141.0450   78.3790  219.7250 C   0  0  0  0  0  0  0  0  0  0  0  0
  142.1970   78.4190  218.9560 C   0  0  0  0  0  0  0  0  0  0  0  0
  142.9440   77.2870  218.7560 C   0  0  0  0  0  0  0  0  0  0  0  0
  142.5010   76.1240  219.3520 C   0  0  0  0  0  0  0  0  0  0  0  0
  141.3490   76.0780  220.1250 C   0  0  0  0  0  0  0  0  0  0  0  0
  141.3700   72.6393  223.9446 H   0  0  0  0  0  0  0  0  0  0  0  0
  140.6028   72.4968  225.9118 H   0  0  0  0  0  0  0  0  0  0  0  0
  141.4920   72.2412  228.2174 H   0  0  0  0  0  0  0  0  0  0  0  0
  141.4129   70.0117  229.3506 H   0  0  0  0  0  0  0  0  0  0  0  0
  140.4220   68.1039  228.0774 H   0  0  0  0  0  0  0  0  0  0  0  0
  138.1292   68.8437  224.9733 H   0  0  0  0  0  0  0  0  0  0  0  0
  137.0160   68.6285  222.8117 H   0  0  0  0  0  0  0  0  0  0  0  0
  137.6285   70.1136  220.9181 H   0  0  0  0  0  0  0  0  0  0  0  0
  139.3330   72.1610  220.2340 H   0  0  0  0  0  0  0  0  0  0  0  0
  138.7523   75.0780  220.1018 H   0  0  0  0  0  0  0  0  0  0  0  0
  138.8585   74.8185  221.8231 H   0  0  0  0  0  0  0  0  0  0  0  0
  138.3964   77.8991  219.5868 H   0  0  0  0  0  0  0  0  0  0  0  0
  137.3307   76.8983  220.5423 H   0  0  0  0  0  0  0  0  0  0  0  0
  138.6625   79.5509  221.2421 H   0  0  0  0  0  0  0  0  0  0  0  0
  136.9991   79.0385  221.5905 H   0  0  0  0  0  0  0  0  0  0  0  0
  138.4343   80.2169  223.4526 H   0  0  0  0  0  0  0  0  0  0  0  0
  139.1330   79.0302  224.6414 H   0  0  0  0  0  0  0  0  0  0  0  0
  140.5715   79.0516  222.1929 H   0  0  0  0  0  0  0  0  0  0  0  0
  139.7763   81.5427  222.3272 H   0  0  0  0  0  0  0  0  0  0  0  0
  140.8523   81.6977  223.7218 H   0  0  0  0  0  0  0  0  0  0  0  0
  141.5441   80.9057  220.8360 H   0  0  0  0  0  0  0  0  0  0  0  0
  142.2985   82.1741  221.8196 H   0  0  0  0  0  0  0  0  0  0  0  0
  142.6972   79.1839  221.8650 H   0  0  0  0  0  0  0  0  0  0  0  0
  143.8800   80.5160  222.1715 H   0  0  0  0  0  0  0  0  0  0  0  0
  142.8530   80.8800  224.2780 H   0  0  0  0  0  0  0  0  0  0  0  0
  141.6368   78.2058  224.2044 H   0  0  0  0  0  0  0  0  0  0  0  0
  141.1514   79.6239  225.1656 H   0  0  0  0  0  0  0  0  0  0  0  0
  140.5280   77.7362  222.7683 H   0  0  0  0  0  0  0  0  0  0  0  0
  139.4607   76.3963  223.2618 H   0  0  0  0  0  0  0  0  0  0  0  0
  140.4683   79.3056  219.8622 H   0  0  0  0  0  0  0  0  0  0  0  0
  142.5154   79.3687  218.5014 H   0  0  0  0  0  0  0  0  0  0  0  0
  143.8589   77.3051  218.1455 H   0  0  0  0  0  0  0  0  0  0  0  0
  143.0814   75.2005  219.2095 H   0  0  0  0  0  0  0  0  0  0  0  0
  1  2  2  0
  2  3  1  0
  3  4  2  0
  4  5  1  0
  5  6  2  0
  6  7  1  0
  7  8  2  0
  8  9  1  0
  9 10  2  0
 10 11  1  0
 11 12  2  0
  6 13  1  0
 13 14  2  0
 14 15  1  0
 15 16  2  0
 16 17  1  0
  2 18  1  0
 18 19  1  0
 20 19  1  1
 20 21  1  0
 21 22  1  0
 22 23  1  0
 23 24  1  0
 24 25  1  0
 25 26  1  0
 26 27  1  0
 27 28  1  0
 28 29  1  0
 29 30  1  0
 23 31  1  0
 20 32  1  0
 32 33  2  0
 33 34  1  0
 34 35  2  0
 35 36  1  0
 36 37  2  0
 17  3  1  0
 37 18  1  0
 16  5  1  0
 31 20  1  0
 37 32  1  0
 12  7  1  0
 30 25  1  0
  4 38  1  0
  8 39  1  0
  9 40  1  0
 10 41  1  0
 11 42  1  0
 13 43  1  0
 14 44  1  0
 15 45  1  0
 17 46  1  0
 19 47  1  0
 19 48  1  0
 21 49  1  0
 21 50  1  0
 22 51  1  0
 22 52  1  0
 24 53  1  0
 24 54  1  0
 25 55  1  6
 26 56  1  0
 26 57  1  0
 27 58  1  0
 27 59  1  0
 28 60  1  0
 28 61  1  0
 29 62  1  0
 30 63  1  0
 30 64  1  0
 31 65  1  0
 31 66  1  0
 33 67  1  0
 34 68  1  0
 35 69  1  0
 36 70  1  0
M  END
>  <smiles>  (77) 
O=C(c1cc2c(-c3ccccn3)cccc2[nH]1)N1C[C@]2(CCN(CC3CCCNC3)C2)c2ccccc21

>  <score_type>  (77) 
oracle

>  <origin>  (77) 
autodockgpu

>  <m_score__min__energy>  (77) 
-9.9199999999999999

>  <m_primary>  (77) 
energy

>  <rmsd>  (77) 
2.431634133250667

>  <m_score__min__rmsd>  (77) 
2.431634133250667

>  <meeko>  (77) 
{"free_energy": -9.41, "intermolecular_energy": -10.9, "internal_energy": -2.21, "cluster_size": 6, "cluster_id": 4, "rank_in_cluster": 5}

>  <energy>  (77) 
-9.41

>  <cluster_rmsd>  (77) 
0.6

>  <cluster>  (77) 
4

$$$$

     RDKit          3D

 70 76  0  0  1  0  0  0  0  0999 V2000
  134.3460   67.9690  224.6190 O   0  0  0  0  0  0  0  0  0  0  0  0
  134.5110   69.2140  224.7360 C   0  0  0  0  0  0  0  0  0  0  0  0
  135.8480   69.7260  224.5010 C   0  0  0  0  0  0  0  0  0  0  0  0
  136.9650   69.5120  225.2780 C   0  0  0  0  0  0  0  0  0  0  0  0
  138.0070   70.1780  224.6930 C   0  0  0  0  0  0  0  0  0  0  0  0
  139.3250   70.3300  225.0310 C   0  0  0  0  0  0  0  0  0  0  0  0
  139.9930   69.7880  226.1740 C   0  0  0  0  0  0  0  0  0  0  0  0
  140.4750   70.4440  227.2710 C   0  0  0  0  0  0  0  0  0  0  0  0
  141.0680   69.7690  228.3520 C   0  0  0  0  0  0  0  0  0  0  0  0
  141.1820   68.3980  228.3330 C   0  0  0  0  0  0  0  0  0  0  0  0
  140.6880   67.7520  227.2160 C   0  0  0  0  0  0  0  0  0  0  0  0
  140.1330   68.4280  226.2120 N   0  0  0  0  0  0  0  0  0  0  0  0
  140.0800   71.1310  224.1700 C   0  0  0  0  0  0  0  0  0  0  0  0
  139.5540   71.7330  223.0540 C   0  0  0  0  0  0  0  0  0  0  0  0
  138.2390   71.5720  222.7240 C   0  0  0  0  0  0  0  0  0  0  0  0
  137.4680   70.7810  223.5660 C   0  0  0  0  0  0  0  0  0  0  0  0
  136.1620   70.5050  223.4530 N   0  0  0  0  0  0  0  0  0  0  0  0
  133.4310   70.0670  225.0840 N   0  0  0  0  0  0  0  0  0  0  0  0
  133.1240   70.5270  226.4480 C   0  0  0  0  0  0  0  0  0  0  0  0
  132.5820   71.9240  226.1960 C   0  0  1  0  0  0  0  0  0  0  0  0
  131.5240   72.3040  227.2050 C   0  0  0  0  0  0  0  0  0  0  0  0
  131.7550   73.7810  227.3720 C   0  0  0  0  0  0  0  0  0  0  0  0
  133.1760   73.9950  227.2180 N   0  0  0  0  0  0  0  0  0  0  0  0
  133.3940   75.2820  226.6110 C   0  0  0  0  0  0  0  0  0  0  0  0
  133.9400   75.1750  225.2160 C   0  0  1  0  0  0  0  0  0  0  0  0
  133.4230   76.2460  224.2780 C   0  0  0  0  0  0  0  0  0  0  0  0
  133.6070   75.6820  222.8740 C   0  0  0  0  0  0  0  0  0  0  0  0
  134.9610   74.9840  222.8670 C   0  0  0  0  0  0  0  0  0  0  0  0
  135.8550   75.5740  223.8430 N   0  0  0  0  0  0  0  0  0  0  0  0
  135.4530   75.3230  225.2090 C   0  0  0  0  0  0  0  0  0  0  0  0
  133.6240   72.9850  226.2540 C   0  0  0  0  0  0  0  0  0  0  0  0
  131.9090   71.7940  224.8730 C   0  0  0  0  0  0  0  0  0  0  0  0
  130.9420   72.4860  224.1870 C   0  0  0  0  0  0  0  0  0  0  0  0
  130.4990   72.0990  222.9330 C   0  0  0  0  0  0  0  0  0  0  0  0
  131.0180   70.9880  222.3190 C   0  0  0  0  0  0  0  0  0  0  0  0
  131.9900   70.2860  223.0000 C   0  0  0  0  0  0  0  0  0  0  0  0
  132.4400   70.6690  224.2570 C   0  0  0  0  0  0  0  0  0  0  0  0
  137.0108   68.9146  226.2005 H   0  0  0  0  0  0  0  0  0  0  0  0
  140.3962   71.5405  227.3098 H   0  0  0  0  0  0  0  0  0  0  0  0
  141.4420   70.3385  229.2156 H   0  0  0  0  0  0  0  0  0  0  0  0
  141.6428   67.8446  229.1645 H   0  0  0  0  0  0  0  0  0  0  0  0
  140.7546   66.6557  227.1548 H   0  0  0  0  0  0  0  0  0  0  0  0
  141.1451   71.2863  224.3970 H   0  0  0  0  0  0  0  0  0  0  0  0
  140.2010   72.3537  222.4168 H   0  0  0  0  0  0  0  0  0  0  0  0
  137.8090   72.0479  221.8304 H   0  0  0  0  0  0  0  0  0  0  0  0
  135.5040   70.8240  222.7030 H   0  0  0  0  0  0  0  0  0  0  0  0
  132.3688   69.8855  226.9256 H   0  0  0  0  0  0  0  0  0  0  0  0
  133.9874   70.5025  227.1291 H   0  0  0  0  0  0  0  0  0  0  0  0
  130.5143   72.1000  226.8193 H   0  0  0  0  0  0  0  0  0  0  0  0
  131.5904   71.7389  228.1464 H   0  0  0  0  0  0  0  0  0  0  0  0
  131.2011   74.3413  226.6043 H   0  0  0  0  0  0  0  0  0  0  0  0
  131.4049   74.1294  228.3549 H   0  0  0  0  0  0  0  0  0  0  0  0
  132.4361   75.8216  226.5745 H   0  0  0  0  0  0  0  0  0  0  0  0
  134.1369   75.8174  227.2205 H   0  0  0  0  0  0  0  0  0  0  0  0
  133.6113   74.1837  224.8708 H   0  0  0  0  0  0  0  0  0  0  0  0
  132.3598   76.4485  224.4746 H   0  0  0  0  0  0  0  0  0  0  0  0
  133.9602   77.1969  224.4091 H   0  0  0  0  0  0  0  0  0  0  0  0
  132.8068   74.9630  222.6446 H   0  0  0  0  0  0  0  0  0  0  0  0
  133.5634   76.4771  222.1151 H   0  0  0  0  0  0  0  0  0  0  0  0
  134.8183   73.9200  223.1069 H   0  0  0  0  0  0  0  0  0  0  0  0
  135.4084   75.0976  221.8685 H   0  0  0  0  0  0  0  0  0  0  0  0
  135.9600   76.5950  223.6230 H   0  0  0  0  0  0  0  0  0  0  0  0
  135.9232   74.3987  225.5758 H   0  0  0  0  0  0  0  0  0  0  0  0
  135.7662   76.1488  225.8647 H   0  0  0  0  0  0  0  0  0  0  0  0
  133.7485   73.4430  225.2616 H   0  0  0  0  0  0  0  0  0  0  0  0
  134.5909   72.5601  226.5613 H   0  0  0  0  0  0  0  0  0  0  0  0
  130.5025   73.3815  224.6506 H   0  0  0  0  0  0  0  0  0  0  0  0
  129.7226   72.6891  222.4242 H   0  0  0  0  0  0  0  0  0  0  0  0
  130.6731   70.6699  221.3241 H   0  0  0  0  0  0  0  0  0  0  0  0
  132.4245   69.3908  222.5311 H   0  0  0  0  0  0  0  0  0  0  0  0
  1  2  2  0
  2  3  1  0
  3  4  2  0
  4  5  1  0
  5  6  2  0
  6  7  1  0
  7  8  2  0
  8  9  1  0
  9 10  2  0
 10 11  1  0
 11 12  2  0
  6 13  1  0
 13 14  2  0
 14 15  1  0
 15 16  2  0
 16 17  1  0
  2 18  1  0
 18 19  1  0
 20 19  1  1
 20 21  1  0
 21 22  1  0
 22 23  1  0
 23 24  1  0
 24 25  1  0
 25 26  1  0
 26 27  1  0
 27 28  1  0
 28 29  1  0
 29 30  1  0
 23 31  1  0
 20 32  1  0
 32 33  2  0
 33 34  1  0
 34 35  2  0
 35 36  1  0
 36 37  2  0
 17  3  1  0
 37 18  1  0
 16  5  1  0
 31 20  1  0
 37 32  1  0
 12  7  1  0
 30 25  1  0
  4 38  1  0
  8 39  1  0
  9 40  1  0
 10 41  1  0
 11 42  1  0
 13 43  1  0
 14 44  1  0
 15 45  1  0
 17 46  1  0
 19 47  1  0
 19 48  1  0
 21 49  1  0
 21 50  1  0
 22 51  1  0
 22 52  1  0
 24 53  1  0
 24 54  1  0
 25 55  1  6
 26 56  1  0
 26 57  1  0
 27 58  1  0
 27 59  1  0
 28 60  1  0
 28 61  1  0
 29 62  1  0
 30 63  1  0
 30 64  1  0
 31 65  1  0
 31 66  1  0
 33 67  1  0
 34 68  1  0
 35 69  1  0
 36 70  1  0
M  END
>  <smiles>  (78) 
O=C(c1cc2c(-c3ccccn3)cccc2[nH]1)N1C[C@]2(CCN(CC3CCCNC3)C2)c2ccccc21

>  <score_type>  (78) 
oracle

>  <origin>  (78) 
autodockgpu

>  <m_score__min__energy>  (78) 
-9.9199999999999999

>  <m_primary>  (78) 
energy

>  <rmsd>  (78) 
7.872403546666365

>  <m_score__min__rmsd>  (78) 
7.872403546666365

>  <meeko>  (78) 
{"free_energy": -8.67, "intermolecular_energy": -10.17, "internal_energy": -2.38, "cluster_size": 2, "cluster_id": 10, "rank_in_cluster": 1}

>  <energy>  (78) 
-8.83

>  <cluster_rmsd>  (78) 
1.93

>  <cluster>  (78) 
4

$$$$

     RDKit          3D

 70 76  0  0  1  0  0  0  0  0999 V2000
  140.5230   73.6410  219.8740 O   0  0  0  0  0  0  0  0  0  0  0  0
  140.1410   73.7640  221.0700 C   0  0  0  0  0  0  0  0  0  0  0  0
  139.8670   72.5440  221.8040 C   0  0  0  0  0  0  0  0  0  0  0  0
  140.0680   72.3230  223.1490 C   0  0  0  0  0  0  0  0  0  0  0  0
  139.6780   71.0400  223.4180 C   0  0  0  0  0  0  0  0  0  0  0  0
  139.6730   70.2870  224.5620 C   0  0  0  0  0  0  0  0  0  0  0  0
  140.1110   70.6870  225.8630 C   0  0  0  0  0  0  0  0  0  0  0  0
  139.8860   70.0770  227.0640 C   0  0  0  0  0  0  0  0  0  0  0  0
  140.4290   70.5600  228.2670 C   0  0  0  0  0  0  0  0  0  0  0  0
  141.2190   71.6860  228.2680 C   0  0  0  0  0  0  0  0  0  0  0  0
  141.4360   72.2890  227.0430 C   0  0  0  0  0  0  0  0  0  0  0  0
  140.9040   71.8000  225.9260 N   0  0  0  0  0  0  0  0  0  0  0  0
  139.2120   68.9750  224.4170 C   0  0  0  0  0  0  0  0  0  0  0  0
  138.7890   68.4580  223.2180 C   0  0  0  0  0  0  0  0  0  0  0  0
  138.7960   69.2190  222.0850 C   0  0  0  0  0  0  0  0  0  0  0  0
  139.2500   70.5260  222.2030 C   0  0  0  0  0  0  0  0  0  0  0  0
  139.3650   71.4390  221.2290 N   0  0  0  0  0  0  0  0  0  0  0  0
  139.9890   75.0460  221.6620 N   0  0  0  0  0  0  0  0  0  0  0  0
  141.0840   75.9990  221.9070 C   0  0  0  0  0  0  0  0  0  0  0  0
  140.3940   77.3350  221.6890 C   0  0  1  0  0  0  0  0  0  0  0  0
  140.9720   78.4130  222.5750 C   0  0  0  0  0  0  0  0  0  0  0  0
  140.8660   79.6360  221.7050 C   0  0  0  0  0  0  0  0  0  0  0  0
  141.0570   79.1900  220.3450 N   0  0  0  0  0  0  0  0  0  0  0  0
  140.2640   80.0090  219.4660 C   0  0  0  0  0  0  0  0  0  0  0  0
  141.0360   80.4810  218.2680 C   0  0  1  0  0  0  0  0  0  0  0  0
  142.4730   80.8450  218.5770 C   0  0  0  0  0  0  0  0  0  0  0  0
  142.9060   81.7840  217.4570 C   0  0  0  0  0  0  0  0  0  0  0  0
  142.3240   81.2130  216.1700 C   0  0  0  0  0  0  0  0  0  0  0  0
  142.1470   79.7790  216.2710 N   0  0  0  0  0  0  0  0  0  0  0  0
  141.1090   79.3970  217.2040 C   0  0  0  0  0  0  0  0  0  0  0  0
  140.4960   77.8360  220.2910 C   0  0  0  0  0  0  0  0  0  0  0  0
  139.0010   77.0780  222.1500 C   0  0  0  0  0  0  0  0  0  0  0  0
  137.9460   77.8470  222.5730 C   0  0  0  0  0  0  0  0  0  0  0  0
  136.7350   77.2980  222.9650 C   0  0  0  0  0  0  0  0  0  0  0  0
  136.5440   75.9400  222.9460 C   0  0  0  0  0  0  0  0  0  0  0  0
  137.5990   75.1590  222.5230 C   0  0  0  0  0  0  0  0  0  0  0  0
  138.8140   75.7030  222.1280 C   0  0  0  0  0  0  0  0  0  0  0  0
  140.4690   73.0464  223.8742 H   0  0  0  0  0  0  0  0  0  0  0  0
  139.2570   69.1750  227.0908 H   0  0  0  0  0  0  0  0  0  0  0  0
  140.2214   70.0355  229.2114 H   0  0  0  0  0  0  0  0  0  0  0  0
  141.6554   72.0859  229.1952 H   0  0  0  0  0  0  0  0  0  0  0  0
  142.0618   73.1922  226.9908 H   0  0  0  0  0  0  0  0  0  0  0  0
  139.1872   68.3268  225.3054 H   0  0  0  0  0  0  0  0  0  0  0  0
  138.4396   67.4161  223.1695 H   0  0  0  0  0  0  0  0  0  0  0  0
  138.4567   68.8144  221.1200 H   0  0  0  0  0  0  0  0  0  0  0  0
  139.1170   71.3280  220.2180 H   0  0  0  0  0  0  0  0  0  0  0  0
  141.4687   75.9106  222.9337 H   0  0  0  0  0  0  0  0  0  0  0  0
  141.9613   75.8422  221.2621 H   0  0  0  0  0  0  0  0  0  0  0  0
  140.3837   78.5283  223.4973 H   0  0  0  0  0  0  0  0  0  0  0  0
  141.9970   78.2015  222.9136 H   0  0  0  0  0  0  0  0  0  0  0  0
  139.8739   80.0976  221.8177 H   0  0  0  0  0  0  0  0  0  0  0  0
  141.6166   80.3897  221.9854 H   0  0  0  0  0  0  0  0  0  0  0  0
  139.4004   79.4219  219.1203 H   0  0  0  0  0  0  0  0  0  0  0  0
  139.9482   80.8980  220.0317 H   0  0  0  0  0  0  0  0  0  0  0  0
  140.4893   81.3720  217.9256 H   0  0  0  0  0  0  0  0  0  0  0  0
  142.5401   81.3519  219.5509 H   0  0  0  0  0  0  0  0  0  0  0  0
  143.1161   79.9544  218.6339 H   0  0  0  0  0  0  0  0  0  0  0  0
  142.5141   82.7961  217.6359 H   0  0  0  0  0  0  0  0  0  0  0  0
  144.0019   81.8598  217.4006 H   0  0  0  0  0  0  0  0  0  0  0  0
  141.3484   81.6830  215.9770 H   0  0  0  0  0  0  0  0  0  0  0  0
  143.0227   81.4224  215.3466 H   0  0  0  0  0  0  0  0  0  0  0  0
  143.0770   79.3430  216.4860 H   0  0  0  0  0  0  0  0  0  0  0  0
  140.1443   79.3167  216.6816 H   0  0  0  0  0  0  0  0  0  0  0  0
  141.3334   78.4204  217.6578 H   0  0  0  0  0  0  0  0  0  0  0  0
  139.4985   77.8615  219.8280 H   0  0  0  0  0  0  0  0  0  0  0  0
  141.1381   77.1755  219.6898 H   0  0  0  0  0  0  0  0  0  0  0  0
  138.0658   78.9401  222.6021 H   0  0  0  0  0  0  0  0  0  0  0  0
  135.9191   77.9581  223.2946 H   0  0  0  0  0  0  0  0  0  0  0  0
  135.5882   75.4920  223.2556 H   0  0  0  0  0  0  0  0  0  0  0  0
  137.4736   74.0665  222.4976 H   0  0  0  0  0  0  0  0  0  0  0  0
  1  2  2  0
  2  3  1  0
  3  4  2  0
  4  5  1  0
  5  6  2  0
  6  7  1  0
  7  8  2  0
  8  9  1  0
  9 10  2  0
 10 11  1  0
 11 12  2  0
  6 13  1  0
 13 14  2  0
 14 15  1  0
 15 16  2  0
 16 17  1  0
  2 18  1  0
 18 19  1  0
 20 19  1  6
 20 21  1  0
 21 22  1  0
 22 23  1  0
 23 24  1  0
 24 25  1  0
 25 26  1  0
 26 27  1  0
 27 28  1  0
 28 29  1  0
 29 30  1  0
 23 31  1  0
 20 32  1  0
 32 33  2  0
 33 34  1  0
 34 35  2  0
 35 36  1  0
 36 37  2  0
 17  3  1  0
 37 18  1  0
 16  5  1  0
 31 20  1  0
 37 32  1  0
 12  7  1  0
 30 25  1  0
  4 38  1  0
  8 39  1  0
  9 40  1  0
 10 41  1  0
 11 42  1  0
 13 43  1  0
 14 44  1  0
 15 45  1  0
 17 46  1  0
 19 47  1  0
 19 48  1  0
 21 49  1  0
 21 50  1  0
 22 51  1  0
 22 52  1  0
 24 53  1  0
 24 54  1  0
 25 55  1  6
 26 56  1  0
 26 57  1  0
 27 58  1  0
 27 59  1  0
 28 60  1  0
 28 61  1  0
 29 62  1  0
 30 63  1  0
 30 64  1  0
 31 65  1  0
 31 66  1  0
 33 67  1  0
 34 68  1  0
 35 69  1  0
 36 70  1  0
M  END
>  <smiles>  (79) 
O=C(c1cc2c(-c3ccccn3)cccc2[nH]1)N1C[C@]2(CCN(CC3CCCNC3)C2)c2ccccc21

>  <score_type>  (79) 
oracle

>  <origin>  (79) 
autodockgpu

>  <m_score__min__energy>  (79) 
-9.9199999999999999

>  <m_primary>  (79) 
energy

>  <rmsd>  (79) 
3.1801995317163403

>  <m_score__min__rmsd>  (79) 
3.1801995317163403

>  <meeko>  (79) 
{"free_energy": -9.12, "intermolecular_energy": -10.61, "internal_energy": -1.74, "cluster_size": 5, "cluster_id": 7, "rank_in_cluster": 1}

>  <energy>  (79) 
-9.46

>  <cluster_rmsd>  (79) 
0.0

>  <cluster>  (79) 
5

$$$$

     RDKit          3D

 70 76  0  0  1  0  0  0  0  0999 V2000
  142.1040   72.2560  221.6210 O   0  0  0  0  0  0  0  0  0  0  0  0
  140.9610   72.7760  221.7430 C   0  0  0  0  0  0  0  0  0  0  0  0
  139.9740   72.0270  222.4980 C   0  0  0  0  0  0  0  0  0  0  0  0
  140.1910   71.2930  223.6440 C   0  0  0  0  0  0  0  0  0  0  0  0
  138.9920   70.7530  224.0190 C   0  0  0  0  0  0  0  0  0  0  0  0
  138.6200   69.9340  225.0520 C   0  0  0  0  0  0  0  0  0  0  0  0
  139.4610   69.3950  226.0750 C   0  0  0  0  0  0  0  0  0  0  0  0
  139.9750   68.1340  226.1810 C   0  0  0  0  0  0  0  0  0  0  0  0
  140.8370   67.7580  227.2250 C   0  0  0  0  0  0  0  0  0  0  0  0
  141.1950   68.6700  228.1900 C   0  0  0  0  0  0  0  0  0  0  0  0
  140.6660   69.9410  228.0660 C   0  0  0  0  0  0  0  0  0  0  0  0
  139.8520   70.2580  227.0620 N   0  0  0  0  0  0  0  0  0  0  0  0
  137.2700   69.5700  225.0760 C   0  0  0  0  0  0  0  0  0  0  0  0
  136.3630   69.9950  224.1370 C   0  0  0  0  0  0  0  0  0  0  0  0
  136.7450   70.8140  223.1140 C   0  0  0  0  0  0  0  0  0  0  0  0
  138.0810   71.1890  223.0680 C   0  0  0  0  0  0  0  0  0  0  0  0
  138.6790   71.9600  222.1500 N   0  0  0  0  0  0  0  0  0  0  0  0
  140.6640   74.0370  221.1630 N   0  0  0  0  0  0  0  0  0  0  0  0
  139.3130   74.6040  221.0210 C   0  0  0  0  0  0  0  0  0  0  0  0
  139.5730   76.0890  221.2070 C   0  0  1  0  0  0  0  0  0  0  0  0
  138.6230   76.9300  220.3870 C   0  0  0  0  0  0  0  0  0  0  0  0
  138.4160   78.1330  221.2660 C   0  0  0  0  0  0  0  0  0  0  0  0
  138.4800   77.6600  222.6300 N   0  0  0  0  0  0  0  0  0  0  0  0
  139.0500   78.6900  223.4590 C   0  0  0  0  0  0  0  0  0  0  0  0
  140.3260   79.2430  222.8930 C   0  0  1  0  0  0  0  0  0  0  0  0
  140.3020   80.7450  222.6960 C   0  0  0  0  0  0  0  0  0  0  0  0
  141.3740   81.0360  221.6520 C   0  0  0  0  0  0  0  0  0  0  0  0
  142.5580   80.1390  221.9910 C   0  0  0  0  0  0  0  0  0  0  0  0
  142.5860   79.8280  223.4060 N   0  0  0  0  0  0  0  0  0  0  0  0
  141.4980   78.9720  223.8240 C   0  0  0  0  0  0  0  0  0  0  0  0
  139.4330   76.5450  222.6170 C   0  0  0  0  0  0  0  0  0  0  0  0
  140.9370   76.2710  220.6350 C   0  0  0  0  0  0  0  0  0  0  0  0
  141.6680   77.3240  220.1440 C   0  0  0  0  0  0  0  0  0  0  0  0
  142.9530   77.1720  219.6510 C   0  0  0  0  0  0  0  0  0  0  0  0
  143.5540   75.9400  219.6310 C   0  0  0  0  0  0  0  0  0  0  0  0
  142.8280   74.8740  220.1220 C   0  0  0  0  0  0  0  0  0  0  0  0
  141.5390   75.0210  220.6190 C   0  0  0  0  0  0  0  0  0  0  0  0
  141.1528   71.1649  224.1623 H   0  0  0  0  0  0  0  0  0  0  0  0
  139.7043   67.3857  225.4216 H   0  0  0  0  0  0  0  0  0  0  0  0
  141.2269   66.7304  227.2706 H   0  0  0  0  0  0  0  0  0  0  0  0
  141.8677   68.4018  229.0180 H   0  0  0  0  0  0  0  0  0  0  0  0
  140.9232   70.7065  228.8129 H   0  0  0  0  0  0  0  0  0  0  0  0
  136.9184   68.9126  225.8848 H   0  0  0  0  0  0  0  0  0  0  0  0
  135.3143   69.6711  224.2101 H   0  0  0  0  0  0  0  0  0  0  0  0
  136.0252   71.1620  222.3585 H   0  0  0  0  0  0  0  0  0  0  0  0
  138.2390   72.4250  221.3210 H   0  0  0  0  0  0  0  0  0  0  0  0
  138.8935   74.3931  220.0262 H   0  0  0  0  0  0  0  0  0  0  0  0
  138.5811   74.1895  221.7299 H   0  0  0  0  0  0  0  0  0  0  0  0
  139.0724   77.2134  219.4238 H   0  0  0  0  0  0  0  0  0  0  0  0
  137.6893   76.4104  220.1259 H   0  0  0  0  0  0  0  0  0  0  0  0
  139.2057   78.8769  221.0843 H   0  0  0  0  0  0  0  0  0  0  0  0
  137.4504   78.6168  221.0575 H   0  0  0  0  0  0  0  0  0  0  0  0
  138.3221   79.5092  223.5543 H   0  0  0  0  0  0  0  0  0  0  0  0
  139.2843   78.2415  224.4357 H   0  0  0  0  0  0  0  0  0  0  0  0
  140.4337   78.7395  221.9209 H   0  0  0  0  0  0  0  0  0  0  0  0
  139.3151   81.0696  222.3345 H   0  0  0  0  0  0  0  0  0  0  0  0
  140.4916   81.2830  223.6365 H   0  0  0  0  0  0  0  0  0  0  0  0
  140.9972   80.8045  220.6448 H   0  0  0  0  0  0  0  0  0  0  0  0
  141.6621   82.0976  221.6608 H   0  0  0  0  0  0  0  0  0  0  0  0
  142.4757   79.2032  221.4187 H   0  0  0  0  0  0  0  0  0  0  0  0
  143.4855   80.6699  221.7306 H   0  0  0  0  0  0  0  0  0  0  0  0
  142.6330   80.7290  223.9430 H   0  0  0  0  0  0  0  0  0  0  0  0
  141.8001   77.9168  223.7516 H   0  0  0  0  0  0  0  0  0  0  0  0
  141.2209   79.1764  224.8687 H   0  0  0  0  0  0  0  0  0  0  0  0
  140.4077   76.8801  223.0014 H   0  0  0  0  0  0  0  0  0  0  0  0
  139.0751   75.7235  223.2550 H   0  0  0  0  0  0  0  0  0  0  0  0
  141.2158   78.3267  220.1421 H   0  0  0  0  0  0  0  0  0  0  0  0
  143.4974   78.0492  219.2713 H   0  0  0  0  0  0  0  0  0  0  0  0
  144.5733   75.8066  219.2396 H   0  0  0  0  0  0  0  0  0  0  0  0
  143.2856   73.8737  220.1198 H   0  0  0  0  0  0  0  0  0  0  0  0
  1  2  2  0
  2  3  1  0
  3  4  2  0
  4  5  1  0
  5  6  2  0
  6  7  1  0
  7  8  2  0
  8  9  1  0
  9 10  2  0
 10 11  1  0
 11 12  2  0
  6 13  1  0
 13 14  2  0
 14 15  1  0
 15 16  2  0
 16 17  1  0
  2 18  1  0
 18 19  1  0
 20 19  1  1
 20 21  1  0
 21 22  1  0
 22 23  1  0
 23 24  1  0
 24 25  1  0
 25 26  1  0
 26 27  1  0
 27 28  1  0
 28 29  1  0
 29 30  1  0
 23 31  1  0
 20 32  1  0
 32 33  2  0
 33 34  1  0
 34 35  2  0
 35 36  1  0
 36 37  2  0
 17  3  1  0
 37 18  1  0
 16  5  1  0
 31 20  1  0
 37 32  1  0
 12  7  1  0
 30 25  1  0
  4 38  1  0
  8 39  1  0
  9 40  1  0
 10 41  1  0
 11 42  1  0
 13 43  1  0
 14 44  1  0
 15 45  1  0
 17 46  1  0
 19 47  1  0
 19 48  1  0
 21 49  1  0
 21 50  1  0
 22 51  1  0
 22 52  1  0
 24 53  1  0
 24 54  1  0
 25 55  1  6
 26 56  1  0
 26 57  1  0
 27 58  1  0
 27 59  1  0
 28 60  1  0
 28 61  1  0
 29 62  1  0
 30 63  1  0
 30 64  1  0
 31 65  1  0
 31 66  1  0
 33 67  1  0
 34 68  1  0
 35 69  1  0
 36 70  1  0
M  END
>  <smiles>  (80) 
O=C(c1cc2c(-c3ccccn3)cccc2[nH]1)N1C[C@]2(CCN(CC3CCCNC3)C2)c2ccccc21

>  <score_type>  (80) 
oracle

>  <origin>  (80) 
autodockgpu

>  <m_score__min__energy>  (80) 
-9.9199999999999999

>  <m_primary>  (80) 
energy

>  <rmsd>  (80) 
2.876238899543443

>  <m_score__min__rmsd>  (80) 
2.876238899543443

>  <meeko>  (80) 
{"free_energy": -9.48, "intermolecular_energy": -10.97, "internal_energy": -2.13, "cluster_size": 13, "cluster_id": 3, "rank_in_cluster": 9}

>  <energy>  (80) 
-9.19

>  <cluster_rmsd>  (80) 
0.0

>  <cluster>  (80) 
6

$$$$

     RDKit          3D

 70 76  0  0  1  0  0  0  0  0999 V2000
  135.5930   73.3020  222.5850 O   0  0  0  0  0  0  0  0  0  0  0  0
  136.8160   73.1000  222.3500 C   0  0  0  0  0  0  0  0  0  0  0  0
  137.3560   71.8100  222.7350 C   0  0  0  0  0  0  0  0  0  0  0  0
  138.0530   71.5140  223.8870 C   0  0  0  0  0  0  0  0  0  0  0  0
  138.3740   70.1850  223.8430 C   0  0  0  0  0  0  0  0  0  0  0  0
  139.0660   69.3650  224.6930 C   0  0  0  0  0  0  0  0  0  0  0  0
  139.6780   69.7230  225.9360 C   0  0  0  0  0  0  0  0  0  0  0  0
  139.8470   68.9590  227.0550 C   0  0  0  0  0  0  0  0  0  0  0  0
  140.5190   69.4320  228.1950 C   0  0  0  0  0  0  0  0  0  0  0  0
  141.0360   70.7070  228.2150 C   0  0  0  0  0  0  0  0  0  0  0  0
  140.8550   71.4650  227.0740 C   0  0  0  0  0  0  0  0  0  0  0  0
  140.2120   70.9790  226.0140 N   0  0  0  0  0  0  0  0  0  0  0  0
  139.2080   68.0400  224.2700 C   0  0  0  0  0  0  0  0  0  0  0  0
  138.6940   67.5730  223.0860 C   0  0  0  0  0  0  0  0  0  0  0  0
  138.0020   68.4010  222.2470 C   0  0  0  0  0  0  0  0  0  0  0  0
  137.8490   69.7220  222.6460 C   0  0  0  0  0  0  0  0  0  0  0  0
  137.2340   70.7070  221.9790 N   0  0  0  0  0  0  0  0  0  0  0  0
  137.6190   74.0970  221.7370 N   0  0  0  0  0  0  0  0  0  0  0  0
  137.1080   75.3340  221.1260 C   0  0  0  0  0  0  0  0  0  0  0  0
  138.2210   76.3220  221.4350 C   0  0  1  0  0  0  0  0  0  0  0  0
  138.3650   77.3610  220.3470 C   0  0  0  0  0  0  0  0  0  0  0  0
  138.7670   78.5850  221.1230 C   0  0  0  0  0  0  0  0  0  0  0  0
  138.1000   78.4980  222.4020 N   0  0  0  0  0  0  0  0  0  0  0  0
  138.9370   79.0960  223.4090 C   0  0  0  0  0  0  0  0  0  0  0  0
  140.2650   79.5360  222.8660 C   0  0  1  0  0  0  0  0  0  0  0  0
  140.6960   80.9050  223.3520 C   0  0  0  0  0  0  0  0  0  0  0  0
  141.7070   81.4030  222.3250 C   0  0  0  0  0  0  0  0  0  0  0  0
  142.5750   80.2050  221.9620 C   0  0  0  0  0  0  0  0  0  0  0  0
  142.6310   79.2550  223.0550 N   0  0  0  0  0  0  0  0  0  0  0  0
  141.3720   78.5850  223.2950 C   0  0  0  0  0  0  0  0  0  0  0  0
  138.0180   77.0660  222.7080 C   0  0  0  0  0  0  0  0  0  0  0  0
  139.4460   75.4740  221.4070 C   0  0  0  0  0  0  0  0  0  0  0  0
  140.7920   75.6920  221.2470 C   0  0  0  0  0  0  0  0  0  0  0  0
  141.7180   74.6620  221.2540 C   0  0  0  0  0  0  0  0  0  0  0  0
  141.3180   73.3620  221.4220 C   0  0  0  0  0  0  0  0  0  0  0  0
  139.9670   73.1320  221.5840 C   0  0  0  0  0  0  0  0  0  0  0  0
  139.0330   74.1600  221.5790 C   0  0  0  0  0  0  0  0  0  0  0  0
  138.3049   72.2178  224.6940 H   0  0  0  0  0  0  0  0  0  0  0  0
  139.4425   67.9361  227.0645 H   0  0  0  0  0  0  0  0  0  0  0  0
  140.6321   68.7808  229.0743 H   0  0  0  0  0  0  0  0  0  0  0  0
  141.5661   71.1024  229.0940 H   0  0  0  0  0  0  0  0  0  0  0  0
  141.2502   72.4910  227.0406 H   0  0  0  0  0  0  0  0  0  0  0  0
  139.7571   67.3392  224.9160 H   0  0  0  0  0  0  0  0  0  0  0  0
  138.8409   66.5187  222.8087 H   0  0  0  0  0  0  0  0  0  0  0  0
  137.5844   68.0365  221.2968 H   0  0  0  0  0  0  0  0  0  0  0  0
  136.7490   70.6460  221.0530 H   0  0  0  0  0  0  0  0  0  0  0  0
  136.9681   75.2159  220.0414 H   0  0  0  0  0  0  0  0  0  0  0  0
  136.1229   75.6424  221.5061 H   0  0  0  0  0  0  0  0  0  0  0  0
  139.1427   77.0749  219.6235 H   0  0  0  0  0  0  0  0  0  0  0  0
  137.4533   77.4997  219.7473 H   0  0  0  0  0  0  0  0  0  0  0  0
  139.8578   78.6043  221.2639 H   0  0  0  0  0  0  0  0  0  0  0  0
  138.4849   79.5045  220.5893 H   0  0  0  0  0  0  0  0  0  0  0  0
  138.4179   79.9724  223.8242 H   0  0  0  0  0  0  0  0  0  0  0  0
  139.1270   78.3352  224.1804 H   0  0  0  0  0  0  0  0  0  0  0  0
  140.1212   79.5529  221.7756 H   0  0  0  0  0  0  0  0  0  0  0  0
  139.8324   81.5845  223.4020 H   0  0  0  0  0  0  0  0  0  0  0  0
  141.1288   80.8614  224.3624 H   0  0  0  0  0  0  0  0  0  0  0  0
  141.1877   81.7813  221.4321 H   0  0  0  0  0  0  0  0  0  0  0  0
  142.3130   82.2275  222.7286 H   0  0  0  0  0  0  0  0  0  0  0  0
  142.1519   79.7094  221.0758 H   0  0  0  0  0  0  0  0  0  0  0  0
  143.5948   80.5609  221.7540 H   0  0  0  0  0  0  0  0  0  0  0  0
  143.0070   79.7460  223.9030 H   0  0  0  0  0  0  0  0  0  0  0  0
  141.3208   77.6575  222.7059 H   0  0  0  0  0  0  0  0  0  0  0  0
  141.2680   78.3201  224.3575 H   0  0  0  0  0  0  0  0  0  0  0  0
  138.7997   76.7916  223.4317 H   0  0  0  0  0  0  0  0  0  0  0  0
  137.0402   76.8201  223.1477 H   0  0  0  0  0  0  0  0  0  0  0  0
  141.1484   76.7233  221.1080 H   0  0  0  0  0  0  0  0  0  0  0  0
  142.7862   74.8899  221.1233 H   0  0  0  0  0  0  0  0  0  0  0  0
  142.0441   72.5357  221.4275 H   0  0  0  0  0  0  0  0  0  0  0  0
  139.6175   72.0982  221.7219 H   0  0  0  0  0  0  0  0  0  0  0  0
  1  2  2  0
  2  3  1  0
  3  4  2  0
  4  5  1  0
  5  6  2  0
  6  7  1  0
  7  8  2  0
  8  9  1  0
  9 10  2  0
 10 11  1  0
 11 12  2  0
  6 13  1  0
 13 14  2  0
 14 15  1  0
 15 16  2  0
 16 17  1  0
  2 18  1  0
 18 19  1  0
 20 19  1  6
 20 21  1  0
 21 22  1  0
 22 23  1  0
 23 24  1  0
 24 25  1  0
 25 26  1  0
 26 27  1  0
 27 28  1  0
 28 29  1  0
 29 30  1  0
 23 31  1  0
 20 32  1  0
 32 33  2  0
 33 34  1  0
 34 35  2  0
 35 36  1  0
 36 37  2  0
 17  3  1  0
 37 18  1  0
 16  5  1  0
 31 20  1  0
 37 32  1  0
 12  7  1  0
 30 25  1  0
  4 38  1  0
  8 39  1  0
  9 40  1  0
 10 41  1  0
 11 42  1  0
 13 43  1  0
 14 44  1  0
 15 45  1  0
 17 46  1  0
 19 47  1  0
 19 48  1  0
 21 49  1  0
 21 50  1  0
 22 51  1  0
 22 52  1  0
 24 53  1  0
 24 54  1  0
 25 55  1  6
 26 56  1  0
 26 57  1  0
 27 58  1  0
 27 59  1  0
 28 60  1  0
 28 61  1  0
 29 62  1  0
 30 63  1  0
 30 64  1  0
 31 65  1  0
 31 66  1  0
 33 67  1  0
 34 68  1  0
 35 69  1  0
 36 70  1  0
M  END
>  <smiles>  (81) 
O=C(c1cc2c(-c3ccccn3)cccc2[nH]1)N1C[C@]2(CCN(CC3CCCNC3)C2)c2ccccc21

>  <score_type>  (81) 
oracle

>  <origin>  (81) 
autodockgpu

>  <m_score__min__energy>  (81) 
-9.9199999999999999

>  <m_primary>  (81) 
energy

>  <rmsd>  (81) 
3.0074573382847953

>  <m_score__min__rmsd>  (81) 
3.0074573382847953

>  <meeko>  (81) 
{"free_energy": -8.83, "intermolecular_energy": -10.32, "internal_energy": -2.06, "cluster_size": 6, "cluster_id": 4, "rank_in_cluster": 6}

>  <energy>  (81) 
-9.12

>  <cluster_rmsd>  (81) 
0.0

>  <cluster>  (81) 
7

$$$$

     RDKit          3D

 70 76  0  0  1  0  0  0  0  0999 V2000
  139.8340   74.2130  219.7990 O   0  0  0  0  0  0  0  0  0  0  0  0
  139.7720   74.2220  221.0590 C   0  0  0  0  0  0  0  0  0  0  0  0
  139.6190   72.9410  221.7210 C   0  0  0  0  0  0  0  0  0  0  0  0
  139.9190   72.6450  223.0320 C   0  0  0  0  0  0  0  0  0  0  0  0
  139.6240   71.3250  223.2340 C   0  0  0  0  0  0  0  0  0  0  0  0
  139.7380   70.5000  224.3210 C   0  0  0  0  0  0  0  0  0  0  0  0
  140.2360   70.8400  225.6180 C   0  0  0  0  0  0  0  0  0  0  0  0
  141.0380   71.8860  225.9770 C   0  0  0  0  0  0  0  0  0  0  0  0
  141.4080   72.1270  227.3110 C   0  0  0  0  0  0  0  0  0  0  0  0
  140.9620   71.2970  228.3140 C   0  0  0  0  0  0  0  0  0  0  0  0
  140.1520   70.2460  227.9320 C   0  0  0  0  0  0  0  0  0  0  0  0
  139.8240   70.0510  226.6570 N   0  0  0  0  0  0  0  0  0  0  0  0
  139.3480   69.1730  224.1140 C   0  0  0  0  0  0  0  0  0  0  0  0
  138.8790   68.7100  222.9090 C   0  0  0  0  0  0  0  0  0  0  0  0
  138.7680   69.5430  221.8330 C   0  0  0  0  0  0  0  0  0  0  0  0
  139.1500   70.8660  222.0150 C   0  0  0  0  0  0  0  0  0  0  0  0
  139.1470   71.8460  221.1020 N   0  0  0  0  0  0  0  0  0  0  0  0
  139.8480   75.4390  221.7870 N   0  0  0  0  0  0  0  0  0  0  0  0
  141.0900   76.0420  222.2960 C   0  0  0  0  0  0  0  0  0  0  0  0
  140.7970   77.5270  222.1650 C   0  0  1  0  0  0  0  0  0  0  0  0
  141.4730   78.3290  223.2520 C   0  0  0  0  0  0  0  0  0  0  0  0
  141.8140   79.6100  222.5420 C   0  0  0  0  0  0  0  0  0  0  0  0
  142.1060   79.2560  221.1720 N   0  0  0  0  0  0  0  0  0  0  0  0
  141.6920   80.3320  220.3110 C   0  0  0  0  0  0  0  0  0  0  0  0
  140.3170   80.8370  220.6400 C   0  0  1  0  0  0  0  0  0  0  0  0
  140.3010   82.2620  221.1540 C   0  0  0  0  0  0  0  0  0  0  0  0
  138.9970   82.4010  221.9310 C   0  0  0  0  0  0  0  0  0  0  0  0
  137.9350   81.6690  221.1200 C   0  0  0  0  0  0  0  0  0  0  0  0
  138.2730   81.6570  219.7110 N   0  0  0  0  0  0  0  0  0  0  0  0
  139.4260   80.8380  219.4080 C   0  0  0  0  0  0  0  0  0  0  0  0
  141.2430   78.1090  220.8700 C   0  0  0  0  0  0  0  0  0  0  0  0
  139.3280   77.6060  222.4000 C   0  0  0  0  0  0  0  0  0  0  0  0
  138.4410   78.5840  222.7770 C   0  0  0  0  0  0  0  0  0  0  0  0
  137.0860   78.3410  222.9300 C   0  0  0  0  0  0  0  0  0  0  0  0
  136.5700   77.0900  222.7100 C   0  0  0  0  0  0  0  0  0  0  0  0
  137.4530   76.0990  222.3320 C   0  0  0  0  0  0  0  0  0  0  0  0
  138.8120   76.3370  222.1750 C   0  0  0  0  0  0  0  0  0  0  0  0
  140.3224   73.3430  223.7803 H   0  0  0  0  0  0  0  0  0  0  0  0
  141.4074   72.5640  225.1936 H   0  0  0  0  0  0  0  0  0  0  0  0
  142.0562   72.9818  227.5543 H   0  0  0  0  0  0  0  0  0  0  0  0
  141.2367   71.4624  229.3662 H   0  0  0  0  0  0  0  0  0  0  0  0
  139.7696   69.5552  228.6979 H   0  0  0  0  0  0  0  0  0  0  0  0
  139.4202   68.4676  224.9550 H   0  0  0  0  0  0  0  0  0  0  0  0
  138.5888   67.6536  222.8095 H   0  0  0  0  0  0  0  0  0  0  0  0
  138.3924   69.1821  220.8641 H   0  0  0  0  0  0  0  0  0  0  0  0
  138.8410   71.7870  220.1020 H   0  0  0  0  0  0  0  0  0  0  0  0
  141.2703   75.7612  223.3442 H   0  0  0  0  0  0  0  0  0  0  0  0
  141.9930   75.7189  221.7574 H   0  0  0  0  0  0  0  0  0  0  0  0
  140.7907   78.5107  224.0955 H   0  0  0  0  0  0  0  0  0  0  0  0
  142.3455   77.8247  223.6929 H   0  0  0  0  0  0  0  0  0  0  0  0
  140.9619   80.3045  222.5814 H   0  0  0  0  0  0  0  0  0  0  0  0
  142.6723   80.1099  223.0147 H   0  0  0  0  0  0  0  0  0  0  0  0
  142.4066   81.1618  220.4153 H   0  0  0  0  0  0  0  0  0  0  0  0
  141.6678   79.9451  219.2816 H   0  0  0  0  0  0  0  0  0  0  0  0
  139.9555   80.1522  221.4213 H   0  0  0  0  0  0  0  0  0  0  0  0
  141.1625   82.4422  221.8138 H   0  0  0  0  0  0  0  0  0  0  0  0
  140.3667   82.9921  220.3338 H   0  0  0  0  0  0  0  0  0  0  0  0
  139.0968   81.9451  222.9271 H   0  0  0  0  0  0  0  0  0  0  0  0
  138.7299   83.4580  222.0773 H   0  0  0  0  0  0  0  0  0  0  0  0
  137.8585   80.6325  221.4802 H   0  0  0  0  0  0  0  0  0  0  0  0
  136.9759   82.1928  221.2455 H   0  0  0  0  0  0  0  0  0  0  0  0
  138.3740   82.6500  219.3860 H   0  0  0  0  0  0  0  0  0  0  0  0
  139.1073   79.8117  219.1732 H   0  0  0  0  0  0  0  0  0  0  0  0
  139.9673   81.2351  218.5366 H   0  0  0  0  0  0  0  0  0  0  0  0
  140.3706   78.4394  220.2872 H   0  0  0  0  0  0  0  0  0  0  0  0
  141.7896   77.3600  220.2781 H   0  0  0  0  0  0  0  0  0  0  0  0
  138.8210   79.5991  222.9646 H   0  0  0  0  0  0  0  0  0  0  0  0
  136.4168   79.1604  223.2312 H   0  0  0  0  0  0  0  0  0  0  0  0
  135.4960   76.8845  222.8299 H   0  0  0  0  0  0  0  0  0  0  0  0
  137.0668   75.0854  222.1487 H   0  0  0  0  0  0  0  0  0  0  0  0
  1  2  2  0
  2  3  1  0
  3  4  2  0
  4  5  1  0
  5  6  2  0
  6  7  1  0
  7  8  2  0
  8  9  1  0
  9 10  2  0
 10 11  1  0
 11 12  2  0
  6 13  1  0
 13 14  2  0
 14 15  1  0
 15 16  2  0
 16 17  1  0
  2 18  1  0
 18 19  1  0
 20 19  1  6
 20 21  1  0
 21 22  1  0
 22 23  1  0
 23 24  1  0
 24 25  1  0
 25 26  1  0
 26 27  1  0
 27 28  1  0
 28 29  1  0
 29 30  1  0
 23 31  1  0
 20 32  1  0
 32 33  2  0
 33 34  1  0
 34 35  2  0
 35 36  1  0
 36 37  2  0
 17  3  1  0
 37 18  1  0
 16  5  1  0
 31 20  1  0
 37 32  1  0
 12  7  1  0
 30 25  1  0
  4 38  1  0
  8 39  1  0
  9 40  1  0
 10 41  1  0
 11 42  1  0
 13 43  1  0
 14 44  1  0
 15 45  1  0
 17 46  1  0
 19 47  1  0
 19 48  1  0
 21 49  1  0
 21 50  1  0
 22 51  1  0
 22 52  1  0
 24 53  1  0
 24 54  1  0
 25 55  1  1
 26 56  1  0
 26 57  1  0
 27 58  1  0
 27 59  1  0
 28 60  1  0
 28 61  1  0
 29 62  1  0
 30 63  1  0
 30 64  1  0
 31 65  1  0
 31 66  1  0
 33 67  1  0
 34 68  1  0
 35 69  1  0
 36 70  1  0
M  END
>  <smiles>  (82) 
O=C(c1cc2c(-c3ccccn3)cccc2[nH]1)N1C[C@]2(CCN(CC3CCCNC3)C2)c2ccccc21

>  <score_type>  (82) 
oracle

>  <origin>  (82) 
autodockgpu

>  <m_score__min__energy>  (82) 
-9.9199999999999999

>  <m_primary>  (82) 
energy

>  <rmsd>  (82) 
2.754368129810158

>  <m_score__min__rmsd>  (82) 
2.754368129810158

>  <meeko>  (82) 
{"free_energy": -8.64, "intermolecular_energy": -10.13, "internal_energy": -2.34, "cluster_size": 5, "cluster_id": 7, "rank_in_cluster": 3}

>  <energy>  (82) 
-8.76

>  <cluster_rmsd>  (82) 
1.71

>  <cluster>  (82) 
7

$$$$

     RDKit          3D

 70 76  0  0  1  0  0  0  0  0999 V2000
  139.9730   74.1390  219.8260 O   0  0  0  0  0  0  0  0  0  0  0  0
  139.8300   74.1750  221.0790 C   0  0  0  0  0  0  0  0  0  0  0  0
  139.6330   72.9080  221.7560 C   0  0  0  0  0  0  0  0  0  0  0  0
  139.9460   72.6110  223.0650 C   0  0  0  0  0  0  0  0  0  0  0  0
  139.5960   71.3080  223.2860 C   0  0  0  0  0  0  0  0  0  0  0  0
  139.6950   70.4880  224.3790 C   0  0  0  0  0  0  0  0  0  0  0  0
  140.2330   70.8170  225.6620 C   0  0  0  0  0  0  0  0  0  0  0  0
  141.0390   71.8650  226.0060 C   0  0  0  0  0  0  0  0  0  0  0  0
  141.4520   72.0940  227.3300 C   0  0  0  0  0  0  0  0  0  0  0  0
  141.0460   71.2500  228.3380 C   0  0  0  0  0  0  0  0  0  0  0  0
  140.2300   70.1970  227.9710 C   0  0  0  0  0  0  0  0  0  0  0  0
  139.8610   70.0140  226.7050 N   0  0  0  0  0  0  0  0  0  0  0  0
  139.2420   69.1780  224.1920 C   0  0  0  0  0  0  0  0  0  0  0  0
  138.7290   68.7260  223.0020 C   0  0  0  0  0  0  0  0  0  0  0  0
  138.6330   69.5540  221.9200 C   0  0  0  0  0  0  0  0  0  0  0  0
  139.0780   70.8590  222.0810 C   0  0  0  0  0  0  0  0  0  0  0  0
  139.1010   71.8300  221.1580 N   0  0  0  0  0  0  0  0  0  0  0  0
  139.8610   75.4070  221.7850 N   0  0  0  0  0  0  0  0  0  0  0  0
  141.0840   76.0930  222.2330 C   0  0  0  0  0  0  0  0  0  0  0  0
  140.6950   77.5550  222.0910 C   0  0  1  0  0  0  0  0  0  0  0  0
  141.3640   78.4150  223.1370 C   0  0  0  0  0  0  0  0  0  0  0  0
  141.5980   79.7020  222.3950 C   0  0  0  0  0  0  0  0  0  0  0  0
  141.8560   79.3420  221.0190 N   0  0  0  0  0  0  0  0  0  0  0  0
  141.3430   80.3760  220.1590 C   0  0  0  0  0  0  0  0  0  0  0  0
  139.9930   80.8680  220.5930 C   0  0  1  0  0  0  0  0  0  0  0  0
  139.9990   82.2990  221.0890 C   0  0  0  0  0  0  0  0  0  0  0  0
  138.7600   82.4320  221.9670 C   0  0  0  0  0  0  0  0  0  0  0  0
  137.6460   81.6760  221.2530 C   0  0  0  0  0  0  0  0  0  0  0  0
  137.8700   81.6500  219.8220 N   0  0  0  0  0  0  0  0  0  0  0  0
  139.0050   80.8410  219.4370 C   0  0  0  0  0  0  0  0  0  0  0  0
  141.0530   78.1390  220.7700 C   0  0  0  0  0  0  0  0  0  0  0  0
  139.2350   77.5500  222.3860 C   0  0  0  0  0  0  0  0  0  0  0  0
  138.3060   78.4790  222.7830 C   0  0  0  0  0  0  0  0  0  0  0  0
  136.9750   78.1570  222.9960 C   0  0  0  0  0  0  0  0  0  0  0  0
  136.5290   76.8740  222.8160 C   0  0  0  0  0  0  0  0  0  0  0  0
  137.4550   75.9320  222.4170 C   0  0  0  0  0  0  0  0  0  0  0  0
  138.7890   76.2480  222.2010 C   0  0  0  0  0  0  0  0  0  0  0  0
  140.3954   73.2971  223.7981 H   0  0  0  0  0  0  0  0  0  0  0  0
  141.3770   72.5546  225.2185 H   0  0  0  0  0  0  0  0  0  0  0  0
  142.1020   72.9509  227.5610 H   0  0  0  0  0  0  0  0  0  0  0  0
  141.3551   71.4055  229.3822 H   0  0  0  0  0  0  0  0  0  0  0  0
  139.8778   69.4950  228.7412 H   0  0  0  0  0  0  0  0  0  0  0  0
  139.2996   68.4774  225.0381 H   0  0  0  0  0  0  0  0  0  0  0  0
  138.3906   67.6827  222.9185 H   0  0  0  0  0  0  0  0  0  0  0  0
  138.2210   69.2021  220.9627 H   0  0  0  0  0  0  0  0  0  0  0  0
  138.7730   71.7760  220.1650 H   0  0  0  0  0  0  0  0  0  0  0  0
  141.3233   75.8425  223.2770 H   0  0  0  0  0  0  0  0  0  0  0  0
  141.9828   75.8154  221.6629 H   0  0  0  0  0  0  0  0  0  0  0  0
  140.7063   78.5699  224.0050 H   0  0  0  0  0  0  0  0  0  0  0  0
  142.2826   77.9717  223.5488 H   0  0  0  0  0  0  0  0  0  0  0  0
  140.7076   80.3447  222.4590 H   0  0  0  0  0  0  0  0  0  0  0  0
  142.4424   80.2608  222.8248 H   0  0  0  0  0  0  0  0  0  0  0  0
  142.0459   81.2221  220.1667 H   0  0  0  0  0  0  0  0  0  0  0  0
  141.2347   79.9490  219.1511 H   0  0  0  0  0  0  0  0  0  0  0  0
  139.7058   80.1896  221.4099 H   0  0  0  0  0  0  0  0  0  0  0  0
  140.9083   82.4988  221.6748 H   0  0  0  0  0  0  0  0  0  0  0  0
  139.9884   83.0188  220.2573 H   0  0  0  0  0  0  0  0  0  0  0  0
  138.9458   81.9905  222.9572 H   0  0  0  0  0  0  0  0  0  0  0  0
  138.4913   83.4874  222.1216 H   0  0  0  0  0  0  0  0  0  0  0  0
  137.6128   80.6434  221.6306 H   0  0  0  0  0  0  0  0  0  0  0  0
  136.6930   82.1891  221.4491 H   0  0  0  0  0  0  0  0  0  0  0  0
  137.9310   82.6400  219.4770 H   0  0  0  0  0  0  0  0  0  0  0  0
  138.6819   79.8077  219.2421 H   0  0  0  0  0  0  0  0  0  0  0  0
  139.4686   81.2323  218.5194 H   0  0  0  0  0  0  0  0  0  0  0  0
  140.1397   78.4054  220.2179 H   0  0  0  0  0  0  0  0  0  0  0  0
  141.6204   77.4138  220.1682 H   0  0  0  0  0  0  0  0  0  0  0  0
  138.6302   79.5186  222.9380 H   0  0  0  0  0  0  0  0  0  0  0  0
  136.2695   78.9393  223.3128 H   0  0  0  0  0  0  0  0  0  0  0  0
  135.4753   76.6058  222.9828 H   0  0  0  0  0  0  0  0  0  0  0  0
  137.1242   74.8940  222.2648 H   0  0  0  0  0  0  0  0  0  0  0  0
  1  2  2  0
  2  3  1  0
  3  4  2  0
  4  5  1  0
  5  6  2  0
  6  7  1  0
  7  8  2  0
  8  9  1  0
  9 10  2  0
 10 11  1  0
 11 12  2  0
  6 13  1  0
 13 14  2  0
 14 15  1  0
 15 16  2  0
 16 17  1  0
  2 18  1  0
 18 19  1  0
 20 19  1  6
 20 21  1  0
 21 22  1  0
 22 23  1  0
 23 24  1  0
 24 25  1  0
 25 26  1  0
 26 27  1  0
 27 28  1  0
 28 29  1  0
 29 30  1  0
 23 31  1  0
 20 32  1  0
 32 33  2  0
 33 34  1  0
 34 35  2  0
 35 36  1  0
 36 37  2  0
 17  3  1  0
 37 18  1  0
 16  5  1  0
 31 20  1  0
 37 32  1  0
 12  7  1  0
 30 25  1  0
  4 38  1  0
  8 39  1  0
  9 40  1  0
 10 41  1  0
 11 42  1  0
 13 43  1  0
 14 44  1  0
 15 45  1  0
 17 46  1  0
 19 47  1  0
 19 48  1  0
 21 49  1  0
 21 50  1  0
 22 51  1  0
 22 52  1  0
 24 53  1  0
 24 54  1  0
 25 55  1  1
 26 56  1  0
 26 57  1  0
 27 58  1  0
 27 59  1  0
 28 60  1  0
 28 61  1  0
 29 62  1  0
 30 63  1  0
 30 64  1  0
 31 65  1  0
 31 66  1  0
 33 67  1  0
 34 68  1  0
 35 69  1  0
 36 70  1  0
M  END
>  <smiles>  (83) 
O=C(c1cc2c(-c3ccccn3)cccc2[nH]1)N1C[C@]2(CCN(CC3CCCNC3)C2)c2ccccc21

>  <score_type>  (83) 
oracle

>  <origin>  (83) 
autodockgpu

>  <m_score__min__energy>  (83) 
-9.9199999999999999

>  <m_primary>  (83) 
energy

>  <rmsd>  (83) 
2.757565671769197

>  <m_score__min__rmsd>  (83) 
2.757565671769197

>  <meeko>  (83) 
{"free_energy": -8.62, "intermolecular_energy": -10.11, "internal_energy": -2.3, "cluster_size": 5, "cluster_id": 7, "rank_in_cluster": 4}

>  <energy>  (83) 
-8.64

>  <cluster_rmsd>  (83) 
1.69

>  <cluster>  (83) 
7

$$$$

     RDKit          3D

 70 76  0  0  1  0  0  0  0  0999 V2000
  141.0870   74.0600  221.6970 O   0  0  0  0  0  0  0  0  0  0  0  0
  139.8830   73.8130  221.9810 C   0  0  0  0  0  0  0  0  0  0  0  0
  139.5710   72.4620  222.4070 C   0  0  0  0  0  0  0  0  0  0  0  0
  139.8730   71.8870  223.6210 C   0  0  0  0  0  0  0  0  0  0  0  0
  139.3980   70.6050  223.5980 C   0  0  0  0  0  0  0  0  0  0  0  0
  139.4300   69.5810  224.5080 C   0  0  0  0  0  0  0  0  0  0  0  0
  140.0190   69.6000  225.8110 C   0  0  0  0  0  0  0  0  0  0  0  0
  140.3590   70.6780  226.5790 C   0  0  0  0  0  0  0  0  0  0  0  0
  140.8870   70.5430  227.8740 C   0  0  0  0  0  0  0  0  0  0  0  0
  141.0790   69.2940  228.4170 C   0  0  0  0  0  0  0  0  0  0  0  0
  140.7280   68.2160  227.6270 C   0  0  0  0  0  0  0  0  0  0  0  0
  140.2310   68.3860  226.4030 N   0  0  0  0  0  0  0  0  0  0  0  0
  138.8450   68.3830  224.0880 C   0  0  0  0  0  0  0  0  0  0  0  0
  138.2710   68.2230  222.8510 C   0  0  0  0  0  0  0  0  0  0  0  0
  138.2420   69.2520  221.9540 C   0  0  0  0  0  0  0  0  0  0  0  0
  138.8180   70.4520  222.3480 C   0  0  0  0  0  0  0  0  0  0  0  0
  138.9240   71.5790  221.6300 N   0  0  0  0  0  0  0  0  0  0  0  0
  138.8860   74.8190  221.8830 N   0  0  0  0  0  0  0  0  0  0  0  0
  137.5110   74.6020  221.4060 C   0  0  0  0  0  0  0  0  0  0  0  0
  136.7230   75.5810  222.2590 C   0  0  1  0  0  0  0  0  0  0  0  0
  135.5280   76.1330  221.5160 C   0  0  0  0  0  0  0  0  0  0  0  0
  134.5130   76.2960  222.6150 C   0  0  0  0  0  0  0  0  0  0  0  0
  134.7540   75.2270  223.5570 N   0  0  0  0  0  0  0  0  0  0  0  0
  134.4400   75.6920  224.8830 C   0  0  0  0  0  0  0  0  0  0  0  0
  133.4940   74.7760  225.6040 C   0  0  1  0  0  0  0  0  0  0  0  0
  134.0940   73.4270  225.9430 C   0  0  0  0  0  0  0  0  0  0  0  0
  132.9080   72.4880  226.1340 C   0  0  0  0  0  0  0  0  0  0  0  0
  131.8540   73.2810  226.8970 C   0  0  0  0  0  0  0  0  0  0  0  0
  132.4670   74.3100  227.7120 N   0  0  0  0  0  0  0  0  0  0  0  0
  133.0610   75.3750  226.9340 C   0  0  0  0  0  0  0  0  0  0  0  0
  136.2000   74.9850  223.5180 C   0  0  0  0  0  0  0  0  0  0  0  0
  137.6800   76.7040  222.4610 C   0  0  0  0  0  0  0  0  0  0  0  0
  137.5850   78.0310  222.8000 C   0  0  0  0  0  0  0  0  0  0  0  0
  138.6950   78.8550  222.8990 C   0  0  0  0  0  0  0  0  0  0  0  0
  139.9530   78.3660  222.6560 C   0  0  0  0  0  0  0  0  0  0  0  0
  140.0590   77.0340  222.3140 C   0  0  0  0  0  0  0  0  0  0  0  0
  138.9500   76.2030  222.2140 C   0  0  0  0  0  0  0  0  0  0  0  0
  140.4001   72.3706  224.4567 H   0  0  0  0  0  0  0  0  0  0  0  0
  140.2140   71.6881  226.1684 H   0  0  0  0  0  0  0  0  0  0  0  0
  141.1478   71.4395  228.4557 H   0  0  0  0  0  0  0  0  0  0  0  0
  141.4908   69.1601  229.4282 H   0  0  0  0  0  0  0  0  0  0  0  0
  140.8618   67.1962  228.0171 H   0  0  0  0  0  0  0  0  0  0  0  0
  138.8445   67.5286  224.7808 H   0  0  0  0  0  0  0  0  0  0  0  0
  137.8287   67.2532  222.5791 H   0  0  0  0  0  0  0  0  0  0  0  0
  137.7820   69.1351  220.9617 H   0  0  0  0  0  0  0  0  0  0  0  0
  138.5760   71.7510  220.6580 H   0  0  0  0  0  0  0  0  0  0  0  0
  137.4171   74.8387  220.3359 H   0  0  0  0  0  0  0  0  0  0  0  0
  137.1694   73.5603  221.4961 H   0  0  0  0  0  0  0  0  0  0  0  0
  135.7634   77.0988  221.0449 H   0  0  0  0  0  0  0  0  0  0  0  0
  135.1856   75.4887  220.6928 H   0  0  0  0  0  0  0  0  0  0  0  0
  134.6388   77.2718  223.1070 H   0  0  0  0  0  0  0  0  0  0  0  0
  133.4875   76.2542  222.2192 H   0  0  0  0  0  0  0  0  0  0  0  0
  135.3726   75.7630  225.4621 H   0  0  0  0  0  0  0  0  0  0  0  0
  133.9487   76.6714  224.7863 H   0  0  0  0  0  0  0  0  0  0  0  0
  132.6545   74.6478  224.9049 H   0  0  0  0  0  0  0  0  0  0  0  0
  134.7348   73.0742  225.1215 H   0  0  0  0  0  0  0  0  0  0  0  0
  134.7239   73.4760  226.8434 H   0  0  0  0  0  0  0  0  0  0  0  0
  132.5129   72.1699  225.1580 H   0  0  0  0  0  0  0  0  0  0  0  0
  133.2006   71.5805  226.6824 H   0  0  0  0  0  0  0  0  0  0  0  0
  131.1684   73.7528  226.1778 H   0  0  0  0  0  0  0  0  0  0  0  0
  131.3064   72.5917  227.5565 H   0  0  0  0  0  0  0  0  0  0  0  0
  133.1430   73.8530  228.3720 H   0  0  0  0  0  0  0  0  0  0  0  0
  132.3240   76.1739  226.7650 H   0  0  0  0  0  0  0  0  0  0  0  0
  133.9211   75.8111  227.4633 H   0  0  0  0  0  0  0  0  0  0  0  0
  136.6829   75.4582  224.3857 H   0  0  0  0  0  0  0  0  0  0  0  0
  136.4118   73.9061  223.5513 H   0  0  0  0  0  0  0  0  0  0  0  0
  136.5905   78.4562  223.0006 H   0  0  0  0  0  0  0  0  0  0  0  0
  138.5656   79.9119  223.1753 H   0  0  0  0  0  0  0  0  0  0  0  0
  140.8416   79.0100  222.7308 H   0  0  0  0  0  0  0  0  0  0  0  0
  141.0561   76.6151  222.1134 H   0  0  0  0  0  0  0  0  0  0  0  0
  1  2  2  0
  2  3  1  0
  3  4  2  0
  4  5  1  0
  5  6  2  0
  6  7  1  0
  7  8  2  0
  8  9  1  0
  9 10  2  0
 10 11  1  0
 11 12  2  0
  6 13  1  0
 13 14  2  0
 14 15  1  0
 15 16  2  0
 16 17  1  0
  2 18  1  0
 18 19  1  0
 20 19  1  6
 20 21  1  0
 21 22  1  0
 22 23  1  0
 23 24  1  0
 24 25  1  0
 25 26  1  0
 26 27  1  0
 27 28  1  0
 28 29  1  0
 29 30  1  0
 23 31  1  0
 20 32  1  0
 32 33  2  0
 33 34  1  0
 34 35  2  0
 35 36  1  0
 36 37  2  0
 17  3  1  0
 37 18  1  0
 16  5  1  0
 31 20  1  0
 37 32  1  0
 12  7  1  0
 30 25  1  0
  4 38  1  0
  8 39  1  0
  9 40  1  0
 10 41  1  0
 11 42  1  0
 13 43  1  0
 14 44  1  0
 15 45  1  0
 17 46  1  0
 19 47  1  0
 19 48  1  0
 21 49  1  0
 21 50  1  0
 22 51  1  0
 22 52  1  0
 24 53  1  0
 24 54  1  0
 25 55  1  6
 26 56  1  0
 26 57  1  0
 27 58  1  0
 27 59  1  0
 28 60  1  0
 28 61  1  0
 29 62  1  0
 30 63  1  0
 30 64  1  0
 31 65  1  0
 31 66  1  0
 33 67  1  0
 34 68  1  0
 35 69  1  0
 36 70  1  0
M  END
>  <smiles>  (84) 
O=C(c1cc2c(-c3ccccn3)cccc2[nH]1)N1C[C@]2(CCN(CC3CCCNC3)C2)c2ccccc21

>  <score_type>  (84) 
oracle

>  <origin>  (84) 
autodockgpu

>  <m_score__min__energy>  (84) 
-9.9199999999999999

>  <m_primary>  (84) 
energy

>  <rmsd>  (84) 
6.226028894008502

>  <m_score__min__rmsd>  (84) 
6.226028894008502

>  <meeko>  (84) 
{"free_energy": -9.91, "intermolecular_energy": -11.4, "internal_energy": -1.61, "cluster_size": 6, "cluster_id": 1, "rank_in_cluster": 2}

>  <energy>  (84) 
-8.62

>  <cluster_rmsd>  (84) 
1.74

>  <cluster>  (84) 
7

$$$$

     RDKit          3D

 70 76  0  0  1  0  0  0  0  0999 V2000
  137.3820   72.5380  220.4780 O   0  0  0  0  0  0  0  0  0  0  0  0
  138.5540   72.3780  220.9160 C   0  0  0  0  0  0  0  0  0  0  0  0
  138.7670   71.2880  221.8480 C   0  0  0  0  0  0  0  0  0  0  0  0
  139.2040   71.3870  223.1510 C   0  0  0  0  0  0  0  0  0  0  0  0
  139.2640   70.1190  223.6610 C   0  0  0  0  0  0  0  0  0  0  0  0
  139.6420   69.6210  224.8800 C   0  0  0  0  0  0  0  0  0  0  0  0
  140.1080   70.3620  226.0110 C   0  0  0  0  0  0  0  0  0  0  0  0
  139.9120   70.1060  227.3380 C   0  0  0  0  0  0  0  0  0  0  0  0
  140.4790   70.9000  228.3500 C   0  0  0  0  0  0  0  0  0  0  0  0
  141.2670   71.9800  228.0230 C   0  0  0  0  0  0  0  0  0  0  0  0
  141.4550   72.2220  226.6750 C   0  0  0  0  0  0  0  0  0  0  0  0
  140.8990   71.4460  225.7470 N   0  0  0  0  0  0  0  0  0  0  0  0
  139.5890   68.2290  225.0050 C   0  0  0  0  0  0  0  0  0  0  0  0
  139.1860   67.4010  223.9870 C   0  0  0  0  0  0  0  0  0  0  0  0
  138.8080   67.9100  222.7770 C   0  0  0  0  0  0  0  0  0  0  0  0
  138.8540   69.2890  222.6290 C   0  0  0  0  0  0  0  0  0  0  0  0
  138.5530   70.0010  221.5330 N   0  0  0  0  0  0  0  0  0  0  0  0
  139.6110   73.2340  220.5080 N   0  0  0  0  0  0  0  0  0  0  0  0
  139.4350   74.5450  219.8620 C   0  0  0  0  0  0  0  0  0  0  0  0
  140.6110   75.3310  220.4170 C   0  0  1  0  0  0  0  0  0  0  0  0
  141.1290   76.3410  219.4210 C   0  0  0  0  0  0  0  0  0  0  0  0
  141.5640   77.4750  220.3080 C   0  0  0  0  0  0  0  0  0  0  0  0
  140.6570   77.4880  221.4320 N   0  0  0  0  0  0  0  0  0  0  0  0
  141.3670   77.9300  222.6040 C   0  0  0  0  0  0  0  0  0  0  0  0
  141.4940   79.4240  222.6700 C   0  0  1  0  0  0  0  0  0  0  0  0
  140.2300   80.1210  223.1320 C   0  0  0  0  0  0  0  0  0  0  0  0
  140.3420   81.5520  222.6190 C   0  0  0  0  0  0  0  0  0  0  0  0
  141.7920   81.9700  222.8310 C   0  0  0  0  0  0  0  0  0  0  0  0
  142.3860   81.2450  223.9360 N   0  0  0  0  0  0  0  0  0  0  0  0
  142.5710   79.8380  223.6600 C   0  0  0  0  0  0  0  0  0  0  0  0
  140.2870   76.0870  221.6580 C   0  0  0  0  0  0  0  0  0  0  0  0
  141.6650   74.2920  220.5880 C   0  0  0  0  0  0  0  0  0  0  0  0
  143.0340   74.2850  220.6960 C   0  0  0  0  0  0  0  0  0  0  0  0
  143.7630   73.1150  220.8370 C   0  0  0  0  0  0  0  0  0  0  0  0
  143.1330   71.8980  220.8720 C   0  0  0  0  0  0  0  0  0  0  0  0
  141.7570   71.8940  220.7640 C   0  0  0  0  0  0  0  0  0  0  0  0
  141.0210   73.0630  220.6240 C   0  0  0  0  0  0  0  0  0  0  0  0
  139.4580   72.3154  223.6835 H   0  0  0  0  0  0  0  0  0  0  0  0
  139.2877   69.2472  227.6255 H   0  0  0  0  0  0  0  0  0  0  0  0
  140.2923   70.6574  229.4066 H   0  0  0  0  0  0  0  0  0  0  0  0
  141.7236   72.6176  228.7944 H   0  0  0  0  0  0  0  0  0  0  0  0
  142.0771   73.0737  226.3625 H   0  0  0  0  0  0  0  0  0  0  0  0
  139.8839   67.7768  225.9634 H   0  0  0  0  0  0  0  0  0  0  0  0
  139.1672   66.3130  224.1477 H   0  0  0  0  0  0  0  0  0  0  0  0
  138.4813   67.2552  221.9557 H   0  0  0  0  0  0  0  0  0  0  0  0
  138.2170   69.6390  220.6100 H   0  0  0  0  0  0  0  0  0  0  0  0
  139.4913   74.4616  218.7666 H   0  0  0  0  0  0  0  0  0  0  0  0
  138.4578   75.0096  220.0603 H   0  0  0  0  0  0  0  0  0  0  0  0
  141.9763   75.9364  218.8479 H   0  0  0  0  0  0  0  0  0  0  0  0
  140.3855   76.6343  218.6652 H   0  0  0  0  0  0  0  0  0  0  0  0
  142.5955   77.3126  220.6540 H   0  0  0  0  0  0  0  0  0  0  0  0
  141.5420   78.4331  219.7681 H   0  0  0  0  0  0  0  0  0  0  0  0
  140.8258   77.5823  223.4963 H   0  0  0  0  0  0  0  0  0  0  0  0
  142.3826   77.5101  222.5576 H   0  0  0  0  0  0  0  0  0  0  0  0
  141.7319   79.7218  221.6381 H   0  0  0  0  0  0  0  0  0  0  0  0
  139.3426   79.6289  222.7072 H   0  0  0  0  0  0  0  0  0  0  0  0
  140.1226   80.0874  224.2262 H   0  0  0  0  0  0  0  0  0  0  0  0
  140.0857   81.5946  221.5501 H   0  0  0  0  0  0  0  0  0  0  0  0
  139.6508   82.2226  223.1506 H   0  0  0  0  0  0  0  0  0  0  0  0
  142.3640   81.7611  221.9149 H   0  0  0  0  0  0  0  0  0  0  0  0
  141.8160   83.0447  223.0642 H   0  0  0  0  0  0  0  0  0  0  0  0
  141.8140   81.4260  224.7980 H   0  0  0  0  0  0  0  0  0  0  0  0
  143.5670   79.6678  223.2252 H   0  0  0  0  0  0  0  0  0  0  0  0
  142.4963   79.2474  224.5850 H   0  0  0  0  0  0  0  0  0  0  0  0
  140.8583   75.6800  222.5053 H   0  0  0  0  0  0  0  0  0  0  0  0
  139.2158   76.0031  221.8934 H   0  0  0  0  0  0  0  0  0  0  0  0
  143.5720   75.2441  220.6696 H   0  0  0  0  0  0  0  0  0  0  0  0
  144.8587   73.1633  220.9217 H   0  0  0  0  0  0  0  0  0  0  0  0
  143.7011   70.9625  220.9817 H   0  0  0  0  0  0  0  0  0  0  0  0
  141.2251   70.9315  220.7898 H   0  0  0  0  0  0  0  0  0  0  0  0
  1  2  2  0
  2  3  1  0
  3  4  2  0
  4  5  1  0
  5  6  2  0
  6  7  1  0
  7  8  2  0
  8  9  1  0
  9 10  2  0
 10 11  1  0
 11 12  2  0
  6 13  1  0
 13 14  2  0
 14 15  1  0
 15 16  2  0
 16 17  1  0
  2 18  1  0
 18 19  1  0
 20 19  1  6
 20 21  1  0
 21 22  1  0
 22 23  1  0
 23 24  1  0
 24 25  1  0
 25 26  1  0
 26 27  1  0
 27 28  1  0
 28 29  1  0
 29 30  1  0
 23 31  1  0
 20 32  1  0
 32 33  2  0
 33 34  1  0
 34 35  2  0
 35 36  1  0
 36 37  2  0
 17  3  1  0
 37 18  1  0
 16  5  1  0
 31 20  1  0
 37 32  1  0
 12  7  1  0
 30 25  1  0
  4 38  1  0
  8 39  1  0
  9 40  1  0
 10 41  1  0
 11 42  1  0
 13 43  1  0
 14 44  1  0
 15 45  1  0
 17 46  1  0
 19 47  1  0
 19 48  1  0
 21 49  1  0
 21 50  1  0
 22 51  1  0
 22 52  1  0
 24 53  1  0
 24 54  1  0
 25 55  1  6
 26 56  1  0
 26 57  1  0
 27 58  1  0
 27 59  1  0
 28 60  1  0
 28 61  1  0
 29 62  1  0
 30 63  1  0
 30 64  1  0
 31 65  1  0
 31 66  1  0
 33 67  1  0
 34 68  1  0
 35 69  1  0
 36 70  1  0
M  END
>  <smiles>  (85) 
O=C(c1cc2c(-c3ccccn3)cccc2[nH]1)N1C[C@]2(CCN(CC3CCCNC3)C2)c2ccccc21

>  <score_type>  (85) 
oracle

>  <origin>  (85) 
autodockgpu

>  <m_score__min__energy>  (85) 
-9.9199999999999999

>  <m_primary>  (85) 
energy

>  <rmsd>  (85) 
2.777724134654753

>  <m_score__min__rmsd>  (85) 
2.777724134654753

>  <meeko>  (85) 
{"free_energy": -9.32, "intermolecular_energy": -10.81, "internal_energy": -1.81, "cluster_size": 13, "cluster_id": 3, "rank_in_cluster": 12}

>  <energy>  (85) 
-8.5

>  <cluster_rmsd>  (85) 
1.68

>  <cluster>  (85) 
7

$$$$

     RDKit          3D

 70 76  0  0  1  0  0  0  0  0999 V2000
  142.4400   73.0190  221.2190 O   0  0  0  0  0  0  0  0  0  0  0  0
  141.2330   73.3550  221.3680 C   0  0  0  0  0  0  0  0  0  0  0  0
  140.3710   72.4240  222.0710 C   0  0  0  0  0  0  0  0  0  0  0  0
  140.5450   71.9380  223.3480 C   0  0  0  0  0  0  0  0  0  0  0  0
  139.5050   71.0900  223.6110 C   0  0  0  0  0  0  0  0  0  0  0  0
  139.1780   70.3230  224.6970 C   0  0  0  0  0  0  0  0  0  0  0  0
  139.9040   70.2060  225.9240 C   0  0  0  0  0  0  0  0  0  0  0  0
  140.4090   71.1990  226.7140 C   0  0  0  0  0  0  0  0  0  0  0  0
  141.0610   70.9350  227.9310 C   0  0  0  0  0  0  0  0  0  0  0  0
  141.2110   69.6400  228.3690 C   0  0  0  0  0  0  0  0  0  0  0  0
  140.6920   68.6490  227.5570 C   0  0  0  0  0  0  0  0  0  0  0  0
  140.0820   68.9410  226.4110 N   0  0  0  0  0  0  0  0  0  0  0  0
  138.0200   69.5500  224.5630 C   0  0  0  0  0  0  0  0  0  0  0  0
  137.2490   69.5490  223.4270 C   0  0  0  0  0  0  0  0  0  0  0  0
  137.5830   70.3200  222.3520 C   0  0  0  0  0  0  0  0  0  0  0  0
  138.7300   71.0960  222.4610 C   0  0  0  0  0  0  0  0  0  0  0  0
  139.2570   71.9040  221.5320 N   0  0  0  0  0  0  0  0  0  0  0  0
  140.7500   74.5920  220.8650 N   0  0  0  0  0  0  0  0  0  0  0  0
  139.3450   75.0280  220.9040 C   0  0  0  0  0  0  0  0  0  0  0  0
  139.4860   76.5280  221.1010 C   0  0  1  0  0  0  0  0  0  0  0  0
  138.3680   77.2880  220.4270 C   0  0  0  0  0  0  0  0  0  0  0  0
  138.1600   78.4500  221.3600 C   0  0  0  0  0  0  0  0  0  0  0  0
  138.4350   77.9610  222.6920 N   0  0  0  0  0  0  0  0  0  0  0  0
  139.0040   79.0270  223.4750 C   0  0  0  0  0  0  0  0  0  0  0  0
  140.3940   79.3840  223.0350 C   0  0  1  0  0  0  0  0  0  0  0  0
  140.5690   80.8530  222.7080 C   0  0  0  0  0  0  0  0  0  0  0  0
  141.7850   80.9260  221.7920 C   0  0  0  0  0  0  0  0  0  0  0  0
  142.8070   79.9480  222.3600 C   0  0  0  0  0  0  0  0  0  0  0  0
  142.6290   79.7800  223.7870 N   0  0  0  0  0  0  0  0  0  0  0  0
  141.4060   79.0880  224.1310 C   0  0  0  0  0  0  0  0  0  0  0  0
  139.4790   76.9440  222.5300 C   0  0  0  0  0  0  0  0  0  0  0  0
  140.7450   76.8510  220.3730 C   0  0  0  0  0  0  0  0  0  0  0  0
  141.3080   77.9780  219.8290 C   0  0  0  0  0  0  0  0  0  0  0  0
  142.5320   77.9590  219.1780 C   0  0  0  0  0  0  0  0  0  0  0  0
  143.2380   76.7910  219.0500 C   0  0  0  0  0  0  0  0  0  0  0  0
  142.6810   75.6520  219.5940 C   0  0  0  0  0  0  0  0  0  0  0  0
  141.4560   75.6650  220.2480 C   0  0  0  0  0  0  0  0  0  0  0  0
  141.3701   72.1867  224.0316 H   0  0  0  0  0  0  0  0  0  0  0  0
  140.3016   72.2434  226.3860 H   0  0  0  0  0  0  0  0  0  0  0  0
  141.4525   71.7668  228.5349 H   0  0  0  0  0  0  0  0  0  0  0  0
  141.7178   69.4049  229.3166 H   0  0  0  0  0  0  0  0  0  0  0  0
  140.7852   67.5970  227.8646 H   0  0  0  0  0  0  0  0  0  0  0  0
  137.7130   68.9139  225.4063 H   0  0  0  0  0  0  0  0  0  0  0  0
  136.3493   68.9177  223.3829 H   0  0  0  0  0  0  0  0  0  0  0  0
  136.9704   70.3268  221.4384 H   0  0  0  0  0  0  0  0  0  0  0  0
  138.8860   72.1020  220.5730 H   0  0  0  0  0  0  0  0  0  0  0  0
  138.8279   74.7954  219.9614 H   0  0  0  0  0  0  0  0  0  0  0  0
  138.7479   74.5322  221.6835 H   0  0  0  0  0  0  0  0  0  0  0  0
  138.6668   77.6303  219.4252 H   0  0  0  0  0  0  0  0  0  0  0  0
  137.4617   76.6859  220.2656 H   0  0  0  0  0  0  0  0  0  0  0  0
  138.8488   79.2692  221.1062 H   0  0  0  0  0  0  0  0  0  0  0  0
  137.1353   78.8427  221.2841 H   0  0  0  0  0  0  0  0  0  0  0  0
  138.3639   79.9163  223.3782 H   0  0  0  0  0  0  0  0  0  0  0  0
  139.0616   78.6820  224.5179 H   0  0  0  0  0  0  0  0  0  0  0  0
  140.5581   78.7766  222.1327 H   0  0  0  0  0  0  0  0  0  0  0  0
  139.6772   81.2410  222.1941 H   0  0  0  0  0  0  0  0  0  0  0  0
  140.7058   81.4590  223.6158 H   0  0  0  0  0  0  0  0  0  0  0  0
  141.5084   80.6358  220.7677 H   0  0  0  0  0  0  0  0  0  0  0  0
  142.1909   81.9474  221.7466 H   0  0  0  0  0  0  0  0  0  0  0  0
  142.6852   78.9731  221.8653 H   0  0  0  0  0  0  0  0  0  0  0  0
  143.8146   80.3500  222.1780 H   0  0  0  0  0  0  0  0  0  0  0  0
  142.7150   80.7200  224.2460 H   0  0  0  0  0  0  0  0  0  0  0  0
  141.5903   78.0052  224.1904 H   0  0  0  0  0  0  0  0  0  0  0  0
  141.0304   79.4246  225.1085 H   0  0  0  0  0  0  0  0  0  0  0  0
  140.4580   77.3650  222.8026 H   0  0  0  0  0  0  0  0  0  0  0  0
  139.2810   76.0806  223.1822 H   0  0  0  0  0  0  0  0  0  0  0  0
  140.7678   78.9326  219.9126 H   0  0  0  0  0  0  0  0  0  0  0  0
  142.9407   78.8907  218.7599 H   0  0  0  0  0  0  0  0  0  0  0  0
  144.2093   76.7630  218.5345 H   0  0  0  0  0  0  0  0  0  0  0  0
  143.2261   74.7006  219.5066 H   0  0  0  0  0  0  0  0  0  0  0  0
  1  2  2  0
  2  3  1  0
  3  4  2  0
  4  5  1  0
  5  6  2  0
  6  7  1  0
  7  8  2  0
  8  9  1  0
  9 10  2  0
 10 11  1  0
 11 12  2  0
  6 13  1  0
 13 14  2  0
 14 15  1  0
 15 16  2  0
 16 17  1  0
  2 18  1  0
 18 19  1  0
 20 19  1  1
 20 21  1  0
 21 22  1  0
 22 23  1  0
 23 24  1  0
 24 25  1  0
 25 26  1  0
 26 27  1  0
 27 28  1  0
 28 29  1  0
 29 30  1  0
 23 31  1  0
 20 32  1  0
 32 33  2  0
 33 34  1  0
 34 35  2  0
 35 36  1  0
 36 37  2  0
 17  3  1  0
 37 18  1  0
 16  5  1  0
 31 20  1  0
 37 32  1  0
 12  7  1  0
 30 25  1  0
  4 38  1  0
  8 39  1  0
  9 40  1  0
 10 41  1  0
 11 42  1  0
 13 43  1  0
 14 44  1  0
 15 45  1  0
 17 46  1  0
 19 47  1  0
 19 48  1  0
 21 49  1  0
 21 50  1  0
 22 51  1  0
 22 52  1  0
 24 53  1  0
 24 54  1  0
 25 55  1  6
 26 56  1  0
 26 57  1  0
 27 58  1  0
 27 59  1  0
 28 60  1  0
 28 61  1  0
 29 62  1  0
 30 63  1  0
 30 64  1  0
 31 65  1  0
 31 66  1  0
 33 67  1  0
 34 68  1  0
 35 69  1  0
 36 70  1  0
M  END
>  <smiles>  (86) 
O=C(c1cc2c(-c3ccccn3)cccc2[nH]1)N1C[C@]2(CCN(CC3CCCNC3)C2)c2ccccc21

>  <score_type>  (86) 
oracle

>  <origin>  (86) 
autodockgpu

>  <m_score__min__energy>  (86) 
-9.9199999999999999

>  <m_primary>  (86) 
energy

>  <rmsd>  (86) 
2.4213436763032723

>  <m_score__min__rmsd>  (86) 
2.4213436763032723

>  <meeko>  (86) 
{"free_energy": -9.44, "intermolecular_energy": -10.93, "internal_energy": -2.23, "cluster_size": 13, "cluster_id": 3, "rank_in_cluster": 10}

>  <energy>  (86) 
-8.8

>  <cluster_rmsd>  (86) 
0.0

>  <cluster>  (86) 
8

$$$$

     RDKit          3D

 70 76  0  0  1  0  0  0  0  0999 V2000
  142.5910   73.2070  220.8950 O   0  0  0  0  0  0  0  0  0  0  0  0
  141.3800   73.4820  221.1130 C   0  0  0  0  0  0  0  0  0  0  0  0
  140.5990   72.4960  221.8350 C   0  0  0  0  0  0  0  0  0  0  0  0
  140.6610   72.2170  223.1830 C   0  0  0  0  0  0  0  0  0  0  0  0
  139.7580   71.2220  223.4380 C   0  0  0  0  0  0  0  0  0  0  0  0
  139.4110   70.5470  224.5780 C   0  0  0  0  0  0  0  0  0  0  0  0
  139.9530   70.7280  225.8900 C   0  0  0  0  0  0  0  0  0  0  0  0
  139.9150   69.8720  226.9540 C   0  0  0  0  0  0  0  0  0  0  0  0
  140.5410   70.1650  228.1780 C   0  0  0  0  0  0  0  0  0  0  0  0
  141.2230   71.3490  228.3410 C   0  0  0  0  0  0  0  0  0  0  0  0
  141.2510   72.2010  227.2530 C   0  0  0  0  0  0  0  0  0  0  0  0
  140.6450   71.8860  226.1100 N   0  0  0  0  0  0  0  0  0  0  0  0
  138.4410   69.5530  224.4190 C   0  0  0  0  0  0  0  0  0  0  0  0
  137.8610   69.2590  223.2090 C   0  0  0  0  0  0  0  0  0  0  0  0
  138.2130   69.9410  222.0800 C   0  0  0  0  0  0  0  0  0  0  0  0
  139.1760   70.9330  222.2130 C   0  0  0  0  0  0  0  0  0  0  0  0
  139.6870   71.7060  221.2460 N   0  0  0  0  0  0  0  0  0  0  0  0
  140.8150   74.7060  220.6650 N   0  0  0  0  0  0  0  0  0  0  0  0
  139.3960   75.0770  220.7900 C   0  0  0  0  0  0  0  0  0  0  0  0
  139.4810   76.5770  221.0140 C   0  0  1  0  0  0  0  0  0  0  0  0
  138.2940   77.2990  220.4190 C   0  0  0  0  0  0  0  0  0  0  0  0
  138.0860   78.4300  221.3880 C   0  0  0  0  0  0  0  0  0  0  0  0
  138.4560   77.9280  222.6910 N   0  0  0  0  0  0  0  0  0  0  0  0
  139.0190   79.0020  223.4660 C   0  0  0  0  0  0  0  0  0  0  0  0
  140.3120   79.5070  222.8950 C   0  0  1  0  0  0  0  0  0  0  0  0
  140.3470   81.0100  222.7060 C   0  0  0  0  0  0  0  0  0  0  0  0
  141.4220   81.2650  221.6560 C   0  0  0  0  0  0  0  0  0  0  0  0
  142.5720   80.3200  221.9830 C   0  0  0  0  0  0  0  0  0  0  0  0
  142.5970   80.0010  223.3960 N   0  0  0  0  0  0  0  0  0  0  0  0
  141.4790   79.1860  223.8170 C   0  0  0  0  0  0  0  0  0  0  0  0
  139.5340   76.9630  222.4500 C   0  0  0  0  0  0  0  0  0  0  0  0
  140.6820   76.9720  220.2260 C   0  0  0  0  0  0  0  0  0  0  0  0
  141.1640   78.1340  219.6780 C   0  0  0  0  0  0  0  0  0  0  0  0
  142.3490   78.1850  218.9620 C   0  0  0  0  0  0  0  0  0  0  0  0
  143.0990   77.0530  218.7700 C   0  0  0  0  0  0  0  0  0  0  0  0
  142.6240   75.8790  219.3170 C   0  0  0  0  0  0  0  0  0  0  0  0
  141.4370   75.8220  220.0360 C   0  0  0  0  0  0  0  0  0  0  0  0
  141.3166   72.7051  223.9191 H   0  0  0  0  0  0  0  0  0  0  0  0
  139.3752   68.9193  226.8491 H   0  0  0  0  0  0  0  0  0  0  0  0
  140.4855   69.4455  229.0082 H   0  0  0  0  0  0  0  0  0  0  0  0
  141.7203   71.6043  229.2884 H   0  0  0  0  0  0  0  0  0  0  0  0
  141.7851   73.1593  227.3331 H   0  0  0  0  0  0  0  0  0  0  0  0
  138.1276   68.9797  225.3039 H   0  0  0  0  0  0  0  0  0  0  0  0
  137.1032   68.4639  223.1490 H   0  0  0  0  0  0  0  0  0  0  0  0
  137.7536   69.7146  221.1065 H   0  0  0  0  0  0  0  0  0  0  0  0
  139.4360   71.7070  220.2290 H   0  0  0  0  0  0  0  0  0  0  0  0
  138.8386   74.8409  219.8715 H   0  0  0  0  0  0  0  0  0  0  0  0
  138.8652   74.5384  221.5888 H   0  0  0  0  0  0  0  0  0  0  0  0
  138.5215   77.6754  219.4108 H   0  0  0  0  0  0  0  0  0  0  0  0
  137.4081   76.6593  220.2930 H   0  0  0  0  0  0  0  0  0  0  0  0
  138.7219   79.2853  221.1158 H   0  0  0  0  0  0  0  0  0  0  0  0
  137.0418   78.7758  221.3771 H   0  0  0  0  0  0  0  0  0  0  0  0
  138.2979   79.8322  223.4943 H   0  0  0  0  0  0  0  0  0  0  0  0
  139.2281   78.6130  224.4735 H   0  0  0  0  0  0  0  0  0  0  0  0
  140.3927   79.0041  221.9201 H   0  0  0  0  0  0  0  0  0  0  0  0
  139.3713   81.3757  222.3535 H   0  0  0  0  0  0  0  0  0  0  0  0
  140.5651   81.5342  223.6481 H   0  0  0  0  0  0  0  0  0  0  0  0
  141.0297   81.0539  220.6502 H   0  0  0  0  0  0  0  0  0  0  0  0
  141.7513   82.3145  221.6677 H   0  0  0  0  0  0  0  0  0  0  0  0
  142.4491   79.3911  221.4068 H   0  0  0  0  0  0  0  0  0  0  0  0
  143.5181   80.8153  221.7191 H   0  0  0  0  0  0  0  0  0  0  0  0
  142.6830   80.8960  223.9370 H   0  0  0  0  0  0  0  0  0  0  0  0
  141.7392   78.1202  223.7376 H   0  0  0  0  0  0  0  0  0  0  0  0
  141.2168   79.3961  224.8644 H   0  0  0  0  0  0  0  0  0  0  0  0
  140.5068   77.4227  222.6790 H   0  0  0  0  0  0  0  0  0  0  0  0
  139.4107   76.0784  223.0921 H   0  0  0  0  0  0  0  0  0  0  0  0
  140.5872   79.0609  219.8124 H   0  0  0  0  0  0  0  0  0  0  0  0
  142.6916   79.1428  218.5434 H   0  0  0  0  0  0  0  0  0  0  0  0
  144.0411   77.0801  218.2028 H   0  0  0  0  0  0  0  0  0  0  0  0
  143.2057   74.9557  219.1789 H   0  0  0  0  0  0  0  0  0  0  0  0
  1  2  2  0
  2  3  1  0
  3  4  2  0
  4  5  1  0
  5  6  2  0
  6  7  1  0
  7  8  2  0
  8  9  1  0
  9 10  2  0
 10 11  1  0
 11 12  2  0
  6 13  1  0
 13 14  2  0
 14 15  1  0
 15 16  2  0
 16 17  1  0
  2 18  1  0
 18 19  1  0
 20 19  1  1
 20 21  1  0
 21 22  1  0
 22 23  1  0
 23 24  1  0
 24 25  1  0
 25 26  1  0
 26 27  1  0
 27 28  1  0
 28 29  1  0
 29 30  1  0
 23 31  1  0
 20 32  1  0
 32 33  2  0
 33 34  1  0
 34 35  2  0
 35 36  1  0
 36 37  2  0
 17  3  1  0
 37 18  1  0
 16  5  1  0
 31 20  1  0
 37 32  1  0
 12  7  1  0
 30 25  1  0
  4 38  1  0
  8 39  1  0
  9 40  1  0
 10 41  1  0
 11 42  1  0
 13 43  1  0
 14 44  1  0
 15 45  1  0
 17 46  1  0
 19 47  1  0
 19 48  1  0
 21 49  1  0
 21 50  1  0
 22 51  1  0
 22 52  1  0
 24 53  1  0
 24 54  1  0
 25 55  1  6
 26 56  1  0
 26 57  1  0
 27 58  1  0
 27 59  1  0
 28 60  1  0
 28 61  1  0
 29 62  1  0
 30 63  1  0
 30 64  1  0
 31 65  1  0
 31 66  1  0
 33 67  1  0
 34 68  1  0
 35 69  1  0
 36 70  1  0
M  END
>  <smiles>  (87) 
O=C(c1cc2c(-c3ccccn3)cccc2[nH]1)N1C[C@]2(CCN(CC3CCCNC3)C2)c2ccccc21

>  <score_type>  (87) 
oracle

>  <origin>  (87) 
autodockgpu

>  <m_score__min__energy>  (87) 
-9.9199999999999999

>  <m_primary>  (87) 
energy

>  <rmsd>  (87) 
2.7094079159457847

>  <m_score__min__rmsd>  (87) 
2.7094079159457847

>  <meeko>  (87) 
{"free_energy": -9.6, "intermolecular_energy": -11.1, "internal_energy": -2.2, "cluster_size": 6, "cluster_id": 4, "rank_in_cluster": 1}

>  <energy>  (87) 
-8.79

>  <cluster_rmsd>  (87) 
0.0

>  <cluster>  (87) 
9

$$$$

     RDKit          3D

 70 76  0  0  1  0  0  0  0  0999 V2000
  142.5620   81.5350  218.5520 O   0  0  0  0  0  0  0  0  0  0  0  0
  142.0320   80.4590  218.9410 C   0  0  0  0  0  0  0  0  0  0  0  0
  142.3570   79.2580  218.1970 C   0  0  0  0  0  0  0  0  0  0  0  0
  142.4930   77.9830  218.7020 C   0  0  0  0  0  0  0  0  0  0  0  0
  142.8030   77.1580  217.6560 C   0  0  0  0  0  0  0  0  0  0  0  0
  143.0660   75.8160  217.5720 C   0  0  0  0  0  0  0  0  0  0  0  0
  143.0840   74.8690  218.6440 C   0  0  0  0  0  0  0  0  0  0  0  0
  142.2950   73.7680  218.8230 C   0  0  0  0  0  0  0  0  0  0  0  0
  142.4630   72.8910  219.9080 C   0  0  0  0  0  0  0  0  0  0  0  0
  143.4470   73.1230  220.8410 C   0  0  0  0  0  0  0  0  0  0  0  0
  144.2350   74.2410  220.6430 C   0  0  0  0  0  0  0  0  0  0  0  0
  144.0440   75.0480  219.6010 N   0  0  0  0  0  0  0  0  0  0  0  0
  143.3780   75.3420  216.2950 C   0  0  0  0  0  0  0  0  0  0  0  0
  143.4230   76.1500  215.1860 C   0  0  0  0  0  0  0  0  0  0  0  0
  143.1570   77.4860  215.2810 C   0  0  0  0  0  0  0  0  0  0  0  0
  142.8450   77.9810  216.5410 C   0  0  0  0  0  0  0  0  0  0  0  0
  142.5730   79.2500  216.8720 N   0  0  0  0  0  0  0  0  0  0  0  0
  141.1560   80.4360  220.0590 N   0  0  0  0  0  0  0  0  0  0  0  0
  139.7200   80.7540  220.0130 C   0  0  0  0  0  0  0  0  0  0  0  0
  139.1550   79.8100  221.0620 C   0  0  1  0  0  0  0  0  0  0  0  0
  137.9580   80.4080  221.7640 C   0  0  0  0  0  0  0  0  0  0  0  0
  137.1010   79.1990  222.0230 C   0  0  0  0  0  0  0  0  0  0  0  0
  137.3180   78.2960  220.9170 N   0  0  0  0  0  0  0  0  0  0  0  0
  137.2140   76.9410  221.3890 C   0  0  0  0  0  0  0  0  0  0  0  0
  138.5480   76.2560  221.4690 C   0  0  1  0  0  0  0  0  0  0  0  0
  139.3550   76.6390  222.6920 C   0  0  0  0  0  0  0  0  0  0  0  0
  140.8050   76.3260  222.3390 C   0  0  0  0  0  0  0  0  0  0  0  0
  140.7860   75.0010  221.5870 C   0  0  0  0  0  0  0  0  0  0  0  0
  139.6480   74.1960  221.9810 N   0  0  0  0  0  0  0  0  0  0  0  0
  138.3830   74.7460  221.5460 C   0  0  0  0  0  0  0  0  0  0  0  0
  138.7120   78.5020  220.5080 C   0  0  0  0  0  0  0  0  0  0  0  0
  140.2550   79.7140  222.0610 C   0  0  0  0  0  0  0  0  0  0  0  0
  140.3570   79.3590  223.3840 C   0  0  0  0  0  0  0  0  0  0  0  0
  141.5610   79.3840  224.0690 C   0  0  0  0  0  0  0  0  0  0  0  0
  142.7160   79.7720  223.4420 C   0  0  0  0  0  0  0  0  0  0  0  0
  142.6240   80.1310  222.1130 C   0  0  0  0  0  0  0  0  0  0  0  0
  141.4210   80.1080  221.4190 C   0  0  0  0  0  0  0  0  0  0  0  0
  142.3740   77.6836  219.7538 H   0  0  0  0  0  0  0  0  0  0  0  0
  141.4999   73.5607  218.0917 H   0  0  0  0  0  0  0  0  0  0  0  0
  141.8051   72.0155  220.0117 H   0  0  0  0  0  0  0  0  0  0  0  0
  143.5988   72.4532  221.7003 H   0  0  0  0  0  0  0  0  0  0  0  0
  145.0366   74.4690  221.3610 H   0  0  0  0  0  0  0  0  0  0  0  0
  143.5979   74.2712  216.1726 H   0  0  0  0  0  0  0  0  0  0  0  0
  143.6767   75.7154  214.2079 H   0  0  0  0  0  0  0  0  0  0  0  0
  143.1884   78.1417  214.3983 H   0  0  0  0  0  0  0  0  0  0  0  0
  142.5340   80.0820  216.2360 H   0  0  0  0  0  0  0  0  0  0  0  0
  139.5344   81.8050  220.2793 H   0  0  0  0  0  0  0  0  0  0  0  0
  139.2698   80.6316  219.0169 H   0  0  0  0  0  0  0  0  0  0  0  0
  138.2512   80.8973  222.7045 H   0  0  0  0  0  0  0  0  0  0  0  0
  137.4508   81.1905  221.1806 H   0  0  0  0  0  0  0  0  0  0  0  0
  137.3962   78.7197  222.9681 H   0  0  0  0  0  0  0  0  0  0  0  0
  136.0396   79.4754  222.1076 H   0  0  0  0  0  0  0  0  0  0  0  0
  136.7616   76.9504  222.3916 H   0  0  0  0  0  0  0  0  0  0  0  0
  136.5945   76.3836  220.6710 H   0  0  0  0  0  0  0  0  0  0  0  0
  139.0734   76.5773  220.5575 H   0  0  0  0  0  0  0  0  0  0  0  0
  139.2355   77.7103  222.9112 H   0  0  0  0  0  0  0  0  0  0  0  0
  139.0254   76.0898  223.5863 H   0  0  0  0  0  0  0  0  0  0  0  0
  141.2216   77.1197  221.7015 H   0  0  0  0  0  0  0  0  0  0  0  0
  141.4316   76.2647  223.2410 H   0  0  0  0  0  0  0  0  0  0  0  0
  140.7281   75.2013  220.5070 H   0  0  0  0  0  0  0  0  0  0  0  0
  141.7061   74.4484  221.8280 H   0  0  0  0  0  0  0  0  0  0  0  0
  139.6960   74.0370  223.0180 H   0  0  0  0  0  0  0  0  0  0  0  0
  138.1189   74.3454  220.5562 H   0  0  0  0  0  0  0  0  0  0  0  0
  137.5799   74.4776  222.2482 H   0  0  0  0  0  0  0  0  0  0  0  0
  139.3429   77.6933  220.9055 H   0  0  0  0  0  0  0  0  0  0  0  0
  138.7973   78.4982  219.4113 H   0  0  0  0  0  0  0  0  0  0  0  0
  139.4494   79.0433  223.9193 H   0  0  0  0  0  0  0  0  0  0  0  0
  141.5901   79.0890  225.1283 H   0  0  0  0  0  0  0  0  0  0  0  0
  143.6772   79.7963  223.9764 H   0  0  0  0  0  0  0  0  0  0  0  0
  143.5355   80.4466  221.5843 H   0  0  0  0  0  0  0  0  0  0  0  0
  1  2  2  0
  2  3  1  0
  3  4  2  0
  4  5  1  0
  5  6  2  0
  6  7  1  0
  7  8  2  0
  8  9  1  0
  9 10  2  0
 10 11  1  0
 11 12  2  0
  6 13  1  0
 13 14  2  0
 14 15  1  0
 15 16  2  0
 16 17  1  0
  2 18  1  0
 18 19  1  0
 20 19  1  6
 20 21  1  0
 21 22  1  0
 22 23  1  0
 23 24  1  0
 24 25  1  0
 25 26  1  0
 26 27  1  0
 27 28  1  0
 28 29  1  0
 29 30  1  0
 23 31  1  0
 20 32  1  0
 32 33  2  0
 33 34  1  0
 34 35  2  0
 35 36  1  0
 36 37  2  0
 17  3  1  0
 37 18  1  0
 16  5  1  0
 31 20  1  0
 37 32  1  0
 12  7  1  0
 30 25  1  0
  4 38  1  0
  8 39  1  0
  9 40  1  0
 10 41  1  0
 11 42  1  0
 13 43  1  0
 14 44  1  0
 15 45  1  0
 17 46  1  0
 19 47  1  0
 19 48  1  0
 21 49  1  0
 21 50  1  0
 22 51  1  0
 22 52  1  0
 24 53  1  0
 24 54  1  0
 25 55  1  6
 26 56  1  0
 26 57  1  0
 27 58  1  0
 27 59  1  0
 28 60  1  0
 28 61  1  0
 29 62  1  0
 30 63  1  0
 30 64  1  0
 31 65  1  0
 31 66  1  0
 33 67  1  0
 34 68  1  0
 35 69  1  0
 36 70  1  0
M  END
>  <smiles>  (88) 
O=C(c1cc2c(-c3ccccn3)cccc2[nH]1)N1C[C@]2(CCN(CC3CCCNC3)C2)c2ccccc21

>  <score_type>  (88) 
oracle

>  <origin>  (88) 
autodockgpu

>  <m_score__min__energy>  (88) 
-9.9199999999999999

>  <m_primary>  (88) 
energy

>  <rmsd>  (88) 
8.000244690231249

>  <m_score__min__rmsd>  (88) 
8.000244690231249

>  <meeko>  (88) 
{"free_energy": -8.07, "intermolecular_energy": -9.56, "internal_energy": -2.94, "cluster_size": 2, "cluster_id": 12, "rank_in_cluster": 2}

>  <energy>  (88) 
-8.67

>  <cluster_rmsd>  (88) 
0.0

>  <cluster>  (88) 
10

$$$$

     RDKit          3D

 70 76  0  0  1  0  0  0  0  0999 V2000
  142.2440   72.9010  221.5480 O   0  0  0  0  0  0  0  0  0  0  0  0
  141.0470   73.2850  221.6510 C   0  0  0  0  0  0  0  0  0  0  0  0
  140.1340   72.4110  222.3610 C   0  0  0  0  0  0  0  0  0  0  0  0
  140.3380   71.8210  223.5900 C   0  0  0  0  0  0  0  0  0  0  0  0
  139.2260   71.0800  223.8800 C   0  0  0  0  0  0  0  0  0  0  0  0
  138.8890   70.2810  224.9400 C   0  0  0  0  0  0  0  0  0  0  0  0
  139.6790   70.0000  226.0980 C   0  0  0  0  0  0  0  0  0  0  0  0
  139.9970   68.7870  226.6410 C   0  0  0  0  0  0  0  0  0  0  0  0
  140.8340   68.6590  227.7620 C   0  0  0  0  0  0  0  0  0  0  0  0
  141.3690   69.7780  228.3570 C   0  0  0  0  0  0  0  0  0  0  0  0
  141.0380   70.9960  227.7940 C   0  0  0  0  0  0  0  0  0  0  0  0
  140.2400   71.0740  226.7310 N   0  0  0  0  0  0  0  0  0  0  0  0
  137.6420   69.6550  224.8500 C   0  0  0  0  0  0  0  0  0  0  0  0
  136.7980   69.8180  223.7790 C   0  0  0  0  0  0  0  0  0  0  0  0
  137.1440   70.6200  222.7290 C   0  0  0  0  0  0  0  0  0  0  0  0
  138.3790   71.2520  222.7960 C   0  0  0  0  0  0  0  0  0  0  0  0
  138.9310   72.0580  221.8800 N   0  0  0  0  0  0  0  0  0  0  0  0
  140.6240   74.5200  221.0940 N   0  0  0  0  0  0  0  0  0  0  0  0
  139.2350   75.0070  221.0760 C   0  0  0  0  0  0  0  0  0  0  0  0
  139.4240   76.5070  221.2270 C   0  0  1  0  0  0  0  0  0  0  0  0
  138.3530   77.2820  220.4950 C   0  0  0  0  0  0  0  0  0  0  0  0
  138.1600   78.4810  221.3830 C   0  0  0  0  0  0  0  0  0  0  0  0
  138.3800   78.0290  222.7370 N   0  0  0  0  0  0  0  0  0  0  0  0
  138.9630   79.1000  223.5010 C   0  0  0  0  0  0  0  0  0  0  0  0
  140.3580   79.4300  223.0560 C   0  0  1  0  0  0  0  0  0  0  0  0
  140.5650   80.8980  222.7430 C   0  0  0  0  0  0  0  0  0  0  0  0
  141.7760   80.9530  221.8190 C   0  0  0  0  0  0  0  0  0  0  0  0
  142.7790   79.9460  222.3680 C   0  0  0  0  0  0  0  0  0  0  0  0
  142.6060   79.7660  223.7950 N   0  0  0  0  0  0  0  0  0  0  0  0
  141.3710   79.0990  224.1410 C   0  0  0  0  0  0  0  0  0  0  0  0
  139.3910   76.9710  222.6410 C   0  0  0  0  0  0  0  0  0  0  0  0
  140.7140   76.7600  220.5270 C   0  0  0  0  0  0  0  0  0  0  0  0
  141.3330   77.8480  219.9630 C   0  0  0  0  0  0  0  0  0  0  0  0
  142.5730   77.7640  219.3510 C   0  0  0  0  0  0  0  0  0  0  0  0
  143.2400   76.5680  219.2830 C   0  0  0  0  0  0  0  0  0  0  0  0
  142.6270   75.4680  219.8470 C   0  0  0  0  0  0  0  0  0  0  0  0
  141.3850   75.5460  220.4630 C   0  0  0  0  0  0  0  0  0  0  0  0
  141.2321   71.9269  224.2220 H   0  0  0  0  0  0  0  0  0  0  0  0
  139.5821   67.8769  226.1833 H   0  0  0  0  0  0  0  0  0  0  0  0
  141.0622   67.6613  228.1651 H   0  0  0  0  0  0  0  0  0  0  0  0
  142.0266   69.7070  229.2359 H   0  0  0  0  0  0  0  0  0  0  0  0
  141.4421   71.9200  228.2332 H   0  0  0  0  0  0  0  0  0  0  0  0
  137.3222   69.0017  225.6752 H   0  0  0  0  0  0  0  0  0  0  0  0
  135.8301   69.2955  223.7666 H   0  0  0  0  0  0  0  0  0  0  0  0
  136.4738   70.7593  221.8679 H   0  0  0  0  0  0  0  0  0  0  0  0
  138.5200   72.3630  220.9660 H   0  0  0  0  0  0  0  0  0  0  0  0
  138.7373   74.7605  220.1265 H   0  0  0  0  0  0  0  0  0  0  0  0
  138.5982   74.5598  221.8535 H   0  0  0  0  0  0  0  0  0  0  0  0
  138.6923   77.5799  219.4919 H   0  0  0  0  0  0  0  0  0  0  0  0
  137.4309   76.7064  220.3262 H   0  0  0  0  0  0  0  0  0  0  0  0
  138.8840   79.2671  221.1225 H   0  0  0  0  0  0  0  0  0  0  0  0
  137.1521   78.9054  221.2644 H   0  0  0  0  0  0  0  0  0  0  0  0
  138.3353   79.9963  223.3881 H   0  0  0  0  0  0  0  0  0  0  0  0
  139.0153   78.7726  224.5498 H   0  0  0  0  0  0  0  0  0  0  0  0
  140.5015   78.8283  222.1464 H   0  0  0  0  0  0  0  0  0  0  0  0
  139.6788   81.3120  222.2397 H   0  0  0  0  0  0  0  0  0  0  0  0
  140.7224   81.4907  223.6562 H   0  0  0  0  0  0  0  0  0  0  0  0
  141.4854   80.6808  220.7936 H   0  0  0  0  0  0  0  0  0  0  0  0
  142.2051   81.9652  221.7822 H   0  0  0  0  0  0  0  0  0  0  0  0
  142.6318   78.9799  221.8631 H   0  0  0  0  0  0  0  0  0  0  0  0
  143.7944   80.3266  222.1834 H   0  0  0  0  0  0  0  0  0  0  0  0
  142.7180   80.7000  224.2640 H   0  0  0  0  0  0  0  0  0  0  0  0
  141.5308   78.0117  224.1875 H   0  0  0  0  0  0  0  0  0  0  0  0
  141.0106   79.4334  225.1250 H   0  0  0  0  0  0  0  0  0  0  0  0
  140.3762   77.3664  222.9291 H   0  0  0  0  0  0  0  0  0  0  0  0
  139.1436   76.1379  223.3153 H   0  0  0  0  0  0  0  0  0  0  0  0
  140.8252   78.8231  219.9984 H   0  0  0  0  0  0  0  0  0  0  0  0
  143.0271   78.6661  218.9151 H   0  0  0  0  0  0  0  0  0  0  0  0
  144.2243   76.4886  218.7983 H   0  0  0  0  0  0  0  0  0  0  0  0
  143.1399   74.4957  219.8073 H   0  0  0  0  0  0  0  0  0  0  0  0
  1  2  2  0
  2  3  1  0
  3  4  2  0
  4  5  1  0
  5  6  2  0
  6  7  1  0
  7  8  2  0
  8  9  1  0
  9 10  2  0
 10 11  1  0
 11 12  2  0
  6 13  1  0
 13 14  2  0
 14 15  1  0
 15 16  2  0
 16 17  1  0
  2 18  1  0
 18 19  1  0
 20 19  1  1
 20 21  1  0
 21 22  1  0
 22 23  1  0
 23 24  1  0
 24 25  1  0
 25 26  1  0
 26 27  1  0
 27 28  1  0
 28 29  1  0
 29 30  1  0
 23 31  1  0
 20 32  1  0
 32 33  2  0
 33 34  1  0
 34 35  2  0
 35 36  1  0
 36 37  2  0
 17  3  1  0
 37 18  1  0
 16  5  1  0
 31 20  1  0
 37 32  1  0
 12  7  1  0
 30 25  1  0
  4 38  1  0
  8 39  1  0
  9 40  1  0
 10 41  1  0
 11 42  1  0
 13 43  1  0
 14 44  1  0
 15 45  1  0
 17 46  1  0
 19 47  1  0
 19 48  1  0
 21 49  1  0
 21 50  1  0
 22 51  1  0
 22 52  1  0
 24 53  1  0
 24 54  1  0
 25 55  1  6
 26 56  1  0
 26 57  1  0
 27 58  1  0
 27 59  1  0
 28 60  1  0
 28 61  1  0
 29 62  1  0
 30 63  1  0
 30 64  1  0
 31 65  1  0
 31 66  1  0
 33 67  1  0
 34 68  1  0
 35 69  1  0
 36 70  1  0
M  END
>  <smiles>  (89) 
O=C(c1cc2c(-c3ccccn3)cccc2[nH]1)N1C[C@]2(CCN(CC3CCCNC3)C2)c2ccccc21

>  <score_type>  (89) 
oracle

>  <origin>  (89) 
autodockgpu

>  <m_score__min__energy>  (89) 
-9.9199999999999999

>  <m_primary>  (89) 
energy

>  <rmsd>  (89) 
2.8021018992117646

>  <m_score__min__rmsd>  (89) 
2.8021018992117646

>  <meeko>  (89) 
{"free_energy": -9.39, "intermolecular_energy": -10.88, "internal_energy": -2.22, "cluster_size": 13, "cluster_id": 3, "rank_in_cluster": 11}

>  <energy>  (89) 
-8.57

>  <cluster_rmsd>  (89) 
0.61

>  <cluster>  (89) 
10

$$$$

     RDKit          3D

 70 76  0  0  1  0  0  0  0  0999 V2000
  137.8610   75.4610  221.9450 O   0  0  0  0  0  0  0  0  0  0  0  0
  137.3380   76.3840  222.6280 C   0  0  0  0  0  0  0  0  0  0  0  0
  136.2980   76.0020  223.5650 C   0  0  0  0  0  0  0  0  0  0  0  0
  135.4510   76.8450  224.2490 C   0  0  0  0  0  0  0  0  0  0  0  0
  134.6320   76.0670  225.0210 C   0  0  0  0  0  0  0  0  0  0  0  0
  133.6280   76.3600  225.9050 C   0  0  0  0  0  0  0  0  0  0  0  0
  133.1500   77.6570  226.2730 C   0  0  0  0  0  0  0  0  0  0  0  0
  132.5090   78.0370  227.4170 C   0  0  0  0  0  0  0  0  0  0  0  0
  132.1400   79.3700  227.6660 C   0  0  0  0  0  0  0  0  0  0  0  0
  132.4210   80.3510  226.7430 C   0  0  0  0  0  0  0  0  0  0  0  0
  133.0710   79.9470  225.5920 C   0  0  0  0  0  0  0  0  0  0  0  0
  133.4030   78.6730  225.3930 N   0  0  0  0  0  0  0  0  0  0  0  0
  133.0360   75.2590  226.5320 C   0  0  0  0  0  0  0  0  0  0  0  0
  133.4200   73.9640  226.2890 C   0  0  0  0  0  0  0  0  0  0  0  0
  134.4210   73.6830  225.4030 C   0  0  0  0  0  0  0  0  0  0  0  0
  135.0250   74.7610  224.7690 C   0  0  0  0  0  0  0  0  0  0  0  0
  136.0330   74.7260  223.8870 N   0  0  0  0  0  0  0  0  0  0  0  0
  137.7550   77.7320  222.4790 N   0  0  0  0  0  0  0  0  0  0  0  0
  136.8590   78.8700  222.2160 C   0  0  0  0  0  0  0  0  0  0  0  0
  137.5440   79.9930  222.9750 C   0  0  1  0  0  0  0  0  0  0  0  0
  137.3430   81.3290  222.2980 C   0  0  0  0  0  0  0  0  0  0  0  0
  137.2660   82.2740  223.4650 C   0  0  0  0  0  0  0  0  0  0  0  0
  136.6370   81.5450  224.5430 N   0  0  0  0  0  0  0  0  0  0  0  0
  137.1810   81.9980  225.7960 C   0  0  0  0  0  0  0  0  0  0  0  0
  136.1140   82.3740  226.7830 C   0  0  1  0  0  0  0  0  0  0  0  0
  136.2250   81.6420  228.1050 C   0  0  0  0  0  0  0  0  0  0  0  0
  134.8340   81.7050  228.7250 C   0  0  0  0  0  0  0  0  0  0  0  0
  134.3080   83.1090  228.4550 C   0  0  0  0  0  0  0  0  0  0  0  0
  135.3970   84.0560  228.3230 N   0  0  0  0  0  0  0  0  0  0  0  0
  136.1870   83.8530  227.1290 C   0  0  0  0  0  0  0  0  0  0  0  0
  137.0560   80.1500  224.3720 C   0  0  0  0  0  0  0  0  0  0  0  0
  138.9890   79.6500  222.8630 C   0  0  0  0  0  0  0  0  0  0  0  0
  140.1760   80.3300  222.9760 C   0  0  0  0  0  0  0  0  0  0  0  0
  141.4050   79.7170  222.7970 C   0  0  0  0  0  0  0  0  0  0  0  0
  141.4830   78.3820  222.4920 C   0  0  0  0  0  0  0  0  0  0  0  0
  140.2960   77.6890  222.3750 C   0  0  0  0  0  0  0  0  0  0  0  0
  139.0610   78.2980  222.5550 C   0  0  0  0  0  0  0  0  0  0  0  0
  135.4356   77.9431  224.1862 H   0  0  0  0  0  0  0  0  0  0  0  0
  132.2728   77.2720  228.1713 H   0  0  0  0  0  0  0  0  0  0  0  0
  131.6246   79.6301  228.6023 H   0  0  0  0  0  0  0  0  0  0  0  0
  132.1429   81.4017  226.9122 H   0  0  0  0  0  0  0  0  0  0  0  0
  133.3194   80.6941  224.8238 H   0  0  0  0  0  0  0  0  0  0  0  0
  132.2252   75.4393  227.2532 H   0  0  0  0  0  0  0  0  0  0  0  0
  132.9146   73.1407  226.8151 H   0  0  0  0  0  0  0  0  0  0  0  0
  134.7349   72.6484  225.2006 H   0  0  0  0  0  0  0  0  0  0  0  0
  136.5250   73.8800  223.5130 H   0  0  0  0  0  0  0  0  0  0  0  0
  136.8004   79.0923  221.1403 H   0  0  0  0  0  0  0  0  0  0  0  0
  135.8180   78.6958  222.5258 H   0  0  0  0  0  0  0  0  0  0  0  0
  138.1915   81.5746  221.6424 H   0  0  0  0  0  0  0  0  0  0  0  0
  136.4576   81.3626  221.6461 H   0  0  0  0  0  0  0  0  0  0  0  0
  138.2756   82.5947  223.7615 H   0  0  0  0  0  0  0  0  0  0  0  0
  136.6930   83.1771  223.2082 H   0  0  0  0  0  0  0  0  0  0  0  0
  137.7924   81.1917  226.2274 H   0  0  0  0  0  0  0  0  0  0  0  0
  137.7819   82.8970  225.5943 H   0  0  0  0  0  0  0  0  0  0  0  0
  135.1727   82.1035  226.2822 H   0  0  0  0  0  0  0  0  0  0  0  0
  136.5257   80.5966  227.9413 H   0  0  0  0  0  0  0  0  0  0  0  0
  136.9839   82.0956  228.7595 H   0  0  0  0  0  0  0  0  0  0  0  0
  134.1758   80.9560  228.2605 H   0  0  0  0  0  0  0  0  0  0  0  0
  134.8673   81.4914  229.8035 H   0  0  0  0  0  0  0  0  0  0  0  0
  133.7235   83.1010  227.5232 H   0  0  0  0  0  0  0  0  0  0  0  0
  133.6780   83.4159  229.3029 H   0  0  0  0  0  0  0  0  0  0  0  0
  135.9660   84.0330  229.2050 H   0  0  0  0  0  0  0  0  0  0  0  0
  135.7800   84.4534  226.3020 H   0  0  0  0  0  0  0  0  0  0  0  0
  137.2294   84.1626  227.2950 H   0  0  0  0  0  0  0  0  0  0  0  0
  137.8634   79.9117  225.0800 H   0  0  0  0  0  0  0  0  0  0  0  0
  136.2147   79.4682  224.5655 H   0  0  0  0  0  0  0  0  0  0  0  0
  140.1501   81.4028  223.2179 H   0  0  0  0  0  0  0  0  0  0  0  0
  142.3278   80.3067  222.9005 H   0  0  0  0  0  0  0  0  0  0  0  0
  142.4530   77.8840  222.3466 H   0  0  0  0  0  0  0  0  0  0  0  0
  140.3289   76.6170  222.1307 H   0  0  0  0  0  0  0  0  0  0  0  0
  1  2  2  0
  2  3  1  0
  3  4  2  0
  4  5  1  0
  5  6  2  0
  6  7  1  0
  7  8  2  0
  8  9  1  0
  9 10  2  0
 10 11  1  0
 11 12  2  0
  6 13  1  0
 13 14  2  0
 14 15  1  0
 15 16  2  0
 16 17  1  0
  2 18  1  0
 18 19  1  0
 20 19  1  6
 20 21  1  0
 21 22  1  0
 22 23  1  0
 23 24  1  0
 24 25  1  0
 25 26  1  0
 26 27  1  0
 27 28  1  0
 28 29  1  0
 29 30  1  0
 23 31  1  0
 20 32  1  0
 32 33  2  0
 33 34  1  0
 34 35  2  0
 35 36  1  0
 36 37  2  0
 17  3  1  0
 37 18  1  0
 16  5  1  0
 31 20  1  0
 37 32  1  0
 12  7  1  0
 30 25  1  0
  4 38  1  0
  8 39  1  0
  9 40  1  0
 10 41  1  0
 11 42  1  0
 13 43  1  0
 14 44  1  0
 15 45  1  0
 17 46  1  0
 19 47  1  0
 19 48  1  0
 21 49  1  0
 21 50  1  0
 22 51  1  0
 22 52  1  0
 24 53  1  0
 24 54  1  0
 25 55  1  6
 26 56  1  0
 26 57  1  0
 27 58  1  0
 27 59  1  0
 28 60  1  0
 28 61  1  0
 29 62  1  0
 30 63  1  0
 30 64  1  0
 31 65  1  0
 31 66  1  0
 33 67  1  0
 34 68  1  0
 35 69  1  0
 36 70  1  0
M  END
>  <smiles>  (90) 
O=C(c1cc2c(-c3ccccn3)cccc2[nH]1)N1C[C@]2(CCN(CC3CCCNC3)C2)c2ccccc21

>  <score_type>  (90) 
oracle

>  <origin>  (90) 
autodockgpu

>  <m_score__min__energy>  (90) 
-9.9199999999999999

>  <m_primary>  (90) 
energy

>  <rmsd>  (90) 
8.570464310267434

>  <m_score__min__rmsd>  (90) 
8.570464310267434

>  <meeko>  (90) 
{"free_energy": -8.45, "intermolecular_energy": -9.94, "internal_energy": -2.6, "cluster_size": 2, "cluster_id": 11, "rank_in_cluster": 1}

>  <energy>  (90) 
-8.45

>  <cluster_rmsd>  (90) 
0.0

>  <cluster>  (90) 
11

$$$$

     RDKit          3D

 70 76  0  0  1  0  0  0  0  0999 V2000
  139.6970   72.2910  219.4140 O   0  0  0  0  0  0  0  0  0  0  0  0
  140.3870   72.2460  220.4680 C   0  0  0  0  0  0  0  0  0  0  0  0
  139.8700   71.4460  221.5610 C   0  0  0  0  0  0  0  0  0  0  0  0
  140.2120   71.5430  222.8930 C   0  0  0  0  0  0  0  0  0  0  0  0
  139.4890   70.6010  223.5720 C   0  0  0  0  0  0  0  0  0  0  0  0
  139.4370   70.2380  224.8920 C   0  0  0  0  0  0  0  0  0  0  0  0
  140.1880   70.7970  225.9730 C   0  0  0  0  0  0  0  0  0  0  0  0
  141.0910   71.8220  225.9450 C   0  0  0  0  0  0  0  0  0  0  0  0
  141.7190   72.3030  227.1060 C   0  0  0  0  0  0  0  0  0  0  0  0
  141.4360   71.7420  228.3300 C   0  0  0  0  0  0  0  0  0  0  0  0
  140.5200   70.7070  228.3390 C   0  0  0  0  0  0  0  0  0  0  0  0
  139.9470   70.2800  227.2160 N   0  0  0  0  0  0  0  0  0  0  0  0
  138.5720   69.1820  225.1930 C   0  0  0  0  0  0  0  0  0  0  0  0
  137.8150   68.5400  224.2440 C   0  0  0  0  0  0  0  0  0  0  0  0
  137.8730   68.9130  222.9310 C   0  0  0  0  0  0  0  0  0  0  0  0
  138.7270   69.9590  222.6080 C   0  0  0  0  0  0  0  0  0  0  0  0
  138.9590   70.4740  221.3930 N   0  0  0  0  0  0  0  0  0  0  0  0
  141.6150   72.9520  220.5710 N   0  0  0  0  0  0  0  0  0  0  0  0
  142.9140   72.3440  220.8980 C   0  0  0  0  0  0  0  0  0  0  0  0
  143.8740   73.1870  220.0740 C   0  0  1  0  0  0  0  0  0  0  0  0
  145.2150   73.3330  220.7540 C   0  0  0  0  0  0  0  0  0  0  0  0
  146.1650   73.3620  219.5890 C   0  0  0  0  0  0  0  0  0  0  0  0
  145.5970   72.5040  218.5750 N   0  0  0  0  0  0  0  0  0  0  0  0
  145.9360   73.0250  217.2760 C   0  0  0  0  0  0  0  0  0  0  0  0
  144.8310   73.8500  216.6820 C   0  0  1  0  0  0  0  0  0  0  0  0
  145.3180   75.1020  215.9820 C   0  0  0  0  0  0  0  0  0  0  0  0
  144.1200   76.0440  215.9510 C   0  0  0  0  0  0  0  0  0  0  0  0
  142.9060   75.1830  215.6260 C   0  0  0  0  0  0  0  0  0  0  0  0
  143.2890   74.0120  214.8630 N   0  0  0  0  0  0  0  0  0  0  0  0
  144.0690   73.0640  215.6260 C   0  0  0  0  0  0  0  0  0  0  0  0
  144.1430   72.6290  218.7210 C   0  0  0  0  0  0  0  0  0  0  0  0
  143.2290   74.5290  220.0680 C   0  0  0  0  0  0  0  0  0  0  0  0
  143.6420   75.8200  219.8500 C   0  0  0  0  0  0  0  0  0  0  0  0
  142.7790   76.9010  219.9310 C   0  0  0  0  0  0  0  0  0  0  0  0
  141.4550   76.7190  220.2400 C   0  0  0  0  0  0  0  0  0  0  0  0
  141.0300   75.4250  220.4610 C   0  0  0  0  0  0  0  0  0  0  0  0
  141.8900   74.3370  220.3800 C   0  0  0  0  0  0  0  0  0  0  0  0
  140.9340   72.2486  223.3298 H   0  0  0  0  0  0  0  0  0  0  0  0
  141.3351   72.2873  224.9786 H   0  0  0  0  0  0  0  0  0  0  0  0
  142.4396   73.1312  227.0362 H   0  0  0  0  0  0  0  0  0  0  0  0
  141.9143   72.0989  229.2541 H   0  0  0  0  0  0  0  0  0  0  0  0
  140.2592   70.2264  229.2935 H   0  0  0  0  0  0  0  0  0  0  0  0
  138.4941   68.8498  226.2387 H   0  0  0  0  0  0  0  0  0  0  0  0
  137.1532   67.7145  224.5450 H   0  0  0  0  0  0  0  0  0  0  0  0
  137.2695   68.4067  222.1632 H   0  0  0  0  0  0  0  0  0  0  0  0
  138.5260   70.1860  220.4840 H   0  0  0  0  0  0  0  0  0  0  0  0
  143.1335   72.4240  221.9729 H   0  0  0  0  0  0  0  0  0  0  0  0
  142.9679   71.2676  220.6778 H   0  0  0  0  0  0  0  0  0  0  0  0
  145.2678   74.2661  221.3341 H   0  0  0  0  0  0  0  0  0  0  0  0
  145.4307   72.5332  221.4778 H   0  0  0  0  0  0  0  0  0  0  0  0
  146.2652   74.3882  219.2059 H   0  0  0  0  0  0  0  0  0  0  0  0
  147.1674   73.0188  219.8846 H   0  0  0  0  0  0  0  0  0  0  0  0
  146.8337   73.6536  217.3711 H   0  0  0  0  0  0  0  0  0  0  0  0
  146.1111   72.1692  216.6075 H   0  0  0  0  0  0  0  0  0  0  0  0
  144.2016   74.1211  217.5425 H   0  0  0  0  0  0  0  0  0  0  0  0
  146.1496   75.5560  216.5409 H   0  0  0  0  0  0  0  0  0  0  0  0
  145.6922   74.8845  214.9707 H   0  0  0  0  0  0  0  0  0  0  0  0
  143.9917   76.5290  216.9299 H   0  0  0  0  0  0  0  0  0  0  0  0
  144.2568   76.8397  215.2039 H   0  0  0  0  0  0  0  0  0  0  0  0
  142.4315   74.8613  216.5648 H   0  0  0  0  0  0  0  0  0  0  0  0
  142.2044   75.7793  215.0242 H   0  0  0  0  0  0  0  0  0  0  0  0
  143.7680   74.3300  213.9840 H   0  0  0  0  0  0  0  0  0  0  0  0
  143.4047   72.3319  216.1083 H   0  0  0  0  0  0  0  0  0  0  0  0
  144.7635   72.5160  214.9723 H   0  0  0  0  0  0  0  0  0  0  0  0
  143.7452   73.3055  217.9502 H   0  0  0  0  0  0  0  0  0  0  0  0
  143.6568   71.6493  218.6030 H   0  0  0  0  0  0  0  0  0  0  0  0
  144.6978   76.0031  219.6017 H   0  0  0  0  0  0  0  0  0  0  0  0
  143.1598   77.9162  219.7455 H   0  0  0  0  0  0  0  0  0  0  0  0
  140.7608   77.5695  220.3088 H   0  0  0  0  0  0  0  0  0  0  0  0
  139.9732   75.2487  220.7100 H   0  0  0  0  0  0  0  0  0  0  0  0
  1  2  2  0
  2  3  1  0
  3  4  2  0
  4  5  1  0
  5  6  2  0
  6  7  1  0
  7  8  2  0
  8  9  1  0
  9 10  2  0
 10 11  1  0
 11 12  2  0
  6 13  1  0
 13 14  2  0
 14 15  1  0
 15 16  2  0
 16 17  1  0
  2 18  1  0
 18 19  1  0
 20 19  1  1
 20 21  1  0
 21 22  1  0
 22 23  1  0
 23 24  1  0
 24 25  1  0
 25 26  1  0
 26 27  1  0
 27 28  1  0
 28 29  1  0
 29 30  1  0
 23 31  1  0
 20 32  1  0
 32 33  2  0
 33 34  1  0
 34 35  2  0
 35 36  1  0
 36 37  2  0
 17  3  1  0
 37 18  1  0
 16  5  1  0
 31 20  1  0
 37 32  1  0
 12  7  1  0
 30 25  1  0
  4 38  1  0
  8 39  1  0
  9 40  1  0
 10 41  1  0
 11 42  1  0
 13 43  1  0
 14 44  1  0
 15 45  1  0
 17 46  1  0
 19 47  1  0
 19 48  1  0
 21 49  1  0
 21 50  1  0
 22 51  1  0
 22 52  1  0
 24 53  1  0
 24 54  1  0
 25 55  1  1
 26 56  1  0
 26 57  1  0
 27 58  1  0
 27 59  1  0
 28 60  1  0
 28 61  1  0
 29 62  1  0
 30 63  1  0
 30 64  1  0
 31 65  1  0
 31 66  1  0
 33 67  1  0
 34 68  1  0
 35 69  1  0
 36 70  1  0
M  END
>  <smiles>  (91) 
O=C(c1cc2c(-c3ccccn3)cccc2[nH]1)N1C[C@]2(CCN(CC3CCCNC3)C2)c2ccccc21

>  <score_type>  (91) 
oracle

>  <origin>  (91) 
autodockgpu

>  <m_score__min__energy>  (91) 
-9.9199999999999999

>  <m_primary>  (91) 
energy

>  <rmsd>  (91) 
5.419358813870463

>  <m_score__min__rmsd>  (91) 
5.419358813870463

>  <meeko>  (91) 
{"free_energy": -8.79, "intermolecular_energy": -10.28, "internal_energy": -2.27, "cluster_size": 1, "cluster_id": 9, "rank_in_cluster": 1}

>  <energy>  (91) 
-8.21

>  <cluster_rmsd>  (91) 
0.61

>  <cluster>  (91) 
11

$$$$

     RDKit          3D

 70 76  0  0  1  0  0  0  0  0999 V2000
  141.3230   70.1870  219.6930 O   0  0  0  0  0  0  0  0  0  0  0  0
  140.9370   71.2170  220.3090 C   0  0  0  0  0  0  0  0  0  0  0  0
  139.8910   71.0400  221.2980 C   0  0  0  0  0  0  0  0  0  0  0  0
  140.0200   70.4670  222.5450 C   0  0  0  0  0  0  0  0  0  0  0  0
  138.7900   70.5030  223.1420 C   0  0  0  0  0  0  0  0  0  0  0  0
  138.3290   70.0660  224.3560 C   0  0  0  0  0  0  0  0  0  0  0  0
  139.0790   69.4080  225.3810 C   0  0  0  0  0  0  0  0  0  0  0  0
  139.9150   69.9570  226.3120 C   0  0  0  0  0  0  0  0  0  0  0  0
  140.5500   69.1860  227.3000 C   0  0  0  0  0  0  0  0  0  0  0  0
  140.3440   67.8270  227.3580 C   0  0  0  0  0  0  0  0  0  0  0  0
  139.4950   67.2900  226.4080 C   0  0  0  0  0  0  0  0  0  0  0  0
  138.9120   68.0550  225.4880 N   0  0  0  0  0  0  0  0  0  0  0  0
  136.9650   70.2650  224.5900 C   0  0  0  0  0  0  0  0  0  0  0  0
  136.1270   70.8580  223.6780 C   0  0  0  0  0  0  0  0  0  0  0  0
  136.5990   71.2930  222.4720 C   0  0  0  0  0  0  0  0  0  0  0  0
  137.9510   71.1050  222.2160 C   0  0  0  0  0  0  0  0  0  0  0  0
  138.6210   71.4290  221.1020 N   0  0  0  0  0  0  0  0  0  0  0  0
  141.5060   72.4890  220.0390 N   0  0  0  0  0  0  0  0  0  0  0  0
  140.7650   73.6570  219.5350 C   0  0  0  0  0  0  0  0  0  0  0  0
  141.4850   74.8070  220.2190 C   0  0  1  0  0  0  0  0  0  0  0  0
  141.4940   76.0500  219.3600 C   0  0  0  0  0  0  0  0  0  0  0  0
  141.4010   77.1490  220.3830 C   0  0  0  0  0  0  0  0  0  0  0  0
  140.5940   76.6340  221.4660 N   0  0  0  0  0  0  0  0  0  0  0  0
  141.0550   77.2030  222.7050 C   0  0  0  0  0  0  0  0  0  0  0  0
  141.0920   78.7030  222.6710 C   0  0  1  0  0  0  0  0  0  0  0  0
  140.1130   79.3570  223.6250 C   0  0  0  0  0  0  0  0  0  0  0  0
  139.8880   80.7620  223.0790 C   0  0  0  0  0  0  0  0  0  0  0  0
  141.2510   81.2660  222.6200 C   0  0  0  0  0  0  0  0  0  0  0  0
  142.3180   80.6330  223.3680 N   0  0  0  0  0  0  0  0  0  0  0  0
  142.4630   79.2240  223.0740 C   0  0  0  0  0  0  0  0  0  0  0  0
  140.8800   75.1970  221.5210 C   0  0  0  0  0  0  0  0  0  0  0  0
  142.8900   74.3210  220.3140 C   0  0  0  0  0  0  0  0  0  0  0  0
  144.1240   74.9000  220.4730 C   0  0  0  0  0  0  0  0  0  0  0  0
  145.2940   74.1580  220.5130 C   0  0  0  0  0  0  0  0  0  0  0  0
  145.2620   72.7930  220.3900 C   0  0  0  0  0  0  0  0  0  0  0  0
  144.0260   72.2020  220.2290 C   0  0  0  0  0  0  0  0  0  0  0  0
  142.8500   72.9390  220.1900 C   0  0  0  0  0  0  0  0  0  0  0  0
  140.9429   70.0561  222.9802 H   0  0  0  0  0  0  0  0  0  0  0  0
  140.0974   71.0415  226.2870 H   0  0  0  0  0  0  0  0  0  0  0  0
  141.2146   69.6709  228.0302 H   0  0  0  0  0  0  0  0  0  0  0  0
  140.8295   67.2002  228.1205 H   0  0  0  0  0  0  0  0  0  0  0  0
  139.2972   66.2079  226.4126 H   0  0  0  0  0  0  0  0  0  0  0  0
  136.5434   69.9309  225.5495 H   0  0  0  0  0  0  0  0  0  0  0  0
  135.0618   70.9844  223.9216 H   0  0  0  0  0  0  0  0  0  0  0  0
  135.9367   71.7715  221.7355 H   0  0  0  0  0  0  0  0  0  0  0  0
  138.2440   71.8930  220.2430 H   0  0  0  0  0  0  0  0  0  0  0  0
  140.8378   73.7345  218.4402 H   0  0  0  0  0  0  0  0  0  0  0  0
  139.6858   73.6219  219.7448 H   0  0  0  0  0  0  0  0  0  0  0  0
  142.4246   76.1252  218.7783 H   0  0  0  0  0  0  0  0  0  0  0  0
  140.6866   76.0746  218.6133 H   0  0  0  0  0  0  0  0  0  0  0  0
  142.4041   77.4135  220.7489 H   0  0  0  0  0  0  0  0  0  0  0  0
  140.9552   78.0574  219.9517 H   0  0  0  0  0  0  0  0  0  0  0  0
  140.3786   76.8852  223.5122 H   0  0  0  0  0  0  0  0  0  0  0  0
  142.0822   76.8475  222.8739 H   0  0  0  0  0  0  0  0  0  0  0  0
  140.8310   78.9579  221.6333 H   0  0  0  0  0  0  0  0  0  0  0  0
  139.1663   78.7973  223.6476 H   0  0  0  0  0  0  0  0  0  0  0  0
  140.4987   79.3767  224.6550 H   0  0  0  0  0  0  0  0  0  0  0  0
  139.1873   80.7336  222.2315 H   0  0  0  0  0  0  0  0  0  0  0  0
  139.4540   81.4232  223.8435 H   0  0  0  0  0  0  0  0  0  0  0  0
  141.3772   81.0387  221.5512 H   0  0  0  0  0  0  0  0  0  0  0  0
  141.2991   82.3514  222.7917 H   0  0  0  0  0  0  0  0  0  0  0  0
  142.1710   80.8300  224.3890 H   0  0  0  0  0  0  0  0  0  0  0  0
  143.1768   79.0830  222.2490 H   0  0  0  0  0  0  0  0  0  0  0  0
  142.8441   78.6802  223.9510 H   0  0  0  0  0  0  0  0  0  0  0  0
  141.5839   74.9860  222.3395 H   0  0  0  0  0  0  0  0  0  0  0  0
  139.9572   74.6268  221.7036 H   0  0  0  0  0  0  0  0  0  0  0  0
  144.1869   75.9937  220.5724 H   0  0  0  0  0  0  0  0  0  0  0  0
  146.2587   74.6699  220.6449 H   0  0  0  0  0  0  0  0  0  0  0  0
  146.1840   72.1937  220.4185 H   0  0  0  0  0  0  0  0  0  0  0  0
  143.9701   71.1081  220.1279 H   0  0  0  0  0  0  0  0  0  0  0  0
  1  2  2  0
  2  3  1  0
  3  4  2  0
  4  5  1  0
  5  6  2  0
  6  7  1  0
  7  8  2  0
  8  9  1  0
  9 10  2  0
 10 11  1  0
 11 12  2  0
  6 13  1  0
 13 14  2  0
 14 15  1  0
 15 16  2  0
 16 17  1  0
  2 18  1  0
 18 19  1  0
 20 19  1  6
 20 21  1  0
 21 22  1  0
 22 23  1  0
 23 24  1  0
 24 25  1  0
 25 26  1  0
 26 27  1  0
 27 28  1  0
 28 29  1  0
 29 30  1  0
 23 31  1  0
 20 32  1  0
 32 33  2  0
 33 34  1  0
 34 35  2  0
 35 36  1  0
 36 37  2  0
 17  3  1  0
 37 18  1  0
 16  5  1  0
 31 20  1  0
 37 32  1  0
 12  7  1  0
 30 25  1  0
  4 38  1  0
  8 39  1  0
  9 40  1  0
 10 41  1  0
 11 42  1  0
 13 43  1  0
 14 44  1  0
 15 45  1  0
 17 46  1  0
 19 47  1  0
 19 48  1  0
 21 49  1  0
 21 50  1  0
 22 51  1  0
 22 52  1  0
 24 53  1  0
 24 54  1  0
 25 55  1  6
 26 56  1  0
 26 57  1  0
 27 58  1  0
 27 59  1  0
 28 60  1  0
 28 61  1  0
 29 62  1  0
 30 63  1  0
 30 64  1  0
 31 65  1  0
 31 66  1  0
 33 67  1  0
 34 68  1  0
 35 69  1  0
 36 70  1  0
M  END
>  <smiles>  (92) 
O=C(c1cc2c(-c3ccccn3)cccc2[nH]1)N1C[C@]2(CCN(CC3CCCNC3)C2)c2ccccc21

>  <score_type>  (92) 
oracle

>  <origin>  (92) 
autodockgpu

>  <m_score__min__energy>  (92) 
-9.9199999999999999

>  <m_primary>  (92) 
energy

>  <rmsd>  (92) 
2.964335181560821

>  <m_score__min__rmsd>  (92) 
2.964335181560821

>  <meeko>  (92) 
{"free_energy": -9.66, "intermolecular_energy": -11.15, "internal_energy": -1.67, "cluster_size": 13, "cluster_id": 3, "rank_in_cluster": 2}

>  <energy>  (92) 
-8.14

>  <cluster_rmsd>  (92) 
0.0

>  <cluster>  (92) 
12

$$$$

     RDKit          3D

 70 76  0  0  1  0  0  0  0  0999 V2000
  142.6280   74.7630  220.3080 O   0  0  0  0  0  0  0  0  0  0  0  0
  141.5450   75.0940  220.8610 C   0  0  0  0  0  0  0  0  0  0  0  0
  141.4160   76.4760  221.2820 C   0  0  0  0  0  0  0  0  0  0  0  0
  141.6140   77.5990  220.5090 C   0  0  0  0  0  0  0  0  0  0  0  0
  141.3880   78.6900  221.3020 C   0  0  0  0  0  0  0  0  0  0  0  0
  141.4560   80.0390  221.0750 C   0  0  0  0  0  0  0  0  0  0  0  0
  141.8100   80.6940  219.8540 C   0  0  0  0  0  0  0  0  0  0  0  0
  142.3850   80.1620  218.7360 C   0  0  0  0  0  0  0  0  0  0  0  0
  142.6300   80.9230  217.5800 C   0  0  0  0  0  0  0  0  0  0  0  0
  142.2890   82.2550  217.5430 C   0  0  0  0  0  0  0  0  0  0  0  0
  141.7060   82.7760  218.6830 C   0  0  0  0  0  0  0  0  0  0  0  0
  141.4910   82.0210  219.7590 N   0  0  0  0  0  0  0  0  0  0  0  0
  141.1740   80.8500  222.1780 C   0  0  0  0  0  0  0  0  0  0  0  0
  140.8480   80.3480  223.4140 C   0  0  0  0  0  0  0  0  0  0  0  0
  140.7810   79.0010  223.6270 C   0  0  0  0  0  0  0  0  0  0  0  0
  141.0580   78.1740  222.5470 C   0  0  0  0  0  0  0  0  0  0  0  0
  141.0750   76.8350  222.5300 N   0  0  0  0  0  0  0  0  0  0  0  0
  140.5040   74.1490  221.0590 N   0  0  0  0  0  0  0  0  0  0  0  0
  140.6650   72.6880  220.9900 C   0  0  0  0  0  0  0  0  0  0  0  0
  139.6760   72.2110  222.0390 C   0  0  1  0  0  0  0  0  0  0  0  0
  139.0700   70.8770  221.6710 C   0  0  0  0  0  0  0  0  0  0  0  0
  138.8940   70.2220  223.0130 C   0  0  0  0  0  0  0  0  0  0  0  0
  139.9870   70.6790  223.8400 N   0  0  0  0  0  0  0  0  0  0  0  0
  139.5370   70.7720  225.2040 C   0  0  0  0  0  0  0  0  0  0  0  0
  140.1190   69.6970  226.0760 C   0  0  1  0  0  0  0  0  0  0  0  0
  139.6670   69.7750  227.5200 C   0  0  0  0  0  0  0  0  0  0  0  0
  140.7260   69.0270  228.3210 C   0  0  0  0  0  0  0  0  0  0  0  0
  141.0900   67.7940  227.5020 C   0  0  0  0  0  0  0  0  0  0  0  0
  139.9840   67.3830  226.6610 N   0  0  0  0  0  0  0  0  0  0  0  0
  139.7030   68.3160  225.5930 C   0  0  0  0  0  0  0  0  0  0  0  0
  140.2770   72.0440  223.3910 C   0  0  0  0  0  0  0  0  0  0  0  0
  138.5900   73.2280  221.9710 C   0  0  0  0  0  0  0  0  0  0  0  0
  137.2670   73.2830  222.3330 C   0  0  0  0  0  0  0  0  0  0  0  0
  136.4830   74.4060  222.1200 C   0  0  0  0  0  0  0  0  0  0  0  0
  137.0090   75.5240  221.5260 C   0  0  0  0  0  0  0  0  0  0  0  0
  138.3380   75.4780  221.1570 C   0  0  0  0  0  0  0  0  0  0  0  0
  139.1290   74.3570  221.3690 C   0  0  0  0  0  0  0  0  0  0  0  0
  141.9015   77.6152  219.4474 H   0  0  0  0  0  0  0  0  0  0  0  0
  142.6669   79.0987  218.7400 H   0  0  0  0  0  0  0  0  0  0  0  0
  143.0960   80.4518  216.7020 H   0  0  0  0  0  0  0  0  0  0  0  0
  142.4709   82.8739  216.6520 H   0  0  0  0  0  0  0  0  0  0  0  0
  141.4135   83.8362  218.7019 H   0  0  0  0  0  0  0  0  0  0  0  0
  141.2151   81.9417  222.0499 H   0  0  0  0  0  0  0  0  0  0  0  0
  140.6382   81.0399  224.2430 H   0  0  0  0  0  0  0  0  0  0  0  0
  140.5187   78.5887  224.6125 H   0  0  0  0  0  0  0  0  0  0  0  0
  140.8660   76.1840  223.3240 H   0  0  0  0  0  0  0  0  0  0  0  0
  140.4056   72.3041  219.9924 H   0  0  0  0  0  0  0  0  0  0  0  0
  141.6960   72.3469  221.1651 H   0  0  0  0  0  0  0  0  0  0  0  0
  138.1039   71.0057  221.1611 H   0  0  0  0  0  0  0  0  0  0  0  0
  139.6865   70.2913  220.9732 H   0  0  0  0  0  0  0  0  0  0  0  0
  137.9321   70.5181  223.4570 H   0  0  0  0  0  0  0  0  0  0  0  0
  138.8949   69.1257  222.9233 H   0  0  0  0  0  0  0  0  0  0  0  0
  139.8328   71.7518  225.6070 H   0  0  0  0  0  0  0  0  0  0  0  0
  138.4440   70.6477  225.2046 H   0  0  0  0  0  0  0  0  0  0  0  0
  141.2057   69.8562  226.0139 H   0  0  0  0  0  0  0  0  0  0  0  0
  139.6069   70.8234  227.8476 H   0  0  0  0  0  0  0  0  0  0  0  0
  138.6673   69.3375  227.6581 H   0  0  0  0  0  0  0  0  0  0  0  0
  141.6120   69.6622  228.4675 H   0  0  0  0  0  0  0  0  0  0  0  0
  140.3516   68.7491  229.3173 H   0  0  0  0  0  0  0  0  0  0  0  0
  141.9572   68.0274  226.8669 H   0  0  0  0  0  0  0  0  0  0  0  0
  141.3281   66.9723  228.1934 H   0  0  0  0  0  0  0  0  0  0  0  0
  139.1530   67.1930  227.2750 H   0  0  0  0  0  0  0  0  0  0  0  0
  140.2762   68.0432  224.6946 H   0  0  0  0  0  0  0  0  0  0  0  0
  138.6340   68.3002  225.3340 H   0  0  0  0  0  0  0  0  0  0  0  0
  139.8361   72.7702  224.0897 H   0  0  0  0  0  0  0  0  0  0  0  0
  141.3629   72.2160  223.3548 H   0  0  0  0  0  0  0  0  0  0  0  0
  136.8118   72.4026  222.8101 H   0  0  0  0  0  0  0  0  0  0  0  0
  135.4278   74.4001  222.4308 H   0  0  0  0  0  0  0  0  0  0  0  0
  136.3968   76.4210  221.3507 H   0  0  0  0  0  0  0  0  0  0  0  0
  138.7864   76.3608  220.6779 H   0  0  0  0  0  0  0  0  0  0  0  0
  1  2  2  0
  2  3  1  0
  3  4  2  0
  4  5  1  0
  5  6  2  0
  6  7  1  0
  7  8  2  0
  8  9  1  0
  9 10  2  0
 10 11  1  0
 11 12  2  0
  6 13  1  0
 13 14  2  0
 14 15  1  0
 15 16  2  0
 16 17  1  0
  2 18  1  0
 18 19  1  0
 20 19  1  6
 20 21  1  0
 21 22  1  0
 22 23  1  0
 23 24  1  0
 24 25  1  0
 25 26  1  0
 26 27  1  0
 27 28  1  0
 28 29  1  0
 29 30  1  0
 23 31  1  0
 20 32  1  0
 32 33  2  0
 33 34  1  0
 34 35  2  0
 35 36  1  0
 36 37  2  0
 17  3  1  0
 37 18  1  0
 16  5  1  0
 31 20  1  0
 37 32  1  0
 12  7  1  0
 30 25  1  0
  4 38  1  0
  8 39  1  0
  9 40  1  0
 10 41  1  0
 11 42  1  0
 13 43  1  0
 14 44  1  0
 15 45  1  0
 17 46  1  0
 19 47  1  0
 19 48  1  0
 21 49  1  0
 21 50  1  0
 22 51  1  0
 22 52  1  0
 24 53  1  0
 24 54  1  0
 25 55  1  1
 26 56  1  0
 26 57  1  0
 27 58  1  0
 27 59  1  0
 28 60  1  0
 28 61  1  0
 29 62  1  0
 30 63  1  0
 30 64  1  0
 31 65  1  0
 31 66  1  0
 33 67  1  0
 34 68  1  0
 35 69  1  0
 36 70  1  0
M  END
>  <smiles>  (93) 
O=C(c1cc2c(-c3ccccn3)cccc2[nH]1)N1C[C@]2(CCN(CC3CCCNC3)C2)c2ccccc21

>  <score_type>  (93) 
oracle

>  <origin>  (93) 
autodockgpu

>  <m_score__min__energy>  (93) 
-9.9199999999999999

>  <m_primary>  (93) 
energy

>  <rmsd>  (93) 
11.086436155999817

>  <m_score__min__rmsd>  (93) 
11.086436155999817

>  <meeko>  (93) 
{"free_energy": -9.6, "intermolecular_energy": -11.09, "internal_energy": -1.58, "cluster_size": 3, "cluster_id": 2, "rank_in_cluster": 3}

>  <energy>  (93) 
-8.07

>  <cluster_rmsd>  (93) 
0.44

>  <cluster>  (93) 
12

$$$$

     RDKit          3D

 70 76  0  0  1  0  0  0  0  0999 V2000
  140.3170   74.9230  222.0210 O   0  0  0  0  0  0  0  0  0  0  0  0
  139.9710   76.1340  221.9520 C   0  0  0  0  0  0  0  0  0  0  0  0
  138.6450   76.4690  222.4340 C   0  0  0  0  0  0  0  0  0  0  0  0
  138.1270   77.7320  222.6220 C   0  0  0  0  0  0  0  0  0  0  0  0
  136.8500   77.5870  223.0870 C   0  0  0  0  0  0  0  0  0  0  0  0
  135.8850   78.4850  223.4580 C   0  0  0  0  0  0  0  0  0  0  0  0
  135.9820   79.9120  223.4520 C   0  0  0  0  0  0  0  0  0  0  0  0
  135.1740   80.8210  222.8300 C   0  0  0  0  0  0  0  0  0  0  0  0
  135.3620   82.2070  222.9560 C   0  0  0  0  0  0  0  0  0  0  0  0
  136.3900   82.6990  223.7280 C   0  0  0  0  0  0  0  0  0  0  0  0
  137.1960   81.7660  224.3510 C   0  0  0  0  0  0  0  0  0  0  0  0
  136.9840   80.4590  224.2050 N   0  0  0  0  0  0  0  0  0  0  0  0
  134.6880   77.9280  223.9200 C   0  0  0  0  0  0  0  0  0  0  0  0
  134.4750   76.5750  224.0030 C   0  0  0  0  0  0  0  0  0  0  0  0
  135.4440   75.6890  223.6270 C   0  0  0  0  0  0  0  0  0  0  0  0
  136.6420   76.2180  223.1660 C   0  0  0  0  0  0  0  0  0  0  0  0
  137.7300   75.5450  222.7680 N   0  0  0  0  0  0  0  0  0  0  0  0
  140.8480   77.1170  221.4220 N   0  0  0  0  0  0  0  0  0  0  0  0
  141.3410   77.1510  220.0360 C   0  0  0  0  0  0  0  0  0  0  0  0
  141.4320   78.6440  219.7700 C   0  0  1  0  0  0  0  0  0  0  0  0
  142.5650   78.9760  218.8270 C   0  0  0  0  0  0  0  0  0  0  0  0
  142.0100   80.1420  218.0550 C   0  0  0  0  0  0  0  0  0  0  0  0
  140.5870   79.9180  217.9400 N   0  0  0  0  0  0  0  0  0  0  0  0
  139.9100   81.1880  217.9480 C   0  0  0  0  0  0  0  0  0  0  0  0
  139.7360   81.7370  219.3350 C   0  0  1  0  0  0  0  0  0  0  0  0
  140.4160   83.0740  219.5490 C   0  0  0  0  0  0  0  0  0  0  0  0
  140.6160   83.1930  221.0550 C   0  0  0  0  0  0  0  0  0  0  0  0
  139.3430   82.6590  221.7000 C   0  0  0  0  0  0  0  0  0  0  0  0
  138.2060   82.8220  220.8170 N   0  0  0  0  0  0  0  0  0  0  0  0
  138.2660   81.9740  219.6470 C   0  0  0  0  0  0  0  0  0  0  0  0
  140.1970   79.2160  219.1670 C   0  0  0  0  0  0  0  0  0  0  0  0
  141.7830   79.2070  221.1030 C   0  0  0  0  0  0  0  0  0  0  0  0
  142.3500   80.3690  221.5650 C   0  0  0  0  0  0  0  0  0  0  0  0
  142.5690   80.6070  222.9120 C   0  0  0  0  0  0  0  0  0  0  0  0
  142.2210   79.6720  223.8530 C   0  0  0  0  0  0  0  0  0  0  0  0
  141.6500   78.5010  223.4000 C   0  0  0  0  0  0  0  0  0  0  0  0
  141.4270   78.2570  222.0510 C   0  0  0  0  0  0  0  0  0  0  0  0
  138.6463   78.6830  222.4325 H   0  0  0  0  0  0  0  0  0  0  0  0
  134.3451   80.4536  222.2072 H   0  0  0  0  0  0  0  0  0  0  0  0
  134.6857   82.9016  222.4362 H   0  0  0  0  0  0  0  0  0  0  0  0
  136.5609   83.7795  223.8429 H   0  0  0  0  0  0  0  0  0  0  0  0
  138.0301   82.1094  224.9806 H   0  0  0  0  0  0  0  0  0  0  0  0
  133.8798   78.6062  224.2313 H   0  0  0  0  0  0  0  0  0  0  0  0
  133.5113   76.1991  224.3772 H   0  0  0  0  0  0  0  0  0  0  0  0
  135.2822   74.6026  223.6869 H   0  0  0  0  0  0  0  0  0  0  0  0
  137.8570   74.5070  222.7220 H   0  0  0  0  0  0  0  0  0  0  0  0
  142.3260   76.6689  219.9502 H   0  0  0  0  0  0  0  0  0  0  0  0
  140.6994   76.6118  219.3236 H   0  0  0  0  0  0  0  0  0  0  0  0
  143.4727   79.2602  219.3796 H   0  0  0  0  0  0  0  0  0  0  0  0
  142.8695   78.1320  218.1907 H   0  0  0  0  0  0  0  0  0  0  0  0
  142.2045   81.0813  218.5933 H   0  0  0  0  0  0  0  0  0  0  0  0
  142.4811   80.2236  217.0644 H   0  0  0  0  0  0  0  0  0  0  0  0
  140.4976   81.9049  217.3558 H   0  0  0  0  0  0  0  0  0  0  0  0
  138.9081   81.0359  217.5201 H   0  0  0  0  0  0  0  0  0  0  0  0
  140.1900   80.9766  219.9875 H   0  0  0  0  0  0  0  0  0  0  0  0
  141.3852   83.0999  219.0293 H   0  0  0  0  0  0  0  0  0  0  0  0
  139.8161   83.9053  219.1502 H   0  0  0  0  0  0  0  0  0  0  0  0
  141.4832   82.5953  221.3723 H   0  0  0  0  0  0  0  0  0  0  0  0
  140.8072   84.2349  221.3514 H   0  0  0  0  0  0  0  0  0  0  0  0
  139.4743   81.5901  221.9239 H   0  0  0  0  0  0  0  0  0  0  0  0
  139.1537   83.2257  222.6236 H   0  0  0  0  0  0  0  0  0  0  0  0
  138.1090   83.8420  220.5850 H   0  0  0  0  0  0  0  0  0  0  0  0
  137.7651   81.0160  219.8504 H   0  0  0  0  0  0  0  0  0  0  0  0
  137.7588   82.4498  218.7947 H   0  0  0  0  0  0  0  0  0  0  0  0
  139.7282   79.9208  219.8695 H   0  0  0  0  0  0  0  0  0  0  0  0
  139.4719   78.4198  218.9428 H   0  0  0  0  0  0  0  0  0  0  0  0
  142.6416   81.1408  220.8374 H   0  0  0  0  0  0  0  0  0  0  0  0
  143.0266   81.5554  223.2300 H   0  0  0  0  0  0  0  0  0  0  0  0
  142.3903   79.8487  224.9254 H   0  0  0  0  0  0  0  0  0  0  0  0
  141.3611   77.7333  224.1329 H   0  0  0  0  0  0  0  0  0  0  0  0
  1  2  2  0
  2  3  1  0
  3  4  2  0
  4  5  1  0
  5  6  2  0
  6  7  1  0
  7  8  2  0
  8  9  1  0
  9 10  2  0
 10 11  1  0
 11 12  2  0
  6 13  1  0
 13 14  2  0
 14 15  1  0
 15 16  2  0
 16 17  1  0
  2 18  1  0
 18 19  1  0
 20 19  1  1
 20 21  1  0
 21 22  1  0
 22 23  1  0
 23 24  1  0
 24 25  1  0
 25 26  1  0
 26 27  1  0
 27 28  1  0
 28 29  1  0
 29 30  1  0
 23 31  1  0
 20 32  1  0
 32 33  2  0
 33 34  1  0
 34 35  2  0
 35 36  1  0
 36 37  2  0
 17  3  1  0
 37 18  1  0
 16  5  1  0
 31 20  1  0
 37 32  1  0
 12  7  1  0
 30 25  1  0
  4 38  1  0
  8 39  1  0
  9 40  1  0
 10 41  1  0
 11 42  1  0
 13 43  1  0
 14 44  1  0
 15 45  1  0
 17 46  1  0
 19 47  1  0
 19 48  1  0
 21 49  1  0
 21 50  1  0
 22 51  1  0
 22 52  1  0
 24 53  1  0
 24 54  1  0
 25 55  1  1
 26 56  1  0
 26 57  1  0
 27 58  1  0
 27 59  1  0
 28 60  1  0
 28 61  1  0
 29 62  1  0
 30 63  1  0
 30 64  1  0
 31 65  1  0
 31 66  1  0
 33 67  1  0
 34 68  1  0
 35 69  1  0
 36 70  1  0
M  END
>  <smiles>  (94) 
O=C(c1cc2c(-c3ccccn3)cccc2[nH]1)N1C[C@]2(CCN(CC3CCCNC3)C2)c2ccccc21

>  <score_type>  (94) 
oracle

>  <origin>  (94) 
autodockgpu

>  <m_score__min__energy>  (94) 
-9.9199999999999999

>  <m_primary>  (94) 
energy

>  <rmsd>  (94) 
7.829762262485297

>  <m_score__min__rmsd>  (94) 
7.829762262485297

>  <meeko>  (94) 
{"free_energy": -7.45, "intermolecular_energy": -8.95, "internal_energy": -3.42, "cluster_size": 7, "cluster_id": 13, "rank_in_cluster": 1}

>  <energy>  (94) 
-7.45

>  <cluster_rmsd>  (94) 
0.0

>  <cluster>  (94) 
13

$$$$

     RDKit          3D

 70 76  0  0  1  0  0  0  0  0999 V2000
  142.1990   72.7610  221.5380 O   0  0  0  0  0  0  0  0  0  0  0  0
  141.0110   73.1660  221.6590 C   0  0  0  0  0  0  0  0  0  0  0  0
  140.0960   72.3130  222.3940 C   0  0  0  0  0  0  0  0  0  0  0  0
  140.3280   71.7030  223.6080 C   0  0  0  0  0  0  0  0  0  0  0  0
  139.2040   70.9950  223.9330 C   0  0  0  0  0  0  0  0  0  0  0  0
  138.8810   70.1950  224.9970 C   0  0  0  0  0  0  0  0  0  0  0  0
  139.7050   69.8750  226.1210 C   0  0  0  0  0  0  0  0  0  0  0  0
  140.3480   70.7230  226.9780 C   0  0  0  0  0  0  0  0  0  0  0  0
  141.0880   70.2620  228.0800 C   0  0  0  0  0  0  0  0  0  0  0  0
  141.1880   68.9140  228.3320 C   0  0  0  0  0  0  0  0  0  0  0  0
  140.5300   68.0710  227.4560 C   0  0  0  0  0  0  0  0  0  0  0  0
  139.8390   68.5480  226.4220 N   0  0  0  0  0  0  0  0  0  0  0  0
  137.6120   69.6110  224.9480 C   0  0  0  0  0  0  0  0  0  0  0  0
  136.7330   69.8140  223.9130 C   0  0  0  0  0  0  0  0  0  0  0  0
  137.0660   70.6160  222.8590 C   0  0  0  0  0  0  0  0  0  0  0  0
  138.3220   71.2070  222.8840 C   0  0  0  0  0  0  0  0  0  0  0  0
  138.8660   72.0050  221.9560 N   0  0  0  0  0  0  0  0  0  0  0  0
  140.5960   74.4020  221.0970 N   0  0  0  0  0  0  0  0  0  0  0  0
  139.2120   74.9010  221.0820 C   0  0  0  0  0  0  0  0  0  0  0  0
  139.4160   76.4000  221.2250 C   0  0  1  0  0  0  0  0  0  0  0  0
  138.3500   77.1810  220.4930 C   0  0  0  0  0  0  0  0  0  0  0  0
  138.1710   78.3870  221.3750 C   0  0  0  0  0  0  0  0  0  0  0  0
  138.3910   77.9390  222.7310 N   0  0  0  0  0  0  0  0  0  0  0  0
  138.9870   79.0090  223.4870 C   0  0  0  0  0  0  0  0  0  0  0  0
  140.3010   79.4560  222.9140 C   0  0  1  0  0  0  0  0  0  0  0  0
  140.4070   80.9570  222.7380 C   0  0  0  0  0  0  0  0  0  0  0  0
  141.4880   81.1700  221.6850 C   0  0  0  0  0  0  0  0  0  0  0  0
  142.5920   80.1680  221.9970 C   0  0  0  0  0  0  0  0  0  0  0  0
  142.6090   79.8340  223.4060 N   0  0  0  0  0  0  0  0  0  0  0  0
  141.4550   79.0700  223.8260 C   0  0  0  0  0  0  0  0  0  0  0  0
  139.3920   76.8710  222.6360 C   0  0  0  0  0  0  0  0  0  0  0  0
  140.7060   76.6380  220.5190 C   0  0  0  0  0  0  0  0  0  0  0  0
  141.3330   77.7170  219.9470 C   0  0  0  0  0  0  0  0  0  0  0  0
  142.5700   77.6180  219.3310 C   0  0  0  0  0  0  0  0  0  0  0  0
  143.2260   76.4160  219.2670 C   0  0  0  0  0  0  0  0  0  0  0  0
  142.6040   75.3250  219.8380 C   0  0  0  0  0  0  0  0  0  0  0  0
  141.3650   75.4170  220.4580 C   0  0  0  0  0  0  0  0  0  0  0  0
  141.2486   71.7729  224.2060 H   0  0  0  0  0  0  0  0  0  0  0  0
  140.2840   71.8064  226.7987 H   0  0  0  0  0  0  0  0  0  0  0  0
  141.5891   70.9822  228.7435 H   0  0  0  0  0  0  0  0  0  0  0  0
  141.7620   68.5264  229.1866 H   0  0  0  0  0  0  0  0  0  0  0  0
  140.5781   66.9838  227.6162 H   0  0  0  0  0  0  0  0  0  0  0  0
  137.3031   68.9581  225.7776 H   0  0  0  0  0  0  0  0  0  0  0  0
  135.7481   69.3245  223.9330 H   0  0  0  0  0  0  0  0  0  0  0  0
  136.3686   70.7865  222.0256 H   0  0  0  0  0  0  0  0  0  0  0  0
  138.4300   72.3330  221.0620 H   0  0  0  0  0  0  0  0  0  0  0  0
  138.7084   74.6545  220.1356 H   0  0  0  0  0  0  0  0  0  0  0  0
  138.5739   74.4633  221.8638 H   0  0  0  0  0  0  0  0  0  0  0  0
  138.6885   77.4702  219.4871 H   0  0  0  0  0  0  0  0  0  0  0  0
  137.4220   76.6131  220.3309 H   0  0  0  0  0  0  0  0  0  0  0  0
  138.9017   79.1648  221.1083 H   0  0  0  0  0  0  0  0  0  0  0  0
  137.1671   78.8210  221.2571 H   0  0  0  0  0  0  0  0  0  0  0  0
  138.2955   79.8645  223.4928 H   0  0  0  0  0  0  0  0  0  0  0  0
  139.1761   78.6346  224.5039 H   0  0  0  0  0  0  0  0  0  0  0  0
  140.3534   78.9586  221.9343 H   0  0  0  0  0  0  0  0  0  0  0  0
  139.4483   81.3720  222.3937 H   0  0  0  0  0  0  0  0  0  0  0  0
  140.6544   81.4616  223.6836 H   0  0  0  0  0  0  0  0  0  0  0  0
  141.0813   80.9878  220.6793 H   0  0  0  0  0  0  0  0  0  0  0  0
  141.8676   82.2022  221.7048 H   0  0  0  0  0  0  0  0  0  0  0  0
  142.4215   79.2519  221.4125 H   0  0  0  0  0  0  0  0  0  0  0  0
  143.5594   80.6201  221.7331 H   0  0  0  0  0  0  0  0  0  0  0  0
  142.7410   80.7200  223.9550 H   0  0  0  0  0  0  0  0  0  0  0  0
  141.6628   77.9936  223.7352 H   0  0  0  0  0  0  0  0  0  0  0  0
  141.2088   79.2823  224.8769 H   0  0  0  0  0  0  0  0  0  0  0  0
  140.3818   77.2586  222.9188 H   0  0  0  0  0  0  0  0  0  0  0  0
  139.1389   76.0433  223.3149 H   0  0  0  0  0  0  0  0  0  0  0  0
  140.8345   78.6971  219.9790 H   0  0  0  0  0  0  0  0  0  0  0  0
  143.0307   78.5135  218.8885 H   0  0  0  0  0  0  0  0  0  0  0  0
  144.2082   76.3251  218.7802 H   0  0  0  0  0  0  0  0  0  0  0  0
  143.1074   74.3476  219.8008 H   0  0  0  0  0  0  0  0  0  0  0  0
  1  2  2  0
  2  3  1  0
  3  4  2  0
  4  5  1  0
  5  6  2  0
  6  7  1  0
  7  8  2  0
  8  9  1  0
  9 10  2  0
 10 11  1  0
 11 12  2  0
  6 13  1  0
 13 14  2  0
 14 15  1  0
 15 16  2  0
 16 17  1  0
  2 18  1  0
 18 19  1  0
 20 19  1  1
 20 21  1  0
 21 22  1  0
 22 23  1  0
 23 24  1  0
 24 25  1  0
 25 26  1  0
 26 27  1  0
 27 28  1  0
 28 29  1  0
 29 30  1  0
 23 31  1  0
 20 32  1  0
 32 33  2  0
 33 34  1  0
 34 35  2  0
 35 36  1  0
 36 37  2  0
 17  3  1  0
 37 18  1  0
 16  5  1  0
 31 20  1  0
 37 32  1  0
 12  7  1  0
 30 25  1  0
  4 38  1  0
  8 39  1  0
  9 40  1  0
 10 41  1  0
 11 42  1  0
 13 43  1  0
 14 44  1  0
 15 45  1  0
 17 46  1  0
 19 47  1  0
 19 48  1  0
 21 49  1  0
 21 50  1  0
 22 51  1  0
 22 52  1  0
 24 53  1  0
 24 54  1  0
 25 55  1  6
 26 56  1  0
 26 57  1  0
 27 58  1  0
 27 59  1  0
 28 60  1  0
 28 61  1  0
 29 62  1  0
 30 63  1  0
 30 64  1  0
 31 65  1  0
 31 66  1  0
 33 67  1  0
 34 68  1  0
 35 69  1  0
 36 70  1  0
M  END
>  <smiles>  (95) 
O=C(c1cc2c(-c3ccccn3)cccc2[nH]1)N1C[C@]2(CCN(CC3CCCNC3)C2)c2ccccc21

>  <score_type>  (95) 
oracle

>  <origin>  (95) 
autodockgpu

>  <m_score__min__energy>  (95) 
-9.9199999999999999

>  <m_primary>  (95) 
energy

>  <rmsd>  (95) 
2.4457245401032384

>  <m_score__min__rmsd>  (95) 
2.4457245401032384

>  <meeko>  (95) 
{"free_energy": -9.58, "intermolecular_energy": -11.07, "internal_energy": -2.17, "cluster_size": 13, "cluster_id": 3, "rank_in_cluster": 5}

>  <energy>  (95) 
-7.45

>  <cluster_rmsd>  (95) 
0.13

>  <cluster>  (95) 
13

$$$$

     RDKit          3D

 70 76  0  0  1  0  0  0  0  0999 V2000
  142.1790   72.7200  221.5220 O   0  0  0  0  0  0  0  0  0  0  0  0
  140.9910   73.1280  221.6430 C   0  0  0  0  0  0  0  0  0  0  0  0
  140.0740   72.2770  222.3760 C   0  0  0  0  0  0  0  0  0  0  0  0
  140.2930   71.6860  223.6020 C   0  0  0  0  0  0  0  0  0  0  0  0
  139.1710   70.9720  223.9200 C   0  0  0  0  0  0  0  0  0  0  0  0
  138.8390   70.1840  224.9900 C   0  0  0  0  0  0  0  0  0  0  0  0
  139.6490   69.8870  226.1300 C   0  0  0  0  0  0  0  0  0  0  0  0
  139.9890   68.6660  226.6410 C   0  0  0  0  0  0  0  0  0  0  0  0
  140.8430   68.5250  227.7480 C   0  0  0  0  0  0  0  0  0  0  0  0
  141.3740   69.6370  228.3600 C   0  0  0  0  0  0  0  0  0  0  0  0
  141.0200   70.8630  227.8290 C   0  0  0  0  0  0  0  0  0  0  0  0
  140.2060   70.9540  226.7790 N   0  0  0  0  0  0  0  0  0  0  0  0
  137.5760   69.5870  224.9300 C   0  0  0  0  0  0  0  0  0  0  0  0
  136.7110   69.7680  223.8790 C   0  0  0  0  0  0  0  0  0  0  0  0
  137.0520   70.5580  222.8190 C   0  0  0  0  0  0  0  0  0  0  0  0
  138.3030   71.1610  222.8550 C   0  0  0  0  0  0  0  0  0  0  0  0
  138.8520   71.9520  221.9240 N   0  0  0  0  0  0  0  0  0  0  0  0
  140.5800   74.3650  221.0810 N   0  0  0  0  0  0  0  0  0  0  0  0
  139.1960   74.8650  221.0590 C   0  0  0  0  0  0  0  0  0  0  0  0
  139.4000   76.3640  221.2060 C   0  0  1  0  0  0  0  0  0  0  0  0
  138.3380   77.1470  220.4700 C   0  0  0  0  0  0  0  0  0  0  0  0
  138.1550   78.3510  221.3530 C   0  0  0  0  0  0  0  0  0  0  0  0
  138.3670   77.9000  222.7100 N   0  0  0  0  0  0  0  0  0  0  0  0
  138.9590   78.9680  223.4720 C   0  0  0  0  0  0  0  0  0  0  0  0
  140.2690   79.4260  222.8980 C   0  0  1  0  0  0  0  0  0  0  0  0
  140.3610   80.9280  222.7220 C   0  0  0  0  0  0  0  0  0  0  0  0
  141.4410   81.1490  221.6680 C   0  0  0  0  0  0  0  0  0  0  0  0
  142.5540   80.1570  221.9810 C   0  0  0  0  0  0  0  0  0  0  0  0
  142.5730   79.8250  223.3910 N   0  0  0  0  0  0  0  0  0  0  0  0
  141.4260   79.0510  223.8110 C   0  0  0  0  0  0  0  0  0  0  0  0
  139.3680   76.8320  222.6190 C   0  0  0  0  0  0  0  0  0  0  0  0
  140.6940   76.6020  220.5090 C   0  0  0  0  0  0  0  0  0  0  0  0
  141.3250   77.6820  219.9430 C   0  0  0  0  0  0  0  0  0  0  0  0
  142.5650   77.5850  219.3340 C   0  0  0  0  0  0  0  0  0  0  0  0
  143.2210   76.3820  219.2700 C   0  0  0  0  0  0  0  0  0  0  0  0
  142.5960   75.2900  219.8360 C   0  0  0  0  0  0  0  0  0  0  0  0
  141.3530   75.3820  220.4490 C   0  0  0  0  0  0  0  0  0  0  0  0
  141.2037   71.7729  224.2128 H   0  0  0  0  0  0  0  0  0  0  0  0
  139.5794   67.7609  226.1687 H   0  0  0  0  0  0  0  0  0  0  0  0
  141.0879   67.5217  228.1267 H   0  0  0  0  0  0  0  0  0  0  0  0
  142.0456   69.5546  229.2272 H   0  0  0  0  0  0  0  0  0  0  0  0
  141.4188   71.7822  228.2829 H   0  0  0  0  0  0  0  0  0  0  0  0
  137.2606   68.9423  225.7636 H   0  0  0  0  0  0  0  0  0  0  0  0
  135.7303   69.2699  223.8913 H   0  0  0  0  0  0  0  0  0  0  0  0
  136.3658   70.7105  221.9729 H   0  0  0  0  0  0  0  0  0  0  0  0
  138.4270   72.2630  221.0190 H   0  0  0  0  0  0  0  0  0  0  0  0
  138.6976   74.6206  220.1093 H   0  0  0  0  0  0  0  0  0  0  0  0
  138.5532   74.4262  221.8364 H   0  0  0  0  0  0  0  0  0  0  0  0
  138.6818   77.4380  219.4664 H   0  0  0  0  0  0  0  0  0  0  0  0
  137.4106   76.5798  220.3021 H   0  0  0  0  0  0  0  0  0  0  0  0
  138.8878   79.1287  221.0920 H   0  0  0  0  0  0  0  0  0  0  0  0
  137.1522   78.7860  221.2302 H   0  0  0  0  0  0  0  0  0  0  0  0
  138.2628   79.8196  223.4858 H   0  0  0  0  0  0  0  0  0  0  0  0
  139.1528   78.5879  224.4859 H   0  0  0  0  0  0  0  0  0  0  0  0
  140.3264   78.9288  221.9185 H   0  0  0  0  0  0  0  0  0  0  0  0
  139.3986   81.3344  222.3775 H   0  0  0  0  0  0  0  0  0  0  0  0
  140.6031   81.4357  223.6673 H   0  0  0  0  0  0  0  0  0  0  0  0
  141.0358   80.9619  220.6626 H   0  0  0  0  0  0  0  0  0  0  0  0
  141.8117   82.1845  221.6867 H   0  0  0  0  0  0  0  0  0  0  0  0
  142.3919   79.2387  221.3975 H   0  0  0  0  0  0  0  0  0  0  0  0
  143.5176   80.6169  221.7165 H   0  0  0  0  0  0  0  0  0  0  0  0
  142.6980   80.7120  223.9390 H   0  0  0  0  0  0  0  0  0  0  0  0
  141.6435   77.9765  223.7212 H   0  0  0  0  0  0  0  0  0  0  0  0
  141.1773   79.2617  224.8616 H   0  0  0  0  0  0  0  0  0  0  0  0
  140.3563   77.2186  222.9085 H   0  0  0  0  0  0  0  0  0  0  0  0
  139.1108   76.0030  223.2947 H   0  0  0  0  0  0  0  0  0  0  0  0
  140.8265   78.6620  219.9744 H   0  0  0  0  0  0  0  0  0  0  0  0
  143.0286   78.4818  218.8971 H   0  0  0  0  0  0  0  0  0  0  0  0
  144.2052   76.2916  218.7871 H   0  0  0  0  0  0  0  0  0  0  0  0
  143.0995   74.3126  219.8006 H   0  0  0  0  0  0  0  0  0  0  0  0
  1  2  2  0
  2  3  1  0
  3  4  2  0
  4  5  1  0
  5  6  2  0
  6  7  1  0
  7  8  2  0
  8  9  1  0
  9 10  2  0
 10 11  1  0
 11 12  2  0
  6 13  1  0
 13 14  2  0
 14 15  1  0
 15 16  2  0
 16 17  1  0
  2 18  1  0
 18 19  1  0
 20 19  1  1
 20 21  1  0
 21 22  1  0
 22 23  1  0
 23 24  1  0
 24 25  1  0
 25 26  1  0
 26 27  1  0
 27 28  1  0
 28 29  1  0
 29 30  1  0
 23 31  1  0
 20 32  1  0
 32 33  2  0
 33 34  1  0
 34 35  2  0
 35 36  1  0
 36 37  2  0
 17  3  1  0
 37 18  1  0
 16  5  1  0
 31 20  1  0
 37 32  1  0
 12  7  1  0
 30 25  1  0
  4 38  1  0
  8 39  1  0
  9 40  1  0
 10 41  1  0
 11 42  1  0
 13 43  1  0
 14 44  1  0
 15 45  1  0
 17 46  1  0
 19 47  1  0
 19 48  1  0
 21 49  1  0
 21 50  1  0
 22 51  1  0
 22 52  1  0
 24 53  1  0
 24 54  1  0
 25 55  1  6
 26 56  1  0
 26 57  1  0
 27 58  1  0
 27 59  1  0
 28 60  1  0
 28 61  1  0
 29 62  1  0
 30 63  1  0
 30 64  1  0
 31 65  1  0
 31 66  1  0
 33 67  1  0
 34 68  1  0
 35 69  1  0
 36 70  1  0
M  END
>  <smiles>  (96) 
O=C(c1cc2c(-c3ccccn3)cccc2[nH]1)N1C[C@]2(CCN(CC3CCCNC3)C2)c2ccccc21

>  <score_type>  (96) 
oracle

>  <origin>  (96) 
autodockgpu

>  <m_score__min__energy>  (96) 
-9.9199999999999999

>  <m_primary>  (96) 
energy

>  <rmsd>  (96) 
2.7821294390546094

>  <m_score__min__rmsd>  (96) 
2.7821294390546094

>  <meeko>  (96) 
{"free_energy": -9.48, "intermolecular_energy": -10.98, "internal_energy": -2.19, "cluster_size": 13, "cluster_id": 3, "rank_in_cluster": 8}

>  <energy>  (96) 
-7.45

>  <cluster_rmsd>  (96) 
0.13

>  <cluster>  (96) 
13

$$$$

     RDKit          3D

 70 76  0  0  1  0  0  0  0  0999 V2000
  140.9600   73.8350  220.5780 O   0  0  0  0  0  0  0  0  0  0  0  0
  139.9480   73.7810  221.3290 C   0  0  0  0  0  0  0  0  0  0  0  0
  139.7150   72.5340  222.0310 C   0  0  0  0  0  0  0  0  0  0  0  0
  139.9970   72.2630  223.3520 C   0  0  0  0  0  0  0  0  0  0  0  0
  139.6190   70.9710  223.5960 C   0  0  0  0  0  0  0  0  0  0  0  0
  139.6810   70.1760  224.7100 C   0  0  0  0  0  0  0  0  0  0  0  0
  140.1990   70.5260  225.9960 C   0  0  0  0  0  0  0  0  0  0  0  0
  140.2870   69.7540  227.1200 C   0  0  0  0  0  0  0  0  0  0  0  0
  140.8720   70.2200  228.3090 C   0  0  0  0  0  0  0  0  0  0  0  0
  141.3860   71.4950  228.3750 C   0  0  0  0  0  0  0  0  0  0  0  0
  141.2890   72.2600  227.2280 C   0  0  0  0  0  0  0  0  0  0  0  0
  140.7260   71.7810  226.1210 N   0  0  0  0  0  0  0  0  0  0  0  0
  139.2080   68.8700  224.5440 C   0  0  0  0  0  0  0  0  0  0  0  0
  138.7110   68.3980  223.3550 C   0  0  0  0  0  0  0  0  0  0  0  0
  138.6520   69.2020  222.2520 C   0  0  0  0  0  0  0  0  0  0  0  0
  139.1160   70.5030  222.3920 C   0  0  0  0  0  0  0  0  0  0  0  0
  139.1750   71.4520  221.4470 N   0  0  0  0  0  0  0  0  0  0  0  0
  139.0810   74.8960  221.4720 N   0  0  0  0  0  0  0  0  0  0  0  0
  137.6630   74.9200  221.0800 C   0  0  0  0  0  0  0  0  0  0  0  0
  137.0580   75.8280  222.1380 C   0  0  1  0  0  0  0  0  0  0  0  0
  135.8990   76.6280  221.5910 C   0  0  0  0  0  0  0  0  0  0  0  0
  134.9830   76.7210  222.7810 C   0  0  0  0  0  0  0  0  0  0  0  0
  135.1450   75.4910  223.5210 N   0  0  0  0  0  0  0  0  0  0  0  0
  134.9760   75.7620  224.9250 C   0  0  0  0  0  0  0  0  0  0  0  0
  133.8900   74.9300  225.5440 C   0  0  1  0  0  0  0  0  0  0  0  0
  134.3230   73.5180  225.8780 C   0  0  0  0  0  0  0  0  0  0  0  0
  133.0370   72.7030  225.9510 C   0  0  0  0  0  0  0  0  0  0  0  0
  132.0140   73.5790  226.6630 C   0  0  0  0  0  0  0  0  0  0  0  0
  132.6650   74.5180  227.5550 N   0  0  0  0  0  0  0  0  0  0  0  0
  133.4210   75.5350  226.8580 C   0  0  0  0  0  0  0  0  0  0  0  0
  136.5440   75.0950  223.3270 C   0  0  0  0  0  0  0  0  0  0  0  0
  138.1600   76.7850  222.4350 C   0  0  0  0  0  0  0  0  0  0  0  0
  138.2550   78.0400  222.9850 C   0  0  0  0  0  0  0  0  0  0  0  0
  139.4630   78.7030  223.1210 C   0  0  0  0  0  0  0  0  0  0  0  0
  140.6320   78.1210  222.7020 C   0  0  0  0  0  0  0  0  0  0  0  0
  140.5480   76.8610  222.1480 C   0  0  0  0  0  0  0  0  0  0  0  0
  139.3400   76.1900  222.0100 C   0  0  0  0  0  0  0  0  0  0  0  0
  140.4442   72.9582  224.0777 H   0  0  0  0  0  0  0  0  0  0  0  0
  139.8851   68.7304  227.0927 H   0  0  0  0  0  0  0  0  0  0  0  0
  140.9194   69.5636  229.1904 H   0  0  0  0  0  0  0  0  0  0  0  0
  141.8499   71.8850  229.2930 H   0  0  0  0  0  0  0  0  0  0  0  0
  141.6853   73.2861  227.2300 H   0  0  0  0  0  0  0  0  0  0  0  0
  139.2357   68.1890  225.4074 H   0  0  0  0  0  0  0  0  0  0  0  0
  138.3556   67.3591  223.2892 H   0  0  0  0  0  0  0  0  0  0  0  0
  138.2541   68.8345  221.2946 H   0  0  0  0  0  0  0  0  0  0  0  0
  138.8660   71.3790  220.4490 H   0  0  0  0  0  0  0  0  0  0  0  0
  137.5342   75.3402  220.0716 H   0  0  0  0  0  0  0  0  0  0  0  0
  137.1990   73.9238  221.0326 H   0  0  0  0  0  0  0  0  0  0  0  0
  136.2244   77.6253  221.2600 H   0  0  0  0  0  0  0  0  0  0  0  0
  135.4280   76.1728  220.7073 H   0  0  0  0  0  0  0  0  0  0  0  0
  135.2609   77.5810  223.4080 H   0  0  0  0  0  0  0  0  0  0  0  0
  133.9379   76.8621  222.4682 H   0  0  0  0  0  0  0  0  0  0  0  0
  135.9229   75.5477  225.4422 H   0  0  0  0  0  0  0  0  0  0  0  0
  134.6885   76.8186  225.0295 H   0  0  0  0  0  0  0  0  0  0  0  0
  133.0964   74.9080  224.7826 H   0  0  0  0  0  0  0  0  0  0  0  0
  134.9842   73.1229  225.0927 H   0  0  0  0  0  0  0  0  0  0  0  0
  134.8859   73.4768  226.8222 H   0  0  0  0  0  0  0  0  0  0  0  0
  132.6861   72.4541  224.9386 H   0  0  0  0  0  0  0  0  0  0  0  0
  133.1944   71.7560  226.4880 H   0  0  0  0  0  0  0  0  0  0  0  0
  131.4348   74.1377  225.9130 H   0  0  0  0  0  0  0  0  0  0  0  0
  131.3522   72.9321  227.2576 H   0  0  0  0  0  0  0  0  0  0  0  0
  133.2390   73.9750  228.2460 H   0  0  0  0  0  0  0  0  0  0  0  0
  132.7838   76.4102  226.6631 H   0  0  0  0  0  0  0  0  0  0  0  0
  134.2787   75.8651  227.4625 H   0  0  0  0  0  0  0  0  0  0  0  0
  137.1356   75.3600  224.2157 H   0  0  0  0  0  0  0  0  0  0  0  0
  136.6204   74.0084  223.1740 H   0  0  0  0  0  0  0  0  0  0  0  0
  137.3366   78.5372  223.3305 H   0  0  0  0  0  0  0  0  0  0  0  0
  139.4852   79.7070  223.5698 H   0  0  0  0  0  0  0  0  0  0  0  0
  141.5974   78.6383  222.8037 H   0  0  0  0  0  0  0  0  0  0  0  0
  141.4701   76.3702  221.8033 H   0  0  0  0  0  0  0  0  0  0  0  0
  1  2  2  0
  2  3  1  0
  3  4  2  0
  4  5  1  0
  5  6  2  0
  6  7  1  0
  7  8  2  0
  8  9  1  0
  9 10  2  0
 10 11  1  0
 11 12  2  0
  6 13  1  0
 13 14  2  0
 14 15  1  0
 15 16  2  0
 16 17  1  0
  2 18  1  0
 18 19  1  0
 20 19  1  6
 20 21  1  0
 21 22  1  0
 22 23  1  0
 23 24  1  0
 24 25  1  0
 25 26  1  0
 26 27  1  0
 27 28  1  0
 28 29  1  0
 29 30  1  0
 23 31  1  0
 20 32  1  0
 32 33  2  0
 33 34  1  0
 34 35  2  0
 35 36  1  0
 36 37  2  0
 17  3  1  0
 37 18  1  0
 16  5  1  0
 31 20  1  0
 37 32  1  0
 12  7  1  0
 30 25  1  0
  4 38  1  0
  8 39  1  0
  9 40  1  0
 10 41  1  0
 11 42  1  0
 13 43  1  0
 14 44  1  0
 15 45  1  0
 17 46  1  0
 19 47  1  0
 19 48  1  0
 21 49  1  0
 21 50  1  0
 22 51  1  0
 22 52  1  0
 24 53  1  0
 24 54  1  0
 25 55  1  6
 26 56  1  0
 26 57  1  0
 27 58  1  0
 27 59  1  0
 28 60  1  0
 28 61  1  0
 29 62  1  0
 30 63  1  0
 30 64  1  0
 31 65  1  0
 31 66  1  0
 33 67  1  0
 34 68  1  0
 35 69  1  0
 36 70  1  0
M  END
>  <smiles>  (97) 
O=C(c1cc2c(-c3ccccn3)cccc2[nH]1)N1C[C@]2(CCN(CC3CCCNC3)C2)c2ccccc21

>  <score_type>  (97) 
oracle

>  <origin>  (97) 
autodockgpu

>  <m_score__min__energy>  (97) 
-9.9199999999999999

>  <m_primary>  (97) 
energy

>  <rmsd>  (97) 
6.166736181452025

>  <m_score__min__rmsd>  (97) 
6.166736181452025

>  <meeko>  (97) 
{"free_energy": -9.81, "intermolecular_energy": -11.3, "internal_energy": -1.66, "cluster_size": 6, "cluster_id": 1, "rank_in_cluster": 4}

>  <energy>  (97) 
-7.44

>  <cluster_rmsd>  (97) 
0.13

>  <cluster>  (97) 
13

$$$$

     RDKit          3D

 70 76  0  0  1  0  0  0  0  0999 V2000
  139.8830   74.2350  219.8060 O   0  0  0  0  0  0  0  0  0  0  0  0
  139.7930   74.2260  221.0640 C   0  0  0  0  0  0  0  0  0  0  0  0
  139.6390   72.9330  221.7030 C   0  0  0  0  0  0  0  0  0  0  0  0
  139.8570   72.6350  223.0310 C   0  0  0  0  0  0  0  0  0  0  0  0
  139.5940   71.3040  223.2020 C   0  0  0  0  0  0  0  0  0  0  0  0
  139.6590   70.4720  224.2880 C   0  0  0  0  0  0  0  0  0  0  0  0
  140.0530   70.8160  225.6190 C   0  0  0  0  0  0  0  0  0  0  0  0
  139.6940   70.2220  226.7950 C   0  0  0  0  0  0  0  0  0  0  0  0
  140.2050   70.6390  228.0360 C   0  0  0  0  0  0  0  0  0  0  0  0
  141.1000   71.6810  228.1010 C   0  0  0  0  0  0  0  0  0  0  0  0
  141.4520   72.2690  226.9010 C   0  0  0  0  0  0  0  0  0  0  0  0
  140.9450   71.8440  225.7460 N   0  0  0  0  0  0  0  0  0  0  0  0
  139.3310   69.1350  224.0430 C   0  0  0  0  0  0  0  0  0  0  0  0
  138.9630   68.6680  222.8050 C   0  0  0  0  0  0  0  0  0  0  0  0
  138.8990   69.5080  221.7310 C   0  0  0  0  0  0  0  0  0  0  0  0
  139.2220   70.8410  221.9480 C   0  0  0  0  0  0  0  0  0  0  0  0
  139.2500   71.8300  221.0450 N   0  0  0  0  0  0  0  0  0  0  0  0
  139.8420   75.4320  221.8110 N   0  0  0  0  0  0  0  0  0  0  0  0
  141.0710   76.0680  222.3100 C   0  0  0  0  0  0  0  0  0  0  0  0
  140.7270   77.5440  222.2080 C   0  0  1  0  0  0  0  0  0  0  0  0
  141.3940   78.3500  223.2980 C   0  0  0  0  0  0  0  0  0  0  0  0
  141.6820   79.6530  222.6050 C   0  0  0  0  0  0  0  0  0  0  0  0
  141.9630   79.3310  221.2250 N   0  0  0  0  0  0  0  0  0  0  0  0
  141.5010   80.4070  220.3880 C   0  0  0  0  0  0  0  0  0  0  0  0
  140.0940   80.8200  220.7070 C   0  0  1  0  0  0  0  0  0  0  0  0
  139.9990   82.1630  221.4020 C   0  0  0  0  0  0  0  0  0  0  0  0
  138.6540   82.1570  222.1210 C   0  0  0  0  0  0  0  0  0  0  0  0
  137.6610   81.5070  221.1650 C   0  0  0  0  0  0  0  0  0  0  0  0
  138.0680   81.6940  219.7870 N   0  0  0  0  0  0  0  0  0  0  0  0
  139.2640   80.9580  219.4400 C   0  0  0  0  0  0  0  0  0  0  0  0
  141.1340   78.1610  220.9160 C   0  0  0  0  0  0  0  0  0  0  0  0
  139.2610   77.5710  222.4680 C   0  0  0  0  0  0  0  0  0  0  0  0
  138.3490   78.5130  222.8740 C   0  0  0  0  0  0  0  0  0  0  0  0
  137.0050   78.2230  223.0450 C   0  0  0  0  0  0  0  0  0  0  0  0
  136.5270   76.9590  222.8110 C   0  0  0  0  0  0  0  0  0  0  0  0
  137.4360   76.0050  222.4030 C   0  0  0  0  0  0  0  0  0  0  0  0
  138.7840   76.2900  222.2290 C   0  0  0  0  0  0  0  0  0  0  0  0
  140.1829   73.3391  223.8107 H   0  0  0  0  0  0  0  0  0  0  0  0
  138.9788   69.3866  226.7701 H   0  0  0  0  0  0  0  0  0  0  0  0
  139.8880   70.1302  228.9583 H   0  0  0  0  0  0  0  0  0  0  0  0
  141.5144   72.0286  229.0589 H   0  0  0  0  0  0  0  0  0  0  0  0
  142.1661   73.1057  226.9003 H   0  0  0  0  0  0  0  0  0  0  0  0
  139.3695   68.4238  224.8813 H   0  0  0  0  0  0  0  0  0  0  0  0
  138.7167   67.6036  222.6773 H   0  0  0  0  0  0  0  0  0  0  0  0
  138.6040   69.1444  220.7356 H   0  0  0  0  0  0  0  0  0  0  0  0
  139.0170   71.7700  220.0250 H   0  0  0  0  0  0  0  0  0  0  0  0
  141.2776   75.7768  223.3504 H   0  0  0  0  0  0  0  0  0  0  0  0
  141.9753   75.7839  221.7519 H   0  0  0  0  0  0  0  0  0  0  0  0
  140.7197   78.4954  224.1548 H   0  0  0  0  0  0  0  0  0  0  0  0
  142.2894   77.8672  223.7166 H   0  0  0  0  0  0  0  0  0  0  0  0
  140.8087   80.3188  222.6695 H   0  0  0  0  0  0  0  0  0  0  0  0
  142.5311   80.1728  223.0727 H   0  0  0  0  0  0  0  0  0  0  0  0
  142.1637   81.2735  220.5296 H   0  0  0  0  0  0  0  0  0  0  0  0
  141.5170   80.0513  219.3472 H   0  0  0  0  0  0  0  0  0  0  0  0
  139.7216   80.0260  221.3710 H   0  0  0  0  0  0  0  0  0  0  0  0
  140.8202   82.2808  222.1243 H   0  0  0  0  0  0  0  0  0  0  0  0
  140.0763   82.9972  220.6891 H   0  0  0  0  0  0  0  0  0  0  0  0
  138.7225   81.5756  223.0523 H   0  0  0  0  0  0  0  0  0  0  0  0
  138.3405   83.1762  222.3912 H   0  0  0  0  0  0  0  0  0  0  0  0
  137.6063   80.4298  221.3809 H   0  0  0  0  0  0  0  0  0  0  0  0
  136.6776   81.9790  221.3070 H   0  0  0  0  0  0  0  0  0  0  0  0
  138.1470   82.7240  219.6010 H   0  0  0  0  0  0  0  0  0  0  0  0
  138.9954   79.9629  219.0558 H   0  0  0  0  0  0  0  0  0  0  0  0
  139.8316   81.4838  218.6581 H   0  0  0  0  0  0  0  0  0  0  0  0
  140.2425   78.4715  220.3513 H   0  0  0  0  0  0  0  0  0  0  0  0
  141.6958   77.4403  220.3037 H   0  0  0  0  0  0  0  0  0  0  0  0
  138.6985   79.5372  223.0711 H   0  0  0  0  0  0  0  0  0  0  0  0
  136.3145   79.0145  223.3717 H   0  0  0  0  0  0  0  0  0  0  0  0
  135.4624   76.7159  222.9433 H   0  0  0  0  0  0  0  0  0  0  0  0
  137.0806   74.9823  222.2086 H   0  0  0  0  0  0  0  0  0  0  0  0
  1  2  2  0
  2  3  1  0
  3  4  2  0
  4  5  1  0
  5  6  2  0
  6  7  1  0
  7  8  2  0
  8  9  1  0
  9 10  2  0
 10 11  1  0
 11 12  2  0
  6 13  1  0
 13 14  2  0
 14 15  1  0
 15 16  2  0
 16 17  1  0
  2 18  1  0
 18 19  1  0
 20 19  1  6
 20 21  1  0
 21 22  1  0
 22 23  1  0
 23 24  1  0
 24 25  1  0
 25 26  1  0
 26 27  1  0
 27 28  1  0
 28 29  1  0
 29 30  1  0
 23 31  1  0
 20 32  1  0
 32 33  2  0
 33 34  1  0
 34 35  2  0
 35 36  1  0
 36 37  2  0
 17  3  1  0
 37 18  1  0
 16  5  1  0
 31 20  1  0
 37 32  1  0
 12  7  1  0
 30 25  1  0
  4 38  1  0
  8 39  1  0
  9 40  1  0
 10 41  1  0
 11 42  1  0
 13 43  1  0
 14 44  1  0
 15 45  1  0
 17 46  1  0
 19 47  1  0
 19 48  1  0
 21 49  1  0
 21 50  1  0
 22 51  1  0
 22 52  1  0
 24 53  1  0
 24 54  1  0
 25 55  1  1
 26 56  1  0
 26 57  1  0
 27 58  1  0
 27 59  1  0
 28 60  1  0
 28 61  1  0
 29 62  1  0
 30 63  1  0
 30 64  1  0
 31 65  1  0
 31 66  1  0
 33 67  1  0
 34 68  1  0
 35 69  1  0
 36 70  1  0
M  END
>  <smiles>  (98) 
O=C(c1cc2c(-c3ccccn3)cccc2[nH]1)N1C[C@]2(CCN(CC3CCCNC3)C2)c2ccccc21

>  <score_type>  (98) 
oracle

>  <origin>  (98) 
autodockgpu

>  <m_score__min__energy>  (98) 
-9.9199999999999999

>  <m_primary>  (98) 
energy

>  <rmsd>  (98) 
3.004400983399234

>  <m_score__min__rmsd>  (98) 
3.004400983399234

>  <meeko>  (98) 
{"free_energy": -8.5, "intermolecular_energy": -9.99, "internal_energy": -2.37, "cluster_size": 5, "cluster_id": 7, "rank_in_cluster": 5}

>  <energy>  (98) 
-7.43

>  <cluster_rmsd>  (98) 
0.05

>  <cluster>  (98) 
13

$$$$

     RDKit          3D

 70 76  0  0  1  0  0  0  0  0999 V2000
  142.6000   73.2920  220.9150 O   0  0  0  0  0  0  0  0  0  0  0  0
  141.3810   73.5400  221.1230 C   0  0  0  0  0  0  0  0  0  0  0  0
  140.6170   72.5370  221.8400 C   0  0  0  0  0  0  0  0  0  0  0  0
  140.6720   72.2630  223.1890 C   0  0  0  0  0  0  0  0  0  0  0  0
  139.7910   71.2480  223.4380 C   0  0  0  0  0  0  0  0  0  0  0  0
  139.4490   70.5680  224.5770 C   0  0  0  0  0  0  0  0  0  0  0  0
  139.9720   70.7650  225.8930 C   0  0  0  0  0  0  0  0  0  0  0  0
  139.9110   69.9270  226.9710 C   0  0  0  0  0  0  0  0  0  0  0  0
  140.5210   70.2350  228.1990 C   0  0  0  0  0  0  0  0  0  0  0  0
  141.2130   71.4140  228.3520 C   0  0  0  0  0  0  0  0  0  0  0  0
  141.2650   72.2470  227.2520 C   0  0  0  0  0  0  0  0  0  0  0  0
  140.6730   71.9200  226.1050 N   0  0  0  0  0  0  0  0  0  0  0  0
  138.5040   69.5510  224.4110 C   0  0  0  0  0  0  0  0  0  0  0  0
  137.9440   69.2400  223.1960 C   0  0  0  0  0  0  0  0  0  0  0  0
  138.2910   69.9270  222.0680 C   0  0  0  0  0  0  0  0  0  0  0  0
  139.2280   70.9410  222.2080 C   0  0  0  0  0  0  0  0  0  0  0  0
  139.7300   71.7250  221.2440 N   0  0  0  0  0  0  0  0  0  0  0  0
  140.7930   74.7510  220.6700 N   0  0  0  0  0  0  0  0  0  0  0  0
  139.3700   75.1010  220.8080 C   0  0  0  0  0  0  0  0  0  0  0  0
  139.4350   76.6050  221.0150 C   0  0  1  0  0  0  0  0  0  0  0  0
  138.2300   77.3030  220.4270 C   0  0  0  0  0  0  0  0  0  0  0  0
  138.0160   78.4400  221.3880 C   0  0  0  0  0  0  0  0  0  0  0  0
  138.4080   77.9560  222.6910 N   0  0  0  0  0  0  0  0  0  0  0  0
  138.9630   79.0460  223.4500 C   0  0  0  0  0  0  0  0  0  0  0  0
  140.2710   79.5280  222.8920 C   0  0  1  0  0  0  0  0  0  0  0  0
  140.3380   81.0300  222.7100 C   0  0  0  0  0  0  0  0  0  0  0  0
  141.4270   81.2680  221.6710 C   0  0  0  0  0  0  0  0  0  0  0  0
  142.5550   80.2980  222.0030 C   0  0  0  0  0  0  0  0  0  0  0  0
  142.5610   79.9720  223.4150 N   0  0  0  0  0  0  0  0  0  0  0  0
  141.4230   79.1780  223.8220 C   0  0  0  0  0  0  0  0  0  0  0  0
  139.4980   77.0050  222.4470 C   0  0  0  0  0  0  0  0  0  0  0  0
  140.6210   77.0100  220.2110 C   0  0  0  0  0  0  0  0  0  0  0  0
  141.0780   78.1740  219.6460 C   0  0  0  0  0  0  0  0  0  0  0  0
  142.2550   78.2350  218.9160 C   0  0  0  0  0  0  0  0  0  0  0  0
  143.0190   77.1130  218.7260 C   0  0  0  0  0  0  0  0  0  0  0  0
  142.5680   75.9380  219.2900 C   0  0  0  0  0  0  0  0  0  0  0  0
  141.3910   75.8700  220.0230 C   0  0  0  0  0  0  0  0  0  0  0  0
  141.3085   72.7686  223.9302 H   0  0  0  0  0  0  0  0  0  0  0  0
  139.3647   68.9772  226.8739 H   0  0  0  0  0  0  0  0  0  0  0  0
  140.4449   69.5309  229.0407 H   0  0  0  0  0  0  0  0  0  0  0  0
  141.6999   71.6796  229.3019 H   0  0  0  0  0  0  0  0  0  0  0  0
  141.8072   73.2013  227.3248 H   0  0  0  0  0  0  0  0  0  0  0  0
  138.1947   68.9732  225.2944 H   0  0  0  0  0  0  0  0  0  0  0  0
  137.2062   68.4267  223.1307 H   0  0  0  0  0  0  0  0  0  0  0  0
  137.8470   69.6870  221.0906 H   0  0  0  0  0  0  0  0  0  0  0  0
  139.4890   71.7170  220.2250 H   0  0  0  0  0  0  0  0  0  0  0  0
  138.8055   74.8464  219.8989 H   0  0  0  0  0  0  0  0  0  0  0  0
  138.8568   74.5628  221.6186 H   0  0  0  0  0  0  0  0  0  0  0  0
  138.4399   77.6732  219.4127 H   0  0  0  0  0  0  0  0  0  0  0  0
  137.3526   76.6487  220.3172 H   0  0  0  0  0  0  0  0  0  0  0  0
  138.6360   79.3020  221.1007 H   0  0  0  0  0  0  0  0  0  0  0  0
  136.9667   78.7701  221.3858 H   0  0  0  0  0  0  0  0  0  0  0  0
  138.2472   79.8812  223.4429 H   0  0  0  0  0  0  0  0  0  0  0  0
  139.1492   78.6816  224.4710 H   0  0  0  0  0  0  0  0  0  0  0  0
  140.3499   79.0289  221.9149 H   0  0  0  0  0  0  0  0  0  0  0  0
  139.3730   81.4168  222.3505 H   0  0  0  0  0  0  0  0  0  0  0  0
  140.5583   81.5455  223.6564 H   0  0  0  0  0  0  0  0  0  0  0  0
  141.0394   81.0699  220.6608 H   0  0  0  0  0  0  0  0  0  0  0  0
  141.7775   82.3105  221.6911 H   0  0  0  0  0  0  0  0  0  0  0  0
  142.4182   79.3745  221.4212 H   0  0  0  0  0  0  0  0  0  0  0  0
  143.5132   80.7749  221.7494 H   0  0  0  0  0  0  0  0  0  0  0  0
  142.6610   80.8630  223.9610 H   0  0  0  0  0  0  0  0  0  0  0  0
  141.6619   78.1075  223.7389 H   0  0  0  0  0  0  0  0  0  0  0  0
  141.1562   79.3877  224.8683 H   0  0  0  0  0  0  0  0  0  0  0  0
  140.4661   77.4813  222.6610 H   0  0  0  0  0  0  0  0  0  0  0  0
  139.3953   76.1247  223.0986 H   0  0  0  0  0  0  0  0  0  0  0  0
  140.4883   79.0932  219.7772 H   0  0  0  0  0  0  0  0  0  0  0  0
  142.5791   79.1937  218.4848 H   0  0  0  0  0  0  0  0  0  0  0  0
  143.9538   77.1483  218.1473 H   0  0  0  0  0  0  0  0  0  0  0  0
  143.1620   75.0222  219.1542 H   0  0  0  0  0  0  0  0  0  0  0  0
  1  2  2  0
  2  3  1  0
  3  4  2  0
  4  5  1  0
  5  6  2  0
  6  7  1  0
  7  8  2  0
  8  9  1  0
  9 10  2  0
 10 11  1  0
 11 12  2  0
  6 13  1  0
 13 14  2  0
 14 15  1  0
 15 16  2  0
 16 17  1  0
  2 18  1  0
 18 19  1  0
 20 19  1  1
 20 21  1  0
 21 22  1  0
 22 23  1  0
 23 24  1  0
 24 25  1  0
 25 26  1  0
 26 27  1  0
 27 28  1  0
 28 29  1  0
 29 30  1  0
 23 31  1  0
 20 32  1  0
 32 33  2  0
 33 34  1  0
 34 35  2  0
 35 36  1  0
 36 37  2  0
 17  3  1  0
 37 18  1  0
 16  5  1  0
 31 20  1  0
 37 32  1  0
 12  7  1  0
 30 25  1  0
  4 38  1  0
  8 39  1  0
  9 40  1  0
 10 41  1  0
 11 42  1  0
 13 43  1  0
 14 44  1  0
 15 45  1  0
 17 46  1  0
 19 47  1  0
 19 48  1  0
 21 49  1  0
 21 50  1  0
 22 51  1  0
 22 52  1  0
 24 53  1  0
 24 54  1  0
 25 55  1  6
 26 56  1  0
 26 57  1  0
 27 58  1  0
 27 59  1  0
 28 60  1  0
 28 61  1  0
 29 62  1  0
 30 63  1  0
 30 64  1  0
 31 65  1  0
 31 66  1  0
 33 67  1  0
 34 68  1  0
 35 69  1  0
 36 70  1  0
M  END
>  <smiles>  (99) 
O=C(c1cc2c(-c3ccccn3)cccc2[nH]1)N1C[C@]2(CCN(CC3CCCNC3)C2)c2ccccc21

>  <score_type>  (99) 
oracle

>  <origin>  (99) 
autodockgpu

>  <m_score__min__energy>  (99) 
-9.9199999999999999

>  <m_primary>  (99) 
energy

>  <rmsd>  (99) 
2.7167329825830597

>  <m_score__min__rmsd>  (99) 
2.7167329825830597

>  <meeko>  (99) 
{"free_energy": -9.6, "intermolecular_energy": -11.09, "internal_energy": -2.19, "cluster_size": 6, "cluster_id": 4, "rank_in_cluster": 2}

>  <energy>  (99) 
-7.43

>  <cluster_rmsd>  (99) 
0.12

>  <cluster>  (99) 
13

$$$$

     RDKit          3D

 70 76  0  0  1  0  0  0  0  0999 V2000
  141.2230   73.8010  220.4810 O   0  0  0  0  0  0  0  0  0  0  0  0
  140.2020   73.8030  221.2220 C   0  0  0  0  0  0  0  0  0  0  0  0
  139.9010   72.5740  221.9320 C   0  0  0  0  0  0  0  0  0  0  0  0
  140.1040   72.3200  223.2700 C   0  0  0  0  0  0  0  0  0  0  0  0
  139.6820   71.0420  223.5150 C   0  0  0  0  0  0  0  0  0  0  0  0
  139.6640   70.2650  224.6420 C   0  0  0  0  0  0  0  0  0  0  0  0
  140.1220   70.6250  225.9490 C   0  0  0  0  0  0  0  0  0  0  0  0
  139.9760   69.9420  227.1230 C   0  0  0  0  0  0  0  0  0  0  0  0
  140.5280   70.3970  228.3320 C   0  0  0  0  0  0  0  0  0  0  0  0
  141.2470   71.5690  228.3680 C   0  0  0  0  0  0  0  0  0  0  0  0
  141.3850   72.2460  227.1710 C   0  0  0  0  0  0  0  0  0  0  0  0
  140.8460   71.7810  226.0450 N   0  0  0  0  0  0  0  0  0  0  0  0
  139.1680   68.9690  224.4730 C   0  0  0  0  0  0  0  0  0  0  0  0
  138.7240   68.4890  223.2670 C   0  0  0  0  0  0  0  0  0  0  0  0
  138.7440   69.2740  222.1490 C   0  0  0  0  0  0  0  0  0  0  0  0
  139.2330   70.5660  222.2920 C   0  0  0  0  0  0  0  0  0  0  0  0
  139.3660   71.4960  221.3370 N   0  0  0  0  0  0  0  0  0  0  0  0
  139.3910   74.9610  221.3490 N   0  0  0  0  0  0  0  0  0  0  0  0
  137.9980   75.0720  220.8870 C   0  0  0  0  0  0  0  0  0  0  0  0
  137.3890   75.9880  221.9350 C   0  0  1  0  0  0  0  0  0  0  0  0
  136.3050   76.8630  221.3500 C   0  0  0  0  0  0  0  0  0  0  0  0
  135.3350   76.9810  222.4930 C   0  0  0  0  0  0  0  0  0  0  0  0
  135.3910   75.7280  223.2100 N   0  0  0  0  0  0  0  0  0  0  0  0
  135.1640   75.9770  224.6100 C   0  0  0  0  0  0  0  0  0  0  0  0
  134.5560   74.7970  225.3120 C   0  0  1  0  0  0  0  0  0  0  0  0
  133.1010   74.9950  225.6830 C   0  0  0  0  0  0  0  0  0  0  0  0
  132.8310   74.0130  226.8160 C   0  0  0  0  0  0  0  0  0  0  0  0
  133.5520   72.7230  226.4450 C   0  0  0  0  0  0  0  0  0  0  0  0
  133.6800   72.5940  225.0080 N   0  0  0  0  0  0  0  0  0  0  0  0
  134.5860   73.5600  224.4280 C   0  0  0  0  0  0  0  0  0  0  0  0
  136.7750   75.2590  223.0770 C   0  0  0  0  0  0  0  0  0  0  0  0
  138.5240   76.8770  222.3110 C   0  0  0  0  0  0  0  0  0  0  0  0
  138.6580   78.1120  222.8950 C   0  0  0  0  0  0  0  0  0  0  0  0
  139.8920   78.7040  223.1090 C   0  0  0  0  0  0  0  0  0  0  0  0
  141.0480   78.0680  222.7360 C   0  0  0  0  0  0  0  0  0  0  0  0
  140.9240   76.8260  222.1470 C   0  0  0  0  0  0  0  0  0  0  0  0
  139.6910   76.2270  221.9310 C   0  0  0  0  0  0  0  0  0  0  0  0
  140.5281   73.0175  224.0073 H   0  0  0  0  0  0  0  0  0  0  0  0
  139.4054   69.0015  227.1216 H   0  0  0  0  0  0  0  0  0  0  0  0
  140.3847   69.8137  229.2535 H   0  0  0  0  0  0  0  0  0  0  0  0
  141.6893   71.9479  229.3012 H   0  0  0  0  0  0  0  0  0  0  0  0
  141.9517   73.1885  227.1476 H   0  0  0  0  0  0  0  0  0  0  0  0
  139.1320   68.3031  225.3478 H   0  0  0  0  0  0  0  0  0  0  0  0
  138.3467   67.4580  223.1992 H   0  0  0  0  0  0  0  0  0  0  0  0
  138.3883   68.8991  221.1780 H   0  0  0  0  0  0  0  0  0  0  0  0
  139.1090   71.4130  220.3250 H   0  0  0  0  0  0  0  0  0  0  0  0
  137.9442   75.5208  219.8842 H   0  0  0  0  0  0  0  0  0  0  0  0
  137.4841   74.1041  220.7918 H   0  0  0  0  0  0  0  0  0  0  0  0
  136.7010   77.8476  221.0606 H   0  0  0  0  0  0  0  0  0  0  0  0
  135.8564   76.4538  220.4328 H   0  0  0  0  0  0  0  0  0  0  0  0
  135.6261   77.8105  223.1542 H   0  0  0  0  0  0  0  0  0  0  0  0
  134.3169   77.1868  222.1309 H   0  0  0  0  0  0  0  0  0  0  0  0
  136.1265   76.2139  225.0869 H   0  0  0  0  0  0  0  0  0  0  0  0
  134.4562   76.8152  224.6903 H   0  0  0  0  0  0  0  0  0  0  0  0
  135.1628   74.6803  226.2220 H   0  0  0  0  0  0  0  0  0  0  0  0
  132.9276   76.0276  226.0201 H   0  0  0  0  0  0  0  0  0  0  0  0
  132.4345   74.8210  224.8254 H   0  0  0  0  0  0  0  0  0  0  0  0
  133.2227   74.4089  227.7646 H   0  0  0  0  0  0  0  0  0  0  0  0
  131.7523   73.8438  226.9498 H   0  0  0  0  0  0  0  0  0  0  0  0
  134.5552   72.7292  226.8963 H   0  0  0  0  0  0  0  0  0  0  0  0
  132.9647   71.8727  226.8220 H   0  0  0  0  0  0  0  0  0  0  0  0
  132.7200   72.6210  224.5850 H   0  0  0  0  0  0  0  0  0  0  0  0
  135.6049   73.1468  224.3934 H   0  0  0  0  0  0  0  0  0  0  0  0
  134.2835   73.8089  223.4001 H   0  0  0  0  0  0  0  0  0  0  0  0
  137.3332   75.4707  224.0009 H   0  0  0  0  0  0  0  0  0  0  0  0
  136.7998   74.1735  222.9007 H   0  0  0  0  0  0  0  0  0  0  0  0
  137.7512   78.6520  223.2048 H   0  0  0  0  0  0  0  0  0  0  0  0
  139.9450   79.6951  223.5833 H   0  0  0  0  0  0  0  0  0  0  0  0
  142.0335   78.5286  222.8994 H   0  0  0  0  0  0  0  0  0  0  0  0
  141.8347   76.2921  221.8379 H   0  0  0  0  0  0  0  0  0  0  0  0
  1  2  2  0
  2  3  1  0
  3  4  2  0
  4  5  1  0
  5  6  2  0
  6  7  1  0
  7  8  2  0
  8  9  1  0
  9 10  2  0
 10 11  1  0
 11 12  2  0
  6 13  1  0
 13 14  2  0
 14 15  1  0
 15 16  2  0
 16 17  1  0
  2 18  1  0
 18 19  1  0
 20 19  1  6
 20 21  1  0
 21 22  1  0
 22 23  1  0
 23 24  1  0
 24 25  1  0
 25 26  1  0
 26 27  1  0
 27 28  1  0
 28 29  1  0
 29 30  1  0
 23 31  1  0
 20 32  1  0
 32 33  2  0
 33 34  1  0
 34 35  2  0
 35 36  1  0
 36 37  2  0
 17  3  1  0
 37 18  1  0
 16  5  1  0
 31 20  1  0
 37 32  1  0
 12  7  1  0
 30 25  1  0
  4 38  1  0
  8 39  1  0
  9 40  1  0
 10 41  1  0
 11 42  1  0
 13 43  1  0
 14 44  1  0
 15 45  1  0
 17 46  1  0
 19 47  1  0
 19 48  1  0
 21 49  1  0
 21 50  1  0
 22 51  1  0
 22 52  1  0
 24 53  1  0
 24 54  1  0
 25 55  1  1
 26 56  1  0
 26 57  1  0
 27 58  1  0
 27 59  1  0
 28 60  1  0
 28 61  1  0
 29 62  1  0
 30 63  1  0
 30 64  1  0
 31 65  1  0
 31 66  1  0
 33 67  1  0
 34 68  1  0
 35 69  1  0
 36 70  1  0
M  END
>  <smiles>  (100) 
O=C(c1cc2c(-c3ccccn3)cccc2[nH]1)N1C[C@]2(CCN(CC3CCCNC3)C2)c2ccccc21

>  <score_type>  (100) 
oracle

>  <origin>  (100) 
autodockgpu

>  <m_score__min__energy>  (100) 
-9.9199999999999999

>  <m_primary>  (100) 
energy

>  <rmsd>  (100) 
6.017324514613315

>  <m_score__min__rmsd>  (100) 
6.017324514613315

>  <meeko>  (100) 
{"free_energy": -9.11, "intermolecular_energy": -10.6, "internal_energy": -1.67, "cluster_size": 6, "cluster_id": 1, "rank_in_cluster": 6}

>  <energy>  (100) 
-7.4

>  <cluster_rmsd>  (100) 
0.47

>  <cluster>  (100) 
13

$$$$
