
     RDKit          3D

 58 61  0  0  1  0  0  0  0  0999 V2000
  142.6090   79.4920  223.4820 C   0  0  0  0  0  0  0  0  0  0  0  0
  141.7820   79.7020  222.2370 C   0  0  1  0  0  0  0  0  0  0  0  0
  141.6850   78.5020  221.4440 N   0  0  0  0  0  0  0  0  0  0  0  0
  141.1190   78.4880  220.1300 C   0  0  0  0  0  0  0  0  0  0  0  0
  140.6810   79.5570  219.6280 O   0  0  0  0  0  0  0  0  0  0  0  0
  141.0840   77.1870  219.4300 C   0  0  1  0  0  0  0  0  0  0  0  0
  142.0330   77.1050  218.2760 C   0  0  0  0  0  0  0  0  0  0  0  0
  143.3210   76.5730  218.8630 C   0  0  0  0  0  0  0  0  0  0  0  0
  142.8400   75.6610  219.9520 C   0  0  0  0  0  0  0  0  0  0  0  0
  141.4710   76.0830  220.2580 N   0  0  0  0  0  0  0  0  0  0  0  0
  140.7000   75.4290  221.2590 C   0  0  0  0  0  0  0  0  0  0  0  0
  140.6710   76.0120  222.3950 O   0  0  0  0  0  0  0  0  0  0  0  0
  139.9780   74.1640  221.0150 C   0  0  0  0  0  0  0  0  0  0  0  0
  139.8880   73.4400  222.2700 N   0  0  0  0  0  0  0  0  0  0  0  0
  140.2160   72.0510  222.3020 C   0  0  0  0  0  0  0  0  0  0  0  0
  140.5850   71.4420  221.2470 O   0  0  0  0  0  0  0  0  0  0  0  0
  140.1200   71.3350  223.5720 C   0  0  0  0  0  0  0  0  0  0  0  0
  139.5230   70.0790  223.5930 C   0  0  0  0  0  0  0  0  0  0  0  0
  139.4340   69.4020  224.7950 C   0  0  0  0  0  0  0  0  0  0  0  0
  139.9240   69.9490  225.9710 C   0  0  0  0  0  0  0  0  0  0  0  0
  139.8530   69.3070  227.1830 C   0  0  0  0  0  0  0  0  0  0  0  0
  140.3400   69.8470  228.3600 C   0  0  0  0  0  0  0  0  0  0  0  0
  140.9290   71.1120  228.2700 C   0  0  0  0  0  0  0  0  0  0  0  0
  141.0060   71.7670  227.0570 C   0  0  0  0  0  0  0  0  0  0  0  0
  140.5090   71.2000  225.9010 C   0  0  0  0  0  0  0  0  0  0  0  0
  140.6060   71.8800  224.7260 N   0  0  0  0  0  0  0  0  0  0  0  0
  140.4650   80.2270  222.6320 C   0  0  0  0  0  0  0  0  0  0  0  0
  139.7100   79.4530  223.5120 C   0  0  0  0  0  0  0  0  0  0  0  0
  138.4770   79.8900  223.9140 C   0  0  0  0  0  0  0  0  0  0  0  0
  137.9170   81.0780  223.4960 C   0  0  0  0  0  0  0  0  0  0  0  0
  138.6820   81.8460  222.6140 C   0  0  0  0  0  0  0  0  0  0  0  0
  139.9380   81.4200  222.1930 C   0  0  0  0  0  0  0  0  0  0  0  0
  141.9807   79.6515  224.3707 H   0  0  0  0  0  0  0  0  0  0  0  0
  143.0034   78.4652  223.4913 H   0  0  0  0  0  0  0  0  0  0  0  0
  143.4455   80.2062  223.4913 H   0  0  0  0  0  0  0  0  0  0  0  0
  142.2777   80.4379  221.5869 H   0  0  0  0  0  0  0  0  0  0  0  0
  142.0540   77.6030  221.8660 H   0  0  0  0  0  0  0  0  0  0  0  0
  140.0327   77.1243  219.1125 H   0  0  0  0  0  0  0  0  0  0  0  0
  141.6473   76.4200  217.5066 H   0  0  0  0  0  0  0  0  0  0  0  0
  142.1742   78.0807  217.7881 H   0  0  0  0  0  0  0  0  0  0  0  0
  143.9003   76.0190  218.1097 H   0  0  0  0  0  0  0  0  0  0  0  0
  143.9938   77.3647  219.2244 H   0  0  0  0  0  0  0  0  0  0  0  0
  142.8498   74.6164  219.6076 H   0  0  0  0  0  0  0  0  0  0  0  0
  143.4868   75.7182  220.8399 H   0  0  0  0  0  0  0  0  0  0  0  0
  138.9678   74.3795  220.6369 H   0  0  0  0  0  0  0  0  0  0  0  0
  140.5136   73.5605  220.2674 H   0  0  0  0  0  0  0  0  0  0  0  0
  139.5900   73.9120  223.1440 H   0  0  0  0  0  0  0  0  0  0  0  0
  139.1283   69.6319  222.6687 H   0  0  0  0  0  0  0  0  0  0  0  0
  138.9642   68.4077  224.8189 H   0  0  0  0  0  0  0  0  0  0  0  0
  139.3848   68.3123  227.2198 H   0  0  0  0  0  0  0  0  0  0  0  0
  140.2676   69.3092  229.3168 H   0  0  0  0  0  0  0  0  0  0  0  0
  141.3348   71.5897  229.1740 H   0  0  0  0  0  0  0  0  0  0  0  0
  141.4733   72.7617  227.0110 H   0  0  0  0  0  0  0  0  0  0  0  0
  140.1038   78.4948  223.8818 H   0  0  0  0  0  0  0  0  0  0  0  0
  137.9020   79.2593  224.6080 H   0  0  0  0  0  0  0  0  0  0  0  0
  136.9233   81.4035  223.8376 H   0  0  0  0  0  0  0  0  0  0  0  0
  138.2845   82.8035  222.2463 H   0  0  0  0  0  0  0  0  0  0  0  0
  140.5181   82.0460  221.4991 H   0  0  0  0  0  0  0  0  0  0  0  0
  1  2  1  0
  2  3  1  0
  3  4  1  0
  4  5  2  0
  4  6  1  0
  6  7  1  0
  7  8  1  0
  8  9  1  0
  9 10  1  0
 10 11  1  0
 11 12  2  0
 11 13  1  0
 13 14  1  0
 14 15  1  0
 15 16  2  0
 15 17  1  0
 17 18  2  0
 18 19  1  0
 19 20  2  0
 20 21  1  0
 21 22  2  0
 22 23  1  0
 23 24  2  0
 24 25  1  0
 25 26  2  0
  2 27  1  0
 27 28  2  0
 28 29  1  0
 29 30  2  0
 30 31  1  0
 31 32  2  0
 10  6  1  0
 26 17  1  0
 32 27  1  0
 25 20  1  0
  1 33  1  0
  1 34  1  0
  1 35  1  0
  2 36  1  6
  3 37  1  0
  6 38  1  6
  7 39  1  0
  7 40  1  0
  8 41  1  0
  8 42  1  0
  9 43  1  0
  9 44  1  0
 13 45  1  0
 13 46  1  0
 14 47  1  0
 18 48  1  0
 19 49  1  0
 21 50  1  0
 22 51  1  0
 23 52  1  0
 24 53  1  0
 28 54  1  0
 29 55  1  0
 30 56  1  0
 31 57  1  0
 32 58  1  0
M  END
