@<TRIPOS>MOLECULE
*****
 38 39 0 0 0
SMALL
GASTEIGER

@<TRIPOS>ATOM
      1 O         136.9280   69.2180  224.6600 O.2     1  UNL1       -0.2741
      2 C         137.9280   69.1190  223.9070 C.2     1  UNL1        0.2323
      3 C         137.9340   69.7680  222.5490 C.3     1  UNL1        0.0287
      4 C         139.1470   70.6920  222.5310 C.3     1  UNL1       -0.0103
      5 C         138.7710   72.1280  222.6030 C.3     1  UNL1        0.0901
      6 O         139.8600   72.9490  222.5280 O.3     1  UNL1       -0.4905
      7 C         141.0270   72.9450  221.8590 C.ar    1  UNL1        0.1388
      8 C         141.8440   71.8730  221.5960 C.ar    1  UNL1       -0.0171
      9 C         143.0350   71.9790  220.8910 C.ar    1  UNL1       -0.0398
     10 C         143.4540   73.1990  220.4140 C.ar    1  UNL1        0.0426
     11 CL        144.9400   73.4220  219.5170 Cl      1  UNL1       -0.0835
     12 C         142.6570   74.2950  220.6610 C.ar    1  UNL1       -0.0215
     13 C         141.4800   74.1810  221.3600 C.ar    1  UNL1        0.0839
     14 CL        140.5460   75.6400  221.6160 Cl      1  UNL1       -0.0797
     15 N         139.1070   68.4060  224.2580 N.am    1  UNL1       -0.2070
     16 N         139.1700   67.7710  225.5200 N.2     1  UNL1       -0.1876
     17 C         140.0090   68.0890  226.4210 C.2     1  UNL1        0.0571
     18 C         140.3610   69.4590  226.7850 C.ar    1  UNL1        0.0488
     19 C         141.0510   70.2820  225.8900 C.ar    1  UNL1       -0.0474
     20 C         141.3910   71.5810  226.2200 C.ar    1  UNL1       -0.0428
     21 C         141.0190   72.0240  227.4700 C.ar    1  UNL1        0.0307
     22 N         140.3520   71.2360  228.3420 N.ar    1  UNL1       -0.2271
     23 C         140.0300   69.9790  228.0040 C.ar    1  UNL1        0.2219
     24 F         139.3570   69.2470  228.9380 F       1  UNL1       -0.1832
     25 H         138.0225   69.0054  221.7612 H       1  UNL1        0.0360
     26 H         137.0022   70.3221  222.3628 H       1  UNL1        0.0360
     27 H         139.7864   70.4513  223.3932 H       1  UNL1        0.0302
     28 H         139.6741   70.5323  221.5788 H       1  UNL1        0.0302
     29 H         138.0940   72.3596  221.7675 H       1  UNL1        0.0696
     30 H         138.2821   72.3018  223.5730 H       1  UNL1        0.0696
     31 H         141.5396   70.8814  221.9621 H       1  UNL1        0.0655
     32 H         143.6470   71.0825  220.7129 H       1  UNL1        0.0633
     33 H         142.9697   75.2824  220.2906 H       1  UNL1        0.0648
     34 H         139.9380   68.3240  223.6290 H       1  UNL1        0.1772
     35 H         140.5059   67.2729  226.9660 H       1  UNL1        0.0853
     36 H         141.3295   69.8875  224.9017 H       1  UNL1        0.0626
     37 H         141.9333   72.2304  225.5170 H       1  UNL1        0.0633
     38 H         141.2729   73.0520  227.7680 H       1  UNL1        0.0830
@<TRIPOS>BOND
     1     1     2    2
     2     2     3    1
     3     3     4    1
     4     4     5    1
     5     5     6    1
     6     6     7    1
     7     7     8   ar
     8     8     9   ar
     9     9    10   ar
    10    10    11    1
    11    10    12   ar
    12    12    13   ar
    13    13    14    1
    14     2    15   am
    15    15    16    1
    16    16    17    2
    17    17    18    1
    18    18    19   ar
    19    19    20   ar
    20    20    21   ar
    21    21    22   ar
    22    22    23   ar
    23    23    24    1
    24    13     7   ar
    25    23    18   ar
    26     3    25    1
    27     3    26    1
    28     4    27    1
    29     4    28    1
    30     5    29    1
    31     5    30    1
    32     8    31    1
    33     9    32    1
    34    12    33    1
    35    15    34    1
    36    17    35    1
    37    19    36    1
    38    20    37    1
    39    21    38    1
