
     RDKit          3D

 79 85  0  0  0  0  0  0  0  0999 V2000
  142.2020   81.2270  222.5820 C   0  0  0  0  0  0  0  0  0  0  0  0
  141.8600   80.6890  223.8070 C   0  0  0  0  0  0  0  0  0  0  0  0
  141.4920   79.3450  223.8560 C   0  0  0  0  0  0  0  0  0  0  0  0
  141.4610   78.5470  222.7310 C   0  0  0  0  0  0  0  0  0  0  0  0
  141.8090   79.1320  221.5360 C   0  0  0  0  0  0  0  0  0  0  0  0
  142.1830   80.4600  221.4250 C   0  0  0  0  0  0  0  0  0  0  0  0
  141.8040   78.3490  220.2570 C   0  0  0  0  0  0  0  0  0  0  0  0
  140.7210   77.2950  220.3580 C   0  0  0  0  0  0  0  0  0  0  0  0
  140.9560   76.5410  221.5720 N   0  0  0  0  0  0  0  0  0  0  0  0
  141.0940   75.1220  221.4610 C   0  0  0  0  0  0  0  0  0  0  0  0
  140.2310   74.2720  222.0890 N   0  0  0  0  0  0  0  0  0  0  0  0
  140.3520   72.9530  221.9890 C   0  0  0  0  0  0  0  0  0  0  0  0
  139.4700   72.0560  222.6310 N   0  0  0  0  0  0  0  0  0  0  0  0
  138.0250   72.1740  222.5720 C   0  0  0  0  0  0  0  0  0  0  0  0
  137.5270   71.4450  223.8430 C   0  0  0  0  0  0  0  0  0  0  0  0
  137.7890   70.0550  223.7780 N   0  0  0  0  0  0  0  0  0  0  0  0
  137.8300   69.4150  225.0350 C   0  0  0  0  0  0  0  0  0  0  0  0
  139.1440   69.0530  225.6190 C   0  0  0  0  0  0  0  0  0  0  0  0
  139.5870   70.1860  226.5680 C   0  0  0  0  0  0  0  0  0  0  0  0
  141.0650   70.0680  226.8210 C   0  0  0  0  0  0  0  0  0  0  0  0
  141.3260   68.7030  227.2430 N   0  0  0  0  0  0  0  0  0  0  0  0
  140.1280   68.0120  227.6210 C   0  0  0  0  0  0  0  0  0  0  0  0
  139.2130   67.8010  226.4260 C   0  0  0  0  0  0  0  0  0  0  0  0
  139.0520   69.7810  223.1000 C   0  0  0  0  0  0  0  0  0  0  0  0
  139.9900   70.9310  223.4090 C   0  0  0  0  0  0  0  0  0  0  0  0
  141.3530   72.4620  221.2490 N   0  0  0  0  0  0  0  0  0  0  0  0
  142.2270   73.2300  220.6130 C   0  0  0  0  0  0  0  0  0  0  0  0
  143.2590   72.6160  219.8500 N   0  0  0  0  0  0  0  0  0  0  0  0
  144.6070   73.1030  220.0130 C   0  0  0  0  0  0  0  0  0  0  0  0
  145.5940   72.3680  219.1430 C   0  0  0  0  0  0  0  0  0  0  0  0
  145.3800   70.9010  219.1700 C   0  0  0  0  0  0  0  0  0  0  0  0
  146.4210   70.0050  219.3000 C   0  0  0  0  0  0  0  0  0  0  0  0
  146.1180   68.6760  219.3150 C   0  0  0  0  0  0  0  0  0  0  0  0
  144.8120   68.2200  219.2040 C   0  0  0  0  0  0  0  0  0  0  0  0
  143.7900   69.1360  219.0740 C   0  0  0  0  0  0  0  0  0  0  0  0
  144.0530   70.4760  219.0550 C   0  0  0  0  0  0  0  0  0  0  0  0
  143.0190   71.5310  218.9170 C   0  0  0  0  0  0  0  0  0  0  0  0
  142.0890   74.5640  220.7240 N   0  0  0  0  0  0  0  0  0  0  0  0
  141.0570   77.1320  222.8850 C   0  0  0  0  0  0  0  0  0  0  0  0
  142.4956   82.2854  222.5217 H   0  0  0  0  0  0  0  0  0  0  0  0
  141.8774   81.3038  224.7190 H   0  0  0  0  0  0  0  0  0  0  0  0
  141.2167   78.9054  224.8260 H   0  0  0  0  0  0  0  0  0  0  0  0
  142.4563   80.8936  220.4517 H   0  0  0  0  0  0  0  0  0  0  0  0
  141.5951   79.0189  219.4099 H   0  0  0  0  0  0  0  0  0  0  0  0
  142.7837   77.8760  220.0946 H   0  0  0  0  0  0  0  0  0  0  0  0
  139.7325   77.7757  220.4004 H   0  0  0  0  0  0  0  0  0  0  0  0
  140.7441   76.6319  219.4807 H   0  0  0  0  0  0  0  0  0  0  0  0
  137.7199   73.2308  222.5847 H   0  0  0  0  0  0  0  0  0  0  0  0
  137.6064   71.7432  221.6505 H   0  0  0  0  0  0  0  0  0  0  0  0
  138.0400   71.8651  224.7207 H   0  0  0  0  0  0  0  0  0  0  0  0
  136.4392   71.5888  223.9205 H   0  0  0  0  0  0  0  0  0  0  0  0
  137.3324   70.0838  225.7527 H   0  0  0  0  0  0  0  0  0  0  0  0
  137.3488   68.4433  224.8501 H   0  0  0  0  0  0  0  0  0  0  0  0
  139.7828   68.8926  224.7380 H   0  0  0  0  0  0  0  0  0  0  0  0
  139.3693   71.1599  226.1053 H   0  0  0  0  0  0  0  0  0  0  0  0
  139.0411   70.1063  227.5196 H   0  0  0  0  0  0  0  0  0  0  0  0
  141.6231   70.2898  225.8994 H   0  0  0  0  0  0  0  0  0  0  0  0
  141.3847   70.7815  227.5948 H   0  0  0  0  0  0  0  0  0  0  0  0
  142.0670   68.6370  227.9490 H   0  0  0  0  0  0  0  0  0  0  0  0
  140.3971   67.0328  228.0438 H   0  0  0  0  0  0  0  0  0  0  0  0
  139.5942   68.6227  228.3640 H   0  0  0  0  0  0  0  0  0  0  0  0
  139.6079   66.9853  225.8025 H   0  0  0  0  0  0  0  0  0  0  0  0
  138.2049   67.5399  226.7805 H   0  0  0  0  0  0  0  0  0  0  0  0
  139.4799   68.8371  223.4688 H   0  0  0  0  0  0  0  0  0  0  0  0
  138.8981   69.6855  222.0150 H   0  0  0  0  0  0  0  0  0  0  0  0
  139.9766   71.1640  224.4839 H   0  0  0  0  0  0  0  0  0  0  0  0
  141.0337   70.6961  223.1532 H   0  0  0  0  0  0  0  0  0  0  0  0
  144.6309   74.1707  219.7495 H   0  0  0  0  0  0  0  0  0  0  0  0
  144.8977   72.9392  221.0612 H   0  0  0  0  0  0  0  0  0  0  0  0
  145.4863   72.7228  218.1074 H   0  0  0  0  0  0  0  0  0  0  0  0
  146.6029   72.5695  219.5322 H   0  0  0  0  0  0  0  0  0  0  0  0
  147.4612   70.3516  219.3886 H   0  0  0  0  0  0  0  0  0  0  0  0
  146.9324   67.9437  219.4181 H   0  0  0  0  0  0  0  0  0  0  0  0
  144.5951   67.1417  219.2195 H   0  0  0  0  0  0  0  0  0  0  0  0
  142.7517   68.7839  218.9847 H   0  0  0  0  0  0  0  0  0  0  0  0
  143.0426   71.9265  217.8908 H   0  0  0  0  0  0  0  0  0  0  0  0
  142.0354   71.0900  219.1361 H   0  0  0  0  0  0  0  0  0  0  0  0
  140.0829   77.0771  223.3930 H   0  0  0  0  0  0  0  0  0  0  0  0
  141.8013   76.5901  223.4869 H   0  0  0  0  0  0  0  0  0  0  0  0
  1  2  2  0
  2  3  1  0
  3  4  2  0
  4  5  1  0
  5  6  2  0
  5  7  1  0
  7  8  1  0
  8  9  1  0
  9 10  1  0
 10 11  2  0
 11 12  1  0
 12 13  1  0
 13 14  1  0
 14 15  1  0
 15 16  1  0
 16 17  1  0
 17 18  1  0
 18 19  1  0
 19 20  1  0
 20 21  1  0
 21 22  1  0
 22 23  1  0
 16 24  1  0
 24 25  1  0
 12 26  2  0
 26 27  1  0
 27 28  1  0
 28 29  1  0
 29 30  1  0
 30 31  1  0
 31 32  2  0
 32 33  1  0
 33 34  2  0
 34 35  1  0
 35 36  2  0
 36 37  1  0
 27 38  2  0
  9 39  1  0
  6  1  1  0
 38 10  1  0
 39  4  1  0
 25 13  1  0
 37 28  1  0
 23 18  1  0
 36 31  1  0
  1 40  1  0
  2 41  1  0
  3 42  1  0
  6 43  1  0
  7 44  1  0
  7 45  1  0
  8 46  1  0
  8 47  1  0
 14 48  1  0
 14 49  1  0
 15 50  1  0
 15 51  1  0
 17 52  1  0
 17 53  1  0
 18 54  1  0
 19 55  1  0
 19 56  1  0
 20 57  1  0
 20 58  1  0
 21 59  1  0
 22 60  1  0
 22 61  1  0
 23 62  1  0
 23 63  1  0
 24 64  1  0
 24 65  1  0
 25 66  1  0
 25 67  1  0
 29 68  1  0
 29 69  1  0
 30 70  1  0
 30 71  1  0
 32 72  1  0
 33 73  1  0
 34 74  1  0
 35 75  1  0
 37 76  1  0
 37 77  1  0
 39 78  1  0
 39 79  1  0
M  END
