@<TRIPOS>MOLECULE
*****
 70 74 0 0 0
SMALL
GASTEIGER

@<TRIPOS>ATOM
      1 O         133.3650   69.9240  226.8300 O.2     1  UNL1       -0.2685
      2 C         133.7020   70.9910  226.3050 C.2     1  UNL1        0.2628
      3 N         134.7030   70.9480  225.2900 N.am    1  UNL1       -0.3015
      4 C         135.3680   69.8110  224.8100 C.3     1  UNL1        0.0887
      5 C         135.2520   69.3240  223.4550 C.2     1  UNL1        0.2330
      6 O         134.7010   68.1270  223.4000 O.2     1  UNL1       -0.2739
      7 N         135.5900   69.8520  222.2170 N.am    1  UNL1       -0.2969
      8 C         134.7920   70.1550  221.0060 C.3     1  UNL1        0.0151
      9 C         135.0770   71.6550  220.8930 C.3     1  UNL1       -0.0355
     10 C         136.5080   71.7570  221.4170 C.3     1  UNL1       -0.0326
     11 C         136.9070   70.3300  221.7110 C.3     1  UNL1        0.0289
     12 C         138.0750   70.1820  222.5430 C.3     1  UNL1       -0.0223
     13 C         138.0690   68.7080  223.0450 C.3     1  UNL1       -0.0483
     14 C         138.6040   68.6240  224.4480 C.3     1  UNL1       -0.0496
     15 C         139.7490   69.6030  224.5770 C.3     1  UNL1       -0.0382
     16 C         140.6760   69.3230  225.7070 C.3     1  UNL1       -0.0382
     17 C         140.9940   70.5120  226.5740 C.3     1  UNL1       -0.0500
     18 C         140.3820   70.3570  227.9670 C.3     1  UNL1       -0.0528
     19 C         141.0500   69.2160  228.6920 C.3     1  UNL1       -0.0530
     20 C         141.2820   68.0930  227.6990 C.3     1  UNL1       -0.0528
     21 C         140.2410   68.1830  226.5800 C.3     1  UNL1       -0.0500
     22 C         139.1160   70.9860  224.6610 C.3     1  UNL1       -0.0496
     23 C         137.8890   71.0480  223.7910 C.3     1  UNL1       -0.0483
     24 C         133.0920   72.2750  226.7090 C.ar    1  UNL1        0.1260
     25 C         131.8630   72.2430  227.3300 C.ar    1  UNL1       -0.0306
     26 C         131.3050   73.4620  227.7040 C.ar    1  UNL1       -0.0503
     27 C         131.9850   74.6490  227.4480 C.ar    1  UNL1        0.0031
     28 C         131.4550   75.8750  227.8080 C.ar    1  UNL1       -0.0173
     29 C         132.1210   77.0620  227.5580 C.ar    1  UNL1        0.1241
     30 F         131.6130   78.2700  227.9060 F       1  UNL1       -0.2055
     31 C         133.3640   77.0330  226.9250 C.ar    1  UNL1       -0.0244
     32 C         133.9000   75.8160  226.5630 C.ar    1  UNL1       -0.0330
     33 C         133.2190   74.6420  226.8200 C.ar    1  UNL1        0.0720
     34 N         133.7250   73.4420  226.4750 N.ar    1  UNL1       -0.2421
     35 H         134.9430   71.9030  224.8770 H       1  UNL1        0.1496
     36 H         136.4396   70.0021  224.9684 H       1  UNL1        0.0558
     37 H         134.8518   69.0142  225.3656 H       1  UNL1        0.0558
     38 H         135.1518   69.6004  220.1268 H       1  UNL1        0.0465
     39 H         133.7282   69.8808  221.0624 H       1  UNL1        0.0465
     40 H         135.0102   71.9953  219.8491 H       1  UNL1        0.0281
     41 H         134.3609   72.2814  221.4452 H       1  UNL1        0.0281
     42 H         137.1699   72.1968  220.6564 H       1  UNL1        0.0284
     43 H         136.5830   72.4030  222.3041 H       1  UNL1        0.0284
     44 H         137.2974   69.7282  220.8770 H       1  UNL1        0.0503
     45 H         138.9893   70.4537  221.9950 H       1  UNL1        0.0319
     46 H         137.0382   68.3245  223.0277 H       1  UNL1        0.0269
     47 H         138.7103   68.1060  222.3845 H       1  UNL1        0.0269
     48 H         137.8108   68.8823  225.1650 H       1  UNL1        0.0268
     49 H         138.9520   67.6025  224.6612 H       1  UNL1        0.0268
     50 H         140.4093   69.5162  223.7015 H       1  UNL1        0.0303
     51 H         141.5994   69.0360  225.1826 H       1  UNL1        0.0303
     52 H         142.0859   70.6051  226.6696 H       1  UNL1        0.0268
     53 H         140.5690   71.4110  226.1037 H       1  UNL1        0.0268
     54 H         140.5279   71.2871  228.5359 H       1  UNL1        0.0265
     55 H         139.3064   70.1474  227.8709 H       1  UNL1        0.0265
     56 H         142.0123   69.5509  229.1065 H       1  UNL1        0.0265
     57 H         140.4132   68.8666  229.5181 H       1  UNL1        0.0265
     58 H         142.2909   68.1843  227.2703 H       1  UNL1        0.0265
     59 H         141.1894   67.1238  228.2110 H       1  UNL1        0.0265
     60 H         140.2168   67.2466  226.0033 H       1  UNL1        0.0268
     61 H         139.2292   68.3433  226.9806 H       1  UNL1        0.0268
     62 H         138.8335   71.1939  225.7036 H       1  UNL1        0.0268
     63 H         139.8420   71.7355  224.3129 H       1  UNL1        0.0268
     64 H         137.0222   70.6815  224.3604 H       1  UNL1        0.0269
     65 H         137.7243   72.0903  223.4805 H       1  UNL1        0.0269
     66 H         131.3436   71.2927  227.5226 H       1  UNL1        0.0641
     67 H         130.3249   73.4873  228.2027 H       1  UNL1        0.0625
     68 H         130.4755   75.9073  228.3076 H       1  UNL1        0.0653
     69 H         133.9076   77.9667  226.7181 H       1  UNL1        0.0647
     70 H         134.8798   75.7792  226.0645 H       1  UNL1        0.0640
@<TRIPOS>BOND
     1     1     2    2
     2     2     3   am
     3     3     4    1
     4     4     5    1
     5     5     6    2
     6     5     7   am
     7     7     8    1
     8     8     9    1
     9     9    10    1
    10    10    11    1
    11    11    12    1
    12    12    13    1
    13    13    14    1
    14    14    15    1
    15    15    16    1
    16    16    17    1
    17    17    18    1
    18    18    19    1
    19    19    20    1
    20    20    21    1
    21    15    22    1
    22    22    23    1
    23     2    24    1
    24    24    25   ar
    25    25    26   ar
    26    26    27   ar
    27    27    28   ar
    28    28    29   ar
    29    29    30    1
    30    29    31   ar
    31    31    32   ar
    32    32    33   ar
    33    33    34   ar
    34    11     7    1
    35    23    12    1
    36    34    24   ar
    37    21    16    1
    38    33    27   ar
    39     3    35    1
    40     4    36    1
    41     4    37    1
    42     8    38    1
    43     8    39    1
    44     9    40    1
    45     9    41    1
    46    10    42    1
    47    10    43    1
    48    11    44    1
    49    12    45    1
    50    13    46    1
    51    13    47    1
    52    14    48    1
    53    14    49    1
    54    15    50    1
    55    16    51    1
    56    17    52    1
    57    17    53    1
    58    18    54    1
    59    18    55    1
    60    19    56    1
    61    19    57    1
    62    20    58    1
    63    20    59    1
    64    21    60    1
    65    21    61    1
    66    22    62    1
    67    22    63    1
    68    23    64    1
    69    23    65    1
    70    25    66    1
    71    26    67    1
    72    28    68    1
    73    31    69    1
    74    32    70    1
