@<TRIPOS>MOLECULE
*****
 52 56 0 0 0
SMALL
GASTEIGER

@<TRIPOS>ATOM
      1 O         139.3950   71.0840  221.3990 O.2     1  UNL1       -0.2685
      2 C         139.5370   71.8290  222.4200 C.2     1  UNL1        0.2628
      3 N         139.4410   73.2360  222.3620 N.am    1  UNL1       -0.3015
      4 C         139.1650   73.8750  221.0920 C.3     1  UNL1        0.0887
      5 C         140.4340   74.2960  220.4470 C.2     1  UNL1        0.2328
      6 O         141.2070   73.3750  220.0690 O.2     1  UNL1       -0.2739
      7 N         140.7330   75.6810  220.2810 N.am    1  UNL1       -0.2996
      8 C         142.1150   76.1030  220.2000 C.3     1  UNL1        0.0181
      9 C         142.1820   77.5900  220.4980 C.3     1  UNL1       -0.0178
     10 C         141.2520   78.2770  219.5260 C.3     1  UNL1       -0.0434
     11 C         140.1320   77.9870  220.5030 C.3     1  UNL1       -0.0178
     12 C         139.6030   76.5840  220.2030 C.3     1  UNL1        0.0181
     13 C         141.1370   77.9100  221.5870 C.3     1  UNL1       -0.0073
     14 C         141.4280   79.0750  222.4090 C.ar    1  UNL1       -0.0436
     15 C         142.7700   79.3990  222.6180 C.ar    1  UNL1       -0.0583
     16 C         143.1530   80.4750  223.3910 C.ar    1  UNL1       -0.0615
     17 C         142.2070   81.2870  223.9990 C.ar    1  UNL1       -0.0617
     18 C         140.8750   80.9850  223.8040 C.ar    1  UNL1       -0.0615
     19 C         140.5130   79.8950  223.0210 C.ar    1  UNL1       -0.0583
     20 C         139.8160   71.1770  223.7130 C.ar    1  UNL1        0.1260
     21 C         139.5740   69.8310  223.8930 C.ar    1  UNL1       -0.0306
     22 C         139.8130   69.1660  225.0760 C.ar    1  UNL1       -0.0504
     23 C         140.3240   69.8990  226.1290 C.ar    1  UNL1        0.0004
     24 C         140.5620   69.2400  227.3020 C.ar    1  UNL1       -0.0526
     25 C         141.0710   69.9260  228.3870 C.ar    1  UNL1       -0.0611
     26 C         141.3250   71.2790  228.2340 C.ar    1  UNL1       -0.0597
     27 C         141.0770   71.9340  227.0350 C.ar    1  UNL1       -0.0357
     28 C         140.5630   71.2450  225.9370 C.ar    1  UNL1        0.0718
     29 N         140.3130   71.8540  224.7630 N.ar    1  UNL1       -0.2421
     30 H         139.5700   73.7770  223.2400 H       1  UNL1        0.1496
     31 H         138.6402   73.1663  220.4345 H       1  UNL1        0.0558
     32 H         138.5367   74.7614  221.2637 H       1  UNL1        0.0558
     33 H         142.7159   75.5494  220.9365 H       1  UNL1        0.0467
     34 H         142.5126   75.9015  219.1944 H       1  UNL1        0.0467
     35 H         143.2472   77.8428  220.6047 H       1  UNL1        0.0322
     36 H         141.4594   79.3458  219.3689 H       1  UNL1        0.0272
     37 H         141.1924   77.9770  218.4694 H       1  UNL1        0.0272
     38 H         139.2446   78.6307  220.5932 H       1  UNL1        0.0322
     39 H         138.8410   76.3009  220.9441 H       1  UNL1        0.0467
     40 H         139.1362   76.5444  219.2078 H       1  UNL1        0.0467
     41 H         140.9393   77.2670  222.4573 H       1  UNL1        0.0355
     42 H         143.5469   78.7759  222.1510 H       1  UNL1        0.0620
     43 H         144.2227   80.6921  223.5272 H       1  UNL1        0.0618
     44 H         142.5094   82.1450  224.6174 H       1  UNL1        0.0618
     45 H         140.0974   81.6085  224.2694 H       1  UNL1        0.0618
     46 H         139.4429   79.6794  222.8854 H       1  UNL1        0.0620
     47 H         139.1683   69.2575  223.0465 H       1  UNL1        0.0641
     48 H         139.6044   68.0908  225.1779 H       1  UNL1        0.0625
     49 H         140.3483   68.1639  227.3820 H       1  UNL1        0.0624
     50 H         141.2682   69.4150  229.3409 H       1  UNL1        0.0618
     51 H         141.7328   71.8481  229.0824 H       1  UNL1        0.0618
     52 H         141.2887   73.0101  226.9502 H       1  UNL1        0.0639
@<TRIPOS>BOND
     1     1     2    2
     2     2     3   am
     3     3     4    1
     4     4     5    1
     5     5     6    2
     6     5     7   am
     7     7     8    1
     8     8     9    1
     9     9    10    1
    10    10    11    1
    11    11    12    1
    12    11    13    1
    13    13    14    1
    14    14    15   ar
    15    15    16   ar
    16    16    17   ar
    17    17    18   ar
    18    18    19   ar
    19     2    20    1
    20    20    21   ar
    21    21    22   ar
    22    22    23   ar
    23    23    24   ar
    24    24    25   ar
    25    25    26   ar
    26    26    27   ar
    27    27    28   ar
    28    28    29   ar
    29    12     7    1
    30    19    14   ar
    31    29    20   ar
    32    13     9    1
    33    28    23   ar
    34     3    30    1
    35     4    31    1
    36     4    32    1
    37     8    33    1
    38     8    34    1
    39     9    35    1
    40    10    36    1
    41    10    37    1
    42    11    38    1
    43    12    39    1
    44    12    40    1
    45    13    41    1
    46    15    42    1
    47    16    43    1
    48    17    44    1
    49    18    45    1
    50    19    46    1
    51    21    47    1
    52    22    48    1
    53    24    49    1
    54    25    50    1
    55    26    51    1
    56    27    52    1
