@<TRIPOS>MOLECULE
*****
 63 66 0 0 0
SMALL
GASTEIGER

@<TRIPOS>ATOM
      1 C         142.3320   71.5120  220.4580 C.3     1  UNL1       -0.0626
      2 C         142.5230   72.9640  220.8490 C.3     1  UNL1       -0.0450
      3 C         143.9420   73.3900  220.6450 C.3     1  UNL1       -0.0626
      4 C         141.4730   73.8570  220.3030 C.3     1  UNL1       -0.0297
      5 C         140.1150   73.7780  220.8910 C.3     1  UNL1        0.0511
      6 N         140.2880   73.1020  222.1980 N.am    1  UNL1       -0.3047
      7 C         139.4510   71.9670  222.4720 C.2     1  UNL1        0.2627
      8 O         138.6300   71.6280  221.5820 O.2     1  UNL1       -0.2685
      9 C         139.5840   71.2680  223.7450 C.ar    1  UNL1        0.1260
     10 C         139.0070   69.9990  223.8270 C.ar    1  UNL1       -0.0306
     11 C         139.1330   69.3400  225.0270 C.ar    1  UNL1       -0.0504
     12 C         139.7880   69.8960  226.0840 C.ar    1  UNL1        0.0004
     13 C         139.9600   69.3130  227.3110 C.ar    1  UNL1       -0.0526
     14 C         140.6210   69.8970  228.3470 C.ar    1  UNL1       -0.0611
     15 C         141.1760   71.1650  228.2020 C.ar    1  UNL1       -0.0597
     16 C         141.0060   71.7590  226.9670 C.ar    1  UNL1       -0.0357
     17 C         140.3380   71.1680  225.9220 C.ar    1  UNL1        0.0718
     18 N         140.2330   71.8370  224.7640 N.ar    1  UNL1       -0.2421
     19 C         139.5070   75.1140  221.2650 C.3     1  UNL1        0.0889
     20 O         139.5850   75.3120  222.6610 O.3     1  UNL1       -0.3884
     21 C         138.0420   75.0430  220.8460 C.3     1  UNL1        0.0397
     22 N         137.2450   74.2440  221.7550 N.am    1  UNL1       -0.3088
     23 C         136.5820   74.7480  222.8900 C.2     1  UNL1        0.2442
     24 O         136.6660   75.9810  223.1630 O.2     1  UNL1       -0.2702
     25 C         135.7800   73.9420  223.8030 C.ar    1  UNL1        0.0373
     26 C         135.9370   72.5750  223.7900 C.ar    1  UNL1       -0.0490
     27 C         135.2050   71.7340  224.6340 C.ar    1  UNL1       -0.0533
     28 C         134.2960   72.2980  225.5080 C.ar    1  UNL1       -0.0178
     29 C         133.5830   71.4440  226.3340 C.ar    1  UNL1       -0.0540
     30 C         132.6830   72.0070  227.1980 C.ar    1  UNL1       -0.0612
     31 C         132.4650   73.3600  227.2760 C.ar    1  UNL1       -0.0612
     32 C         133.2020   74.1760  226.4280 C.ar    1  UNL1       -0.0540
     33 C         134.1210   73.6700  225.5380 C.ar    1  UNL1       -0.0172
     34 C         134.8660   74.4740  224.6850 C.ar    1  UNL1       -0.0419
     35 H         142.2509   70.8955  221.3654 H       1  UNL1        0.0232
     36 H         141.4128   71.4105  219.8624 H       1  UNL1        0.0232
     37 H         143.1937   71.1763  219.8624 H       1  UNL1        0.0232
     38 H         142.3602   73.0645  221.9322 H       1  UNL1        0.0296
     39 H         144.4254   73.5351  221.6224 H       1  UNL1        0.0232
     40 H         144.4804   72.6139  220.0813 H       1  UNL1        0.0232
     41 H         143.9639   74.3343  220.0813 H       1  UNL1        0.0232
     42 H         141.8248   74.8913  220.4311 H       1  UNL1        0.0286
     43 H         141.3414   73.5214  219.2637 H       1  UNL1        0.0286
     44 H         139.4711   73.2897  220.1447 H       1  UNL1        0.0524
     45 H         140.9890   73.4620  222.8530 H       1  UNL1        0.1494
     46 H         138.4780   69.5490  222.9739 H       1  UNL1        0.0641
     47 H         138.6934   68.3376  225.1364 H       1  UNL1        0.0625
     48 H         139.5374   68.3098  227.4690 H       1  UNL1        0.0624
     49 H         140.7173   69.3640  229.3044 H       1  UNL1        0.0618
     50 H         141.7165   71.6631  229.0203 H       1  UNL1        0.0618
     51 H         141.4294   72.7622  226.8111 H       1  UNL1        0.0639
     52 H         140.0370   75.9433  220.7737 H       1  UNL1        0.0627
     53 H         138.6960   75.1850  223.0690 H       1  UNL1        0.2099
     54 H         137.6321   76.0635  220.8206 H       1  UNL1        0.0488
     55 H         137.9994   74.5664  219.8555 H       1  UNL1        0.0488
     56 H         137.1380   73.2030  221.5750 H       1  UNL1        0.1491
     57 H         136.6619   72.1293  223.0930 H       1  UNL1        0.0625
     58 H         135.3503   70.6441  224.6026 H       1  UNL1        0.0624
     59 H         133.7345   70.3551  226.2968 H       1  UNL1        0.0624
     60 H         132.1075   71.3442  227.8609 H       1  UNL1        0.0618
     61 H         131.7349   73.7814  227.9827 H       1  UNL1        0.0618
     62 H         133.0457   75.2641  226.4692 H       1  UNL1        0.0624
     63 H         134.7222   75.5642  224.7147 H       1  UNL1        0.0631
@<TRIPOS>BOND
     1     1     2    1
     2     2     3    1
     3     2     4    1
     4     4     5    1
     5     5     6    1
     6     6     7   am
     7     7     8    2
     8     7     9    1
     9     9    10   ar
    10    10    11   ar
    11    11    12   ar
    12    12    13   ar
    13    13    14   ar
    14    14    15   ar
    15    15    16   ar
    16    16    17   ar
    17    17    18   ar
    18     5    19    1
    19    19    20    1
    20    19    21    1
    21    21    22    1
    22    22    23   am
    23    23    24    2
    24    23    25    1
    25    25    26   ar
    26    26    27   ar
    27    27    28   ar
    28    28    29   ar
    29    29    30   ar
    30    30    31   ar
    31    31    32   ar
    32    32    33   ar
    33    33    34   ar
    34    18     9   ar
    35    34    25   ar
    36    17    12   ar
    37    33    28   ar
    38     1    35    1
    39     1    36    1
    40     1    37    1
    41     2    38    1
    42     3    39    1
    43     3    40    1
    44     3    41    1
    45     4    42    1
    46     4    43    1
    47     5    44    1
    48     6    45    1
    49    10    46    1
    50    11    47    1
    51    13    48    1
    52    14    49    1
    53    15    50    1
    54    16    51    1
    55    19    52    1
    56    20    53    1
    57    21    54    1
    58    21    55    1
    59    22    56    1
    60    26    57    1
    61    27    58    1
    62    29    59    1
    63    30    60    1
    64    31    61    1
    65    32    62    1
    66    34    63    1
