@<TRIPOS>MOLECULE
*****
 61 66 0 0 0
SMALL
GASTEIGER

@<TRIPOS>ATOM
      1 O         137.1800   80.3040  221.7540 O.2     1  UNL1       -0.2680
      2 C         138.0390   80.5130  222.7180 C.2     1  UNL1        0.2672
      3 C         137.5240   81.2860  223.8040 C.ar    1  UNL1        0.1033
      4 C         137.3690   80.7370  225.0860 C.ar    1  UNL1       -0.0241
      5 C         136.7960   81.6580  225.9140 C.ar    1  UNL1        0.0006
      6 C         136.4350   81.5690  227.2290 C.ar    1  UNL1       -0.0499
      7 C         135.8350   82.6280  227.8770 C.ar    1  UNL1       -0.0258
      8 C         135.6130   83.7860  227.1430 C.ar    1  UNL1        0.1254
      9 F         135.0380   84.8160  227.7880 F       1  UNL1       -0.2054
     10 C         135.9920   83.8530  225.7920 C.ar    1  UNL1       -0.0025
     11 C         136.5920   82.7780  225.1650 C.ar    1  UNL1        0.0497
     12 N         137.0340   82.5290  223.9050 N.ar    1  UNL1       -0.3505
     13 N         139.3060   79.9340  222.4740 N.am    1  UNL1       -0.2651
     14 C         139.3980   78.8440  221.4630 C.3     1  UNL1        0.0310
     15 C         140.8350   78.5490  221.3450 C.3     1  UNL1        0.0275
     16 C         141.3660   78.6080  219.9380 C.3     1  UNL1       -0.0278
     17 C         142.0680   77.3030  219.7310 C.3     1  UNL1       -0.0002
     18 N         141.7970   76.4540  220.8270 N.3     1  UNL1       -0.3014
     19 C         141.3390   75.1240  220.5520 C.3     1  UNL1       -0.0008
     20 C         142.4160   74.1350  220.8250 C.3     1  UNL1       -0.0362
     21 C         143.7510   74.4670  220.2190 C.3     1  UNL1       -0.0262
     22 C         143.7430   74.2210  218.7440 C.3     1  UNL1       -0.0364
     23 C         144.7930   73.1300  218.5540 C.3     1  UNL1       -0.0038
     24 N         145.7300   73.4190  219.6150 N.3     1  UNL1       -0.3157
     25 C         144.9030   73.7030  220.7930 C.3     1  UNL1       -0.0012
     26 C         141.0920   77.1310  221.8430 C.3     1  UNL1        0.0101
     27 C         141.5180   79.4860  222.2450 C.ar    1  UNL1       -0.0170
     28 C         142.8880   79.6060  222.4580 C.ar    1  UNL1       -0.0562
     29 C         143.3710   80.5020  223.3670 C.ar    1  UNL1       -0.0614
     30 C         142.4440   81.2830  224.0680 C.ar    1  UNL1       -0.0600
     31 C         141.0900   81.1500  223.8410 C.ar    1  UNL1       -0.0400
     32 C         140.6000   80.2520  222.9240 C.ar    1  UNL1        0.0404
     33 H         137.6645   79.7188  225.3791 H       1  UNL1        0.0646
     34 H         136.6264   80.6364  227.7801 H       1  UNL1        0.0625
     35 H         135.5432   82.5583  228.9353 H       1  UNL1        0.0646
     36 H         135.8080   84.7768  225.2238 H       1  UNL1        0.0667
     37 H         136.9570   83.2410  223.1470 H       1  UNL1        0.1660
     38 H         138.8481   77.9543  221.8036 H       1  UNL1        0.0478
     39 H         138.9578   79.1386  220.4989 H       1  UNL1        0.0478
     40 H         140.5416   78.7214  219.2186 H       1  UNL1        0.0287
     41 H         142.0378   79.4658  219.7868 H       1  UNL1        0.0287
     42 H         141.7077   76.8338  218.8036 H       1  UNL1        0.0427
     43 H         143.1519   77.4733  219.6530 H       1  UNL1        0.0427
     44 H         140.4719   74.9005  221.1909 H       1  UNL1        0.0427
     45 H         141.0558   75.0576  219.4912 H       1  UNL1        0.0427
     46 H         142.5445   74.0624  221.9151 H       1  UNL1        0.0281
     47 H         142.0929   73.1920  220.3599 H       1  UNL1        0.0281
     48 H         143.8980   75.5310  220.4562 H       1  UNL1        0.0314
     49 H         142.7536   73.8759  218.4092 H       1  UNL1        0.0281
     50 H         143.9591   75.1273  218.1593 H       1  UNL1        0.0281
     51 H         144.3534   72.1286  218.6721 H       1  UNL1        0.0424
     52 H         145.2481   73.1252  217.5526 H       1  UNL1        0.0424
     53 H         146.2050   74.3380  219.3650 H       1  UNL1        0.1219
     54 H         144.5618   72.7725  221.2702 H       1  UNL1        0.0427
     55 H         145.4412   74.2547  221.5778 H       1  UNL1        0.0427
     56 H         140.1371   76.6226  222.0422 H       1  UNL1        0.0436
     57 H         141.6712   77.1444  222.7780 H       1  UNL1        0.0436
     58 H         143.5865   78.9742  221.8897 H       1  UNL1        0.0621
     59 H         144.4517   80.6071  223.5430 H       1  UNL1        0.0618
     60 H         142.8005   82.0127  224.8099 H       1  UNL1        0.0618
     61 H         140.3861   81.7775  224.4074 H       1  UNL1        0.0636
@<TRIPOS>BOND
     1     1     2    2
     2     2     3    1
     3     3     4   ar
     4     4     5   ar
     5     5     6   ar
     6     6     7   ar
     7     7     8   ar
     8     8     9    1
     9     8    10   ar
    10    10    11   ar
    11    11    12   ar
    12     2    13   am
    13    13    14    1
    14    15    14    1
    15    15    16    1
    16    16    17    1
    17    17    18    1
    18    18    19    1
    19    19    20    1
    20    20    21    1
    21    21    22    1
    22    22    23    1
    23    23    24    1
    24    24    25    1
    25    18    26    1
    26    15    27    1
    27    27    28   ar
    28    28    29   ar
    29    29    30   ar
    30    30    31   ar
    31    31    32   ar
    32    12     3   ar
    33    32    13    1
    34    11     5   ar
    35    26    15    1
    36    32    27   ar
    37    25    21    1
    38     4    33    1
    39     6    34    1
    40     7    35    1
    41    10    36    1
    42    12    37    1
    43    14    38    1
    44    14    39    1
    45    16    40    1
    46    16    41    1
    47    17    42    1
    48    17    43    1
    49    19    44    1
    50    19    45    1
    51    20    46    1
    52    20    47    1
    53    21    48    1
    54    22    49    1
    55    22    50    1
    56    23    51    1
    57    23    52    1
    58    24    53    1
    59    25    54    1
    60    25    55    1
    61    26    56    1
    62    26    57    1
    63    28    58    1
    64    29    59    1
    65    30    60    1
    66    31    61    1
