
     RDKit          3D

 63 66  0  0  0  0  0  0  0  0999 V2000
  136.2530   78.3570  220.0640 C   0  0  0  0  0  0  0  0  0  0  0  0
  136.9460   79.5690  220.1280 O   0  0  0  0  0  0  0  0  0  0  0  0
  138.2790   79.7600  219.8200 C   0  0  0  0  0  0  0  0  0  0  0  0
  138.8440   78.9760  218.8170 C   0  0  0  0  0  0  0  0  0  0  0  0
  140.1810   79.1180  218.4580 C   0  0  0  0  0  0  0  0  0  0  0  0
  141.0060   80.0570  219.0930 C   0  0  0  0  0  0  0  0  0  0  0  0
  142.3850   80.1470  218.6450 C   0  0  2  0  0  0  0  0  0  0  0  0
  142.6930   81.3120  217.7410 C   0  0  0  0  0  0  0  0  0  0  0  0
  142.9070   78.9390  218.0240 N   0  0  0  0  0  0  0  0  0  0  0  0
  142.8910   77.6700  218.6810 C   0  0  0  0  0  0  0  0  0  0  0  0
  142.4150   77.5280  219.8570 O   0  0  0  0  0  0  0  0  0  0  0  0
  143.4590   76.5240  217.9220 C   0  0  2  0  0  0  0  0  0  0  0  0
  142.9020   76.5080  216.4880 C   0  0  0  0  0  0  0  0  0  0  0  0
  141.4490   76.2100  216.7940 C   0  0  1  0  0  0  0  0  0  0  0  0
  140.7780   75.7010  215.6900 O   0  0  0  0  0  0  0  0  0  0  0  0
  141.4760   75.2420  217.9630 C   0  0  0  0  0  0  0  0  0  0  0  0
  142.8870   75.2680  218.3770 N   0  0  0  0  0  0  0  0  0  0  0  0
  143.5780   74.2260  219.0990 C   0  0  0  0  0  0  0  0  0  0  0  0
  144.5330   73.6290  218.5420 O   0  0  0  0  0  0  0  0  0  0  0  0
  143.1130   73.9140  220.4800 C   0  0  0  0  0  0  0  0  0  0  0  0
  142.3010   75.0100  220.9740 N   0  0  0  0  0  0  0  0  0  0  0  0
  141.0630   74.8290  221.6400 C   0  0  0  0  0  0  0  0  0  0  0  0
  140.5870   73.6650  221.8440 O   0  0  0  0  0  0  0  0  0  0  0  0
  140.3080   76.0030  222.1040 C   0  0  0  0  0  0  0  0  0  0  0  0
  138.9370   76.0130  222.2040 C   0  0  0  0  0  0  0  0  0  0  0  0
  138.2320   77.1260  222.6460 C   0  0  0  0  0  0  0  0  0  0  0  0
  138.9680   78.2340  222.9880 C   0  0  0  0  0  0  0  0  0  0  0  0
  138.3350   79.3820  223.4370 C   0  0  0  0  0  0  0  0  0  0  0  0
  139.0420   80.5230  223.7910 C   0  0  0  0  0  0  0  0  0  0  0  0
  138.4430   81.6510  224.2300 F   0  0  0  0  0  0  0  0  0  0  0  0
  140.4230   80.4770  223.6790 C   0  0  0  0  0  0  0  0  0  0  0  0
  141.0990   79.3640  223.2380 C   0  0  0  0  0  0  0  0  0  0  0  0
  140.3480   78.2390  222.8920 C   0  0  0  0  0  0  0  0  0  0  0  0
  140.9600   77.1240  222.4550 N   0  0  0  0  0  0  0  0  0  0  0  0
  140.4360   80.8370  220.0930 C   0  0  0  0  0  0  0  0  0  0  0  0
  141.4480   82.0060  220.8970 Cl  0  0  0  0  0  0  0  0  0  0  0  0
  139.0940   80.6790  220.4400 C   0  0  0  0  0  0  0  0  0  0  0  0
  136.0476   77.9978  221.0832 H   0  0  0  0  0  0  0  0  0  0  0  0
  135.3033   78.5055  219.5292 H   0  0  0  0  0  0  0  0  0  0  0  0
  136.8627   77.6138  219.5292 H   0  0  0  0  0  0  0  0  0  0  0  0
  138.2220   78.2310  218.2992 H   0  0  0  0  0  0  0  0  0  0  0  0
  140.5976   78.4827  217.6625 H   0  0  0  0  0  0  0  0  0  0  0  0
  142.9002   80.3055  219.6039 H   0  0  0  0  0  0  0  0  0  0  0  0
  142.9270   82.1972  218.3506 H   0  0  0  0  0  0  0  0  0  0  0  0
  143.5567   81.0652  217.1062 H   0  0  0  0  0  0  0  0  0  0  0  0
  141.8201   81.5243  217.1062 H   0  0  0  0  0  0  0  0  0  0  0  0
  143.3150   79.0130  217.0430 H   0  0  0  0  0  0  0  0  0  0  0  0
  144.5495   76.6239  218.0262 H   0  0  0  0  0  0  0  0  0  0  0  0
  143.0260   77.4798  215.9877 H   0  0  0  0  0  0  0  0  0  0  0  0
  143.3922   75.8028  215.8007 H   0  0  0  0  0  0  0  0  0  0  0  0
  140.8908   77.1225  217.0505 H   0  0  0  0  0  0  0  0  0  0  0  0
  141.0800   74.7820  215.5040 H   0  0  0  0  0  0  0  0  0  0  0  0
  140.8185   75.5842  218.7758 H   0  0  0  0  0  0  0  0  0  0  0  0
  141.1178   74.2352  217.7023 H   0  0  0  0  0  0  0  0  0  0  0  0
  142.5146   72.9911  220.4661 H   0  0  0  0  0  0  0  0  0  0  0  0
  143.9833   73.7756  221.1383 H   0  0  0  0  0  0  0  0  0  0  0  0
  142.6130   76.0140  220.8500 H   0  0  0  0  0  0  0  0  0  0  0  0
  138.3781   75.1078  221.9242 H   0  0  0  0  0  0  0  0  0  0  0  0
  137.1344   77.1199  222.7186 H   0  0  0  0  0  0  0  0  0  0  0  0
  137.2378   79.3894  223.5154 H   0  0  0  0  0  0  0  0  0  0  0  0
  141.0032   81.3699  223.9550 H   0  0  0  0  0  0  0  0  0  0  0  0
  142.1962   79.3600  223.1603 H   0  0  0  0  0  0  0  0  0  0  0  0
  138.6732   81.3106  221.2363 H   0  0  0  0  0  0  0  0  0  0  0  0
  1  2  1  0
  2  3  1  0
  3  4  2  0
  4  5  1  0
  5  6  2  0
  6  7  1  0
  7  8  1  0
  7  9  1  0
  9 10  1  0
 10 11  2  0
 10 12  1  0
 12 13  1  0
 13 14  1  0
 14 15  1  0
 14 16  1  0
 16 17  1  0
 17 18  1  0
 18 19  2  0
 18 20  1  0
 20 21  1  0
 21 22  1  0
 22 23  2  0
 22 24  1  0
 24 25  2  0
 25 26  1  0
 26 27  2  0
 27 28  1  0
 28 29  2  0
 29 30  1  0
 29 31  1  0
 31 32  2  0
 32 33  1  0
 33 34  2  0
  6 35  1  0
 35 36  1  0
 35 37  2  0
 37  3  1  0
 17 12  1  0
 34 24  1  0
 33 27  1  0
  1 38  1  0
  1 39  1  0
  1 40  1  0
  4 41  1  0
  5 42  1  0
  7 43  1  1
  8 44  1  0
  8 45  1  0
  8 46  1  0
  9 47  1  0
 12 48  1  6
 13 49  1  0
 13 50  1  0
 14 51  1  1
 15 52  1  0
 16 53  1  0
 16 54  1  0
 20 55  1  0
 20 56  1  0
 21 57  1  0
 25 58  1  0
 26 59  1  0
 28 60  1  0
 31 61  1  0
 32 62  1  0
 37 63  1  0
M  END
>  <smiles>  (1) 
COc1ccc([C@H](C)NC(=O)[C@@H]2C[C@@H](O)CN2C(=O)CNC(=O)c2ccc3cc(F)ccc3n2)c(Cl)c1

>  <score_type>  (1) 
oracle

>  <origin>  (1) 
autodockgpu

>  <m_score__min__energy>  (1) 
-9.0500000000000007

>  <m_primary>  (1) 
energy

>  <rmsd>  (1) 
6.271405692504703

>  <m_score__min__rmsd>  (1) 
6.271405692504703

>  <meeko>  (1) 
{"free_energy": -5.78, "intermolecular_energy": -8.46, "internal_energy": -4.9, "cluster_size": 5, "cluster_id": 15, "rank_in_cluster": 4}

>  <energy>  (1) 
-9.05

>  <cluster_rmsd>  (1) 
0.0

>  <cluster>  (1) 
1

$$$$

     RDKit          3D

 63 66  0  0  0  0  0  0  0  0999 V2000
  137.4670   84.1720  220.5980 C   0  0  0  0  0  0  0  0  0  0  0  0
  138.7630   84.1930  221.1200 O   0  0  0  0  0  0  0  0  0  0  0  0
  139.4690   83.1010  221.5860 C   0  0  0  0  0  0  0  0  0  0  0  0
  140.8530   83.0960  221.4340 C   0  0  0  0  0  0  0  0  0  0  0  0
  141.6230   82.0270  221.8820 C   0  0  0  0  0  0  0  0  0  0  0  0
  141.0330   80.9180  222.5020 C   0  0  0  0  0  0  0  0  0  0  0  0
  141.9150   79.8540  222.9500 C   0  0  2  0  0  0  0  0  0  0  0  0
  143.3660   80.2350  223.0880 C   0  0  0  0  0  0  0  0  0  0  0  0
  141.8380   78.6270  222.1720 N   0  0  0  0  0  0  0  0  0  0  0  0
  141.7990   78.6250  220.7440 C   0  0  0  0  0  0  0  0  0  0  0  0
  141.8290   79.7100  220.0700 O   0  0  0  0  0  0  0  0  0  0  0  0
  141.7220   77.2950  220.0850 C   0  0  2  0  0  0  0  0  0  0  0  0
  141.2860   77.4530  218.6180 C   0  0  0  0  0  0  0  0  0  0  0  0
  139.8770   77.9640  218.8360 C   0  0  1  0  0  0  0  0  0  0  0  0
  139.0780   77.7840  217.7150 O   0  0  0  0  0  0  0  0  0  0  0  0
  139.3630   77.2120  220.0510 C   0  0  0  0  0  0  0  0  0  0  0  0
  140.5700   76.5470  220.5600 N   0  0  0  0  0  0  0  0  0  0  0  0
  140.6020   75.3590  221.3800 C   0  0  0  0  0  0  0  0  0  0  0  0
  141.4270   75.2930  222.3260 O   0  0  0  0  0  0  0  0  0  0  0  0
  139.6440   74.2650  221.0530 C   0  0  0  0  0  0  0  0  0  0  0  0
  139.5630   73.3470  222.1740 N   0  0  0  0  0  0  0  0  0  0  0  0
  140.0670   72.0230  222.1390 C   0  0  0  0  0  0  0  0  0  0  0  0
  140.6310   71.5580  221.0950 O   0  0  0  0  0  0  0  0  0  0  0  0
  139.9370   71.1630  223.3250 C   0  0  0  0  0  0  0  0  0  0  0  0
  139.3640   69.9150  223.2800 C   0  0  0  0  0  0  0  0  0  0  0  0
  139.2480   69.1080  224.4050 C   0  0  0  0  0  0  0  0  0  0  0  0
  139.7370   69.6120  225.5860 C   0  0  0  0  0  0  0  0  0  0  0  0
  139.6560   68.8660  226.7500 C   0  0  0  0  0  0  0  0  0  0  0  0
  140.1370   69.3390  227.9640 C   0  0  0  0  0  0  0  0  0  0  0  0
  140.0670   68.6270  229.1100 F   0  0  0  0  0  0  0  0  0  0  0  0
  140.7100   70.6010  227.9730 C   0  0  0  0  0  0  0  0  0  0  0  0
  140.8140   71.3820  226.8450 C   0  0  0  0  0  0  0  0  0  0  0  0
  140.3160   70.8670  225.6470 C   0  0  0  0  0  0  0  0  0  0  0  0
  140.3920   71.5890  224.5150 N   0  0  0  0  0  0  0  0  0  0  0  0
  139.6500   80.9280  222.6510 C   0  0  0  0  0  0  0  0  0  0  0  0
  138.8980   79.5560  223.4160 Cl  0  0  0  0  0  0  0  0  0  0  0  0
  138.8940   82.0090  222.1950 C   0  0  0  0  0  0  0  0  0  0  0  0
  136.7396   84.1602  221.4230 H   0  0  0  0  0  0  0  0  0  0  0  0
  137.3060   85.0677  219.9800 H   0  0  0  0  0  0  0  0  0  0  0  0
  137.3352   83.2716  219.9800 H   0  0  0  0  0  0  0  0  0  0  0  0
  141.3465   83.9523  220.9512 H   0  0  0  0  0  0  0  0  0  0  0  0
  142.7144   82.0533  221.7469 H   0  0  0  0  0  0  0  0  0  0  0  0
  141.5097   79.6642  223.9548 H   0  0  0  0  0  0  0  0  0  0  0  0
  143.6273   80.3036  224.1543 H   0  0  0  0  0  0  0  0  0  0  0  0
  143.9932   79.4711  222.6052 H   0  0  0  0  0  0  0  0  0  0  0  0
  143.5370   81.2085  222.6052 H   0  0  0  0  0  0  0  0  0  0  0  0
  141.8100   77.6990  222.6960 H   0  0  0  0  0  0  0  0  0  0  0  0
  142.7042   76.8320  220.2608 H   0  0  0  0  0  0  0  0  0  0  0  0
  141.9094   78.1823  218.0799 H   0  0  0  0  0  0  0  0  0  0  0  0
  141.3671   76.5448  218.0026 H   0  0  0  0  0  0  0  0  0  0  0  0
  139.8586   79.0505  219.0068 H   0  0  0  0  0  0  0  0  0  0  0  0
  138.3520   78.4490  217.7050 H   0  0  0  0  0  0  0  0  0  0  0  0
  138.9475   77.9041  220.7982 H   0  0  0  0  0  0  0  0  0  0  0  0
  138.5477   76.5120  219.8158 H   0  0  0  0  0  0  0  0  0  0  0  0
  138.6501   74.6935  220.8565 H   0  0  0  0  0  0  0  0  0  0  0  0
  139.9918   73.7257  220.1596 H   0  0  0  0  0  0  0  0  0  0  0  0
  139.1110   73.6410  223.0850 H   0  0  0  0  0  0  0  0  0  0  0  0
  138.9832   69.5411  222.3181 H   0  0  0  0  0  0  0  0  0  0  0  0
  138.7858   68.1112  224.3526 H   0  0  0  0  0  0  0  0  0  0  0  0
  139.1963   67.8674  226.7118 H   0  0  0  0  0  0  0  0  0  0  0  0
  141.0986   70.9954  228.9235 H   0  0  0  0  0  0  0  0  0  0  0  0
  141.2747   72.3800  226.8860 H   0  0  0  0  0  0  0  0  0  0  0  0
  137.8021   81.9874  222.3268 H   0  0  0  0  0  0  0  0  0  0  0  0
  1  2  1  0
  2  3  1  0
  3  4  2  0
  4  5  1  0
  5  6  2  0
  6  7  1  0
  7  8  1  0
  7  9  1  0
  9 10  1  0
 10 11  2  0
 10 12  1  0
 12 13  1  0
 13 14  1  0
 14 15  1  0
 14 16  1  0
 16 17  1  0
 17 18  1  0
 18 19  2  0
 18 20  1  0
 20 21  1  0
 21 22  1  0
 22 23  2  0
 22 24  1  0
 24 25  2  0
 25 26  1  0
 26 27  2  0
 27 28  1  0
 28 29  2  0
 29 30  1  0
 29 31  1  0
 31 32  2  0
 32 33  1  0
 33 34  2  0
  6 35  1  0
 35 36  1  0
 35 37  2  0
 37  3  1  0
 17 12  1  0
 34 24  1  0
 33 27  1  0
  1 38  1  0
  1 39  1  0
  1 40  1  0
  4 41  1  0
  5 42  1  0
  7 43  1  1
  8 44  1  0
  8 45  1  0
  8 46  1  0
  9 47  1  0
 12 48  1  6
 13 49  1  0
 13 50  1  0
 14 51  1  1
 15 52  1  0
 16 53  1  0
 16 54  1  0
 20 55  1  0
 20 56  1  0
 21 57  1  0
 25 58  1  0
 26 59  1  0
 28 60  1  0
 31 61  1  0
 32 62  1  0
 37 63  1  0
M  END
>  <smiles>  (2) 
COc1ccc([C@H](C)NC(=O)[C@@H]2C[C@@H](O)CN2C(=O)CNC(=O)c2ccc3cc(F)ccc3n2)c(Cl)c1

>  <score_type>  (2) 
oracle

>  <origin>  (2) 
autodockgpu

>  <m_score__min__energy>  (2) 
-9.0500000000000007

>  <m_primary>  (2) 
energy

>  <rmsd>  (2) 
1.6724927640055183

>  <m_score__min__rmsd>  (2) 
1.6724927640055183

>  <meeko>  (2) 
{"free_energy": -8.29, "intermolecular_energy": -10.98, "internal_energy": -2.46, "cluster_size": 6, "cluster_id": 4, "rank_in_cluster": 3}

>  <energy>  (2) 
-9.03

>  <cluster_rmsd>  (2) 
0.29

>  <cluster>  (2) 
1

$$$$

     RDKit          3D

 63 66  0  0  0  0  0  0  0  0999 V2000
  132.2810   74.4080  227.2000 C   0  0  0  0  0  0  0  0  0  0  0  0
  133.5710   74.0290  226.8190 O   0  0  0  0  0  0  0  0  0  0  0  0
  134.2780   74.5240  225.7400 C   0  0  0  0  0  0  0  0  0  0  0  0
  135.0230   73.6310  224.9730 C   0  0  0  0  0  0  0  0  0  0  0  0
  135.7580   74.0640  223.8730 C   0  0  0  0  0  0  0  0  0  0  0  0
  135.7730   75.4150  223.4980 C   0  0  0  0  0  0  0  0  0  0  0  0
  136.5560   75.7760  222.3290 C   0  0  2  0  0  0  0  0  0  0  0  0
  136.1730   75.0680  221.0550 C   0  0  0  0  0  0  0  0  0  0  0  0
  137.9960   75.6620  222.4980 N   0  0  0  0  0  0  0  0  0  0  0  0
  138.8720   76.7860  222.3990 C   0  0  0  0  0  0  0  0  0  0  0  0
  138.4330   77.9600  222.1550 O   0  0  0  0  0  0  0  0  0  0  0  0
  140.3210   76.5170  222.5960 C   0  0  2  0  0  0  0  0  0  0  0  0
  141.0920   77.8400  222.7420 C   0  0  0  0  0  0  0  0  0  0  0  0
  140.8910   78.3960  221.3480 C   0  0  1  0  0  0  0  0  0  0  0  0
  141.8320   79.3660  221.0330 O   0  0  0  0  0  0  0  0  0  0  0  0
  140.9570   77.1920  220.4250 C   0  0  0  0  0  0  0  0  0  0  0  0
  140.9350   76.0580  221.3610 N   0  0  0  0  0  0  0  0  0  0  0  0
  141.4400   74.7320  221.0980 C   0  0  0  0  0  0  0  0  0  0  0  0
  142.6830   74.5420  221.0980 O   0  0  0  0  0  0  0  0  0  0  0  0
  140.4490   73.6510  220.8390 C   0  0  0  0  0  0  0  0  0  0  0  0
  140.4770   72.7000  221.9340 N   0  0  0  0  0  0  0  0  0  0  0  0
  139.3120   72.2210  222.5850 C   0  0  0  0  0  0  0  0  0  0  0  0
  138.1510   72.6110  222.2330 O   0  0  0  0  0  0  0  0  0  0  0  0
  139.4390   71.2580  223.6890 C   0  0  0  0  0  0  0  0  0  0  0  0
  138.9260   69.9840  223.6270 C   0  0  0  0  0  0  0  0  0  0  0  0
  139.0530   69.0790  224.6740 C   0  0  0  0  0  0  0  0  0  0  0  0
  139.7240   69.5110  225.7920 C   0  0  0  0  0  0  0  0  0  0  0  0
  139.8900   68.6650  226.8770 C   0  0  0  0  0  0  0  0  0  0  0  0
  140.5600   69.0620  228.0260 C   0  0  0  0  0  0  0  0  0  0  0  0
  140.7320   68.2530  229.0930 F   0  0  0  0  0  0  0  0  0  0  0  0
  141.0660   70.3530  228.0540 C   0  0  0  0  0  0  0  0  0  0  0  0
  140.9270   71.2310  227.0050 C   0  0  0  0  0  0  0  0  0  0  0  0
  140.2460   70.7900  225.8690 C   0  0  0  0  0  0  0  0  0  0  0  0
  140.0820   71.6080  224.8150 N   0  0  0  0  0  0  0  0  0  0  0  0
  135.0270   76.3010  224.2680 C   0  0  0  0  0  0  0  0  0  0  0  0
  135.0370   77.9850  223.8200 Cl  0  0  0  0  0  0  0  0  0  0  0  0
  134.2970   75.8480  225.3680 C   0  0  0  0  0  0  0  0  0  0  0  0
  132.2138   74.4277  228.2978 H   0  0  0  0  0  0  0  0  0  0  0  0
  132.0601   75.4090  226.8011 H   0  0  0  0  0  0  0  0  0  0  0  0
  131.5537   73.6856  226.8011 H   0  0  0  0  0  0  0  0  0  0  0  0
  135.0306   72.5643  225.2415 H   0  0  0  0  0  0  0  0  0  0  0  0
  136.3368   73.3340  223.2881 H   0  0  0  0  0  0  0  0  0  0  0  0
  136.2932   76.8394  222.2281 H   0  0  0  0  0  0  0  0  0  0  0  0
  135.6627   74.1246  221.2990 H   0  0  0  0  0  0  0  0  0  0  0  0
  135.4984   75.7086  220.4680 H   0  0  0  0  0  0  0  0  0  0  0  0
  137.0784   74.8540  220.4680 H   0  0  0  0  0  0  0  0  0  0  0  0
  138.4040   74.6990  222.7020 H   0  0  0  0  0  0  0  0  0  0  0  0
  140.3698   75.8215  223.4468 H   0  0  0  0  0  0  0  0  0  0  0  0
  140.6506   78.4903  223.5116 H   0  0  0  0  0  0  0  0  0  0  0  0
  142.1398   77.7405  223.0618 H   0  0  0  0  0  0  0  0  0  0  0  0
  139.9267   78.9164  221.2512 H   0  0  0  0  0  0  0  0  0  0  0  0
  142.7410   79.0230  221.1970 H   0  0  0  0  0  0  0  0  0  0  0  0
  140.0898   77.1638  219.7489 H   0  0  0  0  0  0  0  0  0  0  0  0
  141.8397   77.1961  219.7686 H   0  0  0  0  0  0  0  0  0  0  0  0
  139.4426   74.0874  220.7575 H   0  0  0  0  0  0  0  0  0  0  0  0
  140.7020   73.1376  219.8996 H   0  0  0  0  0  0  0  0  0  0  0  0
  141.3950   72.3180  222.2980 H   0  0  0  0  0  0  0  0  0  0  0  0
  138.3959   69.6697  222.7158 H   0  0  0  0  0  0  0  0  0  0  0  0
  138.6353   68.0634  224.6103 H   0  0  0  0  0  0  0  0  0  0  0  0
  139.4777   67.6465  226.8260 H   0  0  0  0  0  0  0  0  0  0  0  0
  141.6016   70.6890  228.9542 H   0  0  0  0  0  0  0  0  0  0  0  0
  141.3396   72.2492  227.0593 H   0  0  0  0  0  0  0  0  0  0  0  0
  133.7175   76.5741  225.9571 H   0  0  0  0  0  0  0  0  0  0  0  0
  1  2  1  0
  2  3  1  0
  3  4  2  0
  4  5  1  0
  5  6  2  0
  6  7  1  0
  7  8  1  0
  7  9  1  0
  9 10  1  0
 10 11  2  0
 10 12  1  0
 12 13  1  0
 13 14  1  0
 14 15  1  0
 14 16  1  0
 16 17  1  0
 17 18  1  0
 18 19  2  0
 18 20  1  0
 20 21  1  0
 21 22  1  0
 22 23  2  0
 22 24  1  0
 24 25  2  0
 25 26  1  0
 26 27  2  0
 27 28  1  0
 28 29  2  0
 29 30  1  0
 29 31  1  0
 31 32  2  0
 32 33  1  0
 33 34  2  0
  6 35  1  0
 35 36  1  0
 35 37  2  0
 37  3  1  0
 17 12  1  0
 34 24  1  0
 33 27  1  0
  1 38  1  0
  1 39  1  0
  1 40  1  0
  4 41  1  0
  5 42  1  0
  7 43  1  6
  8 44  1  0
  8 45  1  0
  8 46  1  0
  9 47  1  0
 12 48  1  1
 13 49  1  0
 13 50  1  0
 14 51  1  1
 15 52  1  0
 16 53  1  0
 16 54  1  0
 20 55  1  0
 20 56  1  0
 21 57  1  0
 25 58  1  0
 26 59  1  0
 28 60  1  0
 31 61  1  0
 32 62  1  0
 37 63  1  0
M  END
>  <smiles>  (3) 
COc1ccc([C@H](C)NC(=O)[C@@H]2C[C@@H](O)CN2C(=O)CNC(=O)c2ccc3cc(F)ccc3n2)c(Cl)c1

>  <score_type>  (3) 
oracle

>  <origin>  (3) 
autodockgpu

>  <m_score__min__energy>  (3) 
-9.0500000000000007

>  <m_primary>  (3) 
energy

>  <rmsd>  (3) 
6.5247645377961065

>  <m_score__min__rmsd>  (3) 
6.5247645377961065

>  <meeko>  (3) 
{"free_energy": -8.67, "intermolecular_energy": -11.35, "internal_energy": -2.9, "cluster_size": 9, "cluster_id": 1, "rank_in_cluster": 4}

>  <energy>  (3) 
-8.82

>  <cluster_rmsd>  (3) 
0.75

>  <cluster>  (3) 
1

$$$$

     RDKit          3D

 63 66  0  0  0  0  0  0  0  0999 V2000
  142.9540   81.1370  224.2120 C   0  0  0  0  0  0  0  0  0  0  0  0
  141.7480   80.8680  223.5600 O   0  0  0  0  0  0  0  0  0  0  0  0
  141.4930   79.7900  222.7350 C   0  0  0  0  0  0  0  0  0  0  0  0
  140.7610   78.7230  223.2510 C   0  0  0  0  0  0  0  0  0  0  0  0
  140.4690   77.6060  222.4740 C   0  0  0  0  0  0  0  0  0  0  0  0
  140.9010   77.5150  221.1440 C   0  0  0  0  0  0  0  0  0  0  0  0
  140.5400   76.3200  220.4030 C   0  0  2  0  0  0  0  0  0  0  0  0
  139.0650   76.0100  220.3600 C   0  0  0  0  0  0  0  0  0  0  0  0
  141.2460   75.1130  220.8050 N   0  0  0  0  0  0  0  0  0  0  0  0
  142.2580   74.5100  219.9960 C   0  0  0  0  0  0  0  0  0  0  0  0
  142.5980   75.0030  218.8680 O   0  0  0  0  0  0  0  0  0  0  0  0
  142.8940   73.2810  220.5380 C   0  0  2  0  0  0  0  0  0  0  0  0
  144.4260   73.4210  220.5160 C   0  0  0  0  0  0  0  0  0  0  0  0
  144.6470   73.4570  219.0180 C   0  0  1  0  0  0  0  0  0  0  0  0
  145.9540   73.1360  218.6760 O   0  0  0  0  0  0  0  0  0  0  0  0
  143.6330   72.4850  218.4410 C   0  0  0  0  0  0  0  0  0  0  0  0
  142.7770   72.1790  219.5960 N   0  0  0  0  0  0  0  0  0  0  0  0
  141.9720   70.9930  219.7650 C   0  0  0  0  0  0  0  0  0  0  0  0
  142.4490   69.8800  219.4300 O   0  0  0  0  0  0  0  0  0  0  0  0
  140.6030   71.1580  220.3320 C   0  0  0  0  0  0  0  0  0  0  0  0
  140.6130   70.7740  221.7300 N   0  0  0  0  0  0  0  0  0  0  0  0
  140.5430   71.7040  222.7980 C   0  0  0  0  0  0  0  0  0  0  0  0
  140.4660   72.9560  222.5800 O   0  0  0  0  0  0  0  0  0  0  0  0
  140.5610   71.2190  224.1870 C   0  0  0  0  0  0  0  0  0  0  0  0
  140.7590   72.0520  225.2620 C   0  0  0  0  0  0  0  0  0  0  0  0
  140.7720   71.5870  226.5710 C   0  0  0  0  0  0  0  0  0  0  0  0
  140.5750   70.2400  226.7550 C   0  0  0  0  0  0  0  0  0  0  0  0
  140.5750   69.7020  228.0320 C   0  0  0  0  0  0  0  0  0  0  0  0
  140.3800   68.3470  228.2620 C   0  0  0  0  0  0  0  0  0  0  0  0
  140.3770   67.8040  229.4980 F   0  0  0  0  0  0  0  0  0  0  0  0
  140.1830   67.5360  227.1540 C   0  0  0  0  0  0  0  0  0  0  0  0
  140.1740   68.0200  225.8670 C   0  0  0  0  0  0  0  0  0  0  0  0
  140.3740   69.3890  225.6830 C   0  0  0  0  0  0  0  0  0  0  0  0
  140.3750   69.9140  224.4450 N   0  0  0  0  0  0  0  0  0  0  0  0
  141.6320   78.5840  220.6350 C   0  0  0  0  0  0  0  0  0  0  0  0
  142.1810   78.4870  218.9840 Cl  0  0  0  0  0  0  0  0  0  0  0  0
  141.9150   79.6950  221.4300 C   0  0  0  0  0  0  0  0  0  0  0  0
  142.7981   81.1022  225.3003 H   0  0  0  0  0  0  0  0  0  0  0  0
  143.7022   80.3837  223.9245 H   0  0  0  0  0  0  0  0  0  0  0  0
  143.3112   82.1369  223.9245 H   0  0  0  0  0  0  0  0  0  0  0  0
  140.4073   78.7641  224.2918 H   0  0  0  0  0  0  0  0  0  0  0  0
  139.8889   76.7801  222.9115 H   0  0  0  0  0  0  0  0  0  0  0  0
  140.8660   76.6029  219.3912 H   0  0  0  0  0  0  0  0  0  0  0  0
  138.6774   75.9285  221.3862 H   0  0  0  0  0  0  0  0  0  0  0  0
  138.5361   76.8166  219.8312 H   0  0  0  0  0  0  0  0  0  0  0  0
  138.9055   75.0587  219.8312 H   0  0  0  0  0  0  0  0  0  0  0  0
  140.9930   74.6690  221.7400 H   0  0  0  0  0  0  0  0  0  0  0  0
  142.4269   73.1274  221.5220 H   0  0  0  0  0  0  0  0  0  0  0  0
  144.7612   74.3483  221.0035 H   0  0  0  0  0  0  0  0  0  0  0  0
  144.9776   72.6359  221.0539 H   0  0  0  0  0  0  0  0  0  0  0  0
  144.5030   74.4677  218.6084 H   0  0  0  0  0  0  0  0  0  0  0  0
  146.4890   73.9570  218.5740 H   0  0  0  0  0  0  0  0  0  0  0  0
  143.0531   72.9523  217.6315 H   0  0  0  0  0  0  0  0  0  0  0  0
  144.0934   71.5921  217.9930 H   0  0  0  0  0  0  0  0  0  0  0  0
  140.2925   72.2094  220.2421 H   0  0  0  0  0  0  0  0  0  0  0  0
  139.8967   70.5204  219.7801 H   0  0  0  0  0  0  0  0  0  0  0  0
  140.6760   69.7550  222.0130 H   0  0  0  0  0  0  0  0  0  0  0  0
  140.9127   73.1258  225.0793 H   0  0  0  0  0  0  0  0  0  0  0  0
  140.9327   72.2663  227.4212 H   0  0  0  0  0  0  0  0  0  0  0  0
  140.7347   70.3702  228.8911 H   0  0  0  0  0  0  0  0  0  0  0  0
  140.0272   66.4586  227.3119 H   0  0  0  0  0  0  0  0  0  0  0  0
  140.0142   67.3495  225.0097 H   0  0  0  0  0  0  0  0  0  0  0  0
  142.4956   80.5233  220.9979 H   0  0  0  0  0  0  0  0  0  0  0  0
  1  2  1  0
  2  3  1  0
  3  4  2  0
  4  5  1  0
  5  6  2  0
  6  7  1  0
  7  8  1  0
  7  9  1  0
  9 10  1  0
 10 11  2  0
 10 12  1  0
 12 13  1  0
 13 14  1  0
 14 15  1  0
 14 16  1  0
 16 17  1  0
 17 18  1  0
 18 19  2  0
 18 20  1  0
 20 21  1  0
 21 22  1  0
 22 23  2  0
 22 24  1  0
 24 25  2  0
 25 26  1  0
 26 27  2  0
 27 28  1  0
 28 29  2  0
 29 30  1  0
 29 31  1  0
 31 32  2  0
 32 33  1  0
 33 34  2  0
  6 35  1  0
 35 36  1  0
 35 37  2  0
 37  3  1  0
 17 12  1  0
 34 24  1  0
 33 27  1  0
  1 38  1  0
  1 39  1  0
  1 40  1  0
  4 41  1  0
  5 42  1  0
  7 43  1  6
  8 44  1  0
  8 45  1  0
  8 46  1  0
  9 47  1  0
 12 48  1  1
 13 49  1  0
 13 50  1  0
 14 51  1  6
 15 52  1  0
 16 53  1  0
 16 54  1  0
 20 55  1  0
 20 56  1  0
 21 57  1  0
 25 58  1  0
 26 59  1  0
 28 60  1  0
 31 61  1  0
 32 62  1  0
 37 63  1  0
M  END
>  <smiles>  (4) 
COc1ccc([C@H](C)NC(=O)[C@@H]2C[C@@H](O)CN2C(=O)CNC(=O)c2ccc3cc(F)ccc3n2)c(Cl)c1

>  <score_type>  (4) 
oracle

>  <origin>  (4) 
autodockgpu

>  <m_score__min__energy>  (4) 
-9.0500000000000007

>  <m_primary>  (4) 
energy

>  <rmsd>  (4) 
4.841133780246599

>  <m_score__min__rmsd>  (4) 
4.841133780246599

>  <meeko>  (4) 
{"free_energy": -8.67, "intermolecular_energy": -11.36, "internal_energy": -2.72, "cluster_size": 8, "cluster_id": 2, "rank_in_cluster": 6}

>  <energy>  (4) 
-8.67

>  <cluster_rmsd>  (4) 
1.26

>  <cluster>  (4) 
1

$$$$

     RDKit          3D

 63 66  0  0  0  0  0  0  0  0999 V2000
  136.4240   83.4880  221.9470 C   0  0  0  0  0  0  0  0  0  0  0  0
  136.7020   82.3990  222.7770 O   0  0  0  0  0  0  0  0  0  0  0  0
  137.9240   81.7680  222.9080 C   0  0  0  0  0  0  0  0  0  0  0  0
  138.1260   80.9450  224.0130 C   0  0  0  0  0  0  0  0  0  0  0  0
  139.3340   80.2800  224.2050 C   0  0  0  0  0  0  0  0  0  0  0  0
  140.3880   80.4150  223.2920 C   0  0  0  0  0  0  0  0  0  0  0  0
  141.6080   79.6740  223.5640 C   0  0  2  0  0  0  0  0  0  0  0  0
  142.8410   80.5160  223.7690 C   0  0  0  0  0  0  0  0  0  0  0  0
  141.9220   78.6360  222.5950 N   0  0  0  0  0  0  0  0  0  0  0  0
  140.9860   77.6220  222.2260 C   0  0  0  0  0  0  0  0  0  0  0  0
  139.8140   77.5730  222.7320 O   0  0  0  0  0  0  0  0  0  0  0  0
  141.4470   76.6270  221.2220 C   0  0  2  0  0  0  0  0  0  0  0  0
  141.4750   77.2610  219.8200 C   0  0  0  0  0  0  0  0  0  0  0  0
  139.9910   77.4880  219.6250 C   0  0  1  0  0  0  0  0  0  0  0  0
  139.6580   77.6400  218.2850 O   0  0  0  0  0  0  0  0  0  0  0  0
  139.3150   76.2890  220.2650 C   0  0  0  0  0  0  0  0  0  0  0  0
  140.4210   75.6280  220.9730 N   0  0  0  0  0  0  0  0  0  0  0  0
  140.4780   74.2350  221.3450 C   0  0  0  0  0  0  0  0  0  0  0  0
  141.5970   73.6640  221.4050 O   0  0  0  0  0  0  0  0  0  0  0  0
  139.1910   73.5430  221.6400 C   0  0  0  0  0  0  0  0  0  0  0  0
  139.3830   72.6240  222.7460 N   0  0  0  0  0  0  0  0  0  0  0  0
  139.1180   71.2340  222.6640 C   0  0  0  0  0  0  0  0  0  0  0  0
  138.6860   70.7060  221.5870 O   0  0  0  0  0  0  0  0  0  0  0  0
  139.3410   70.3790  223.8400 C   0  0  0  0  0  0  0  0  0  0  0  0
  138.9820   69.0530  223.8740 C   0  0  0  0  0  0  0  0  0  0  0  0
  139.1990   68.2520  224.9880 C   0  0  0  0  0  0  0  0  0  0  0  0
  139.7960   68.8440  226.0740 C   0  0  0  0  0  0  0  0  0  0  0  0
  140.0440   68.1100  227.2230 C   0  0  0  0  0  0  0  0  0  0  0  0
  140.6450   68.6700  228.3420 C   0  0  0  0  0  0  0  0  0  0  0  0
  140.8940   67.9710  229.4700 F   0  0  0  0  0  0  0  0  0  0  0  0
  140.9930   70.0100  228.2730 C   0  0  0  0  0  0  0  0  0  0  0  0
  140.7690   70.7830  227.1580 C   0  0  0  0  0  0  0  0  0  0  0  0
  140.1620   70.1780  226.0550 C   0  0  0  0  0  0  0  0  0  0  0  0
  139.9200   70.8890  224.9400 N   0  0  0  0  0  0  0  0  0  0  0  0
  140.1800   81.2390  222.1910 C   0  0  0  0  0  0  0  0  0  0  0  0
  141.4820   81.4240  221.0480 Cl  0  0  0  0  0  0  0  0  0  0  0  0
  138.9630   81.8990  222.0160 C   0  0  0  0  0  0  0  0  0  0  0  0
  136.1987   84.3707  222.5635 H   0  0  0  0  0  0  0  0  0  0  0  0
  137.2975   83.6975  221.3121 H   0  0  0  0  0  0  0  0  0  0  0  0
  135.5570   83.2532  221.3121 H   0  0  0  0  0  0  0  0  0  0  0  0
  137.3168   80.8181  224.7472 H   0  0  0  0  0  0  0  0  0  0  0  0
  139.4630   79.6377  225.0886 H   0  0  0  0  0  0  0  0  0  0  0  0
  141.3483   79.2001  224.5221 H   0  0  0  0  0  0  0  0  0  0  0  0
  143.0245   80.6413  224.8463 H   0  0  0  0  0  0  0  0  0  0  0  0
  143.7057   80.0189  223.3051 H   0  0  0  0  0  0  0  0  0  0  0  0
  142.6927   81.5023  223.3051 H   0  0  0  0  0  0  0  0  0  0  0  0
  142.8890   78.6390  222.1490 H   0  0  0  0  0  0  0  0  0  0  0  0
  142.4036   76.2494  221.6123 H   0  0  0  0  0  0  0  0  0  0  0  0
  142.0406   78.2043  219.8065 H   0  0  0  0  0  0  0  0  0  0  0  0
  141.9650   76.6584  219.0410 H   0  0  0  0  0  0  0  0  0  0  0  0
  139.6575   78.4260  220.0929 H   0  0  0  0  0  0  0  0  0  0  0  0
  140.4750   77.7330  217.7420 H   0  0  0  0  0  0  0  0  0  0  0  0
  138.5290   76.6055  220.9664 H   0  0  0  0  0  0  0  0  0  0  0  0
  138.8116   75.6346  219.5381 H   0  0  0  0  0  0  0  0  0  0  0  0
  138.4270   74.2872  221.9091 H   0  0  0  0  0  0  0  0  0  0  0  0
  138.8602   72.9857  220.7512 H   0  0  0  0  0  0  0  0  0  0  0  0
  139.7370   72.9680  223.6830 H   0  0  0  0  0  0  0  0  0  0  0  0
  138.5056   68.6098  222.9871 H   0  0  0  0  0  0  0  0  0  0  0  0
  138.9060   67.1918  224.9998 H   0  0  0  0  0  0  0  0  0  0  0  0
  139.7552   67.0489  227.2492 H   0  0  0  0  0  0  0  0  0  0  0  0
  141.4692   70.4754  229.1486 H   0  0  0  0  0  0  0  0  0  0  0  0
  141.0586   71.8440  227.1354 H   0  0  0  0  0  0  0  0  0  0  0  0
  138.8301   82.5453  221.1358 H   0  0  0  0  0  0  0  0  0  0  0  0
  1  2  1  0
  2  3  1  0
  3  4  2  0
  4  5  1  0
  5  6  2  0
  6  7  1  0
  7  8  1  0
  7  9  1  0
  9 10  1  0
 10 11  2  0
 10 12  1  0
 12 13  1  0
 13 14  1  0
 14 15  1  0
 14 16  1  0
 16 17  1  0
 17 18  1  0
 18 19  2  0
 18 20  1  0
 20 21  1  0
 21 22  1  0
 22 23  2  0
 22 24  1  0
 24 25  2  0
 25 26  1  0
 26 27  2  0
 27 28  1  0
 28 29  2  0
 29 30  1  0
 29 31  1  0
 31 32  2  0
 32 33  1  0
 33 34  2  0
  6 35  1  0
 35 36  1  0
 35 37  2  0
 37  3  1  0
 17 12  1  0
 34 24  1  0
 33 27  1  0
  1 38  1  0
  1 39  1  0
  1 40  1  0
  4 41  1  0
  5 42  1  0
  7 43  1  1
  8 44  1  0
  8 45  1  0
  8 46  1  0
  9 47  1  0
 12 48  1  1
 13 49  1  0
 13 50  1  0
 14 51  1  1
 15 52  1  0
 16 53  1  0
 16 54  1  0
 20 55  1  0
 20 56  1  0
 21 57  1  0
 25 58  1  0
 26 59  1  0
 28 60  1  0
 31 61  1  0
 32 62  1  0
 37 63  1  0
M  END
>  <smiles>  (5) 
COc1ccc([C@H](C)NC(=O)[C@@H]2C[C@@H](O)CN2C(=O)CNC(=O)c2ccc3cc(F)ccc3n2)c(Cl)c1

>  <score_type>  (5) 
oracle

>  <origin>  (5) 
autodockgpu

>  <m_score__min__energy>  (5) 
-9.0500000000000007

>  <m_primary>  (5) 
energy

>  <rmsd>  (5) 
2.363572667218935

>  <m_score__min__rmsd>  (5) 
2.363572667218935

>  <meeko>  (5) 
{"free_energy": -8.56, "intermolecular_energy": -11.24, "internal_energy": -2.12, "cluster_size": 6, "cluster_id": 4, "rank_in_cluster": 2}

>  <energy>  (5) 
-8.66

>  <cluster_rmsd>  (5) 
0.57

>  <cluster>  (5) 
1

$$$$

     RDKit          3D

 63 66  0  0  0  0  0  0  0  0999 V2000
  143.5670   82.7860  216.3420 C   0  0  0  0  0  0  0  0  0  0  0  0
  142.3880   82.6870  217.0860 O   0  0  0  0  0  0  0  0  0  0  0  0
  142.1470   81.7940  218.1130 C   0  0  0  0  0  0  0  0  0  0  0  0
  142.6190   80.4910  217.9790 C   0  0  0  0  0  0  0  0  0  0  0  0
  142.4110   79.5430  218.9750 C   0  0  0  0  0  0  0  0  0  0  0  0
  141.7190   79.8660  220.1500 C   0  0  0  0  0  0  0  0  0  0  0  0
  141.5600   78.8180  221.1440 C   0  0  2  0  0  0  0  0  0  0  0  0
  141.9740   79.1900  222.5440 C   0  0  0  0  0  0  0  0  0  0  0  0
  142.1910   77.5520  220.8040 N   0  0  0  0  0  0  0  0  0  0  0  0
  141.4440   76.3480  220.6180 C   0  0  0  0  0  0  0  0  0  0  0  0
  140.1730   76.3200  220.7430 O   0  0  0  0  0  0  0  0  0  0  0  0
  142.2250   75.1310  220.2730 C   0  0  2  0  0  0  0  0  0  0  0  0
  143.5590   75.5240  219.6140 C   0  0  0  0  0  0  0  0  0  0  0  0
  143.0290   76.1350  218.3340 C   0  0  1  0  0  0  0  0  0  0  0  0
  143.9970   76.1830  217.3400 O   0  0  0  0  0  0  0  0  0  0  0  0
  141.8330   75.2810  217.9490 C   0  0  0  0  0  0  0  0  0  0  0  0
  141.6340   74.4410  219.1390 N   0  0  0  0  0  0  0  0  0  0  0  0
  140.9750   73.1570  219.1690 C   0  0  0  0  0  0  0  0  0  0  0  0
  141.5950   72.1440  218.7550 O   0  0  0  0  0  0  0  0  0  0  0  0
  139.5810   73.1040  219.6930 C   0  0  0  0  0  0  0  0  0  0  0  0
  139.5370   72.2340  220.8520 N   0  0  0  0  0  0  0  0  0  0  0  0
  139.9970   72.6170  222.1370 C   0  0  0  0  0  0  0  0  0  0  0  0
  140.4860   73.7750  222.3460 O   0  0  0  0  0  0  0  0  0  0  0  0
  139.9130   71.6640  223.2550 C   0  0  0  0  0  0  0  0  0  0  0  0
  139.2790   70.4490  223.1490 C   0  0  0  0  0  0  0  0  0  0  0  0
  139.2070   69.5530  224.2090 C   0  0  0  0  0  0  0  0  0  0  0  0
  139.8030   69.9330  225.3870 C   0  0  0  0  0  0  0  0  0  0  0  0
  139.7710   69.0930  226.4880 C   0  0  0  0  0  0  0  0  0  0  0  0
  140.3610   69.4380  227.6970 C   0  0  0  0  0  0  0  0  0  0  0  0
  140.3400   68.6340  228.7810 F   0  0  0  0  0  0  0  0  0  0  0  0
  140.9910   70.6710  227.7680 C   0  0  0  0  0  0  0  0  0  0  0  0
  141.0500   71.5410  226.7040 C   0  0  0  0  0  0  0  0  0  0  0  0
  140.4440   71.1520  225.5080 C   0  0  0  0  0  0  0  0  0  0  0  0
  140.4720   71.9660  224.4380 N   0  0  0  0  0  0  0  0  0  0  0  0
  141.2500   81.1690  220.2790 C   0  0  0  0  0  0  0  0  0  0  0  0
  140.3840   81.5900  221.7310 Cl  0  0  0  0  0  0  0  0  0  0  0  0
  141.4680   82.1060  219.2680 C   0  0  0  0  0  0  0  0  0  0  0  0
  144.4264   82.8582  217.0247 H   0  0  0  0  0  0  0  0  0  0  0  0
  143.6764   81.8939  215.7078 H   0  0  0  0  0  0  0  0  0  0  0  0
  143.5261   83.6839  215.7078 H   0  0  0  0  0  0  0  0  0  0  0  0
  143.1666   80.2061  217.0685 H   0  0  0  0  0  0  0  0  0  0  0  0
  142.7964   78.5218  218.8381 H   0  0  0  0  0  0  0  0  0  0  0  0
  140.4679   78.6873  221.1286 H   0  0  0  0  0  0  0  0  0  0  0  0
  141.3579   78.6364  223.2679 H   0  0  0  0  0  0  0  0  0  0  0  0
  143.0335   78.9345  222.6932 H   0  0  0  0  0  0  0  0  0  0  0  0
  141.8329   80.2707  222.6932 H   0  0  0  0  0  0  0  0  0  0  0  0
  143.2500   77.5320  220.6910 H   0  0  0  0  0  0  0  0  0  0  0  0
  142.2875   74.5567  221.2091 H   0  0  0  0  0  0  0  0  0  0  0  0
  144.1166   76.2547  220.2183 H   0  0  0  0  0  0  0  0  0  0  0  0
  144.2775   74.7019  219.4802 H   0  0  0  0  0  0  0  0  0  0  0  0
  142.7355   77.1858  218.4740 H   0  0  0  0  0  0  0  0  0  0  0  0
  144.8050   75.7030  217.6300 H   0  0  0  0  0  0  0  0  0  0  0  0
  140.9484   75.9044  217.7520 H   0  0  0  0  0  0  0  0  0  0  0  0
  141.9917   74.7003  217.0284 H   0  0  0  0  0  0  0  0  0  0  0  0
  139.2579   74.1154  219.9804 H   0  0  0  0  0  0  0  0  0  0  0  0
  138.9093   72.7140  218.9140 H   0  0  0  0  0  0  0  0  0  0  0  0
  139.1490   71.2510  220.7790 H   0  0  0  0  0  0  0  0  0  0  0  0
  138.8120   70.1761  222.1911 H   0  0  0  0  0  0  0  0  0  0  0  0
  138.6962   68.5839  224.1093 H   0  0  0  0  0  0  0  0  0  0  0  0
  139.2620   68.1216  226.4020 H   0  0  0  0  0  0  0  0  0  0  0  0
  141.4641   70.9664  228.7161 H   0  0  0  0  0  0  0  0  0  0  0  0
  141.5585   72.5123  226.7928 H   0  0  0  0  0  0  0  0  0  0  0  0
  141.0840   83.1284  219.3991 H   0  0  0  0  0  0  0  0  0  0  0  0
  1  2  1  0
  2  3  1  0
  3  4  2  0
  4  5  1  0
  5  6  2  0
  6  7  1  0
  7  8  1  0
  7  9  1  0
  9 10  1  0
 10 11  2  0
 10 12  1  0
 12 13  1  0
 13 14  1  0
 14 15  1  0
 14 16  1  0
 16 17  1  0
 17 18  1  0
 18 19  2  0
 18 20  1  0
 20 21  1  0
 21 22  1  0
 22 23  2  0
 22 24  1  0
 24 25  2  0
 25 26  1  0
 26 27  2  0
 27 28  1  0
 28 29  2  0
 29 30  1  0
 29 31  1  0
 31 32  2  0
 32 33  1  0
 33 34  2  0
  6 35  1  0
 35 36  1  0
 35 37  2  0
 37  3  1  0
 17 12  1  0
 34 24  1  0
 33 27  1  0
  1 38  1  0
  1 39  1  0
  1 40  1  0
  4 41  1  0
  5 42  1  0
  7 43  1  1
  8 44  1  0
  8 45  1  0
  8 46  1  0
  9 47  1  0
 12 48  1  1
 13 49  1  0
 13 50  1  0
 14 51  1  1
 15 52  1  0
 16 53  1  0
 16 54  1  0
 20 55  1  0
 20 56  1  0
 21 57  1  0
 25 58  1  0
 26 59  1  0
 28 60  1  0
 31 61  1  0
 32 62  1  0
 37 63  1  0
M  END
>  <smiles>  (6) 
COc1ccc([C@H](C)NC(=O)[C@@H]2C[C@@H](O)CN2C(=O)CNC(=O)c2ccc3cc(F)ccc3n2)c(Cl)c1

>  <score_type>  (6) 
oracle

>  <origin>  (6) 
autodockgpu

>  <m_score__min__energy>  (6) 
-9.0500000000000007

>  <m_primary>  (6) 
energy

>  <rmsd>  (6) 
2.8893911584183503

>  <m_score__min__rmsd>  (6) 
2.8893911584183503

>  <meeko>  (6) 
{"free_energy": -8.62, "intermolecular_energy": -11.3, "internal_energy": -1.76, "cluster_size": 2, "cluster_id": 5, "rank_in_cluster": 1}

>  <energy>  (6) 
-8.49

>  <cluster_rmsd>  (6) 
1.27

>  <cluster>  (6) 
1

$$$$

     RDKit          3D

 63 66  0  0  0  0  0  0  0  0999 V2000
  133.5380   72.1610  226.9330 C   0  0  0  0  0  0  0  0  0  0  0  0
  133.5840   73.5410  226.7150 O   0  0  0  0  0  0  0  0  0  0  0  0
  134.3120   74.1850  225.7330 C   0  0  0  0  0  0  0  0  0  0  0  0
  134.3680   75.5760  225.7580 C   0  0  0  0  0  0  0  0  0  0  0  0
  135.0840   76.2860  224.7990 C   0  0  0  0  0  0  0  0  0  0  0  0
  135.7740   75.6250  223.7730 C   0  0  0  0  0  0  0  0  0  0  0  0
  136.5060   76.4450  222.8230 C   0  0  2  0  0  0  0  0  0  0  0  0
  135.9900   76.4060  221.4080 C   0  0  0  0  0  0  0  0  0  0  0  0
  137.9410   76.2100  222.7910 N   0  0  0  0  0  0  0  0  0  0  0  0
  138.8920   77.2740  222.7300 C   0  0  0  0  0  0  0  0  0  0  0  0
  138.5280   78.4990  222.6990 O   0  0  0  0  0  0  0  0  0  0  0  0
  140.3250   76.8820  222.7030 C   0  0  2  0  0  0  0  0  0  0  0  0
  141.2200   78.1340  222.7130 C   0  0  0  0  0  0  0  0  0  0  0  0
  140.8530   78.7070  221.3600 C   0  0  1  0  0  0  0  0  0  0  0  0
  141.8130   79.5940  220.8920 O   0  0  0  0  0  0  0  0  0  0  0  0
  140.6730   77.5030  220.4520 C   0  0  0  0  0  0  0  0  0  0  0  0
  140.7000   76.3750  221.3940 N   0  0  0  0  0  0  0  0  0  0  0  0
  141.0440   75.0100  221.0720 C   0  0  0  0  0  0  0  0  0  0  0  0
  142.2570   74.6860  221.0120 O   0  0  0  0  0  0  0  0  0  0  0  0
  139.9290   74.0530  220.8270 C   0  0  0  0  0  0  0  0  0  0  0  0
  139.7510   73.2130  221.9960 N   0  0  0  0  0  0  0  0  0  0  0  0
  140.3890   71.9570  222.1630 C   0  0  0  0  0  0  0  0  0  0  0  0
  141.1710   71.4900  221.2720 O   0  0  0  0  0  0  0  0  0  0  0  0
  140.1460   71.1740  223.3840 C   0  0  0  0  0  0  0  0  0  0  0  0
  139.4750   69.9750  223.3770 C   0  0  0  0  0  0  0  0  0  0  0  0
  139.2520   69.2400  224.5340 C   0  0  0  0  0  0  0  0  0  0  0  0
  139.7370   69.7640  225.7080 C   0  0  0  0  0  0  0  0  0  0  0  0
  139.5520   69.0890  226.9040 C   0  0  0  0  0  0  0  0  0  0  0  0
  140.0260   69.5850  228.1110 C   0  0  0  0  0  0  0  0  0  0  0  0
  139.8560   68.9420  229.2860 F   0  0  0  0  0  0  0  0  0  0  0  0
  140.6990   70.7970  228.0820 C   0  0  0  0  0  0  0  0  0  0  0  0
  140.9070   71.5060  226.9220 C   0  0  0  0  0  0  0  0  0  0  0  0
  140.4140   70.9700  225.7310 C   0  0  0  0  0  0  0  0  0  0  0  0
  140.5900   71.6240  224.5690 N   0  0  0  0  0  0  0  0  0  0  0  0
  135.7130   74.2360  223.7530 C   0  0  0  0  0  0  0  0  0  0  0  0
  136.5610   73.3970  222.4830 Cl  0  0  0  0  0  0  0  0  0  0  0  0
  134.9900   73.5410  224.7240 C   0  0  0  0  0  0  0  0  0  0  0  0
  133.5313   71.9607  228.0146 H   0  0  0  0  0  0  0  0  0  0  0  0
  132.6256   71.7481  226.4780 H   0  0  0  0  0  0  0  0  0  0  0  0
  134.4209   71.6883  226.4780 H   0  0  0  0  0  0  0  0  0  0  0  0
  133.8366   76.1237  226.5502 H   0  0  0  0  0  0  0  0  0  0  0  0
  135.1091   77.3847  224.8467 H   0  0  0  0  0  0  0  0  0  0  0  0
  136.3188   77.4484  223.2331 H   0  0  0  0  0  0  0  0  0  0  0  0
  134.8932   76.3231  221.4198 H   0  0  0  0  0  0  0  0  0  0  0  0
  136.2824   77.3288  220.8855 H   0  0  0  0  0  0  0  0  0  0  0  0
  136.4177   75.5376  220.8855 H   0  0  0  0  0  0  0  0  0  0  0  0
  138.2870   75.2020  222.8140 H   0  0  0  0  0  0  0  0  0  0  0  0
  140.4447   76.1830  223.5439 H   0  0  0  0  0  0  0  0  0  0  0  0
  140.9603   78.8187  223.5338 H   0  0  0  0  0  0  0  0  0  0  0  0
  142.2923   77.9445  222.8685 H   0  0  0  0  0  0  0  0  0  0  0  0
  139.9327   79.3077  221.4070 H   0  0  0  0  0  0  0  0  0  0  0  0
  142.7150   79.2480  221.0810 H   0  0  0  0  0  0  0  0  0  0  0  0
  139.7124   77.5499  219.9181 H   0  0  0  0  0  0  0  0  0  0  0  0
  141.4403   77.4321  219.6670 H   0  0  0  0  0  0  0  0  0  0  0  0
  139.0018   74.6117  220.6316 H   0  0  0  0  0  0  0  0  0  0  0  0
  140.1676   73.4253  219.9558 H   0  0  0  0  0  0  0  0  0  0  0  0
  139.1200   73.5150  222.7910 H   0  0  0  0  0  0  0  0  0  0  0  0
  139.1007   69.5829  222.4198 H   0  0  0  0  0  0  0  0  0  0  0  0
  138.7118   68.2821  224.5116 H   0  0  0  0  0  0  0  0  0  0  0  0
  139.0128   68.1303  226.8969 H   0  0  0  0  0  0  0  0  0  0  0  0
  141.0829   71.2089  229.0270 H   0  0  0  0  0  0  0  0  0  0  0  0
  141.4450   72.4654  226.9324 H   0  0  0  0  0  0  0  0  0  0  0  0
  134.9615   72.4422  224.6809 H   0  0  0  0  0  0  0  0  0  0  0  0
  1  2  1  0
  2  3  1  0
  3  4  2  0
  4  5  1  0
  5  6  2  0
  6  7  1  0
  7  8  1  0
  7  9  1  0
  9 10  1  0
 10 11  2  0
 10 12  1  0
 12 13  1  0
 13 14  1  0
 14 15  1  0
 14 16  1  0
 16 17  1  0
 17 18  1  0
 18 19  2  0
 18 20  1  0
 20 21  1  0
 21 22  1  0
 22 23  2  0
 22 24  1  0
 24 25  2  0
 25 26  1  0
 26 27  2  0
 27 28  1  0
 28 29  2  0
 29 30  1  0
 29 31  1  0
 31 32  2  0
 32 33  1  0
 33 34  2  0
  6 35  1  0
 35 36  1  0
 35 37  2  0
 37  3  1  0
 17 12  1  0
 34 24  1  0
 33 27  1  0
  1 38  1  0
  1 39  1  0
  1 40  1  0
  4 41  1  0
  5 42  1  0
  7 43  1  1
  8 44  1  0
  8 45  1  0
  8 46  1  0
  9 47  1  0
 12 48  1  1
 13 49  1  0
 13 50  1  0
 14 51  1  1
 15 52  1  0
 16 53  1  0
 16 54  1  0
 20 55  1  0
 20 56  1  0
 21 57  1  0
 25 58  1  0
 26 59  1  0
 28 60  1  0
 31 61  1  0
 32 62  1  0
 37 63  1  0
M  END
>  <smiles>  (7) 
COc1ccc([C@H](C)NC(=O)[C@@H]2C[C@@H](O)CN2C(=O)CNC(=O)c2ccc3cc(F)ccc3n2)c(Cl)c1

>  <score_type>  (7) 
oracle

>  <origin>  (7) 
autodockgpu

>  <m_score__min__energy>  (7) 
-9.0500000000000007

>  <m_primary>  (7) 
energy

>  <rmsd>  (7) 
6.724958835162295

>  <m_score__min__rmsd>  (7) 
6.724958835162295

>  <meeko>  (7) 
{"free_energy": -9.05, "intermolecular_energy": -11.73, "internal_energy": -2.04, "cluster_size": 9, "cluster_id": 1, "rank_in_cluster": 1}

>  <energy>  (7) 
-8.1

>  <cluster_rmsd>  (7) 
1.7

>  <cluster>  (7) 
1

$$$$

     RDKit          3D

 63 66  0  0  0  0  0  0  0  0999 V2000
  142.7200   81.1690  224.0900 C   0  0  0  0  0  0  0  0  0  0  0  0
  141.5390   80.4470  223.8960 O   0  0  0  0  0  0  0  0  0  0  0  0
  141.3270   79.4770  222.9350 C   0  0  0  0  0  0  0  0  0  0  0  0
  141.9840   79.6030  221.7140 C   0  0  0  0  0  0  0  0  0  0  0  0
  141.8150   78.6620  220.7030 C   0  0  0  0  0  0  0  0  0  0  0  0
  140.9770   77.5530  220.8790 C   0  0  0  0  0  0  0  0  0  0  0  0
  140.8710   76.6130  219.7760 C   0  0  2  0  0  0  0  0  0  0  0  0
  139.4970   76.4850  219.1700 C   0  0  0  0  0  0  0  0  0  0  0  0
  141.3680   75.2760  220.0610 N   0  0  0  0  0  0  0  0  0  0  0  0
  142.7630   74.9810  220.1610 C   0  0  0  0  0  0  0  0  0  0  0  0
  143.6530   75.8830  220.0030 O   0  0  0  0  0  0  0  0  0  0  0  0
  143.1220   73.5700  220.4570 C   0  0  2  0  0  0  0  0  0  0  0  0
  144.6480   73.4270  220.5940 C   0  0  0  0  0  0  0  0  0  0  0  0
  145.0510   73.7360  219.1670 C   0  0  1  0  0  0  0  0  0  0  0  0
  146.3200   73.2590  218.8680 O   0  0  0  0  0  0  0  0  0  0  0  0
  143.9700   73.1100  218.3020 C   0  0  0  0  0  0  0  0  0  0  0  0
  142.9430   72.7310  219.2830 N   0  0  0  0  0  0  0  0  0  0  0  0
  141.9430   71.7060  219.1100 C   0  0  0  0  0  0  0  0  0  0  0  0
  142.2860   70.5940  218.6330 O   0  0  0  0  0  0  0  0  0  0  0  0
  140.5440   72.0260  219.5110 C   0  0  0  0  0  0  0  0  0  0  0  0
  140.2550   71.4020  220.7880 N   0  0  0  0  0  0  0  0  0  0  0  0
  140.2760   72.0990  222.0230 C   0  0  0  0  0  0  0  0  0  0  0  0
  140.5580   73.3400  222.0750 O   0  0  0  0  0  0  0  0  0  0  0  0
  139.9710   71.3810  223.2690 C   0  0  0  0  0  0  0  0  0  0  0  0
  139.1080   70.3120  223.3190 C   0  0  0  0  0  0  0  0  0  0  0  0
  138.8270   69.6370  224.5000 C   0  0  0  0  0  0  0  0  0  0  0  0
  139.4550   70.0850  225.6380 C   0  0  0  0  0  0  0  0  0  0  0  0
  139.2230   69.4630  226.8540 C   0  0  0  0  0  0  0  0  0  0  0  0
  139.8360   69.8840  228.0260 C   0  0  0  0  0  0  0  0  0  0  0  0
  139.6240   69.2920  229.2210 F   0  0  0  0  0  0  0  0  0  0  0  0
  140.7010   70.9650  227.9390 C   0  0  0  0  0  0  0  0  0  0  0  0
  140.9640   71.6170  226.7570 C   0  0  0  0  0  0  0  0  0  0  0  0
  140.3250   71.1600  225.6030 C   0  0  0  0  0  0  0  0  0  0  0  0
  140.5460   71.7610  224.4220 N   0  0  0  0  0  0  0  0  0  0  0  0
  140.3230   77.4320  222.1000 C   0  0  0  0  0  0  0  0  0  0  0  0
  139.2740   76.0610  222.3360 Cl  0  0  0  0  0  0  0  0  0  0  0  0
  140.5050   78.3870  223.1020 C   0  0  0  0  0  0  0  0  0  0  0  0
  142.9070   81.2833  225.1679 H   0  0  0  0  0  0  0  0  0  0  0  0
  143.5597   80.6297  223.6274 H   0  0  0  0  0  0  0  0  0  0  0  0
  142.6227   82.1622  223.6274 H   0  0  0  0  0  0  0  0  0  0  0  0
  142.6492   80.4627  221.5454 H   0  0  0  0  0  0  0  0  0  0  0  0
  142.3483   78.7909  219.7496 H   0  0  0  0  0  0  0  0  0  0  0  0
  141.5338   77.0893  219.0386 H   0  0  0  0  0  0  0  0  0  0  0  0
  138.7475   76.4152  219.9721 H   0  0  0  0  0  0  0  0  0  0  0  0
  139.2870   77.3675  218.5478 H   0  0  0  0  0  0  0  0  0  0  0  0
  139.4536   75.5789  218.5478 H   0  0  0  0  0  0  0  0  0  0  0  0
  140.6590   74.4930  220.1990 H   0  0  0  0  0  0  0  0  0  0  0  0
  142.5202   73.3015  221.3378 H   0  0  0  0  0  0  0  0  0  0  0  0
  145.0669   74.1532  221.3061 H   0  0  0  0  0  0  0  0  0  0  0  0
  144.9968   72.4587  220.9822 H   0  0  0  0  0  0  0  0  0  0  0  0
  145.1226   74.8192  218.9893 H   0  0  0  0  0  0  0  0  0  0  0  0
  146.8990   73.9990  218.5710 H   0  0  0  0  0  0  0  0  0  0  0  0
  143.5749   73.8354  217.5756 H   0  0  0  0  0  0  0  0  0  0  0  0
  144.3310   72.2621  217.7014 H   0  0  0  0  0  0  0  0  0  0  0  0
  140.4280   73.1162  219.6005 H   0  0  0  0  0  0  0  0  0  0  0  0
  139.8471   71.6456  218.7497 H   0  0  0  0  0  0  0  0  0  0  0  0
  140.0110   70.3730  220.8470 H   0  0  0  0  0  0  0  0  0  0  0  0
  138.6223   69.9791  222.3899 H   0  0  0  0  0  0  0  0  0  0  0  0
  138.1338   68.7832  224.5237 H   0  0  0  0  0  0  0  0  0  0  0  0
  138.5312   68.6086  226.8919 H   0  0  0  0  0  0  0  0  0  0  0  0
  141.1982   71.3160  228.8553 H   0  0  0  0  0  0  0  0  0  0  0  0
  141.6559   72.4714  226.7220 H   0  0  0  0  0  0  0  0  0  0  0  0
  139.9732   78.2636  224.0570 H   0  0  0  0  0  0  0  0  0  0  0  0
  1  2  1  0
  2  3  1  0
  3  4  2  0
  4  5  1  0
  5  6  2  0
  6  7  1  0
  7  8  1  0
  7  9  1  0
  9 10  1  0
 10 11  2  0
 10 12  1  0
 12 13  1  0
 13 14  1  0
 14 15  1  0
 14 16  1  0
 16 17  1  0
 17 18  1  0
 18 19  2  0
 18 20  1  0
 20 21  1  0
 21 22  1  0
 22 23  2  0
 22 24  1  0
 24 25  2  0
 25 26  1  0
 26 27  2  0
 27 28  1  0
 28 29  2  0
 29 30  1  0
 29 31  1  0
 31 32  2  0
 32 33  1  0
 33 34  2  0
  6 35  1  0
 35 36  1  0
 35 37  2  0
 37  3  1  0
 17 12  1  0
 34 24  1  0
 33 27  1  0
  1 38  1  0
  1 39  1  0
  1 40  1  0
  4 41  1  0
  5 42  1  0
  7 43  1  6
  8 44  1  0
  8 45  1  0
  8 46  1  0
  9 47  1  0
 12 48  1  1
 13 49  1  0
 13 50  1  0
 14 51  1  1
 15 52  1  0
 16 53  1  0
 16 54  1  0
 20 55  1  0
 20 56  1  0
 21 57  1  0
 25 58  1  0
 26 59  1  0
 28 60  1  0
 31 61  1  0
 32 62  1  0
 37 63  1  0
M  END
>  <smiles>  (8) 
COc1ccc([C@H](C)NC(=O)[C@@H]2C[C@@H](O)CN2C(=O)CNC(=O)c2ccc3cc(F)ccc3n2)c(Cl)c1

>  <score_type>  (8) 
oracle

>  <origin>  (8) 
autodockgpu

>  <m_score__min__energy>  (8) 
-9.0500000000000007

>  <m_primary>  (8) 
energy

>  <rmsd>  (8) 
4.354380155273056

>  <m_score__min__rmsd>  (8) 
4.354380155273056

>  <meeko>  (8) 
{"free_energy": -8.97, "intermolecular_energy": -11.66, "internal_energy": -2.75, "cluster_size": 8, "cluster_id": 2, "rank_in_cluster": 1}

>  <energy>  (8) 
-7.68

>  <cluster_rmsd>  (8) 
1.21

>  <cluster>  (8) 
1

$$$$

     RDKit          3D

 63 66  0  0  0  0  0  0  0  0999 V2000
  136.1900   78.3370  219.7880 C   0  0  0  0  0  0  0  0  0  0  0  0
  136.9440   79.4670  220.1190 O   0  0  0  0  0  0  0  0  0  0  0  0
  138.2670   79.6860  219.7890 C   0  0  0  0  0  0  0  0  0  0  0  0
  138.8120   78.9660  218.7290 C   0  0  0  0  0  0  0  0  0  0  0  0
  140.1380   79.1390  218.3450 C   0  0  0  0  0  0  0  0  0  0  0  0
  140.9730   80.0450  219.0130 C   0  0  0  0  0  0  0  0  0  0  0  0
  142.3390   80.1720  218.5370 C   0  0  2  0  0  0  0  0  0  0  0  0
  142.5790   81.2930  217.5580 C   0  0  0  0  0  0  0  0  0  0  0  0
  142.9090   78.9540  217.9820 N   0  0  0  0  0  0  0  0  0  0  0  0
  142.8680   77.7030  218.6710 C   0  0  0  0  0  0  0  0  0  0  0  0
  142.3240   77.5880  219.8210 O   0  0  0  0  0  0  0  0  0  0  0  0
  143.4910   76.5440  217.9800 C   0  0  2  0  0  0  0  0  0  0  0  0
  142.9900   76.4590  216.5280 C   0  0  0  0  0  0  0  0  0  0  0  0
  141.5330   76.1370  216.7900 C   0  0  1  0  0  0  0  0  0  0  0  0
  140.9170   75.5690  215.6830 O   0  0  0  0  0  0  0  0  0  0  0  0
  141.5390   75.2150  217.9960 C   0  0  0  0  0  0  0  0  0  0  0  0
  142.9320   75.2920  218.4610 N   0  0  0  0  0  0  0  0  0  0  0  0
  143.6190   74.2960  219.2490 C   0  0  0  0  0  0  0  0  0  0  0  0
  144.6800   73.7910  218.8020 O   0  0  0  0  0  0  0  0  0  0  0  0
  143.0240   73.9180  220.5620 C   0  0  0  0  0  0  0  0  0  0  0  0
  142.2210   75.0180  221.0600 N   0  0  0  0  0  0  0  0  0  0  0  0
  140.9220   74.8560  221.6030 C   0  0  0  0  0  0  0  0  0  0  0  0
  140.3780   73.7060  221.6830 O   0  0  0  0  0  0  0  0  0  0  0  0
  140.1810   76.0320  222.0820 C   0  0  0  0  0  0  0  0  0  0  0  0
  138.8100   76.0620  222.1720 C   0  0  0  0  0  0  0  0  0  0  0  0
  138.1180   77.1770  222.6290 C   0  0  0  0  0  0  0  0  0  0  0  0
  138.8670   78.2680  222.9950 C   0  0  0  0  0  0  0  0  0  0  0  0
  138.2480   79.4170  223.4600 C   0  0  0  0  0  0  0  0  0  0  0  0
  138.9680   80.5410  223.8390 C   0  0  0  0  0  0  0  0  0  0  0  0
  138.3830   81.6700  224.2940 F   0  0  0  0  0  0  0  0  0  0  0  0
  140.3500   80.4770  223.7360 C   0  0  0  0  0  0  0  0  0  0  0  0
  141.0130   79.3610  223.2810 C   0  0  0  0  0  0  0  0  0  0  0  0
  140.2480   78.2540  222.9100 C   0  0  0  0  0  0  0  0  0  0  0  0
  140.8460   77.1370  222.4580 N   0  0  0  0  0  0  0  0  0  0  0  0
  140.4240   80.7610  220.0710 C   0  0  0  0  0  0  0  0  0  0  0  0
  141.4480   81.8900  220.9160 Cl  0  0  0  0  0  0  0  0  0  0  0  0
  139.0910   80.5730  220.4420 C   0  0  0  0  0  0  0  0  0  0  0  0
  135.8560   77.8364  220.7088 H   0  0  0  0  0  0  0  0  0  0  0  0
  135.3133   78.6413  219.1974 H   0  0  0  0  0  0  0  0  0  0  0  0
  136.8075   77.6443  219.1974 H   0  0  0  0  0  0  0  0  0  0  0  0
  138.1822   78.2468  218.1849 H   0  0  0  0  0  0  0  0  0  0  0  0
  140.5377   78.5549  217.5030 H   0  0  0  0  0  0  0  0  0  0  0  0
  142.8592   80.4137  219.4756 H   0  0  0  0  0  0  0  0  0  0  0  0
  142.7784   82.2242  218.1085 H   0  0  0  0  0  0  0  0  0  0  0  0
  143.4451   81.0483  216.9256 H   0  0  0  0  0  0  0  0  0  0  0  0
  141.6886   81.4244  216.9256 H   0  0  0  0  0  0  0  0  0  0  0  0
  143.3740   79.0060  217.0240 H   0  0  0  0  0  0  0  0  0  0  0  0
  144.5739   76.6754  218.1218 H   0  0  0  0  0  0  0  0  0  0  0  0
  143.1107   77.4136  215.9949 H   0  0  0  0  0  0  0  0  0  0  0  0
  143.5227   75.7400  215.8883 H   0  0  0  0  0  0  0  0  0  0  0  0
  140.9438   77.0444  216.9885 H   0  0  0  0  0  0  0  0  0  0  0  0
  141.0200   74.5900  215.7030 H   0  0  0  0  0  0  0  0  0  0  0  0
  140.8431   75.5711  218.7699 H   0  0  0  0  0  0  0  0  0  0  0  0
  141.2153   74.1903  217.7612 H   0  0  0  0  0  0  0  0  0  0  0  0
  142.3897   73.0282  220.4352 H   0  0  0  0  0  0  0  0  0  0  0  0
  143.8274   73.6946  221.2794 H   0  0  0  0  0  0  0  0  0  0  0  0
  142.5860   76.0120  221.0350 H   0  0  0  0  0  0  0  0  0  0  0  0
  138.2396   75.1708  221.8713 H   0  0  0  0  0  0  0  0  0  0  0  0
  137.0200   77.1852  222.6946 H   0  0  0  0  0  0  0  0  0  0  0  0
  137.1505   79.4389  223.5310 H   0  0  0  0  0  0  0  0  0  0  0  0
  140.9411   81.3566  224.0309 H   0  0  0  0  0  0  0  0  0  0  0  0
  142.1106   79.3416  223.2118 H   0  0  0  0  0  0  0  0  0  0  0  0
  138.6865   81.1534  221.2843 H   0  0  0  0  0  0  0  0  0  0  0  0
  1  2  1  0
  2  3  1  0
  3  4  2  0
  4  5  1  0
  5  6  2  0
  6  7  1  0
  7  8  1  0
  7  9  1  0
  9 10  1  0
 10 11  2  0
 10 12  1  0
 12 13  1  0
 13 14  1  0
 14 15  1  0
 14 16  1  0
 16 17  1  0
 17 18  1  0
 18 19  2  0
 18 20  1  0
 20 21  1  0
 21 22  1  0
 22 23  2  0
 22 24  1  0
 24 25  2  0
 25 26  1  0
 26 27  2  0
 27 28  1  0
 28 29  2  0
 29 30  1  0
 29 31  1  0
 31 32  2  0
 32 33  1  0
 33 34  2  0
  6 35  1  0
 35 36  1  0
 35 37  2  0
 37  3  1  0
 17 12  1  0
 34 24  1  0
 33 27  1  0
  1 38  1  0
  1 39  1  0
  1 40  1  0
  4 41  1  0
  5 42  1  0
  7 43  1  1
  8 44  1  0
  8 45  1  0
  8 46  1  0
  9 47  1  0
 12 48  1  6
 13 49  1  0
 13 50  1  0
 14 51  1  1
 15 52  1  0
 16 53  1  0
 16 54  1  0
 20 55  1  0
 20 56  1  0
 21 57  1  0
 25 58  1  0
 26 59  1  0
 28 60  1  0
 31 61  1  0
 32 62  1  0
 37 63  1  0
M  END
>  <smiles>  (9) 
COc1ccc([C@H](C)NC(=O)[C@@H]2C[C@@H](O)CN2C(=O)CNC(=O)c2ccc3cc(F)ccc3n2)c(Cl)c1

>  <score_type>  (9) 
oracle

>  <origin>  (9) 
autodockgpu

>  <m_score__min__energy>  (9) 
-9.0500000000000007

>  <m_primary>  (9) 
energy

>  <rmsd>  (9) 
6.287616303721266

>  <m_score__min__rmsd>  (9) 
6.287616303721266

>  <meeko>  (9) 
{"free_energy": -5.7, "intermolecular_energy": -8.39, "internal_energy": -4.92, "cluster_size": 5, "cluster_id": 15, "rank_in_cluster": 5}

>  <energy>  (9) 
-7.3

>  <cluster_rmsd>  (9) 
1.21

>  <cluster>  (9) 
1

$$$$

     RDKit          3D

 63 66  0  0  0  0  0  0  0  0999 V2000
  132.2260   74.2000  227.0730 C   0  0  0  0  0  0  0  0  0  0  0  0
  133.5960   74.0510  226.8390 O   0  0  0  0  0  0  0  0  0  0  0  0
  134.2920   74.5410  225.7520 C   0  0  0  0  0  0  0  0  0  0  0  0
  135.0170   73.6420  224.9720 C   0  0  0  0  0  0  0  0  0  0  0  0
  135.7400   74.0700  223.8630 C   0  0  0  0  0  0  0  0  0  0  0  0
  135.7650   75.4210  223.4910 C   0  0  0  0  0  0  0  0  0  0  0  0
  136.5350   75.7760  222.3120 C   0  0  2  0  0  0  0  0  0  0  0  0
  136.1360   75.0650  221.0440 C   0  0  0  0  0  0  0  0  0  0  0  0
  137.9770   75.6600  222.4640 N   0  0  0  0  0  0  0  0  0  0  0  0
  138.8390   76.7980  222.5030 C   0  0  0  0  0  0  0  0  0  0  0  0
  138.3850   77.9880  222.4040 O   0  0  0  0  0  0  0  0  0  0  0  0
  140.2920   76.5250  222.6640 C   0  0  2  0  0  0  0  0  0  0  0  0
  141.0750   77.8460  222.7470 C   0  0  0  0  0  0  0  0  0  0  0  0
  140.8360   78.3600  221.3420 C   0  0  1  0  0  0  0  0  0  0  0  0
  141.7730   79.3140  220.9700 O   0  0  0  0  0  0  0  0  0  0  0  0
  140.8670   77.1280  220.4550 C   0  0  0  0  0  0  0  0  0  0  0  0
  140.8650   76.0250  221.4260 N   0  0  0  0  0  0  0  0  0  0  0  0
  141.3540   74.6870  221.1900 C   0  0  0  0  0  0  0  0  0  0  0  0
  142.5940   74.4800  221.2050 O   0  0  0  0  0  0  0  0  0  0  0  0
  140.3500   73.6160  220.9390 C   0  0  0  0  0  0  0  0  0  0  0  0
  140.3920   72.6530  222.0230 N   0  0  0  0  0  0  0  0  0  0  0  0
  139.2360   72.1670  222.6840 C   0  0  0  0  0  0  0  0  0  0  0  0
  138.0710   72.5590  222.3510 O   0  0  0  0  0  0  0  0  0  0  0  0
  139.3780   71.1920  223.7760 C   0  0  0  0  0  0  0  0  0  0  0  0
  138.8550   69.9220  223.7120 C   0  0  0  0  0  0  0  0  0  0  0  0
  138.9960   69.0060  224.7470 C   0  0  0  0  0  0  0  0  0  0  0  0
  139.6910   69.4230  225.8560 C   0  0  0  0  0  0  0  0  0  0  0  0
  139.8720   68.5650  226.9300 C   0  0  0  0  0  0  0  0  0  0  0  0
  140.5660   68.9470  228.0700 C   0  0  0  0  0  0  0  0  0  0  0  0
  140.7530   68.1260  229.1260 F   0  0  0  0  0  0  0  0  0  0  0  0
  141.0800   70.2340  228.1000 C   0  0  0  0  0  0  0  0  0  0  0  0
  140.9280   71.1240  227.0620 C   0  0  0  0  0  0  0  0  0  0  0  0
  140.2220   70.6970  225.9360 C   0  0  0  0  0  0  0  0  0  0  0  0
  140.0440   71.5270  224.8930 N   0  0  0  0  0  0  0  0  0  0  0  0
  135.0400   76.3140  224.2730 C   0  0  0  0  0  0  0  0  0  0  0  0
  135.0620   77.9980  223.8290 Cl  0  0  0  0  0  0  0  0  0  0  0  0
  134.3210   75.8660  225.3820 C   0  0  0  0  0  0  0  0  0  0  0  0
  132.0392   74.2203  228.1568 H   0  0  0  0  0  0  0  0  0  0  0  0
  131.8774   75.1413  226.6232 H   0  0  0  0  0  0  0  0  0  0  0  0
  131.6832   73.3556  226.6232 H   0  0  0  0  0  0  0  0  0  0  0  0
  135.0176   72.5746  225.2380 H   0  0  0  0  0  0  0  0  0  0  0  0
  136.3019   73.3351  223.2678 H   0  0  0  0  0  0  0  0  0  0  0  0
  136.2725   76.8395  222.2115 H   0  0  0  0  0  0  0  0  0  0  0  0
  135.6120   74.1313  221.2965 H   0  0  0  0  0  0  0  0  0  0  0  0
  135.4692   75.7120  220.4551 H   0  0  0  0  0  0  0  0  0  0  0  0
  137.0356   74.8329  220.4551 H   0  0  0  0  0  0  0  0  0  0  0  0
  138.3970   74.6840  222.5490 H   0  0  0  0  0  0  0  0  0  0  0  0
  140.3625   75.8550  223.5335 H   0  0  0  0  0  0  0  0  0  0  0  0
  140.6604   78.5227  223.5086 H   0  0  0  0  0  0  0  0  0  0  0  0
  142.1310   77.7494  223.0393 H   0  0  0  0  0  0  0  0  0  0  0  0
  139.8722   78.8833  221.2571 H   0  0  0  0  0  0  0  0  0  0  0  0
  142.6830   78.9850  221.1520 H   0  0  0  0  0  0  0  0  0  0  0  0
  139.9802   77.0853  219.8056 H   0  0  0  0  0  0  0  0  0  0  0  0
  141.7297   77.1051  219.7730 H   0  0  0  0  0  0  0  0  0  0  0  0
  139.3455   74.0607  220.8818 H   0  0  0  0  0  0  0  0  0  0  0  0
  140.5809   73.1109  219.9895 H   0  0  0  0  0  0  0  0  0  0  0  0
  141.3150   72.2690  222.3720 H   0  0  0  0  0  0  0  0  0  0  0  0
  138.3049   69.6203  222.8085 H   0  0  0  0  0  0  0  0  0  0  0  0
  138.5708   67.9936  224.6814 H   0  0  0  0  0  0  0  0  0  0  0  0
  139.4524   67.5495  226.8771 H   0  0  0  0  0  0  0  0  0  0  0  0
  141.6340   70.5581  228.9934 H   0  0  0  0  0  0  0  0  0  0  0  0
  141.3489   72.1388  227.1175 H   0  0  0  0  0  0  0  0  0  0  0  0
  133.7582   76.5971  225.9809 H   0  0  0  0  0  0  0  0  0  0  0  0
  1  2  1  0
  2  3  1  0
  3  4  2  0
  4  5  1  0
  5  6  2  0
  6  7  1  0
  7  8  1  0
  7  9  1  0
  9 10  1  0
 10 11  2  0
 10 12  1  0
 12 13  1  0
 13 14  1  0
 14 15  1  0
 14 16  1  0
 16 17  1  0
 17 18  1  0
 18 19  2  0
 18 20  1  0
 20 21  1  0
 21 22  1  0
 22 23  2  0
 22 24  1  0
 24 25  2  0
 25 26  1  0
 26 27  2  0
 27 28  1  0
 28 29  2  0
 29 30  1  0
 29 31  1  0
 31 32  2  0
 32 33  1  0
 33 34  2  0
  6 35  1  0
 35 36  1  0
 35 37  2  0
 37  3  1  0
 17 12  1  0
 34 24  1  0
 33 27  1  0
  1 38  1  0
  1 39  1  0
  1 40  1  0
  4 41  1  0
  5 42  1  0
  7 43  1  6
  8 44  1  0
  8 45  1  0
  8 46  1  0
  9 47  1  0
 12 48  1  1
 13 49  1  0
 13 50  1  0
 14 51  1  1
 15 52  1  0
 16 53  1  0
 16 54  1  0
 20 55  1  0
 20 56  1  0
 21 57  1  0
 25 58  1  0
 26 59  1  0
 28 60  1  0
 31 61  1  0
 32 62  1  0
 37 63  1  0
M  END
>  <smiles>  (10) 
COc1ccc([C@H](C)NC(=O)[C@@H]2C[C@@H](O)CN2C(=O)CNC(=O)c2ccc3cc(F)ccc3n2)c(Cl)c1

>  <score_type>  (10) 
oracle

>  <origin>  (10) 
autodockgpu

>  <m_score__min__energy>  (10) 
-9.0500000000000007

>  <m_primary>  (10) 
energy

>  <rmsd>  (10) 
6.540136842393912

>  <m_score__min__rmsd>  (10) 
6.540136842393912

>  <meeko>  (10) 
{"free_energy": -8.49, "intermolecular_energy": -11.17, "internal_energy": -3.01, "cluster_size": 9, "cluster_id": 1, "rank_in_cluster": 6}

>  <energy>  (10) 
-8.97

>  <cluster_rmsd>  (10) 
0.0

>  <cluster>  (10) 
2

$$$$

     RDKit          3D

 63 66  0  0  0  0  0  0  0  0999 V2000
  135.6350   78.5690  219.9410 C   0  0  0  0  0  0  0  0  0  0  0  0
  136.6420   79.0850  219.1210 O   0  0  0  0  0  0  0  0  0  0  0  0
  137.9960   78.8470  219.2490 C   0  0  0  0  0  0  0  0  0  0  0  0
  138.4620   77.5510  219.0360 C   0  0  0  0  0  0  0  0  0  0  0  0
  139.8140   77.2430  219.1490 C   0  0  0  0  0  0  0  0  0  0  0  0
  140.7560   78.2260  219.4810 C   0  0  0  0  0  0  0  0  0  0  0  0
  142.1480   77.8190  219.5640 C   0  0  2  0  0  0  0  0  0  0  0  0
  142.9450   77.9900  218.2970 C   0  0  0  0  0  0  0  0  0  0  0  0
  142.3610   76.4660  220.0560 N   0  0  0  0  0  0  0  0  0  0  0  0
  142.4390   75.3360  219.1860 C   0  0  0  0  0  0  0  0  0  0  0  0
  142.3240   75.4540  217.9190 O   0  0  0  0  0  0  0  0  0  0  0  0
  142.6610   74.0160  219.8320 C   0  0  2  0  0  0  0  0  0  0  0  0
  144.1530   73.8270  220.1580 C   0  0  0  0  0  0  0  0  0  0  0  0
  144.7050   73.7720  218.7480 C   0  0  1  0  0  0  0  0  0  0  0  0
  145.9560   73.1710  218.7020 O   0  0  0  0  0  0  0  0  0  0  0  0
  143.6630   73.0200  217.9400 C   0  0  0  0  0  0  0  0  0  0  0  0
  142.5250   72.9370  218.8680 N   0  0  0  0  0  0  0  0  0  0  0  0
  141.4690   71.9540  218.8290 C   0  0  0  0  0  0  0  0  0  0  0  0
  141.3650   71.2120  217.8190 O   0  0  0  0  0  0  0  0  0  0  0  0
  140.5510   71.8740  220.0000 C   0  0  0  0  0  0  0  0  0  0  0  0
  140.1550   73.2130  220.3920 N   0  0  0  0  0  0  0  0  0  0  0  0
  140.2160   73.6890  221.7260 C   0  0  0  0  0  0  0  0  0  0  0  0
  140.6320   72.9460  222.6730 O   0  0  0  0  0  0  0  0  0  0  0  0
  139.7900   75.0640  222.0280 C   0  0  0  0  0  0  0  0  0  0  0  0
  138.4750   75.4610  221.9890 C   0  0  0  0  0  0  0  0  0  0  0  0
  138.0810   76.7610  222.2780 C   0  0  0  0  0  0  0  0  0  0  0  0
  139.0720   77.6520  222.6140 C   0  0  0  0  0  0  0  0  0  0  0  0
  138.7570   78.9670  222.9150 C   0  0  0  0  0  0  0  0  0  0  0  0
  139.7280   79.8980  223.2580 C   0  0  0  0  0  0  0  0  0  0  0  0
  139.4410   81.1840  223.5540 F   0  0  0  0  0  0  0  0  0  0  0  0
  141.0440   79.4640  223.2890 C   0  0  0  0  0  0  0  0  0  0  0  0
  141.4090   78.1700  222.9980 C   0  0  0  0  0  0  0  0  0  0  0  0
  140.4000   77.2670  222.6580 C   0  0  0  0  0  0  0  0  0  0  0  0
  140.7030   75.9910  222.3640 N   0  0  0  0  0  0  0  0  0  0  0  0
  140.2850   79.5180  219.6940 C   0  0  0  0  0  0  0  0  0  0  0  0
  141.4410   80.7530  220.1120 Cl  0  0  0  0  0  0  0  0  0  0  0  0
  138.9250   79.8070  219.5770 C   0  0  0  0  0  0  0  0  0  0  0  0
  135.9124   78.7111  220.9959 H   0  0  0  0  0  0  0  0  0  0  0  0
  134.6904   79.0942  219.7363 H   0  0  0  0  0  0  0  0  0  0  0  0
  135.5095   77.4955  219.7363 H   0  0  0  0  0  0  0  0  0  0  0  0
  137.7476   76.7568  218.7736 H   0  0  0  0  0  0  0  0  0  0  0  0
  140.1494   76.2100  218.9747 H   0  0  0  0  0  0  0  0  0  0  0  0
  142.5251   78.5335  220.3105 H   0  0  0  0  0  0  0  0  0  0  0  0
  143.9917   78.2146  218.5498 H   0  0  0  0  0  0  0  0  0  0  0  0
  142.9010   77.0620  217.7081 H   0  0  0  0  0  0  0  0  0  0  0  0
  142.5242   78.8183  217.7081 H   0  0  0  0  0  0  0  0  0  0  0  0
  142.4610   76.3230  221.1080 H   0  0  0  0  0  0  0  0  0  0  0  0
  141.9637   73.9941  220.6824 H   0  0  0  0  0  0  0  0  0  0  0  0
  144.5606   74.6758  220.7266 H   0  0  0  0  0  0  0  0  0  0  0  0
  144.3903   72.9590  220.7907 H   0  0  0  0  0  0  0  0  0  0  0  0
  144.8740   74.7779  218.3362 H   0  0  0  0  0  0  0  0  0  0  0  0
  146.6620   73.8580  218.6840 H   0  0  0  0  0  0  0  0  0  0  0  0
  143.3918   73.5749  217.0298 H   0  0  0  0  0  0  0  0  0  0  0  0
  144.0109   72.0369  217.5901 H   0  0  0  0  0  0  0  0  0  0  0  0
  139.6583   71.2919  219.7278 H   0  0  0  0  0  0  0  0  0  0  0  0
  141.0658   71.3821  220.8384 H   0  0  0  0  0  0  0  0  0  0  0  0
  139.7940   73.9050  219.6750 H   0  0  0  0  0  0  0  0  0  0  0  0
  137.7062   74.7220  221.7190 H   0  0  0  0  0  0  0  0  0  0  0  0
  137.0241   77.0637  222.2397 H   0  0  0  0  0  0  0  0  0  0  0  0
  137.7041   79.2835  222.8811 H   0  0  0  0  0  0  0  0  0  0  0  0
  141.8301   80.1850  223.5578 H   0  0  0  0  0  0  0  0  0  0  0  0
  142.4628   77.8566  223.0321 H   0  0  0  0  0  0  0  0  0  0  0  0
  138.5840   80.8379  219.7531 H   0  0  0  0  0  0  0  0  0  0  0  0
  1  2  1  0
  2  3  1  0
  3  4  2  0
  4  5  1  0
  5  6  2  0
  6  7  1  0
  7  8  1  0
  7  9  1  0
  9 10  1  0
 10 11  2  0
 10 12  1  0
 12 13  1  0
 13 14  1  0
 14 15  1  0
 14 16  1  0
 16 17  1  0
 17 18  1  0
 18 19  2  0
 18 20  1  0
 20 21  1  0
 21 22  1  0
 22 23  2  0
 22 24  1  0
 24 25  2  0
 25 26  1  0
 26 27  2  0
 27 28  1  0
 28 29  2  0
 29 30  1  0
 29 31  1  0
 31 32  2  0
 32 33  1  0
 33 34  2  0
  6 35  1  0
 35 36  1  0
 35 37  2  0
 37  3  1  0
 17 12  1  0
 34 24  1  0
 33 27  1  0
  1 38  1  0
  1 39  1  0
  1 40  1  0
  4 41  1  0
  5 42  1  0
  7 43  1  1
  8 44  1  0
  8 45  1  0
  8 46  1  0
  9 47  1  0
 12 48  1  1
 13 49  1  0
 13 50  1  0
 14 51  1  6
 15 52  1  0
 16 53  1  0
 16 54  1  0
 20 55  1  0
 20 56  1  0
 21 57  1  0
 25 58  1  0
 26 59  1  0
 28 60  1  0
 31 61  1  0
 32 62  1  0
 37 63  1  0
M  END
>  <smiles>  (11) 
COc1ccc([C@H](C)NC(=O)[C@@H]2C[C@@H](O)CN2C(=O)CNC(=O)c2ccc3cc(F)ccc3n2)c(Cl)c1

>  <score_type>  (11) 
oracle

>  <origin>  (11) 
autodockgpu

>  <m_score__min__energy>  (11) 
-9.0500000000000007

>  <m_primary>  (11) 
energy

>  <rmsd>  (11) 
6.247876331455764

>  <m_score__min__rmsd>  (11) 
6.247876331455764

>  <meeko>  (11) 
{"free_energy": -5.98, "intermolecular_energy": -8.66, "internal_energy": -4.31, "cluster_size": 9, "cluster_id": 11, "rank_in_cluster": 9}

>  <energy>  (11) 
-8.95

>  <cluster_rmsd>  (11) 
0.18

>  <cluster>  (11) 
2

$$$$

     RDKit          3D

 63 66  0  0  0  0  0  0  0  0999 V2000
  136.0310   82.9570  224.0240 C   0  0  0  0  0  0  0  0  0  0  0  0
  136.6890   82.3250  222.9650 O   0  0  0  0  0  0  0  0  0  0  0  0
  137.9220   81.7060  223.0290 C   0  0  0  0  0  0  0  0  0  0  0  0
  138.1750   80.8430  224.0920 C   0  0  0  0  0  0  0  0  0  0  0  0
  139.3960   80.1880  224.2150 C   0  0  0  0  0  0  0  0  0  0  0  0
  140.4160   80.3730  223.2720 C   0  0  0  0  0  0  0  0  0  0  0  0
  141.6530   79.6390  223.4710 C   0  0  2  0  0  0  0  0  0  0  0  0
  142.8850   80.4890  223.6480 C   0  0  0  0  0  0  0  0  0  0  0  0
  141.9370   78.6320  222.4610 N   0  0  0  0  0  0  0  0  0  0  0  0
  141.0170   77.5870  222.1380 C   0  0  0  0  0  0  0  0  0  0  0  0
  139.8880   77.4820  222.7260 O   0  0  0  0  0  0  0  0  0  0  0  0
  141.4430   76.6310  221.0830 C   0  0  2  0  0  0  0  0  0  0  0  0
  141.4960   77.3350  219.7160 C   0  0  0  0  0  0  0  0  0  0  0  0
  140.0210   77.6260  219.5340 C   0  0  1  0  0  0  0  0  0  0  0  0
  139.6960   77.8600  218.2050 O   0  0  0  0  0  0  0  0  0  0  0  0
  139.3020   76.4200  220.1110 C   0  0  0  0  0  0  0  0  0  0  0  0
  140.3820   75.6830  220.7830 N   0  0  0  0  0  0  0  0  0  0  0  0
  140.3880   74.2710  221.0820 C   0  0  0  0  0  0  0  0  0  0  0  0
  141.4740   73.6410  221.0270 O   0  0  0  0  0  0  0  0  0  0  0  0
  139.0900   73.6330  221.4420 C   0  0  0  0  0  0  0  0  0  0  0  0
  139.2960   72.7160  222.5470 N   0  0  0  0  0  0  0  0  0  0  0  0
  139.1180   71.3130  222.4430 C   0  0  0  0  0  0  0  0  0  0  0  0
  138.7590   70.7720  221.3470 O   0  0  0  0  0  0  0  0  0  0  0  0
  139.3490   70.4620  223.6190 C   0  0  0  0  0  0  0  0  0  0  0  0
  138.9770   69.1390  223.6640 C   0  0  0  0  0  0  0  0  0  0  0  0
  139.2010   68.3410  224.7790 C   0  0  0  0  0  0  0  0  0  0  0  0
  139.8210   68.9310  225.8540 C   0  0  0  0  0  0  0  0  0  0  0  0
  140.0770   68.1990  227.0010 C   0  0  0  0  0  0  0  0  0  0  0  0
  140.7000   68.7570  228.1090 C   0  0  0  0  0  0  0  0  0  0  0  0
  140.9580   68.0610  229.2370 F   0  0  0  0  0  0  0  0  0  0  0  0
  141.0620   70.0940  228.0290 C   0  0  0  0  0  0  0  0  0  0  0  0
  140.8290   70.8640  226.9140 C   0  0  0  0  0  0  0  0  0  0  0  0
  140.2000   70.2610  225.8230 C   0  0  0  0  0  0  0  0  0  0  0  0
  139.9490   70.9700  224.7090 N   0  0  0  0  0  0  0  0  0  0  0  0
  140.1580   81.2360  222.2120 C   0  0  0  0  0  0  0  0  0  0  0  0
  141.4160   81.4820  221.0310 Cl  0  0  0  0  0  0  0  0  0  0  0  0
  138.9270   81.8840  222.1060 C   0  0  0  0  0  0  0  0  0  0  0  0
  136.4251   82.5785  224.9787 H   0  0  0  0  0  0  0  0  0  0  0  0
  136.1972   84.0427  223.9633 H   0  0  0  0  0  0  0  0  0  0  0  0
  134.9529   82.7472  223.9633 H   0  0  0  0  0  0  0  0  0  0  0  0
  137.3945   80.6760  224.8489 H   0  0  0  0  0  0  0  0  0  0  0  0
  139.5638   79.5131  225.0673 H   0  0  0  0  0  0  0  0  0  0  0  0
  141.4382   79.1354  224.4250 H   0  0  0  0  0  0  0  0  0  0  0  0
  143.0845   80.6266  224.7210 H   0  0  0  0  0  0  0  0  0  0  0  0
  143.7449   79.9911  223.1761 H   0  0  0  0  0  0  0  0  0  0  0  0
  142.7248   81.4696  223.1761 H   0  0  0  0  0  0  0  0  0  0  0  0
  142.8690   78.6820  221.9470 H   0  0  0  0  0  0  0  0  0  0  0  0
  142.3853   76.2002  221.4524 H   0  0  0  0  0  0  0  0  0  0  0  0
  142.0958   78.2564  219.7509 H   0  0  0  0  0  0  0  0  0  0  0  0
  141.9646   76.7560  218.9066 H   0  0  0  0  0  0  0  0  0  0  0  0
  139.7204   78.5497  220.0502 H   0  0  0  0  0  0  0  0  0  0  0  0
  139.9560   77.0880  217.6510 H   0  0  0  0  0  0  0  0  0  0  0  0
  138.5269   76.7274  220.8284 H   0  0  0  0  0  0  0  0  0  0  0  0
  138.7769   75.8230  219.3508 H   0  0  0  0  0  0  0  0  0  0  0  0
  138.3689   74.4091  221.7382 H   0  0  0  0  0  0  0  0  0  0  0  0
  138.6974   73.0821  220.5746 H   0  0  0  0  0  0  0  0  0  0  0  0
  139.5950   73.0710  223.4990 H   0  0  0  0  0  0  0  0  0  0  0  0
  138.4844   68.6965  222.7856 H   0  0  0  0  0  0  0  0  0  0  0  0
  138.8958   67.2844  224.8003 H   0  0  0  0  0  0  0  0  0  0  0  0
  139.7771   67.1412  227.0354 H   0  0  0  0  0  0  0  0  0  0  0  0
  141.5567   70.5580  228.8950 H   0  0  0  0  0  0  0  0  0  0  0  0
  141.1287   71.9219  226.8825 H   0  0  0  0  0  0  0  0  0  0  0  0
  138.7539   82.5601  221.2558 H   0  0  0  0  0  0  0  0  0  0  0  0
  1  2  1  0
  2  3  1  0
  3  4  2  0
  4  5  1  0
  5  6  2  0
  6  7  1  0
  7  8  1  0
  7  9  1  0
  9 10  1  0
 10 11  2  0
 10 12  1  0
 12 13  1  0
 13 14  1  0
 14 15  1  0
 14 16  1  0
 16 17  1  0
 17 18  1  0
 18 19  2  0
 18 20  1  0
 20 21  1  0
 21 22  1  0
 22 23  2  0
 22 24  1  0
 24 25  2  0
 25 26  1  0
 26 27  2  0
 27 28  1  0
 28 29  2  0
 29 30  1  0
 29 31  1  0
 31 32  2  0
 32 33  1  0
 33 34  2  0
  6 35  1  0
 35 36  1  0
 35 37  2  0
 37  3  1  0
 17 12  1  0
 34 24  1  0
 33 27  1  0
  1 38  1  0
  1 39  1  0
  1 40  1  0
  4 41  1  0
  5 42  1  0
  7 43  1  1
  8 44  1  0
  8 45  1  0
  8 46  1  0
  9 47  1  0
 12 48  1  1
 13 49  1  0
 13 50  1  0
 14 51  1  1
 15 52  1  0
 16 53  1  0
 16 54  1  0
 20 55  1  0
 20 56  1  0
 21 57  1  0
 25 58  1  0
 26 59  1  0
 28 60  1  0
 31 61  1  0
 32 62  1  0
 37 63  1  0
M  END
>  <smiles>  (12) 
COc1ccc([C@H](C)NC(=O)[C@@H]2C[C@@H](O)CN2C(=O)CNC(=O)c2ccc3cc(F)ccc3n2)c(Cl)c1

>  <score_type>  (12) 
oracle

>  <origin>  (12) 
autodockgpu

>  <m_score__min__energy>  (12) 
-9.0500000000000007

>  <m_primary>  (12) 
energy

>  <rmsd>  (12) 
2.6834025832389954

>  <m_score__min__rmsd>  (12) 
2.6834025832389954

>  <meeko>  (12) 
{"free_energy": -8.48, "intermolecular_energy": -11.17, "internal_energy": -2.15, "cluster_size": 2, "cluster_id": 3, "rank_in_cluster": 2}

>  <energy>  (12) 
-8.84

>  <cluster_rmsd>  (12) 
1.19

>  <cluster>  (12) 
2

$$$$

     RDKit          3D

 63 66  0  0  0  0  0  0  0  0999 V2000
  132.9940   72.2950  226.9530 C   0  0  0  0  0  0  0  0  0  0  0  0
  133.2650   73.6620  226.8540 O   0  0  0  0  0  0  0  0  0  0  0  0
  134.0210   74.2720  225.8710 C   0  0  0  0  0  0  0  0  0  0  0  0
  134.1260   75.6600  225.8850 C   0  0  0  0  0  0  0  0  0  0  0  0
  134.8720   76.3370  224.9250 C   0  0  0  0  0  0  0  0  0  0  0  0
  135.5440   75.6440  223.9090 C   0  0  0  0  0  0  0  0  0  0  0  0
  136.3110   76.4290  222.9570 C   0  0  2  0  0  0  0  0  0  0  0  0
  135.7820   76.4240  221.5460 C   0  0  0  0  0  0  0  0  0  0  0  0
  137.7310   76.1200  222.9120 N   0  0  0  0  0  0  0  0  0  0  0  0
  138.7290   77.1240  222.7180 C   0  0  0  0  0  0  0  0  0  0  0  0
  138.4230   78.3560  222.5710 O   0  0  0  0  0  0  0  0  0  0  0  0
  140.1410   76.6600  222.6950 C   0  0  2  0  0  0  0  0  0  0  0  0
  141.0870   77.8450  222.4360 C   0  0  0  0  0  0  0  0  0  0  0  0
  140.6700   78.1860  221.0200 C   0  0  1  0  0  0  0  0  0  0  0  0
  141.6390   78.9240  220.3540 O   0  0  0  0  0  0  0  0  0  0  0  0
  140.3890   76.8500  220.3550 C   0  0  0  0  0  0  0  0  0  0  0  0
  140.4200   75.9080  221.4830 N   0  0  0  0  0  0  0  0  0  0  0  0
  140.6880   74.4920  221.3980 C   0  0  0  0  0  0  0  0  0  0  0  0
  141.8810   74.1000  221.3310 O   0  0  0  0  0  0  0  0  0  0  0  0
  139.5220   73.5640  221.3940 C   0  0  0  0  0  0  0  0  0  0  0  0
  139.6170   72.6680  222.5310 N   0  0  0  0  0  0  0  0  0  0  0  0
  139.3880   71.2720  222.4480 C   0  0  0  0  0  0  0  0  0  0  0  0
  139.0780   70.7170  221.3430 O   0  0  0  0  0  0  0  0  0  0  0  0
  139.5060   70.4420  223.6570 C   0  0  0  0  0  0  0  0  0  0  0  0
  139.0600   69.1430  223.7130 C   0  0  0  0  0  0  0  0  0  0  0  0
  139.1780   68.3650  224.8580 C   0  0  0  0  0  0  0  0  0  0  0  0
  139.7680   68.9510  225.9510 C   0  0  0  0  0  0  0  0  0  0  0  0
  139.9200   68.2390  227.1300 C   0  0  0  0  0  0  0  0  0  0  0  0
  140.5100   68.7940  228.2570 C   0  0  0  0  0  0  0  0  0  0  0  0
  140.6670   68.1160  229.4140 F   0  0  0  0  0  0  0  0  0  0  0  0
  140.9490   70.1060  228.1650 C   0  0  0  0  0  0  0  0  0  0  0  0
  140.8210   70.8570  227.0190 C   0  0  0  0  0  0  0  0  0  0  0  0
  140.2210   70.2580  225.9100 C   0  0  0  0  0  0  0  0  0  0  0  0
  140.0720   70.9470  224.7650 N   0  0  0  0  0  0  0  0  0  0  0  0
  135.4360   74.2570  223.9000 C   0  0  0  0  0  0  0  0  0  0  0  0
  136.2620   73.3780  222.6430 Cl  0  0  0  0  0  0  0  0  0  0  0  0
  134.6830   73.5960  224.8720 C   0  0  0  0  0  0  0  0  0  0  0  0
  132.9372   72.0083  228.0135 H   0  0  0  0  0  0  0  0  0  0  0  0
  132.0347   72.0748  226.4617 H   0  0  0  0  0  0  0  0  0  0  0  0
  133.7967   71.7255  226.4617 H   0  0  0  0  0  0  0  0  0  0  0  0
  133.6096   76.2324  226.6696 H   0  0  0  0  0  0  0  0  0  0  0  0
  134.9353   77.4345  224.9643 H   0  0  0  0  0  0  0  0  0  0  0  0
  136.1806   77.4386  223.3737 H   0  0  0  0  0  0  0  0  0  0  0  0
  134.6822   76.4136  221.5668 H   0  0  0  0  0  0  0  0  0  0  0  0
  136.1303   77.3255  221.0206 H   0  0  0  0  0  0  0  0  0  0  0  0
  136.1473   75.5293  221.0206 H   0  0  0  0  0  0  0  0  0  0  0  0
  138.0300   75.1040  223.0300 H   0  0  0  0  0  0  0  0  0  0  0  0
  140.2782   76.1177  223.6421 H   0  0  0  0  0  0  0  0  0  0  0  0
  140.9028   78.6777  223.1308 H   0  0  0  0  0  0  0  0  0  0  0  0
  142.1573   77.6307  222.5723 H   0  0  0  0  0  0  0  0  0  0  0  0
  139.7805   78.8329  221.0008 H   0  0  0  0  0  0  0  0  0  0  0  0
  142.5370   78.6570  220.6580 H   0  0  0  0  0  0  0  0  0  0  0  0
  139.4032   76.8506  219.8670 H   0  0  0  0  0  0  0  0  0  0  0  0
  141.1083   76.6004  219.5611 H   0  0  0  0  0  0  0  0  0  0  0  0
  138.5902   74.1448  221.4609 H   0  0  0  0  0  0  0  0  0  0  0  0
  139.5211   72.9782  220.4629 H   0  0  0  0  0  0  0  0  0  0  0  0
  139.8680   73.0350  223.4920 H   0  0  0  0  0  0  0  0  0  0  0  0
  138.5929   68.7037  222.8192 H   0  0  0  0  0  0  0  0  0  0  0  0
  138.8154   67.3269  224.8878 H   0  0  0  0  0  0  0  0  0  0  0  0
  139.5614   67.2000  227.1742 H   0  0  0  0  0  0  0  0  0  0  0  0
  141.4199   70.5664  229.0461 H   0  0  0  0  0  0  0  0  0  0  0  0
  141.1800   71.8960  226.9781 H   0  0  0  0  0  0  0  0  0  0  0  0
  134.6167   72.4985  224.8381 H   0  0  0  0  0  0  0  0  0  0  0  0
  1  2  1  0
  2  3  1  0
  3  4  2  0
  4  5  1  0
  5  6  2  0
  6  7  1  0
  7  8  1  0
  7  9  1  0
  9 10  1  0
 10 11  2  0
 10 12  1  0
 12 13  1  0
 13 14  1  0
 14 15  1  0
 14 16  1  0
 16 17  1  0
 17 18  1  0
 18 19  2  0
 18 20  1  0
 20 21  1  0
 21 22  1  0
 22 23  2  0
 22 24  1  0
 24 25  2  0
 25 26  1  0
 26 27  2  0
 27 28  1  0
 28 29  2  0
 29 30  1  0
 29 31  1  0
 31 32  2  0
 32 33  1  0
 33 34  2  0
  6 35  1  0
 35 36  1  0
 35 37  2  0
 37  3  1  0
 17 12  1  0
 34 24  1  0
 33 27  1  0
  1 38  1  0
  1 39  1  0
  1 40  1  0
  4 41  1  0
  5 42  1  0
  7 43  1  1
  8 44  1  0
  8 45  1  0
  8 46  1  0
  9 47  1  0
 12 48  1  1
 13 49  1  0
 13 50  1  0
 14 51  1  1
 15 52  1  0
 16 53  1  0
 16 54  1  0
 20 55  1  0
 20 56  1  0
 21 57  1  0
 25 58  1  0
 26 59  1  0
 28 60  1  0
 31 61  1  0
 32 62  1  0
 37 63  1  0
M  END
>  <smiles>  (13) 
COc1ccc([C@H](C)NC(=O)[C@@H]2C[C@@H](O)CN2C(=O)CNC(=O)c2ccc3cc(F)ccc3n2)c(Cl)c1

>  <score_type>  (13) 
oracle

>  <origin>  (13) 
autodockgpu

>  <m_score__min__energy>  (13) 
-9.0500000000000007

>  <m_primary>  (13) 
energy

>  <rmsd>  (13) 
6.731110458969008

>  <m_score__min__rmsd>  (13) 
6.731110458969008

>  <meeko>  (13) 
{"free_energy": -8.82, "intermolecular_energy": -11.5, "internal_energy": -2.25, "cluster_size": 9, "cluster_id": 1, "rank_in_cluster": 3}

>  <energy>  (13) 
-8.84

>  <cluster_rmsd>  (13) 
1.33

>  <cluster>  (13) 
2

$$$$

     RDKit          3D

 63 66  0  0  0  0  0  0  0  0999 V2000
  140.6970   83.6510  219.2280 C   0  0  0  0  0  0  0  0  0  0  0  0
  140.6380   82.5290  220.0590 O   0  0  0  0  0  0  0  0  0  0  0  0
  140.8910   81.2250  219.6820 C   0  0  0  0  0  0  0  0  0  0  0  0
  142.1810   80.8930  219.2760 C   0  0  0  0  0  0  0  0  0  0  0  0
  142.5040   79.5980  218.8840 C   0  0  0  0  0  0  0  0  0  0  0  0
  141.5400   78.5800  218.8840 C   0  0  0  0  0  0  0  0  0  0  0  0
  141.9680   77.2540  218.4730 C   0  0  2  0  0  0  0  0  0  0  0  0
  141.0580   76.5590  217.4930 C   0  0  0  0  0  0  0  0  0  0  0  0
  142.2470   76.3350  219.5660 N   0  0  0  0  0  0  0  0  0  0  0  0
  143.3060   75.3770  219.5120 C   0  0  0  0  0  0  0  0  0  0  0  0
  144.0690   75.2770  218.4930 O   0  0  0  0  0  0  0  0  0  0  0  0
  143.4710   74.5050  220.7040 C   0  0  2  0  0  0  0  0  0  0  0  0
  144.9440   74.0870  220.8570 C   0  0  0  0  0  0  0  0  0  0  0  0
  145.0870   73.2350  219.6140 C   0  0  1  0  0  0  0  0  0  0  0  0
  146.1660   72.3650  219.7000 O   0  0  0  0  0  0  0  0  0  0  0  0
  143.7600   72.5130  219.4700 C   0  0  0  0  0  0  0  0  0  0  0  0
  142.9100   73.1860  220.4630 N   0  0  0  0  0  0  0  0  0  0  0  0
  141.7350   72.6290  221.0900 C   0  0  0  0  0  0  0  0  0  0  0  0
  141.8300   71.5340  221.7000 O   0  0  0  0  0  0  0  0  0  0  0  0
  140.4610   73.3930  220.9760 C   0  0  0  0  0  0  0  0  0  0  0  0
  140.6500   74.7260  221.5170 N   0  0  0  0  0  0  0  0  0  0  0  0
  139.5860   75.6320  221.7560 C   0  0  0  0  0  0  0  0  0  0  0  0
  138.3780   75.3140  221.5030 O   0  0  0  0  0  0  0  0  0  0  0  0
  139.8750   76.9650  222.3060 C   0  0  0  0  0  0  0  0  0  0  0  0
  138.9050   77.7670  222.8590 C   0  0  0  0  0  0  0  0  0  0  0  0
  139.1870   79.0240  223.3780 C   0  0  0  0  0  0  0  0  0  0  0  0
  140.4940   79.4440  223.3190 C   0  0  0  0  0  0  0  0  0  0  0  0
  140.8520   80.6870  223.8170 C   0  0  0  0  0  0  0  0  0  0  0  0
  142.1610   81.1480  223.7750 C   0  0  0  0  0  0  0  0  0  0  0  0
  142.5300   82.3560  224.2540 F   0  0  0  0  0  0  0  0  0  0  0  0
  143.1130   80.3130  223.2110 C   0  0  0  0  0  0  0  0  0  0  0  0
  142.8100   79.0720  222.7030 C   0  0  0  0  0  0  0  0  0  0  0  0
  141.4810   78.6480  222.7650 C   0  0  0  0  0  0  0  0  0  0  0  0
  141.1300   77.4430  222.2830 N   0  0  0  0  0  0  0  0  0  0  0  0
  140.2540   78.9170  219.2910 C   0  0  0  0  0  0  0  0  0  0  0  0
  139.0410   77.6650  219.2940 Cl  0  0  0  0  0  0  0  0  0  0  0  0
  139.9490   80.2220  219.6800 C   0  0  0  0  0  0  0  0  0  0  0  0
  140.7449   84.5612  219.8438 H   0  0  0  0  0  0  0  0  0  0  0  0
  141.5932   83.5903  218.5931 H   0  0  0  0  0  0  0  0  0  0  0  0
  139.7994   83.6846  218.5931 H   0  0  0  0  0  0  0  0  0  0  0  0
  142.9597   81.6699  219.2651 H   0  0  0  0  0  0  0  0  0  0  0  0
  143.5327   79.3689  218.5688 H   0  0  0  0  0  0  0  0  0  0  0  0
  142.9113   77.4942  217.9606 H   0  0  0  0  0  0  0  0  0  0  0  0
  140.3007   75.9806  218.0425 H   0  0  0  0  0  0  0  0  0  0  0  0
  140.5594   77.3084  216.8606 H   0  0  0  0  0  0  0  0  0  0  0  0
  141.6497   75.8808  216.8606 H   0  0  0  0  0  0  0  0  0  0  0  0
  141.6320   76.3840  220.4350 H   0  0  0  0  0  0  0  0  0  0  0  0
  143.0298   75.0728  221.5365 H   0  0  0  0  0  0  0  0  0  0  0  0
  145.6211   74.9538  220.8415 H   0  0  0  0  0  0  0  0  0  0  0  0
  145.1942   73.5843  221.8029 H   0  0  0  0  0  0  0  0  0  0  0  0
  145.3037   73.8441  218.7240 H   0  0  0  0  0  0  0  0  0  0  0  0
  146.1090   71.8340  220.5280 H   0  0  0  0  0  0  0  0  0  0  0  0
  143.3529   72.6320  218.4551 H   0  0  0  0  0  0  0  0  0  0  0  0
  143.8369   71.4272  219.6288 H   0  0  0  0  0  0  0  0  0  0  0  0
  140.1688   73.4641  219.9179 H   0  0  0  0  0  0  0  0  0  0  0  0
  139.6701   72.8759  221.5392 H   0  0  0  0  0  0  0  0  0  0  0  0
  141.6170   75.0820  221.7580 H   0  0  0  0  0  0  0  0  0  0  0  0
  137.8685   77.4001  222.8916 H   0  0  0  0  0  0  0  0  0  0  0  0
  138.3997   79.6548  223.8165 H   0  0  0  0  0  0  0  0  0  0  0  0
  140.0751   81.3280  224.2591 H   0  0  0  0  0  0  0  0  0  0  0  0
  144.1565   80.6585  223.1680 H   0  0  0  0  0  0  0  0  0  0  0  0
  143.5895   78.4335  222.2618 H   0  0  0  0  0  0  0  0  0  0  0  0
  138.9216   80.4566  219.9954 H   0  0  0  0  0  0  0  0  0  0  0  0
  1  2  1  0
  2  3  1  0
  3  4  2  0
  4  5  1  0
  5  6  2  0
  6  7  1  0
  7  8  1  0
  7  9  1  0
  9 10  1  0
 10 11  2  0
 10 12  1  0
 12 13  1  0
 13 14  1  0
 14 15  1  0
 14 16  1  0
 16 17  1  0
 17 18  1  0
 18 19  2  0
 18 20  1  0
 20 21  1  0
 21 22  1  0
 22 23  2  0
 22 24  1  0
 24 25  2  0
 25 26  1  0
 26 27  2  0
 27 28  1  0
 28 29  2  0
 29 30  1  0
 29 31  1  0
 31 32  2  0
 32 33  1  0
 33 34  2  0
  6 35  1  0
 35 36  1  0
 35 37  2  0
 37  3  1  0
 17 12  1  0
 34 24  1  0
 33 27  1  0
  1 38  1  0
  1 39  1  0
  1 40  1  0
  4 41  1  0
  5 42  1  0
  7 43  1  6
  8 44  1  0
  8 45  1  0
  8 46  1  0
  9 47  1  0
 12 48  1  1
 13 49  1  0
 13 50  1  0
 14 51  1  6
 15 52  1  0
 16 53  1  0
 16 54  1  0
 20 55  1  0
 20 56  1  0
 21 57  1  0
 25 58  1  0
 26 59  1  0
 28 60  1  0
 31 61  1  0
 32 62  1  0
 37 63  1  0
M  END
>  <smiles>  (14) 
COc1ccc([C@H](C)NC(=O)[C@@H]2C[C@@H](O)CN2C(=O)CNC(=O)c2ccc3cc(F)ccc3n2)c(Cl)c1

>  <score_type>  (14) 
oracle

>  <origin>  (14) 
autodockgpu

>  <m_score__min__energy>  (14) 
-9.0500000000000007

>  <m_primary>  (14) 
energy

>  <rmsd>  (14) 
6.6356102305487745

>  <m_score__min__rmsd>  (14) 
6.6356102305487745

>  <meeko>  (14) 
{"free_energy": -6.75, "intermolecular_energy": -9.43, "internal_energy": -3.98, "cluster_size": 9, "cluster_id": 11, "rank_in_cluster": 2}

>  <energy>  (14) 
-8.76

>  <cluster_rmsd>  (14) 
1.18

>  <cluster>  (14) 
2

$$$$

     RDKit          3D

 63 66  0  0  0  0  0  0  0  0999 V2000
  135.9780   78.0490  219.9530 C   0  0  0  0  0  0  0  0  0  0  0  0
  136.9390   78.9810  219.5530 O   0  0  0  0  0  0  0  0  0  0  0  0
  138.2960   78.7510  219.4370 C   0  0  0  0  0  0  0  0  0  0  0  0
  138.7250   77.4530  219.1720 C   0  0  0  0  0  0  0  0  0  0  0  0
  140.0780   77.1520  219.0430 C   0  0  0  0  0  0  0  0  0  0  0  0
  141.0560   78.1470  219.1750 C   0  0  0  0  0  0  0  0  0  0  0  0
  142.4430   77.7460  219.0120 C   0  0  2  0  0  0  0  0  0  0  0  0
  142.8870   77.5290  217.5880 C   0  0  0  0  0  0  0  0  0  0  0  0
  142.8420   76.5870  219.7950 N   0  0  0  0  0  0  0  0  0  0  0  0
  142.4980   75.2520  219.4190 C   0  0  0  0  0  0  0  0  0  0  0  0
  141.8170   75.0040  218.3680 O   0  0  0  0  0  0  0  0  0  0  0  0
  142.9760   74.1670  220.3170 C   0  0  2  0  0  0  0  0  0  0  0  0
  144.5140   74.1610  220.3720 C   0  0  0  0  0  0  0  0  0  0  0  0
  144.8070   73.7650  218.9400 C   0  0  1  0  0  0  0  0  0  0  0  0
  146.0880   73.2490  218.7940 O   0  0  0  0  0  0  0  0  0  0  0  0
  143.7260   72.7650  218.5720 C   0  0  0  0  0  0  0  0  0  0  0  0
  142.7890   72.8640  219.7000 N   0  0  0  0  0  0  0  0  0  0  0  0
  141.8570   71.8460  220.1210 C   0  0  0  0  0  0  0  0  0  0  0  0
  142.3030   70.7460  220.5350 O   0  0  0  0  0  0  0  0  0  0  0  0
  140.4030   72.1590  220.0390 C   0  0  0  0  0  0  0  0  0  0  0  0
  140.1830   73.5320  220.4490 N   0  0  0  0  0  0  0  0  0  0  0  0
  139.8910   73.9140  221.7830 C   0  0  0  0  0  0  0  0  0  0  0  0
  139.8050   73.0490  222.7140 O   0  0  0  0  0  0  0  0  0  0  0  0
  139.6820   75.3340  222.1050 C   0  0  0  0  0  0  0  0  0  0  0  0
  138.4340   75.8760  222.2970 C   0  0  0  0  0  0  0  0  0  0  0  0
  138.2450   77.2180  222.6030 C   0  0  0  0  0  0  0  0  0  0  0  0
  139.3710   77.9970  222.7090 C   0  0  0  0  0  0  0  0  0  0  0  0
  139.2630   79.3450  223.0110 C   0  0  0  0  0  0  0  0  0  0  0  0
  140.3750   80.1670  223.1270 C   0  0  0  0  0  0  0  0  0  0  0  0
  140.2900   81.4830  223.4200 F   0  0  0  0  0  0  0  0  0  0  0  0
  141.6190   79.5870  222.9260 C   0  0  0  0  0  0  0  0  0  0  0  0
  141.7810   78.2550  222.6240 C   0  0  0  0  0  0  0  0  0  0  0  0
  140.6340   77.4660  222.5180 C   0  0  0  0  0  0  0  0  0  0  0  0
  140.7360   76.1580  222.2240 N   0  0  0  0  0  0  0  0  0  0  0  0
  140.6220   79.4410  219.4410 C   0  0  0  0  0  0  0  0  0  0  0  0
  141.8250   80.6900  219.6130 Cl  0  0  0  0  0  0  0  0  0  0  0  0
  139.2610   79.7220  219.5670 C   0  0  0  0  0  0  0  0  0  0  0  0
  135.9389   78.0111  221.0517 H   0  0  0  0  0  0  0  0  0  0  0  0
  134.9939   78.3458  219.5611 H   0  0  0  0  0  0  0  0  0  0  0  0
  136.2445   77.0563  219.5611 H   0  0  0  0  0  0  0  0  0  0  0  0
  137.9808   76.6504  219.0625 H   0  0  0  0  0  0  0  0  0  0  0  0
  140.3844   76.1164  218.8341 H   0  0  0  0  0  0  0  0  0  0  0  0
  142.9585   78.6346  219.4052 H   0  0  0  0  0  0  0  0  0  0  0  0
  143.8753   77.0460  217.5816 H   0  0  0  0  0  0  0  0  0  0  0  0
  142.1605   76.8844  217.0716 H   0  0  0  0  0  0  0  0  0  0  0  0
  142.9493   78.4982  217.0716 H   0  0  0  0  0  0  0  0  0  0  0  0
  143.4110   76.7490  220.6810 H   0  0  0  0  0  0  0  0  0  0  0  0
  142.4492   74.3307  221.2687 H   0  0  0  0  0  0  0  0  0  0  0  0
  144.9209   75.1535  220.6159 H   0  0  0  0  0  0  0  0  0  0  0  0
  144.9550   73.5090  221.1403 H   0  0  0  0  0  0  0  0  0  0  0  0
  144.7881   74.6331  218.2647 H   0  0  0  0  0  0  0  0  0  0  0  0
  146.7560   73.9660  218.8950 H   0  0  0  0  0  0  0  0  0  0  0  0
  143.2371   73.0410  217.6261 H   0  0  0  0  0  0  0  0  0  0  0  0
  144.1114   71.7467  218.4157 H   0  0  0  0  0  0  0  0  0  0  0  0
  140.0564   72.0250  219.0037 H   0  0  0  0  0  0  0  0  0  0  0  0
  139.8433   71.4830  220.7021 H   0  0  0  0  0  0  0  0  0  0  0  0
  140.2330   74.3240  219.7470 H   0  0  0  0  0  0  0  0  0  0  0  0
  137.5529   75.2239  222.2051 H   0  0  0  0  0  0  0  0  0  0  0  0
  137.2393   77.6374  222.7535 H   0  0  0  0  0  0  0  0  0  0  0  0
  138.2633   79.7776  223.1638 H   0  0  0  0  0  0  0  0  0  0  0  0
  142.5147   80.2198  223.0119 H   0  0  0  0  0  0  0  0  0  0  0  0
  142.7819   77.8252  222.4709 H   0  0  0  0  0  0  0  0  0  0  0  0
  138.9494   80.7557  219.7776 H   0  0  0  0  0  0  0  0  0  0  0  0
  1  2  1  0
  2  3  1  0
  3  4  2  0
  4  5  1  0
  5  6  2  0
  6  7  1  0
  7  8  1  0
  7  9  1  0
  9 10  1  0
 10 11  2  0
 10 12  1  0
 12 13  1  0
 13 14  1  0
 14 15  1  0
 14 16  1  0
 16 17  1  0
 17 18  1  0
 18 19  2  0
 18 20  1  0
 20 21  1  0
 21 22  1  0
 22 23  2  0
 22 24  1  0
 24 25  2  0
 25 26  1  0
 26 27  2  0
 27 28  1  0
 28 29  2  0
 29 30  1  0
 29 31  1  0
 31 32  2  0
 32 33  1  0
 33 34  2  0
  6 35  1  0
 35 36  1  0
 35 37  2  0
 37  3  1  0
 17 12  1  0
 34 24  1  0
 33 27  1  0
  1 38  1  0
  1 39  1  0
  1 40  1  0
  4 41  1  0
  5 42  1  0
  7 43  1  1
  8 44  1  0
  8 45  1  0
  8 46  1  0
  9 47  1  0
 12 48  1  1
 13 49  1  0
 13 50  1  0
 14 51  1  6
 15 52  1  0
 16 53  1  0
 16 54  1  0
 20 55  1  0
 20 56  1  0
 21 57  1  0
 25 58  1  0
 26 59  1  0
 28 60  1  0
 31 61  1  0
 32 62  1  0
 37 63  1  0
M  END
>  <smiles>  (15) 
COc1ccc([C@H](C)NC(=O)[C@@H]2C[C@@H](O)CN2C(=O)CNC(=O)c2ccc3cc(F)ccc3n2)c(Cl)c1

>  <score_type>  (15) 
oracle

>  <origin>  (15) 
autodockgpu

>  <m_score__min__energy>  (15) 
-9.0500000000000007

>  <m_primary>  (15) 
energy

>  <rmsd>  (15) 
6.459752149683377

>  <m_score__min__rmsd>  (15) 
6.459752149683377

>  <meeko>  (15) 
{"free_energy": -6.36, "intermolecular_energy": -9.04, "internal_energy": -4.86, "cluster_size": 9, "cluster_id": 11, "rank_in_cluster": 6}

>  <energy>  (15) 
-8.67

>  <cluster_rmsd>  (15) 
1.32

>  <cluster>  (15) 
2

$$$$

     RDKit          3D

 63 66  0  0  0  0  0  0  0  0999 V2000
  135.9910   79.5630  217.9810 C   0  0  0  0  0  0  0  0  0  0  0  0
  136.6350   78.7790  218.9420 O   0  0  0  0  0  0  0  0  0  0  0  0
  138.0000   78.6170  219.0780 C   0  0  0  0  0  0  0  0  0  0  0  0
  138.5440   77.3590  218.8340 C   0  0  0  0  0  0  0  0  0  0  0  0
  139.9110   77.1280  218.9530 C   0  0  0  0  0  0  0  0  0  0  0  0
  140.7890   78.1560  219.3220 C   0  0  0  0  0  0  0  0  0  0  0  0
  142.2020   77.8300  219.4080 C   0  0  2  0  0  0  0  0  0  0  0  0
  142.9330   77.7800  218.0910 C   0  0  0  0  0  0  0  0  0  0  0  0
  142.5050   76.6120  220.1430 N   0  0  0  0  0  0  0  0  0  0  0  0
  142.6260   75.3400  219.5050 C   0  0  0  0  0  0  0  0  0  0  0  0
  142.4730   75.2040  218.2440 O   0  0  0  0  0  0  0  0  0  0  0  0
  142.9400   74.1830  220.3850 C   0  0  2  0  0  0  0  0  0  0  0  0
  144.4630   74.0190  220.5230 C   0  0  0  0  0  0  0  0  0  0  0  0
  144.7990   73.6420  219.0960 C   0  0  1  0  0  0  0  0  0  0  0  0
  146.0290   73.0030  219.0010 O   0  0  0  0  0  0  0  0  0  0  0  0
  143.6470   72.7690  218.6310 C   0  0  0  0  0  0  0  0  0  0  0  0
  142.6600   72.9270  219.7100 N   0  0  0  0  0  0  0  0  0  0  0  0
  141.6080   71.9960  220.0400 C   0  0  0  0  0  0  0  0  0  0  0  0
  141.9140   70.8830  220.5390 O   0  0  0  0  0  0  0  0  0  0  0  0
  140.2030   72.4090  219.7650 C   0  0  0  0  0  0  0  0  0  0  0  0
  140.0010   73.7660  220.2380 N   0  0  0  0  0  0  0  0  0  0  0  0
  139.9440   74.1170  221.6100 C   0  0  0  0  0  0  0  0  0  0  0  0
  140.0700   73.2370  222.5230 O   0  0  0  0  0  0  0  0  0  0  0  0
  139.7330   75.5210  221.9940 C   0  0  0  0  0  0  0  0  0  0  0  0
  138.4870   76.0980  222.0490 C   0  0  0  0  0  0  0  0  0  0  0  0
  138.2960   77.4240  222.4150 C   0  0  0  0  0  0  0  0  0  0  0  0
  139.4190   78.1510  222.7280 C   0  0  0  0  0  0  0  0  0  0  0  0
  139.3090   79.4810  223.1010 C   0  0  0  0  0  0  0  0  0  0  0  0
  140.4180   80.2510  223.4240 C   0  0  0  0  0  0  0  0  0  0  0  0
  140.3320   81.5480  223.7900 F   0  0  0  0  0  0  0  0  0  0  0  0
  141.6600   79.6370  223.3590 C   0  0  0  0  0  0  0  0  0  0  0  0
  141.8230   78.3210  222.9930 C   0  0  0  0  0  0  0  0  0  0  0  0
  140.6800   77.5850  222.6770 C   0  0  0  0  0  0  0  0  0  0  0  0
  140.7840   76.2940  222.3130 N   0  0  0  0  0  0  0  0  0  0  0  0
  140.2410   79.4110  219.5640 C   0  0  0  0  0  0  0  0  0  0  0  0
  141.3170   80.7010  220.0280 Cl  0  0  0  0  0  0  0  0  0  0  0  0
  138.8670   79.6220  219.4400 C   0  0  0  0  0  0  0  0  0  0  0  0
  135.3693   80.3198  218.4818 H   0  0  0  0  0  0  0  0  0  0  0  0
  136.7424   80.0632  217.3524 H   0  0  0  0  0  0  0  0  0  0  0  0
  135.3543   78.9231  217.3524 H   0  0  0  0  0  0  0  0  0  0  0  0
  137.8805   76.5318  218.5415 H   0  0  0  0  0  0  0  0  0  0  0  0
  140.3090   76.1220  218.7542 H   0  0  0  0  0  0  0  0  0  0  0  0
  142.5750   78.6929  219.9792 H   0  0  0  0  0  0  0  0  0  0  0  0
  144.0150   77.7060  218.2748 H   0  0  0  0  0  0  0  0  0  0  0  0
  142.5975   76.9027  217.5185 H   0  0  0  0  0  0  0  0  0  0  0  0
  142.7201   78.6948  217.5185 H   0  0  0  0  0  0  0  0  0  0  0  0
  142.6400   76.6810  221.1980 H   0  0  0  0  0  0  0  0  0  0  0  0
  142.3775   74.3681  221.3120 H   0  0  0  0  0  0  0  0  0  0  0  0
  144.9517   74.9566  220.8265 H   0  0  0  0  0  0  0  0  0  0  0  0
  144.7909   73.3005  221.2886 H   0  0  0  0  0  0  0  0  0  0  0  0
  144.9066   74.5292  218.4546 H   0  0  0  0  0  0  0  0  0  0  0  0
  146.3300   72.7140  219.8920 H   0  0  0  0  0  0  0  0  0  0  0  0
  143.2441   73.1235  217.6708 H   0  0  0  0  0  0  0  0  0  0  0  0
  143.9373   71.7223  218.4571 H   0  0  0  0  0  0  0  0  0  0  0  0
  140.0121   72.3649  218.6826 H   0  0  0  0  0  0  0  0  0  0  0  0
  139.5108   71.7305  220.2851 H   0  0  0  0  0  0  0  0  0  0  0  0
  139.8850   74.5670  219.5550 H   0  0  0  0  0  0  0  0  0  0  0  0
  137.6086   75.4871  221.7937 H   0  0  0  0  0  0  0  0  0  0  0  0
  137.2919   77.8716  222.4526 H   0  0  0  0  0  0  0  0  0  0  0  0
  138.3109   79.9414  223.1425 H   0  0  0  0  0  0  0  0  0  0  0  0
  142.5531   80.2278  223.6109 H   0  0  0  0  0  0  0  0  0  0  0  0
  142.8224   77.8633  222.9507 H   0  0  0  0  0  0  0  0  0  0  0  0
  138.4636   80.6259  219.6384 H   0  0  0  0  0  0  0  0  0  0  0  0
  1  2  1  0
  2  3  1  0
  3  4  2  0
  4  5  1  0
  5  6  2  0
  6  7  1  0
  7  8  1  0
  7  9  1  0
  9 10  1  0
 10 11  2  0
 10 12  1  0
 12 13  1  0
 13 14  1  0
 14 15  1  0
 14 16  1  0
 16 17  1  0
 17 18  1  0
 18 19  2  0
 18 20  1  0
 20 21  1  0
 21 22  1  0
 22 23  2  0
 22 24  1  0
 24 25  2  0
 25 26  1  0
 26 27  2  0
 27 28  1  0
 28 29  2  0
 29 30  1  0
 29 31  1  0
 31 32  2  0
 32 33  1  0
 33 34  2  0
  6 35  1  0
 35 36  1  0
 35 37  2  0
 37  3  1  0
 17 12  1  0
 34 24  1  0
 33 27  1  0
  1 38  1  0
  1 39  1  0
  1 40  1  0
  4 41  1  0
  5 42  1  0
  7 43  1  1
  8 44  1  0
  8 45  1  0
  8 46  1  0
  9 47  1  0
 12 48  1  1
 13 49  1  0
 13 50  1  0
 14 51  1  6
 15 52  1  0
 16 53  1  0
 16 54  1  0
 20 55  1  0
 20 56  1  0
 21 57  1  0
 25 58  1  0
 26 59  1  0
 28 60  1  0
 31 61  1  0
 32 62  1  0
 37 63  1  0
M  END
>  <smiles>  (16) 
COc1ccc([C@H](C)NC(=O)[C@@H]2C[C@@H](O)CN2C(=O)CNC(=O)c2ccc3cc(F)ccc3n2)c(Cl)c1

>  <score_type>  (16) 
oracle

>  <origin>  (16) 
autodockgpu

>  <m_score__min__energy>  (16) 
-9.0500000000000007

>  <m_primary>  (16) 
energy

>  <rmsd>  (16) 
6.307017046589042

>  <m_score__min__rmsd>  (16) 
6.307017046589042

>  <meeko>  (16) 
{"free_energy": -6.03, "intermolecular_energy": -8.72, "internal_energy": -4.62, "cluster_size": 9, "cluster_id": 11, "rank_in_cluster": 8}

>  <energy>  (16) 
-8.33

>  <cluster_rmsd>  (16) 
1.69

>  <cluster>  (16) 
2

$$$$

     RDKit          3D

 63 66  0  0  0  0  0  0  0  0999 V2000
  139.0140   85.2820  220.8140 C   0  0  0  0  0  0  0  0  0  0  0  0
  138.5240   84.0340  221.2070 O   0  0  0  0  0  0  0  0  0  0  0  0
  139.2820   82.9570  221.6240 C   0  0  0  0  0  0  0  0  0  0  0  0
  140.6550   82.9860  221.3910 C   0  0  0  0  0  0  0  0  0  0  0  0
  141.4750   81.9350  221.7870 C   0  0  0  0  0  0  0  0  0  0  0  0
  140.9490   80.8080  222.4340 C   0  0  0  0  0  0  0  0  0  0  0  0
  141.8810   79.7640  222.8230 C   0  0  2  0  0  0  0  0  0  0  0  0
  143.3340   80.1650  222.8250 C   0  0  0  0  0  0  0  0  0  0  0  0
  141.7530   78.5210  222.0790 N   0  0  0  0  0  0  0  0  0  0  0  0
  141.5740   78.4890  220.6620 C   0  0  0  0  0  0  0  0  0  0  0  0
  141.5160   79.5600  219.9680 O   0  0  0  0  0  0  0  0  0  0  0  0
  141.4590   77.1450  220.0380 C   0  0  2  0  0  0  0  0  0  0  0  0
  140.8900   77.2670  218.6140 C   0  0  0  0  0  0  0  0  0  0  0  0
  139.4980   77.7620  218.9480 C   0  0  1  0  0  0  0  0  0  0  0  0
  138.6040   77.5480  217.9080 O   0  0  0  0  0  0  0  0  0  0  0  0
  139.1070   77.0290  220.2190 C   0  0  0  0  0  0  0  0  0  0  0  0
  140.3670   76.3910  220.6300 N   0  0  0  0  0  0  0  0  0  0  0  0
  140.4910   75.2210  221.4660 C   0  0  0  0  0  0  0  0  0  0  0  0
  141.3900   75.1910  222.3440 O   0  0  0  0  0  0  0  0  0  0  0  0
  139.5350   74.1000  221.2380 C   0  0  0  0  0  0  0  0  0  0  0  0
  139.6120   73.1700  222.3480 N   0  0  0  0  0  0  0  0  0  0  0  0
  139.2630   71.8000  222.2470 C   0  0  0  0  0  0  0  0  0  0  0  0
  138.8540   71.3020  221.1470 O   0  0  0  0  0  0  0  0  0  0  0  0
  139.3720   70.9310  223.4290 C   0  0  0  0  0  0  0  0  0  0  0  0
  138.9050   69.6390  223.4470 C   0  0  0  0  0  0  0  0  0  0  0  0
  139.0140   68.8240  224.5680 C   0  0  0  0  0  0  0  0  0  0  0  0
  139.6180   69.3670  225.6760 C   0  0  0  0  0  0  0  0  0  0  0  0
  139.7620   68.6160  226.8310 C   0  0  0  0  0  0  0  0  0  0  0  0
  140.3650   69.1270  227.9720 C   0  0  0  0  0  0  0  0  0  0  0  0
  140.5150   68.4110  229.1080 F   0  0  0  0  0  0  0  0  0  0  0  0
  140.8250   70.4340  227.9180 C   0  0  0  0  0  0  0  0  0  0  0  0
  140.7060   71.2210  226.7970 C   0  0  0  0  0  0  0  0  0  0  0  0
  140.0920   70.6670  225.6720 C   0  0  0  0  0  0  0  0  0  0  0  0
  139.9500   71.3930  224.5500 N   0  0  0  0  0  0  0  0  0  0  0  0
  139.5780   80.7850  222.6630 C   0  0  0  0  0  0  0  0  0  0  0  0
  138.9040   79.3910  223.4630 Cl  0  0  0  0  0  0  0  0  0  0  0  0
  138.7700   81.8490  222.2590 C   0  0  0  0  0  0  0  0  0  0  0  0
  139.2492   85.8811  221.7061 H   0  0  0  0  0  0  0  0  0  0  0  0
  139.9253   85.1455  220.2132 H   0  0  0  0  0  0  0  0  0  0  0  0
  138.2533   85.8020  220.2132 H   0  0  0  0  0  0  0  0  0  0  0  0
  141.0986   83.8559  220.8846 H   0  0  0  0  0  0  0  0  0  0  0  0
  142.5557   81.9889  221.5890 H   0  0  0  0  0  0  0  0  0  0  0  0
  141.5678   79.5901  223.8630 H   0  0  0  0  0  0  0  0  0  0  0  0
  143.6861   80.2622  223.8626 H   0  0  0  0  0  0  0  0  0  0  0  0
  143.9271   79.3970  222.3069 H   0  0  0  0  0  0  0  0  0  0  0  0
  143.4492   81.1285  222.3069 H   0  0  0  0  0  0  0  0  0  0  0  0
  141.7950   77.6040  222.6200 H   0  0  0  0  0  0  0  0  0  0  0  0
  142.4602   76.6993  220.1324 H   0  0  0  0  0  0  0  0  0  0  0  0
  141.4506   77.9941  218.0081 H   0  0  0  0  0  0  0  0  0  0  0  0
  140.9300   76.3476  218.0114 H   0  0  0  0  0  0  0  0  0  0  0  0
  139.4783   78.8515  219.0980 H   0  0  0  0  0  0  0  0  0  0  0  0
  138.2030   76.6510  217.9850 H   0  0  0  0  0  0  0  0  0  0  0  0
  138.7497   77.7309  220.9869 H   0  0  0  0  0  0  0  0  0  0  0  0
  138.2847   76.3132  220.0727 H   0  0  0  0  0  0  0  0  0  0  0  0
  138.5125   74.4987  221.1632 H   0  0  0  0  0  0  0  0  0  0  0  0
  139.7934   73.5802  220.3037 H   0  0  0  0  0  0  0  0  0  0  0  0
  139.9390   73.4900  223.3030 H   0  0  0  0  0  0  0  0  0  0  0  0
  138.4278   69.2350  222.5420 H   0  0  0  0  0  0  0  0  0  0  0  0
  138.6341   67.7917  224.5678 H   0  0  0  0  0  0  0  0  0  0  0  0
  139.3866   67.5821  226.8444 H   0  0  0  0  0  0  0  0  0  0  0  0
  141.3061   70.8597  228.8110 H   0  0  0  0  0  0  0  0  0  0  0  0
  141.0826   72.2545  226.7867 H   0  0  0  0  0  0  0  0  0  0  0  0
  137.6887   81.8001  222.4547 H   0  0  0  0  0  0  0  0  0  0  0  0
  1  2  1  0
  2  3  1  0
  3  4  2  0
  4  5  1  0
  5  6  2  0
  6  7  1  0
  7  8  1  0
  7  9  1  0
  9 10  1  0
 10 11  2  0
 10 12  1  0
 12 13  1  0
 13 14  1  0
 14 15  1  0
 14 16  1  0
 16 17  1  0
 17 18  1  0
 18 19  2  0
 18 20  1  0
 20 21  1  0
 21 22  1  0
 22 23  2  0
 22 24  1  0
 24 25  2  0
 25 26  1  0
 26 27  2  0
 27 28  1  0
 28 29  2  0
 29 30  1  0
 29 31  1  0
 31 32  2  0
 32 33  1  0
 33 34  2  0
  6 35  1  0
 35 36  1  0
 35 37  2  0
 37  3  1  0
 17 12  1  0
 34 24  1  0
 33 27  1  0
  1 38  1  0
  1 39  1  0
  1 40  1  0
  4 41  1  0
  5 42  1  0
  7 43  1  1
  8 44  1  0
  8 45  1  0
  8 46  1  0
  9 47  1  0
 12 48  1  6
 13 49  1  0
 13 50  1  0
 14 51  1  1
 15 52  1  0
 16 53  1  0
 16 54  1  0
 20 55  1  0
 20 56  1  0
 21 57  1  0
 25 58  1  0
 26 59  1  0
 28 60  1  0
 31 61  1  0
 32 62  1  0
 37 63  1  0
M  END
>  <smiles>  (17) 
COc1ccc([C@H](C)NC(=O)[C@@H]2C[C@@H](O)CN2C(=O)CNC(=O)c2ccc3cc(F)ccc3n2)c(Cl)c1

>  <score_type>  (17) 
oracle

>  <origin>  (17) 
autodockgpu

>  <m_score__min__energy>  (17) 
-9.0500000000000007

>  <m_primary>  (17) 
energy

>  <rmsd>  (17) 
1.5505576096417188

>  <m_score__min__rmsd>  (17) 
1.5505576096417188

>  <meeko>  (17) 
{"free_energy": -7.82, "intermolecular_energy": -10.51, "internal_energy": -2.97, "cluster_size": 6, "cluster_id": 4, "rank_in_cluster": 5}

>  <energy>  (17) 
-7.71

>  <cluster_rmsd>  (17) 
1.99

>  <cluster>  (17) 
2

$$$$

     RDKit          3D

 63 66  0  0  0  0  0  0  0  0999 V2000
  137.0910   81.2650  225.5210 C   0  0  0  0  0  0  0  0  0  0  0  0
  138.0300   81.5020  224.5130 O   0  0  0  0  0  0  0  0  0  0  0  0
  138.8260   80.5510  223.9040 C   0  0  0  0  0  0  0  0  0  0  0  0
  138.2110   79.4320  223.3480 C   0  0  0  0  0  0  0  0  0  0  0  0
  138.9550   78.4380  222.7200 C   0  0  0  0  0  0  0  0  0  0  0  0
  140.3500   78.5280  222.6250 C   0  0  0  0  0  0  0  0  0  0  0  0
  141.0440   77.4510  221.9400 C   0  0  2  0  0  0  0  0  0  0  0  0
  141.4370   77.7420  220.5150 C   0  0  0  0  0  0  0  0  0  0  0  0
  140.3630   76.1660  221.9720 N   0  0  0  0  0  0  0  0  0  0  0  0
  141.0040   74.9470  221.5920 C   0  0  0  0  0  0  0  0  0  0  0  0
  142.2200   74.9220  221.2010 O   0  0  0  0  0  0  0  0  0  0  0  0
  140.1830   73.7110  221.6760 C   0  0  2  0  0  0  0  0  0  0  0  0
  140.6320   72.7010  220.6060 C   0  0  0  0  0  0  0  0  0  0  0  0
  140.2260   73.4650  219.3630 C   0  0  1  0  0  0  0  0  0  0  0  0
  140.0980   72.6330  218.2580 O   0  0  0  0  0  0  0  0  0  0  0  0
  138.9270   74.1610  219.7270 C   0  0  0  0  0  0  0  0  0  0  0  0
  138.8370   73.9490  221.1790 N   0  0  0  0  0  0  0  0  0  0  0  0
  137.6270   73.9680  221.9660 C   0  0  0  0  0  0  0  0  0  0  0  0
  137.2490   75.0520  222.4770 O   0  0  0  0  0  0  0  0  0  0  0  0
  136.8860   72.6850  222.1300 C   0  0  0  0  0  0  0  0  0  0  0  0
  137.5140   71.8980  223.1730 N   0  0  0  0  0  0  0  0  0  0  0  0
  138.1460   70.6500  222.9400 C   0  0  0  0  0  0  0  0  0  0  0  0
  138.1960   70.1430  221.7720 O   0  0  0  0  0  0  0  0  0  0  0  0
  138.7550   69.9210  224.0630 C   0  0  0  0  0  0  0  0  0  0  0  0
  138.7930   68.5490  224.1250 C   0  0  0  0  0  0  0  0  0  0  0  0
  139.3730   67.8680  225.1880 C   0  0  0  0  0  0  0  0  0  0  0  0
  139.9180   68.6300  226.1930 C   0  0  0  0  0  0  0  0  0  0  0  0
  140.5130   68.0230  227.2860 C   0  0  0  0  0  0  0  0  0  0  0  0
  141.0740   68.7560  228.3230 C   0  0  0  0  0  0  0  0  0  0  0  0
  141.6590   68.1830  229.3970 F   0  0  0  0  0  0  0  0  0  0  0  0
  141.0180   70.1380  228.2270 C   0  0  0  0  0  0  0  0  0  0  0  0
  140.4390   70.7900  227.1640 C   0  0  0  0  0  0  0  0  0  0  0  0
  139.8870   70.0130  226.1440 C   0  0  0  0  0  0  0  0  0  0  0  0
  139.3070   70.5990  225.0820 N   0  0  0  0  0  0  0  0  0  0  0  0
  140.9590   79.6470  223.1820 C   0  0  0  0  0  0  0  0  0  0  0  0
  142.6930   79.7740  223.0760 Cl  0  0  0  0  0  0  0  0  0  0  0  0
  140.1960   80.6340  223.8080 C   0  0  0  0  0  0  0  0  0  0  0  0
  137.5698   81.3859  226.5039 H   0  0  0  0  0  0  0  0  0  0  0  0
  136.2623   81.9822  225.4261 H   0  0  0  0  0  0  0  0  0  0  0  0
  136.7019   80.2405  225.4261 H   0  0  0  0  0  0  0  0  0  0  0  0
  137.1171   79.3322  223.4064 H   0  0  0  0  0  0  0  0  0  0  0  0
  138.4391   77.5665  222.2907 H   0  0  0  0  0  0  0  0  0  0  0  0
  141.9601   77.3827  222.5450 H   0  0  0  0  0  0  0  0  0  0  0  0
  142.3210   78.3966  220.5048 H   0  0  0  0  0  0  0  0  0  0  0  0
  141.6729   76.7991  219.9999 H   0  0  0  0  0  0  0  0  0  0  0  0
  140.6040   78.2427  219.9999 H   0  0  0  0  0  0  0  0  0  0  0  0
  139.3460   76.1430  222.2910 H   0  0  0  0  0  0  0  0  0  0  0  0
  140.2608   73.3864  222.7241 H   0  0  0  0  0  0  0  0  0  0  0  0
  141.7163   72.5194  220.6412 H   0  0  0  0  0  0  0  0  0  0  0  0
  140.2012   71.6933  220.7003 H   0  0  0  0  0  0  0  0  0  0  0  0
  140.9939   74.1935  219.0636 H   0  0  0  0  0  0  0  0  0  0  0  0
  139.1750   72.6620  217.9170 H   0  0  0  0  0  0  0  0  0  0  0  0
  138.9713   75.2333  219.4855 H   0  0  0  0  0  0  0  0  0  0  0  0
  138.0572   73.7733  219.1765 H   0  0  0  0  0  0  0  0  0  0  0  0
  135.8427   72.8963  222.4071 H   0  0  0  0  0  0  0  0  0  0  0  0
  136.9060   72.1248  221.1836 H   0  0  0  0  0  0  0  0  0  0  0  0
  137.5230   72.2350  224.1770 H   0  0  0  0  0  0  0  0  0  0  0  0
  138.3481   67.9687  223.3032 H   0  0  0  0  0  0  0  0  0  0  0  0
  139.3949   66.7688  225.2234 H   0  0  0  0  0  0  0  0  0  0  0  0
  140.5421   66.9244  227.3342 H   0  0  0  0  0  0  0  0  0  0  0  0
  141.4562   70.7394  229.0371 H   0  0  0  0  0  0  0  0  0  0  0  0
  140.4116   71.8887  227.1187 H   0  0  0  0  0  0  0  0  0  0  0  0
  140.7071   81.5075  224.2390 H   0  0  0  0  0  0  0  0  0  0  0  0
  1  2  1  0
  2  3  1  0
  3  4  2  0
  4  5  1  0
  5  6  2  0
  6  7  1  0
  7  8  1  0
  7  9  1  0
  9 10  1  0
 10 11  2  0
 10 12  1  0
 12 13  1  0
 13 14  1  0
 14 15  1  0
 14 16  1  0
 16 17  1  0
 17 18  1  0
 18 19  2  0
 18 20  1  0
 20 21  1  0
 21 22  1  0
 22 23  2  0
 22 24  1  0
 24 25  2  0
 25 26  1  0
 26 27  2  0
 27 28  1  0
 28 29  2  0
 29 30  1  0
 29 31  1  0
 31 32  2  0
 32 33  1  0
 33 34  2  0
  6 35  1  0
 35 36  1  0
 35 37  2  0
 37  3  1  0
 17 12  1  0
 34 24  1  0
 33 27  1  0
  1 38  1  0
  1 39  1  0
  1 40  1  0
  4 41  1  0
  5 42  1  0
  7 43  1  1
  8 44  1  0
  8 45  1  0
  8 46  1  0
  9 47  1  0
 12 48  1  1
 13 49  1  0
 13 50  1  0
 14 51  1  6
 15 52  1  0
 16 53  1  0
 16 54  1  0
 20 55  1  0
 20 56  1  0
 21 57  1  0
 25 58  1  0
 26 59  1  0
 28 60  1  0
 31 61  1  0
 32 62  1  0
 37 63  1  0
M  END
>  <smiles>  (18) 
COc1ccc([C@H](C)NC(=O)[C@@H]2C[C@@H](O)CN2C(=O)CNC(=O)c2ccc3cc(F)ccc3n2)c(Cl)c1

>  <score_type>  (18) 
oracle

>  <origin>  (18) 
autodockgpu

>  <m_score__min__energy>  (18) 
-9.0500000000000007

>  <m_primary>  (18) 
energy

>  <rmsd>  (18) 
3.658245071027064

>  <m_score__min__rmsd>  (18) 
3.658245071027064

>  <meeko>  (18) 
{"free_energy": -8.03, "intermolecular_energy": -10.72, "internal_energy": -2.72, "cluster_size": 1, "cluster_id": 6, "rank_in_cluster": 1}

>  <energy>  (18) 
-8.86

>  <cluster_rmsd>  (18) 
0.0

>  <cluster>  (18) 
3

$$$$

     RDKit          3D

 63 66  0  0  0  0  0  0  0  0999 V2000
  132.8580   72.6570  226.7810 C   0  0  0  0  0  0  0  0  0  0  0  0
  133.5120   73.8920  226.7750 O   0  0  0  0  0  0  0  0  0  0  0  0
  134.2650   74.4080  225.7390 C   0  0  0  0  0  0  0  0  0  0  0  0
  134.3450   75.7920  225.6060 C   0  0  0  0  0  0  0  0  0  0  0  0
  135.0870   76.3760  224.5840 C   0  0  0  0  0  0  0  0  0  0  0  0
  135.7810   75.5920  223.6520 C   0  0  0  0  0  0  0  0  0  0  0  0
  136.5410   76.2860  222.6270 C   0  0  2  0  0  0  0  0  0  0  0  0
  136.0720   76.0600  221.2130 C   0  0  0  0  0  0  0  0  0  0  0  0
  137.9780   76.0590  222.6720 N   0  0  0  0  0  0  0  0  0  0  0  0
  138.9250   77.1280  222.6510 C   0  0  0  0  0  0  0  0  0  0  0  0
  138.5580   78.3500  222.5910 O   0  0  0  0  0  0  0  0  0  0  0  0
  140.3600   76.7430  222.7020 C   0  0  2  0  0  0  0  0  0  0  0  0
  141.2340   77.9840  222.9550 C   0  0  0  0  0  0  0  0  0  0  0  0
  140.9820   78.7280  221.6600 C   0  0  1  0  0  0  0  0  0  0  0  0
  141.9690   79.6690  221.3990 O   0  0  0  0  0  0  0  0  0  0  0  0
  140.8990   77.6530  220.5910 C   0  0  0  0  0  0  0  0  0  0  0  0
  140.8560   76.4110  221.3770 N   0  0  0  0  0  0  0  0  0  0  0  0
  141.2440   75.1010  220.9130 C   0  0  0  0  0  0  0  0  0  0  0  0
  142.4650   74.8460  220.7590 O   0  0  0  0  0  0  0  0  0  0  0  0
  140.1620   74.1130  220.6400 C   0  0  0  0  0  0  0  0  0  0  0  0
  139.9240   73.3190  221.8310 N   0  0  0  0  0  0  0  0  0  0  0  0
  140.4260   72.0050  222.0100 C   0  0  0  0  0  0  0  0  0  0  0  0
  141.1300   71.4390  221.1110 O   0  0  0  0  0  0  0  0  0  0  0  0
  140.1310   71.2760  223.2520 C   0  0  0  0  0  0  0  0  0  0  0  0
  139.3790   70.1260  223.2790 C   0  0  0  0  0  0  0  0  0  0  0  0
  139.1070   69.4420  224.4570 C   0  0  0  0  0  0  0  0  0  0  0  0
  139.6280   69.9660  225.6160 C   0  0  0  0  0  0  0  0  0  0  0  0
  139.3990   69.3400  226.8310 C   0  0  0  0  0  0  0  0  0  0  0  0
  139.9060   69.8370  228.0230 C   0  0  0  0  0  0  0  0  0  0  0  0
  139.6930   69.2420  229.2170 F   0  0  0  0  0  0  0  0  0  0  0  0
  140.6600   70.9980  227.9600 C   0  0  0  0  0  0  0  0  0  0  0  0
  140.9160   71.6580  226.7800 C   0  0  0  0  0  0  0  0  0  0  0  0
  140.3860   71.1230  225.6050 C   0  0  0  0  0  0  0  0  0  0  0  0
  140.6060   71.7290  224.4250 N   0  0  0  0  0  0  0  0  0  0  0  0
  135.6970   74.2110  223.7900 C   0  0  0  0  0  0  0  0  0  0  0  0
  136.5500   73.2190  222.6390 Cl  0  0  0  0  0  0  0  0  0  0  0  0
  134.9470   73.6430  224.8210 C   0  0  0  0  0  0  0  0  0  0  0  0
  132.6885   72.3369  227.8197 H   0  0  0  0  0  0  0  0  0  0  0  0
  131.8916   72.7513  226.2640 H   0  0  0  0  0  0  0  0  0  0  0  0
  133.4791   71.9107  226.2640 H   0  0  0  0  0  0  0  0  0  0  0  0
  133.8120   76.4351  226.3218 H   0  0  0  0  0  0  0  0  0  0  0  0
  135.1298   77.4724  224.5060 H   0  0  0  0  0  0  0  0  0  0  0  0
  136.3369   77.3328  222.8966 H   0  0  0  0  0  0  0  0  0  0  0  0
  135.0811   75.5825  221.2272 H   0  0  0  0  0  0  0  0  0  0  0  0
  136.0063   77.0253  220.6897 H   0  0  0  0  0  0  0  0  0  0  0  0
  136.7861   75.4071  220.6897 H   0  0  0  0  0  0  0  0  0  0  0  0
  138.3270   75.0530  222.7210 H   0  0  0  0  0  0  0  0  0  0  0  0
  140.4137   75.9400  223.4519 H   0  0  0  0  0  0  0  0  0  0  0  0
  140.8930   78.5556  223.8308 H   0  0  0  0  0  0  0  0  0  0  0  0
  142.2905   77.7772  223.1808 H   0  0  0  0  0  0  0  0  0  0  0  0
  140.0536   79.3166  221.7018 H   0  0  0  0  0  0  0  0  0  0  0  0
  142.8510   79.2330  221.3590 H   0  0  0  0  0  0  0  0  0  0  0  0
  139.9894   77.7685  219.9833 H   0  0  0  0  0  0  0  0  0  0  0  0
  141.7342   77.6859  219.8759 H   0  0  0  0  0  0  0  0  0  0  0  0
  139.2400   74.6453  220.3632 H   0  0  0  0  0  0  0  0  0  0  0  0
  140.4656   73.4541  219.8132 H   0  0  0  0  0  0  0  0  0  0  0  0
  139.3500   73.7030  222.6330 H   0  0  0  0  0  0  0  0  0  0  0  0
  138.9778   69.7328  222.3332 H   0  0  0  0  0  0  0  0  0  0  0  0
  138.5023   68.5231  224.4621 H   0  0  0  0  0  0  0  0  0  0  0  0
  138.7963   68.4201  226.8510 H   0  0  0  0  0  0  0  0  0  0  0  0
  141.0715   71.4097  228.8934 H   0  0  0  0  0  0  0  0  0  0  0  0
  141.5191   72.5778  226.7634 H   0  0  0  0  0  0  0  0  0  0  0  0
  134.8996   72.5470  224.9023 H   0  0  0  0  0  0  0  0  0  0  0  0
  1  2  1  0
  2  3  1  0
  3  4  2  0
  4  5  1  0
  5  6  2  0
  6  7  1  0
  7  8  1  0
  7  9  1  0
  9 10  1  0
 10 11  2  0
 10 12  1  0
 12 13  1  0
 13 14  1  0
 14 15  1  0
 14 16  1  0
 16 17  1  0
 17 18  1  0
 18 19  2  0
 18 20  1  0
 20 21  1  0
 21 22  1  0
 22 23  2  0
 22 24  1  0
 24 25  2  0
 25 26  1  0
 26 27  2  0
 27 28  1  0
 28 29  2  0
 29 30  1  0
 29 31  1  0
 31 32  2  0
 32 33  1  0
 33 34  2  0
  6 35  1  0
 35 36  1  0
 35 37  2  0
 37  3  1  0
 17 12  1  0
 34 24  1  0
 33 27  1  0
  1 38  1  0
  1 39  1  0
  1 40  1  0
  4 41  1  0
  5 42  1  0
  7 43  1  1
  8 44  1  0
  8 45  1  0
  8 46  1  0
  9 47  1  0
 12 48  1  1
 13 49  1  0
 13 50  1  0
 14 51  1  1
 15 52  1  0
 16 53  1  0
 16 54  1  0
 20 55  1  0
 20 56  1  0
 21 57  1  0
 25 58  1  0
 26 59  1  0
 28 60  1  0
 31 61  1  0
 32 62  1  0
 37 63  1  0
M  END
>  <smiles>  (19) 
COc1ccc([C@H](C)NC(=O)[C@@H]2C[C@@H](O)CN2C(=O)CNC(=O)c2ccc3cc(F)ccc3n2)c(Cl)c1

>  <score_type>  (19) 
oracle

>  <origin>  (19) 
autodockgpu

>  <m_score__min__energy>  (19) 
-9.0500000000000007

>  <m_primary>  (19) 
energy

>  <rmsd>  (19) 
6.707976667948926

>  <m_score__min__rmsd>  (19) 
6.707976667948926

>  <meeko>  (19) 
{"free_energy": -9.03, "intermolecular_energy": -11.71, "internal_energy": -2.01, "cluster_size": 9, "cluster_id": 1, "rank_in_cluster": 2}

>  <energy>  (19) 
-8.48

>  <cluster_rmsd>  (19) 
1.99

>  <cluster>  (19) 
3

$$$$

     RDKit          3D

 63 66  0  0  0  0  0  0  0  0999 V2000
  143.5380   82.8210  216.3320 C   0  0  0  0  0  0  0  0  0  0  0  0
  142.3640   82.8380  217.0900 O   0  0  0  0  0  0  0  0  0  0  0  0
  142.1110   82.0730  218.2120 C   0  0  0  0  0  0  0  0  0  0  0  0
  142.4490   80.7220  218.1810 C   0  0  0  0  0  0  0  0  0  0  0  0
  142.2200   79.8960  219.2780 C   0  0  0  0  0  0  0  0  0  0  0  0
  141.6420   80.3960  220.4530 C   0  0  0  0  0  0  0  0  0  0  0  0
  141.4530   79.4660  221.5530 C   0  0  2  0  0  0  0  0  0  0  0  0
  142.5760   79.4170  222.5560 C   0  0  0  0  0  0  0  0  0  0  0  0
  141.1400   78.1020  221.1540 N   0  0  0  0  0  0  0  0  0  0  0  0
  139.9480   77.7650  220.4420 C   0  0  0  0  0  0  0  0  0  0  0  0
  139.0870   78.6500  220.1160 O   0  0  0  0  0  0  0  0  0  0  0  0
  139.7630   76.3290  220.1010 C   0  0  2  0  0  0  0  0  0  0  0  0
  138.3300   75.8830  220.4400 C   0  0  0  0  0  0  0  0  0  0  0  0
  138.3830   76.0170  221.9480 C   0  0  1  0  0  0  0  0  0  0  0  0
  137.3910   75.2710  222.5720 O   0  0  0  0  0  0  0  0  0  0  0  0
  139.7820   75.5770  222.3390 C   0  0  0  0  0  0  0  0  0  0  0  0
  140.4700   75.4780  221.0440 N   0  0  0  0  0  0  0  0  0  0  0  0
  141.6340   74.6720  220.7610 C   0  0  0  0  0  0  0  0  0  0  0  0
  142.7700   75.2080  220.8040 O   0  0  0  0  0  0  0  0  0  0  0  0
  141.4190   73.2360  220.4300 C   0  0  0  0  0  0  0  0  0  0  0  0
  141.1540   72.4960  221.6490 N   0  0  0  0  0  0  0  0  0  0  0  0
  139.8670   72.0250  222.0150 C   0  0  0  0  0  0  0  0  0  0  0  0
  138.8530   72.2320  221.2730 O   0  0  0  0  0  0  0  0  0  0  0  0
  139.6940   71.2840  223.2730 C   0  0  0  0  0  0  0  0  0  0  0  0
  138.7730   70.2750  223.4210 C   0  0  0  0  0  0  0  0  0  0  0  0
  138.6180   69.5780  224.6130 C   0  0  0  0  0  0  0  0  0  0  0  0
  139.4340   69.9400  225.6570 C   0  0  0  0  0  0  0  0  0  0  0  0
  139.3370   69.2910  226.8780 C   0  0  0  0  0  0  0  0  0  0  0  0
  140.1420   69.6280  227.9580 C   0  0  0  0  0  0  0  0  0  0  0  0
  140.0630   69.0080  229.1550 F   0  0  0  0  0  0  0  0  0  0  0  0
  141.0600   70.6500  227.7730 C   0  0  0  0  0  0  0  0  0  0  0  0
  141.1960   71.3250  226.5830 C   0  0  0  0  0  0  0  0  0  0  0  0
  140.3660   70.9550  225.5240 C   0  0  0  0  0  0  0  0  0  0  0  0
  140.4570   71.5830  224.3380 N   0  0  0  0  0  0  0  0  0  0  0  0
  141.3070   81.7450  220.4780 C   0  0  0  0  0  0  0  0  0  0  0  0
  140.5830   82.3830  221.9290 Cl  0  0  0  0  0  0  0  0  0  0  0  0
  141.5430   82.5570  219.3680 C   0  0  0  0  0  0  0  0  0  0  0  0
  144.4084   82.8084  217.0044 H   0  0  0  0  0  0  0  0  0  0  0  0
  143.5518   81.9226  215.6975 H   0  0  0  0  0  0  0  0  0  0  0  0
  143.5778   83.7187  215.6975 H   0  0  0  0  0  0  0  0  0  0  0  0
  142.9051   80.3002  217.2733 H   0  0  0  0  0  0  0  0  0  0  0  0
  142.4973   78.8330  219.2217 H   0  0  0  0  0  0  0  0  0  0  0  0
  140.5710   79.9063  222.0412 H   0  0  0  0  0  0  0  0  0  0  0  0
  142.1595   79.4352  223.5739 H   0  0  0  0  0  0  0  0  0  0  0  0
  143.1551   78.4927  222.4132 H   0  0  0  0  0  0  0  0  0  0  0  0
  143.2334   80.2873  222.4132 H   0  0  0  0  0  0  0  0  0  0  0  0
  141.8310   77.3320  221.4080 H   0  0  0  0  0  0  0  0  0  0  0  0
  140.0703   76.2426  219.0483 H   0  0  0  0  0  0  0  0  0  0  0  0
  137.5759   76.5482  219.9942 H   0  0  0  0  0  0  0  0  0  0  0  0
  138.0459   74.8884  220.0658 H   0  0  0  0  0  0  0  0  0  0  0  0
  138.1882   77.0495  222.2736 H   0  0  0  0  0  0  0  0  0  0  0  0
  137.7790   74.4580  222.9700 H   0  0  0  0  0  0  0  0  0  0  0  0
  140.2646   76.3231  222.9873 H   0  0  0  0  0  0  0  0  0  0  0  0
  139.7975   74.6379  222.9116 H   0  0  0  0  0  0  0  0  0  0  0  0
  140.5606   73.1408  219.7487 H   0  0  0  0  0  0  0  0  0  0  0  0
  142.3187   72.8321  219.9427 H   0  0  0  0  0  0  0  0  0  0  0  0
  141.9330   72.2750  222.3310 H   0  0  0  0  0  0  0  0  0  0  0  0
  138.1354   70.0095  222.5649 H   0  0  0  0  0  0  0  0  0  0  0  0
  137.8756   68.7729  224.7160 H   0  0  0  0  0  0  0  0  0  0  0  0
  138.5991   68.4836  226.9950 H   0  0  0  0  0  0  0  0  0  0  0  0
  141.7082   70.9334  228.6153 H   0  0  0  0  0  0  0  0  0  0  0  0
  141.9357   72.1312  226.4693 H   0  0  0  0  0  0  0  0  0  0  0  0
  141.2655   83.6202  219.4189 H   0  0  0  0  0  0  0  0  0  0  0  0
  1  2  1  0
  2  3  1  0
  3  4  2  0
  4  5  1  0
  5  6  2  0
  6  7  1  0
  7  8  1  0
  7  9  1  0
  9 10  1  0
 10 11  2  0
 10 12  1  0
 12 13  1  0
 13 14  1  0
 14 15  1  0
 14 16  1  0
 16 17  1  0
 17 18  1  0
 18 19  2  0
 18 20  1  0
 20 21  1  0
 21 22  1  0
 22 23  2  0
 22 24  1  0
 24 25  2  0
 25 26  1  0
 26 27  2  0
 27 28  1  0
 28 29  2  0
 29 30  1  0
 29 31  1  0
 31 32  2  0
 32 33  1  0
 33 34  2  0
  6 35  1  0
 35 36  1  0
 35 37  2  0
 37  3  1  0
 17 12  1  0
 34 24  1  0
 33 27  1  0
  1 38  1  0
  1 39  1  0
  1 40  1  0
  4 41  1  0
  5 42  1  0
  7 43  1  1
  8 44  1  0
  8 45  1  0
  8 46  1  0
  9 47  1  0
 12 48  1  6
 13 49  1  0
 13 50  1  0
 14 51  1  6
 15 52  1  0
 16 53  1  0
 16 54  1  0
 20 55  1  0
 20 56  1  0
 21 57  1  0
 25 58  1  0
 26 59  1  0
 28 60  1  0
 31 61  1  0
 32 62  1  0
 37 63  1  0
M  END
>  <smiles>  (20) 
COc1ccc([C@H](C)NC(=O)[C@@H]2C[C@@H](O)CN2C(=O)CNC(=O)c2ccc3cc(F)ccc3n2)c(Cl)c1

>  <score_type>  (20) 
oracle

>  <origin>  (20) 
autodockgpu

>  <m_score__min__energy>  (20) 
-9.0500000000000007

>  <m_primary>  (20) 
energy

>  <rmsd>  (20) 
3.0158687649908864

>  <m_score__min__rmsd>  (20) 
3.0158687649908864

>  <meeko>  (20) 
{"free_energy": -7.47, "intermolecular_energy": -10.16, "internal_energy": -2.9, "cluster_size": 2, "cluster_id": 5, "rank_in_cluster": 2}

>  <energy>  (20) 
-8.62

>  <cluster_rmsd>  (20) 
0.0

>  <cluster>  (20) 
4

$$$$

     RDKit          3D

 63 66  0  0  0  0  0  0  0  0999 V2000
  138.0870   80.7110  224.1730 C   0  0  0  0  0  0  0  0  0  0  0  0
  139.1350   79.8080  224.3720 O   0  0  0  0  0  0  0  0  0  0  0  0
  139.7710   79.0730  223.3920 C   0  0  0  0  0  0  0  0  0  0  0  0
  141.1030   79.3640  223.1080 C   0  0  0  0  0  0  0  0  0  0  0  0
  141.8030   78.6610  222.1320 C   0  0  0  0  0  0  0  0  0  0  0  0
  141.1910   77.6340  221.4000 C   0  0  0  0  0  0  0  0  0  0  0  0
  142.0010   76.9440  220.4100 C   0  0  2  0  0  0  0  0  0  0  0  0
  141.6790   77.2710  218.9750 C   0  0  0  0  0  0  0  0  0  0  0  0
  142.0360   75.4970  220.5500 N   0  0  0  0  0  0  0  0  0  0  0  0
  143.2510   74.7480  220.4760 C   0  0  0  0  0  0  0  0  0  0  0  0
  144.3790   75.3150  220.2800 O   0  0  0  0  0  0  0  0  0  0  0  0
  143.1330   73.2750  220.6380 C   0  0  2  0  0  0  0  0  0  0  0  0
  144.5090   72.6620  220.9500 C   0  0  0  0  0  0  0  0  0  0  0  0
  145.2070   72.9470  219.6370 C   0  0  1  0  0  0  0  0  0  0  0  0
  146.3140   72.1300  219.4470 O   0  0  0  0  0  0  0  0  0  0  0  0
  144.1440   72.7520  218.5690 C   0  0  0  0  0  0  0  0  0  0  0  0
  142.9080   72.6280  219.3560 N   0  0  0  0  0  0  0  0  0  0  0  0
  141.6940   71.9750  218.9290 C   0  0  0  0  0  0  0  0  0  0  0  0
  141.7610   71.0760  218.0530 O   0  0  0  0  0  0  0  0  0  0  0  0
  140.4150   72.4070  219.5590 C   0  0  0  0  0  0  0  0  0  0  0  0
  140.2210   71.6820  220.8010 N   0  0  0  0  0  0  0  0  0  0  0  0
  140.2410   72.2970  222.0780 C   0  0  0  0  0  0  0  0  0  0  0  0
  140.4340   73.5500  222.2050 O   0  0  0  0  0  0  0  0  0  0  0  0
  140.0370   71.4790  223.2830 C   0  0  0  0  0  0  0  0  0  0  0  0
  139.2870   70.3270  223.2810 C   0  0  0  0  0  0  0  0  0  0  0  0
  139.1010   69.5590  224.4230 C   0  0  0  0  0  0  0  0  0  0  0  0
  139.7050   70.0000  225.5760 C   0  0  0  0  0  0  0  0  0  0  0  0
  139.5650   69.2860  226.7550 C   0  0  0  0  0  0  0  0  0  0  0  0
  140.1580   69.6980  227.9410 C   0  0  0  0  0  0  0  0  0  0  0  0
  140.0320   69.0170  229.1010 F   0  0  0  0  0  0  0  0  0  0  0  0
  140.9070   70.8640  227.9070 C   0  0  0  0  0  0  0  0  0  0  0  0
  141.0770   71.6080  226.7630 C   0  0  0  0  0  0  0  0  0  0  0  0
  140.4620   71.1570  225.5930 C   0  0  0  0  0  0  0  0  0  0  0  0
  140.5960   71.8480  224.4470 N   0  0  0  0  0  0  0  0  0  0  0  0
  139.8610   77.3480  221.6870 C   0  0  0  0  0  0  0  0  0  0  0  0
  139.0820   76.0770  220.7850 Cl  0  0  0  0  0  0  0  0  0  0  0  0
  139.1760   78.0640  222.6690 C   0  0  0  0  0  0  0  0  0  0  0  0
  137.7002   81.0443  225.1473 H   0  0  0  0  0  0  0  0  0  0  0  0
  138.4543   81.5801  223.6075 H   0  0  0  0  0  0  0  0  0  0  0  0
  137.2817   80.2193  223.6075 H   0  0  0  0  0  0  0  0  0  0  0  0
  141.6113   80.1645  223.6656 H   0  0  0  0  0  0  0  0  0  0  0  0
  142.8542   78.9155  221.9316 H   0  0  0  0  0  0  0  0  0  0  0  0
  142.9970   77.3483  220.6434 H   0  0  0  0  0  0  0  0  0  0  0  0
  140.9075   78.0544  218.9417 H   0  0  0  0  0  0  0  0  0  0  0  0
  142.5871   77.6288  218.4678 H   0  0  0  0  0  0  0  0  0  0  0  0
  141.3072   76.3685  218.4678 H   0  0  0  0  0  0  0  0  0  0  0  0
  141.1170   74.9840  220.7150 H   0  0  0  0  0  0  0  0  0  0  0  0
  142.3469   73.1337  221.3944 H   0  0  0  0  0  0  0  0  0  0  0  0
  145.0013   73.1653  221.7952 H   0  0  0  0  0  0  0  0  0  0  0  0
  144.4947   71.6053  221.2553 H   0  0  0  0  0  0  0  0  0  0  0  0
  145.6170   73.9673  219.6060 H   0  0  0  0  0  0  0  0  0  0  0  0
  146.3850   71.4790  220.1820 H   0  0  0  0  0  0  0  0  0  0  0  0
  144.0979   73.6188  217.8934 H   0  0  0  0  0  0  0  0  0  0  0  0
  144.3345   71.8852  217.9191 H   0  0  0  0  0  0  0  0  0  0  0  0
  140.4542   73.4866  219.7664 H   0  0  0  0  0  0  0  0  0  0  0  0
  139.5791   72.1961  218.8758 H   0  0  0  0  0  0  0  0  0  0  0  0
  140.0550   70.6360  220.7990 H   0  0  0  0  0  0  0  0  0  0  0  0
  138.8173   70.0018  222.3410 H   0  0  0  0  0  0  0  0  0  0  0  0
  138.4976   68.6394  224.4055 H   0  0  0  0  0  0  0  0  0  0  0  0
  138.9653   68.3639  226.7514 H   0  0  0  0  0  0  0  0  0  0  0  0
  141.3860   71.2090  228.8352 H   0  0  0  0  0  0  0  0  0  0  0  0
  141.6783   72.5291  226.7693 H   0  0  0  0  0  0  0  0  0  0  0  0
  138.1244   77.8137  222.8725 H   0  0  0  0  0  0  0  0  0  0  0  0
  1  2  1  0
  2  3  1  0
  3  4  2  0
  4  5  1  0
  5  6  2  0
  6  7  1  0
  7  8  1  0
  7  9  1  0
  9 10  1  0
 10 11  2  0
 10 12  1  0
 12 13  1  0
 13 14  1  0
 14 15  1  0
 14 16  1  0
 16 17  1  0
 17 18  1  0
 18 19  2  0
 18 20  1  0
 20 21  1  0
 21 22  1  0
 22 23  2  0
 22 24  1  0
 24 25  2  0
 25 26  1  0
 26 27  2  0
 27 28  1  0
 28 29  2  0
 29 30  1  0
 29 31  1  0
 31 32  2  0
 32 33  1  0
 33 34  2  0
  6 35  1  0
 35 36  1  0
 35 37  2  0
 37  3  1  0
 17 12  1  0
 34 24  1  0
 33 27  1  0
  1 38  1  0
  1 39  1  0
  1 40  1  0
  4 41  1  0
  5 42  1  0
  7 43  1  1
  8 44  1  0
  8 45  1  0
  8 46  1  0
  9 47  1  0
 12 48  1  1
 13 49  1  0
 13 50  1  0
 14 51  1  1
 15 52  1  0
 16 53  1  0
 16 54  1  0
 20 55  1  0
 20 56  1  0
 21 57  1  0
 25 58  1  0
 26 59  1  0
 28 60  1  0
 31 61  1  0
 32 62  1  0
 37 63  1  0
M  END
>  <smiles>  (21) 
COc1ccc([C@H](C)NC(=O)[C@@H]2C[C@@H](O)CN2C(=O)CNC(=O)c2ccc3cc(F)ccc3n2)c(Cl)c1

>  <score_type>  (21) 
oracle

>  <origin>  (21) 
autodockgpu

>  <m_score__min__energy>  (21) 
-9.0500000000000007

>  <m_primary>  (21) 
energy

>  <rmsd>  (21) 
4.267766760475832

>  <m_score__min__rmsd>  (21) 
4.267766760475832

>  <meeko>  (21) 
{"free_energy": -8.84, "intermolecular_energy": -11.53, "internal_energy": -2.55, "cluster_size": 8, "cluster_id": 2, "rank_in_cluster": 3}

>  <energy>  (21) 
-8.56

>  <cluster_rmsd>  (21) 
1.6

>  <cluster>  (21) 
4

$$$$

     RDKit          3D

 63 66  0  0  0  0  0  0  0  0999 V2000
  140.3160   85.3480  220.3710 C   0  0  0  0  0  0  0  0  0  0  0  0
  139.4850   84.2270  220.4480 O   0  0  0  0  0  0  0  0  0  0  0  0
  139.7300   83.0820  221.1790 C   0  0  0  0  0  0  0  0  0  0  0  0
  141.0550   82.7150  221.4070 C   0  0  0  0  0  0  0  0  0  0  0  0
  141.3710   81.5730  222.1360 C   0  0  0  0  0  0  0  0  0  0  0  0
  140.3680   80.7510  222.6670 C   0  0  0  0  0  0  0  0  0  0  0  0
  140.7900   79.5870  223.4260 C   0  0  2  0  0  0  0  0  0  0  0  0
  142.1980   79.6410  223.9600 C   0  0  0  0  0  0  0  0  0  0  0  0
  140.6100   78.3140  222.7450 N   0  0  0  0  0  0  0  0  0  0  0  0
  141.3390   77.9640  221.5670 C   0  0  0  0  0  0  0  0  0  0  0  0
  142.1930   78.7580  221.0450 O   0  0  0  0  0  0  0  0  0  0  0  0
  141.0500   76.6290  220.9810 C   0  0  2  0  0  0  0  0  0  0  0  0
  141.3140   76.6450  219.4650 C   0  0  0  0  0  0  0  0  0  0  0  0
  140.2230   77.6040  219.0370 C   0  0  1  0  0  0  0  0  0  0  0  0
  139.9220   77.4830  217.6870 O   0  0  0  0  0  0  0  0  0  0  0  0
  139.0390   77.2880  219.9340 C   0  0  0  0  0  0  0  0  0  0  0  0
  139.6190   76.3810  220.9360 N   0  0  0  0  0  0  0  0  0  0  0  0
  138.8940   75.4150  221.7250 C   0  0  0  0  0  0  0  0  0  0  0  0
  138.3180   75.7950  222.7760 O   0  0  0  0  0  0  0  0  0  0  0  0
  138.8690   74.0050  221.2440 C   0  0  0  0  0  0  0  0  0  0  0  0
  139.1370   73.1130  222.3560 N   0  0  0  0  0  0  0  0  0  0  0  0
  139.0140   71.7030  222.2760 C   0  0  0  0  0  0  0  0  0  0  0  0
  138.6530   71.1310  221.1970 O   0  0  0  0  0  0  0  0  0  0  0  0
  139.3060   70.8790  223.4590 C   0  0  0  0  0  0  0  0  0  0  0  0
  139.0380   69.5320  223.5110 C   0  0  0  0  0  0  0  0  0  0  0  0
  139.3200   68.7600  224.6320 C   0  0  0  0  0  0  0  0  0  0  0  0
  139.8880   69.4030  225.7040 C   0  0  0  0  0  0  0  0  0  0  0  0
  140.1960   68.7000  226.8580 C   0  0  0  0  0  0  0  0  0  0  0  0
  140.7700   69.3120  227.9640 C   0  0  0  0  0  0  0  0  0  0  0  0
  141.0770   68.6450  229.0960 F   0  0  0  0  0  0  0  0  0  0  0  0
  141.0270   70.6720  227.8770 C   0  0  0  0  0  0  0  0  0  0  0  0
  140.7390   71.4150  226.7560 C   0  0  0  0  0  0  0  0  0  0  0  0
  140.1630   70.7590  225.6670 C   0  0  0  0  0  0  0  0  0  0  0  0
  139.8620   71.4380  224.5470 N   0  0  0  0  0  0  0  0  0  0  0  0
  139.0480   81.1220  222.4360 C   0  0  0  0  0  0  0  0  0  0  0  0
  137.7870   80.1100  223.0850 Cl  0  0  0  0  0  0  0  0  0  0  0  0
  138.7500   82.2710  221.7020 C   0  0  0  0  0  0  0  0  0  0  0  0
  140.5680   85.6880  221.3863 H   0  0  0  0  0  0  0  0  0  0  0  0
  141.2385   85.0843  219.8330 H   0  0  0  0  0  0  0  0  0  0  0  0
  139.7955   86.1540  219.8330 H   0  0  0  0  0  0  0  0  0  0  0  0
  141.8655   83.3395  221.0033 H   0  0  0  0  0  0  0  0  0  0  0  0
  142.4268   81.3107  222.2984 H   0  0  0  0  0  0  0  0  0  0  0  0
  140.0946   79.6373  224.2768 H   0  0  0  0  0  0  0  0  0  0  0  0
  142.1733   79.6401  225.0597 H   0  0  0  0  0  0  0  0  0  0  0  0
  142.7587   78.7637  223.6051 H   0  0  0  0  0  0  0  0  0  0  0  0
  142.6898   80.5587  223.6051 H   0  0  0  0  0  0  0  0  0  0  0  0
  139.9060   77.6220  223.1470 H   0  0  0  0  0  0  0  0  0  0  0  0
  141.6438   75.9209  221.5777 H   0  0  0  0  0  0  0  0  0  0  0  0
  142.3165   77.0296  219.2262 H   0  0  0  0  0  0  0  0  0  0  0  0
  141.2944   75.6609  218.9738 H   0  0  0  0  0  0  0  0  0  0  0  0
  140.5348   78.6529  219.1489 H   0  0  0  0  0  0  0  0  0  0  0  0
  140.6950   77.7530  217.1420 H   0  0  0  0  0  0  0  0  0  0  0  0
  138.6458   78.2003  220.4064 H   0  0  0  0  0  0  0  0  0  0  0  0
  138.1881   76.8496  219.3920 H   0  0  0  0  0  0  0  0  0  0  0  0
  137.8788   73.7785  220.8219 H   0  0  0  0  0  0  0  0  0  0  0  0
  139.6368   73.8671  220.4684 H   0  0  0  0  0  0  0  0  0  0  0  0
  139.4420   73.4940  223.2960 H   0  0  0  0  0  0  0  0  0  0  0  0
  138.5840   69.0474  222.6340 H   0  0  0  0  0  0  0  0  0  0  0  0
  139.0982   67.6829  224.6591 H   0  0  0  0  0  0  0  0  0  0  0  0
  139.9786   67.6225  226.8989 H   0  0  0  0  0  0  0  0  0  0  0  0
  141.4807   71.1783  228.7418 H   0  0  0  0  0  0  0  0  0  0  0  0
  140.9559   72.4928  226.7189 H   0  0  0  0  0  0  0  0  0  0  0  0
  137.6956   82.5370  221.5361 H   0  0  0  0  0  0  0  0  0  0  0  0
  1  2  1  0
  2  3  1  0
  3  4  2  0
  4  5  1  0
  5  6  2  0
  6  7  1  0
  7  8  1  0
  7  9  1  0
  9 10  1  0
 10 11  2  0
 10 12  1  0
 12 13  1  0
 13 14  1  0
 14 15  1  0
 14 16  1  0
 16 17  1  0
 17 18  1  0
 18 19  2  0
 18 20  1  0
 20 21  1  0
 21 22  1  0
 22 23  2  0
 22 24  1  0
 24 25  2  0
 25 26  1  0
 26 27  2  0
 27 28  1  0
 28 29  2  0
 29 30  1  0
 29 31  1  0
 31 32  2  0
 32 33  1  0
 33 34  2  0
  6 35  1  0
 35 36  1  0
 35 37  2  0
 37  3  1  0
 17 12  1  0
 34 24  1  0
 33 27  1  0
  1 38  1  0
  1 39  1  0
  1 40  1  0
  4 41  1  0
  5 42  1  0
  7 43  1  1
  8 44  1  0
  8 45  1  0
  8 46  1  0
  9 47  1  0
 12 48  1  1
 13 49  1  0
 13 50  1  0
 14 51  1  6
 15 52  1  0
 16 53  1  0
 16 54  1  0
 20 55  1  0
 20 56  1  0
 21 57  1  0
 25 58  1  0
 26 59  1  0
 28 60  1  0
 31 61  1  0
 32 62  1  0
 37 63  1  0
M  END
>  <smiles>  (22) 
COc1ccc([C@H](C)NC(=O)[C@@H]2C[C@@H](O)CN2C(=O)CNC(=O)c2ccc3cc(F)ccc3n2)c(Cl)c1

>  <score_type>  (22) 
oracle

>  <origin>  (22) 
autodockgpu

>  <m_score__min__energy>  (22) 
-9.0500000000000007

>  <m_primary>  (22) 
energy

>  <rmsd>  (22) 
1.6827737225590635

>  <m_score__min__rmsd>  (22) 
1.6827737225590635

>  <meeko>  (22) 
{"free_energy": -7.5, "intermolecular_energy": -10.18, "internal_energy": -2.88, "cluster_size": 6, "cluster_id": 4, "rank_in_cluster": 6}

>  <energy>  (22) 
-8.29

>  <cluster_rmsd>  (22) 
0.4

>  <cluster>  (22) 
4

$$$$

     RDKit          3D

 63 66  0  0  0  0  0  0  0  0999 V2000
  137.3920   81.5970  225.3400 C   0  0  0  0  0  0  0  0  0  0  0  0
  137.4670   80.6350  224.3290 O   0  0  0  0  0  0  0  0  0  0  0  0
  138.5620   80.3850  223.5250 C   0  0  0  0  0  0  0  0  0  0  0  0
  138.3380   79.9320  222.2270 C   0  0  0  0  0  0  0  0  0  0  0  0
  139.3960   79.6620  221.3650 C   0  0  0  0  0  0  0  0  0  0  0  0
  140.7260   79.8370  221.7720 C   0  0  0  0  0  0  0  0  0  0  0  0
  141.7670   79.5440  220.8020 C   0  0  2  0  0  0  0  0  0  0  0  0
  141.4720   79.9800  219.3900 C   0  0  0  0  0  0  0  0  0  0  0  0
  142.1990   78.1560  220.7700 N   0  0  0  0  0  0  0  0  0  0  0  0
  141.3400   77.0930  220.3520 C   0  0  0  0  0  0  0  0  0  0  0  0
  140.1370   77.3090  219.9830 O   0  0  0  0  0  0  0  0  0  0  0  0
  141.9210   75.7250  220.3700 C   0  0  2  0  0  0  0  0  0  0  0  0
  143.3140   75.7300  219.7160 C   0  0  0  0  0  0  0  0  0  0  0  0
  142.9150   76.0650  218.2940 C   0  0  1  0  0  0  0  0  0  0  0  0
  143.8970   75.7100  217.3790 O   0  0  0  0  0  0  0  0  0  0  0  0
  141.6050   75.3320  218.0630 C   0  0  0  0  0  0  0  0  0  0  0  0
  141.2490   74.8640  219.4110 N   0  0  0  0  0  0  0  0  0  0  0  0
  140.3910   73.7460  219.7210 C   0  0  0  0  0  0  0  0  0  0  0  0
  139.1880   73.9630  220.0130 O   0  0  0  0  0  0  0  0  0  0  0  0
  140.9880   72.3810  219.6780 C   0  0  0  0  0  0  0  0  0  0  0  0
  140.6500   71.6710  220.8970 N   0  0  0  0  0  0  0  0  0  0  0  0
  140.6000   72.2850  222.1740 C   0  0  0  0  0  0  0  0  0  0  0  0
  140.8560   73.5250  222.3200 O   0  0  0  0  0  0  0  0  0  0  0  0
  140.2490   71.4820  223.3550 C   0  0  0  0  0  0  0  0  0  0  0  0
  139.4660   70.3550  223.2810 C   0  0  0  0  0  0  0  0  0  0  0  0
  139.1410   69.6010  224.4010 C   0  0  0  0  0  0  0  0  0  0  0  0
  139.6400   70.0300  225.6070 C   0  0  0  0  0  0  0  0  0  0  0  0
  139.3580   69.3300  226.7690 C   0  0  0  0  0  0  0  0  0  0  0  0
  139.8410   69.7300  228.0070 C   0  0  0  0  0  0  0  0  0  0  0  0
  139.5770   69.0610  229.1510 F   0  0  0  0  0  0  0  0  0  0  0  0
  140.6280   70.8710  228.0450 C   0  0  0  0  0  0  0  0  0  0  0  0
  140.9370   71.6010  226.9210 C   0  0  0  0  0  0  0  0  0  0  0  0
  140.4280   71.1630  225.6970 C   0  0  0  0  0  0  0  0  0  0  0  0
  140.7000   71.8400  224.5680 N   0  0  0  0  0  0  0  0  0  0  0  0
  140.9430   80.2890  223.0690 C   0  0  0  0  0  0  0  0  0  0  0  0
  142.5900   80.5080  223.5960 Cl  0  0  0  0  0  0  0  0  0  0  0  0
  139.8690   80.5540  223.9200 C   0  0  0  0  0  0  0  0  0  0  0  0
  137.4306   81.1014  226.3213 H   0  0  0  0  0  0  0  0  0  0  0  0
  138.2386   82.2932  225.2472 H   0  0  0  0  0  0  0  0  0  0  0  0
  136.4477   82.1536  225.2472 H   0  0  0  0  0  0  0  0  0  0  0  0
  137.3055   79.7850  221.8771 H   0  0  0  0  0  0  0  0  0  0  0  0
  139.1852   79.3049  220.3461 H   0  0  0  0  0  0  0  0  0  0  0  0
  142.5887   80.1632  221.1911 H   0  0  0  0  0  0  0  0  0  0  0  0
  140.8557   80.8909  219.4087 H   0  0  0  0  0  0  0  0  0  0  0  0
  142.4164   80.1870  218.8653 H   0  0  0  0  0  0  0  0  0  0  0  0
  140.9286   79.1804  218.8653 H   0  0  0  0  0  0  0  0  0  0  0  0
  143.1970   77.9320  221.0710 H   0  0  0  0  0  0  0  0  0  0  0  0
  141.8712   75.4073  221.4219 H   0  0  0  0  0  0  0  0  0  0  0  0
  143.9698   76.4985  220.1510 H   0  0  0  0  0  0  0  0  0  0  0  0
  143.8932   74.8026  219.8359 H   0  0  0  0  0  0  0  0  0  0  0  0
  142.7927   77.1486  218.1497 H   0  0  0  0  0  0  0  0  0  0  0  0
  144.7900   75.8120  217.7840 H   0  0  0  0  0  0  0  0  0  0  0  0
  140.8367   76.0106  217.6638 H   0  0  0  0  0  0  0  0  0  0  0  0
  141.6862   74.5180  217.3276 H   0  0  0  0  0  0  0  0  0  0  0  0
  140.5899   71.8330  218.8112 H   0  0  0  0  0  0  0  0  0  0  0  0
  142.0815   72.4598  219.5888 H   0  0  0  0  0  0  0  0  0  0  0  0
  140.4220   70.6360  220.8770 H   0  0  0  0  0  0  0  0  0  0  0  0
  139.0830   70.0389  222.2995 H   0  0  0  0  0  0  0  0  0  0  0  0
  138.5127   68.7012  224.3260 H   0  0  0  0  0  0  0  0  0  0  0  0
  138.7311   68.4282  226.7083 H   0  0  0  0  0  0  0  0  0  0  0  0
  141.0221   71.2067  229.0156 H   0  0  0  0  0  0  0  0  0  0  0  0
  141.5654   72.5016  226.9845 H   0  0  0  0  0  0  0  0  0  0  0  0
  140.0743   80.9098  224.9404 H   0  0  0  0  0  0  0  0  0  0  0  0
  1  2  1  0
  2  3  1  0
  3  4  2  0
  4  5  1  0
  5  6  2  0
  6  7  1  0
  7  8  1  0
  7  9  1  0
  9 10  1  0
 10 11  2  0
 10 12  1  0
 12 13  1  0
 13 14  1  0
 14 15  1  0
 14 16  1  0
 16 17  1  0
 17 18  1  0
 18 19  2  0
 18 20  1  0
 20 21  1  0
 21 22  1  0
 22 23  2  0
 22 24  1  0
 24 25  2  0
 25 26  1  0
 26 27  2  0
 27 28  1  0
 28 29  2  0
 29 30  1  0
 29 31  1  0
 31 32  2  0
 32 33  1  0
 33 34  2  0
  6 35  1  0
 35 36  1  0
 35 37  2  0
 37  3  1  0
 17 12  1  0
 34 24  1  0
 33 27  1  0
  1 38  1  0
  1 39  1  0
  1 40  1  0
  4 41  1  0
  5 42  1  0
  7 43  1  1
  8 44  1  0
  8 45  1  0
  8 46  1  0
  9 47  1  0
 12 48  1  1
 13 49  1  0
 13 50  1  0
 14 51  1  1
 15 52  1  0
 16 53  1  0
 16 54  1  0
 20 55  1  0
 20 56  1  0
 21 57  1  0
 25 58  1  0
 26 59  1  0
 28 60  1  0
 31 61  1  0
 32 62  1  0
 37 63  1  0
M  END
>  <smiles>  (23) 
COc1ccc([C@H](C)NC(=O)[C@@H]2C[C@@H](O)CN2C(=O)CNC(=O)c2ccc3cc(F)ccc3n2)c(Cl)c1

>  <score_type>  (23) 
oracle

>  <origin>  (23) 
autodockgpu

>  <m_score__min__energy>  (23) 
-9.0500000000000007

>  <m_primary>  (23) 
energy

>  <rmsd>  (23) 
3.346934433226749

>  <m_score__min__rmsd>  (23) 
3.346934433226749

>  <meeko>  (23) 
{"free_energy": -8.86, "intermolecular_energy": -11.54, "internal_energy": -1.67, "cluster_size": 2, "cluster_id": 3, "rank_in_cluster": 1}

>  <energy>  (23) 
-8.16

>  <cluster_rmsd>  (23) 
0.65

>  <cluster>  (23) 
4

$$$$

     RDKit          3D

 63 66  0  0  0  0  0  0  0  0999 V2000
  141.8020   78.0890  220.0040 C   0  0  0  0  0  0  0  0  0  0  0  0
  141.0890   77.3730  220.9700 O   0  0  0  0  0  0  0  0  0  0  0  0
  141.1040   76.0030  221.1420 C   0  0  0  0  0  0  0  0  0  0  0  0
  139.9980   75.4000  221.7350 C   0  0  0  0  0  0  0  0  0  0  0  0
  139.9480   74.0240  221.9380 C   0  0  0  0  0  0  0  0  0  0  0  0
  141.0110   73.1960  221.5510 C   0  0  0  0  0  0  0  0  0  0  0  0
  140.8690   71.7700  221.7880 C   0  0  2  0  0  0  0  0  0  0  0  0
  140.6810   70.9280  220.5530 C   0  0  0  0  0  0  0  0  0  0  0  0
  139.8360   71.4090  222.7460 N   0  0  0  0  0  0  0  0  0  0  0  0
  140.1270   71.1030  224.1110 C   0  0  0  0  0  0  0  0  0  0  0  0
  141.3210   71.1300  224.5650 O   0  0  0  0  0  0  0  0  0  0  0  0
  138.9690   70.7520  224.9740 C   0  0  2  0  0  0  0  0  0  0  0  0
  139.3560   69.6300  225.9530 C   0  0  0  0  0  0  0  0  0  0  0  0
  139.5760   68.5060  224.9620 C   0  0  1  0  0  0  0  0  0  0  0  0
  139.5060   67.2570  225.5660 O   0  0  0  0  0  0  0  0  0  0  0  0
  138.5150   68.7010  223.8940 C   0  0  0  0  0  0  0  0  0  0  0  0
  137.9620   70.0240  224.2190 N   0  0  0  0  0  0  0  0  0  0  0  0
  136.6510   70.5070  223.8570 C   0  0  0  0  0  0  0  0  0  0  0  0
  136.5360   71.2790  222.8720 O   0  0  0  0  0  0  0  0  0  0  0  0
  135.4940   70.0580  224.6820 C   0  0  0  0  0  0  0  0  0  0  0  0
  134.7910   71.2180  225.1950 N   0  0  0  0  0  0  0  0  0  0  0  0
  133.8470   71.1570  226.2510 C   0  0  0  0  0  0  0  0  0  0  0  0
  133.5600   70.0530  226.8180 O   0  0  0  0  0  0  0  0  0  0  0  0
  133.1820   72.3880  226.7040 C   0  0  0  0  0  0  0  0  0  0  0  0
  131.9900   72.3800  227.3900 C   0  0  0  0  0  0  0  0  0  0  0  0
  131.3700   73.5480  227.8160 C   0  0  0  0  0  0  0  0  0  0  0  0
  132.0020   74.7320  227.5240 C   0  0  0  0  0  0  0  0  0  0  0  0
  131.4440   75.9380  227.9170 C   0  0  0  0  0  0  0  0  0  0  0  0
  132.0500   77.1560  227.6410 C   0  0  0  0  0  0  0  0  0  0  0  0
  131.5210   78.3410  228.0140 F   0  0  0  0  0  0  0  0  0  0  0  0
  133.2500   77.1270  226.9480 C   0  0  0  0  0  0  0  0  0  0  0  0
  133.8460   75.9570  226.5360 C   0  0  0  0  0  0  0  0  0  0  0  0
  133.2010   74.7560  226.8350 C   0  0  0  0  0  0  0  0  0  0  0  0
  133.7400   73.5840  226.4540 N   0  0  0  0  0  0  0  0  0  0  0  0
  142.1130   73.8040  220.9600 C   0  0  0  0  0  0  0  0  0  0  0  0
  143.4470   72.7920  220.4770 Cl  0  0  0  0  0  0  0  0  0  0  0  0
  142.1450   75.1860  220.7660 C   0  0  0  0  0  0  0  0  0  0  0  0
  142.4947   78.7846  220.5003 H   0  0  0  0  0  0  0  0  0  0  0  0
  142.3726   77.3891  219.3758 H   0  0  0  0  0  0  0  0  0  0  0  0
  141.0998   78.6566  219.3758 H   0  0  0  0  0  0  0  0  0  0  0  0
  139.1475   76.0230  222.0490 H   0  0  0  0  0  0  0  0  0  0  0  0
  139.0597   73.5788  222.4099 H   0  0  0  0  0  0  0  0  0  0  0  0
  141.8531   71.5369  222.2208 H   0  0  0  0  0  0  0  0  0  0  0  0
  140.4500   69.8933  220.8463 H   0  0  0  0  0  0  0  0  0  0  0  0
  139.8513   71.3337  219.9554 H   0  0  0  0  0  0  0  0  0  0  0  0
  141.6044   70.9422  219.9554 H   0  0  0  0  0  0  0  0  0  0  0  0
  138.8260   71.3740  222.4080 H   0  0  0  0  0  0  0  0  0  0  0  0
  138.6449   71.7046  225.4184 H   0  0  0  0  0  0  0  0  0  0  0  0
  140.2722   69.8702  226.5124 H   0  0  0  0  0  0  0  0  0  0  0  0
  138.6208   69.4220  226.7444 H   0  0  0  0  0  0  0  0  0  0  0  0
  140.5857   68.5382  224.5268 H   0  0  0  0  0  0  0  0  0  0  0  0
  140.3180   66.7380  225.3650 H   0  0  0  0  0  0  0  0  0  0  0  0
  138.9600   68.6942  222.8880 H   0  0  0  0  0  0  0  0  0  0  0  0
  137.7572   67.9038  223.8835 H   0  0  0  0  0  0  0  0  0  0  0  0
  134.8109   69.4593  224.0616 H   0  0  0  0  0  0  0  0  0  0  0  0
  135.8559   69.4461  225.5214 H   0  0  0  0  0  0  0  0  0  0  0  0
  134.9610   72.1810  224.7880 H   0  0  0  0  0  0  0  0  0  0  0  0
  131.5105   71.4146  227.6092 H   0  0  0  0  0  0  0  0  0  0  0  0
  130.4157   73.5256  228.3626 H   0  0  0  0  0  0  0  0  0  0  0  0
  130.4904   75.9299  228.4652 H   0  0  0  0  0  0  0  0  0  0  0  0
  133.7475   78.0805  226.7173 H   0  0  0  0  0  0  0  0  0  0  0  0
  134.8001   75.9680  225.9886 H   0  0  0  0  0  0  0  0  0  0  0  0
  143.0320   75.6367  220.2969 H   0  0  0  0  0  0  0  0  0  0  0  0
  1  2  1  0
  2  3  1  0
  3  4  2  0
  4  5  1  0
  5  6  2  0
  6  7  1  0
  7  8  1  0
  7  9  1  0
  9 10  1  0
 10 11  2  0
 10 12  1  0
 12 13  1  0
 13 14  1  0
 14 15  1  0
 14 16  1  0
 16 17  1  0
 17 18  1  0
 18 19  2  0
 18 20  1  0
 20 21  1  0
 21 22  1  0
 22 23  2  0
 22 24  1  0
 24 25  2  0
 25 26  1  0
 26 27  2  0
 27 28  1  0
 28 29  2  0
 29 30  1  0
 29 31  1  0
 31 32  2  0
 32 33  1  0
 33 34  2  0
  6 35  1  0
 35 36  1  0
 35 37  2  0
 37  3  1  0
 17 12  1  0
 34 24  1  0
 33 27  1  0
  1 38  1  0
  1 39  1  0
  1 40  1  0
  4 41  1  0
  5 42  1  0
  7 43  1  1
  8 44  1  0
  8 45  1  0
  8 46  1  0
  9 47  1  0
 12 48  1  1
 13 49  1  0
 13 50  1  0
 14 51  1  6
 15 52  1  0
 16 53  1  0
 16 54  1  0
 20 55  1  0
 20 56  1  0
 21 57  1  0
 25 58  1  0
 26 59  1  0
 28 60  1  0
 31 61  1  0
 32 62  1  0
 37 63  1  0
M  END
>  <smiles>  (24) 
COc1ccc([C@H](C)NC(=O)[C@@H]2C[C@@H](O)CN2C(=O)CNC(=O)c2ccc3cc(F)ccc3n2)c(Cl)c1

>  <score_type>  (24) 
oracle

>  <origin>  (24) 
autodockgpu

>  <m_score__min__energy>  (24) 
-9.0500000000000007

>  <m_primary>  (24) 
energy

>  <rmsd>  (24) 
8.645749723920165

>  <m_score__min__rmsd>  (24) 
8.645749723920165

>  <meeko>  (24) 
{"free_energy": -7.71, "intermolecular_energy": -10.4, "internal_energy": -2.67, "cluster_size": 2, "cluster_id": 8, "rank_in_cluster": 1}

>  <energy>  (24) 
-7.82

>  <cluster_rmsd>  (24) 
0.64

>  <cluster>  (24) 
4

$$$$

     RDKit          3D

 63 66  0  0  0  0  0  0  0  0999 V2000
  138.3980   82.1070  220.6770 C   0  0  0  0  0  0  0  0  0  0  0  0
  139.6820   82.1450  220.1260 O   0  0  0  0  0  0  0  0  0  0  0  0
  140.4010   81.0590  219.6670 C   0  0  0  0  0  0  0  0  0  0  0  0
  141.7530   81.2340  219.3830 C   0  0  0  0  0  0  0  0  0  0  0  0
  142.5350   80.1820  218.9170 C   0  0  0  0  0  0  0  0  0  0  0  0
  141.9890   78.9070  218.7170 C   0  0  0  0  0  0  0  0  0  0  0  0
  142.8810   77.8640  218.2420 C   0  0  2  0  0  0  0  0  0  0  0  0
  142.4970   77.2390  216.9250 C   0  0  0  0  0  0  0  0  0  0  0  0
  143.1360   76.7950  219.1950 N   0  0  0  0  0  0  0  0  0  0  0  0
  142.5650   75.4920  219.0590 C   0  0  0  0  0  0  0  0  0  0  0  0
  141.7940   75.1960  218.0850 O   0  0  0  0  0  0  0  0  0  0  0  0
  142.9160   74.5020  220.1110 C   0  0  2  0  0  0  0  0  0  0  0  0
  144.4430   74.4380  220.2920 C   0  0  0  0  0  0  0  0  0  0  0  0
  144.8260   73.8650  218.9440 C   0  0  1  0  0  0  0  0  0  0  0  0
  146.0860   73.2830  218.9640 O   0  0  0  0  0  0  0  0  0  0  0  0
  143.7270   72.8740  218.6040 C   0  0  0  0  0  0  0  0  0  0  0  0
  142.7110   73.1440  219.6330 N   0  0  0  0  0  0  0  0  0  0  0  0
  141.6990   72.2220  220.0880 C   0  0  0  0  0  0  0  0  0  0  0  0
  142.0520   71.0960  220.5240 O   0  0  0  0  0  0  0  0  0  0  0  0
  140.2770   72.6600  220.0160 C   0  0  0  0  0  0  0  0  0  0  0  0
  140.1810   74.0490  220.4210 N   0  0  0  0  0  0  0  0  0  0  0  0
  139.9760   74.4610  221.7620 C   0  0  0  0  0  0  0  0  0  0  0  0
  139.8630   73.6110  222.7040 O   0  0  0  0  0  0  0  0  0  0  0  0
  139.8910   75.8950  222.0780 C   0  0  0  0  0  0  0  0  0  0  0  0
  138.7080   76.5150  222.4060 C   0  0  0  0  0  0  0  0  0  0  0  0
  138.6370   77.8690  222.7060 C   0  0  0  0  0  0  0  0  0  0  0  0
  139.8110   78.5800  222.6630 C   0  0  0  0  0  0  0  0  0  0  0  0
  139.8190   79.9360  222.9490 C   0  0  0  0  0  0  0  0  0  0  0  0
  140.9840   80.6900  222.9150 C   0  0  0  0  0  0  0  0  0  0  0  0
  141.0120   82.0120  223.1900 F   0  0  0  0  0  0  0  0  0  0  0  0
  142.1580   80.0330  222.5810 C   0  0  0  0  0  0  0  0  0  0  0  0
  142.2040   78.6900  222.2880 C   0  0  0  0  0  0  0  0  0  0  0  0
  141.0090   77.9710  222.3340 C   0  0  0  0  0  0  0  0  0  0  0  0
  140.9980   76.6550  222.0560 N   0  0  0  0  0  0  0  0  0  0  0  0
  140.6380   78.7380  219.0020 C   0  0  0  0  0  0  0  0  0  0  0  0
  139.9400   77.1600  218.7550 Cl  0  0  0  0  0  0  0  0  0  0  0  0
  139.8700   79.8050  219.4680 C   0  0  0  0  0  0  0  0  0  0  0  0
  138.4698   82.1091  221.7747 H   0  0  0  0  0  0  0  0  0  0  0  0
  137.8303   82.9887  220.3450 H   0  0  0  0  0  0  0  0  0  0  0  0
  137.8834   81.1932  220.3450 H   0  0  0  0  0  0  0  0  0  0  0  0
  142.2115   82.2231  219.5299 H   0  0  0  0  0  0  0  0  0  0  0  0
  143.6000   80.3539  218.7019 H   0  0  0  0  0  0  0  0  0  0  0  0
  143.8070   78.4398  218.0971 H   0  0  0  0  0  0  0  0  0  0  0  0
  141.9293   76.3150  217.1093 H   0  0  0  0  0  0  0  0  0  0  0  0
  141.8755   77.9431  216.3524 H   0  0  0  0  0  0  0  0  0  0  0  0
  143.4060   77.0028  216.3524 H   0  0  0  0  0  0  0  0  0  0  0  0
  143.7740   77.0010  220.0240 H   0  0  0  0  0  0  0  0  0  0  0  0
  142.3267   74.7985  220.9912 H   0  0  0  0  0  0  0  0  0  0  0  0
  144.8798   75.4344  220.4543 H   0  0  0  0  0  0  0  0  0  0  0  0
  144.7892   73.8621  221.1629 H   0  0  0  0  0  0  0  0  0  0  0  0
  144.9040   74.6480  218.1753 H   0  0  0  0  0  0  0  0  0  0  0  0
  146.7820   73.9800  218.9450 H   0  0  0  0  0  0  0  0  0  0  0  0
  143.3273   73.0569  217.5956 H   0  0  0  0  0  0  0  0  0  0  0  0
  144.0712   71.8292  218.5970 H   0  0  0  0  0  0  0  0  0  0  0  0
  139.9114   72.5522  218.9842 H   0  0  0  0  0  0  0  0  0  0  0  0
  139.6660   72.0381  220.6868 H   0  0  0  0  0  0  0  0  0  0  0  0
  140.2620   74.8300  219.7100 H   0  0  0  0  0  0  0  0  0  0  0  0
  137.7851   75.9170  222.4316 H   0  0  0  0  0  0  0  0  0  0  0  0
  137.6829   78.3505  222.9664 H   0  0  0  0  0  0  0  0  0  0  0  0
  138.8721   80.4305  223.2113 H   0  0  0  0  0  0  0  0  0  0  0  0
  143.0935   80.6108  222.5489 H   0  0  0  0  0  0  0  0  0  0  0  0
  143.1525   78.1984  222.0258 H   0  0  0  0  0  0  0  0  0  0  0  0
  138.8043   79.6386  219.6837 H   0  0  0  0  0  0  0  0  0  0  0  0
  1  2  1  0
  2  3  1  0
  3  4  2  0
  4  5  1  0
  5  6  2  0
  6  7  1  0
  7  8  1  0
  7  9  1  0
  9 10  1  0
 10 11  2  0
 10 12  1  0
 12 13  1  0
 13 14  1  0
 14 15  1  0
 14 16  1  0
 16 17  1  0
 17 18  1  0
 18 19  2  0
 18 20  1  0
 20 21  1  0
 21 22  1  0
 22 23  2  0
 22 24  1  0
 24 25  2  0
 25 26  1  0
 26 27  2  0
 27 28  1  0
 28 29  2  0
 29 30  1  0
 29 31  1  0
 31 32  2  0
 32 33  1  0
 33 34  2  0
  6 35  1  0
 35 36  1  0
 35 37  2  0
 37  3  1  0
 17 12  1  0
 34 24  1  0
 33 27  1  0
  1 38  1  0
  1 39  1  0
  1 40  1  0
  4 41  1  0
  5 42  1  0
  7 43  1  6
  8 44  1  0
  8 45  1  0
  8 46  1  0
  9 47  1  0
 12 48  1  1
 13 49  1  0
 13 50  1  0
 14 51  1  6
 15 52  1  0
 16 53  1  0
 16 54  1  0
 20 55  1  0
 20 56  1  0
 21 57  1  0
 25 58  1  0
 26 59  1  0
 28 60  1  0
 31 61  1  0
 32 62  1  0
 37 63  1  0
M  END
>  <smiles>  (25) 
COc1ccc([C@H](C)NC(=O)[C@@H]2C[C@@H](O)CN2C(=O)CNC(=O)c2ccc3cc(F)ccc3n2)c(Cl)c1

>  <score_type>  (25) 
oracle

>  <origin>  (25) 
autodockgpu

>  <m_score__min__energy>  (25) 
-9.0500000000000007

>  <m_primary>  (25) 
energy

>  <rmsd>  (25) 
6.372674074925827

>  <m_score__min__rmsd>  (25) 
6.372674074925827

>  <meeko>  (25) 
{"free_energy": -6.89, "intermolecular_energy": -9.58, "internal_energy": -3.79, "cluster_size": 9, "cluster_id": 11, "rank_in_cluster": 1}

>  <energy>  (25) 
-7.5

>  <cluster_rmsd>  (25) 
1.18

>  <cluster>  (25) 
4

$$$$

     RDKit          3D

 63 66  0  0  0  0  0  0  0  0999 V2000
  138.2930   82.5360  221.9460 C   0  0  0  0  0  0  0  0  0  0  0  0
  139.4430   82.6080  221.1550 O   0  0  0  0  0  0  0  0  0  0  0  0
  140.0930   81.5410  220.5650 C   0  0  0  0  0  0  0  0  0  0  0  0
  141.4840   81.5670  220.5020 C   0  0  0  0  0  0  0  0  0  0  0  0
  142.1990   80.5250  219.9210 C   0  0  0  0  0  0  0  0  0  0  0  0
  141.5440   79.4110  219.3780 C   0  0  0  0  0  0  0  0  0  0  0  0
  142.3700   78.3630  218.8040 C   0  0  2  0  0  0  0  0  0  0  0  0
  142.0570   78.0080  217.3730 C   0  0  0  0  0  0  0  0  0  0  0  0
  142.4220   77.1320  219.5780 N   0  0  0  0  0  0  0  0  0  0  0  0
  143.1590   75.9860  219.1480 C   0  0  0  0  0  0  0  0  0  0  0  0
  143.8160   75.9820  218.0520 O   0  0  0  0  0  0  0  0  0  0  0  0
  143.1210   74.7990  220.0430 C   0  0  2  0  0  0  0  0  0  0  0  0
  144.5200   74.1680  220.1480 C   0  0  0  0  0  0  0  0  0  0  0  0
  144.6800   73.6890  218.7200 C   0  0  1  0  0  0  0  0  0  0  0  0
  145.6450   72.6960  218.6090 O   0  0  0  0  0  0  0  0  0  0  0  0
  143.2990   73.2150  218.3010 C   0  0  0  0  0  0  0  0  0  0  0  0
  142.4430   73.6860  219.3990 N   0  0  0  0  0  0  0  0  0  0  0  0
  141.1630   73.1350  219.7730 C   0  0  0  0  0  0  0  0  0  0  0  0
  141.1230   72.0040  220.3220 O   0  0  0  0  0  0  0  0  0  0  0  0
  139.9460   73.9440  219.4820 C   0  0  0  0  0  0  0  0  0  0  0  0
  140.0560   75.2310  220.1420 N   0  0  0  0  0  0  0  0  0  0  0  0
  140.0940   75.3870  221.5510 C   0  0  0  0  0  0  0  0  0  0  0  0
  140.0320   74.3800  222.3290 O   0  0  0  0  0  0  0  0  0  0  0  0
  140.2050   76.7340  222.1310 C   0  0  0  0  0  0  0  0  0  0  0  0
  139.1160   77.4440  222.5760 C   0  0  0  0  0  0  0  0  0  0  0  0
  139.2300   78.7150  223.1250 C   0  0  0  0  0  0  0  0  0  0  0  0
  140.4940   79.2450  223.2110 C   0  0  0  0  0  0  0  0  0  0  0  0
  140.6870   80.5080  223.7460 C   0  0  0  0  0  0  0  0  0  0  0  0
  141.9480   81.0810  223.8500 C   0  0  0  0  0  0  0  0  0  0  0  0
  142.1560   82.3100  224.3680 F   0  0  0  0  0  0  0  0  0  0  0  0
  143.0240   80.3370  223.3920 C   0  0  0  0  0  0  0  0  0  0  0  0
  142.8860   79.0790  222.8510 C   0  0  0  0  0  0  0  0  0  0  0  0
  141.6000   78.5430  222.7670 C   0  0  0  0  0  0  0  0  0  0  0  0
  141.4090   77.3180  222.2470 N   0  0  0  0  0  0  0  0  0  0  0  0
  140.1550   79.3900  219.4440 C   0  0  0  0  0  0  0  0  0  0  0  0
  139.3230   78.0150  218.7710 Cl  0  0  0  0  0  0  0  0  0  0  0  0
  139.4550   80.4460  220.0300 C   0  0  0  0  0  0  0  0  0  0  0  0
  138.5771   82.5538  223.0085 H   0  0  0  0  0  0  0  0  0  0  0  0
  137.6423   83.3952  221.7260 H   0  0  0  0  0  0  0  0  0  0  0  0
  137.7545   81.6024  221.7260 H   0  0  0  0  0  0  0  0  0  0  0  0
  142.0273   82.4276  220.9195 H   0  0  0  0  0  0  0  0  0  0  0  0
  143.2973   80.5760  219.8871 H   0  0  0  0  0  0  0  0  0  0  0  0
  143.3589   78.8438  218.8338 H   0  0  0  0  0  0  0  0  0  0  0  0
  141.3297   77.1831  217.3505 H   0  0  0  0  0  0  0  0  0  0  0  0
  141.6328   78.8849  216.8621 H   0  0  0  0  0  0  0  0  0  0  0  0
  142.9801   77.6970  216.8621 H   0  0  0  0  0  0  0  0  0  0  0  0
  141.8880   77.0930  220.4990 H   0  0  0  0  0  0  0  0  0  0  0  0
  142.6717   75.1611  220.9795 H   0  0  0  0  0  0  0  0  0  0  0  0
  145.2858   74.9088  220.4215 H   0  0  0  0  0  0  0  0  0  0  0  0
  144.6289   73.3915  220.9195 H   0  0  0  0  0  0  0  0  0  0  0  0
  145.0408   74.4902  218.0582 H   0  0  0  0  0  0  0  0  0  0  0  0
  145.5900   72.2680  217.7230 H   0  0  0  0  0  0  0  0  0  0  0  0
  142.9991   73.6665  217.3438 H   0  0  0  0  0  0  0  0  0  0  0  0
  143.2426   72.1280  218.1418 H   0  0  0  0  0  0  0  0  0  0  0  0
  139.8560   74.0946  218.3961 H   0  0  0  0  0  0  0  0  0  0  0  0
  139.0552   73.4153  219.8521 H   0  0  0  0  0  0  0  0  0  0  0  0
  140.1130   76.1270  219.5810 H   0  0  0  0  0  0  0  0  0  0  0  0
  138.1176   76.9894  222.4946 H   0  0  0  0  0  0  0  0  0  0  0  0
  138.3480   79.2715  223.4749 H   0  0  0  0  0  0  0  0  0  0  0  0
  139.8136   81.0754  224.0999 H   0  0  0  0  0  0  0  0  0  0  0  0
  144.0322   80.7709  223.4640 H   0  0  0  0  0  0  0  0  0  0  0  0
  143.7608   78.5143  222.4963 H   0  0  0  0  0  0  0  0  0  0  0  0
  138.3565   80.4010  220.0651 H   0  0  0  0  0  0  0  0  0  0  0  0
  1  2  1  0
  2  3  1  0
  3  4  2  0
  4  5  1  0
  5  6  2  0
  6  7  1  0
  7  8  1  0
  7  9  1  0
  9 10  1  0
 10 11  2  0
 10 12  1  0
 12 13  1  0
 13 14  1  0
 14 15  1  0
 14 16  1  0
 16 17  1  0
 17 18  1  0
 18 19  2  0
 18 20  1  0
 20 21  1  0
 21 22  1  0
 22 23  2  0
 22 24  1  0
 24 25  2  0
 25 26  1  0
 26 27  2  0
 27 28  1  0
 28 29  2  0
 29 30  1  0
 29 31  1  0
 31 32  2  0
 32 33  1  0
 33 34  2  0
  6 35  1  0
 35 36  1  0
 35 37  2  0
 37  3  1  0
 17 12  1  0
 34 24  1  0
 33 27  1  0
  1 38  1  0
  1 39  1  0
  1 40  1  0
  4 41  1  0
  5 42  1  0
  7 43  1  6
  8 44  1  0
  8 45  1  0
  8 46  1  0
  9 47  1  0
 12 48  1  1
 13 49  1  0
 13 50  1  0
 14 51  1  6
 15 52  1  0
 16 53  1  0
 16 54  1  0
 20 55  1  0
 20 56  1  0
 21 57  1  0
 25 58  1  0
 26 59  1  0
 28 60  1  0
 31 61  1  0
 32 62  1  0
 37 63  1  0
M  END
>  <smiles>  (26) 
COc1ccc([C@H](C)NC(=O)[C@@H]2C[C@@H](O)CN2C(=O)CNC(=O)c2ccc3cc(F)ccc3n2)c(Cl)c1

>  <score_type>  (26) 
oracle

>  <origin>  (26) 
autodockgpu

>  <m_score__min__energy>  (26) 
-9.0500000000000007

>  <m_primary>  (26) 
energy

>  <rmsd>  (26) 
6.4407039864004165

>  <m_score__min__rmsd>  (26) 
6.4407039864004165

>  <meeko>  (26) 
{"free_energy": -6.4, "intermolecular_energy": -9.08, "internal_energy": -4.33, "cluster_size": 9, "cluster_id": 11, "rank_in_cluster": 5}

>  <energy>  (26) 
-8.62

>  <cluster_rmsd>  (26) 
0.0

>  <cluster>  (26) 
5

$$$$

     RDKit          3D

 63 66  0  0  0  0  0  0  0  0999 V2000
  142.2290   81.6280  223.9720 C   0  0  0  0  0  0  0  0  0  0  0  0
  141.6140   80.3820  224.1230 O   0  0  0  0  0  0  0  0  0  0  0  0
  141.3970   79.4560  223.1220 C   0  0  0  0  0  0  0  0  0  0  0  0
  142.0890   79.6050  221.9230 C   0  0  0  0  0  0  0  0  0  0  0  0
  141.9160   78.7070  220.8740 C   0  0  0  0  0  0  0  0  0  0  0  0
  141.0380   77.6210  220.9870 C   0  0  0  0  0  0  0  0  0  0  0  0
  140.9290   76.7260  219.8480 C   0  0  2  0  0  0  0  0  0  0  0  0
  139.5670   76.6610  219.2080 C   0  0  0  0  0  0  0  0  0  0  0  0
  141.3830   75.3660  220.0920 N   0  0  0  0  0  0  0  0  0  0  0  0
  142.7660   75.0240  220.1910 C   0  0  0  0  0  0  0  0  0  0  0  0
  143.6860   75.9020  220.0680 O   0  0  0  0  0  0  0  0  0  0  0  0
  143.0780   73.5930  220.4450 C   0  0  2  0  0  0  0  0  0  0  0  0
  144.5950   73.4030  220.6220 C   0  0  0  0  0  0  0  0  0  0  0  0
  145.0500   73.7540  219.2200 C   0  0  1  0  0  0  0  0  0  0  0  0
  146.3160   73.2530  218.9430 O   0  0  0  0  0  0  0  0  0  0  0  0
  143.9820   73.1910  218.3000 C   0  0  0  0  0  0  0  0  0  0  0  0
  142.9140   72.8040  219.2350 N   0  0  0  0  0  0  0  0  0  0  0  0
  141.8930   71.8130  218.9920 C   0  0  0  0  0  0  0  0  0  0  0  0
  142.2080   70.7420  218.4150 O   0  0  0  0  0  0  0  0  0  0  0  0
  140.5070   72.1210  219.4440 C   0  0  0  0  0  0  0  0  0  0  0  0
  140.2620   71.4720  220.7180 N   0  0  0  0  0  0  0  0  0  0  0  0
  140.2690   72.1560  221.9590 C   0  0  0  0  0  0  0  0  0  0  0  0
  140.4980   73.4080  222.0220 O   0  0  0  0  0  0  0  0  0  0  0  0
  140.0110   71.4130  223.2020 C   0  0  0  0  0  0  0  0  0  0  0  0
  139.1990   70.3050  223.2500 C   0  0  0  0  0  0  0  0  0  0  0  0
  138.9620   69.6070  224.4280 C   0  0  0  0  0  0  0  0  0  0  0  0
  139.5820   70.0720  225.5630 C   0  0  0  0  0  0  0  0  0  0  0  0
  139.3930   69.4280  226.7750 C   0  0  0  0  0  0  0  0  0  0  0  0
  140.0000   69.8660  227.9440 C   0  0  0  0  0  0  0  0  0  0  0  0
  139.8280   69.2520  229.1350 F   0  0  0  0  0  0  0  0  0  0  0  0
  140.8130   70.9860  227.8590 C   0  0  0  0  0  0  0  0  0  0  0  0
  141.0320   71.6610  226.6810 C   0  0  0  0  0  0  0  0  0  0  0  0
  140.4020   71.1860  225.5300 C   0  0  0  0  0  0  0  0  0  0  0  0
  140.5820   71.8080  224.3520 N   0  0  0  0  0  0  0  0  0  0  0  0
  140.3490   77.4780  222.1860 C   0  0  0  0  0  0  0  0  0  0  0  0
  139.2490   76.1360  222.3440 Cl  0  0  0  0  0  0  0  0  0  0  0  0
  140.5350   78.3890  223.2270 C   0  0  0  0  0  0  0  0  0  0  0  0
  142.4399   82.0553  224.9634 H   0  0  0  0  0  0  0  0  0  0  0  0
  143.1709   81.5071  223.4169 H   0  0  0  0  0  0  0  0  0  0  0  0
  141.5602   82.3022  223.4169 H   0  0  0  0  0  0  0  0  0  0  0  0
  142.7853   80.4480  221.8027 H   0  0  0  0  0  0  0  0  0  0  0  0
  142.4784   78.8524  219.9399 H   0  0  0  0  0  0  0  0  0  0  0  0
  141.6207   77.2105  219.1431 H   0  0  0  0  0  0  0  0  0  0  0  0
  138.7953   76.6242  219.9910 H   0  0  0  0  0  0  0  0  0  0  0  0
  139.4127   77.5528  218.5828 H   0  0  0  0  0  0  0  0  0  0  0  0
  139.4983   75.7586  218.5828 H   0  0  0  0  0  0  0  0  0  0  0  0
  140.6470   74.6020  220.2000 H   0  0  0  0  0  0  0  0  0  0  0  0
  142.4424   73.3087  221.2966 H   0  0  0  0  0  0  0  0  0  0  0  0
  145.0107   74.0903  221.3735 H   0  0  0  0  0  0  0  0  0  0  0  0
  144.9060   72.4117  220.9832 H   0  0  0  0  0  0  0  0  0  0  0  0
  145.1546   74.8406  219.0848 H   0  0  0  0  0  0  0  0  0  0  0  0
  146.9200   73.9860  218.6820 H   0  0  0  0  0  0  0  0  0  0  0  0
  143.6293   73.9534  217.5899 H   0  0  0  0  0  0  0  0  0  0  0  0
  144.3393   72.3564  217.6789 H   0  0  0  0  0  0  0  0  0  0  0  0
  140.3910   73.2089  219.5577 H   0  0  0  0  0  0  0  0  0  0  0  0
  139.7864   71.7530  218.6988 H   0  0  0  0  0  0  0  0  0  0  0  0
  140.0630   70.4330  220.7690 H   0  0  0  0  0  0  0  0  0  0  0  0
  138.7196   69.9584  222.3226 H   0  0  0  0  0  0  0  0  0  0  0  0
  138.3081   68.7228  224.4510 H   0  0  0  0  0  0  0  0  0  0  0  0
  138.7418   68.5422  226.8121 H   0  0  0  0  0  0  0  0  0  0  0  0
  141.3041   71.3504  228.7734 H   0  0  0  0  0  0  0  0  0  0  0  0
  141.6830   72.5470  226.6471 H   0  0  0  0  0  0  0  0  0  0  0  0
  139.9736   78.2491  224.1626 H   0  0  0  0  0  0  0  0  0  0  0  0
  1  2  1  0
  2  3  1  0
  3  4  2  0
  4  5  1  0
  5  6  2  0
  6  7  1  0
  7  8  1  0
  7  9  1  0
  9 10  1  0
 10 11  2  0
 10 12  1  0
 12 13  1  0
 13 14  1  0
 14 15  1  0
 14 16  1  0
 16 17  1  0
 17 18  1  0
 18 19  2  0
 18 20  1  0
 20 21  1  0
 21 22  1  0
 22 23  2  0
 22 24  1  0
 24 25  2  0
 25 26  1  0
 26 27  2  0
 27 28  1  0
 28 29  2  0
 29 30  1  0
 29 31  1  0
 31 32  2  0
 32 33  1  0
 33 34  2  0
  6 35  1  0
 35 36  1  0
 35 37  2  0
 37  3  1  0
 17 12  1  0
 34 24  1  0
 33 27  1  0
  1 38  1  0
  1 39  1  0
  1 40  1  0
  4 41  1  0
  5 42  1  0
  7 43  1  6
  8 44  1  0
  8 45  1  0
  8 46  1  0
  9 47  1  0
 12 48  1  1
 13 49  1  0
 13 50  1  0
 14 51  1  1
 15 52  1  0
 16 53  1  0
 16 54  1  0
 20 55  1  0
 20 56  1  0
 21 57  1  0
 25 58  1  0
 26 59  1  0
 28 60  1  0
 31 61  1  0
 32 62  1  0
 37 63  1  0
M  END
>  <smiles>  (27) 
COc1ccc([C@H](C)NC(=O)[C@@H]2C[C@@H](O)CN2C(=O)CNC(=O)c2ccc3cc(F)ccc3n2)c(Cl)c1

>  <score_type>  (27) 
oracle

>  <origin>  (27) 
autodockgpu

>  <m_score__min__energy>  (27) 
-9.0500000000000007

>  <m_primary>  (27) 
energy

>  <rmsd>  (27) 
4.258865693506831

>  <m_score__min__rmsd>  (27) 
4.258865693506831

>  <meeko>  (27) 
{"free_energy": -8.95, "intermolecular_energy": -11.63, "internal_energy": -2.74, "cluster_size": 8, "cluster_id": 2, "rank_in_cluster": 2}

>  <energy>  (27) 
-7.47

>  <cluster_rmsd>  (27) 
1.72

>  <cluster>  (27) 
5

$$$$

     RDKit          3D

 63 66  0  0  0  0  0  0  0  0999 V2000
  140.3440   85.1090  220.6450 C   0  0  0  0  0  0  0  0  0  0  0  0
  140.7430   83.8260  220.2620 O   0  0  0  0  0  0  0  0  0  0  0  0
  140.6150   82.6760  221.0170 C   0  0  0  0  0  0  0  0  0  0  0  0
  141.5570   81.6650  220.8440 C   0  0  0  0  0  0  0  0  0  0  0  0
  141.4870   80.4810  221.5720 C   0  0  0  0  0  0  0  0  0  0  0  0
  140.4640   80.2650  222.5070 C   0  0  0  0  0  0  0  0  0  0  0  0
  140.4760   79.0070  223.2320 C   0  0  2  0  0  0  0  0  0  0  0  0
  141.8040   78.6200  223.8290 C   0  0  0  0  0  0  0  0  0  0  0  0
  139.9620   77.8670  222.4890 N   0  0  0  0  0  0  0  0  0  0  0  0
  138.8300   77.9630  221.6230 C   0  0  0  0  0  0  0  0  0  0  0  0
  138.2030   79.0630  221.4550 O   0  0  0  0  0  0  0  0  0  0  0  0
  138.4190   76.7140  220.9280 C   0  0  2  0  0  0  0  0  0  0  0  0
  136.9200   76.7640  220.5870 C   0  0  0  0  0  0  0  0  0  0  0  0
  136.3500   76.7430  221.9900 C   0  0  1  0  0  0  0  0  0  0  0  0
  135.0220   76.3360  222.0070 O   0  0  0  0  0  0  0  0  0  0  0  0
  137.2580   75.8150  222.7770 C   0  0  0  0  0  0  0  0  0  0  0  0
  138.3810   75.5950  221.8540 N   0  0  0  0  0  0  0  0  0  0  0  0
  139.2770   74.4630  221.8640 C   0  0  0  0  0  0  0  0  0  0  0  0
  140.5020   74.6580  222.0720 O   0  0  0  0  0  0  0  0  0  0  0  0
  138.6940   73.1130  221.6240 C   0  0  0  0  0  0  0  0  0  0  0  0
  139.0340   72.2390  222.7300 N   0  0  0  0  0  0  0  0  0  0  0  0
  138.7540   70.8490  222.7440 C   0  0  0  0  0  0  0  0  0  0  0  0
  138.1750   70.2820  221.7610 O   0  0  0  0  0  0  0  0  0  0  0  0
  139.1360   70.0420  223.9120 C   0  0  0  0  0  0  0  0  0  0  0  0
  138.9330   68.6840  223.9760 C   0  0  0  0  0  0  0  0  0  0  0  0
  139.2990   67.9280  225.0830 C   0  0  0  0  0  0  0  0  0  0  0  0
  139.8830   68.5990  226.1300 C   0  0  0  0  0  0  0  0  0  0  0  0
  140.2740   67.9130  227.2680 C   0  0  0  0  0  0  0  0  0  0  0  0
  140.8670   68.5530  228.3480 C   0  0  0  0  0  0  0  0  0  0  0  0
  141.2550   67.9020  229.4660 F   0  0  0  0  0  0  0  0  0  0  0  0
  141.0570   69.9230  228.2500 C   0  0  0  0  0  0  0  0  0  0  0  0
  140.6860   70.6500  227.1430 C   0  0  0  0  0  0  0  0  0  0  0  0
  140.0930   69.9650  226.0800 C   0  0  0  0  0  0  0  0  0  0  0  0
  139.7120   70.6290  224.9750 N   0  0  0  0  0  0  0  0  0  0  0  0
  139.5270   81.2790  222.6750 C   0  0  0  0  0  0  0  0  0  0  0  0
  138.2460   81.0270  223.8290 Cl  0  0  0  0  0  0  0  0  0  0  0  0
  139.6140   82.4580  221.9340 C   0  0  0  0  0  0  0  0  0  0  0  0
  140.3237   85.1742  221.7429 H   0  0  0  0  0  0  0  0  0  0  0  0
  141.0547   85.8482  220.2468 H   0  0  0  0  0  0  0  0  0  0  0  0
  139.3394   85.3147  220.2468 H   0  0  0  0  0  0  0  0  0  0  0  0
  142.3717   81.8049  220.1183 H   0  0  0  0  0  0  0  0  0  0  0  0
  142.2465   79.7016  221.4115 H   0  0  0  0  0  0  0  0  0  0  0  0
  139.7812   79.2398  224.0524 H   0  0  0  0  0  0  0  0  0  0  0  0
  141.7327   78.6408  224.9265 H   0  0  0  0  0  0  0  0  0  0  0  0
  142.0732   77.6060  223.4982 H   0  0  0  0  0  0  0  0  0  0  0  0
  142.5758   79.3306  223.4982 H   0  0  0  0  0  0  0  0  0  0  0  0
  140.4550   76.9290  222.6010 H   0  0  0  0  0  0  0  0  0  0  0  0
  139.1139   76.6160  220.0810 H   0  0  0  0  0  0  0  0  0  0  0  0
  136.6513   77.6842  220.0476 H   0  0  0  0  0  0  0  0  0  0  0  0
  136.5619   75.9646  219.9217 H   0  0  0  0  0  0  0  0  0  0  0  0
  136.3293   77.7480  222.4367 H   0  0  0  0  0  0  0  0  0  0  0  0
  134.4380   77.0950  222.2360 H   0  0  0  0  0  0  0  0  0  0  0  0
  137.5986   76.2906  223.7086 H   0  0  0  0  0  0  0  0  0  0  0  0
  136.7627   74.8836  223.0888 H   0  0  0  0  0  0  0  0  0  0  0  0
  137.6000   73.1945  221.5433 H   0  0  0  0  0  0  0  0  0  0  0  0
  139.0993   72.6982  220.6893 H   0  0  0  0  0  0  0  0  0  0  0  0
  139.5170   72.6180  223.5930 H   0  0  0  0  0  0  0  0  0  0  0  0
  138.4638   68.1773  223.1198 H   0  0  0  0  0  0  0  0  0  0  0  0
  139.1289   66.8418  225.1193 H   0  0  0  0  0  0  0  0  0  0  0  0
  140.1095   66.8265  227.3177 H   0  0  0  0  0  0  0  0  0  0  0  0
  141.5246   70.4512  229.0940 H   0  0  0  0  0  0  0  0  0  0  0  0
  140.8511   71.7365  227.0963 H   0  0  0  0  0  0  0  0  0  0  0  0
  138.8558   83.2398  222.0887 H   0  0  0  0  0  0  0  0  0  0  0  0
  1  2  1  0
  2  3  1  0
  3  4  2  0
  4  5  1  0
  5  6  2  0
  6  7  1  0
  7  8  1  0
  7  9  1  0
  9 10  1  0
 10 11  2  0
 10 12  1  0
 12 13  1  0
 13 14  1  0
 14 15  1  0
 14 16  1  0
 16 17  1  0
 17 18  1  0
 18 19  2  0
 18 20  1  0
 20 21  1  0
 21 22  1  0
 22 23  2  0
 22 24  1  0
 24 25  2  0
 25 26  1  0
 26 27  2  0
 27 28  1  0
 28 29  2  0
 29 30  1  0
 29 31  1  0
 31 32  2  0
 32 33  1  0
 33 34  2  0
  6 35  1  0
 35 36  1  0
 35 37  2  0
 37  3  1  0
 17 12  1  0
 34 24  1  0
 33 27  1  0
  1 38  1  0
  1 39  1  0
  1 40  1  0
  4 41  1  0
  5 42  1  0
  7 43  1  1
  8 44  1  0
  8 45  1  0
  8 46  1  0
  9 47  1  0
 12 48  1  6
 13 49  1  0
 13 50  1  0
 14 51  1  1
 15 52  1  0
 16 53  1  0
 16 54  1  0
 20 55  1  0
 20 56  1  0
 21 57  1  0
 25 58  1  0
 26 59  1  0
 28 60  1  0
 31 61  1  0
 32 62  1  0
 37 63  1  0
M  END
>  <smiles>  (28) 
COc1ccc([C@H](C)NC(=O)[C@@H]2C[C@@H](O)CN2C(=O)CNC(=O)c2ccc3cc(F)ccc3n2)c(Cl)c1

>  <score_type>  (28) 
oracle

>  <origin>  (28) 
autodockgpu

>  <m_score__min__energy>  (28) 
-9.0500000000000007

>  <m_primary>  (28) 
energy

>  <rmsd>  (28) 
2.4698197186227784

>  <m_score__min__rmsd>  (28) 
2.4698197186227784

>  <meeko>  (28) 
{"free_energy": -7.88, "intermolecular_energy": -10.56, "internal_energy": -2.7, "cluster_size": 1, "cluster_id": 7, "rank_in_cluster": 1}

>  <energy>  (28) 
-8.03

>  <cluster_rmsd>  (28) 
0.0

>  <cluster>  (28) 
6

$$$$

     RDKit          3D

 63 66  0  0  0  0  0  0  0  0999 V2000
  135.5170   81.6160  227.6750 C   0  0  0  0  0  0  0  0  0  0  0  0
  136.5590   81.9410  226.8030 O   0  0  0  0  0  0  0  0  0  0  0  0
  136.7850   81.3800  225.5610 C   0  0  0  0  0  0  0  0  0  0  0  0
  135.8460   80.4810  225.0620 C   0  0  0  0  0  0  0  0  0  0  0  0
  136.0120   79.8810  223.8180 C   0  0  0  0  0  0  0  0  0  0  0  0
  137.1320   80.1600  223.0230 C   0  0  0  0  0  0  0  0  0  0  0  0
  137.2180   79.4980  221.7320 C   0  0  2  0  0  0  0  0  0  0  0  0
  135.9500   79.5060  220.9190 C   0  0  0  0  0  0  0  0  0  0  0  0
  137.7230   78.1350  221.7760 N   0  0  0  0  0  0  0  0  0  0  0  0
  138.9060   77.7760  222.4920 C   0  0  0  0  0  0  0  0  0  0  0  0
  139.5890   78.6420  223.1370 O   0  0  0  0  0  0  0  0  0  0  0  0
  139.2990   76.3430  222.4470 C   0  0  2  0  0  0  0  0  0  0  0  0
  140.8290   76.2150  222.3420 C   0  0  0  0  0  0  0  0  0  0  0  0
  141.0290   76.8130  220.9640 C   0  0  1  0  0  0  0  0  0  0  0  0
  142.2440   76.4370  220.4050 O   0  0  0  0  0  0  0  0  0  0  0  0
  139.8380   76.3440  220.1480 C   0  0  0  0  0  0  0  0  0  0  0  0
  138.9560   75.7520  221.1650 N   0  0  0  0  0  0  0  0  0  0  0  0
  137.9390   74.7560  220.9280 C   0  0  0  0  0  0  0  0  0  0  0  0
  136.7360   75.0510  221.1420 O   0  0  0  0  0  0  0  0  0  0  0  0
  138.3770   73.4180  220.4390 C   0  0  0  0  0  0  0  0  0  0  0  0
  138.5130   72.5150  221.5660 N   0  0  0  0  0  0  0  0  0  0  0  0
  139.6560   72.4760  222.4050 C   0  0  0  0  0  0  0  0  0  0  0  0
  140.6470   73.2520  222.2070 O   0  0  0  0  0  0  0  0  0  0  0  0
  139.7040   71.5240  223.5250 C   0  0  0  0  0  0  0  0  0  0  0  0
  139.1730   70.2590  223.4490 C   0  0  0  0  0  0  0  0  0  0  0  0
  139.2250   69.3650  224.5110 C   0  0  0  0  0  0  0  0  0  0  0  0
  139.8390   69.7990  225.6610 C   0  0  0  0  0  0  0  0  0  0  0  0
  139.9290   68.9640  226.7620 C   0  0  0  0  0  0  0  0  0  0  0  0
  140.5410   69.3630  227.9430 C   0  0  0  0  0  0  0  0  0  0  0  0
  140.6380   68.5640  229.0270 F   0  0  0  0  0  0  0  0  0  0  0  0
  141.0660   70.6460  227.9850 C   0  0  0  0  0  0  0  0  0  0  0  0
  141.0020   71.5140  226.9200 C   0  0  0  0  0  0  0  0  0  0  0  0
  140.3780   71.0700  225.7530 C   0  0  0  0  0  0  0  0  0  0  0  0
  140.2880   71.8780  224.6820 N   0  0  0  0  0  0  0  0  0  0  0  0
  138.0670   81.0580  223.5270 C   0  0  0  0  0  0  0  0  0  0  0  0
  139.4690   81.4140  222.5540 Cl  0  0  0  0  0  0  0  0  0  0  0  0
  137.8830   81.6490  224.7770 C   0  0  0  0  0  0  0  0  0  0  0  0
  135.8615   81.7234  228.7141 H   0  0  0  0  0  0  0  0  0  0  0  0
  134.6671   82.2917  227.4987 H   0  0  0  0  0  0  0  0  0  0  0  0
  135.2020   80.5769  227.4987 H   0  0  0  0  0  0  0  0  0  0  0  0
  134.9563   80.2408  225.6627 H   0  0  0  0  0  0  0  0  0  0  0  0
  135.2514   79.1756  223.4521 H   0  0  0  0  0  0  0  0  0  0  0  0
  137.9582   80.1349  221.2256 H   0  0  0  0  0  0  0  0  0  0  0  0
  135.0816   79.5115  221.5942 H   0  0  0  0  0  0  0  0  0  0  0  0
  135.9269   80.4043  220.2846 H   0  0  0  0  0  0  0  0  0  0  0  0
  135.9155   78.6081  220.2846 H   0  0  0  0  0  0  0  0  0  0  0  0
  137.1830   77.3810  221.2500 H   0  0  0  0  0  0  0  0  0  0  0  0
  138.8255   75.8885  223.3297 H   0  0  0  0  0  0  0  0  0  0  0  0
  141.3449   76.7952  223.1212 H   0  0  0  0  0  0  0  0  0  0  0  0
  141.2267   75.1982  222.4762 H   0  0  0  0  0  0  0  0  0  0  0  0
  141.0764   77.9114  220.9985 H   0  0  0  0  0  0  0  0  0  0  0  0
  142.9400   76.4000  221.1010 H   0  0  0  0  0  0  0  0  0  0  0  0
  139.3476   77.1887  219.6420 H   0  0  0  0  0  0  0  0  0  0  0  0
  140.1100   75.6414  219.3465 H   0  0  0  0  0  0  0  0  0  0  0  0
  137.6284   73.0202  219.7380 H   0  0  0  0  0  0  0  0  0  0  0  0
  139.3448   73.5130  219.9249 H   0  0  0  0  0  0  0  0  0  0  0  0
  137.7420   71.8320  221.8110 H   0  0  0  0  0  0  0  0  0  0  0  0
  138.6891   69.9427  222.5132 H   0  0  0  0  0  0  0  0  0  0  0  0
  138.7943   68.3557  224.4347 H   0  0  0  0  0  0  0  0  0  0  0  0
  139.5020   67.9522  226.6991 H   0  0  0  0  0  0  0  0  0  0  0  0
  141.5549   70.9842  228.9105 H   0  0  0  0  0  0  0  0  0  0  0  0
  141.4289   72.5257  226.9858 H   0  0  0  0  0  0  0  0  0  0  0  0
  138.6414   82.3539  225.1484 H   0  0  0  0  0  0  0  0  0  0  0  0
  1  2  1  0
  2  3  1  0
  3  4  2  0
  4  5  1  0
  5  6  2  0
  6  7  1  0
  7  8  1  0
  7  9  1  0
  9 10  1  0
 10 11  2  0
 10 12  1  0
 12 13  1  0
 13 14  1  0
 14 15  1  0
 14 16  1  0
 16 17  1  0
 17 18  1  0
 18 19  2  0
 18 20  1  0
 20 21  1  0
 21 22  1  0
 22 23  2  0
 22 24  1  0
 24 25  2  0
 25 26  1  0
 26 27  2  0
 27 28  1  0
 28 29  2  0
 29 30  1  0
 29 31  1  0
 31 32  2  0
 32 33  1  0
 33 34  2  0
  6 35  1  0
 35 36  1  0
 35 37  2  0
 37  3  1  0
 17 12  1  0
 34 24  1  0
 33 27  1  0
  1 38  1  0
  1 39  1  0
  1 40  1  0
  4 41  1  0
  5 42  1  0
  7 43  1  6
  8 44  1  0
  8 45  1  0
  8 46  1  0
  9 47  1  0
 12 48  1  1
 13 49  1  0
 13 50  1  0
 14 51  1  1
 15 52  1  0
 16 53  1  0
 16 54  1  0
 20 55  1  0
 20 56  1  0
 21 57  1  0
 25 58  1  0
 26 59  1  0
 28 60  1  0
 31 61  1  0
 32 62  1  0
 37 63  1  0
M  END
>  <smiles>  (29) 
COc1ccc([C@H](C)NC(=O)[C@@H]2C[C@@H](O)CN2C(=O)CNC(=O)c2ccc3cc(F)ccc3n2)c(Cl)c1

>  <score_type>  (29) 
oracle

>  <origin>  (29) 
autodockgpu

>  <m_score__min__energy>  (29) 
-9.0500000000000007

>  <m_primary>  (29) 
energy

>  <rmsd>  (29) 
4.590360403082888

>  <m_score__min__rmsd>  (29) 
4.590360403082888

>  <meeko>  (29) 
{"free_energy": -7.3, "intermolecular_energy": -9.99, "internal_energy": -2.46, "cluster_size": 1, "cluster_id": 9, "rank_in_cluster": 1}

>  <energy>  (29) 
-7.88

>  <cluster_rmsd>  (29) 
0.0

>  <cluster>  (29) 
7

$$$$

     RDKit          3D

 63 66  0  0  0  0  0  0  0  0999 V2000
  135.7880   75.3780  223.8390 C   0  0  0  0  0  0  0  0  0  0  0  0
  136.4280   76.4750  223.2550 O   0  0  0  0  0  0  0  0  0  0  0  0
  137.6810   76.4690  222.6730 C   0  0  0  0  0  0  0  0  0  0  0  0
  137.9820   75.4590  221.7630 C   0  0  0  0  0  0  0  0  0  0  0  0
  139.2250   75.3960  221.1410 C   0  0  0  0  0  0  0  0  0  0  0  0
  140.2190   76.3470  221.4090 C   0  0  0  0  0  0  0  0  0  0  0  0
  141.4820   76.2120  220.7040 C   0  0  2  0  0  0  0  0  0  0  0  0
  141.4960   76.7530  219.2980 C   0  0  0  0  0  0  0  0  0  0  0  0
  142.0270   74.8640  220.6780 N   0  0  0  0  0  0  0  0  0  0  0  0
  143.4170   74.6010  220.4750 C   0  0  0  0  0  0  0  0  0  0  0  0
  144.2600   75.5440  220.3030 O   0  0  0  0  0  0  0  0  0  0  0  0
  143.8280   73.1720  220.4740 C   0  0  2  0  0  0  0  0  0  0  0  0
  145.3080   73.0450  220.0730 C   0  0  0  0  0  0  0  0  0  0  0  0
  145.2130   73.5200  218.6380 C   0  0  1  0  0  0  0  0  0  0  0  0
  146.3000   73.1050  217.8790 O   0  0  0  0  0  0  0  0  0  0  0  0
  143.8940   72.9730  218.1220 C   0  0  0  0  0  0  0  0  0  0  0  0
  143.2490   72.4670  219.3420 N   0  0  0  0  0  0  0  0  0  0  0  0
  142.2290   71.4470  219.4020 C   0  0  0  0  0  0  0  0  0  0  0  0
  142.5270   70.2690  219.0800 O   0  0  0  0  0  0  0  0  0  0  0  0
  140.8670   71.8540  219.8460 C   0  0  0  0  0  0  0  0  0  0  0  0
  140.5530   71.1950  221.1000 N   0  0  0  0  0  0  0  0  0  0  0  0
  140.3850   71.8860  222.3260 C   0  0  0  0  0  0  0  0  0  0  0  0
  140.5020   73.1530  222.3920 O   0  0  0  0  0  0  0  0  0  0  0  0
  140.0690   71.1320  223.5490 C   0  0  0  0  0  0  0  0  0  0  0  0
  139.2420   70.0340  223.5530 C   0  0  0  0  0  0  0  0  0  0  0  0
  138.9510   69.3260  224.7120 C   0  0  0  0  0  0  0  0  0  0  0  0
  139.5320   69.7690  225.8750 C   0  0  0  0  0  0  0  0  0  0  0  0
  139.2890   69.1140  227.0720 C   0  0  0  0  0  0  0  0  0  0  0  0
  139.8560   69.5310  228.2690 C   0  0  0  0  0  0  0  0  0  0  0  0
  139.6300   68.9060  229.4450 F   0  0  0  0  0  0  0  0  0  0  0  0
  140.6850   70.6410  228.2280 C   0  0  0  0  0  0  0  0  0  0  0  0
  140.9580   71.3260  227.0670 C   0  0  0  0  0  0  0  0  0  0  0  0
  140.3670   70.8730  225.8870 C   0  0  0  0  0  0  0  0  0  0  0  0
  140.6000   71.5070  224.7240 N   0  0  0  0  0  0  0  0  0  0  0  0
  139.9120   77.3540  222.3190 C   0  0  0  0  0  0  0  0  0  0  0  0
  141.1370   78.5430  222.6670 Cl  0  0  0  0  0  0  0  0  0  0  0  0
  138.6600   77.4000  222.9330 C   0  0  0  0  0  0  0  0  0  0  0  0
  135.8385   75.4645  224.9344 H   0  0  0  0  0  0  0  0  0  0  0  0
  134.7352   75.3557  223.5211 H   0  0  0  0  0  0  0  0  0  0  0  0
  136.2867   74.4505  223.5211 H   0  0  0  0  0  0  0  0  0  0  0  0
  137.2232   74.6970  221.5316 H   0  0  0  0  0  0  0  0  0  0  0  0
  139.4312   74.5856  220.4264 H   0  0  0  0  0  0  0  0  0  0  0  0
  142.1303   76.8464  221.3263 H   0  0  0  0  0  0  0  0  0  0  0  0
  141.5245   77.8522  219.3284 H   0  0  0  0  0  0  0  0  0  0  0  0
  142.3847   76.3776  218.7695 H   0  0  0  0  0  0  0  0  0  0  0  0
  140.5890   76.4241  218.7695 H   0  0  0  0  0  0  0  0  0  0  0  0
  141.3570   74.0470  220.8170 H   0  0  0  0  0  0  0  0  0  0  0  0
  143.5526   72.7946  221.4698 H   0  0  0  0  0  0  0  0  0  0  0  0
  145.9558   73.6950  220.6795 H   0  0  0  0  0  0  0  0  0  0  0  0
  145.7487   72.0465  220.2101 H   0  0  0  0  0  0  0  0  0  0  0  0
  145.2396   74.6175  218.5689 H   0  0  0  0  0  0  0  0  0  0  0  0
  146.8190   73.8840  217.5740 H   0  0  0  0  0  0  0  0  0  0  0  0
  143.2916   73.7666  217.6558 H   0  0  0  0  0  0  0  0  0  0  0  0
  144.0166   72.2045  217.3446 H   0  0  0  0  0  0  0  0  0  0  0  0
  140.8373   72.9445  219.9868 H   0  0  0  0  0  0  0  0  0  0  0  0
  140.1294   71.5639  219.0832 H   0  0  0  0  0  0  0  0  0  0  0  0
  140.4370   70.1440  221.1460 H   0  0  0  0  0  0  0  0  0  0  0  0
  138.7944   69.7041  222.6039 H   0  0  0  0  0  0  0  0  0  0  0  0
  138.2855   68.4503  224.6990 H   0  0  0  0  0  0  0  0  0  0  0  0
  138.6261   68.2362  227.0739 H   0  0  0  0  0  0  0  0  0  0  0  0
  141.1446   70.9892  229.1647 H   0  0  0  0  0  0  0  0  0  0  0  0
  141.6214   72.2034  227.0687 H   0  0  0  0  0  0  0  0  0  0  0  0
  138.4486   78.2078  223.6490 H   0  0  0  0  0  0  0  0  0  0  0  0
  1  2  1  0
  2  3  1  0
  3  4  2  0
  4  5  1  0
  5  6  2  0
  6  7  1  0
  7  8  1  0
  7  9  1  0
  9 10  1  0
 10 11  2  0
 10 12  1  0
 12 13  1  0
 13 14  1  0
 14 15  1  0
 14 16  1  0
 16 17  1  0
 17 18  1  0
 18 19  2  0
 18 20  1  0
 20 21  1  0
 21 22  1  0
 22 23  2  0
 22 24  1  0
 24 25  2  0
 25 26  1  0
 26 27  2  0
 27 28  1  0
 28 29  2  0
 29 30  1  0
 29 31  1  0
 31 32  2  0
 32 33  1  0
 33 34  2  0
  6 35  1  0
 35 36  1  0
 35 37  2  0
 37  3  1  0
 17 12  1  0
 34 24  1  0
 33 27  1  0
  1 38  1  0
  1 39  1  0
  1 40  1  0
  4 41  1  0
  5 42  1  0
  7 43  1  1
  8 44  1  0
  8 45  1  0
  8 46  1  0
  9 47  1  0
 12 48  1  1
 13 49  1  0
 13 50  1  0
 14 51  1  1
 15 52  1  0
 16 53  1  0
 16 54  1  0
 20 55  1  0
 20 56  1  0
 21 57  1  0
 25 58  1  0
 26 59  1  0
 28 60  1  0
 31 61  1  0
 32 62  1  0
 37 63  1  0
M  END
>  <smiles>  (30) 
COc1ccc([C@H](C)NC(=O)[C@@H]2C[C@@H](O)CN2C(=O)CNC(=O)c2ccc3cc(F)ccc3n2)c(Cl)c1

>  <score_type>  (30) 
oracle

>  <origin>  (30) 
autodockgpu

>  <m_score__min__energy>  (30) 
-9.0500000000000007

>  <m_primary>  (30) 
energy

>  <rmsd>  (30) 
5.22393737553412

>  <m_score__min__rmsd>  (30) 
5.22393737553412

>  <meeko>  (30) 
{"free_energy": -8.33, "intermolecular_energy": -11.01, "internal_energy": -2.93, "cluster_size": 8, "cluster_id": 2, "rank_in_cluster": 7}

>  <energy>  (30) 
-7.71

>  <cluster_rmsd>  (30) 
0.0

>  <cluster>  (30) 
8

$$$$

     RDKit          3D

 63 66  0  0  0  0  0  0  0  0999 V2000
  145.6050   70.8390  218.9380 C   0  0  0  0  0  0  0  0  0  0  0  0
  145.6380   72.1700  219.3630 O   0  0  0  0  0  0  0  0  0  0  0  0
  144.5400   72.9720  219.6080 C   0  0  0  0  0  0  0  0  0  0  0  0
  143.5980   72.5360  220.5360 C   0  0  0  0  0  0  0  0  0  0  0  0
  142.4700   73.2960  220.8300 C   0  0  0  0  0  0  0  0  0  0  0  0
  142.2420   74.5280  220.2010 C   0  0  0  0  0  0  0  0  0  0  0  0
  141.0460   75.2610  220.5770 C   0  0  2  0  0  0  0  0  0  0  0  0
  141.0840   75.8970  221.9430 C   0  0  0  0  0  0  0  0  0  0  0  0
  139.8060   74.5090  220.4600 N   0  0  0  0  0  0  0  0  0  0  0  0
  138.5490   75.1370  220.1980 C   0  0  0  0  0  0  0  0  0  0  0  0
  138.4480   76.4020  220.0520 O   0  0  0  0  0  0  0  0  0  0  0  0
  137.3670   74.2410  220.1040 C   0  0  2  0  0  0  0  0  0  0  0  0
  136.1780   74.8470  220.8690 C   0  0  0  0  0  0  0  0  0  0  0  0
  136.7290   74.7710  222.2780 C   0  0  1  0  0  0  0  0  0  0  0  0
  135.7250   74.8340  223.2350 O   0  0  0  0  0  0  0  0  0  0  0  0
  137.5100   73.4690  222.3310 C   0  0  0  0  0  0  0  0  0  0  0  0
  137.5510   73.0530  220.9210 N   0  0  0  0  0  0  0  0  0  0  0  0
  137.7340   71.7050  220.4400 C   0  0  0  0  0  0  0  0  0  0  0  0
  136.7390   71.0750  219.9980 O   0  0  0  0  0  0  0  0  0  0  0  0
  139.1070   71.1280  220.4960 C   0  0  0  0  0  0  0  0  0  0  0  0
  139.4040   70.7280  221.8580 N   0  0  0  0  0  0  0  0  0  0  0  0
  139.9690   71.5980  222.8240 C   0  0  0  0  0  0  0  0  0  0  0  0
  140.2520   72.8070  222.5390 O   0  0  0  0  0  0  0  0  0  0  0  0
  140.2380   71.1020  224.1830 C   0  0  0  0  0  0  0  0  0  0  0  0
  140.7250   71.9060  225.1850 C   0  0  0  0  0  0  0  0  0  0  0  0
  140.9740   71.4300  226.4660 C   0  0  0  0  0  0  0  0  0  0  0  0
  140.7090   70.1020  226.6990 C   0  0  0  0  0  0  0  0  0  0  0  0
  140.9330   69.5550  227.9520 C   0  0  0  0  0  0  0  0  0  0  0  0
  140.6800   68.2180  228.2290 C   0  0  0  0  0  0  0  0  0  0  0  0
  140.8910   67.6660  229.4430 F   0  0  0  0  0  0  0  0  0  0  0  0
  140.1890   67.4360  227.1950 C   0  0  0  0  0  0  0  0  0  0  0  0
  139.9500   67.9310  225.9340 C   0  0  0  0  0  0  0  0  0  0  0  0
  140.2190   69.2800  225.7000 C   0  0  0  0  0  0  0  0  0  0  0  0
  140.0040   69.8140  224.4850 N   0  0  0  0  0  0  0  0  0  0  0  0
  143.1860   74.9570  219.2740 C   0  0  0  0  0  0  0  0  0  0  0  0
  142.9180   76.4840  218.4780 Cl  0  0  0  0  0  0  0  0  0  0  0  0
  144.3110   74.1810  218.9930 C   0  0  0  0  0  0  0  0  0  0  0  0
  145.5885   70.1745  219.8145 H   0  0  0  0  0  0  0  0  0  0  0  0
  144.7024   70.6697  218.3325 H   0  0  0  0  0  0  0  0  0  0  0  0
  146.4981   70.6252  218.3325 H   0  0  0  0  0  0  0  0  0  0  0  0
  143.7482   71.5731  221.0461 H   0  0  0  0  0  0  0  0  0  0  0  0
  141.7448   72.9237  221.5686 H   0  0  0  0  0  0  0  0  0  0  0  0
  141.0507   76.0603  219.8213 H   0  0  0  0  0  0  0  0  0  0  0  0
  141.0372   75.1135  222.7137 H   0  0  0  0  0  0  0  0  0  0  0  0
  142.0178   76.4673  222.0561 H   0  0  0  0  0  0  0  0  0  0  0  0
  140.2247   76.5744  222.0561 H   0  0  0  0  0  0  0  0  0  0  0  0
  139.8450   73.4510  220.5760 H   0  0  0  0  0  0  0  0  0  0  0  0
  137.2241   74.0688  219.0270 H   0  0  0  0  0  0  0  0  0  0  0  0
  135.9767   75.8838  220.5616 H   0  0  0  0  0  0  0  0  0  0  0  0
  135.2129   74.3426  220.7138 H   0  0  0  0  0  0  0  0  0  0  0  0
  137.3753   75.6302  222.5105 H   0  0  0  0  0  0  0  0  0  0  0  0
  136.0570   74.4940  224.0970 H   0  0  0  0  0  0  0  0  0  0  0  0
  138.5239   73.6315  222.7253 H   0  0  0  0  0  0  0  0  0  0  0  0
  137.0561   72.7168  222.9929 H   0  0  0  0  0  0  0  0  0  0  0  0
  139.1641   70.2508  219.8347 H   0  0  0  0  0  0  0  0  0  0  0  0
  139.8370   71.8817  220.1660 H   0  0  0  0  0  0  0  0  0  0  0  0
  139.2050   69.7420  222.1910 H   0  0  0  0  0  0  0  0  0  0  0  0
  140.9250   72.9650  224.9648 H   0  0  0  0  0  0  0  0  0  0  0  0
  141.3653   72.0860  227.2575 H   0  0  0  0  0  0  0  0  0  0  0  0
  141.3236   70.2002  228.7527 H   0  0  0  0  0  0  0  0  0  0  0  0
  139.9815   66.3737  227.3914 H   0  0  0  0  0  0  0  0  0  0  0  0
  139.5591   67.2837  225.1352 H   0  0  0  0  0  0  0  0  0  0  0  0
  145.0392   74.5483  218.2549 H   0  0  0  0  0  0  0  0  0  0  0  0
  1  2  1  0
  2  3  1  0
  3  4  2  0
  4  5  1  0
  5  6  2  0
  6  7  1  0
  7  8  1  0
  7  9  1  0
  9 10  1  0
 10 11  2  0
 10 12  1  0
 12 13  1  0
 13 14  1  0
 14 15  1  0
 14 16  1  0
 16 17  1  0
 17 18  1  0
 18 19  2  0
 18 20  1  0
 20 21  1  0
 21 22  1  0
 22 23  2  0
 22 24  1  0
 24 25  2  0
 25 26  1  0
 26 27  2  0
 27 28  1  0
 28 29  2  0
 29 30  1  0
 29 31  1  0
 31 32  2  0
 32 33  1  0
 33 34  2  0
  6 35  1  0
 35 36  1  0
 35 37  2  0
 37  3  1  0
 17 12  1  0
 34 24  1  0
 33 27  1  0
  1 38  1  0
  1 39  1  0
  1 40  1  0
  4 41  1  0
  5 42  1  0
  7 43  1  6
  8 44  1  0
  8 45  1  0
  8 46  1  0
  9 47  1  0
 12 48  1  6
 13 49  1  0
 13 50  1  0
 14 51  1  1
 15 52  1  0
 16 53  1  0
 16 54  1  0
 20 55  1  0
 20 56  1  0
 21 57  1  0
 25 58  1  0
 26 59  1  0
 28 60  1  0
 31 61  1  0
 32 62  1  0
 37 63  1  0
M  END
>  <smiles>  (31) 
COc1ccc([C@H](C)NC(=O)[C@@H]2C[C@@H](O)CN2C(=O)CNC(=O)c2ccc3cc(F)ccc3n2)c(Cl)c1

>  <score_type>  (31) 
oracle

>  <origin>  (31) 
autodockgpu

>  <m_score__min__energy>  (31) 
-9.0500000000000007

>  <m_primary>  (31) 
energy

>  <rmsd>  (31) 
6.8912784695730265

>  <m_score__min__rmsd>  (31) 
6.8912784695730265

>  <meeko>  (31) 
{"free_energy": -6.77, "intermolecular_energy": -9.46, "internal_energy": -3.44, "cluster_size": 1, "cluster_id": 12, "rank_in_cluster": 1}

>  <energy>  (31) 
-7.68

>  <cluster_rmsd>  (31) 
0.31

>  <cluster>  (31) 
8

$$$$

     RDKit          3D

 63 66  0  0  0  0  0  0  0  0999 V2000
  135.6700   75.4930  223.9330 C   0  0  0  0  0  0  0  0  0  0  0  0
  136.2670   76.4120  223.0660 O   0  0  0  0  0  0  0  0  0  0  0  0
  137.5420   76.3250  222.5400 C   0  0  0  0  0  0  0  0  0  0  0  0
  137.8330   75.2630  221.6880 C   0  0  0  0  0  0  0  0  0  0  0  0
  139.0970   75.1160  221.1240 C   0  0  0  0  0  0  0  0  0  0  0  0
  140.1220   76.0330  221.3950 C   0  0  0  0  0  0  0  0  0  0  0  0
  141.4060   75.8100  220.7540 C   0  0  2  0  0  0  0  0  0  0  0  0
  141.5180   76.3270  219.3420 C   0  0  0  0  0  0  0  0  0  0  0  0
  141.8680   74.4310  220.7710 N   0  0  0  0  0  0  0  0  0  0  0  0
  143.2440   74.0800  220.6150 C   0  0  0  0  0  0  0  0  0  0  0  0
  144.1480   74.9670  220.4490 O   0  0  0  0  0  0  0  0  0  0  0  0
  143.5670   72.6300  220.6550 C   0  0  2  0  0  0  0  0  0  0  0  0
  145.0130   72.3940  220.1860 C   0  0  0  0  0  0  0  0  0  0  0  0
  144.8730   72.8160  218.7380 C   0  0  1  0  0  0  0  0  0  0  0  0
  145.8900   72.3030  217.9450 O   0  0  0  0  0  0  0  0  0  0  0  0
  143.4970   72.3330  218.3130 C   0  0  0  0  0  0  0  0  0  0  0  0
  142.8870   71.9180  219.5850 N   0  0  0  0  0  0  0  0  0  0  0  0
  141.8120   70.9680  219.7390 C   0  0  0  0  0  0  0  0  0  0  0  0
  141.9630   69.8000  219.2980 O   0  0  0  0  0  0  0  0  0  0  0  0
  140.5700   71.4300  220.4190 C   0  0  0  0  0  0  0  0  0  0  0  0
  140.5900   70.9970  221.8030 N   0  0  0  0  0  0  0  0  0  0  0  0
  140.4710   71.8840  222.9030 C   0  0  0  0  0  0  0  0  0  0  0  0
  140.3380   73.1390  222.7280 O   0  0  0  0  0  0  0  0  0  0  0  0
  140.5050   71.3520  224.2740 C   0  0  0  0  0  0  0  0  0  0  0  0
  140.7270   72.1460  225.3740 C   0  0  0  0  0  0  0  0  0  0  0  0
  140.7540   71.6360  226.6660 C   0  0  0  0  0  0  0  0  0  0  0  0
  140.5460   70.2860  226.8070 C   0  0  0  0  0  0  0  0  0  0  0  0
  140.5590   69.7040  228.0640 C   0  0  0  0  0  0  0  0  0  0  0  0
  140.3540   68.3440  228.2500 C   0  0  0  0  0  0  0  0  0  0  0  0
  140.3630   67.7580  229.4670 F   0  0  0  0  0  0  0  0  0  0  0  0
  140.1320   67.5730  227.1190 C   0  0  0  0  0  0  0  0  0  0  0  0
  140.1100   68.1010  225.8490 C   0  0  0  0  0  0  0  0  0  0  0  0
  140.3210   69.4740  225.7090 C   0  0  0  0  0  0  0  0  0  0  0  0
  140.3100   70.0410  224.4900 N   0  0  0  0  0  0  0  0  0  0  0  0
  139.8250   77.0910  222.2480 C   0  0  0  0  0  0  0  0  0  0  0  0
  141.0880   78.2390  222.6010 Cl  0  0  0  0  0  0  0  0  0  0  0  0
  138.5520   77.2210  222.8040 C   0  0  0  0  0  0  0  0  0  0  0  0
  135.8639   75.7915  224.9738 H   0  0  0  0  0  0  0  0  0  0  0  0
  134.5849   75.4713  223.7538 H   0  0  0  0  0  0  0  0  0  0  0  0
  136.0913   74.4928  223.7538 H   0  0  0  0  0  0  0  0  0  0  0  0
  137.0495   74.5265  221.4563 H   0  0  0  0  0  0  0  0  0  0  0  0
  139.2949   74.2660  220.4544 H   0  0  0  0  0  0  0  0  0  0  0  0
  142.0626   76.4126  221.3988 H   0  0  0  0  0  0  0  0  0  0  0  0
  141.7509   77.4019  219.3625 H   0  0  0  0  0  0  0  0  0  0  0  0
  142.3202   75.7880  218.8167 H   0  0  0  0  0  0  0  0  0  0  0  0
  140.5646   76.1683  218.8167 H   0  0  0  0  0  0  0  0  0  0  0  0
  141.1450   73.6600  220.9060 H   0  0  0  0  0  0  0  0  0  0  0  0
  143.3225   72.3110  221.6789 H   0  0  0  0  0  0  0  0  0  0  0  0
  145.7302   73.0255  220.7308 H   0  0  0  0  0  0  0  0  0  0  0  0
  145.3980   71.3757  220.3437 H   0  0  0  0  0  0  0  0  0  0  0  0
  144.9640   73.9058  218.6198 H   0  0  0  0  0  0  0  0  0  0  0  0
  145.8500   72.6990  217.0440 H   0  0  0  0  0  0  0  0  0  0  0  0
  142.9205   73.1438  217.8436 H   0  0  0  0  0  0  0  0  0  0  0  0
  143.5314   71.5276  217.5646 H   0  0  0  0  0  0  0  0  0  0  0  0
  140.5160   72.5279  220.3786 H   0  0  0  0  0  0  0  0  0  0  0  0
  139.6924   71.0021  219.9124 H   0  0  0  0  0  0  0  0  0  0  0  0
  140.6980   69.9730  222.0510 H   0  0  0  0  0  0  0  0  0  0  0  0
  140.8891   73.2239  225.2259 H   0  0  0  0  0  0  0  0  0  0  0  0
  140.9338   72.2841  227.5364 H   0  0  0  0  0  0  0  0  0  0  0  0
  140.7376   70.3404  228.9433 H   0  0  0  0  0  0  0  0  0  0  0  0
  139.9664   66.4926  227.2427 H   0  0  0  0  0  0  0  0  0  0  0  0
  139.9318   67.4618  224.9717 H   0  0  0  0  0  0  0  0  0  0  0  0
  138.3492   78.0681  223.4758 H   0  0  0  0  0  0  0  0  0  0  0  0
  1  2  1  0
  2  3  1  0
  3  4  2  0
  4  5  1  0
  5  6  2  0
  6  7  1  0
  7  8  1  0
  7  9  1  0
  9 10  1  0
 10 11  2  0
 10 12  1  0
 12 13  1  0
 13 14  1  0
 14 15  1  0
 14 16  1  0
 16 17  1  0
 17 18  1  0
 18 19  2  0
 18 20  1  0
 20 21  1  0
 21 22  1  0
 22 23  2  0
 22 24  1  0
 24 25  2  0
 25 26  1  0
 26 27  2  0
 27 28  1  0
 28 29  2  0
 29 30  1  0
 29 31  1  0
 31 32  2  0
 32 33  1  0
 33 34  2  0
  6 35  1  0
 35 36  1  0
 35 37  2  0
 37  3  1  0
 17 12  1  0
 34 24  1  0
 33 27  1  0
  1 38  1  0
  1 39  1  0
  1 40  1  0
  4 41  1  0
  5 42  1  0
  7 43  1  1
  8 44  1  0
  8 45  1  0
  8 46  1  0
  9 47  1  0
 12 48  1  1
 13 49  1  0
 13 50  1  0
 14 51  1  1
 15 52  1  0
 16 53  1  0
 16 54  1  0
 20 55  1  0
 20 56  1  0
 21 57  1  0
 25 58  1  0
 26 59  1  0
 28 60  1  0
 31 61  1  0
 32 62  1  0
 37 63  1  0
M  END
>  <smiles>  (32) 
COc1ccc([C@H](C)NC(=O)[C@@H]2C[C@@H](O)CN2C(=O)CNC(=O)c2ccc3cc(F)ccc3n2)c(Cl)c1

>  <score_type>  (32) 
oracle

>  <origin>  (32) 
autodockgpu

>  <m_score__min__energy>  (32) 
-9.0500000000000007

>  <m_primary>  (32) 
energy

>  <rmsd>  (32) 
5.604544379114919

>  <m_score__min__rmsd>  (32) 
5.604544379114919

>  <meeko>  (32) 
{"free_energy": -7.71, "intermolecular_energy": -10.39, "internal_energy": -3.31, "cluster_size": 8, "cluster_id": 2, "rank_in_cluster": 8}

>  <energy>  (32) 
-7.3

>  <cluster_rmsd>  (32) 
0.0

>  <cluster>  (32) 
9

$$$$

     RDKit          3D

 63 66  0  0  0  0  0  0  0  0999 V2000
  132.6310   73.1470  226.9780 C   0  0  0  0  0  0  0  0  0  0  0  0
  133.6090   74.1350  226.8290 O   0  0  0  0  0  0  0  0  0  0  0  0
  134.2530   74.4710  225.6550 C   0  0  0  0  0  0  0  0  0  0  0  0
  134.3220   75.8160  225.3010 C   0  0  0  0  0  0  0  0  0  0  0  0
  134.9570   76.2230  224.1320 C   0  0  0  0  0  0  0  0  0  0  0  0
  135.5490   75.2920  223.2680 C   0  0  0  0  0  0  0  0  0  0  0  0
  136.2020   75.8060  222.0760 C   0  0  2  0  0  0  0  0  0  0  0  0
  135.5010   75.5020  220.7770 C   0  0  0  0  0  0  0  0  0  0  0  0
  137.6010   75.4340  221.9360 N   0  0  0  0  0  0  0  0  0  0  0  0
  138.6640   76.2280  222.4680 C   0  0  0  0  0  0  0  0  0  0  0  0
  138.4380   77.3150  223.0990 O   0  0  0  0  0  0  0  0  0  0  0  0
  140.0440   75.7210  222.2480 C   0  0  2  0  0  0  0  0  0  0  0  0
  141.0740   76.7640  222.7160 C   0  0  0  0  0  0  0  0  0  0  0  0
  140.7940   77.8550  221.7030 C   0  0  1  0  0  0  0  0  0  0  0  0
  141.8560   78.7430  221.5880 O   0  0  0  0  0  0  0  0  0  0  0  0
  140.4930   77.1270  220.4050 C   0  0  0  0  0  0  0  0  0  0  0  0
  140.3780   75.7260  220.8340 N   0  0  0  0  0  0  0  0  0  0  0  0
  140.5710   74.5650  219.9970 C   0  0  0  0  0  0  0  0  0  0  0  0
  139.7830   74.3680  219.0370 O   0  0  0  0  0  0  0  0  0  0  0  0
  141.7040   73.6550  220.3240 C   0  0  0  0  0  0  0  0  0  0  0  0
  141.3800   72.8920  221.5140 N   0  0  0  0  0  0  0  0  0  0  0  0
  140.0650   72.4770  221.8440 C   0  0  0  0  0  0  0  0  0  0  0  0
  139.0750   72.7600  221.0940 O   0  0  0  0  0  0  0  0  0  0  0  0
  139.8330   71.7060  223.0750 C   0  0  0  0  0  0  0  0  0  0  0  0
  138.8770   70.7230  223.1670 C   0  0  0  0  0  0  0  0  0  0  0  0
  138.6650   69.9970  224.3320 C   0  0  0  0  0  0  0  0  0  0  0  0
  139.4620   70.3030  225.4090 C   0  0  0  0  0  0  0  0  0  0  0  0
  139.3090   69.6230  226.6070 C   0  0  0  0  0  0  0  0  0  0  0  0
  140.0920   69.9020  227.7190 C   0  0  0  0  0  0  0  0  0  0  0  0
  139.9580   69.2510  228.8940 F   0  0  0  0  0  0  0  0  0  0  0  0
  141.0470   70.9000  227.5910 C   0  0  0  0  0  0  0  0  0  0  0  0
  141.2380   71.6040  226.4250 C   0  0  0  0  0  0  0  0  0  0  0  0
  140.4270   71.2910  225.3320 C   0  0  0  0  0  0  0  0  0  0  0  0
  140.5720   71.9500  224.1690 N   0  0  0  0  0  0  0  0  0  0  0  0
  135.4760   73.9500  223.6260 C   0  0  0  0  0  0  0  0  0  0  0  0
  136.2030   72.7770  222.5620 Cl  0  0  0  0  0  0  0  0  0  0  0  0
  134.8350   73.5610  224.8030 C   0  0  0  0  0  0  0  0  0  0  0  0
  132.4523   72.9665  228.0483 H   0  0  0  0  0  0  0  0  0  0  0  0
  131.6973   73.4805  226.5015 H   0  0  0  0  0  0  0  0  0  0  0  0
  132.9739   72.2168  226.5015 H   0  0  0  0  0  0  0  0  0  0  0  0
  133.8658   76.5710  225.9581 H   0  0  0  0  0  0  0  0  0  0  0  0
  134.9950   77.2935  223.8817 H   0  0  0  0  0  0  0  0  0  0  0  0
  136.1387   76.8887  222.2600 H   0  0  0  0  0  0  0  0  0  0  0  0
  134.5103   75.0724  220.9867 H   0  0  0  0  0  0  0  0  0  0  0  0
  135.3832   76.4299  220.1980 H   0  0  0  0  0  0  0  0  0  0  0  0
  136.0979   74.7819  220.1980 H   0  0  0  0  0  0  0  0  0  0  0  0
  137.8340   74.5340  221.4150 H   0  0  0  0  0  0  0  0  0  0  0  0
  140.0719   74.7413  222.7474 H   0  0  0  0  0  0  0  0  0  0  0  0
  140.8810   77.0994  223.7457 H   0  0  0  0  0  0  0  0  0  0  0  0
  142.1157   76.4127  222.7532 H   0  0  0  0  0  0  0  0  0  0  0  0
  139.9466   78.4873  222.0065 H   0  0  0  0  0  0  0  0  0  0  0  0
  142.7110   78.2560  221.6210 H   0  0  0  0  0  0  0  0  0  0  0  0
  139.5521   77.4833  219.9603 H   0  0  0  0  0  0  0  0  0  0  0  0
  141.2592   77.2831  219.6313 H   0  0  0  0  0  0  0  0  0  0  0  0
  141.8772   72.9675  219.4830 H   0  0  0  0  0  0  0  0  0  0  0  0
  142.6124   74.2487  220.5038 H   0  0  0  0  0  0  0  0  0  0  0  0
  142.1360   72.6090  222.2000 H   0  0  0  0  0  0  0  0  0  0  0  0
  138.2568   70.5030  222.2855 H   0  0  0  0  0  0  0  0  0  0  0  0
  137.8950   69.2136  224.3899 H   0  0  0  0  0  0  0  0  0  0  0  0
  138.5427   68.8371  226.6790 H   0  0  0  0  0  0  0  0  0  0  0  0
  141.6786   71.1386  228.4594 H   0  0  0  0  0  0  0  0  0  0  0  0
  142.0055   72.3889  226.3555 H   0  0  0  0  0  0  0  0  0  0  0  0
  134.7937   72.4917  225.0579 H   0  0  0  0  0  0  0  0  0  0  0  0
  1  2  1  0
  2  3  1  0
  3  4  2  0
  4  5  1  0
  5  6  2  0
  6  7  1  0
  7  8  1  0
  7  9  1  0
  9 10  1  0
 10 11  2  0
 10 12  1  0
 12 13  1  0
 13 14  1  0
 14 15  1  0
 14 16  1  0
 16 17  1  0
 17 18  1  0
 18 19  2  0
 18 20  1  0
 20 21  1  0
 21 22  1  0
 22 23  2  0
 22 24  1  0
 24 25  2  0
 25 26  1  0
 26 27  2  0
 27 28  1  0
 28 29  2  0
 29 30  1  0
 29 31  1  0
 31 32  2  0
 32 33  1  0
 33 34  2  0
  6 35  1  0
 35 36  1  0
 35 37  2  0
 37  3  1  0
 17 12  1  0
 34 24  1  0
 33 27  1  0
  1 38  1  0
  1 39  1  0
  1 40  1  0
  4 41  1  0
  5 42  1  0
  7 43  1  1
  8 44  1  0
  8 45  1  0
  8 46  1  0
  9 47  1  0
 12 48  1  1
 13 49  1  0
 13 50  1  0
 14 51  1  1
 15 52  1  0
 16 53  1  0
 16 54  1  0
 20 55  1  0
 20 56  1  0
 21 57  1  0
 25 58  1  0
 26 59  1  0
 28 60  1  0
 31 61  1  0
 32 62  1  0
 37 63  1  0
M  END
>  <smiles>  (33) 
COc1ccc([C@H](C)NC(=O)[C@@H]2C[C@@H](O)CN2C(=O)CNC(=O)c2ccc3cc(F)ccc3n2)c(Cl)c1

>  <score_type>  (33) 
oracle

>  <origin>  (33) 
autodockgpu

>  <m_score__min__energy>  (33) 
-9.0500000000000007

>  <m_primary>  (33) 
energy

>  <rmsd>  (33) 
6.824875513197199

>  <m_score__min__rmsd>  (33) 
6.824875513197199

>  <meeko>  (33) 
{"free_energy": -7.3, "intermolecular_energy": -9.99, "internal_energy": -3.21, "cluster_size": 9, "cluster_id": 1, "rank_in_cluster": 9}

>  <energy>  (33) 
-7.07

>  <cluster_rmsd>  (33) 
0.0

>  <cluster>  (33) 
10

$$$$

     RDKit          3D

 63 66  0  0  0  0  0  0  0  0999 V2000
  132.4280   78.5390  228.0540 C   0  0  0  0  0  0  0  0  0  0  0  0
  132.5810   79.6870  227.2720 O   0  0  0  0  0  0  0  0  0  0  0  0
  133.6130   79.9380  226.3900 C   0  0  0  0  0  0  0  0  0  0  0  0
  133.6220   79.2590  225.1740 C   0  0  0  0  0  0  0  0  0  0  0  0
  134.6330   79.4650  224.2400 C   0  0  0  0  0  0  0  0  0  0  0  0
  135.6780   80.3640  224.4910 C   0  0  0  0  0  0  0  0  0  0  0  0
  136.6840   80.5270  223.4550 C   0  0  2  0  0  0  0  0  0  0  0  0
  136.1610   80.5050  222.0410 C   0  0  0  0  0  0  0  0  0  0  0  0
  137.8050   79.6050  223.5400 N   0  0  0  0  0  0  0  0  0  0  0  0
  139.1470   80.0450  223.7560 C   0  0  0  0  0  0  0  0  0  0  0  0
  139.4350   81.2830  223.8870 O   0  0  0  0  0  0  0  0  0  0  0  0
  140.1900   78.9880  223.8210 C   0  0  2  0  0  0  0  0  0  0  0  0
  141.5910   79.6230  223.8380 C   0  0  0  0  0  0  0  0  0  0  0  0
  141.6030   80.2260  222.4480 C   0  0  1  0  0  0  0  0  0  0  0  0
  142.8920   80.4860  222.0040 O   0  0  0  0  0  0  0  0  0  0  0  0
  140.8710   79.2250  221.5720 C   0  0  0  0  0  0  0  0  0  0  0  0
  140.2980   78.2890  222.5510 N   0  0  0  0  0  0  0  0  0  0  0  0
  139.9210   76.9200  222.2950 C   0  0  0  0  0  0  0  0  0  0  0  0
  140.7170   75.9990  222.6070 O   0  0  0  0  0  0  0  0  0  0  0  0
  138.5930   76.6720  221.6660 C   0  0  0  0  0  0  0  0  0  0  0  0
  137.7640   75.9070  222.5770 N   0  0  0  0  0  0  0  0  0  0  0  0
  136.4870   76.3330  223.0200 C   0  0  0  0  0  0  0  0  0  0  0  0
  135.9880   77.4390  222.6310 O   0  0  0  0  0  0  0  0  0  0  0  0
  135.7190   75.4890  223.9480 C   0  0  0  0  0  0  0  0  0  0  0  0
  134.9160   76.0090  224.9350 C   0  0  0  0  0  0  0  0  0  0  0  0
  134.1920   75.2040  225.8050 C   0  0  0  0  0  0  0  0  0  0  0  0
  134.3090   73.8450  225.6410 C   0  0  0  0  0  0  0  0  0  0  0  0
  133.6170   72.9780  226.4720 C   0  0  0  0  0  0  0  0  0  0  0  0
  133.7090   71.5990  226.3400 C   0  0  0  0  0  0  0  0  0  0  0  0
  133.0440   70.7380  227.1390 F   0  0  0  0  0  0  0  0  0  0  0  0
  134.5280   71.1090  225.3340 C   0  0  0  0  0  0  0  0  0  0  0  0
  135.2350   71.9270  224.4830 C   0  0  0  0  0  0  0  0  0  0  0  0
  135.1140   73.3070  224.6530 C   0  0  0  0  0  0  0  0  0  0  0  0
  135.7840   74.1510  223.8480 N   0  0  0  0  0  0  0  0  0  0  0  0
  135.6640   81.0390  225.7070 C   0  0  0  0  0  0  0  0  0  0  0  0
  136.9580   82.1580  226.0380 Cl  0  0  0  0  0  0  0  0  0  0  0  0
  134.6420   80.8190  226.6310 C   0  0  0  0  0  0  0  0  0  0  0  0
  132.4645   78.8131  229.1187 H   0  0  0  0  0  0  0  0  0  0  0  0
  131.4592   78.0688  227.8294 H   0  0  0  0  0  0  0  0  0  0  0  0
  133.2398   77.8315  227.8294 H   0  0  0  0  0  0  0  0  0  0  0  0
  132.8150   78.5466  224.9476 H   0  0  0  0  0  0  0  0  0  0  0  0
  134.6113   78.9128  223.2889 H   0  0  0  0  0  0  0  0  0  0  0  0
  137.0420   81.5431  223.6773 H   0  0  0  0  0  0  0  0  0  0  0  0
  135.0621   80.4588  222.0572 H   0  0  0  0  0  0  0  0  0  0  0  0
  136.4819   81.4174  221.5171 H   0  0  0  0  0  0  0  0  0  0  0  0
  136.5574   79.6227  221.5171 H   0  0  0  0  0  0  0  0  0  0  0  0
  137.6090   78.5630  223.4350 H   0  0  0  0  0  0  0  0  0  0  0  0
  139.9182   78.3712  224.6903 H   0  0  0  0  0  0  0  0  0  0  0  0
  141.6851   80.3907  224.6201 H   0  0  0  0  0  0  0  0  0  0  0  0
  142.4180   78.9318  224.0579 H   0  0  0  0  0  0  0  0  0  0  0  0
  141.1078   81.2080  222.4249 H   0  0  0  0  0  0  0  0  0  0  0  0
  143.3830   79.6420  221.8730 H   0  0  0  0  0  0  0  0  0  0  0  0
  140.0811   79.7162  220.9848 H   0  0  0  0  0  0  0  0  0  0  0  0
  141.5229   78.7358  220.8333 H   0  0  0  0  0  0  0  0  0  0  0  0
  138.1059   77.6334  221.4459 H   0  0  0  0  0  0  0  0  0  0  0  0
  138.7287   76.1083  220.7312 H   0  0  0  0  0  0  0  0  0  0  0  0
  138.0930   74.9740  222.9570 H   0  0  0  0  0  0  0  0  0  0  0  0
  134.8442   77.1017  225.0396 H   0  0  0  0  0  0  0  0  0  0  0  0
  133.5535   75.6352  226.5901 H   0  0  0  0  0  0  0  0  0  0  0  0
  132.9745   73.3958  227.2611 H   0  0  0  0  0  0  0  0  0  0  0  0
  134.6163   70.0195  225.2110 H   0  0  0  0  0  0  0  0  0  0  0  0
  135.8754   71.5066  223.6936 H   0  0  0  0  0  0  0  0  0  0  0  0
  134.6595   81.3682  227.5839 H   0  0  0  0  0  0  0  0  0  0  0  0
  1  2  1  0
  2  3  1  0
  3  4  2  0
  4  5  1  0
  5  6  2  0
  6  7  1  0
  7  8  1  0
  7  9  1  0
  9 10  1  0
 10 11  2  0
 10 12  1  0
 12 13  1  0
 13 14  1  0
 14 15  1  0
 14 16  1  0
 16 17  1  0
 17 18  1  0
 18 19  2  0
 18 20  1  0
 20 21  1  0
 21 22  1  0
 22 23  2  0
 22 24  1  0
 24 25  2  0
 25 26  1  0
 26 27  2  0
 27 28  1  0
 28 29  2  0
 29 30  1  0
 29 31  1  0
 31 32  2  0
 32 33  1  0
 33 34  2  0
  6 35  1  0
 35 36  1  0
 35 37  2  0
 37  3  1  0
 17 12  1  0
 34 24  1  0
 33 27  1  0
  1 38  1  0
  1 39  1  0
  1 40  1  0
  4 41  1  0
  5 42  1  0
  7 43  1  1
  8 44  1  0
  8 45  1  0
  8 46  1  0
  9 47  1  0
 12 48  1  1
 13 49  1  0
 13 50  1  0
 14 51  1  1
 15 52  1  0
 16 53  1  0
 16 54  1  0
 20 55  1  0
 20 56  1  0
 21 57  1  0
 25 58  1  0
 26 59  1  0
 28 60  1  0
 31 61  1  0
 32 62  1  0
 37 63  1  0
M  END
>  <smiles>  (34) 
COc1ccc([C@H](C)NC(=O)[C@@H]2C[C@@H](O)CN2C(=O)CNC(=O)c2ccc3cc(F)ccc3n2)c(Cl)c1

>  <score_type>  (34) 
oracle

>  <origin>  (34) 
autodockgpu

>  <m_score__min__energy>  (34) 
-9.0500000000000007

>  <m_primary>  (34) 
energy

>  <rmsd>  (34) 
7.131802134503717

>  <m_score__min__rmsd>  (34) 
7.131802134503717

>  <meeko>  (34) 
{"free_energy": -6.55, "intermolecular_energy": -9.24, "internal_energy": -3.55, "cluster_size": 1, "cluster_id": 14, "rank_in_cluster": 1}

>  <energy>  (34) 
-6.89

>  <cluster_rmsd>  (34) 
0.0

>  <cluster>  (34) 
11

$$$$

     RDKit          3D

 63 66  0  0  0  0  0  0  0  0999 V2000
  136.8550   80.5610  218.5210 C   0  0  0  0  0  0  0  0  0  0  0  0
  137.7310   80.0020  219.4560 O   0  0  0  0  0  0  0  0  0  0  0  0
  139.0120   79.5530  219.2040 C   0  0  0  0  0  0  0  0  0  0  0  0
  139.2600   78.1850  219.2870 C   0  0  0  0  0  0  0  0  0  0  0  0
  140.5280   77.6660  219.0440 C   0  0  0  0  0  0  0  0  0  0  0  0
  141.6010   78.5020  218.7070 C   0  0  0  0  0  0  0  0  0  0  0  0
  142.8860   77.8730  218.4570 C   0  0  2  0  0  0  0  0  0  0  0  0
  143.1260   77.4430  217.0320 C   0  0  0  0  0  0  0  0  0  0  0  0
  143.1990   76.7520  219.3290 N   0  0  0  0  0  0  0  0  0  0  0  0
  142.6220   75.4570  219.1530 C   0  0  0  0  0  0  0  0  0  0  0  0
  141.7930   75.2140  218.2120 O   0  0  0  0  0  0  0  0  0  0  0  0
  143.0370   74.4090  220.1220 C   0  0  2  0  0  0  0  0  0  0  0  0
  144.5700   74.2870  220.1490 C   0  0  0  0  0  0  0  0  0  0  0  0
  144.7990   73.7640  218.7460 C   0  0  1  0  0  0  0  0  0  0  0  0
  146.0330   73.1400  218.6180 O   0  0  0  0  0  0  0  0  0  0  0  0
  143.6360   72.8250  218.4760 C   0  0  0  0  0  0  0  0  0  0  0  0
  142.7360   73.0820  219.6100 N   0  0  0  0  0  0  0  0  0  0  0  0
  141.7400   72.1730  220.1240 C   0  0  0  0  0  0  0  0  0  0  0  0
  142.1110   71.0830  220.6280 O   0  0  0  0  0  0  0  0  0  0  0  0
  140.3110   72.5840  220.0280 C   0  0  0  0  0  0  0  0  0  0  0  0
  140.1840   73.9770  220.4090 N   0  0  0  0  0  0  0  0  0  0  0  0
  140.0190   74.4110  221.7480 C   0  0  0  0  0  0  0  0  0  0  0  0
  139.9730   73.5780  222.7110 O   0  0  0  0  0  0  0  0  0  0  0  0
  139.8970   75.8480  222.0380 C   0  0  0  0  0  0  0  0  0  0  0  0
  138.7000   76.4430  222.3550 C   0  0  0  0  0  0  0  0  0  0  0  0
  138.5940   77.8010  222.6300 C   0  0  0  0  0  0  0  0  0  0  0  0
  139.7510   78.5400  222.5750 C   0  0  0  0  0  0  0  0  0  0  0  0
  139.7240   79.9000  222.8360 C   0  0  0  0  0  0  0  0  0  0  0  0
  140.8700   80.6820  222.7900 C   0  0  0  0  0  0  0  0  0  0  0  0
  140.8640   82.0090  223.0410 F   0  0  0  0  0  0  0  0  0  0  0  0
  142.0610   80.0490  222.4680 C   0  0  0  0  0  0  0  0  0  0  0  0
  142.1410   78.7030  222.2000 C   0  0  0  0  0  0  0  0  0  0  0  0
  140.9630   77.9540  222.2570 C   0  0  0  0  0  0  0  0  0  0  0  0
  140.9860   76.6340  222.0030 N   0  0  0  0  0  0  0  0  0  0  0  0
  141.3470   79.8670  218.6250 C   0  0  0  0  0  0  0  0  0  0  0  0
  142.6690   80.9230  218.2110 Cl  0  0  0  0  0  0  0  0  0  0  0  0
  140.0690   80.3690  218.8730 C   0  0  0  0  0  0  0  0  0  0  0  0
  136.0405   81.0808  219.0467 H   0  0  0  0  0  0  0  0  0  0  0  0
  137.4007   81.2782  217.8903 H   0  0  0  0  0  0  0  0  0  0  0  0
  136.4345   79.7639  217.8903 H   0  0  0  0  0  0  0  0  0  0  0  0
  138.4384   77.5023  219.5495 H   0  0  0  0  0  0  0  0  0  0  0  0
  140.6910   76.5806  219.1177 H   0  0  0  0  0  0  0  0  0  0  0  0
  143.5675   78.7048  218.6886 H   0  0  0  0  0  0  0  0  0  0  0  0
  143.6621   76.4825  217.0242 H   0  0  0  0  0  0  0  0  0  0  0  0
  142.1613   77.3286  216.5161 H   0  0  0  0  0  0  0  0  0  0  0  0
  143.7298   78.2041  216.5161 H   0  0  0  0  0  0  0  0  0  0  0  0
  143.8860   76.9130  220.1280 H   0  0  0  0  0  0  0  0  0  0  0  0
  142.5476   74.6842  221.0679 H   0  0  0  0  0  0  0  0  0  0  0  0
  145.0571   75.2601  220.3096 H   0  0  0  0  0  0  0  0  0  0  0  0
  144.9776   73.6609  220.9564 H   0  0  0  0  0  0  0  0  0  0  0  0
  144.8308   74.5778  218.0065 H   0  0  0  0  0  0  0  0  0  0  0  0
  146.7520   73.8130  218.5920 H   0  0  0  0  0  0  0  0  0  0  0  0
  143.1470   73.0653  217.5204 H   0  0  0  0  0  0  0  0  0  0  0  0
  143.9392   71.7709  218.3924 H   0  0  0  0  0  0  0  0  0  0  0  0
  139.9601   72.4529  218.9937 H   0  0  0  0  0  0  0  0  0  0  0  0
  139.7037   71.9619  220.7019 H   0  0  0  0  0  0  0  0  0  0  0  0
  140.2090   74.7440  219.6790 H   0  0  0  0  0  0  0  0  0  0  0  0
  137.7928   75.8221  222.3925 H   0  0  0  0  0  0  0  0  0  0  0  0
  137.6278   78.2633  222.8803 H   0  0  0  0  0  0  0  0  0  0  0  0
  138.7644   80.3753  223.0876 H   0  0  0  0  0  0  0  0  0  0  0  0
  142.9815   80.6498  222.4252 H   0  0  0  0  0  0  0  0  0  0  0  0
  143.1021   78.2307  221.9486 H   0  0  0  0  0  0  0  0  0  0  0  0
  139.9009   81.4537  218.8015 H   0  0  0  0  0  0  0  0  0  0  0  0
  1  2  1  0
  2  3  1  0
  3  4  2  0
  4  5  1  0
  5  6  2  0
  6  7  1  0
  7  8  1  0
  7  9  1  0
  9 10  1  0
 10 11  2  0
 10 12  1  0
 12 13  1  0
 13 14  1  0
 14 15  1  0
 14 16  1  0
 16 17  1  0
 17 18  1  0
 18 19  2  0
 18 20  1  0
 20 21  1  0
 21 22  1  0
 22 23  2  0
 22 24  1  0
 24 25  2  0
 25 26  1  0
 26 27  2  0
 27 28  1  0
 28 29  2  0
 29 30  1  0
 29 31  1  0
 31 32  2  0
 32 33  1  0
 33 34  2  0
  6 35  1  0
 35 36  1  0
 35 37  2  0
 37  3  1  0
 17 12  1  0
 34 24  1  0
 33 27  1  0
  1 38  1  0
  1 39  1  0
  1 40  1  0
  4 41  1  0
  5 42  1  0
  7 43  1  1
  8 44  1  0
  8 45  1  0
  8 46  1  0
  9 47  1  0
 12 48  1  1
 13 49  1  0
 13 50  1  0
 14 51  1  6
 15 52  1  0
 16 53  1  0
 16 54  1  0
 20 55  1  0
 20 56  1  0
 21 57  1  0
 25 58  1  0
 26 59  1  0
 28 60  1  0
 31 61  1  0
 32 62  1  0
 37 63  1  0
M  END
>  <smiles>  (35) 
COc1ccc([C@H](C)NC(=O)[C@@H]2C[C@@H](O)CN2C(=O)CNC(=O)c2ccc3cc(F)ccc3n2)c(Cl)c1

>  <score_type>  (35) 
oracle

>  <origin>  (35) 
autodockgpu

>  <m_score__min__energy>  (35) 
-9.0500000000000007

>  <m_primary>  (35) 
energy

>  <rmsd>  (35) 
6.526738117706988

>  <m_score__min__rmsd>  (35) 
6.526738117706988

>  <meeko>  (35) 
{"free_energy": -6.61, "intermolecular_energy": -9.3, "internal_energy": -4.57, "cluster_size": 9, "cluster_id": 11, "rank_in_cluster": 3}

>  <energy>  (35) 
-6.75

>  <cluster_rmsd>  (35) 
1.39

>  <cluster>  (35) 
11

$$$$

     RDKit          3D

 63 66  0  0  0  0  0  0  0  0999 V2000
  141.7910   81.4310  223.8880 C   0  0  0  0  0  0  0  0  0  0  0  0
  142.5310   80.3340  223.4380 O   0  0  0  0  0  0  0  0  0  0  0  0
  142.0460   79.2750  222.6960 C   0  0  0  0  0  0  0  0  0  0  0  0
  141.4430   78.2170  223.3710 C   0  0  0  0  0  0  0  0  0  0  0  0
  140.9330   77.1200  222.6830 C   0  0  0  0  0  0  0  0  0  0  0  0
  141.0080   77.0420  221.2860 C   0  0  0  0  0  0  0  0  0  0  0  0
  140.4380   75.8670  220.6490 C   0  0  2  0  0  0  0  0  0  0  0  0
  139.0000   75.5800  220.9980 C   0  0  0  0  0  0  0  0  0  0  0  0
  141.2030   74.6420  220.8280 N   0  0  0  0  0  0  0  0  0  0  0  0
  142.5980   74.5580  220.5320 C   0  0  0  0  0  0  0  0  0  0  0  0
  143.2520   75.5620  220.0900 O   0  0  0  0  0  0  0  0  0  0  0  0
  143.2470   73.2410  220.7650 C   0  0  2  0  0  0  0  0  0  0  0  0
  144.7520   73.3280  220.4560 C   0  0  0  0  0  0  0  0  0  0  0  0
  144.6810   73.5720  218.9630 C   0  0  1  0  0  0  0  0  0  0  0  0
  145.8740   73.2570  218.3260 O   0  0  0  0  0  0  0  0  0  0  0  0
  143.5150   72.7300  218.4750 C   0  0  0  0  0  0  0  0  0  0  0  0
  142.8800   72.2920  219.7270 N   0  0  0  0  0  0  0  0  0  0  0  0
  142.0490   71.1240  219.8930 C   0  0  0  0  0  0  0  0  0  0  0  0
  142.5050   69.9990  219.5640 O   0  0  0  0  0  0  0  0  0  0  0  0
  140.6810   71.3190  220.4490 C   0  0  0  0  0  0  0  0  0  0  0  0
  140.6640   70.9070  221.8400 N   0  0  0  0  0  0  0  0  0  0  0  0
  140.5630   71.8160  222.9240 C   0  0  0  0  0  0  0  0  0  0  0  0
  140.4790   73.0720  222.7280 O   0  0  0  0  0  0  0  0  0  0  0  0
  140.5560   71.3040  224.3030 C   0  0  0  0  0  0  0  0  0  0  0  0
  140.7130   72.1190  225.3990 C   0  0  0  0  0  0  0  0  0  0  0  0
  140.7030   71.6290  226.6990 C   0  0  0  0  0  0  0  0  0  0  0  0
  140.5260   70.2750  226.8520 C   0  0  0  0  0  0  0  0  0  0  0  0
  140.5050   69.7120  228.1180 C   0  0  0  0  0  0  0  0  0  0  0  0
  140.3290   68.3490  228.3160 C   0  0  0  0  0  0  0  0  0  0  0  0
  140.3060   67.7820  229.5410 F   0  0  0  0  0  0  0  0  0  0  0  0
  140.1740   67.5570  227.1890 C   0  0  0  0  0  0  0  0  0  0  0  0
  140.1870   68.0660  225.9110 C   0  0  0  0  0  0  0  0  0  0  0  0
  140.3670   69.4420  225.7590 C   0  0  0  0  0  0  0  0  0  0  0  0
  140.3880   69.9910  224.5320 N   0  0  0  0  0  0  0  0  0  0  0  0
  141.6120   78.1020  220.6170 C   0  0  0  0  0  0  0  0  0  0  0  0
  141.7180   78.0210  218.8800 Cl  0  0  0  0  0  0  0  0  0  0  0  0
  142.1180   79.1930  221.3240 C   0  0  0  0  0  0  0  0  0  0  0  0
  141.7836   81.4420  224.9879 H   0  0  0  0  0  0  0  0  0  0  0  0
  142.2481   82.3595  223.5151 H   0  0  0  0  0  0  0  0  0  0  0  0
  140.7589   81.3549  223.5151 H   0  0  0  0  0  0  0  0  0  0  0  0
  141.3683   78.2488  224.4680 H   0  0  0  0  0  0  0  0  0  0  0  0
  140.4629   76.3000  223.2457 H   0  0  0  0  0  0  0  0  0  0  0  0
  140.4861   76.1651  219.5913 H   0  0  0  0  0  0  0  0  0  0  0  0
  138.8857   75.5572  222.0918 H   0  0  0  0  0  0  0  0  0  0  0  0
  138.3567   76.3675  220.5784 H   0  0  0  0  0  0  0  0  0  0  0  0
  138.7082   74.6059  220.5784 H   0  0  0  0  0  0  0  0  0  0  0  0
  140.6950   73.7800  221.1940 H   0  0  0  0  0  0  0  0  0  0  0  0
  142.9699   72.9633  221.7927 H   0  0  0  0  0  0  0  0  0  0  0  0
  145.2333   74.1627  220.9867 H   0  0  0  0  0  0  0  0  0  0  0  0
  145.3463   72.4544  220.7621 H   0  0  0  0  0  0  0  0  0  0  0  0
  144.5249   74.6358  218.7307 H   0  0  0  0  0  0  0  0  0  0  0  0
  146.4070   74.0720  218.1820 H   0  0  0  0  0  0  0  0  0  0  0  0
  142.8208   73.3294  217.8677 H   0  0  0  0  0  0  0  0  0  0  0  0
  143.8226   71.8950  217.8284 H   0  0  0  0  0  0  0  0  0  0  0  0
  140.4034   72.3810  220.3772 H   0  0  0  0  0  0  0  0  0  0  0  0
  139.9619   70.7140  219.8773 H   0  0  0  0  0  0  0  0  0  0  0  0
  140.7310   69.8840  222.1040 H   0  0  0  0  0  0  0  0  0  0  0  0
  140.8516   73.1987  225.2408 H   0  0  0  0  0  0  0  0  0  0  0  0
  140.8309   72.2942  227.5657 H   0  0  0  0  0  0  0  0  0  0  0  0
  140.6318   70.3655  228.9937 H   0  0  0  0  0  0  0  0  0  0  0  0
  140.0345   66.4741  227.3224 H   0  0  0  0  0  0  0  0  0  0  0  0
  140.0597   67.4100  225.0372 H   0  0  0  0  0  0  0  0  0  0  0  0
  142.5903   80.0152  220.7663 H   0  0  0  0  0  0  0  0  0  0  0  0
  1  2  1  0
  2  3  1  0
  3  4  2  0
  4  5  1  0
  5  6  2  0
  6  7  1  0
  7  8  1  0
  7  9  1  0
  9 10  1  0
 10 11  2  0
 10 12  1  0
 12 13  1  0
 13 14  1  0
 14 15  1  0
 14 16  1  0
 16 17  1  0
 17 18  1  0
 18 19  2  0
 18 20  1  0
 20 21  1  0
 21 22  1  0
 22 23  2  0
 22 24  1  0
 24 25  2  0
 25 26  1  0
 26 27  2  0
 27 28  1  0
 28 29  2  0
 29 30  1  0
 29 31  1  0
 31 32  2  0
 32 33  1  0
 33 34  2  0
  6 35  1  0
 35 36  1  0
 35 37  2  0
 37  3  1  0
 17 12  1  0
 34 24  1  0
 33 27  1  0
  1 38  1  0
  1 39  1  0
  1 40  1  0
  4 41  1  0
  5 42  1  0
  7 43  1  6
  8 44  1  0
  8 45  1  0
  8 46  1  0
  9 47  1  0
 12 48  1  1
 13 49  1  0
 13 50  1  0
 14 51  1  1
 15 52  1  0
 16 53  1  0
 16 54  1  0
 20 55  1  0
 20 56  1  0
 21 57  1  0
 25 58  1  0
 26 59  1  0
 28 60  1  0
 31 61  1  0
 32 62  1  0
 37 63  1  0
M  END
>  <smiles>  (36) 
COc1ccc([C@H](C)NC(=O)[C@@H]2C[C@@H](O)CN2C(=O)CNC(=O)c2ccc3cc(F)ccc3n2)c(Cl)c1

>  <score_type>  (36) 
oracle

>  <origin>  (36) 
autodockgpu

>  <m_score__min__energy>  (36) 
-9.0500000000000007

>  <m_primary>  (36) 
energy

>  <rmsd>  (36) 
4.8389596356081634

>  <m_score__min__rmsd>  (36) 
4.8389596356081634

>  <meeko>  (36) 
{"free_energy": -8.84, "intermolecular_energy": -11.52, "internal_energy": -3.16, "cluster_size": 8, "cluster_id": 2, "rank_in_cluster": 4}

>  <energy>  (36) 
-6.61

>  <cluster_rmsd>  (36) 
1.1

>  <cluster>  (36) 
11

$$$$

     RDKit          3D

 63 66  0  0  0  0  0  0  0  0999 V2000
  138.8990   84.8170  220.0240 C   0  0  0  0  0  0  0  0  0  0  0  0
  138.7270   84.1570  221.2440 O   0  0  0  0  0  0  0  0  0  0  0  0
  139.4380   83.0560  221.6790 C   0  0  0  0  0  0  0  0  0  0  0  0
  140.8210   83.0550  221.5150 C   0  0  0  0  0  0  0  0  0  0  0  0
  141.5960   81.9770  221.9320 C   0  0  0  0  0  0  0  0  0  0  0  0
  141.0120   80.8540  222.5330 C   0  0  0  0  0  0  0  0  0  0  0  0
  141.8980   79.7810  222.9500 C   0  0  2  0  0  0  0  0  0  0  0  0
  143.3510   80.1590  223.0770 C   0  0  0  0  0  0  0  0  0  0  0  0
  141.8110   78.5700  222.1490 N   0  0  0  0  0  0  0  0  0  0  0  0
  141.7690   78.5950  220.7210 C   0  0  0  0  0  0  0  0  0  0  0  0
  141.8040   79.6920  220.0670 O   0  0  0  0  0  0  0  0  0  0  0  0
  141.6820   77.2780  220.0370 C   0  0  2  0  0  0  0  0  0  0  0  0
  141.2990   77.4710  218.5590 C   0  0  0  0  0  0  0  0  0  0  0  0
  139.8970   78.0140  218.7380 C   0  0  1  0  0  0  0  0  0  0  0  0
  139.1320   77.8720  217.5880 O   0  0  0  0  0  0  0  0  0  0  0  0
  139.3230   77.2560  219.9220 C   0  0  0  0  0  0  0  0  0  0  0  0
  140.4960   76.5520  220.4600 N   0  0  0  0  0  0  0  0  0  0  0  0
  140.4710   75.3510  221.2600 C   0  0  0  0  0  0  0  0  0  0  0  0
  141.4380   75.1070  222.0250 O   0  0  0  0  0  0  0  0  0  0  0  0
  139.2860   74.4560  221.1320 C   0  0  0  0  0  0  0  0  0  0  0  0
  139.2830   73.5020  222.2240 N   0  0  0  0  0  0  0  0  0  0  0  0
  140.1490   72.3820  222.2870 C   0  0  0  0  0  0  0  0  0  0  0  0
  140.9960   72.1490  221.3640 O   0  0  0  0  0  0  0  0  0  0  0  0
  140.0730   71.4670  223.4360 C   0  0  0  0  0  0  0  0  0  0  0  0
  139.5290   70.2070  223.3480 C   0  0  0  0  0  0  0  0  0  0  0  0
  139.4630   69.3480  224.4370 C   0  0  0  0  0  0  0  0  0  0  0  0
  139.9710   69.8100  225.6270 C   0  0  0  0  0  0  0  0  0  0  0  0
  139.9390   69.0100  226.7580 C   0  0  0  0  0  0  0  0  0  0  0  0
  140.4410   69.4400  227.9790 C   0  0  0  0  0  0  0  0  0  0  0  0
  140.4190   68.6750  229.0920 F   0  0  0  0  0  0  0  0  0  0  0  0
  140.9820   70.7150  228.0320 C   0  0  0  0  0  0  0  0  0  0  0  0
  141.0370   71.5480  226.9390 C   0  0  0  0  0  0  0  0  0  0  0  0
  140.5210   71.0750  225.7310 C   0  0  0  0  0  0  0  0  0  0  0  0
  140.5490   71.8490  224.6320 N   0  0  0  0  0  0  0  0  0  0  0  0
  139.6300   80.8610  222.6940 C   0  0  0  0  0  0  0  0  0  0  0  0
  138.8850   79.4710  223.4360 Cl  0  0  0  0  0  0  0  0  0  0  0  0
  138.8700   81.9510  222.2690 C   0  0  0  0  0  0  0  0  0  0  0  0
  139.1724   85.8661  220.2100 H   0  0  0  0  0  0  0  0  0  0  0  0
  139.6991   84.3257  219.4509 H   0  0  0  0  0  0  0  0  0  0  0  0
  137.9609   84.7786  219.4509 H   0  0  0  0  0  0  0  0  0  0  0  0
  141.3098   83.9223  221.0472 H   0  0  0  0  0  0  0  0  0  0  0  0
  142.6860   82.0070  221.7873 H   0  0  0  0  0  0  0  0  0  0  0  0
  141.5047   79.5715  223.9557 H   0  0  0  0  0  0  0  0  0  0  0  0
  143.6200   80.2290  224.1413 H   0  0  0  0  0  0  0  0  0  0  0  0
  143.9730   79.3928  222.5912 H   0  0  0  0  0  0  0  0  0  0  0  0
  143.5208   81.1312  222.5912 H   0  0  0  0  0  0  0  0  0  0  0  0
  141.7790   77.6330  222.6550 H   0  0  0  0  0  0  0  0  0  0  0  0
  142.6461   76.7877  220.2375 H   0  0  0  0  0  0  0  0  0  0  0  0
  141.9581   78.1928  218.0544 H   0  0  0  0  0  0  0  0  0  0  0  0
  141.3778   76.5709  217.9317 H   0  0  0  0  0  0  0  0  0  0  0  0
  139.9004   79.0978  218.9263 H   0  0  0  0  0  0  0  0  0  0  0  0
  138.2190   77.5830  217.8210 H   0  0  0  0  0  0  0  0  0  0  0  0
  138.8997   77.9463  220.6665 H   0  0  0  0  0  0  0  0  0  0  0  0
  138.4988   76.5811  219.6479 H   0  0  0  0  0  0  0  0  0  0  0  0
  138.3659   75.0578  221.1679 H   0  0  0  0  0  0  0  0  0  0  0  0
  139.3338   73.9177  220.1739 H   0  0  0  0  0  0  0  0  0  0  0  0
  138.6140   73.6100  223.0380 H   0  0  0  0  0  0  0  0  0  0  0  0
  139.1319   69.8674  222.3800 H   0  0  0  0  0  0  0  0  0  0  0  0
  139.0239   68.3431  224.3508 H   0  0  0  0  0  0  0  0  0  0  0  0
  139.5023   68.0030  226.6862 H   0  0  0  0  0  0  0  0  0  0  0  0
  141.3848   71.0763  228.9897 H   0  0  0  0  0  0  0  0  0  0  0  0
  141.4736   72.5548  227.0142 H   0  0  0  0  0  0  0  0  0  0  0  0
  137.7794   81.9258  222.4106 H   0  0  0  0  0  0  0  0  0  0  0  0
  1  2  1  0
  2  3  1  0
  3  4  2  0
  4  5  1  0
  5  6  2  0
  6  7  1  0
  7  8  1  0
  7  9  1  0
  9 10  1  0
 10 11  2  0
 10 12  1  0
 12 13  1  0
 13 14  1  0
 14 15  1  0
 14 16  1  0
 16 17  1  0
 17 18  1  0
 18 19  2  0
 18 20  1  0
 20 21  1  0
 21 22  1  0
 22 23  2  0
 22 24  1  0
 24 25  2  0
 25 26  1  0
 26 27  2  0
 27 28  1  0
 28 29  2  0
 29 30  1  0
 29 31  1  0
 31 32  2  0
 32 33  1  0
 33 34  2  0
  6 35  1  0
 35 36  1  0
 35 37  2  0
 37  3  1  0
 17 12  1  0
 34 24  1  0
 33 27  1  0
  1 38  1  0
  1 39  1  0
  1 40  1  0
  4 41  1  0
  5 42  1  0
  7 43  1  1
  8 44  1  0
  8 45  1  0
  8 46  1  0
  9 47  1  0
 12 48  1  6
 13 49  1  0
 13 50  1  0
 14 51  1  1
 15 52  1  0
 16 53  1  0
 16 54  1  0
 20 55  1  0
 20 56  1  0
 21 57  1  0
 25 58  1  0
 26 59  1  0
 28 60  1  0
 31 61  1  0
 32 62  1  0
 37 63  1  0
M  END
>  <smiles>  (37) 
COc1ccc([C@H](C)NC(=O)[C@@H]2C[C@@H](O)CN2C(=O)CNC(=O)c2ccc3cc(F)ccc3n2)c(Cl)c1

>  <score_type>  (37) 
oracle

>  <origin>  (37) 
autodockgpu

>  <m_score__min__energy>  (37) 
-9.0500000000000007

>  <m_primary>  (37) 
energy

>  <rmsd>  (37) 
1.5880500218432612

>  <m_score__min__rmsd>  (37) 
1.5880500218432612

>  <meeko>  (37) 
{"free_energy": -8.62, "intermolecular_energy": -11.3, "internal_energy": -2.24, "cluster_size": 6, "cluster_id": 4, "rank_in_cluster": 1}

>  <energy>  (37) 
-6.44

>  <cluster_rmsd>  (37) 
1.18

>  <cluster>  (37) 
11

$$$$

     RDKit          3D

 63 66  0  0  0  0  0  0  0  0999 V2000
  136.0460   78.8030  219.7220 C   0  0  0  0  0  0  0  0  0  0  0  0
  136.7990   79.9560  219.9600 O   0  0  0  0  0  0  0  0  0  0  0  0
  138.1430   80.1200  219.6860 C   0  0  0  0  0  0  0  0  0  0  0  0
  138.6590   79.5310  218.5340 C   0  0  0  0  0  0  0  0  0  0  0  0
  140.0030   79.6570  218.1990 C   0  0  0  0  0  0  0  0  0  0  0  0
  140.8870   80.3820  219.0100 C   0  0  0  0  0  0  0  0  0  0  0  0
  142.2710   80.4740  218.5780 C   0  0  2  0  0  0  0  0  0  0  0  0
  142.5720   81.5970  217.6190 C   0  0  0  0  0  0  0  0  0  0  0  0
  142.8220   79.2450  218.0280 N   0  0  0  0  0  0  0  0  0  0  0  0
  142.6790   77.9810  218.6780 C   0  0  0  0  0  0  0  0  0  0  0  0
  142.0530   77.8620  219.7850 O   0  0  0  0  0  0  0  0  0  0  0  0
  143.2950   76.8120  217.9970 C   0  0  2  0  0  0  0  0  0  0  0  0
  142.9830   76.8480  216.4910 C   0  0  0  0  0  0  0  0  0  0  0  0
  141.4840   76.6370  216.5480 C   0  0  1  0  0  0  0  0  0  0  0  0
  140.9760   76.1830  215.3380 O   0  0  0  0  0  0  0  0  0  0  0  0
  141.2620   75.6540  217.6840 C   0  0  0  0  0  0  0  0  0  0  0  0
  142.5840   75.5870  218.3240 N   0  0  0  0  0  0  0  0  0  0  0  0
  143.0830   74.4970  219.1260 C   0  0  0  0  0  0  0  0  0  0  0  0
  144.0540   73.8210  218.6990 O   0  0  0  0  0  0  0  0  0  0  0  0
  142.4120   74.2290  220.4290 C   0  0  0  0  0  0  0  0  0  0  0  0
  141.9860   75.4840  221.0160 N   0  0  0  0  0  0  0  0  0  0  0  0
  140.7960   75.6290  221.7740 C   0  0  0  0  0  0  0  0  0  0  0  0
  140.0210   74.6400  221.9840 O   0  0  0  0  0  0  0  0  0  0  0  0
  140.4440   76.9440  222.3310 C   0  0  0  0  0  0  0  0  0  0  0  0
  141.3860   77.8340  222.7890 C   0  0  0  0  0  0  0  0  0  0  0  0
  141.0450   79.0760  223.3110 C   0  0  0  0  0  0  0  0  0  0  0  0
  139.7080   79.3880  223.3520 C   0  0  0  0  0  0  0  0  0  0  0  0
  139.2900   80.6080  223.8590 C   0  0  0  0  0  0  0  0  0  0  0  0
  137.9490   80.9620  223.9190 C   0  0  0  0  0  0  0  0  0  0  0  0
  137.5230   82.1450  224.4100 F   0  0  0  0  0  0  0  0  0  0  0  0
  137.0260   80.0410  223.4480 C   0  0  0  0  0  0  0  0  0  0  0  0
  137.3880   78.8170  222.9350 C   0  0  0  0  0  0  0  0  0  0  0  0
  138.7480   78.5030  222.8950 C   0  0  0  0  0  0  0  0  0  0  0  0
  139.1560   77.3200  222.4030 N   0  0  0  0  0  0  0  0  0  0  0  0
  140.3660   80.9680  220.1600 C   0  0  0  0  0  0  0  0  0  0  0  0
  141.4500   81.8700  221.1830 Cl  0  0  0  0  0  0  0  0  0  0  0  0
  139.0150   80.8300  220.4790 C   0  0  0  0  0  0  0  0  0  0  0  0
  135.7519   78.3526  220.6815 H   0  0  0  0  0  0  0  0  0  0  0  0
  135.1447   79.0655  219.1486 H   0  0  0  0  0  0  0  0  0  0  0  0
  136.6487   78.0833  219.1486 H   0  0  0  0  0  0  0  0  0  0  0  0
  137.9908   78.9553  217.8767 H   0  0  0  0  0  0  0  0  0  0  0  0
  140.3787   79.1795  217.2820 H   0  0  0  0  0  0  0  0  0  0  0  0
  142.7699   80.6913  219.5340 H   0  0  0  0  0  0  0  0  0  0  0  0
  142.8161   82.5076  218.1857 H   0  0  0  0  0  0  0  0  0  0  0  0
  143.4273   81.3190  216.9857 H   0  0  0  0  0  0  0  0  0  0  0  0
  141.6923   81.7840  216.9857 H   0  0  0  0  0  0  0  0  0  0  0  0
  143.3530   79.3000  217.1060 H   0  0  0  0  0  0  0  0  0  0  0  0
  144.3572   76.8436  218.2811 H   0  0  0  0  0  0  0  0  0  0  0  0
  143.2453   77.8162  216.0395 H   0  0  0  0  0  0  0  0  0  0  0  0
  143.5375   76.1223  215.8779 H   0  0  0  0  0  0  0  0  0  0  0  0
  140.9454   77.5788  216.7295 H   0  0  0  0  0  0  0  0  0  0  0  0
  141.7030   75.8290  214.7760 H   0  0  0  0  0  0  0  0  0  0  0  0
  140.5010   76.0258  218.3859 H   0  0  0  0  0  0  0  0  0  0  0  0
  140.8936   74.6746  217.3450 H   0  0  0  0  0  0  0  0  0  0  0  0
  141.5362   73.5839  220.2654 H   0  0  0  0  0  0  0  0  0  0  0  0
  143.1148   73.7245  221.1083 H   0  0  0  0  0  0  0  0  0  0  0  0
  142.5630   76.3640  220.8970 H   0  0  0  0  0  0  0  0  0  0  0  0
  142.4484   77.5530  222.7406 H   0  0  0  0  0  0  0  0  0  0  0  0
  141.8107   79.7770  223.6747 H   0  0  0  0  0  0  0  0  0  0  0  0
  140.0451   81.3189  224.2257 H   0  0  0  0  0  0  0  0  0  0  0  0
  135.9577   80.3003  223.4862 H   0  0  0  0  0  0  0  0  0  0  0  0
  136.6306   78.1086  222.5682 H   0  0  0  0  0  0  0  0  0  0  0  0
  138.6340   81.3047  221.3952 H   0  0  0  0  0  0  0  0  0  0  0  0
  1  2  1  0
  2  3  1  0
  3  4  2  0
  4  5  1  0
  5  6  2  0
  6  7  1  0
  7  8  1  0
  7  9  1  0
  9 10  1  0
 10 11  2  0
 10 12  1  0
 12 13  1  0
 13 14  1  0
 14 15  1  0
 14 16  1  0
 16 17  1  0
 17 18  1  0
 18 19  2  0
 18 20  1  0
 20 21  1  0
 21 22  1  0
 22 23  2  0
 22 24  1  0
 24 25  2  0
 25 26  1  0
 26 27  2  0
 27 28  1  0
 28 29  2  0
 29 30  1  0
 29 31  1  0
 31 32  2  0
 32 33  1  0
 33 34  2  0
  6 35  1  0
 35 36  1  0
 35 37  2  0
 37  3  1  0
 17 12  1  0
 34 24  1  0
 33 27  1  0
  1 38  1  0
  1 39  1  0
  1 40  1  0
  4 41  1  0
  5 42  1  0
  7 43  1  1
  8 44  1  0
  8 45  1  0
  8 46  1  0
  9 47  1  0
 12 48  1  6
 13 49  1  0
 13 50  1  0
 14 51  1  1
 15 52  1  0
 16 53  1  0
 16 54  1  0
 20 55  1  0
 20 56  1  0
 21 57  1  0
 25 58  1  0
 26 59  1  0
 28 60  1  0
 31 61  1  0
 32 62  1  0
 37 63  1  0
M  END
>  <smiles>  (38) 
COc1ccc([C@H](C)NC(=O)[C@@H]2C[C@@H](O)CN2C(=O)CNC(=O)c2ccc3cc(F)ccc3n2)c(Cl)c1

>  <score_type>  (38) 
oracle

>  <origin>  (38) 
autodockgpu

>  <m_score__min__energy>  (38) 
-9.0500000000000007

>  <m_primary>  (38) 
energy

>  <rmsd>  (38) 
6.644997986426297

>  <m_score__min__rmsd>  (38) 
6.644997986426297

>  <meeko>  (38) 
{"free_energy": -6.0, "intermolecular_energy": -8.69, "internal_energy": -4.6, "cluster_size": 5, "cluster_id": 15, "rank_in_cluster": 2}

>  <energy>  (38) 
-6.4

>  <cluster_rmsd>  (38) 
1.13

>  <cluster>  (38) 
11

$$$$

     RDKit          3D

 63 66  0  0  0  0  0  0  0  0999 V2000
  139.3390   83.3680  221.1970 C   0  0  0  0  0  0  0  0  0  0  0  0
  140.4650   82.7770  220.6180 O   0  0  0  0  0  0  0  0  0  0  0  0
  140.5520   81.4810  220.1480 C   0  0  0  0  0  0  0  0  0  0  0  0
  139.5540   80.5790  220.5090 C   0  0  0  0  0  0  0  0  0  0  0  0
  139.5810   79.2590  220.0690 C   0  0  0  0  0  0  0  0  0  0  0  0
  140.6160   78.7900  219.2480 C   0  0  0  0  0  0  0  0  0  0  0  0
  140.5570   77.4020  218.8260 C   0  0  2  0  0  0  0  0  0  0  0  0
  139.1780   76.8830  218.5080 C   0  0  0  0  0  0  0  0  0  0  0  0
  141.2020   76.4600  219.7280 N   0  0  0  0  0  0  0  0  0  0  0  0
  142.4090   75.7750  219.3890 C   0  0  0  0  0  0  0  0  0  0  0  0
  142.9900   75.9540  218.2660 O   0  0  0  0  0  0  0  0  0  0  0  0
  142.9510   74.8430  220.4120 C   0  0  2  0  0  0  0  0  0  0  0  0
  144.4550   74.6150  220.1790 C   0  0  0  0  0  0  0  0  0  0  0  0
  144.3900   73.8880  218.8520 C   0  0  1  0  0  0  0  0  0  0  0  0
  145.5470   73.1650  218.5960 O   0  0  0  0  0  0  0  0  0  0  0  0
  143.1550   73.0080  218.9390 C   0  0  0  0  0  0  0  0  0  0  0  0
  142.4990   73.4830  220.1660 N   0  0  0  0  0  0  0  0  0  0  0  0
  141.5780   72.7290  220.9820 C   0  0  0  0  0  0  0  0  0  0  0  0
  141.9190   71.5900  221.3920 O   0  0  0  0  0  0  0  0  0  0  0  0
  140.2590   73.3480  221.2940 C   0  0  0  0  0  0  0  0  0  0  0  0
  140.4650   74.7050  221.7650 N   0  0  0  0  0  0  0  0  0  0  0  0
  139.4070   75.5820  222.1120 C   0  0  0  0  0  0  0  0  0  0  0  0
  138.1900   75.2150  222.0260 O   0  0  0  0  0  0  0  0  0  0  0  0
  139.7130   76.9420  222.5790 C   0  0  0  0  0  0  0  0  0  0  0  0
  138.7510   77.7960  223.0650 C   0  0  0  0  0  0  0  0  0  0  0  0
  139.0490   79.0780  223.5070 C   0  0  0  0  0  0  0  0  0  0  0  0
  140.3640   79.4700  223.4400 C   0  0  0  0  0  0  0  0  0  0  0  0
  140.7390   80.7360  223.8620 C   0  0  0  0  0  0  0  0  0  0  0  0
  142.0560   81.1710  223.8100 C   0  0  0  0  0  0  0  0  0  0  0  0
  142.4400   82.4010  224.2150 F   0  0  0  0  0  0  0  0  0  0  0  0
  143.0000   80.2850  223.3140 C   0  0  0  0  0  0  0  0  0  0  0  0
  142.6800   79.0190  222.8830 C   0  0  0  0  0  0  0  0  0  0  0  0
  141.3430   78.6230  222.9530 C   0  0  0  0  0  0  0  0  0  0  0  0
  140.9770   77.3960  222.5430 N   0  0  0  0  0  0  0  0  0  0  0  0
  141.6100   79.6950  218.8920 C   0  0  0  0  0  0  0  0  0  0  0  0
  142.9070   79.1290  217.8740 Cl  0  0  0  0  0  0  0  0  0  0  0  0
  141.5660   81.0150  219.3430 C   0  0  0  0  0  0  0  0  0  0  0  0
  139.4241   83.3234  222.2928 H   0  0  0  0  0  0  0  0  0  0  0  0
  139.2707   84.4182  220.8770 H   0  0  0  0  0  0  0  0  0  0  0  0
  138.4359   82.8277  220.8770 H   0  0  0  0  0  0  0  0  0  0  0  0
  138.7291   80.9163  221.1539 H   0  0  0  0  0  0  0  0  0  0  0  0
  138.7766   78.5720  220.3705 H   0  0  0  0  0  0  0  0  0  0  0  0
  141.1333   77.4498  217.8903 H   0  0  0  0  0  0  0  0  0  0  0  0
  138.6378   76.6797  219.4444 H   0  0  0  0  0  0  0  0  0  0  0  0
  138.6286   77.6359  217.9238 H   0  0  0  0  0  0  0  0  0  0  0  0
  139.2613   75.9547  217.9238 H   0  0  0  0  0  0  0  0  0  0  0  0
  140.7490   76.2800  220.6760 H   0  0  0  0  0  0  0  0  0  0  0  0
  142.6618   75.2804  221.3790 H   0  0  0  0  0  0  0  0  0  0  0  0
  145.0074   75.5631  220.1018 H   0  0  0  0  0  0  0  0  0  0  0  0
  144.9793   74.0786  220.9836 H   0  0  0  0  0  0  0  0  0  0  0  0
  144.3185   74.5880  218.0065 H   0  0  0  0  0  0  0  0  0  0  0  0
  146.3140   73.7750  218.4980 H   0  0  0  0  0  0  0  0  0  0  0  0
  142.5055   73.1498  218.0626 H   0  0  0  0  0  0  0  0  0  0  0  0
  143.3880   71.9332  218.9592 H   0  0  0  0  0  0  0  0  0  0  0  0
  139.6371   73.3644  220.3868 H   0  0  0  0  0  0  0  0  0  0  0  0
  139.7517   72.7606  222.0735 H   0  0  0  0  0  0  0  0  0  0  0  0
  141.4420   75.1010  221.8680 H   0  0  0  0  0  0  0  0  0  0  0  0
  137.7073   77.4509  223.1051 H   0  0  0  0  0  0  0  0  0  0  0  0
  138.2678   79.7492  223.8932 H   0  0  0  0  0  0  0  0  0  0  0  0
  139.9681   81.4177  224.2505 H   0  0  0  0  0  0  0  0  0  0  0  0
  144.0501   80.6087  223.2630 H   0  0  0  0  0  0  0  0  0  0  0  0
  143.4532   78.3395  222.4952 H   0  0  0  0  0  0  0  0  0  0  0  0
  142.3685   81.7058  219.0451 H   0  0  0  0  0  0  0  0  0  0  0  0
  1  2  1  0
  2  3  1  0
  3  4  2  0
  4  5  1  0
  5  6  2  0
  6  7  1  0
  7  8  1  0
  7  9  1  0
  9 10  1  0
 10 11  2  0
 10 12  1  0
 12 13  1  0
 13 14  1  0
 14 15  1  0
 14 16  1  0
 16 17  1  0
 17 18  1  0
 18 19  2  0
 18 20  1  0
 20 21  1  0
 21 22  1  0
 22 23  2  0
 22 24  1  0
 24 25  2  0
 25 26  1  0
 26 27  2  0
 27 28  1  0
 28 29  2  0
 29 30  1  0
 29 31  1  0
 31 32  2  0
 32 33  1  0
 33 34  2  0
  6 35  1  0
 35 36  1  0
 35 37  2  0
 37  3  1  0
 17 12  1  0
 34 24  1  0
 33 27  1  0
  1 38  1  0
  1 39  1  0
  1 40  1  0
  4 41  1  0
  5 42  1  0
  7 43  1  6
  8 44  1  0
  8 45  1  0
  8 46  1  0
  9 47  1  0
 12 48  1  1
 13 49  1  0
 13 50  1  0
 14 51  1  6
 15 52  1  0
 16 53  1  0
 16 54  1  0
 20 55  1  0
 20 56  1  0
 21 57  1  0
 25 58  1  0
 26 59  1  0
 28 60  1  0
 31 61  1  0
 32 62  1  0
 37 63  1  0
M  END
>  <smiles>  (39) 
COc1ccc([C@H](C)NC(=O)[C@@H]2C[C@@H](O)CN2C(=O)CNC(=O)c2ccc3cc(F)ccc3n2)c(Cl)c1

>  <score_type>  (39) 
oracle

>  <origin>  (39) 
autodockgpu

>  <m_score__min__energy>  (39) 
-9.0500000000000007

>  <m_primary>  (39) 
energy

>  <rmsd>  (39) 
6.560174240726534

>  <m_score__min__rmsd>  (39) 
6.560174240726534

>  <meeko>  (39) 
{"free_energy": -6.22, "intermolecular_energy": -8.9, "internal_energy": -4.28, "cluster_size": 9, "cluster_id": 11, "rank_in_cluster": 7}

>  <energy>  (39) 
-6.36

>  <cluster_rmsd>  (39) 
1.43

>  <cluster>  (39) 
11

$$$$

     RDKit          3D

 63 66  0  0  0  0  0  0  0  0999 V2000
  142.6290   81.3600  217.6460 C   0  0  0  0  0  0  0  0  0  0  0  0
  142.2130   81.2710  218.9780 O   0  0  0  0  0  0  0  0  0  0  0  0
  141.8840   80.1100  219.6500 C   0  0  0  0  0  0  0  0  0  0  0  0
  141.5830   78.9750  218.9010 C   0  0  0  0  0  0  0  0  0  0  0  0
  141.2440   77.7740  219.5160 C   0  0  0  0  0  0  0  0  0  0  0  0
  141.1930   77.6640  220.9130 C   0  0  0  0  0  0  0  0  0  0  0  0
  140.8430   76.3690  221.4700 C   0  0  2  0  0  0  0  0  0  0  0  0
  141.8110   75.2550  221.1660 C   0  0  0  0  0  0  0  0  0  0  0  0
  139.5020   75.9070  221.1480 N   0  0  0  0  0  0  0  0  0  0  0  0
  138.3890   76.7960  221.0390 C   0  0  0  0  0  0  0  0  0  0  0  0
  138.5140   78.0540  221.2200 O   0  0  0  0  0  0  0  0  0  0  0  0
  137.0780   76.1790  220.7030 C   0  0  2  0  0  0  0  0  0  0  0  0
  135.9560   76.8360  221.5260 C   0  0  0  0  0  0  0  0  0  0  0  0
  136.3650   76.3740  222.9090 C   0  0  1  0  0  0  0  0  0  0  0  0
  135.3110   76.4350  223.8110 O   0  0  0  0  0  0  0  0  0  0  0  0
  136.8950   74.9640  222.7190 C   0  0  0  0  0  0  0  0  0  0  0  0
  136.9790   74.8390  221.2570 N   0  0  0  0  0  0  0  0  0  0  0  0
  136.9600   73.6050  220.5090 C   0  0  0  0  0  0  0  0  0  0  0  0
  135.8630   73.1770  220.0670 O   0  0  0  0  0  0  0  0  0  0  0  0
  138.2550   72.8990  220.3010 C   0  0  0  0  0  0  0  0  0  0  0  0
  138.5160   72.0300  221.4320 N   0  0  0  0  0  0  0  0  0  0  0  0
  139.4010   72.3640  222.4880 C   0  0  0  0  0  0  0  0  0  0  0  0
  140.0280   73.4720  222.4990 O   0  0  0  0  0  0  0  0  0  0  0  0
  139.6030   71.4160  223.5950 C   0  0  0  0  0  0  0  0  0  0  0  0
  139.2510   70.0900  223.5120 C   0  0  0  0  0  0  0  0  0  0  0  0
  139.4480   69.2010  224.5610 C   0  0  0  0  0  0  0  0  0  0  0  0
  140.0200   69.7040  225.7040 C   0  0  0  0  0  0  0  0  0  0  0  0
  140.2480   68.8780  226.7930 C   0  0  0  0  0  0  0  0  0  0  0  0
  140.8220   69.3460  227.9670 C   0  0  0  0  0  0  0  0  0  0  0  0
  141.0510   68.5570  229.0390 F   0  0  0  0  0  0  0  0  0  0  0  0
  141.1650   70.6880  228.0160 C   0  0  0  0  0  0  0  0  0  0  0  0
  140.9600   71.5500  226.9640 C   0  0  0  0  0  0  0  0  0  0  0  0
  140.3800   71.0360  225.8030 C   0  0  0  0  0  0  0  0  0  0  0  0
  140.1570   71.8350  224.7450 N   0  0  0  0  0  0  0  0  0  0  0  0
  141.4940   78.8010  221.6560 C   0  0  0  0  0  0  0  0  0  0  0  0
  141.4320   78.6850  223.3930 Cl  0  0  0  0  0  0  0  0  0  0  0  0
  141.8320   79.9970  221.0200 C   0  0  0  0  0  0  0  0  0  0  0  0
  143.7042   81.5900  217.6122 H   0  0  0  0  0  0  0  0  0  0  0  0
  142.4429   80.4017  217.1389 H   0  0  0  0  0  0  0  0  0  0  0  0
  142.0672   82.1583  217.1389 H   0  0  0  0  0  0  0  0  0  0  0  0
  141.6139   79.0292  217.8028 H   0  0  0  0  0  0  0  0  0  0  0  0
  141.0120   76.8957  218.8958 H   0  0  0  0  0  0  0  0  0  0  0  0
  140.8945   76.5897  222.5464 H   0  0  0  0  0  0  0  0  0  0  0  0
  142.1838   74.8260  222.1078 H   0  0  0  0  0  0  0  0  0  0  0  0
  141.3000   74.4738  220.5841 H   0  0  0  0  0  0  0  0  0  0  0  0
  142.6559   75.6520  220.5841 H   0  0  0  0  0  0  0  0  0  0  0  0
  139.3530   74.8640  220.9900 H   0  0  0  0  0  0  0  0  0  0  0  0
  136.9974   76.2559  219.6087 H   0  0  0  0  0  0  0  0  0  0  0  0
  135.9694   77.9324  221.4379 H   0  0  0  0  0  0  0  0  0  0  0  0
  134.9327   76.5682  221.2241 H   0  0  0  0  0  0  0  0  0  0  0  0
  137.1326   77.0284  223.3479 H   0  0  0  0  0  0  0  0  0  0  0  0
  134.4580   76.5360  223.3300 H   0  0  0  0  0  0  0  0  0  0  0  0
  137.8852   74.8475  223.1837 H   0  0  0  0  0  0  0  0  0  0  0  0
  136.2611   74.1952  223.1850 H   0  0  0  0  0  0  0  0  0  0  0  0
  138.2020   72.2983  219.3810 H   0  0  0  0  0  0  0  0  0  0  0  0
  139.0656   73.6369  220.2094 H   0  0  0  0  0  0  0  0  0  0  0  0
  138.0420   71.0860  221.5120 H   0  0  0  0  0  0  0  0  0  0  0  0
  138.7969   69.7193  222.5812 H   0  0  0  0  0  0  0  0  0  0  0  0
  139.1591   68.1427  224.4801 H   0  0  0  0  0  0  0  0  0  0  0  0
  139.9650   67.8172  226.7249 H   0  0  0  0  0  0  0  0  0  0  0  0
  141.6211   71.0809  228.9366 H   0  0  0  0  0  0  0  0  0  0  0  0
  141.2440   72.6103  227.0353 H   0  0  0  0  0  0  0  0  0  0  0  0
  142.0646   80.8787  221.6352 H   0  0  0  0  0  0  0  0  0  0  0  0
  1  2  1  0
  2  3  1  0
  3  4  2  0
  4  5  1  0
  5  6  2  0
  6  7  1  0
  7  8  1  0
  7  9  1  0
  9 10  1  0
 10 11  2  0
 10 12  1  0
 12 13  1  0
 13 14  1  0
 14 15  1  0
 14 16  1  0
 16 17  1  0
 17 18  1  0
 18 19  2  0
 18 20  1  0
 20 21  1  0
 21 22  1  0
 22 23  2  0
 22 24  1  0
 24 25  2  0
 25 26  1  0
 26 27  2  0
 27 28  1  0
 28 29  2  0
 29 30  1  0
 29 31  1  0
 31 32  2  0
 32 33  1  0
 33 34  2  0
  6 35  1  0
 35 36  1  0
 35 37  2  0
 37  3  1  0
 17 12  1  0
 34 24  1  0
 33 27  1  0
  1 38  1  0
  1 39  1  0
  1 40  1  0
  4 41  1  0
  5 42  1  0
  7 43  1  1
  8 44  1  0
  8 45  1  0
  8 46  1  0
  9 47  1  0
 12 48  1  6
 13 49  1  0
 13 50  1  0
 14 51  1  1
 15 52  1  0
 16 53  1  0
 16 54  1  0
 20 55  1  0
 20 56  1  0
 21 57  1  0
 25 58  1  0
 26 59  1  0
 28 60  1  0
 31 61  1  0
 32 62  1  0
 37 63  1  0
M  END
>  <smiles>  (40) 
COc1ccc([C@H](C)NC(=O)[C@@H]2C[C@@H](O)CN2C(=O)CNC(=O)c2ccc3cc(F)ccc3n2)c(Cl)c1

>  <score_type>  (40) 
oracle

>  <origin>  (40) 
autodockgpu

>  <m_score__min__energy>  (40) 
-9.0500000000000007

>  <m_primary>  (40) 
energy

>  <rmsd>  (40) 
3.7732362344587087

>  <m_score__min__rmsd>  (40) 
3.7732362344587087

>  <meeko>  (40) 
{"free_energy": -7.07, "intermolecular_energy": -9.75, "internal_energy": -2.87, "cluster_size": 1, "cluster_id": 10, "rank_in_cluster": 1}

>  <energy>  (40) 
-6.22

>  <cluster_rmsd>  (40) 
1.47

>  <cluster>  (40) 
11

$$$$

     RDKit          3D

 63 66  0  0  0  0  0  0  0  0999 V2000
  136.0530   78.7850  219.6700 C   0  0  0  0  0  0  0  0  0  0  0  0
  136.7960   79.9480  219.8910 O   0  0  0  0  0  0  0  0  0  0  0  0
  138.1410   80.1150  219.6290 C   0  0  0  0  0  0  0  0  0  0  0  0
  138.6580   79.5730  218.4550 C   0  0  0  0  0  0  0  0  0  0  0  0
  140.0050   79.7050  218.1310 C   0  0  0  0  0  0  0  0  0  0  0  0
  140.8890   80.3890  218.9760 C   0  0  0  0  0  0  0  0  0  0  0  0
  142.2750   80.4910  218.5520 C   0  0  2  0  0  0  0  0  0  0  0  0
  142.5750   81.6160  217.5960 C   0  0  0  0  0  0  0  0  0  0  0  0
  142.8400   79.2660  218.0060 N   0  0  0  0  0  0  0  0  0  0  0  0
  142.6840   77.9980  218.6450 C   0  0  0  0  0  0  0  0  0  0  0  0
  142.0360   77.8710  219.7380 O   0  0  0  0  0  0  0  0  0  0  0  0
  143.3160   76.8340  217.9690 C   0  0  2  0  0  0  0  0  0  0  0  0
  143.0080   76.8630  216.4620 C   0  0  0  0  0  0  0  0  0  0  0  0
  141.5120   76.6350  216.5130 C   0  0  1  0  0  0  0  0  0  0  0  0
  141.0130   76.1730  215.3030 O   0  0  0  0  0  0  0  0  0  0  0  0
  141.2960   75.6530  217.6510 C   0  0  0  0  0  0  0  0  0  0  0  0
  142.6160   75.6020  218.2960 N   0  0  0  0  0  0  0  0  0  0  0  0
  143.1250   74.5190  219.1020 C   0  0  0  0  0  0  0  0  0  0  0  0
  144.1160   73.8640  218.6890 O   0  0  0  0  0  0  0  0  0  0  0  0
  142.4390   74.2330  220.3940 C   0  0  0  0  0  0  0  0  0  0  0  0
  142.0020   75.4800  220.9920 N   0  0  0  0  0  0  0  0  0  0  0  0
  140.8210   75.6060  221.7670 C   0  0  0  0  0  0  0  0  0  0  0  0
  140.0640   74.6040  221.9840 O   0  0  0  0  0  0  0  0  0  0  0  0
  140.4570   76.9140  222.3320 C   0  0  0  0  0  0  0  0  0  0  0  0
  141.3900   77.8030  222.8100 C   0  0  0  0  0  0  0  0  0  0  0  0
  141.0380   79.0380  223.3400 C   0  0  0  0  0  0  0  0  0  0  0  0
  139.6990   79.3440  223.3690 C   0  0  0  0  0  0  0  0  0  0  0  0
  139.2710   80.5570  223.8840 C   0  0  0  0  0  0  0  0  0  0  0  0
  137.9280   80.9050  223.9330 C   0  0  0  0  0  0  0  0  0  0  0  0
  137.4910   82.0810  224.4310 F   0  0  0  0  0  0  0  0  0  0  0  0
  137.0140   79.9850  223.4420 C   0  0  0  0  0  0  0  0  0  0  0  0
  137.3870   78.7680  222.9210 C   0  0  0  0  0  0  0  0  0  0  0  0
  138.7480   78.4590  222.8930 C   0  0  0  0  0  0  0  0  0  0  0  0
  139.1670   77.2830  222.3940 N   0  0  0  0  0  0  0  0  0  0  0  0
  140.3680   80.9270  220.1480 C   0  0  0  0  0  0  0  0  0  0  0  0
  141.4540   81.7770  221.2130 Cl  0  0  0  0  0  0  0  0  0  0  0  0
  139.0150   80.7840  220.4550 C   0  0  0  0  0  0  0  0  0  0  0  0
  135.7698   78.3417  220.6361 H   0  0  0  0  0  0  0  0  0  0  0  0
  135.1453   79.0325  219.1000 H   0  0  0  0  0  0  0  0  0  0  0  0
  136.6591   78.0655  219.1000 H   0  0  0  0  0  0  0  0  0  0  0  0
  137.9891   79.0303  217.7709 H   0  0  0  0  0  0  0  0  0  0  0  0
  140.3820   79.2650  217.1959 H   0  0  0  0  0  0  0  0  0  0  0  0
  142.7650   80.7118  219.5118 H   0  0  0  0  0  0  0  0  0  0  0  0
  142.8176   82.5257  218.1648 H   0  0  0  0  0  0  0  0  0  0  0  0
  143.4310   81.3404  216.9626 H   0  0  0  0  0  0  0  0  0  0  0  0
  141.6954   81.8033  216.9626 H   0  0  0  0  0  0  0  0  0  0  0  0
  143.3890   79.3280  217.0950 H   0  0  0  0  0  0  0  0  0  0  0  0
  144.3768   76.8777  218.2567 H   0  0  0  0  0  0  0  0  0  0  0  0
  143.2608   77.8331  216.0093 H   0  0  0  0  0  0  0  0  0  0  0  0
  143.5728   76.1418  215.8530 H   0  0  0  0  0  0  0  0  0  0  0  0
  140.9626   77.5715  216.6893 H   0  0  0  0  0  0  0  0  0  0  0  0
  141.2450   75.2240  215.1810 H   0  0  0  0  0  0  0  0  0  0  0  0
  140.5284   76.0187  218.3489 H   0  0  0  0  0  0  0  0  0  0  0  0
  140.9392   74.6687  217.3135 H   0  0  0  0  0  0  0  0  0  0  0  0
  141.5671   73.5876  220.2119 H   0  0  0  0  0  0  0  0  0  0  0  0
  143.1353   73.7222  221.0753 H   0  0  0  0  0  0  0  0  0  0  0  0
  142.5640   76.3690  220.8670 H   0  0  0  0  0  0  0  0  0  0  0  0
  142.4540   77.5266  222.7715 H   0  0  0  0  0  0  0  0  0  0  0  0
  141.7966   79.7387  223.7190 H   0  0  0  0  0  0  0  0  0  0  0  0
  140.0193   81.2669  224.2662 H   0  0  0  0  0  0  0  0  0  0  0  0
  135.9442   80.2396  223.4704 H   0  0  0  0  0  0  0  0  0  0  0  0
  136.6366   78.0605  222.5385 H   0  0  0  0  0  0  0  0  0  0  0  0
  138.6334   81.2210  221.3896 H   0  0  0  0  0  0  0  0  0  0  0  0
  1  2  1  0
  2  3  1  0
  3  4  2  0
  4  5  1  0
  5  6  2  0
  6  7  1  0
  7  8  1  0
  7  9  1  0
  9 10  1  0
 10 11  2  0
 10 12  1  0
 12 13  1  0
 13 14  1  0
 14 15  1  0
 14 16  1  0
 16 17  1  0
 17 18  1  0
 18 19  2  0
 18 20  1  0
 20 21  1  0
 21 22  1  0
 22 23  2  0
 22 24  1  0
 24 25  2  0
 25 26  1  0
 26 27  2  0
 27 28  1  0
 28 29  2  0
 29 30  1  0
 29 31  1  0
 31 32  2  0
 32 33  1  0
 33 34  2  0
  6 35  1  0
 35 36  1  0
 35 37  2  0
 37  3  1  0
 17 12  1  0
 34 24  1  0
 33 27  1  0
  1 38  1  0
  1 39  1  0
  1 40  1  0
  4 41  1  0
  5 42  1  0
  7 43  1  1
  8 44  1  0
  8 45  1  0
  8 46  1  0
  9 47  1  0
 12 48  1  6
 13 49  1  0
 13 50  1  0
 14 51  1  1
 15 52  1  0
 16 53  1  0
 16 54  1  0
 20 55  1  0
 20 56  1  0
 21 57  1  0
 25 58  1  0
 26 59  1  0
 28 60  1  0
 31 61  1  0
 32 62  1  0
 37 63  1  0
M  END
>  <smiles>  (41) 
COc1ccc([C@H](C)NC(=O)[C@@H]2C[C@@H](O)CN2C(=O)CNC(=O)c2ccc3cc(F)ccc3n2)c(Cl)c1

>  <score_type>  (41) 
oracle

>  <origin>  (41) 
autodockgpu

>  <m_score__min__energy>  (41) 
-9.0500000000000007

>  <m_primary>  (41) 
energy

>  <rmsd>  (41) 
6.636186961419751

>  <m_score__min__rmsd>  (41) 
6.636186961419751

>  <meeko>  (41) 
{"free_energy": -6.01, "intermolecular_energy": -8.7, "internal_energy": -4.59, "cluster_size": 5, "cluster_id": 15, "rank_in_cluster": 1}

>  <energy>  (41) 
-6.03

>  <cluster_rmsd>  (41) 
1.51

>  <cluster>  (41) 
11

$$$$

     RDKit          3D

 63 66  0  0  0  0  0  0  0  0999 V2000
  136.0660   80.6500  220.8450 C   0  0  0  0  0  0  0  0  0  0  0  0
  136.8650   79.7560  220.1260 O   0  0  0  0  0  0  0  0  0  0  0  0
  138.2000   79.9270  219.8160 C   0  0  0  0  0  0  0  0  0  0  0  0
  138.7330   79.1920  218.7600 C   0  0  0  0  0  0  0  0  0  0  0  0
  140.0700   79.3180  218.3970 C   0  0  0  0  0  0  0  0  0  0  0  0
  140.9280   80.1890  219.0810 C   0  0  0  0  0  0  0  0  0  0  0  0
  142.3050   80.2670  218.6250 C   0  0  2  0  0  0  0  0  0  0  0  0
  142.6020   81.3870  217.6610 C   0  0  0  0  0  0  0  0  0  0  0  0
  142.8350   79.0340  218.0660 N   0  0  0  0  0  0  0  0  0  0  0  0
  142.7360   77.7790  218.7420 C   0  0  0  0  0  0  0  0  0  0  0  0
  142.1730   77.6740  219.8840 O   0  0  0  0  0  0  0  0  0  0  0  0
  143.3240   76.6030  218.0480 C   0  0  2  0  0  0  0  0  0  0  0  0
  142.7570   76.4900  216.6220 C   0  0  0  0  0  0  0  0  0  0  0  0
  141.3130   76.1790  216.9570 C   0  0  1  0  0  0  0  0  0  0  0  0
  140.6450   75.5910  215.8910 O   0  0  0  0  0  0  0  0  0  0  0  0
  141.3710   75.2820  218.1810 C   0  0  0  0  0  0  0  0  0  0  0  0
  142.7830   75.3640  218.5810 N   0  0  0  0  0  0  0  0  0  0  0  0
  143.5030   74.3820  219.3570 C   0  0  0  0  0  0  0  0  0  0  0  0
  144.5120   73.8270  218.8530 O   0  0  0  0  0  0  0  0  0  0  0  0
  143.0020   74.0780  220.7270 C   0  0  0  0  0  0  0  0  0  0  0  0
  142.1610   75.1680  221.1840 N   0  0  0  0  0  0  0  0  0  0  0  0
  140.8830   74.9780  221.7670 C   0  0  0  0  0  0  0  0  0  0  0  0
  140.3950   73.8120  221.9250 O   0  0  0  0  0  0  0  0  0  0  0  0
  140.1000   76.1450  222.2000 C   0  0  0  0  0  0  0  0  0  0  0  0
  138.7250   76.1500  222.2280 C   0  0  0  0  0  0  0  0  0  0  0  0
  137.9930   77.2560  222.6400 C   0  0  0  0  0  0  0  0  0  0  0  0
  138.7060   78.3660  223.0270 C   0  0  0  0  0  0  0  0  0  0  0  0
  138.0450   79.5080  223.4500 C   0  0  0  0  0  0  0  0  0  0  0  0
  138.7270   80.6490  223.8480 C   0  0  0  0  0  0  0  0  0  0  0  0
  138.1010   81.7720  224.2630 F   0  0  0  0  0  0  0  0  0  0  0  0
  140.1120   80.6100  223.8070 C   0  0  0  0  0  0  0  0  0  0  0  0
  140.8150   79.5020  223.3950 C   0  0  0  0  0  0  0  0  0  0  0  0
  140.0890   78.3760  223.0040 C   0  0  0  0  0  0  0  0  0  0  0  0
  140.7270   77.2670  222.5920 N   0  0  0  0  0  0  0  0  0  0  0  0
  140.3900   80.9210  220.1350 C   0  0  0  0  0  0  0  0  0  0  0  0
  141.4430   82.0070  221.0000 Cl  0  0  0  0  0  0  0  0  0  0  0  0
  139.0470   80.7810  220.4850 C   0  0  0  0  0  0  0  0  0  0  0  0
  136.2119   80.4868  221.9230 H   0  0  0  0  0  0  0  0  0  0  0  0
  136.3484   81.6818  220.5889 H   0  0  0  0  0  0  0  0  0  0  0  0
  135.0091   80.4848  220.5889 H   0  0  0  0  0  0  0  0  0  0  0  0
  138.0851   78.4993  218.2029 H   0  0  0  0  0  0  0  0  0  0  0  0
  140.4604   78.7232  217.5581 H   0  0  0  0  0  0  0  0  0  0  0  0
  142.8208   80.4789  219.5732 H   0  0  0  0  0  0  0  0  0  0  0  0
  142.8443   82.3006  218.2237 H   0  0  0  0  0  0  0  0  0  0  0  0
  143.4574   81.1087  217.0279 H   0  0  0  0  0  0  0  0  0  0  0  0
  141.7211   81.5691  217.0279 H   0  0  0  0  0  0  0  0  0  0  0  0
  143.3140   79.0770  217.1150 H   0  0  0  0  0  0  0  0  0  0  0  0
  144.4127   76.7324  218.1373 H   0  0  0  0  0  0  0  0  0  0  0  0
  142.8559   77.4329  216.0642 H   0  0  0  0  0  0  0  0  0  0  0  0
  143.2579   75.7561  215.9736 H   0  0  0  0  0  0  0  0  0  0  0  0
  140.7363   77.0926  217.1635 H   0  0  0  0  0  0  0  0  0  0  0  0
  141.2890   75.3160  215.1980 H   0  0  0  0  0  0  0  0  0  0  0  0
  140.7115   75.6565  218.9778 H   0  0  0  0  0  0  0  0  0  0  0  0
  141.0345   74.2537  217.9825 H   0  0  0  0  0  0  0  0  0  0  0  0
  142.4169   73.1467  220.7058 H   0  0  0  0  0  0  0  0  0  0  0  0
  143.8541   73.9584  221.4123 H   0  0  0  0  0  0  0  0  0  0  0  0
  142.4790   76.1740  221.0940 H   0  0  0  0  0  0  0  0  0  0  0  0
  138.1853   75.2449  221.9125 H   0  0  0  0  0  0  0  0  0  0  0  0
  136.8932   77.2444  222.6560 H   0  0  0  0  0  0  0  0  0  0  0  0
  136.9452   79.5101  223.4709 H   0  0  0  0  0  0  0  0  0  0  0  0
  140.6731   81.5038  224.1174 H   0  0  0  0  0  0  0  0  0  0  0  0
  141.9148   79.5033  223.3743 H   0  0  0  0  0  0  0  0  0  0  0  0
  138.6517   81.3729  221.3237 H   0  0  0  0  0  0  0  0  0  0  0  0
  1  2  1  0
  2  3  1  0
  3  4  2  0
  4  5  1  0
  5  6  2  0
  6  7  1  0
  7  8  1  0
  7  9  1  0
  9 10  1  0
 10 11  2  0
 10 12  1  0
 12 13  1  0
 13 14  1  0
 14 15  1  0
 14 16  1  0
 16 17  1  0
 17 18  1  0
 18 19  2  0
 18 20  1  0
 20 21  1  0
 21 22  1  0
 22 23  2  0
 22 24  1  0
 24 25  2  0
 25 26  1  0
 26 27  2  0
 27 28  1  0
 28 29  2  0
 29 30  1  0
 29 31  1  0
 31 32  2  0
 32 33  1  0
 33 34  2  0
  6 35  1  0
 35 36  1  0
 35 37  2  0
 37  3  1  0
 17 12  1  0
 34 24  1  0
 33 27  1  0
  1 38  1  0
  1 39  1  0
  1 40  1  0
  4 41  1  0
  5 42  1  0
  7 43  1  1
  8 44  1  0
  8 45  1  0
  8 46  1  0
  9 47  1  0
 12 48  1  6
 13 49  1  0
 13 50  1  0
 14 51  1  1
 15 52  1  0
 16 53  1  0
 16 54  1  0
 20 55  1  0
 20 56  1  0
 21 57  1  0
 25 58  1  0
 26 59  1  0
 28 60  1  0
 31 61  1  0
 32 62  1  0
 37 63  1  0
M  END
>  <smiles>  (42) 
COc1ccc([C@H](C)NC(=O)[C@@H]2C[C@@H](O)CN2C(=O)CNC(=O)c2ccc3cc(F)ccc3n2)c(Cl)c1

>  <score_type>  (42) 
oracle

>  <origin>  (42) 
autodockgpu

>  <m_score__min__energy>  (42) 
-9.0500000000000007

>  <m_primary>  (42) 
energy

>  <rmsd>  (42) 
6.161407458485499

>  <m_score__min__rmsd>  (42) 
6.161407458485499

>  <meeko>  (42) 
{"free_energy": -5.8, "intermolecular_energy": -8.49, "internal_energy": -4.86, "cluster_size": 5, "cluster_id": 15, "rank_in_cluster": 3}

>  <energy>  (42) 
-5.98

>  <cluster_rmsd>  (42) 
1.64

>  <cluster>  (42) 
11

$$$$

     RDKit          3D

 63 66  0  0  0  0  0  0  0  0999 V2000
  133.2060   72.7660  226.5570 C   0  0  0  0  0  0  0  0  0  0  0  0
  133.9350   73.9560  226.4730 O   0  0  0  0  0  0  0  0  0  0  0  0
  134.6220   74.4120  225.3650 C   0  0  0  0  0  0  0  0  0  0  0  0
  135.2900   73.4810  224.5720 C   0  0  0  0  0  0  0  0  0  0  0  0
  136.0000   73.8740  223.4420 C   0  0  0  0  0  0  0  0  0  0  0  0
  136.0690   75.2210  223.0620 C   0  0  0  0  0  0  0  0  0  0  0  0
  136.8220   75.5390  221.8610 C   0  0  2  0  0  0  0  0  0  0  0  0
  136.4380   74.7530  220.6330 C   0  0  0  0  0  0  0  0  0  0  0  0
  138.2670   75.4740  222.0090 N   0  0  0  0  0  0  0  0  0  0  0  0
  139.0490   76.6000  222.4140 C   0  0  0  0  0  0  0  0  0  0  0  0
  138.5140   77.7310  222.6690 O   0  0  0  0  0  0  0  0  0  0  0  0
  140.5160   76.3830  222.5230 C   0  0  2  0  0  0  0  0  0  0  0  0
  141.2230   77.7030  222.8760 C   0  0  0  0  0  0  0  0  0  0  0  0
  140.9440   78.4780  221.6050 C   0  0  1  0  0  0  0  0  0  0  0  0
  141.8220   79.5400  221.4380 O   0  0  0  0  0  0  0  0  0  0  0  0
  141.0390   77.4560  220.4860 C   0  0  0  0  0  0  0  0  0  0  0  0
  141.1080   76.1790  221.2120 N   0  0  0  0  0  0  0  0  0  0  0  0
  141.6710   74.9480  220.7110 C   0  0  0  0  0  0  0  0  0  0  0  0
  142.9120   74.8800  220.5190 O   0  0  0  0  0  0  0  0  0  0  0  0
  140.7400   73.8160  220.4460 C   0  0  0  0  0  0  0  0  0  0  0  0
  140.6300   72.9960  221.6370 N   0  0  0  0  0  0  0  0  0  0  0  0
  139.4320   72.3480  222.0340 C   0  0  0  0  0  0  0  0  0  0  0  0
  138.3640   72.4560  221.3470 O   0  0  0  0  0  0  0  0  0  0  0  0
  139.4160   71.5370  223.2600 C   0  0  0  0  0  0  0  0  0  0  0  0
  138.6140   70.4300  223.4090 C   0  0  0  0  0  0  0  0  0  0  0  0
  138.6070   69.6670  224.5700 C   0  0  0  0  0  0  0  0  0  0  0  0
  139.4450   70.0660  225.5820 C   0  0  0  0  0  0  0  0  0  0  0  0
  139.4930   69.3560  226.7710 C   0  0  0  0  0  0  0  0  0  0  0  0
  140.3250   69.7250  227.8190 C   0  0  0  0  0  0  0  0  0  0  0  0
  140.3850   69.0470  228.9840 F   0  0  0  0  0  0  0  0  0  0  0  0
  141.1200   70.8460  227.6350 C   0  0  0  0  0  0  0  0  0  0  0  0
  141.1100   71.5860  226.4750 C   0  0  0  0  0  0  0  0  0  0  0  0
  140.2570   71.1780  225.4480 C   0  0  0  0  0  0  0  0  0  0  0  0
  140.2090   71.8660  224.2930 N   0  0  0  0  0  0  0  0  0  0  0  0
  135.4010   76.1460  223.8570 C   0  0  0  0  0  0  0  0  0  0  0  0
  135.4790   77.8260  223.4020 Cl  0  0  0  0  0  0  0  0  0  0  0  0
  134.6940   75.7330  224.9870 C   0  0  0  0  0  0  0  0  0  0  0  0
  133.0474   72.5070  227.6143 H   0  0  0  0  0  0  0  0  0  0  0  0
  132.2327   72.8965  226.0614 H   0  0  0  0  0  0  0  0  0  0  0  0
  133.7644   71.9582  226.0614 H   0  0  0  0  0  0  0  0  0  0  0  0
  135.2553   72.4159  224.8445 H   0  0  0  0  0  0  0  0  0  0  0  0
  136.5160   73.1144  222.8365 H   0  0  0  0  0  0  0  0  0  0  0  0
  136.5270   76.5877  221.7087 H   0  0  0  0  0  0  0  0  0  0  0  0
  135.9738   73.8029  220.9361 H   0  0  0  0  0  0  0  0  0  0  0  0
  135.7230   75.3356  220.0335 H   0  0  0  0  0  0  0  0  0  0  0  0
  137.3370   74.5471  220.0335 H   0  0  0  0  0  0  0  0  0  0  0  0
  138.7530   74.5480  221.8050 H   0  0  0  0  0  0  0  0  0  0  0  0
  140.6306   75.5552  223.2383 H   0  0  0  0  0  0  0  0  0  0  0  0
  140.7766   78.1854  223.7581 H   0  0  0  0  0  0  0  0  0  0  0  0
  142.2853   77.6097  223.1460 H   0  0  0  0  0  0  0  0  0  0  0  0
  139.9514   78.9517  221.6254 H   0  0  0  0  0  0  0  0  0  0  0  0
  142.7260   79.2040  221.2390 H   0  0  0  0  0  0  0  0  0  0  0  0
  140.1511   77.4952  219.8378 H   0  0  0  0  0  0  0  0  0  0  0  0
  141.8966   77.6224  219.8175 H   0  0  0  0  0  0  0  0  0  0  0  0
  139.7486   74.2106  220.1789 H   0  0  0  0  0  0  0  0  0  0  0  0
  141.1269   73.2080  219.6149 H   0  0  0  0  0  0  0  0  0  0  0  0
  141.4630   72.8470  222.2730 H   0  0  0  0  0  0  0  0  0  0  0  0
  137.9540   70.1380  222.5788 H   0  0  0  0  0  0  0  0  0  0  0  0
  137.9597   68.7837  224.6738 H   0  0  0  0  0  0  0  0  0  0  0  0
  138.8506   68.4708  226.8882 H   0  0  0  0  0  0  0  0  0  0  0  0
  141.7877   71.1573  228.4519 H   0  0  0  0  0  0  0  0  0  0  0  0
  141.7535   72.4707  226.3606 H   0  0  0  0  0  0  0  0  0  0  0  0
  134.1768   76.4890  225.5961 H   0  0  0  0  0  0  0  0  0  0  0  0
  1  2  1  0
  2  3  1  0
  3  4  2  0
  4  5  1  0
  5  6  2  0
  6  7  1  0
  7  8  1  0
  7  9  1  0
  9 10  1  0
 10 11  2  0
 10 12  1  0
 12 13  1  0
 13 14  1  0
 14 15  1  0
 14 16  1  0
 16 17  1  0
 17 18  1  0
 18 19  2  0
 18 20  1  0
 20 21  1  0
 21 22  1  0
 22 23  2  0
 22 24  1  0
 24 25  2  0
 25 26  1  0
 26 27  2  0
 27 28  1  0
 28 29  2  0
 29 30  1  0
 29 31  1  0
 31 32  2  0
 32 33  1  0
 33 34  2  0
  6 35  1  0
 35 36  1  0
 35 37  2  0
 37  3  1  0
 17 12  1  0
 34 24  1  0
 33 27  1  0
  1 38  1  0
  1 39  1  0
  1 40  1  0
  4 41  1  0
  5 42  1  0
  7 43  1  6
  8 44  1  0
  8 45  1  0
  8 46  1  0
  9 47  1  0
 12 48  1  1
 13 49  1  0
 13 50  1  0
 14 51  1  1
 15 52  1  0
 16 53  1  0
 16 54  1  0
 20 55  1  0
 20 56  1  0
 21 57  1  0
 25 58  1  0
 26 59  1  0
 28 60  1  0
 31 61  1  0
 32 62  1  0
 37 63  1  0
M  END
>  <smiles>  (43) 
COc1ccc([C@H](C)NC(=O)[C@@H]2C[C@@H](O)CN2C(=O)CNC(=O)c2ccc3cc(F)ccc3n2)c(Cl)c1

>  <score_type>  (43) 
oracle

>  <origin>  (43) 
autodockgpu

>  <m_score__min__energy>  (43) 
-9.0500000000000007

>  <m_primary>  (43) 
energy

>  <rmsd>  (43) 
6.619903640058888

>  <m_score__min__rmsd>  (43) 
6.619903640058888

>  <meeko>  (43) 
{"free_energy": -7.68, "intermolecular_energy": -10.36, "internal_energy": -3.42, "cluster_size": 9, "cluster_id": 1, "rank_in_cluster": 8}

>  <energy>  (43) 
-6.77

>  <cluster_rmsd>  (43) 
0.0

>  <cluster>  (43) 
12

$$$$

     RDKit          3D

 63 66  0  0  0  0  0  0  0  0999 V2000
  132.2250   74.6040  227.0890 C   0  0  0  0  0  0  0  0  0  0  0  0
  133.5210   74.1390  226.8500 O   0  0  0  0  0  0  0  0  0  0  0  0
  134.2670   74.3620  225.7090 C   0  0  0  0  0  0  0  0  0  0  0  0
  134.7790   73.2600  225.0290 C   0  0  0  0  0  0  0  0  0  0  0  0
  135.5380   73.4140  223.8730 C   0  0  0  0  0  0  0  0  0  0  0  0
  135.8140   74.6850  223.3520 C   0  0  0  0  0  0  0  0  0  0  0  0
  136.6020   74.7520  222.1340 C   0  0  2  0  0  0  0  0  0  0  0  0
  136.2190   73.7640  221.0630 C   0  0  0  0  0  0  0  0  0  0  0  0
  138.0420   74.6740  222.3310 N   0  0  0  0  0  0  0  0  0  0  0  0
  138.9670   75.4260  221.5440 C   0  0  0  0  0  0  0  0  0  0  0  0
  138.5760   76.2130  220.6180 O   0  0  0  0  0  0  0  0  0  0  0  0
  140.4080   75.2440  221.8610 C   0  0  2  0  0  0  0  0  0  0  0  0
  141.0720   76.6070  222.1200 C   0  0  0  0  0  0  0  0  0  0  0  0
  140.9560   77.2030  220.7320 C   0  0  1  0  0  0  0  0  0  0  0  0
  141.8530   78.2440  220.5350 O   0  0  0  0  0  0  0  0  0  0  0  0
  141.1840   76.0430  219.7790 C   0  0  0  0  0  0  0  0  0  0  0  0
  141.1570   74.8750  220.6720 N   0  0  0  0  0  0  0  0  0  0  0  0
  141.7730   73.5950  220.4120 C   0  0  0  0  0  0  0  0  0  0  0  0
  142.9760   73.5600  220.0480 O   0  0  0  0  0  0  0  0  0  0  0  0
  140.9370   72.3740  220.5910 C   0  0  0  0  0  0  0  0  0  0  0  0
  141.0910   71.8810  221.9460 N   0  0  0  0  0  0  0  0  0  0  0  0
  140.0080   71.7130  222.8450 C   0  0  0  0  0  0  0  0  0  0  0  0
  138.8130   71.9930  222.5010 O   0  0  0  0  0  0  0  0  0  0  0  0
  140.2610   71.2080  224.2030 C   0  0  0  0  0  0  0  0  0  0  0  0
  140.8140   71.9830  225.1940 C   0  0  0  0  0  0  0  0  0  0  0  0
  141.0470   71.4990  226.4750 C   0  0  0  0  0  0  0  0  0  0  0  0
  140.6980   70.1930  226.7200 C   0  0  0  0  0  0  0  0  0  0  0  0
  140.9020   69.6390  227.9740 C   0  0  0  0  0  0  0  0  0  0  0  0
  140.5640   68.3240  228.2620 C   0  0  0  0  0  0  0  0  0  0  0  0
  140.7550   67.7650  229.4770 F   0  0  0  0  0  0  0  0  0  0  0  0
  140.0080   67.5700  227.2400 C   0  0  0  0  0  0  0  0  0  0  0  0
  139.7860   68.0720  225.9790 C   0  0  0  0  0  0  0  0  0  0  0  0
  140.1410   69.4000  225.7330 C   0  0  0  0  0  0  0  0  0  0  0  0
  139.9460   69.9400  224.5170 N   0  0  0  0  0  0  0  0  0  0  0  0
  135.3000   75.7820  224.0350 C   0  0  0  0  0  0  0  0  0  0  0  0
  135.6360   77.3720  223.4050 Cl  0  0  0  0  0  0  0  0  0  0  0  0
  134.5410   75.6080  225.1930 C   0  0  0  0  0  0  0  0  0  0  0  0
  132.0519   74.6661  228.1735 H   0  0  0  0  0  0  0  0  0  0  0  0
  132.1048   75.6013  226.6408 H   0  0  0  0  0  0  0  0  0  0  0  0
  131.4982   73.9106  226.6408 H   0  0  0  0  0  0  0  0  0  0  0  0
  134.5797   72.2486  225.4129 H   0  0  0  0  0  0  0  0  0  0  0  0
  135.9279   72.5228  223.3595 H   0  0  0  0  0  0  0  0  0  0  0  0
  136.3447   75.7619  221.7822 H   0  0  0  0  0  0  0  0  0  0  0  0
  135.8593   72.8362  221.5318 H   0  0  0  0  0  0  0  0  0  0  0  0
  135.4216   74.1919  220.4376 H   0  0  0  0  0  0  0  0  0  0  0  0
  137.0964   73.5426  220.4376 H   0  0  0  0  0  0  0  0  0  0  0  0
  138.4110   74.0280  223.0940 H   0  0  0  0  0  0  0  0  0  0  0  0
  140.4292   74.5202  222.6890 H   0  0  0  0  0  0  0  0  0  0  0  0
  140.5221   77.1968  222.8681 H   0  0  0  0  0  0  0  0  0  0  0  0
  142.0921   76.5630  222.5292 H   0  0  0  0  0  0  0  0  0  0  0  0
  139.9706   77.6630  220.5664 H   0  0  0  0  0  0  0  0  0  0  0  0
  142.7730   77.9350  220.7000 H   0  0  0  0  0  0  0  0  0  0  0  0
  140.3832   75.9851  219.0271 H   0  0  0  0  0  0  0  0  0  0  0  0
  142.1181   76.1295  219.2046 H   0  0  0  0  0  0  0  0  0  0  0  0
  139.8810   72.6219  220.4082 H   0  0  0  0  0  0  0  0  0  0  0  0
  141.2589   71.5999  219.8789 H   0  0  0  0  0  0  0  0  0  0  0  0
  142.0450   71.6230  222.3250 H   0  0  0  0  0  0  0  0  0  0  0  0
  141.0820   73.0249  224.9644 H   0  0  0  0  0  0  0  0  0  0  0  0
  141.4906   72.1323  227.2574 H   0  0  0  0  0  0  0  0  0  0  0  0
  141.3455   70.2608  228.7656 H   0  0  0  0  0  0  0  0  0  0  0  0
  139.7326   66.5253  227.4466 H   0  0  0  0  0  0  0  0  0  0  0  0
  139.3429   67.4474  225.1894 H   0  0  0  0  0  0  0  0  0  0  0  0
  134.1488   76.4960  225.7104 H   0  0  0  0  0  0  0  0  0  0  0  0
  1  2  1  0
  2  3  1  0
  3  4  2  0
  4  5  1  0
  5  6  2  0
  6  7  1  0
  7  8  1  0
  7  9  1  0
  9 10  1  0
 10 11  2  0
 10 12  1  0
 12 13  1  0
 13 14  1  0
 14 15  1  0
 14 16  1  0
 16 17  1  0
 17 18  1  0
 18 19  2  0
 18 20  1  0
 20 21  1  0
 21 22  1  0
 22 23  2  0
 22 24  1  0
 24 25  2  0
 25 26  1  0
 26 27  2  0
 27 28  1  0
 28 29  2  0
 29 30  1  0
 29 31  1  0
 31 32  2  0
 32 33  1  0
 33 34  2  0
  6 35  1  0
 35 36  1  0
 35 37  2  0
 37  3  1  0
 17 12  1  0
 34 24  1  0
 33 27  1  0
  1 38  1  0
  1 39  1  0
  1 40  1  0
  4 41  1  0
  5 42  1  0
  7 43  1  6
  8 44  1  0
  8 45  1  0
  8 46  1  0
  9 47  1  0
 12 48  1  1
 13 49  1  0
 13 50  1  0
 14 51  1  6
 15 52  1  0
 16 53  1  0
 16 54  1  0
 20 55  1  0
 20 56  1  0
 21 57  1  0
 25 58  1  0
 26 59  1  0
 28 60  1  0
 31 61  1  0
 32 62  1  0
 37 63  1  0
M  END
>  <smiles>  (44) 
COc1ccc([C@H](C)NC(=O)[C@@H]2C[C@@H](O)CN2C(=O)CNC(=O)c2ccc3cc(F)ccc3n2)c(Cl)c1

>  <score_type>  (44) 
oracle

>  <origin>  (44) 
autodockgpu

>  <m_score__min__energy>  (44) 
-9.0500000000000007

>  <m_primary>  (44) 
energy

>  <rmsd>  (44) 
6.883229315605629

>  <m_score__min__rmsd>  (44) 
6.883229315605629

>  <meeko>  (44) 
{"free_energy": -8.1, "intermolecular_energy": -10.78, "internal_energy": -2.53, "cluster_size": 9, "cluster_id": 1, "rank_in_cluster": 7}

>  <energy>  (44) 
-6.77

>  <cluster_rmsd>  (44) 
0.0

>  <cluster>  (44) 
13

$$$$

     RDKit          3D

 63 66  0  0  0  0  0  0  0  0999 V2000
  141.8510   77.7430  219.7680 C   0  0  0  0  0  0  0  0  0  0  0  0
  141.2660   77.0860  220.8550 O   0  0  0  0  0  0  0  0  0  0  0  0
  141.2450   75.7210  221.0630 C   0  0  0  0  0  0  0  0  0  0  0  0
  140.1210   75.1630  221.6680 C   0  0  0  0  0  0  0  0  0  0  0  0
  140.0360   73.7950  221.9070 C   0  0  0  0  0  0  0  0  0  0  0  0
  141.0770   72.9290  221.5450 C   0  0  0  0  0  0  0  0  0  0  0  0
  140.8970   71.5140  221.8190 C   0  0  2  0  0  0  0  0  0  0  0  0
  140.6900   70.6450  220.6060 C   0  0  0  0  0  0  0  0  0  0  0  0
  139.8520   71.2060  222.7830 N   0  0  0  0  0  0  0  0  0  0  0  0
  140.1340   70.9080  224.1520 C   0  0  0  0  0  0  0  0  0  0  0  0
  141.3280   70.8970  224.6050 O   0  0  0  0  0  0  0  0  0  0  0  0
  138.9640   70.6130  225.0210 C   0  0  2  0  0  0  0  0  0  0  0  0
  139.3230   69.5210  226.0430 C   0  0  0  0  0  0  0  0  0  0  0  0
  139.5260   68.3560  225.0960 C   0  0  1  0  0  0  0  0  0  0  0  0
  139.4280   67.1330  225.7460 O   0  0  0  0  0  0  0  0  0  0  0  0
  138.4750   68.5330  224.0150 C   0  0  0  0  0  0  0  0  0  0  0  0
  137.9470   69.8780  224.2870 N   0  0  0  0  0  0  0  0  0  0  0  0
  136.6470   70.3730  223.9000 C   0  0  0  0  0  0  0  0  0  0  0  0
  136.5600   71.1500  222.9150 O   0  0  0  0  0  0  0  0  0  0  0  0
  135.4700   69.9310  224.6990 C   0  0  0  0  0  0  0  0  0  0  0  0
  134.7730   71.0950  225.2110 N   0  0  0  0  0  0  0  0  0  0  0  0
  133.8210   71.0390  226.2610 C   0  0  0  0  0  0  0  0  0  0  0  0
  133.5210   69.9350  226.8220 O   0  0  0  0  0  0  0  0  0  0  0  0
  133.1620   72.2740  226.7130 C   0  0  0  0  0  0  0  0  0  0  0  0
  131.9660   72.2740  227.3900 C   0  0  0  0  0  0  0  0  0  0  0  0
  131.3520   73.4450  227.8160 C   0  0  0  0  0  0  0  0  0  0  0  0
  131.9960   74.6240  227.5310 C   0  0  0  0  0  0  0  0  0  0  0  0
  131.4440   75.8330  227.9240 C   0  0  0  0  0  0  0  0  0  0  0  0
  132.0610   77.0470  227.6550 C   0  0  0  0  0  0  0  0  0  0  0  0
  131.5400   78.2360  228.0280 F   0  0  0  0  0  0  0  0  0  0  0  0
  133.2660   77.0110  226.9700 C   0  0  0  0  0  0  0  0  0  0  0  0
  133.8550   75.8380  226.5580 C   0  0  0  0  0  0  0  0  0  0  0  0
  133.1990   74.6410  226.8500 C   0  0  0  0  0  0  0  0  0  0  0  0
  133.7310   73.4660  226.4700 N   0  0  0  0  0  0  0  0  0  0  0  0
  142.1970   73.4920  220.9420 C   0  0  0  0  0  0  0  0  0  0  0  0
  143.5040   72.4330  220.4890 Cl  0  0  0  0  0  0  0  0  0  0  0  0
  142.2650   74.8670  220.7110 C   0  0  0  0  0  0  0  0  0  0  0  0
  142.5405   78.5173  220.1354 H   0  0  0  0  0  0  0  0  0  0  0  0
  142.4071   77.0170  219.1568 H   0  0  0  0  0  0  0  0  0  0  0  0
  141.0656   78.2115  219.1568 H   0  0  0  0  0  0  0  0  0  0  0  0
  139.2858   75.8156  221.9620 H   0  0  0  0  0  0  0  0  0  0  0  0
  139.1357   73.3857  222.3887 H   0  0  0  0  0  0  0  0  0  0  0  0
  141.8734   71.2663  222.2609 H   0  0  0  0  0  0  0  0  0  0  0  0
  140.4461   69.6211  220.9258 H   0  0  0  0  0  0  0  0  0  0  0  0
  139.8627   71.0478  220.0033 H   0  0  0  0  0  0  0  0  0  0  0  0
  141.6101   70.6315  220.0033 H   0  0  0  0  0  0  0  0  0  0  0  0
  138.8410   71.2030  222.4470 H   0  0  0  0  0  0  0  0  0  0  0  0
  138.6568   71.5876  225.4281 H   0  0  0  0  0  0  0  0  0  0  0  0
  140.2407   69.7638  226.5988 H   0  0  0  0  0  0  0  0  0  0  0  0
  138.5792   69.3574  226.8368 H   0  0  0  0  0  0  0  0  0  0  0  0
  140.5384   68.3507  224.6658 H   0  0  0  0  0  0  0  0  0  0  0  0
  139.8100   67.1980  226.6510 H   0  0  0  0  0  0  0  0  0  0  0  0
  138.9253   68.4799  223.0128 H   0  0  0  0  0  0  0  0  0  0  0  0
  137.7011   67.7515  224.0296 H   0  0  0  0  0  0  0  0  0  0  0  0
  134.7906   69.3475  224.0603 H   0  0  0  0  0  0  0  0  0  0  0  0
  135.8086   69.3059  225.5384 H   0  0  0  0  0  0  0  0  0  0  0  0
  134.9530   72.0580  224.8080 H   0  0  0  0  0  0  0  0  0  0  0  0
  131.4771   71.3117  227.6023 H   0  0  0  0  0  0  0  0  0  0  0  0
  130.3942   73.4287  228.3566 H   0  0  0  0  0  0  0  0  0  0  0  0
  130.4869   75.8305  228.4661 H   0  0  0  0  0  0  0  0  0  0  0  0
  133.7729   77.9613  226.7464 H   0  0  0  0  0  0  0  0  0  0  0  0
  134.8121   75.8432  226.0159 H   0  0  0  0  0  0  0  0  0  0  0  0
  143.1640   75.2817  220.2316 H   0  0  0  0  0  0  0  0  0  0  0  0
  1  2  1  0
  2  3  1  0
  3  4  2  0
  4  5  1  0
  5  6  2  0
  6  7  1  0
  7  8  1  0
  7  9  1  0
  9 10  1  0
 10 11  2  0
 10 12  1  0
 12 13  1  0
 13 14  1  0
 14 15  1  0
 14 16  1  0
 16 17  1  0
 17 18  1  0
 18 19  2  0
 18 20  1  0
 20 21  1  0
 21 22  1  0
 22 23  2  0
 22 24  1  0
 24 25  2  0
 25 26  1  0
 26 27  2  0
 27 28  1  0
 28 29  2  0
 29 30  1  0
 29 31  1  0
 31 32  2  0
 32 33  1  0
 33 34  2  0
  6 35  1  0
 35 36  1  0
 35 37  2  0
 37  3  1  0
 17 12  1  0
 34 24  1  0
 33 27  1  0
  1 38  1  0
  1 39  1  0
  1 40  1  0
  4 41  1  0
  5 42  1  0
  7 43  1  1
  8 44  1  0
  8 45  1  0
  8 46  1  0
  9 47  1  0
 12 48  1  1
 13 49  1  0
 13 50  1  0
 14 51  1  6
 15 52  1  0
 16 53  1  0
 16 54  1  0
 20 55  1  0
 20 56  1  0
 21 57  1  0
 25 58  1  0
 26 59  1  0
 28 60  1  0
 31 61  1  0
 32 62  1  0
 37 63  1  0
M  END
>  <smiles>  (45) 
COc1ccc([C@H](C)NC(=O)[C@@H]2C[C@@H](O)CN2C(=O)CNC(=O)c2ccc3cc(F)ccc3n2)c(Cl)c1

>  <score_type>  (45) 
oracle

>  <origin>  (45) 
autodockgpu

>  <m_score__min__energy>  (45) 
-9.0500000000000007

>  <m_primary>  (45) 
energy

>  <rmsd>  (45) 
8.767533289199758

>  <m_score__min__rmsd>  (45) 
8.767533289199758

>  <meeko>  (45) 
{"free_energy": -7.68, "intermolecular_energy": -10.36, "internal_energy": -2.68, "cluster_size": 2, "cluster_id": 8, "rank_in_cluster": 2}

>  <energy>  (45) 
-6.55

>  <cluster_rmsd>  (45) 
0.0

>  <cluster>  (45) 
14

$$$$

     RDKit          3D

 63 66  0  0  0  0  0  0  0  0999 V2000
  141.2020   82.3230  219.6390 C   0  0  0  0  0  0  0  0  0  0  0  0
  140.4320   81.1600  219.5500 O   0  0  0  0  0  0  0  0  0  0  0  0
  140.8590   79.9370  219.0710 C   0  0  0  0  0  0  0  0  0  0  0  0
  142.2100   79.7810  218.7710 C   0  0  0  0  0  0  0  0  0  0  0  0
  142.7060   78.5750  218.2860 C   0  0  0  0  0  0  0  0  0  0  0  0
  141.8630   77.4740  218.0830 C   0  0  0  0  0  0  0  0  0  0  0  0
  142.4680   76.2500  217.5870 C   0  0  2  0  0  0  0  0  0  0  0  0
  141.8490   75.6870  216.3340 C   0  0  0  0  0  0  0  0  0  0  0  0
  142.5710   75.1780  218.5650 N   0  0  0  0  0  0  0  0  0  0  0  0
  143.3980   75.2740  219.7260 C   0  0  0  0  0  0  0  0  0  0  0  0
  144.0970   76.3160  219.9680 O   0  0  0  0  0  0  0  0  0  0  0  0
  143.4020   74.0990  220.6360 C   0  0  2  0  0  0  0  0  0  0  0  0
  144.8460   73.6490  220.9170 C   0  0  0  0  0  0  0  0  0  0  0  0
  145.2300   73.1820  219.5280 C   0  0  1  0  0  0  0  0  0  0  0  0
  146.3170   72.3180  219.5510 O   0  0  0  0  0  0  0  0  0  0  0  0
  143.9780   72.5370  218.9620 C   0  0  0  0  0  0  0  0  0  0  0  0
  142.9470   72.9050  219.9440 N   0  0  0  0  0  0  0  0  0  0  0  0
  141.7090   72.2010  220.1780 C   0  0  0  0  0  0  0  0  0  0  0  0
  141.7420   71.0940  220.7730 O   0  0  0  0  0  0  0  0  0  0  0  0
  140.4490   72.8320  219.6960 C   0  0  0  0  0  0  0  0  0  0  0  0
  140.3780   74.1960  220.1820 N   0  0  0  0  0  0  0  0  0  0  0  0
  139.9660   74.5390  221.4950 C   0  0  0  0  0  0  0  0  0  0  0  0
  139.6280   73.6440  222.3360 O   0  0  0  0  0  0  0  0  0  0  0  0
  139.9240   75.9530  221.8980 C   0  0  0  0  0  0  0  0  0  0  0  0
  138.7890   76.5530  222.3880 C   0  0  0  0  0  0  0  0  0  0  0  0
  138.7580   77.8880  222.7690 C   0  0  0  0  0  0  0  0  0  0  0  0
  139.9260   78.6000  222.6380 C   0  0  0  0  0  0  0  0  0  0  0  0
  139.9730   79.9380  222.9970 C   0  0  0  0  0  0  0  0  0  0  0  0
  141.1310   80.6930  222.8790 C   0  0  0  0  0  0  0  0  0  0  0  0
  141.1970   81.9970  223.2230 F   0  0  0  0  0  0  0  0  0  0  0  0
  142.2580   80.0560  222.3810 C   0  0  0  0  0  0  0  0  0  0  0  0
  142.2640   78.7320  222.0100 C   0  0  0  0  0  0  0  0  0  0  0  0
  141.0760   78.0110  222.1460 C   0  0  0  0  0  0  0  0  0  0  0  0
  141.0270   76.7130  221.7970 N   0  0  0  0  0  0  0  0  0  0  0  0
  140.5150   77.6360  218.3840 C   0  0  0  0  0  0  0  0  0  0  0  0
  139.4500   76.2800  218.1330 Cl  0  0  0  0  0  0  0  0  0  0  0  0
  140.0360   78.8540  218.8690 C   0  0  0  0  0  0  0  0  0  0  0  0
  141.3675   82.5730  220.6973 H   0  0  0  0  0  0  0  0  0  0  0  0
  142.1711   82.1598  219.1449 H   0  0  0  0  0  0  0  0  0  0  0  0
  140.6733   83.1515  219.1449 H   0  0  0  0  0  0  0  0  0  0  0  0
  142.8974   80.6267  218.9202 H   0  0  0  0  0  0  0  0  0  0  0  0
  143.7783   78.4841  218.0580 H   0  0  0  0  0  0  0  0  0  0  0  0
  143.4792   76.6082  217.3436 H   0  0  0  0  0  0  0  0  0  0  0  0
  141.0603   74.9697  216.6050 H   0  0  0  0  0  0  0  0  0  0  0  0
  141.4131   76.5046  215.7411 H   0  0  0  0  0  0  0  0  0  0  0  0
  142.6217   75.1757  215.7411 H   0  0  0  0  0  0  0  0  0  0  0  0
  142.0040   74.2910  218.4000 H   0  0  0  0  0  0  0  0  0  0  0  0
  142.8041   74.4096  221.5055 H   0  0  0  0  0  0  0  0  0  0  0  0
  145.4771   74.4820  221.2601 H   0  0  0  0  0  0  0  0  0  0  0  0
  144.9587   72.8989  221.7137 H   0  0  0  0  0  0  0  0  0  0  0  0
  145.5641   74.0169  218.8945 H   0  0  0  0  0  0  0  0  0  0  0  0
  146.3050   71.7800  220.3760 H   0  0  0  0  0  0  0  0  0  0  0  0
  143.7395   72.9414  217.9672 H   0  0  0  0  0  0  0  0  0  0  0  0
  144.0750   71.4505  218.8200 H   0  0  0  0  0  0  0  0  0  0  0  0
  140.4363   72.8330  218.5961 H   0  0  0  0  0  0  0  0  0  0  0  0
  139.5857   72.2626  220.0708 H   0  0  0  0  0  0  0  0  0  0  0  0
  140.6380   75.0100  219.5560 H   0  0  0  0  0  0  0  0  0  0  0  0
  137.8713   75.9538  222.4819 H   0  0  0  0  0  0  0  0  0  0  0  0
  137.8406   78.3541  223.1578 H   0  0  0  0  0  0  0  0  0  0  0  0
  139.0630   80.4166  223.3880 H   0  0  0  0  0  0  0  0  0  0  0  0
  143.1875   80.6353  222.2784 H   0  0  0  0  0  0  0  0  0  0  0  0
  143.1753   78.2562  221.6187 H   0  0  0  0  0  0  0  0  0  0  0  0
  138.9643   78.9508  219.0973 H   0  0  0  0  0  0  0  0  0  0  0  0
  1  2  1  0
  2  3  1  0
  3  4  2  0
  4  5  1  0
  5  6  2  0
  6  7  1  0
  7  8  1  0
  7  9  1  0
  9 10  1  0
 10 11  2  0
 10 12  1  0
 12 13  1  0
 13 14  1  0
 14 15  1  0
 14 16  1  0
 16 17  1  0
 17 18  1  0
 18 19  2  0
 18 20  1  0
 20 21  1  0
 21 22  1  0
 22 23  2  0
 22 24  1  0
 24 25  2  0
 25 26  1  0
 26 27  2  0
 27 28  1  0
 28 29  2  0
 29 30  1  0
 29 31  1  0
 31 32  2  0
 32 33  1  0
 33 34  2  0
  6 35  1  0
 35 36  1  0
 35 37  2  0
 37  3  1  0
 17 12  1  0
 34 24  1  0
 33 27  1  0
  1 38  1  0
  1 39  1  0
  1 40  1  0
  4 41  1  0
  5 42  1  0
  7 43  1  6
  8 44  1  0
  8 45  1  0
  8 46  1  0
  9 47  1  0
 12 48  1  1
 13 49  1  0
 13 50  1  0
 14 51  1  6
 15 52  1  0
 16 53  1  0
 16 54  1  0
 20 55  1  0
 20 56  1  0
 21 57  1  0
 25 58  1  0
 26 59  1  0
 28 60  1  0
 31 61  1  0
 32 62  1  0
 37 63  1  0
M  END
>  <smiles>  (46) 
COc1ccc([C@H](C)NC(=O)[C@@H]2C[C@@H](O)CN2C(=O)CNC(=O)c2ccc3cc(F)ccc3n2)c(Cl)c1

>  <score_type>  (46) 
oracle

>  <origin>  (46) 
autodockgpu

>  <m_score__min__energy>  (46) 
-9.0500000000000007

>  <m_primary>  (46) 
energy

>  <rmsd>  (46) 
6.79500834668718

>  <m_score__min__rmsd>  (46) 
6.79500834668718

>  <meeko>  (46) 
{"free_energy": -6.44, "intermolecular_energy": -9.12, "internal_energy": -4.33, "cluster_size": 9, "cluster_id": 11, "rank_in_cluster": 4}

>  <energy>  (46) 
-6.01

>  <cluster_rmsd>  (46) 
0.0

>  <cluster>  (46) 
15

$$$$

     RDKit          3D

 63 66  0  0  0  0  0  0  0  0999 V2000
  138.2470   85.3570  221.5140 C   0  0  0  0  0  0  0  0  0  0  0  0
  138.6520   84.1970  220.8480 O   0  0  0  0  0  0  0  0  0  0  0  0
  139.3440   83.1390  221.4040 C   0  0  0  0  0  0  0  0  0  0  0  0
  140.7300   83.1160  221.2760 C   0  0  0  0  0  0  0  0  0  0  0  0
  141.4870   82.0790  221.8130 C   0  0  0  0  0  0  0  0  0  0  0  0
  140.8800   81.0210  222.5030 C   0  0  0  0  0  0  0  0  0  0  0  0
  141.7480   79.9890  223.0430 C   0  0  2  0  0  0  0  0  0  0  0  0
  143.2110   80.3480  223.1100 C   0  0  0  0  0  0  0  0  0  0  0  0
  141.6270   78.6900  222.4000 N   0  0  0  0  0  0  0  0  0  0  0  0
  141.8360   78.5040  220.9990 C   0  0  0  0  0  0  0  0  0  0  0  0
  142.1410   79.4780  220.2300 O   0  0  0  0  0  0  0  0  0  0  0  0
  141.6780   77.1190  220.4830 C   0  0  2  0  0  0  0  0  0  0  0  0
  141.6960   77.1200  218.9440 C   0  0  0  0  0  0  0  0  0  0  0  0
  140.4110   77.8790  218.6850 C   0  0  1  0  0  0  0  0  0  0  0  0
  139.9270   77.6600  217.4020 O   0  0  0  0  0  0  0  0  0  0  0  0
  139.4490   77.4140  219.7630 C   0  0  0  0  0  0  0  0  0  0  0  0
  140.3160   76.6480  220.6700 N   0  0  0  0  0  0  0  0  0  0  0  0
  139.8880   75.6100  221.5770 C   0  0  0  0  0  0  0  0  0  0  0  0
  139.5450   75.9240  222.7450 O   0  0  0  0  0  0  0  0  0  0  0  0
  139.8770   74.2080  221.0720 C   0  0  0  0  0  0  0  0  0  0  0  0
  139.8030   73.2930  222.1950 N   0  0  0  0  0  0  0  0  0  0  0  0
  140.0260   71.8980  222.0830 C   0  0  0  0  0  0  0  0  0  0  0  0
  140.3100   71.3610  220.9630 O   0  0  0  0  0  0  0  0  0  0  0  0
  139.9280   71.0470  223.2790 C   0  0  0  0  0  0  0  0  0  0  0  0
  139.3870   69.7840  223.2510 C   0  0  0  0  0  0  0  0  0  0  0  0
  139.3000   68.9860  224.3850 C   0  0  0  0  0  0  0  0  0  0  0  0
  139.7840   69.5150  225.5570 C   0  0  0  0  0  0  0  0  0  0  0  0
  139.7320   68.7790  226.7300 C   0  0  0  0  0  0  0  0  0  0  0  0
  140.2080   69.2770  227.9350 C   0  0  0  0  0  0  0  0  0  0  0  0
  140.1650   68.5760  229.0880 F   0  0  0  0  0  0  0  0  0  0  0  0
  140.7470   70.5540  227.9270 C   0  0  0  0  0  0  0  0  0  0  0  0
  140.8220   71.3260  226.7910 C   0  0  0  0  0  0  0  0  0  0  0  0
  140.3310   70.7850  225.6020 C   0  0  0  0  0  0  0  0  0  0  0  0
  140.3800   71.4970  224.4620 N   0  0  0  0  0  0  0  0  0  0  0  0
  139.4950   81.0490  222.6280 C   0  0  0  0  0  0  0  0  0  0  0  0
  138.7230   79.7400  223.4800 Cl  0  0  0  0  0  0  0  0  0  0  0  0
  138.7530   82.0970  222.0820 C   0  0  0  0  0  0  0  0  0  0  0  0
  138.3036   85.1947  222.6005 H   0  0  0  0  0  0  0  0  0  0  0  0
  138.9072   86.1907  221.2329 H   0  0  0  0  0  0  0  0  0  0  0  0
  137.2113   85.5986  221.2329 H   0  0  0  0  0  0  0  0  0  0  0  0
  141.2362   83.9326  220.7405 H   0  0  0  0  0  0  0  0  0  0  0  0
  142.5805   82.0900  221.6938 H   0  0  0  0  0  0  0  0  0  0  0  0
  141.3615   79.9150  224.0702 H   0  0  0  0  0  0  0  0  0  0  0  0
  143.5220   80.4243  224.1624 H   0  0  0  0  0  0  0  0  0  0  0  0
  143.8032   79.5685  222.6083 H   0  0  0  0  0  0  0  0  0  0  0  0
  143.3751   81.3131  222.6083 H   0  0  0  0  0  0  0  0  0  0  0  0
  141.3730   77.8500  223.0050 H   0  0  0  0  0  0  0  0  0  0  0  0
  142.4636   76.5357  220.9856 H   0  0  0  0  0  0  0  0  0  0  0  0
  142.5736   77.6484  218.5433 H   0  0  0  0  0  0  0  0  0  0  0  0
  141.7589   76.1276  218.4738 H   0  0  0  0  0  0  0  0  0  0  0  0
  140.5621   78.9675  218.7332 H   0  0  0  0  0  0  0  0  0  0  0  0
  138.9800   77.3920  217.4380 H   0  0  0  0  0  0  0  0  0  0  0  0
  138.9921   78.2699  220.2814 H   0  0  0  0  0  0  0  0  0  0  0  0
  138.6065   76.8267  219.3689 H   0  0  0  0  0  0  0  0  0  0  0  0
  139.0040   74.0597  220.4194 H   0  0  0  0  0  0  0  0  0  0  0  0
  140.7971   74.0156  220.5007 H   0  0  0  0  0  0  0  0  0  0  0  0
  139.5730   73.6440  223.1670 H   0  0  0  0  0  0  0  0  0  0  0  0
  139.0090   69.3905  222.2959 H   0  0  0  0  0  0  0  0  0  0  0  0
  138.8637   67.9770  224.3463 H   0  0  0  0  0  0  0  0  0  0  0  0
  139.2997   67.7678  226.7054 H   0  0  0  0  0  0  0  0  0  0  0  0
  141.1317   70.9683  228.8706 H   0  0  0  0  0  0  0  0  0  0  0  0
  141.2549   72.3368  226.8189 H   0  0  0  0  0  0  0  0  0  0  0  0
  137.6591   82.0902  222.1972 H   0  0  0  0  0  0  0  0  0  0  0  0
  1  2  1  0
  2  3  1  0
  3  4  2  0
  4  5  1  0
  5  6  2  0
  6  7  1  0
  7  8  1  0
  7  9  1  0
  9 10  1  0
 10 11  2  0
 10 12  1  0
 12 13  1  0
 13 14  1  0
 14 15  1  0
 14 16  1  0
 16 17  1  0
 17 18  1  0
 18 19  2  0
 18 20  1  0
 20 21  1  0
 21 22  1  0
 22 23  2  0
 22 24  1  0
 24 25  2  0
 25 26  1  0
 26 27  2  0
 27 28  1  0
 28 29  2  0
 29 30  1  0
 29 31  1  0
 31 32  2  0
 32 33  1  0
 33 34  2  0
  6 35  1  0
 35 36  1  0
 35 37  2  0
 37  3  1  0
 17 12  1  0
 34 24  1  0
 33 27  1  0
  1 38  1  0
  1 39  1  0
  1 40  1  0
  4 41  1  0
  5 42  1  0
  7 43  1  1
  8 44  1  0
  8 45  1  0
  8 46  1  0
  9 47  1  0
 12 48  1  1
 13 49  1  0
 13 50  1  0
 14 51  1  1
 15 52  1  0
 16 53  1  0
 16 54  1  0
 20 55  1  0
 20 56  1  0
 21 57  1  0
 25 58  1  0
 26 59  1  0
 28 60  1  0
 31 61  1  0
 32 62  1  0
 37 63  1  0
M  END
>  <smiles>  (47) 
COc1ccc([C@H](C)NC(=O)[C@@H]2C[C@@H](O)CN2C(=O)CNC(=O)c2ccc3cc(F)ccc3n2)c(Cl)c1

>  <score_type>  (47) 
oracle

>  <origin>  (47) 
autodockgpu

>  <m_score__min__energy>  (47) 
-9.0500000000000007

>  <m_primary>  (47) 
energy

>  <rmsd>  (47) 
1.7589580095599635

>  <m_score__min__rmsd>  (47) 
1.7589580095599635

>  <meeko>  (47) 
{"free_energy": -8.16, "intermolecular_energy": -10.85, "internal_energy": -2.77, "cluster_size": 6, "cluster_id": 4, "rank_in_cluster": 4}

>  <energy>  (47) 
-6.0

>  <cluster_rmsd>  (47) 
0.15

>  <cluster>  (47) 
15

$$$$

     RDKit          3D

 63 66  0  0  0  0  0  0  0  0999 V2000
  140.8010   68.6600  228.3380 C   0  0  0  0  0  0  0  0  0  0  0  0
  140.6180   69.9480  227.8260 O   0  0  0  0  0  0  0  0  0  0  0  0
  140.3000   70.2660  226.5210 C   0  0  0  0  0  0  0  0  0  0  0  0
  141.1380   71.1380  225.8300 C   0  0  0  0  0  0  0  0  0  0  0  0
  140.8750   71.4990  224.5130 C   0  0  0  0  0  0  0  0  0  0  0  0
  139.7560   70.9980  223.8330 C   0  0  0  0  0  0  0  0  0  0  0  0
  139.5670   71.4180  222.4560 C   0  0  2  0  0  0  0  0  0  0  0  0
  139.6380   70.3160  221.4310 C   0  0  0  0  0  0  0  0  0  0  0  0
  140.4350   72.5010  222.0210 N   0  0  0  0  0  0  0  0  0  0  0  0
  139.9960   73.8590  221.9550 C   0  0  0  0  0  0  0  0  0  0  0  0
  138.8060   74.1960  222.2760 O   0  0  0  0  0  0  0  0  0  0  0  0
  140.9950   74.8570  221.4920 C   0  0  2  0  0  0  0  0  0  0  0  0
  140.2880   76.0380  220.8040 C   0  0  0  0  0  0  0  0  0  0  0  0
  139.7320   75.3170  219.5930 C   0  0  1  0  0  0  0  0  0  0  0  0
  139.4200   76.1940  218.5620 O   0  0  0  0  0  0  0  0  0  0  0  0
  140.7980   74.3090  219.2040 C   0  0  0  0  0  0  0  0  0  0  0  0
  141.7300   74.3600  220.3400 N   0  0  0  0  0  0  0  0  0  0  0  0
  143.1240   73.9900  220.3110 C   0  0  0  0  0  0  0  0  0  0  0  0
  143.4890   72.9410  220.9010 O   0  0  0  0  0  0  0  0  0  0  0  0
  144.0640   74.8820  219.5760 C   0  0  0  0  0  0  0  0  0  0  0  0
  143.6340   76.2590  219.7250 N   0  0  0  0  0  0  0  0  0  0  0  0
  142.7990   76.9240  218.7920 C   0  0  0  0  0  0  0  0  0  0  0  0
  142.3710   76.3310  217.7480 O   0  0  0  0  0  0  0  0  0  0  0  0
  142.4160   78.3250  219.0260 C   0  0  0  0  0  0  0  0  0  0  0  0
  142.2940   79.2420  218.0100 C   0  0  0  0  0  0  0  0  0  0  0  0
  141.9300   80.5630  218.2400 C   0  0  0  0  0  0  0  0  0  0  0  0
  141.6900   80.9250  219.5430 C   0  0  0  0  0  0  0  0  0  0  0  0
  141.3230   82.2250  219.8510 C   0  0  0  0  0  0  0  0  0  0  0  0
  141.0730   82.6320  221.1550 C   0  0  0  0  0  0  0  0  0  0  0  0
  140.7140   83.8940  221.4750 F   0  0  0  0  0  0  0  0  0  0  0  0
  141.2050   81.6800  222.1550 C   0  0  0  0  0  0  0  0  0  0  0  0
  141.5670   80.3780  221.9020 C   0  0  0  0  0  0  0  0  0  0  0  0
  141.8090   80.0130  220.5770 C   0  0  0  0  0  0  0  0  0  0  0  0
  142.1670   78.7520  220.2750 N   0  0  0  0  0  0  0  0  0  0  0  0
  138.9220   70.1290  224.5280 C   0  0  0  0  0  0  0  0  0  0  0  0
  137.5240   69.4990  223.7010 Cl  0  0  0  0  0  0  0  0  0  0  0  0
  139.2030   69.7780  225.8490 C   0  0  0  0  0  0  0  0  0  0  0  0
  140.7956   68.6982  229.4373 H   0  0  0  0  0  0  0  0  0  0  0  0
  139.9865   68.0078  227.9898 H   0  0  0  0  0  0  0  0  0  0  0  0
  141.7649   68.2605  227.9898 H   0  0  0  0  0  0  0  0  0  0  0  0
  142.0244   71.5488  226.3355 H   0  0  0  0  0  0  0  0  0  0  0  0
  141.5570   72.1898  223.9957 H   0  0  0  0  0  0  0  0  0  0  0  0
  138.5317   71.7873  222.4975 H   0  0  0  0  0  0  0  0  0  0  0  0
  139.7006   69.3437  221.9417 H   0  0  0  0  0  0  0  0  0  0  0  0
  138.7363   70.3421  220.8015 H   0  0  0  0  0  0  0  0  0  0  0  0
  140.5289   70.4576  220.8015 H   0  0  0  0  0  0  0  0  0  0  0  0
  141.4360   72.2630  221.7430 H   0  0  0  0  0  0  0  0  0  0  0  0
  141.5961   75.0930  222.3825 H   0  0  0  0  0  0  0  0  0  0  0  0
  139.4908   76.4626  221.4319 H   0  0  0  0  0  0  0  0  0  0  0  0
  140.9275   76.9052  220.5829 H   0  0  0  0  0  0  0  0  0  0  0  0
  138.7785   74.8168  219.8179 H   0  0  0  0  0  0  0  0  0  0  0  0
  140.2380   76.4520  218.0780 H   0  0  0  0  0  0  0  0  0  0  0  0
  140.3682   73.3029  219.0898 H   0  0  0  0  0  0  0  0  0  0  0  0
  141.2767   74.5340  218.2395 H   0  0  0  0  0  0  0  0  0  0  0  0
  145.0775   74.7670  219.9879 H   0  0  0  0  0  0  0  0  0  0  0  0
  144.0707   74.6116  218.5098 H   0  0  0  0  0  0  0  0  0  0  0  0
  143.9390   76.8360  220.5590 H   0  0  0  0  0  0  0  0  0  0  0  0
  142.4917   78.9186  216.9773 H   0  0  0  0  0  0  0  0  0  0  0  0
  141.8382   81.2860  217.4161 H   0  0  0  0  0  0  0  0  0  0  0  0
  141.2266   82.9582  219.0366 H   0  0  0  0  0  0  0  0  0  0  0  0
  141.0117   81.9797  223.1956 H   0  0  0  0  0  0  0  0  0  0  0  0
  141.6629   79.6470  222.7183 H   0  0  0  0  0  0  0  0  0  0  0  0
  138.5242   69.0875  226.3710 H   0  0  0  0  0  0  0  0  0  0  0  0
  1  2  1  0
  2  3  1  0
  3  4  2  0
  4  5  1  0
  5  6  2  0
  6  7  1  0
  7  8  1  0
  7  9  1  0
  9 10  1  0
 10 11  2  0
 10 12  1  0
 12 13  1  0
 13 14  1  0
 14 15  1  0
 14 16  1  0
 16 17  1  0
 17 18  1  0
 18 19  2  0
 18 20  1  0
 20 21  1  0
 21 22  1  0
 22 23  2  0
 22 24  1  0
 24 25  2  0
 25 26  1  0
 26 27  2  0
 27 28  1  0
 28 29  2  0
 29 30  1  0
 29 31  1  0
 31 32  2  0
 32 33  1  0
 33 34  2  0
  6 35  1  0
 35 36  1  0
 35 37  2  0
 37  3  1  0
 17 12  1  0
 34 24  1  0
 33 27  1  0
  1 38  1  0
  1 39  1  0
  1 40  1  0
  4 41  1  0
  5 42  1  0
  7 43  1  1
  8 44  1  0
  8 45  1  0
  8 46  1  0
  9 47  1  0
 12 48  1  1
 13 49  1  0
 13 50  1  0
 14 51  1  1
 15 52  1  0
 16 53  1  0
 16 54  1  0
 20 55  1  0
 20 56  1  0
 21 57  1  0
 25 58  1  0
 26 59  1  0
 28 60  1  0
 31 61  1  0
 32 62  1  0
 37 63  1  0
M  END
>  <smiles>  (48) 
COc1ccc([C@H](C)NC(=O)[C@@H]2C[C@@H](O)CN2C(=O)CNC(=O)c2ccc3cc(F)ccc3n2)c(Cl)c1

>  <score_type>  (48) 
oracle

>  <origin>  (48) 
autodockgpu

>  <m_score__min__energy>  (48) 
-9.0500000000000007

>  <m_primary>  (48) 
energy

>  <rmsd>  (48) 
10.727698234595596

>  <m_score__min__rmsd>  (48) 
10.727698234595596

>  <meeko>  (48) 
{"free_energy": -6.77, "intermolecular_energy": -9.45, "internal_energy": -3.72, "cluster_size": 1, "cluster_id": 13, "rank_in_cluster": 1}

>  <energy>  (48) 
-5.8

>  <cluster_rmsd>  (48) 
0.77

>  <cluster>  (48) 
15

$$$$

     RDKit          3D

 63 66  0  0  0  0  0  0  0  0999 V2000
  142.3920   81.6960  224.4140 C   0  0  0  0  0  0  0  0  0  0  0  0
  141.2680   81.0830  223.8550 O   0  0  0  0  0  0  0  0  0  0  0  0
  141.2760   80.0180  222.9760 C   0  0  0  0  0  0  0  0  0  0  0  0
  142.0940   80.0950  221.8520 C   0  0  0  0  0  0  0  0  0  0  0  0
  142.1490   79.0560  220.9270 C   0  0  0  0  0  0  0  0  0  0  0  0
  141.3820   77.8950  221.0960 C   0  0  0  0  0  0  0  0  0  0  0  0
  141.5120   76.8550  220.0890 C   0  0  2  0  0  0  0  0  0  0  0  0
  140.2360   76.4850  219.3780 C   0  0  0  0  0  0  0  0  0  0  0  0
  142.1470   75.6310  220.5520 N   0  0  0  0  0  0  0  0  0  0  0  0
  142.3050   74.4840  219.7150 C   0  0  0  0  0  0  0  0  0  0  0  0
  141.8930   74.4730  218.5060 O   0  0  0  0  0  0  0  0  0  0  0  0
  142.9730   73.3050  220.3260 C   0  0  2  0  0  0  0  0  0  0  0  0
  144.5010   73.4430  220.2130 C   0  0  0  0  0  0  0  0  0  0  0  0
  144.6450   73.3520  218.7090 C   0  0  1  0  0  0  0  0  0  0  0  0
  145.9340   73.0030  218.3280 O   0  0  0  0  0  0  0  0  0  0  0  0
  143.6080   72.3340  218.2690 C   0  0  0  0  0  0  0  0  0  0  0  0
  142.8130   72.1270  219.4890 N   0  0  0  0  0  0  0  0  0  0  0  0
  142.0230   70.9600  219.7980 C   0  0  0  0  0  0  0  0  0  0  0  0
  142.5110   69.8200  219.5880 O   0  0  0  0  0  0  0  0  0  0  0  0
  140.6580   71.1740  220.3550 C   0  0  0  0  0  0  0  0  0  0  0  0
  140.6410   70.7820  221.7520 N   0  0  0  0  0  0  0  0  0  0  0  0
  140.5710   71.7080  222.8230 C   0  0  0  0  0  0  0  0  0  0  0  0
  140.5160   72.9630  222.6100 O   0  0  0  0  0  0  0  0  0  0  0  0
  140.5610   71.2160  224.2100 C   0  0  0  0  0  0  0  0  0  0  0  0
  140.6990   72.0490  225.2950 C   0  0  0  0  0  0  0  0  0  0  0  0
  140.6860   71.5770  226.6010 C   0  0  0  0  0  0  0  0  0  0  0  0
  140.5270   70.2230  226.7730 C   0  0  0  0  0  0  0  0  0  0  0  0
  140.5050   69.6780  228.0460 C   0  0  0  0  0  0  0  0  0  0  0  0
  140.3460   68.3160  228.2630 C   0  0  0  0  0  0  0  0  0  0  0  0
  140.3230   67.7660  229.4960 F   0  0  0  0  0  0  0  0  0  0  0  0
  140.2100   67.5060  227.1470 C   0  0  0  0  0  0  0  0  0  0  0  0
  140.2250   67.9970  225.8620 C   0  0  0  0  0  0  0  0  0  0  0  0
  140.3870   69.3730  225.6910 C   0  0  0  0  0  0  0  0  0  0  0  0
  140.4100   69.9050  224.4560 N   0  0  0  0  0  0  0  0  0  0  0  0
  140.5670   77.8240  222.2200 C   0  0  0  0  0  0  0  0  0  0  0  0
  139.6040   76.3890  222.4450 Cl  0  0  0  0  0  0  0  0  0  0  0  0
  140.5250   78.8760  223.1360 C   0  0  0  0  0  0  0  0  0  0  0  0
  142.3227   81.6582  225.5112 H   0  0  0  0  0  0  0  0  0  0  0  0
  143.2992   81.1677  224.0855 H   0  0  0  0  0  0  0  0  0  0  0  0
  142.4391   82.7447  224.0855 H   0  0  0  0  0  0  0  0  0  0  0  0
  142.7082   80.9934  221.6919 H   0  0  0  0  0  0  0  0  0  0  0  0
  142.8052   79.1477  220.0490 H   0  0  0  0  0  0  0  0  0  0  0  0
  142.1793   77.3511  219.3688 H   0  0  0  0  0  0  0  0  0  0  0  0
  139.4555   76.2587  220.1194 H   0  0  0  0  0  0  0  0  0  0  0  0
  139.9104   77.3257  218.7478 H   0  0  0  0  0  0  0  0  0  0  0  0
  140.4106   75.6005  218.7478 H   0  0  0  0  0  0  0  0  0  0  0  0
  142.5040   75.5970  221.5560 H   0  0  0  0  0  0  0  0  0  0  0  0
  142.5573   73.2354  221.3420 H   0  0  0  0  0  0  0  0  0  0  0  0
  144.8565   74.4084  220.6023 H   0  0  0  0  0  0  0  0  0  0  0  0
  145.0830   72.7063  220.7862 H   0  0  0  0  0  0  0  0  0  0  0  0
  144.4756   74.3247  218.2241 H   0  0  0  0  0  0  0  0  0  0  0  0
  146.5160   73.7980  218.3320 H   0  0  0  0  0  0  0  0  0  0  0  0
  142.9854   72.7304  217.4534 H   0  0  0  0  0  0  0  0  0  0  0  0
  144.0493   71.4065  217.8753 H   0  0  0  0  0  0  0  0  0  0  0  0
  140.3889   72.2371  220.2688 H   0  0  0  0  0  0  0  0  0  0  0  0
  139.9326   70.5665  219.7939 H   0  0  0  0  0  0  0  0  0  0  0  0
  140.6840   69.7610  222.0300 H   0  0  0  0  0  0  0  0  0  0  0  0
  140.8242   73.1281  225.1224 H   0  0  0  0  0  0  0  0  0  0  0  0
  140.7979   72.2563  227.4589 H   0  0  0  0  0  0  0  0  0  0  0  0
  140.6171   70.3457  228.9130 H   0  0  0  0  0  0  0  0  0  0  0  0
  140.0846   66.4232  227.2950 H   0  0  0  0  0  0  0  0  0  0  0  0
  140.1129   67.3268  224.9970 H   0  0  0  0  0  0  0  0  0  0  0  0
  139.8697   78.7895  224.0153 H   0  0  0  0  0  0  0  0  0  0  0  0
  1  2  1  0
  2  3  1  0
  3  4  2  0
  4  5  1  0
  5  6  2  0
  6  7  1  0
  7  8  1  0
  7  9  1  0
  9 10  1  0
 10 11  2  0
 10 12  1  0
 12 13  1  0
 13 14  1  0
 14 15  1  0
 14 16  1  0
 16 17  1  0
 17 18  1  0
 18 19  2  0
 18 20  1  0
 20 21  1  0
 21 22  1  0
 22 23  2  0
 22 24  1  0
 24 25  2  0
 25 26  1  0
 26 27  2  0
 27 28  1  0
 28 29  2  0
 29 30  1  0
 29 31  1  0
 31 32  2  0
 32 33  1  0
 33 34  2  0
  6 35  1  0
 35 36  1  0
 35 37  2  0
 37  3  1  0
 17 12  1  0
 34 24  1  0
 33 27  1  0
  1 38  1  0
  1 39  1  0
  1 40  1  0
  4 41  1  0
  5 42  1  0
  7 43  1  6
  8 44  1  0
  8 45  1  0
  8 46  1  0
  9 47  1  0
 12 48  1  1
 13 49  1  0
 13 50  1  0
 14 51  1  6
 15 52  1  0
 16 53  1  0
 16 54  1  0
 20 55  1  0
 20 56  1  0
 21 57  1  0
 25 58  1  0
 26 59  1  0
 28 60  1  0
 31 61  1  0
 32 62  1  0
 37 63  1  0
M  END
>  <smiles>  (49) 
COc1ccc([C@H](C)NC(=O)[C@@H]2C[C@@H](O)CN2C(=O)CNC(=O)c2ccc3cc(F)ccc3n2)c(Cl)c1

>  <score_type>  (49) 
oracle

>  <origin>  (49) 
autodockgpu

>  <m_score__min__energy>  (49) 
-9.0500000000000007

>  <m_primary>  (49) 
energy

>  <rmsd>  (49) 
4.546312973840976

>  <m_score__min__rmsd>  (49) 
4.546312973840976

>  <meeko>  (49) 
{"free_energy": -8.76, "intermolecular_energy": -11.44, "internal_energy": -2.03, "cluster_size": 8, "cluster_id": 2, "rank_in_cluster": 5}

>  <energy>  (49) 
-5.78

>  <cluster_rmsd>  (49) 
0.76

>  <cluster>  (49) 
15

$$$$

     RDKit          3D

 63 66  0  0  0  0  0  0  0  0999 V2000
  132.1420   73.8630  227.3510 C   0  0  0  0  0  0  0  0  0  0  0  0
  133.4150   73.4850  226.9170 O   0  0  0  0  0  0  0  0  0  0  0  0
  134.1560   74.1080  225.9320 C   0  0  0  0  0  0  0  0  0  0  0  0
  134.2550   75.4970  225.9600 C   0  0  0  0  0  0  0  0  0  0  0  0
  134.9870   76.1880  224.9990 C   0  0  0  0  0  0  0  0  0  0  0  0
  135.6500   75.5090  223.9680 C   0  0  0  0  0  0  0  0  0  0  0  0
  136.4020   76.3080  223.0150 C   0  0  2  0  0  0  0  0  0  0  0  0
  135.8820   76.2820  221.6010 C   0  0  0  0  0  0  0  0  0  0  0  0
  137.8300   76.0360  222.9800 N   0  0  0  0  0  0  0  0  0  0  0  0
  138.7780   76.9730  222.4670 C   0  0  0  0  0  0  0  0  0  0  0  0
  138.4180   78.1090  222.0080 O   0  0  0  0  0  0  0  0  0  0  0  0
  140.2050   76.5560  222.4960 C   0  0  2  0  0  0  0  0  0  0  0  0
  141.1070   77.7670  222.7950 C   0  0  0  0  0  0  0  0  0  0  0  0
  140.8650   78.5690  221.5330 C   0  0  1  0  0  0  0  0  0  0  0  0
  141.8710   79.4990  221.3060 O   0  0  0  0  0  0  0  0  0  0  0  0
  140.7540   77.5400  220.4210 C   0  0  0  0  0  0  0  0  0  0  0  0
  140.6880   76.2680  221.1560 N   0  0  0  0  0  0  0  0  0  0  0  0
  141.0470   74.9700  220.6370 C   0  0  0  0  0  0  0  0  0  0  0  0
  142.2620   74.6970  220.4650 O   0  0  0  0  0  0  0  0  0  0  0  0
  139.9430   74.0170  220.3300 C   0  0  0  0  0  0  0  0  0  0  0  0
  139.6640   73.2110  221.5040 N   0  0  0  0  0  0  0  0  0  0  0  0
  140.6290   72.3830  222.1320 C   0  0  0  0  0  0  0  0  0  0  0  0
  141.8200   72.3020  221.6880 O   0  0  0  0  0  0  0  0  0  0  0  0
  140.2530   71.6000  223.3190 C   0  0  0  0  0  0  0  0  0  0  0  0
  139.3580   70.5580  223.2690 C   0  0  0  0  0  0  0  0  0  0  0  0
  139.0100   69.8210  224.3940 C   0  0  0  0  0  0  0  0  0  0  0  0
  139.6040   70.1770  225.5800 C   0  0  0  0  0  0  0  0  0  0  0  0
  139.3070   69.4890  226.7450 C   0  0  0  0  0  0  0  0  0  0  0  0
  139.8840   69.8180  227.9640 C   0  0  0  0  0  0  0  0  0  0  0  0
  139.6070   69.1600  229.1100 F   0  0  0  0  0  0  0  0  0  0  0  0
  140.7830   70.8740  227.9780 C   0  0  0  0  0  0  0  0  0  0  0  0
  141.1120   71.5890  226.8500 C   0  0  0  0  0  0  0  0  0  0  0  0
  140.5060   71.2240  225.6460 C   0  0  0  0  0  0  0  0  0  0  0  0
  140.7930   71.8900  224.5140 N   0  0  0  0  0  0  0  0  0  0  0  0
  135.5480   74.1220  223.9450 C   0  0  0  0  0  0  0  0  0  0  0  0
  136.3620   73.2610  222.6680 Cl  0  0  0  0  0  0  0  0  0  0  0  0
  134.8090   73.4470  224.9170 C   0  0  0  0  0  0  0  0  0  0  0  0
  132.1167   73.8705  228.4507 H   0  0  0  0  0  0  0  0  0  0  0  0
  131.9091   74.8691  226.9720 H   0  0  0  0  0  0  0  0  0  0  0  0
  131.3978   73.1471  226.9720 H   0  0  0  0  0  0  0  0  0  0  0  0
  133.7450   76.0584  226.7567 H   0  0  0  0  0  0  0  0  0  0  0  0
  135.0461   77.2853  225.0496 H   0  0  0  0  0  0  0  0  0  0  0  0
  136.2422   77.3161  223.4251 H   0  0  0  0  0  0  0  0  0  0  0  0
  134.7835   76.2271  221.6153 H   0  0  0  0  0  0  0  0  0  0  0  0
  136.1966   77.1970  221.0777 H   0  0  0  0  0  0  0  0  0  0  0  0
  136.2863   75.4029  221.0777 H   0  0  0  0  0  0  0  0  0  0  0  0
  138.1730   75.0980  223.3530 H   0  0  0  0  0  0  0  0  0  0  0  0
  140.2446   75.7226  223.2128 H   0  0  0  0  0  0  0  0  0  0  0  0
  140.7826   78.3092  223.6954 H   0  0  0  0  0  0  0  0  0  0  0  0
  142.1599   77.5286  223.0062 H   0  0  0  0  0  0  0  0  0  0  0  0
  139.9498   79.1751  221.6033 H   0  0  0  0  0  0  0  0  0  0  0  0
  142.7410   79.0440  221.2230 H   0  0  0  0  0  0  0  0  0  0  0  0
  139.8443   77.6995  219.8235 H   0  0  0  0  0  0  0  0  0  0  0  0
  141.5865   77.5844  219.7033 H   0  0  0  0  0  0  0  0  0  0  0  0
  139.0406   74.5790  220.0473 H   0  0  0  0  0  0  0  0  0  0  0  0
  140.2417   73.3634  219.4972 H   0  0  0  0  0  0  0  0  0  0  0  0
  138.7020   73.2110  221.9460 H   0  0  0  0  0  0  0  0  0  0  0  0
  138.9006   70.2982  222.3029 H   0  0  0  0  0  0  0  0  0  0  0  0
  138.2914   68.9901  224.3374 H   0  0  0  0  0  0  0  0  0  0  0  0
  138.5909   68.6551  226.7029 H   0  0  0  0  0  0  0  0  0  0  0  0
  141.2534   71.1518  228.9328 H   0  0  0  0  0  0  0  0  0  0  0  0
  141.8294   72.4216  226.8949 H   0  0  0  0  0  0  0  0  0  0  0  0
  134.7463   72.3498  224.8704 H   0  0  0  0  0  0  0  0  0  0  0  0
  1  2  1  0
  2  3  1  0
  3  4  2  0
  4  5  1  0
  5  6  2  0
  6  7  1  0
  7  8  1  0
  7  9  1  0
  9 10  1  0
 10 11  2  0
 10 12  1  0
 12 13  1  0
 13 14  1  0
 14 15  1  0
 14 16  1  0
 16 17  1  0
 17 18  1  0
 18 19  2  0
 18 20  1  0
 20 21  1  0
 21 22  1  0
 22 23  2  0
 22 24  1  0
 24 25  2  0
 25 26  1  0
 26 27  2  0
 27 28  1  0
 28 29  2  0
 29 30  1  0
 29 31  1  0
 31 32  2  0
 32 33  1  0
 33 34  2  0
  6 35  1  0
 35 36  1  0
 35 37  2  0
 37  3  1  0
 17 12  1  0
 34 24  1  0
 33 27  1  0
  1 38  1  0
  1 39  1  0
  1 40  1  0
  4 41  1  0
  5 42  1  0
  7 43  1  1
  8 44  1  0
  8 45  1  0
  8 46  1  0
  9 47  1  0
 12 48  1  1
 13 49  1  0
 13 50  1  0
 14 51  1  1
 15 52  1  0
 16 53  1  0
 16 54  1  0
 20 55  1  0
 20 56  1  0
 21 57  1  0
 25 58  1  0
 26 59  1  0
 28 60  1  0
 31 61  1  0
 32 62  1  0
 37 63  1  0
M  END
>  <smiles>  (50) 
COc1ccc([C@H](C)NC(=O)[C@@H]2C[C@@H](O)CN2C(=O)CNC(=O)c2ccc3cc(F)ccc3n2)c(Cl)c1

>  <score_type>  (50) 
oracle

>  <origin>  (50) 
autodockgpu

>  <m_score__min__energy>  (50) 
-9.0500000000000007

>  <m_primary>  (50) 
energy

>  <rmsd>  (50) 
6.725789021840947

>  <m_score__min__rmsd>  (50) 
6.725789021840947

>  <meeko>  (50) 
{"free_energy": -8.66, "intermolecular_energy": -11.35, "internal_energy": -1.75, "cluster_size": 9, "cluster_id": 1, "rank_in_cluster": 5}

>  <energy>  (50) 
-5.7

>  <cluster_rmsd>  (50) 
0.76

>  <cluster>  (50) 
15

$$$$
