@<TRIPOS>MOLECULE
*****
 55 58 0 0 0
SMALL
GASTEIGER

@<TRIPOS>ATOM
      1 O         139.9990   70.8970  221.1340 O.2     1  UNL1       -0.2685
      2 C         139.8740   71.5110  222.2230 C.2     1  UNL1        0.2628
      3 N         139.7210   72.9220  222.2330 N.am    1  UNL1       -0.3015
      4 C         139.6990   73.7350  221.0330 C.3     1  UNL1        0.0887
      5 C         140.3210   75.0670  221.2730 C.2     1  UNL1        0.2332
      6 O         140.0700   75.7580  222.2960 O.2     1  UNL1       -0.2739
      7 N         141.2390   75.6160  220.3410 N.am    1  UNL1       -0.2937
      8 C         142.6350   75.2460  220.4620 C.3     1  UNL1        0.0153
      9 C         142.9810   74.5400  219.1490 C.3     1  UNL1       -0.0371
     10 C         142.6610   75.3950  217.9620 C.3     1  UNL1       -0.0497
     11 C         141.9880   76.6870  218.2830 C.3     1  UNL1       -0.0306
     12 C         140.8560   76.5260  219.2790 C.3     1  UNL1        0.0447
     13 C         140.3940   77.8220  219.7800 C.2     1  UNL1       -0.0632
     14 C         141.2460   78.7830  220.0530 C.2     1  UNL1       -0.0568
     15 C         141.6280   79.1810  221.4020 C.ar    1  UNL1       -0.0253
     16 C         142.2090   80.4370  221.6090 C.ar    1  UNL1       -0.0546
     17 C         142.5870   80.8590  222.8660 C.ar    1  UNL1       -0.0612
     18 C         142.4110   80.0600  223.9780 C.ar    1  UNL1       -0.0617
     19 C         141.8390   78.8220  223.7680 C.ar    1  UNL1       -0.0612
     20 C         141.4560   78.3960  222.4950 C.ar    1  UNL1       -0.0546
     21 C         139.8780   70.8100  223.5220 C.ar    1  UNL1        0.1260
     22 C         139.4120   69.5350  223.6620 C.ar    1  UNL1       -0.0306
     23 C         139.3940   68.8360  224.8540 C.ar    1  UNL1       -0.0504
     24 C         139.8930   69.5120  225.9600 C.ar    1  UNL1        0.0004
     25 C         139.9420   68.9460  227.2170 C.ar    1  UNL1       -0.0526
     26 C         140.4280   69.5870  228.3290 C.ar    1  UNL1       -0.0611
     27 C         140.8970   70.8890  228.1530 C.ar    1  UNL1       -0.0597
     28 C         140.8700   71.4950  226.9200 C.ar    1  UNL1       -0.0357
     29 C         140.3690   70.8010  225.8370 C.ar    1  UNL1        0.0718
     30 N         140.3520   71.4150  224.6410 N.ar    1  UNL1       -0.2421
     31 H         139.6190   73.4080  223.1530 H       1  UNL1        0.1496
     32 H         140.2560   73.2169  220.2384 H       1  UNL1        0.0558
     33 H         138.6512   73.8885  220.7356 H       1  UNL1        0.0558
     34 H         143.2607   76.1409  220.5948 H       1  UNL1        0.0465
     35 H         142.8139   74.6003  221.3343 H       1  UNL1        0.0465
     36 H         144.0560   74.3070  219.1416 H       1  UNL1        0.0280
     37 H         142.3793   73.6215  219.0835 H       1  UNL1        0.0280
     38 H         143.6022   75.6204  217.4393 H       1  UNL1        0.0266
     39 H         141.9504   74.8203  217.3498 H       1  UNL1        0.0266
     40 H         142.7335   77.3764  218.7061 H       1  UNL1        0.0286
     41 H         141.5561   77.0773  217.3497 H       1  UNL1        0.0286
     42 H         139.9957   76.0759  218.7620 H       1  UNL1        0.0545
     43 H         139.3177   77.9929  219.9298 H       1  UNL1        0.0591
     44 H         141.7008   79.3225  219.2091 H       1  UNL1        0.0621
     45 H         142.3679   81.1035  220.7485 H       1  UNL1        0.0623
     46 H         143.0390   81.8547  222.9855 H       1  UNL1        0.0618
     47 H         142.7119   80.3939  224.9820 H       1  UNL1        0.0618
     48 H         141.6806   78.1529  224.6266 H       1  UNL1        0.0618
     49 H         141.0040   77.4003  222.3753 H       1  UNL1        0.0623
     50 H         139.0244   69.0294  222.7652 H       1  UNL1        0.0641
     51 H         139.0084   67.8081  224.9226 H       1  UNL1        0.0625
     52 H         139.5687   67.9181  227.3353 H       1  UNL1        0.0624
     53 H         140.4468   69.0968  229.3135 H       1  UNL1        0.0618
     54 H         141.2958   71.4407  229.0171 H       1  UNL1        0.0618
     55 H         141.2437   72.5223  226.7973 H       1  UNL1        0.0639
@<TRIPOS>BOND
     1     1     2    2
     2     2     3   am
     3     3     4    1
     4     4     5    1
     5     5     6    2
     6     5     7   am
     7     7     8    1
     8     8     9    1
     9     9    10    1
    10    10    11    1
    11    11    12    1
    12    12    13    1
    13    13    14    2
    14    14    15    1
    15    15    16   ar
    16    16    17   ar
    17    17    18   ar
    18    18    19   ar
    19    19    20   ar
    20     2    21    1
    21    21    22   ar
    22    22    23   ar
    23    23    24   ar
    24    24    25   ar
    25    25    26   ar
    26    26    27   ar
    27    27    28   ar
    28    28    29   ar
    29    29    30   ar
    30    12     7    1
    31    20    15   ar
    32    30    21   ar
    33    29    24   ar
    34     3    31    1
    35     4    32    1
    36     4    33    1
    37     8    34    1
    38     8    35    1
    39     9    36    1
    40     9    37    1
    41    10    38    1
    42    10    39    1
    43    11    40    1
    44    11    41    1
    45    12    42    1
    46    13    43    1
    47    14    44    1
    48    16    45    1
    49    17    46    1
    50    18    47    1
    51    19    48    1
    52    20    49    1
    53    22    50    1
    54    23    51    1
    55    25    52    1
    56    26    53    1
    57    27    54    1
    58    28    55    1
