
     RDKit          3D

 67 72  0  0  0  0  0  0  0  0999 V2000
  140.0500   69.3130  226.6710 C   0  0  0  0  0  0  0  0  0  0  0  0
  141.0510   70.2620  226.6960 C   0  0  0  0  0  0  0  0  0  0  0  0
  141.1930   71.1930  225.7040 C   0  0  0  0  0  0  0  0  0  0  0  0
  140.2910   71.1570  224.6610 C   0  0  0  0  0  0  0  0  0  0  0  0
  139.2810   70.2200  224.6110 C   0  0  0  0  0  0  0  0  0  0  0  0
  139.1550   69.2890  225.6210 C   0  0  0  0  0  0  0  0  0  0  0  0
  138.2910   70.1480  223.5040 C   0  0  0  0  0  0  0  0  0  0  0  0
  138.9610   70.7020  222.2650 C   0  0  0  0  0  0  0  0  0  0  0  0
  139.3880   72.0430  222.5970 N   0  0  0  0  0  0  0  0  0  0  0  0
  138.8260   73.2140  222.0160 C   0  0  0  0  0  0  0  0  0  0  0  0
  137.8330   73.1360  221.1140 N   0  0  0  0  0  0  0  0  0  0  0  0
  137.2780   74.2230  220.5460 C   0  0  0  0  0  0  0  0  0  0  0  0
  136.2190   74.0780  219.5870 N   0  0  0  0  0  0  0  0  0  0  0  0
  134.9990   74.8040  219.8720 C   0  0  0  0  0  0  0  0  0  0  0  0
  135.0370   75.2640  221.2970 C   0  0  0  0  0  0  0  0  0  0  0  0
  134.5910   74.1290  222.1870 C   0  0  2  0  0  0  0  0  0  0  0  0
  133.7140   74.7530  223.2660 C   0  0  0  0  0  0  0  0  0  0  0  0
  134.7650   75.0060  224.3520 C   0  0  0  0  0  0  0  0  0  0  0  0
  135.5200   73.6770  224.2700 C   0  0  0  0  0  0  0  0  0  0  0  0
  135.7540   73.5870  222.8540 N   0  0  0  0  0  0  0  0  0  0  0  0
  137.7540   75.4300  220.9080 N   0  0  0  0  0  0  0  0  0  0  0  0
  138.7580   75.5590  221.8170 C   0  0  0  0  0  0  0  0  0  0  0  0
  139.2280   76.8550  222.1680 N   0  0  0  0  0  0  0  0  0  0  0  0
  138.2930   77.7730  222.7930 C   0  0  0  0  0  0  0  0  0  0  0  0
  138.6260   79.1440  222.1940 C   0  0  0  0  0  0  0  0  0  0  0  0
  139.9930   79.4650  222.7240 C   0  0  0  0  0  0  0  0  0  0  0  0
  140.2450   80.6690  223.3290 C   0  0  0  0  0  0  0  0  0  0  0  0
  141.5290   80.9290  223.8090 C   0  0  0  0  0  0  0  0  0  0  0  0
  142.5180   79.9750  223.6680 C   0  0  0  0  0  0  0  0  0  0  0  0
  142.2220   78.7610  223.0470 C   0  0  0  0  0  0  0  0  0  0  0  0
  140.9510   78.4940  222.5670 C   0  0  0  0  0  0  0  0  0  0  0  0
  140.5950   77.2140  221.8990 C   0  0  0  0  0  0  0  0  0  0  0  0
  139.2710   74.4380  222.3500 N   0  0  0  0  0  0  0  0  0  0  0  0
  140.4480   72.1790  223.5740 C   0  0  0  0  0  0  0  0  0  0  0  0
  139.9656   68.5781  227.4851 H   0  0  0  0  0  0  0  0  0  0  0  0
  141.7567   70.2702  227.5397 H   0  0  0  0  0  0  0  0  0  0  0  0
  141.9970   71.9430  225.7368 H   0  0  0  0  0  0  0  0  0  0  0  0
  138.3521   68.5378  225.5898 H   0  0  0  0  0  0  0  0  0  0  0  0
  137.9909   69.1034  223.3346 H   0  0  0  0  0  0  0  0  0  0  0  0
  137.3882   70.7262  223.7504 H   0  0  0  0  0  0  0  0  0  0  0  0
  139.8285   70.0830  221.9925 H   0  0  0  0  0  0  0  0  0  0  0  0
  138.2733   70.7035  221.4065 H   0  0  0  0  0  0  0  0  0  0  0  0
  136.3610   73.4750  218.7480 H   0  0  0  0  0  0  0  0  0  0  0  0
  134.9213   75.6743  219.2038 H   0  0  0  0  0  0  0  0  0  0  0  0
  134.1279   74.1518  219.7113 H   0  0  0  0  0  0  0  0  0  0  0  0
  136.0624   75.5608  221.5624 H   0  0  0  0  0  0  0  0  0  0  0  0
  134.3681   76.1272  221.4289 H   0  0  0  0  0  0  0  0  0  0  0  0
  134.0709   73.3488  221.6119 H   0  0  0  0  0  0  0  0  0  0  0  0
  133.2486   75.6887  222.9228 H   0  0  0  0  0  0  0  0  0  0  0  0
  132.8605   74.1356  223.5829 H   0  0  0  0  0  0  0  0  0  0  0  0
  135.4108   75.8627  224.1092 H   0  0  0  0  0  0  0  0  0  0  0  0
  134.3667   75.2630  225.3446 H   0  0  0  0  0  0  0  0  0  0  0  0
  136.4633   73.7118  224.8348 H   0  0  0  0  0  0  0  0  0  0  0  0
  134.9802   72.8194  224.6978 H   0  0  0  0  0  0  0  0  0  0  0  0
  136.6100   74.1210  222.6340 H   0  0  0  0  0  0  0  0  0  0  0  0
  137.2565   77.4894  222.5579 H   0  0  0  0  0  0  0  0  0  0  0  0
  138.3788   77.7684  223.8896 H   0  0  0  0  0  0  0  0  0  0  0  0
  138.6367   79.0957  221.0951 H   0  0  0  0  0  0  0  0  0  0  0  0
  137.8831   79.9092  222.4634 H   0  0  0  0  0  0  0  0  0  0  0  0
  139.4470   81.4188  223.4344 H   0  0  0  0  0  0  0  0  0  0  0  0
  141.7527   81.8890  224.2973 H   0  0  0  0  0  0  0  0  0  0  0  0
  143.5333   80.1712  224.0432 H   0  0  0  0  0  0  0  0  0  0  0  0
  143.0118   78.0033  222.9369 H   0  0  0  0  0  0  0  0  0  0  0  0
  140.7308   77.3250  220.8131 H   0  0  0  0  0  0  0  0  0  0  0  0
  141.2492   76.4208  222.2900 H   0  0  0  0  0  0  0  0  0  0  0  0
  141.4191   72.0343  223.0779 H   0  0  0  0  0  0  0  0  0  0  0  0
  140.3969   73.1838  224.0186 H   0  0  0  0  0  0  0  0  0  0  0  0
  1  2  2  0
  2  3  1  0
  3  4  2  0
  4  5  1  0
  5  6  2  0
  5  7  1  0
  7  8  1  0
  8  9  1  0
  9 10  1  0
 10 11  2  0
 11 12  1  0
 12 13  1  0
 13 14  1  0
 14 15  1  0
 15 16  1  0
 16 17  1  0
 17 18  1  0
 18 19  1  0
 19 20  1  0
 12 21  2  0
 21 22  1  0
 22 23  1  0
 23 24  1  0
 24 25  1  0
 25 26  1  0
 26 27  2  0
 27 28  1  0
 28 29  2  0
 29 30  1  0
 30 31  2  0
 31 32  1  0
 22 33  2  0
  9 34  1  0
  6  1  1  0
 33 10  1  0
 34  4  1  0
 20 16  1  0
 32 23  1  0
 31 26  1  0
  1 35  1  0
  2 36  1  0
  3 37  1  0
  6 38  1  0
  7 39  1  0
  7 40  1  0
  8 41  1  0
  8 42  1  0
 13 43  1  0
 14 44  1  0
 14 45  1  0
 15 46  1  0
 15 47  1  0
 16 48  1  6
 17 49  1  0
 17 50  1  0
 18 51  1  0
 18 52  1  0
 19 53  1  0
 19 54  1  0
 20 55  1  0
 24 56  1  0
 24 57  1  0
 25 58  1  0
 25 59  1  0
 27 60  1  0
 28 61  1  0
 29 62  1  0
 30 63  1  0
 32 64  1  0
 32 65  1  0
 34 66  1  0
 34 67  1  0
M  END
