@<TRIPOS>MOLECULE
*****
 79 84 0 0 0
SMALL
GASTEIGER

@<TRIPOS>ATOM
      1 C         142.7160   81.9720  215.1940 C.3     1  UNL1        0.0596
      2 S         142.4580   82.3200  216.9170 S.O2    1  UNL1       -0.0059
      3 O         143.6690   83.0800  217.4280 O.2     1  UNL1       -0.1696
      4 O         141.2070   83.1670  217.0680 O.2     1  UNL1       -0.1696
      5 C         142.3250   80.8650  217.8760 C.ar    1  UNL1        0.0879
      6 C         142.5700   79.6050  217.3740 C.ar    1  UNL1       -0.0366
      7 C         142.4550   78.4750  218.1550 C.ar    1  UNL1       -0.0565
      8 C         142.0820   78.6420  219.4780 C.ar    1  UNL1       -0.0441
      9 C         141.9230   77.5070  220.4230 C.3     1  UNL1       -0.0130
     10 C         141.7730   76.2130  219.6480 C.3     1  UNL1       -0.0303
     11 C         141.7890   75.0920  220.6610 C.3     1  UNL1        0.0154
     12 N         140.7530   75.2900  221.6760 N.pl3   1  UNL1       -0.2995
     13 C         139.7900   74.2810  221.9710 C.ar    1  UNL1        0.2237
     14 N         138.5140   74.3780  221.5580 N.ar    1  UNL1       -0.1809
     15 C         137.5880   73.4290  221.8340 C.ar    1  UNL1        0.2213
     16 N         136.2450   73.5510  221.3790 N.pl3   1  UNL1       -0.3105
     17 C         135.2680   74.3710  222.0470 C.3     1  UNL1        0.0234
     18 C         134.1340   73.5730  222.6290 C.3     1  UNL1       -0.0331
     19 C         134.4750   72.9940  223.9830 C.3     1  UNL1       -0.0361
     20 C         135.0280   74.0430  224.9190 C.3     1  UNL1        0.0050
     21 N         134.3200   74.1710  226.1520 N.3     1  UNL1       -0.3272
     22 C         135.0820   75.4040  224.2530 C.3     1  UNL1       -0.0361
     23 C         135.9570   75.2620  223.0510 C.3     1  UNL1       -0.0331
     24 N         137.9900   72.3490  222.5560 N.ar    1  UNL1       -0.1809
     25 C         139.2570   72.2150  222.9880 C.ar    1  UNL1        0.2240
     26 N         139.6460   71.0710  223.7420 N.pl3   1  UNL1       -0.2948
     27 C         138.8400   69.8900  223.6320 C.3     1  UNL1        0.0192
     28 C         139.1850   68.8030  224.5970 C.3     1  UNL1       -0.0115
     29 C         139.7500   69.3050  225.8750 C.ar    1  UNL1       -0.0412
     30 C         139.4560   68.6210  227.0180 C.ar    1  UNL1       -0.0582
     31 C         139.9970   69.1100  228.2090 C.ar    1  UNL1       -0.0615
     32 C         140.7890   70.2310  228.2120 C.ar    1  UNL1       -0.0614
     33 C         141.0750   70.9080  227.0470 C.ar    1  UNL1       -0.0568
     34 C         140.5480   70.4350  225.8730 C.ar    1  UNL1       -0.0269
     35 C         140.8290   71.1330  224.5850 C.3     1  UNL1        0.0402
     36 N         140.1420   73.2050  222.6780 N.ar    1  UNL1       -0.1807
     37 C         140.7660   76.5670  222.3610 C.3     1  UNL1        0.0154
     38 C         140.7360   77.6690  221.3190 C.3     1  UNL1       -0.0303
     39 C         141.8270   79.9120  220.0090 C.ar    1  UNL1       -0.0565
     40 C         141.9470   81.0320  219.2120 C.ar    1  UNL1       -0.0366
     41 H         143.3683   81.0922  215.0913 H       1  UNL1        0.0468
     42 H         141.7483   81.7692  214.7120 H       1  UNL1        0.0468
     43 H         143.1912   82.8391  214.7120 H       1  UNL1        0.0468
     44 H         142.8658   79.4981  216.3199 H       1  UNL1        0.0637
     45 H         142.6527   77.4750  217.7415 H       1  UNL1        0.0621
     46 H         142.8246   77.4856  221.0528 H       1  UNL1        0.0350
     47 H         140.8216   76.2106  219.0958 H       1  UNL1        0.0286
     48 H         142.5859   76.0950  218.9164 H       1  UNL1        0.0286
     49 H         141.6095   74.1375  220.1446 H       1  UNL1        0.0465
     50 H         142.7703   75.0815  221.1579 H       1  UNL1        0.0465
     51 H         135.9760   73.0160  220.5220 H       1  UNL1        0.1492
     52 H         134.7844   75.0178  221.3002 H       1  UNL1        0.0498
     53 H         133.8929   72.7482  221.9422 H       1  UNL1        0.0284
     54 H         133.2777   74.2510  222.7592 H       1  UNL1        0.0284
     55 H         135.2267   72.2017  223.8523 H       1  UNL1        0.0281
     56 H         133.5512   72.5936  224.4260 H       1  UNL1        0.0281
     57 H         136.0400   73.6842  225.1580 H       1  UNL1        0.0458
     58 H         134.3810   73.3310  226.7530 H       1  UNL1        0.1185
     59 H         134.4920   75.0520  226.6810 H       1  UNL1        0.1185
     60 H         135.5059   76.1473  224.9443 H       1  UNL1        0.0281
     61 H         134.0752   75.7451  223.9701 H       1  UNL1        0.0281
     62 H         136.9176   74.8136  223.3445 H       1  UNL1        0.0284
     63 H         136.1423   76.2508  222.6062 H       1  UNL1        0.0284
     64 H         137.7908   70.1752  223.7988 H       1  UNL1        0.0468
     65 H         139.0248   69.4819  222.6274 H       1  UNL1        0.0468
     66 H         138.2715   68.2323  224.8202 H       1  UNL1        0.0328
     67 H         139.9587   68.1816  224.1224 H       1  UNL1        0.0328
     68 H         138.8204   67.7233  227.0023 H       1  UNL1        0.0620
     69 H         139.7860   68.5908  229.1555 H       1  UNL1        0.0618
     70 H         141.2034   70.5959  229.1634 H       1  UNL1        0.0618
     71 H         141.7104   71.8058  227.0583 H       1  UNL1        0.0621
     72 H         141.0848   72.1842  224.7839 H       1  UNL1        0.0514
     73 H         141.6729   70.6449  224.0756 H       1  UNL1        0.0514
     74 H         139.8838   76.6479  223.0130 H       1  UNL1        0.0465
     75 H         141.6717   76.6554  222.9790 H       1  UNL1        0.0465
     76 H         139.8116   77.5952  220.7273 H       1  UNL1        0.0286
     77 H         140.7656   78.6530  221.8099 H       1  UNL1        0.0286
     78 H         141.5305   80.0172  221.0631 H       1  UNL1        0.0621
     79 H         141.7496   82.0348  219.6188 H       1  UNL1        0.0637
@<TRIPOS>BOND
     1     1     2    1
     2     2     3    2
     3     2     4    2
     4     2     5    1
     5     5     6   ar
     6     6     7   ar
     7     7     8   ar
     8     8     9    1
     9     9    10    1
    10    10    11    1
    11    11    12    1
    12    12    13    1
    13    13    14   ar
    14    14    15   ar
    15    15    16    1
    16    16    17    1
    17    17    18    1
    18    18    19    1
    19    19    20    1
    20    20    21    1
    21    20    22    1
    22    22    23    1
    23    15    24   ar
    24    24    25   ar
    25    25    26    1
    26    26    27    1
    27    27    28    1
    28    28    29    1
    29    29    30   ar
    30    30    31   ar
    31    31    32   ar
    32    32    33   ar
    33    33    34   ar
    34    34    35    1
    35    25    36   ar
    36    12    37    1
    37    37    38    1
    38     8    39   ar
    39    39    40   ar
    40    40     5   ar
    41    38     9    1
    42    36    13   ar
    43    23    17    1
    44    35    26    1
    45    34    29   ar
    46     1    41    1
    47     1    42    1
    48     1    43    1
    49     6    44    1
    50     7    45    1
    51     9    46    1
    52    10    47    1
    53    10    48    1
    54    11    49    1
    55    11    50    1
    56    16    51    1
    57    17    52    1
    58    18    53    1
    59    18    54    1
    60    19    55    1
    61    19    56    1
    62    20    57    1
    63    21    58    1
    64    21    59    1
    65    22    60    1
    66    22    61    1
    67    23    62    1
    68    23    63    1
    69    27    64    1
    70    27    65    1
    71    28    66    1
    72    28    67    1
    73    30    68    1
    74    31    69    1
    75    32    70    1
    76    33    71    1
    77    35    72    1
    78    35    73    1
    79    37    74    1
    80    37    75    1
    81    38    76    1
    82    38    77    1
    83    39    78    1
    84    40    79    1
