
 61 64  0  0  1  0  0  0  0  0999 V2000
  141.7800   78.9160  224.1530 C   0  0  0  0  0  0  0  0  0  0  0  0
  141.9440   79.1370  222.6590 C   0  0  1  0  0  0  0  0  0  0  0  0
  141.3440   78.0520  221.8990 N   0  0  0  0  0  0  0  0  0  0  0  0
  141.4780   77.9280  220.4890 C   0  0  0  0  0  0  0  0  0  0  0  0
  142.1330   78.7560  219.7980 O   0  0  0  0  0  0  0  0  0  0  0  0
  140.8050   76.7620  219.8520 C   0  0  1  0  0  0  0  0  0  0  0  0
  141.8370   76.1090  218.9630 C   0  0  0  0  0  0  0  0  0  0  0  0
  142.9420   75.6100  219.8720 C   0  0  0  0  0  0  0  0  0  0  0  0
  142.3440   74.5140  220.7270 C   0  0  0  0  0  0  0  0  0  0  0  0
  141.2090   75.0260  221.5760 C   0  0  0  0  0  0  0  0  0  0  0  0
  140.2730   75.8370  220.8330 N   0  0  0  0  0  0  0  0  0  0  0  0
  138.8690   75.7000  221.0830 C   0  0  0  0  0  0  0  0  0  0  0  0
  138.2250   76.7010  221.4180 O   0  0  0  0  0  0  0  0  0  0  0  0
  138.2980   74.3360  220.9160 C   0  0  0  0  0  0  0  0  0  0  0  0
  138.6170   73.4330  221.9800 N   0  0  0  0  0  0  0  0  0  0  0  0
  138.8330   72.0450  221.7730 C   0  0  0  0  0  0  0  0  0  0  0  0
  138.7460   71.5650  220.6200 O   0  0  0  0  0  0  0  0  0  0  0  0
  139.1580   71.2010  222.9420 C   0  0  0  0  0  0  0  0  0  0  0  0
  138.8530   69.8560  222.9290 C   0  0  0  0  0  0  0  0  0  0  0  0
  139.1380   69.0310  224.0040 C   0  0  0  0  0  0  0  0  0  0  0  0
  139.7500   69.5880  225.1220 C   0  0  0  0  0  0  0  0  0  0  0  0
  140.0690   68.8420  226.2330 C   0  0  0  0  0  0  0  0  0  0  0  0
  140.6770   69.3980  227.3410 C   0  0  0  0  0  0  0  0  0  0  0  0
  141.0630   68.4160  228.7270 Cl  0  0  0  0  0  0  0  0  0  0  0  0
  140.9580   70.7480  227.3000 C   0  0  0  0  0  0  0  0  0  0  0  0
  140.6550   71.5420  226.1990 C   0  0  0  0  0  0  0  0  0  0  0  0
  140.0470   70.9500  225.1080 C   0  0  0  0  0  0  0  0  0  0  0  0
  139.7440   71.7150  224.0250 N   0  0  0  0  0  0  0  0  0  0  0  0
  141.2350   80.4000  222.3250 C   0  0  0  0  0  0  0  0  0  0  0  0
  139.9060   80.5970  222.6590 C   0  0  0  0  0  0  0  0  0  0  0  0
  139.2620   81.7900  222.3330 C   0  0  0  0  0  0  0  0  0  0  0  0
  139.9480   82.7880  221.6720 C   0  0  0  0  0  0  0  0  0  0  0  0
  141.2730   82.6150  221.3280 C   0  0  0  0  0  0  0  0  0  0  0  0
  141.8880   81.4180  221.6650 C   0  0  0  0  0  0  0  0  0  0  0  0
  142.3482   79.6817  224.7015 H   0  0  0  0  0  0  0  0  0  0  0  0
  140.7153   78.9884  224.4197 H   0  0  0  0  0  0  0  0  0  0  0  0
  142.1578   77.9179  224.4197 H   0  0  0  0  0  0  0  0  0  0  0  0
  143.0135   79.1819  222.4058 H   0  0  0  0  0  0  0  0  0  0  0  0
  140.8030   77.3530  222.4520 H   0  0  0  0  0  0  0  0  0  0  0  0
  139.9330   77.0885  219.2663 H   0  0  0  0  0  0  0  0  0  0  0  0
  141.3876   75.2675  218.4154 H   0  0  0  0  0  0  0  0  0  0  0  0
  142.2268   76.8209  218.2205 H   0  0  0  0  0  0  0  0  0  0  0  0
  143.7740   75.2114  219.2729 H   0  0  0  0  0  0  0  0  0  0  0  0
  143.3381   76.4250  220.4956 H   0  0  0  0  0  0  0  0  0  0  0  0
  141.9665   73.7159  220.0708 H   0  0  0  0  0  0  0  0  0  0  0  0
  143.1295   74.1348  221.3972 H   0  0  0  0  0  0  0  0  0  0  0  0
  140.6698   74.1649  221.9976 H   0  0  0  0  0  0  0  0  0  0  0  0
  141.6447   75.6607  222.3617 H   0  0  0  0  0  0  0  0  0  0  0  0
  137.2033   74.4251  220.8555 H   0  0  0  0  0  0  0  0  0  0  0  0
  138.7422   73.9167  220.0012 H   0  0  0  0  0  0  0  0  0  0  0  0
  138.6990   73.8000  222.9670 H   0  0  0  0  0  0  0  0  0  0  0  0
  138.3695   69.4264  222.0392 H   0  0  0  0  0  0  0  0  0  0  0  0
  138.8864   67.9606  223.9745 H   0  0  0  0  0  0  0  0  0  0  0  0
  139.8320   67.7678  226.2388 H   0  0  0  0  0  0  0  0  0  0  0  0
  141.4403   71.2145  228.1717 H   0  0  0  0  0  0  0  0  0  0  0  0
  140.8936   72.6158  226.1966 H   0  0  0  0  0  0  0  0  0  0  0  0
  139.3532   79.8055  223.1862 H   0  0  0  0  0  0  0  0  0  0  0  0
  138.2057   81.9356  222.6032 H   0  0  0  0  0  0  0  0  0  0  0  0
  139.4354   83.7275  221.4176 H   0  0  0  0  0  0  0  0  0  0  0  0
  141.8271   83.4054  220.8005 H   0  0  0  0  0  0  0  0  0  0  0  0
  142.9443   81.2752  221.3931 H   0  0  0  0  0  0  0  0  0  0  0  0
  1  2  1  0
  2  3  1  0
  3  4  1  0
  4  5  2  0
  4  6  1  0
  6  7  1  0
  7  8  1  0
  8  9  1  0
  9 10  1  0
 10 11  1  0
 11 12  1  0
 12 13  2  0
 12 14  1  0
 14 15  1  0
 15 16  1  0
 16 17  2  0
 16 18  1  0
 18 19  2  0
 19 20  1  0
 20 21  2  0
 21 22  1  0
 22 23  2  0
 23 24  1  0
 23 25  1  0
 25 26  2  0
 26 27  1  0
 27 28  2  0
  2 29  1  0
 29 30  2  0
 30 31  1  0
 31 32  2  0
 32 33  1  0
 33 34  2  0
 11  6  1  0
 28 18  1  0
 34 29  1  0
 27 21  1  0
  1 35  1  0
  1 36  1  0
  1 37  1  0
  2 38  1  1
  3 39  1  0
  6 40  1  6
  7 41  1  0
  7 42  1  0
  8 43  1  0
  8 44  1  0
  9 45  1  0
  9 46  1  0
 10 47  1  0
 10 48  1  0
 14 49  1  0
 14 50  1  0
 15 51  1  0
 19 52  1  0
 20 53  1  0
 22 54  1  0
 25 55  1  0
 26 56  1  0
 30 57  1  0
 31 58  1  0
 32 59  1  0
 33 60  1  0
 34 61  1  0
M  END
