
     RDKit          3D

 46 49  0  0  0  0  0  0  0  0999 V2000
  139.9360   70.7740  221.4170 O   0  0  0  0  0  0  0  0  0  0  0  0
  139.9330   71.3050  222.5740 C   0  0  0  0  0  0  0  0  0  0  0  0
  139.9530   72.7140  222.6270 N   0  0  0  0  0  0  0  0  0  0  0  0
  139.9740   73.4320  221.3580 C   0  0  0  0  0  0  0  0  0  0  0  0
  139.6140   74.8410  221.5310 C   0  0  0  0  0  0  0  0  0  0  0  0
  138.6040   75.2480  222.1790 O   0  0  0  0  0  0  0  0  0  0  0  0
  140.4320   75.8350  220.9440 N   0  0  0  0  0  0  0  0  0  0  0  0
  141.8480   75.6730  220.5860 C   0  0  0  0  0  0  0  0  0  0  0  0
  141.9340   76.4200  219.2810 C   0  0  0  0  0  0  0  0  0  0  0  0
  140.6580   77.2350  219.1450 C   0  0  0  0  0  0  0  0  0  0  0  0
  140.1180   77.1990  220.5600 C   0  0  2  0  0  0  0  0  0  0  0  0
  140.8650   78.1740  221.4180 C   0  0  0  0  0  0  0  0  0  0  0  0
  140.9450   77.8830  222.7280 N   0  0  0  0  0  0  0  0  0  0  0  0
  141.6030   78.7200  223.5550 C   0  0  0  0  0  0  0  0  0  0  0  0
  142.1870   79.8600  223.0690 C   0  0  0  0  0  0  0  0  0  0  0  0
  143.0290   80.9230  224.1570 Cl  0  0  0  0  0  0  0  0  0  0  0  0
  142.0830   80.1260  221.7230 C   0  0  0  0  0  0  0  0  0  0  0  0
  141.4280   79.2950  220.8880 N   0  0  0  0  0  0  0  0  0  0  0  0
  139.9110   70.4820  223.7790 C   0  0  0  0  0  0  0  0  0  0  0  0
  139.2710   69.2580  223.7340 C   0  0  0  0  0  0  0  0  0  0  0  0
  139.2210   68.4400  224.8460 C   0  0  0  0  0  0  0  0  0  0  0  0
  139.8230   68.8530  226.0370 C   0  0  0  0  0  0  0  0  0  0  0  0
  139.8100   68.0910  227.1760 C   0  0  0  0  0  0  0  0  0  0  0  0
  140.4220   68.5340  228.3450 C   0  0  0  0  0  0  0  0  0  0  0  0
  141.0570   69.7670  228.3630 C   0  0  0  0  0  0  0  0  0  0  0  0
  141.0740   70.5480  227.2040 C   0  0  0  0  0  0  0  0  0  0  0  0
  140.4640   70.0970  226.0520 C   0  0  0  0  0  0  0  0  0  0  0  0
  140.4840   70.8570  224.9370 N   0  0  0  0  0  0  0  0  0  0  0  0
  139.9510   73.1910  223.5540 H   0  0  0  0  0  0  0  0  0  0  0  0
  140.9856   73.3717  220.9302 H   0  0  0  0  0  0  0  0  0  0  0  0
  139.2361   72.9677  220.6872 H   0  0  0  0  0  0  0  0  0  0  0  0
  142.5052   76.1209  221.3459 H   0  0  0  0  0  0  0  0  0  0  0  0
  142.1682   74.6230  220.5155 H   0  0  0  0  0  0  0  0  0  0  0  0
  142.8087   77.0871  219.2855 H   0  0  0  0  0  0  0  0  0  0  0  0
  142.0434   75.7220  218.4379 H   0  0  0  0  0  0  0  0  0  0  0  0
  140.8724   78.2650  218.8238 H   0  0  0  0  0  0  0  0  0  0  0  0
  139.9585   76.8465  218.3902 H   0  0  0  0  0  0  0  0  0  0  0  0
  139.0543   77.4624  220.6561 H   0  0  0  0  0  0  0  0  0  0  0  0
  141.6715   78.4859  224.6276 H   0  0  0  0  0  0  0  0  0  0  0  0
  142.5454   81.0386  221.3188 H   0  0  0  0  0  0  0  0  0  0  0  0
  138.7942   68.9302  222.7985 H   0  0  0  0  0  0  0  0  0  0  0  0
  138.7094   67.4676  224.7939 H   0  0  0  0  0  0  0  0  0  0  0  0
  139.3073   67.1126  227.1662 H   0  0  0  0  0  0  0  0  0  0  0  0
  140.4022   67.9093  229.2502 H   0  0  0  0  0  0  0  0  0  0  0  0
  141.5431   70.1272  229.2817 H   0  0  0  0  0  0  0  0  0  0  0  0
  141.5761   71.5267  227.2106 H   0  0  0  0  0  0  0  0  0  0  0  0
  1  2  2  0
  2  3  1  0
  3  4  1  0
  4  5  1  0
  5  6  2  0
  5  7  1  0
  7  8  1  0
  8  9  1  0
  9 10  1  0
 10 11  1  0
 11 12  1  0
 12 13  2  0
 13 14  1  0
 14 15  2  0
 15 16  1  0
 15 17  1  0
 17 18  2  0
  2 19  1  0
 19 20  2  0
 20 21  1  0
 21 22  2  0
 22 23  1  0
 23 24  2  0
 24 25  1  0
 25 26  2  0
 26 27  1  0
 27 28  2  0
 11  7  1  0
 18 12  1  0
 28 19  1  0
 27 22  1  0
  3 29  1  0
  4 30  1  0
  4 31  1  0
  8 32  1  0
  8 33  1  0
  9 34  1  0
  9 35  1  0
 10 36  1  0
 10 37  1  0
 11 38  1  6
 14 39  1  0
 17 40  1  0
 20 41  1  0
 21 42  1  0
 23 43  1  0
 24 44  1  0
 25 45  1  0
 26 46  1  0
M  END
