
     RDKit          3D

 42 43  0  0  1  0  0  0  0  0999 V2000
  139.0060   78.4950  223.1190 O   0  0  0  0  0  0  0  0  0  0  0  0
  139.7860   77.7480  222.4570 C   0  0  0  0  0  0  0  0  0  0  0  0
  139.1440   76.9720  221.3420 C   0  0  0  0  0  0  0  0  0  0  0  0
  138.7000   75.6410  221.9600 C   0  0  0  0  0  0  0  0  0  0  0  0
  139.7020   74.5500  221.6390 C   0  0  0  0  0  0  0  0  0  0  0  0
  141.0300   75.0340  221.6900 O   0  0  0  0  0  0  0  0  0  0  0  0
  142.0220   74.3270  220.9830 C   0  0  0  0  0  0  0  0  0  0  0  0
  142.2340   72.9720  221.1970 C   0  0  0  0  0  0  0  0  0  0  0  0
  143.1930   72.2480  220.5250 C   0  0  0  0  0  0  0  0  0  0  0  0
  143.9800   72.9160  219.5910 C   0  0  0  0  0  0  0  0  0  0  0  0
  145.1870   71.9620  218.7580 Cl  0  0  0  0  0  0  0  0  0  0  0  0
  143.7980   74.2660  219.3510 C   0  0  0  0  0  0  0  0  0  0  0  0
  142.8200   74.9750  220.0440 C   0  0  0  0  0  0  0  0  0  0  0  0
  142.6100   76.6840  219.7230 Cl  0  0  0  0  0  0  0  0  0  0  0  0
  141.1600   77.6350  222.7270 N   0  0  0  0  0  0  0  0  0  0  0  0
  141.8210   78.3310  223.7520 N   0  0  0  0  0  0  0  0  0  0  0  0
  142.5130   79.4020  223.4630 C   0  0  0  0  0  0  0  0  0  0  0  0
  142.0290   80.3700  222.4620 C   0  0  0  0  0  0  0  0  0  0  0  0
  141.4420   81.5640  222.8330 C   0  0  0  0  0  0  0  0  0  0  0  0
  140.9890   82.4700  221.8830 C   0  0  0  0  0  0  0  0  0  0  0  0
  141.1250   82.1750  220.5350 C   0  0  0  0  0  0  0  0  0  0  0  0
  141.7170   80.9700  220.1480 C   0  0  0  0  0  0  0  0  0  0  0  0
  141.8540   80.6710  218.6870 C   0  0  0  0  0  0  0  0  0  0  0  0
  142.5600   79.5140  218.4990 F   0  0  0  0  0  0  0  0  0  0  0  0
  140.6160   80.6490  218.1090 F   0  0  0  0  0  0  0  0  0  0  0  0
  142.5400   81.7790  218.1740 F   0  0  0  0  0  0  0  0  0  0  0  0
  142.1620   80.0790  221.1190 C   0  0  0  0  0  0  0  0  0  0  0  0
  138.2757   77.5186  220.9455 H   0  0  0  0  0  0  0  0  0  0  0  0
  139.8397   76.8169  220.5042 H   0  0  0  0  0  0  0  0  0  0  0  0
  138.6254   75.7550  223.0515 H   0  0  0  0  0  0  0  0  0  0  0  0
  137.7217   75.3617  221.5418 H   0  0  0  0  0  0  0  0  0  0  0  0
  139.5901   73.7357  222.3700 H   0  0  0  0  0  0  0  0  0  0  0  0
  139.5050   74.1901  220.6184 H   0  0  0  0  0  0  0  0  0  0  0  0
  141.6072   72.4531  221.9372 H   0  0  0  0  0  0  0  0  0  0  0  0
  143.3331   71.1745  220.7201 H   0  0  0  0  0  0  0  0  0  0  0  0
  144.4276   74.7811  218.6106 H   0  0  0  0  0  0  0  0  0  0  0  0
  141.7900   76.9980  222.1540 H   0  0  0  0  0  0  0  0  0  0  0  0
  143.4700   79.5834  223.9741 H   0  0  0  0  0  0  0  0  0  0  0  0
  141.3312   81.8018  223.9013 H   0  0  0  0  0  0  0  0  0  0  0  0
  140.5249   83.4162  222.1981 H   0  0  0  0  0  0  0  0  0  0  0  0
  140.7689   82.8856  219.7746 H   0  0  0  0  0  0  0  0  0  0  0  0
  142.6261   79.1299  220.8128 H   0  0  0  0  0  0  0  0  0  0  0  0
  1  2  2  0
  2  3  1  0
  3  4  1  0
  4  5  1  0
  5  6  1  0
  6  7  1  0
  7  8  2  0
  8  9  1  0
  9 10  2  0
 10 11  1  0
 10 12  1  0
 12 13  2  0
 13 14  1  0
  2 15  1  0
 15 16  1  0
 16 17  2  0
 17 18  1  0
 18 19  2  0
 19 20  1  0
 20 21  2  0
 21 22  1  0
 22 23  1  0
 23 24  1  0
 23 25  1  0
 23 26  1  0
 22 27  2  0
 13  7  1  0
 27 18  1  0
  3 28  1  0
  3 29  1  0
  4 30  1  0
  4 31  1  0
  5 32  1  0
  5 33  1  0
  8 34  1  0
  9 35  1  0
 12 36  1  0
 15 37  1  0
 17 38  1  0
 19 39  1  0
 20 40  1  0
 21 41  1  0
 27 42  1  0
M  END
>  <smiles>  (1) 
O=C(CCCOc1ccc(Cl)cc1Cl)NN=Cc1cccc(C(F)(F)F)c1

>  <score_type>  (1) 
oracle

>  <origin>  (1) 
autodockgpu

>  <m_score__min__energy>  (1) 
-7.5199999999999996

>  <m_primary>  (1) 
energy

>  <rmsd>  (1) 
9.400107484431262

>  <m_score__min__rmsd>  (1) 
9.400107484431262

>  <meeko>  (1) 
{"free_energy": -5.4, "intermolecular_energy": -8.09, "internal_energy": -2.2, "cluster_size": 1, "cluster_id": 11, "rank_in_cluster": 1}

>  <energy>  (1) 
-7.52

>  <cluster_rmsd>  (1) 
0.0

>  <cluster>  (1) 
1

$$$$

     RDKit          3D

 42 43  0  0  1  0  0  0  0  0999 V2000
  141.4030   81.6680  221.0970 O   0  0  0  0  0  0  0  0  0  0  0  0
  141.8390   80.5350  220.7330 C   0  0  0  0  0  0  0  0  0  0  0  0
  141.7640   80.2590  219.2590 C   0  0  0  0  0  0  0  0  0  0  0  0
  140.3500   79.7210  219.0050 C   0  0  0  0  0  0  0  0  0  0  0  0
  140.3290   78.2110  219.1320 C   0  0  0  0  0  0  0  0  0  0  0  0
  140.9270   77.7840  220.3410 O   0  0  0  0  0  0  0  0  0  0  0  0
  141.7980   76.6790  220.2960 C   0  0  0  0  0  0  0  0  0  0  0  0
  143.0340   76.7590  219.6720 C   0  0  0  0  0  0  0  0  0  0  0  0
  143.9130   75.7010  219.6080 C   0  0  0  0  0  0  0  0  0  0  0  0
  143.5320   74.5000  220.2000 C   0  0  0  0  0  0  0  0  0  0  0  0
  144.6750   73.1800  220.0990 Cl  0  0  0  0  0  0  0  0  0  0  0  0
  142.3080   74.3830  220.8320 C   0  0  0  0  0  0  0  0  0  0  0  0
  141.4380   75.4680  220.8820 C   0  0  0  0  0  0  0  0  0  0  0  0
  139.8920   75.2940  221.6870 Cl  0  0  0  0  0  0  0  0  0  0  0  0
  142.3610   79.5850  221.6270 N   0  0  0  0  0  0  0  0  0  0  0  0
  142.4590   79.7810  223.0150 N   0  0  0  0  0  0  0  0  0  0  0  0
  141.5480   79.2760  223.8040 C   0  0  0  0  0  0  0  0  0  0  0  0
  140.1140   79.4920  223.5410 C   0  0  0  0  0  0  0  0  0  0  0  0
  139.4940   80.6890  223.8390 C   0  0  0  0  0  0  0  0  0  0  0  0
  138.1420   80.8840  223.5870 C   0  0  0  0  0  0  0  0  0  0  0  0
  137.3960   79.8590  223.0260 C   0  0  0  0  0  0  0  0  0  0  0  0
  138.0110   78.6430  222.7210 C   0  0  0  0  0  0  0  0  0  0  0  0
  137.1870   77.5500  222.1150 C   0  0  0  0  0  0  0  0  0  0  0  0
  135.8670   77.9080  222.0800 F   0  0  0  0  0  0  0  0  0  0  0  0
  137.6920   77.2250  220.8880 F   0  0  0  0  0  0  0  0  0  0  0  0
  137.3970   76.4540  222.9620 F   0  0  0  0  0  0  0  0  0  0  0  0
  139.3670   78.4740  222.9820 C   0  0  0  0  0  0  0  0  0  0  0  0
  141.9302   81.1840  218.6873 H   0  0  0  0  0  0  0  0  0  0  0  0
  142.5335   79.5394  218.9426 H   0  0  0  0  0  0  0  0  0  0  0  0
  139.6587   80.1564  219.7416 H   0  0  0  0  0  0  0  0  0  0  0  0
  140.0403   79.9979  217.9865 H   0  0  0  0  0  0  0  0  0  0  0  0
  139.2852   77.8647  219.1077 H   0  0  0  0  0  0  0  0  0  0  0  0
  140.9020   77.7862  218.2946 H   0  0  0  0  0  0  0  0  0  0  0  0
  143.3257   77.7120  219.2065 H   0  0  0  0  0  0  0  0  0  0  0  0
  144.8859   75.8017  219.1048 H   0  0  0  0  0  0  0  0  0  0  0  0
  142.0207   73.4285  221.2972 H   0  0  0  0  0  0  0  0  0  0  0  0
  142.7190   78.6420  221.2920 H   0  0  0  0  0  0  0  0  0  0  0  0
  141.8557   78.6813  224.6767 H   0  0  0  0  0  0  0  0  0  0  0  0
  140.0824   81.5045  224.2849 H   0  0  0  0  0  0  0  0  0  0  0  0
  137.6664   81.8454  223.8310 H   0  0  0  0  0  0  0  0  0  0  0  0
  136.3247   80.0029  222.8221 H   0  0  0  0  0  0  0  0  0  0  0  0
  139.8508   77.5163  222.7397 H   0  0  0  0  0  0  0  0  0  0  0  0
  1  2  2  0
  2  3  1  0
  3  4  1  0
  4  5  1  0
  5  6  1  0
  6  7  1  0
  7  8  2  0
  8  9  1  0
  9 10  2  0
 10 11  1  0
 10 12  1  0
 12 13  2  0
 13 14  1  0
  2 15  1  0
 15 16  1  0
 16 17  2  0
 17 18  1  0
 18 19  2  0
 19 20  1  0
 20 21  2  0
 21 22  1  0
 22 23  1  0
 23 24  1  0
 23 25  1  0
 23 26  1  0
 22 27  2  0
 13  7  1  0
 27 18  1  0
  3 28  1  0
  3 29  1  0
  4 30  1  0
  4 31  1  0
  5 32  1  0
  5 33  1  0
  8 34  1  0
  9 35  1  0
 12 36  1  0
 15 37  1  0
 17 38  1  0
 19 39  1  0
 20 40  1  0
 21 41  1  0
 27 42  1  0
M  END
>  <smiles>  (2) 
O=C(CCCOc1ccc(Cl)cc1Cl)NN=Cc1cccc(C(F)(F)F)c1

>  <score_type>  (2) 
oracle

>  <origin>  (2) 
autodockgpu

>  <m_score__min__energy>  (2) 
-7.5199999999999996

>  <m_primary>  (2) 
energy

>  <rmsd>  (2) 
7.04983938071137

>  <m_score__min__rmsd>  (2) 
7.04983938071137

>  <meeko>  (2) 
{"free_energy": -4.81, "intermolecular_energy": -7.49, "internal_energy": -2.72, "cluster_size": 1, "cluster_id": 13, "rank_in_cluster": 1}

>  <energy>  (2) 
-7.44

>  <cluster_rmsd>  (2) 
1.94

>  <cluster>  (2) 
1

$$$$

     RDKit          3D

 42 43  0  0  1  0  0  0  0  0999 V2000
  140.1890   73.5770  219.7760 O   0  0  0  0  0  0  0  0  0  0  0  0
  139.4630   73.3070  220.7790 C   0  0  0  0  0  0  0  0  0  0  0  0
  138.5180   72.1540  220.5970 C   0  0  0  0  0  0  0  0  0  0  0  0
  139.2300   70.9310  221.1880 C   0  0  0  0  0  0  0  0  0  0  0  0
  140.2260   71.3600  222.2470 C   0  0  0  0  0  0  0  0  0  0  0  0
  139.5760   71.7620  223.4380 O   0  0  0  0  0  0  0  0  0  0  0  0
  139.8200   71.0210  224.6100 C   0  0  0  0  0  0  0  0  0  0  0  0
  140.8030   71.4020  225.5120 C   0  0  0  0  0  0  0  0  0  0  0  0
  141.0710   70.7030  226.6680 C   0  0  0  0  0  0  0  0  0  0  0  0
  140.3150   69.5640  226.9320 C   0  0  0  0  0  0  0  0  0  0  0  0
  140.6850   68.7050  228.4110 Cl  0  0  0  0  0  0  0  0  0  0  0  0
  139.3270   69.1540  226.0560 C   0  0  0  0  0  0  0  0  0  0  0  0
  139.0770   69.8790  224.8940 C   0  0  0  0  0  0  0  0  0  0  0  0
  137.8200   69.3380  223.7990 Cl  0  0  0  0  0  0  0  0  0  0  0  0
  139.5170   74.0220  221.9870 N   0  0  0  0  0  0  0  0  0  0  0  0
  140.3770   75.1070  222.2210 N   0  0  0  0  0  0  0  0  0  0  0  0
  139.8780   76.3070  222.3630 C   0  0  0  0  0  0  0  0  0  0  0  0
  140.5510   77.4820  221.7790 C   0  0  0  0  0  0  0  0  0  0  0  0
  140.6930   77.6320  220.4140 C   0  0  0  0  0  0  0  0  0  0  0  0
  141.3290   78.7430  219.8730 C   0  0  0  0  0  0  0  0  0  0  0  0
  141.8320   79.7210  220.7160 C   0  0  0  0  0  0  0  0  0  0  0  0
  141.6950   79.5800  222.0990 C   0  0  0  0  0  0  0  0  0  0  0  0
  142.2460   80.6490  222.9910 C   0  0  0  0  0  0  0  0  0  0  0  0
  141.8400   81.8840  222.5650 F   0  0  0  0  0  0  0  0  0  0  0  0
  141.9010   80.3830  224.2860 F   0  0  0  0  0  0  0  0  0  0  0  0
  143.6340   80.5010  222.8840 F   0  0  0  0  0  0  0  0  0  0  0  0
  141.0540   78.4580  222.6150 C   0  0  0  0  0  0  0  0  0  0  0  0
  137.5754   72.3435  221.1315 H   0  0  0  0  0  0  0  0  0  0  0  0
  138.2654   72.0018  219.5373 H   0  0  0  0  0  0  0  0  0  0  0  0
  138.4843   70.2616  221.6417 H   0  0  0  0  0  0  0  0  0  0  0  0
  139.7677   70.4078  220.3835 H   0  0  0  0  0  0  0  0  0  0  0  0
  140.8943   70.5158  222.4720 H   0  0  0  0  0  0  0  0  0  0  0  0
  140.7952   72.2173  221.8583 H   0  0  0  0  0  0  0  0  0  0  0  0
  141.3950   72.3031  225.2940 H   0  0  0  0  0  0  0  0  0  0  0  0
  141.8581   71.0344  227.3613 H   0  0  0  0  0  0  0  0  0  0  0  0
  138.7369   68.2526  226.2777 H   0  0  0  0  0  0  0  0  0  0  0  0
  138.8940   73.7710  222.8110 H   0  0  0  0  0  0  0  0  0  0  0  0
  138.9428   76.4421  222.9262 H   0  0  0  0  0  0  0  0  0  0  0  0
  140.2952   76.8575  219.7418 H   0  0  0  0  0  0  0  0  0  0  0  0
  141.4324   78.8453  218.7827 H   0  0  0  0  0  0  0  0  0  0  0  0
  142.3369   80.6044  220.2980 H   0  0  0  0  0  0  0  0  0  0  0  0
  140.9467   78.3474  223.7042 H   0  0  0  0  0  0  0  0  0  0  0  0
  1  2  2  0
  2  3  1  0
  3  4  1  0
  4  5  1  0
  5  6  1  0
  6  7  1  0
  7  8  2  0
  8  9  1  0
  9 10  2  0
 10 11  1  0
 10 12  1  0
 12 13  2  0
 13 14  1  0
  2 15  1  0
 15 16  1  0
 16 17  2  0
 17 18  1  0
 18 19  2  0
 19 20  1  0
 20 21  2  0
 21 22  1  0
 22 23  1  0
 23 24  1  0
 23 25  1  0
 23 26  1  0
 22 27  2  0
 13  7  1  0
 27 18  1  0
  3 28  1  0
  3 29  1  0
  4 30  1  0
  4 31  1  0
  5 32  1  0
  5 33  1  0
  8 34  1  0
  9 35  1  0
 12 36  1  0
 15 37  1  0
 17 38  1  0
 19 39  1  0
 20 40  1  0
 21 41  1  0
 27 42  1  0
M  END
>  <smiles>  (3) 
O=C(CCCOc1ccc(Cl)cc1Cl)NN=Cc1cccc(C(F)(F)F)c1

>  <score_type>  (3) 
oracle

>  <origin>  (3) 
autodockgpu

>  <m_score__min__energy>  (3) 
-7.5199999999999996

>  <m_primary>  (3) 
energy

>  <rmsd>  (3) 
12.658459779587798

>  <m_score__min__rmsd>  (3) 
12.658459779587798

>  <meeko>  (3) 
{"free_energy": -6.48, "intermolecular_energy": -9.16, "internal_energy": -1.46, "cluster_size": 2, "cluster_id": 4, "rank_in_cluster": 1}

>  <energy>  (3) 
-7.38

>  <cluster_rmsd>  (3) 
1.8

>  <cluster>  (3) 
1

$$$$

     RDKit          3D

 42 43  0  0  1  0  0  0  0  0999 V2000
  139.3990   72.7940  220.0250 O   0  0  0  0  0  0  0  0  0  0  0  0
  138.7290   73.3150  220.9660 C   0  0  0  0  0  0  0  0  0  0  0  0
  137.3530   73.7860  220.5920 C   0  0  0  0  0  0  0  0  0  0  0  0
  137.4830   75.2900  220.3230 C   0  0  0  0  0  0  0  0  0  0  0  0
  137.3850   76.0690  221.6200 C   0  0  0  0  0  0  0  0  0  0  0  0
  138.5760   75.9670  222.3770 O   0  0  0  0  0  0  0  0  0  0  0  0
  139.3900   77.1100  222.4920 C   0  0  0  0  0  0  0  0  0  0  0  0
  138.9310   78.2640  223.1110 C   0  0  0  0  0  0  0  0  0  0  0  0
  139.6970   79.4000  223.2420 C   0  0  0  0  0  0  0  0  0  0  0  0
  140.9890   79.3790  222.7250 C   0  0  0  0  0  0  0  0  0  0  0  0
  141.9310   80.8410  222.9120 Cl  0  0  0  0  0  0  0  0  0  0  0  0
  141.4810   78.2470  222.1020 C   0  0  0  0  0  0  0  0  0  0  0  0
  140.6850   77.1110  221.9830 C   0  0  0  0  0  0  0  0  0  0  0  0
  141.3310   75.6900  221.1870 Cl  0  0  0  0  0  0  0  0  0  0  0  0
  139.2170   73.4550  222.2760 N   0  0  0  0  0  0  0  0  0  0  0  0
  140.4920   73.0360  222.6900 N   0  0  0  0  0  0  0  0  0  0  0  0
  140.7180   71.7650  222.8950 C   0  0  0  0  0  0  0  0  0  0  0  0
  140.2440   71.1000  224.1220 C   0  0  0  0  0  0  0  0  0  0  0  0
  139.2920   70.1000  224.0840 C   0  0  0  0  0  0  0  0  0  0  0  0
  138.8520   69.4780  225.2450 C   0  0  0  0  0  0  0  0  0  0  0  0
  139.3750   69.8650  226.4690 C   0  0  0  0  0  0  0  0  0  0  0  0
  140.3390   70.8750  226.5210 C   0  0  0  0  0  0  0  0  0  0  0  0
  140.8900   71.2770  227.8540 C   0  0  0  0  0  0  0  0  0  0  0  0
  141.7990   72.2900  227.7100 F   0  0  0  0  0  0  0  0  0  0  0  0
  139.8620   71.5890  228.6970 F   0  0  0  0  0  0  0  0  0  0  0  0
  141.4960   70.1110  228.3390 F   0  0  0  0  0  0  0  0  0  0  0  0
  140.7630   71.4820  225.3430 C   0  0  0  0  0  0  0  0  0  0  0  0
  137.0022   73.2646  219.6891 H   0  0  0  0  0  0  0  0  0  0  0  0
  136.6244   73.5797  221.3899 H   0  0  0  0  0  0  0  0  0  0  0  0
  138.4565   75.4912  219.8520 H   0  0  0  0  0  0  0  0  0  0  0  0
  136.6678   75.6049  219.6550 H   0  0  0  0  0  0  0  0  0  0  0  0
  137.1986   77.1279  221.3878 H   0  0  0  0  0  0  0  0  0  0  0  0
  136.5609   75.6477  222.2144 H   0  0  0  0  0  0  0  0  0  0  0  0
  137.9081   78.2712  223.5155 H   0  0  0  0  0  0  0  0  0  0  0  0
  139.3002   80.2970  223.7400 H   0  0  0  0  0  0  0  0  0  0  0  0
  142.5046   78.2439  221.6991 H   0  0  0  0  0  0  0  0  0  0  0  0
  138.6300   73.8980  223.0440 H   0  0  0  0  0  0  0  0  0  0  0  0
  141.2695   71.1837  222.1414 H   0  0  0  0  0  0  0  0  0  0  0  0
  138.8741   69.7901  223.1148 H   0  0  0  0  0  0  0  0  0  0  0  0
  138.0933   68.6832  225.1937 H   0  0  0  0  0  0  0  0  0  0  0  0
  139.0328   69.3793  227.3947 H   0  0  0  0  0  0  0  0  0  0  0  0
  141.5220   72.2771  225.3851 H   0  0  0  0  0  0  0  0  0  0  0  0
  1  2  2  0
  2  3  1  0
  3  4  1  0
  4  5  1  0
  5  6  1  0
  6  7  1  0
  7  8  2  0
  8  9  1  0
  9 10  2  0
 10 11  1  0
 10 12  1  0
 12 13  2  0
 13 14  1  0
  2 15  1  0
 15 16  1  0
 16 17  2  0
 17 18  1  0
 18 19  2  0
 19 20  1  0
 20 21  2  0
 21 22  1  0
 22 23  1  0
 23 24  1  0
 23 25  1  0
 23 26  1  0
 22 27  2  0
 13  7  1  0
 27 18  1  0
  3 28  1  0
  3 29  1  0
  4 30  1  0
  4 31  1  0
  5 32  1  0
  5 33  1  0
  8 34  1  0
  9 35  1  0
 12 36  1  0
 15 37  1  0
 17 38  1  0
 19 39  1  0
 20 40  1  0
 21 41  1  0
 27 42  1  0
M  END
>  <smiles>  (4) 
O=C(CCCOc1ccc(Cl)cc1Cl)NN=Cc1cccc(C(F)(F)F)c1

>  <score_type>  (4) 
oracle

>  <origin>  (4) 
autodockgpu

>  <m_score__min__energy>  (4) 
-7.5199999999999996

>  <m_primary>  (4) 
energy

>  <rmsd>  (4) 
6.041286753784111

>  <m_score__min__rmsd>  (4) 
6.041286753784111

>  <meeko>  (4) 
{"free_energy": -6.36, "intermolecular_energy": -9.04, "internal_energy": -1.79, "cluster_size": 15, "cluster_id": 1, "rank_in_cluster": 14}

>  <energy>  (4) 
-7.35

>  <cluster_rmsd>  (4) 
1.14

>  <cluster>  (4) 
1

$$$$

     RDKit          3D

 42 43  0  0  1  0  0  0  0  0999 V2000
  141.1640   73.5370  221.8740 O   0  0  0  0  0  0  0  0  0  0  0  0
  139.9120   73.6750  222.0040 C   0  0  0  0  0  0  0  0  0  0  0  0
  139.3250   74.8880  221.3430 C   0  0  0  0  0  0  0  0  0  0  0  0
  139.1220   75.9180  222.4600 C   0  0  0  0  0  0  0  0  0  0  0  0
  137.9230   76.7950  222.1600 C   0  0  0  0  0  0  0  0  0  0  0  0
  138.3150   78.0480  221.6330 O   0  0  0  0  0  0  0  0  0  0  0  0
  139.4910   78.6390  222.1310 C   0  0  0  0  0  0  0  0  0  0  0  0
  139.5010   79.3160  223.3420 C   0  0  0  0  0  0  0  0  0  0  0  0
  140.6310   79.9060  223.8620 C   0  0  0  0  0  0  0  0  0  0  0  0
  141.8110   79.8140  223.1290 C   0  0  0  0  0  0  0  0  0  0  0  0
  143.2260   80.5770  223.8220 Cl  0  0  0  0  0  0  0  0  0  0  0  0
  141.8400   79.1470  221.9180 C   0  0  0  0  0  0  0  0  0  0  0  0
  140.6830   78.5590  221.4160 C   0  0  0  0  0  0  0  0  0  0  0  0
  140.7440   77.7210  219.8780 Cl  0  0  0  0  0  0  0  0  0  0  0  0
  139.1050   72.7690  222.7150 N   0  0  0  0  0  0  0  0  0  0  0  0
  139.5910   71.6170  223.3550 N   0  0  0  0  0  0  0  0  0  0  0  0
  140.6980   71.6820  224.0480 C   0  0  0  0  0  0  0  0  0  0  0  0
  140.7500   71.1960  225.4380 C   0  0  0  0  0  0  0  0  0  0  0  0
  141.0000   72.0490  226.4960 C   0  0  0  0  0  0  0  0  0  0  0  0
  141.0480   71.5820  227.8030 C   0  0  0  0  0  0  0  0  0  0  0  0
  140.8420   70.2350  228.0560 C   0  0  0  0  0  0  0  0  0  0  0  0
  140.5890   69.3620  226.9950 C   0  0  0  0  0  0  0  0  0  0  0  0
  140.3690   67.9110  227.2920 C   0  0  0  0  0  0  0  0  0  0  0  0
  139.1210   67.5240  226.8870 F   0  0  0  0  0  0  0  0  0  0  0  0
  141.3720   67.1740  226.7290 F   0  0  0  0  0  0  0  0  0  0  0  0
  140.5070   67.8210  228.6820 F   0  0  0  0  0  0  0  0  0  0  0  0
  140.5460   69.8550  225.6950 C   0  0  0  0  0  0  0  0  0  0  0  0
  140.0150   75.2804  220.5814 H   0  0  0  0  0  0  0  0  0  0  0  0
  138.3788   74.6525  220.8338 H   0  0  0  0  0  0  0  0  0  0  0  0
  138.9570   75.3922  223.4120 H   0  0  0  0  0  0  0  0  0  0  0  0
  140.0187   76.5514  222.5279 H   0  0  0  0  0  0  0  0  0  0  0  0
  137.2812   76.2842  221.4271 H   0  0  0  0  0  0  0  0  0  0  0  0
  137.3807   76.9711  223.1007 H   0  0  0  0  0  0  0  0  0  0  0  0
  138.5632   79.3845  223.9128 H   0  0  0  0  0  0  0  0  0  0  0  0
  140.6024   80.4337  224.8267 H   0  0  0  0  0  0  0  0  0  0  0  0
  142.7798   79.0811  221.3502 H   0  0  0  0  0  0  0  0  0  0  0  0
  138.0560   72.9120  222.8070 H   0  0  0  0  0  0  0  0  0  0  0  0
  141.6026   72.1052  223.5870 H   0  0  0  0  0  0  0  0  0  0  0  0
  141.1642   73.1187  226.2991 H   0  0  0  0  0  0  0  0  0  0  0  0
  141.2482   72.2767  228.6321 H   0  0  0  0  0  0  0  0  0  0  0  0
  140.8775   69.8549  229.0876 H   0  0  0  0  0  0  0  0  0  0  0  0
  140.3467   69.1669  224.8603 H   0  0  0  0  0  0  0  0  0  0  0  0
  1  2  2  0
  2  3  1  0
  3  4  1  0
  4  5  1  0
  5  6  1  0
  6  7  1  0
  7  8  2  0
  8  9  1  0
  9 10  2  0
 10 11  1  0
 10 12  1  0
 12 13  2  0
 13 14  1  0
  2 15  1  0
 15 16  1  0
 16 17  2  0
 17 18  1  0
 18 19  2  0
 19 20  1  0
 20 21  2  0
 21 22  1  0
 22 23  1  0
 23 24  1  0
 23 25  1  0
 23 26  1  0
 22 27  2  0
 13  7  1  0
 27 18  1  0
  3 28  1  0
  3 29  1  0
  4 30  1  0
  4 31  1  0
  5 32  1  0
  5 33  1  0
  8 34  1  0
  9 35  1  0
 12 36  1  0
 15 37  1  0
 17 38  1  0
 19 39  1  0
 20 40  1  0
 21 41  1  0
 27 42  1  0
M  END
>  <smiles>  (5) 
O=C(CCCOc1ccc(Cl)cc1Cl)NN=Cc1cccc(C(F)(F)F)c1

>  <score_type>  (5) 
oracle

>  <origin>  (5) 
autodockgpu

>  <m_score__min__energy>  (5) 
-7.5199999999999996

>  <m_primary>  (5) 
energy

>  <rmsd>  (5) 
5.383514081673146

>  <m_score__min__rmsd>  (5) 
5.383514081673146

>  <meeko>  (5) 
{"free_energy": -7.12, "intermolecular_energy": -9.81, "internal_energy": -0.72, "cluster_size": 5, "cluster_id": 3, "rank_in_cluster": 1}

>  <energy>  (5) 
-7.08

>  <cluster_rmsd>  (5) 
1.51

>  <cluster>  (5) 
1

$$$$

     RDKit          3D

 42 43  0  0  1  0  0  0  0  0999 V2000
  140.3550   74.9480  220.4430 O   0  0  0  0  0  0  0  0  0  0  0  0
  139.4210   74.7830  221.2830 C   0  0  0  0  0  0  0  0  0  0  0  0
  138.2120   75.6500  221.0810 C   0  0  0  0  0  0  0  0  0  0  0  0
  137.2190   75.2460  222.1780 C   0  0  0  0  0  0  0  0  0  0  0  0
  136.5470   73.9340  221.8250 C   0  0  0  0  0  0  0  0  0  0  0  0
  136.7590   72.9580  222.8270 O   0  0  0  0  0  0  0  0  0  0  0  0
  135.7990   72.8370  223.8500 C   0  0  0  0  0  0  0  0  0  0  0  0
  135.2500   73.9560  224.4590 C   0  0  0  0  0  0  0  0  0  0  0  0
  134.3100   73.8780  225.4620 C   0  0  0  0  0  0  0  0  0  0  0  0
  133.9000   72.6140  225.8750 C   0  0  0  0  0  0  0  0  0  0  0  0
  132.7030   72.5560  227.1510 Cl  0  0  0  0  0  0  0  0  0  0  0  0
  134.4240   71.4760  225.2910 C   0  0  0  0  0  0  0  0  0  0  0  0
  135.3740   71.5830  224.2780 C   0  0  0  0  0  0  0  0  0  0  0  0
  136.0250   70.1260  223.5550 Cl  0  0  0  0  0  0  0  0  0  0  0  0
  139.4880   73.8590  222.3400 N   0  0  0  0  0  0  0  0  0  0  0  0
  140.5880   73.0200  222.5840 N   0  0  0  0  0  0  0  0  0  0  0  0
  140.4050   71.7300  222.6860 C   0  0  0  0  0  0  0  0  0  0  0  0
  140.1240   71.1050  223.9910 C   0  0  0  0  0  0  0  0  0  0  0  0
  139.3600   69.9600  224.0980 C   0  0  0  0  0  0  0  0  0  0  0  0
  139.1000   69.3780  225.3330 C   0  0  0  0  0  0  0  0  0  0  0  0
  139.6160   69.9550  226.4820 C   0  0  0  0  0  0  0  0  0  0  0  0
  140.3900   71.1140  226.3880 C   0  0  0  0  0  0  0  0  0  0  0  0
  140.9370   71.7200  227.6430 C   0  0  0  0  0  0  0  0  0  0  0  0
  141.9140   72.6320  227.3480 F   0  0  0  0  0  0  0  0  0  0  0  0
  139.9130   72.2440  228.3800 F   0  0  0  0  0  0  0  0  0  0  0  0
  141.4530   70.6290  228.3530 F   0  0  0  0  0  0  0  0  0  0  0  0
  140.6350   71.6770  225.1390 C   0  0  0  0  0  0  0  0  0  0  0  0
  138.4814   76.7119  221.1805 H   0  0  0  0  0  0  0  0  0  0  0  0
  137.7821   75.5171  220.0773 H   0  0  0  0  0  0  0  0  0  0  0  0
  137.7574   75.1327  223.1305 H   0  0  0  0  0  0  0  0  0  0  0  0
  136.4503   76.0276  222.2691 H   0  0  0  0  0  0  0  0  0  0  0  0
  135.4659   74.1043  221.7146 H   0  0  0  0  0  0  0  0  0  0  0  0
  136.9826   73.5645  220.8849 H   0  0  0  0  0  0  0  0  0  0  0  0
  135.5807   74.9507  224.1255 H   0  0  0  0  0  0  0  0  0  0  0  0
  133.8958   74.7870  225.9227 H   0  0  0  0  0  0  0  0  0  0  0  0
  134.0899   70.4833  225.6271 H   0  0  0  0  0  0  0  0  0  0  0  0
  138.6880   73.7440  223.0300 H   0  0  0  0  0  0  0  0  0  0  0  0
  140.4615   71.1016  221.7850 H   0  0  0  0  0  0  0  0  0  0  0  0
  138.9489   69.4992  223.1877 H   0  0  0  0  0  0  0  0  0  0  0  0
  138.4889   68.4657  225.3977 H   0  0  0  0  0  0  0  0  0  0  0  0
  139.4169   69.5022  227.4645 H   0  0  0  0  0  0  0  0  0  0  0  0
  141.2440   72.5901  225.0655 H   0  0  0  0  0  0  0  0  0  0  0  0
  1  2  2  0
  2  3  1  0
  3  4  1  0
  4  5  1  0
  5  6  1  0
  6  7  1  0
  7  8  2  0
  8  9  1  0
  9 10  2  0
 10 11  1  0
 10 12  1  0
 12 13  2  0
 13 14  1  0
  2 15  1  0
 15 16  1  0
 16 17  2  0
 17 18  1  0
 18 19  2  0
 19 20  1  0
 20 21  2  0
 21 22  1  0
 22 23  1  0
 23 24  1  0
 23 25  1  0
 23 26  1  0
 22 27  2  0
 13  7  1  0
 27 18  1  0
  3 28  1  0
  3 29  1  0
  4 30  1  0
  4 31  1  0
  5 32  1  0
  5 33  1  0
  8 34  1  0
  9 35  1  0
 12 36  1  0
 15 37  1  0
 17 38  1  0
 19 39  1  0
 20 40  1  0
 21 41  1  0
 27 42  1  0
M  END
>  <smiles>  (6) 
O=C(CCCOc1ccc(Cl)cc1Cl)NN=Cc1cccc(C(F)(F)F)c1

>  <score_type>  (6) 
oracle

>  <origin>  (6) 
autodockgpu

>  <m_score__min__energy>  (6) 
-7.5199999999999996

>  <m_primary>  (6) 
energy

>  <rmsd>  (6) 
11.142567081547368

>  <m_score__min__rmsd>  (6) 
11.142567081547368

>  <meeko>  (6) 
{"free_energy": -5.6, "intermolecular_energy": -8.28, "internal_energy": -2.14, "cluster_size": 9, "cluster_id": 8, "rank_in_cluster": 6}

>  <energy>  (6) 
-7.06

>  <cluster_rmsd>  (6) 
1.12

>  <cluster>  (6) 
1

$$$$

     RDKit          3D

 42 43  0  0  1  0  0  0  0  0999 V2000
  139.7210   75.2940  222.3470 O   0  0  0  0  0  0  0  0  0  0  0  0
  140.2560   74.5820  221.4470 C   0  0  0  0  0  0  0  0  0  0  0  0
  140.3300   75.2130  220.0860 C   0  0  0  0  0  0  0  0  0  0  0  0
  141.6210   76.0400  220.0770 C   0  0  0  0  0  0  0  0  0  0  0  0
  141.3440   77.4570  220.5370 C   0  0  0  0  0  0  0  0  0  0  0  0
  141.4350   77.5730  221.9440 O   0  0  0  0  0  0  0  0  0  0  0  0
  140.5630   78.4660  222.5950 C   0  0  0  0  0  0  0  0  0  0  0  0
  139.2000   78.2160  222.6730 C   0  0  0  0  0  0  0  0  0  0  0  0
  138.3160   79.0650  223.3000 C   0  0  0  0  0  0  0  0  0  0  0  0
  138.8250   80.2240  223.8780 C   0  0  0  0  0  0  0  0  0  0  0  0
  137.6700   81.2770  224.6670 Cl  0  0  0  0  0  0  0  0  0  0  0  0
  140.1770   80.5070  223.8210 C   0  0  0  0  0  0  0  0  0  0  0  0
  141.0490   79.6310  223.1810 C   0  0  0  0  0  0  0  0  0  0  0  0
  142.7580   80.0130  223.1200 Cl  0  0  0  0  0  0  0  0  0  0  0  0
  140.7530   73.2880  221.6790 N   0  0  0  0  0  0  0  0  0  0  0  0
  140.7150   72.6420  222.9260 N   0  0  0  0  0  0  0  0  0  0  0  0
  139.8800   71.6540  223.1150 C   0  0  0  0  0  0  0  0  0  0  0  0
  139.9120   70.8630  224.3590 C   0  0  0  0  0  0  0  0  0  0  0  0
  139.5150   69.5410  224.3880 C   0  0  0  0  0  0  0  0  0  0  0  0
  139.5490   68.8040  225.5640 C   0  0  0  0  0  0  0  0  0  0  0  0
  139.9880   69.4020  226.7350 C   0  0  0  0  0  0  0  0  0  0  0  0
  140.3920   70.7390  226.7180 C   0  0  0  0  0  0  0  0  0  0  0  0
  140.8640   71.3660  227.9940 C   0  0  0  0  0  0  0  0  0  0  0  0
  141.7540   72.3710  227.7330 F   0  0  0  0  0  0  0  0  0  0  0  0
  139.7850   71.7750  228.7260 F   0  0  0  0  0  0  0  0  0  0  0  0
  141.4710   70.3120  228.6890 F   0  0  0  0  0  0  0  0  0  0  0  0
  140.3490   71.4560  225.5270 C   0  0  0  0  0  0  0  0  0  0  0  0
  140.3664   74.4380  219.3062 H   0  0  0  0  0  0  0  0  0  0  0  0
  139.4481   75.8379  219.8816 H   0  0  0  0  0  0  0  0  0  0  0  0
  142.3534   75.5759  220.7538 H   0  0  0  0  0  0  0  0  0  0  0  0
  142.0189   76.0691  219.0519 H   0  0  0  0  0  0  0  0  0  0  0  0
  142.0784   78.1328  220.0745 H   0  0  0  0  0  0  0  0  0  0  0  0
  140.3207   77.7240  220.2344 H   0  0  0  0  0  0  0  0  0  0  0  0
  138.8080   77.2971  222.2126 H   0  0  0  0  0  0  0  0  0  0  0  0
  137.2413   78.8345  223.3427 H   0  0  0  0  0  0  0  0  0  0  0  0
  140.5647   81.4271  224.2827 H   0  0  0  0  0  0  0  0  0  0  0  0
  141.1960   72.7140  220.9020 H   0  0  0  0  0  0  0  0  0  0  0  0
  139.1435   71.4094  222.3354 H   0  0  0  0  0  0  0  0  0  0  0  0
  139.1650   69.0625  223.4614 H   0  0  0  0  0  0  0  0  0  0  0  0
  139.2294   67.7515  225.5666 H   0  0  0  0  0  0  0  0  0  0  0  0
  140.0181   68.8269  227.6722 H   0  0  0  0  0  0  0  0  0  0  0  0
  140.6672   72.5089  225.5153 H   0  0  0  0  0  0  0  0  0  0  0  0
  1  2  2  0
  2  3  1  0
  3  4  1  0
  4  5  1  0
  5  6  1  0
  6  7  1  0
  7  8  2  0
  8  9  1  0
  9 10  2  0
 10 11  1  0
 10 12  1  0
 12 13  2  0
 13 14  1  0
  2 15  1  0
 15 16  1  0
 16 17  2  0
 17 18  1  0
 18 19  2  0
 19 20  1  0
 20 21  2  0
 21 22  1  0
 22 23  1  0
 23 24  1  0
 23 25  1  0
 23 26  1  0
 22 27  2  0
 13  7  1  0
 27 18  1  0
  3 28  1  0
  3 29  1  0
  4 30  1  0
  4 31  1  0
  5 32  1  0
  5 33  1  0
  8 34  1  0
  9 35  1  0
 12 36  1  0
 15 37  1  0
 17 38  1  0
 19 39  1  0
 20 40  1  0
 21 41  1  0
 27 42  1  0
M  END
>  <smiles>  (7) 
O=C(CCCOc1ccc(Cl)cc1Cl)NN=Cc1cccc(C(F)(F)F)c1

>  <score_type>  (7) 
oracle

>  <origin>  (7) 
autodockgpu

>  <m_score__min__energy>  (7) 
-7.5199999999999996

>  <m_primary>  (7) 
energy

>  <rmsd>  (7) 
5.464357106739129

>  <m_score__min__rmsd>  (7) 
5.464357106739129

>  <meeko>  (7) 
{"free_energy": -6.99, "intermolecular_energy": -9.68, "internal_energy": -0.88, "cluster_size": 15, "cluster_id": 1, "rank_in_cluster": 7}

>  <energy>  (7) 
-6.99

>  <cluster_rmsd>  (7) 
1.72

>  <cluster>  (7) 
1

$$$$

     RDKit          3D

 42 43  0  0  1  0  0  0  0  0999 V2000
  138.9660   70.3510  220.9650 O   0  0  0  0  0  0  0  0  0  0  0  0
  139.1200   71.4880  221.5040 C   0  0  0  0  0  0  0  0  0  0  0  0
  139.6100   72.5730  220.5890 C   0  0  0  0  0  0  0  0  0  0  0  0
  138.3920   73.4570  220.2960 C   0  0  0  0  0  0  0  0  0  0  0  0
  138.0670   74.3240  221.4970 C   0  0  0  0  0  0  0  0  0  0  0  0
  139.2270   74.6270  222.2470 O   0  0  0  0  0  0  0  0  0  0  0  0
  139.7300   75.9410  222.1890 C   0  0  0  0  0  0  0  0  0  0  0  0
  139.0310   77.0060  222.7400 C   0  0  0  0  0  0  0  0  0  0  0  0
  139.4910   78.3030  222.7040 C   0  0  0  0  0  0  0  0  0  0  0  0
  140.7120   78.5450  222.0820 C   0  0  0  0  0  0  0  0  0  0  0  0
  141.2620   80.2070  222.0570 Cl  0  0  0  0  0  0  0  0  0  0  0  0
  141.4370   77.5100  221.5220 C   0  0  0  0  0  0  0  0  0  0  0  0
  140.9500   76.2070  221.5730 C   0  0  0  0  0  0  0  0  0  0  0  0
  141.8860   74.9110  220.8550 Cl  0  0  0  0  0  0  0  0  0  0  0  0
  138.8570   71.7400  222.8610 N   0  0  0  0  0  0  0  0  0  0  0  0
  138.3970   70.7710  223.7670 N   0  0  0  0  0  0  0  0  0  0  0  0
  139.1450   69.7340  224.0380 C   0  0  0  0  0  0  0  0  0  0  0  0
  139.7720   69.5770  225.3630 C   0  0  0  0  0  0  0  0  0  0  0  0
  140.0490   68.3320  225.8910 C   0  0  0  0  0  0  0  0  0  0  0  0
  140.6400   68.1930  227.1410 C   0  0  0  0  0  0  0  0  0  0  0  0
  140.9590   69.3240  227.8760 C   0  0  0  0  0  0  0  0  0  0  0  0
  140.6830   70.5900  227.3520 C   0  0  0  0  0  0  0  0  0  0  0  0
  141.0360   71.7980  228.1630 C   0  0  0  0  0  0  0  0  0  0  0  0
  139.9140   72.3410  228.7270 F   0  0  0  0  0  0  0  0  0  0  0  0
  141.9960   71.4680  229.0780 F   0  0  0  0  0  0  0  0  0  0  0  0
  141.6190   72.6730  227.2370 F   0  0  0  0  0  0  0  0  0  0  0  0
  140.0910   70.7010  226.0980 C   0  0  0  0  0  0  0  0  0  0  0  0
  140.3998   73.1603  221.0803 H   0  0  0  0  0  0  0  0  0  0  0  0
  140.0402   72.1588  219.6652 H   0  0  0  0  0  0  0  0  0  0  0  0
  138.6115   74.1018  219.4322 H   0  0  0  0  0  0  0  0  0  0  0  0
  137.5279   72.8126  220.0767 H   0  0  0  0  0  0  0  0  0  0  0  0
  137.6121   75.2626  221.1476 H   0  0  0  0  0  0  0  0  0  0  0  0
  137.3723   73.7694  222.1450 H   0  0  0  0  0  0  0  0  0  0  0  0
  138.0658   76.8045  223.2276 H   0  0  0  0  0  0  0  0  0  0  0  0
  138.9112   79.1228  223.1531 H   0  0  0  0  0  0  0  0  0  0  0  0
  142.4013   77.7165  221.0348 H   0  0  0  0  0  0  0  0  0  0  0  0
  138.9960   72.7050  223.2850 H   0  0  0  0  0  0  0  0  0  0  0  0
  139.3090   68.9674  223.2664 H   0  0  0  0  0  0  0  0  0  0  0  0
  139.7969   67.4321  225.3108 H   0  0  0  0  0  0  0  0  0  0  0  0
  140.8532   67.1921  227.5444 H   0  0  0  0  0  0  0  0  0  0  0  0
  141.4270   69.2257  228.8666 H   0  0  0  0  0  0  0  0  0  0  0  0
  139.8742   71.6979  225.6866 H   0  0  0  0  0  0  0  0  0  0  0  0
  1  2  2  0
  2  3  1  0
  3  4  1  0
  4  5  1  0
  5  6  1  0
  6  7  1  0
  7  8  2  0
  8  9  1  0
  9 10  2  0
 10 11  1  0
 10 12  1  0
 12 13  2  0
 13 14  1  0
  2 15  1  0
 15 16  1  0
 16 17  2  0
 17 18  1  0
 18 19  2  0
 19 20  1  0
 20 21  2  0
 21 22  1  0
 22 23  1  0
 23 24  1  0
 23 25  1  0
 23 26  1  0
 22 27  2  0
 13  7  1  0
 27 18  1  0
  3 28  1  0
  3 29  1  0
  4 30  1  0
  4 31  1  0
  5 32  1  0
  5 33  1  0
  8 34  1  0
  9 35  1  0
 12 36  1  0
 15 37  1  0
 17 38  1  0
 19 39  1  0
 20 40  1  0
 21 41  1  0
 27 42  1  0
M  END
>  <smiles>  (8) 
O=C(CCCOc1ccc(Cl)cc1Cl)NN=Cc1cccc(C(F)(F)F)c1

>  <score_type>  (8) 
oracle

>  <origin>  (8) 
autodockgpu

>  <m_score__min__energy>  (8) 
-7.5199999999999996

>  <m_primary>  (8) 
energy

>  <rmsd>  (8) 
7.06892814739402

>  <m_score__min__rmsd>  (8) 
7.06892814739402

>  <meeko>  (8) 
{"free_energy": -6.38, "intermolecular_energy": -9.06, "internal_energy": -1.54, "cluster_size": 15, "cluster_id": 1, "rank_in_cluster": 13}

>  <energy>  (8) 
-6.98

>  <cluster_rmsd>  (8) 
1.6

>  <cluster>  (8) 
1

$$$$

     RDKit          3D

 42 43  0  0  1  0  0  0  0  0999 V2000
  139.2400   73.5310  219.7790 O   0  0  0  0  0  0  0  0  0  0  0  0
  139.0820   73.1790  220.9860 C   0  0  0  0  0  0  0  0  0  0  0  0
  138.7310   71.7340  221.1940 C   0  0  0  0  0  0  0  0  0  0  0  0
  140.0480   71.0280  221.5410 C   0  0  0  0  0  0  0  0  0  0  0  0
  140.7110   71.7000  222.7260 C   0  0  0  0  0  0  0  0  0  0  0  0
  139.8140   71.8430  223.8100 O   0  0  0  0  0  0  0  0  0  0  0  0
  140.0140   71.0400  224.9490 C   0  0  0  0  0  0  0  0  0  0  0  0
  140.8580   71.4410  225.9750 C   0  0  0  0  0  0  0  0  0  0  0  0
  141.0790   70.6830  227.1030 C   0  0  0  0  0  0  0  0  0  0  0  0
  140.4210   69.4610  227.2070 C   0  0  0  0  0  0  0  0  0  0  0  0
  140.7270   68.5270  228.6550 Cl  0  0  0  0  0  0  0  0  0  0  0  0
  139.5720   69.0280  226.2050 C   0  0  0  0  0  0  0  0  0  0  0  0
  139.3660   69.8140  225.0740 C   0  0  0  0  0  0  0  0  0  0  0  0
  138.2880   69.2440  223.8170 Cl  0  0  0  0  0  0  0  0  0  0  0  0
  139.2200   74.0600  222.0720 N   0  0  0  0  0  0  0  0  0  0  0  0
  139.5470   75.4200  221.9450 N   0  0  0  0  0  0  0  0  0  0  0  0
  140.6150   75.7680  221.2770 C   0  0  0  0  0  0  0  0  0  0  0  0
  141.0890   77.1640  221.2790 C   0  0  0  0  0  0  0  0  0  0  0  0
  141.3540   77.8410  220.1050 C   0  0  0  0  0  0  0  0  0  0  0  0
  141.8000   79.1570  220.1160 C   0  0  0  0  0  0  0  0  0  0  0  0
  141.9850   79.8060  221.3270 C   0  0  0  0  0  0  0  0  0  0  0  0
  141.7200   79.1320  222.5210 C   0  0  0  0  0  0  0  0  0  0  0  0
  141.9260   79.8520  223.8170 C   0  0  0  0  0  0  0  0  0  0  0  0
  141.8730   78.9760  224.8660 F   0  0  0  0  0  0  0  0  0  0  0  0
  143.0930   80.5610  223.7640 F   0  0  0  0  0  0  0  0  0  0  0  0
  140.8730   80.7750  223.8670 F   0  0  0  0  0  0  0  0  0  0  0  0
  141.2740   77.8140  222.4820 C   0  0  0  0  0  0  0  0  0  0  0  0
  138.0118   71.6299  222.0197 H   0  0  0  0  0  0  0  0  0  0  0  0
  138.2628   71.2989  220.2988 H   0  0  0  0  0  0  0  0  0  0  0  0
  139.8411   69.9766  221.7895 H   0  0  0  0  0  0  0  0  0  0  0  0
  140.7230   71.0857  220.6744 H   0  0  0  0  0  0  0  0  0  0  0  0
  141.5678   71.0905  223.0492 H   0  0  0  0  0  0  0  0  0  0  0  0
  141.0387   72.7029  222.4149 H   0  0  0  0  0  0  0  0  0  0  0  0
  141.3738   72.4082  225.8829 H   0  0  0  0  0  0  0  0  0  0  0  0
  141.7548   71.0325  227.8975 H   0  0  0  0  0  0  0  0  0  0  0  0
  139.0581   68.0602  226.3016 H   0  0  0  0  0  0  0  0  0  0  0  0
  139.0810   73.7350  223.0740 H   0  0  0  0  0  0  0  0  0  0  0  0
  141.1682   75.0085  220.7051 H   0  0  0  0  0  0  0  0  0  0  0  0
  141.2092   77.3286  219.1424 H   0  0  0  0  0  0  0  0  0  0  0  0
  142.0049   79.6802  219.1703 H   0  0  0  0  0  0  0  0  0  0  0  0
  142.3390   80.8473  221.3473 H   0  0  0  0  0  0  0  0  0  0  0  0
  141.0662   77.2835  223.4229 H   0  0  0  0  0  0  0  0  0  0  0  0
  1  2  2  0
  2  3  1  0
  3  4  1  0
  4  5  1  0
  5  6  1  0
  6  7  1  0
  7  8  2  0
  8  9  1  0
  9 10  2  0
 10 11  1  0
 10 12  1  0
 12 13  2  0
 13 14  1  0
  2 15  1  0
 15 16  1  0
 16 17  2  0
 17 18  1  0
 18 19  2  0
 19 20  1  0
 20 21  2  0
 21 22  1  0
 22 23  1  0
 23 24  1  0
 23 25  1  0
 23 26  1  0
 22 27  2  0
 13  7  1  0
 27 18  1  0
  3 28  1  0
  3 29  1  0
  4 30  1  0
  4 31  1  0
  5 32  1  0
  5 33  1  0
  8 34  1  0
  9 35  1  0
 12 36  1  0
 15 37  1  0
 17 38  1  0
 19 39  1  0
 20 40  1  0
 21 41  1  0
 27 42  1  0
M  END
>  <smiles>  (9) 
O=C(CCCOc1ccc(Cl)cc1Cl)NN=Cc1cccc(C(F)(F)F)c1

>  <score_type>  (9) 
oracle

>  <origin>  (9) 
autodockgpu

>  <m_score__min__energy>  (9) 
-7.5199999999999996

>  <m_primary>  (9) 
energy

>  <rmsd>  (9) 
12.698136235382995

>  <m_score__min__rmsd>  (9) 
12.698136235382995

>  <meeko>  (9) 
{"free_energy": -6.42, "intermolecular_energy": -9.11, "internal_energy": -1.46, "cluster_size": 2, "cluster_id": 4, "rank_in_cluster": 2}

>  <energy>  (9) 
-6.9

>  <cluster_rmsd>  (9) 
1.9

>  <cluster>  (9) 
1

$$$$

     RDKit          3D

 42 43  0  0  1  0  0  0  0  0999 V2000
  140.9240   75.9640  221.3400 O   0  0  0  0  0  0  0  0  0  0  0  0
  139.7810   75.7660  221.8500 C   0  0  0  0  0  0  0  0  0  0  0  0
  138.8800   76.9660  221.8980 C   0  0  0  0  0  0  0  0  0  0  0  0
  137.5440   76.5110  221.2980 C   0  0  0  0  0  0  0  0  0  0  0  0
  136.4850   76.4170  222.3780 C   0  0  0  0  0  0  0  0  0  0  0  0
  136.6640   75.2660  223.1810 O   0  0  0  0  0  0  0  0  0  0  0  0
  135.6680   74.9540  224.1260 C   0  0  0  0  0  0  0  0  0  0  0  0
  135.0650   75.9420  224.8910 C   0  0  0  0  0  0  0  0  0  0  0  0
  134.0880   75.6760  225.8240 C   0  0  0  0  0  0  0  0  0  0  0  0
  133.6960   74.3520  225.9990 C   0  0  0  0  0  0  0  0  0  0  0  0
  132.4530   74.0540  227.1940 Cl  0  0  0  0  0  0  0  0  0  0  0  0
  134.2750   73.3410  225.2540 C   0  0  0  0  0  0  0  0  0  0  0  0
  135.2600   73.6370  224.3170 C   0  0  0  0  0  0  0  0  0  0  0  0
  135.9790   72.3380  223.3870 Cl  0  0  0  0  0  0  0  0  0  0  0  0
  139.3620   74.5180  222.3430 N   0  0  0  0  0  0  0  0  0  0  0  0
  140.1540   73.3590  222.3270 N   0  0  0  0  0  0  0  0  0  0  0  0
  139.5860   72.1910  222.1790 C   0  0  0  0  0  0  0  0  0  0  0  0
  139.4170   71.2790  223.3250 C   0  0  0  0  0  0  0  0  0  0  0  0
  138.5790   70.1840  223.2630 C   0  0  0  0  0  0  0  0  0  0  0  0
  138.4260   69.3300  224.3480 C   0  0  0  0  0  0  0  0  0  0  0  0
  139.1260   69.5790  225.5180 C   0  0  0  0  0  0  0  0  0  0  0  0
  139.9770   70.6840  225.5940 C   0  0  0  0  0  0  0  0  0  0  0  0
  140.7230   70.9340  226.8670 C   0  0  0  0  0  0  0  0  0  0  0  0
  141.1960   72.2170  226.9020 F   0  0  0  0  0  0  0  0  0  0  0  0
  139.9240   70.6240  227.9310 F   0  0  0  0  0  0  0  0  0  0  0  0
  141.7690   70.0040  226.8390 F   0  0  0  0  0  0  0  0  0  0  0  0
  140.1120   71.5240  224.4930 C   0  0  0  0  0  0  0  0  0  0  0  0
  138.7397   77.2981  222.9372 H   0  0  0  0  0  0  0  0  0  0  0  0
  139.3056   77.8138  221.3411 H   0  0  0  0  0  0  0  0  0  0  0  0
  137.2223   77.2372  220.5370 H   0  0  0  0  0  0  0  0  0  0  0  0
  137.6771   75.5192  220.8413 H   0  0  0  0  0  0  0  0  0  0  0  0
  136.5450   77.3109  223.0162 H   0  0  0  0  0  0  0  0  0  0  0  0
  135.5009   76.3486  221.8913 H   0  0  0  0  0  0  0  0  0  0  0  0
  135.3819   76.9853  224.7455 H   0  0  0  0  0  0  0  0  0  0  0  0
  133.6313   76.4850  226.4130 H   0  0  0  0  0  0  0  0  0  0  0  0
  133.9556   72.2990  225.4027 H   0  0  0  0  0  0  0  0  0  0  0  0
  138.3960   74.3830  222.7660 H   0  0  0  0  0  0  0  0  0  0  0  0
  139.2289   71.8841  221.1849 H   0  0  0  0  0  0  0  0  0  0  0  0
  138.0213   69.9836  222.3363 H   0  0  0  0  0  0  0  0  0  0  0  0
  137.7538   68.4620  224.2790 H   0  0  0  0  0  0  0  0  0  0  0  0
  139.0119   68.9092  226.3831 H   0  0  0  0  0  0  0  0  0  0  0  0
  140.7812   72.3949  224.5537 H   0  0  0  0  0  0  0  0  0  0  0  0
  1  2  2  0
  2  3  1  0
  3  4  1  0
  4  5  1  0
  5  6  1  0
  6  7  1  0
  7  8  2  0
  8  9  1  0
  9 10  2  0
 10 11  1  0
 10 12  1  0
 12 13  2  0
 13 14  1  0
  2 15  1  0
 15 16  1  0
 16 17  2  0
 17 18  1  0
 18 19  2  0
 19 20  1  0
 20 21  2  0
 21 22  1  0
 22 23  1  0
 23 24  1  0
 23 25  1  0
 23 26  1  0
 22 27  2  0
 13  7  1  0
 27 18  1  0
  3 28  1  0
  3 29  1  0
  4 30  1  0
  4 31  1  0
  5 32  1  0
  5 33  1  0
  8 34  1  0
  9 35  1  0
 12 36  1  0
 15 37  1  0
 17 38  1  0
 19 39  1  0
 20 40  1  0
 21 41  1  0
 27 42  1  0
M  END
>  <smiles>  (10) 
O=C(CCCOc1ccc(Cl)cc1Cl)NN=Cc1cccc(C(F)(F)F)c1

>  <score_type>  (10) 
oracle

>  <origin>  (10) 
autodockgpu

>  <m_score__min__energy>  (10) 
-7.5199999999999996

>  <m_primary>  (10) 
energy

>  <rmsd>  (10) 
9.624483114988287

>  <m_score__min__rmsd>  (10) 
9.624483114988287

>  <meeko>  (10) 
{"free_energy": -5.58, "intermolecular_energy": -8.26, "internal_energy": -2.07, "cluster_size": 9, "cluster_id": 8, "rank_in_cluster": 8}

>  <energy>  (10) 
-6.78

>  <cluster_rmsd>  (10) 
1.72

>  <cluster>  (10) 
1

$$$$

     RDKit          3D

 42 43  0  0  1  0  0  0  0  0999 V2000
  137.0590   72.1740  220.6810 O   0  0  0  0  0  0  0  0  0  0  0  0
  137.3440   73.1610  221.4230 C   0  0  0  0  0  0  0  0  0  0  0  0
  136.3040   74.2420  221.4840 C   0  0  0  0  0  0  0  0  0  0  0  0
  136.3230   74.7610  222.9270 C   0  0  0  0  0  0  0  0  0  0  0  0
  137.0100   76.1110  222.9940 C   0  0  0  0  0  0  0  0  0  0  0  0
  138.2190   76.1140  222.2590 O   0  0  0  0  0  0  0  0  0  0  0  0
  139.1650   77.1170  222.5430 C   0  0  0  0  0  0  0  0  0  0  0  0
  138.7850   78.3350  223.0870 C   0  0  0  0  0  0  0  0  0  0  0  0
  139.6810   79.3390  223.3780 C   0  0  0  0  0  0  0  0  0  0  0  0
  141.0270   79.1100  223.1100 C   0  0  0  0  0  0  0  0  0  0  0  0
  142.1340   80.4100  223.4940 Cl  0  0  0  0  0  0  0  0  0  0  0  0
  141.4440   77.9080  222.5680 C   0  0  0  0  0  0  0  0  0  0  0  0
  140.5170   76.9090  222.2830 C   0  0  0  0  0  0  0  0  0  0  0  0
  141.0700   75.3960  221.5960 Cl  0  0  0  0  0  0  0  0  0  0  0  0
  138.5430   73.2610  222.1480 N   0  0  0  0  0  0  0  0  0  0  0  0
  139.5550   72.2860  222.1350 N   0  0  0  0  0  0  0  0  0  0  0  0
  140.3930   72.2120  223.1350 C   0  0  0  0  0  0  0  0  0  0  0  0
  140.1070   71.3570  224.3010 C   0  0  0  0  0  0  0  0  0  0  0  0
  139.3300   70.2210  224.1940 C   0  0  0  0  0  0  0  0  0  0  0  0
  139.0660   69.4200  225.2980 C   0  0  0  0  0  0  0  0  0  0  0  0
  139.5910   69.7650  226.5340 C   0  0  0  0  0  0  0  0  0  0  0  0
  140.3790   70.9120  226.6550 C   0  0  0  0  0  0  0  0  0  0  0  0
  140.9350   71.2650  227.9990 C   0  0  0  0  0  0  0  0  0  0  0  0
  141.4690   70.1590  228.6020 F   0  0  0  0  0  0  0  0  0  0  0  0
  141.8270   72.2920  227.8670 F   0  0  0  0  0  0  0  0  0  0  0  0
  139.8310   71.7530  228.7100 F   0  0  0  0  0  0  0  0  0  0  0  0
  140.6280   71.6960  225.5340 C   0  0  0  0  0  0  0  0  0  0  0  0
  136.5523   75.0521  220.7825 H   0  0  0  0  0  0  0  0  0  0  0  0
  135.3101   73.8631  221.2036 H   0  0  0  0  0  0  0  0  0  0  0  0
  135.2894   74.8619  223.2896 H   0  0  0  0  0  0  0  0  0  0  0  0
  136.8760   74.0476  223.5556 H   0  0  0  0  0  0  0  0  0  0  0  0
  136.3371   76.8756  222.5786 H   0  0  0  0  0  0  0  0  0  0  0  0
  137.2452   76.3270  224.0466 H   0  0  0  0  0  0  0  0  0  0  0  0
  137.7187   78.5067  223.2955 H   0  0  0  0  0  0  0  0  0  0  0  0
  139.3431   80.2929  223.8091 H   0  0  0  0  0  0  0  0  0  0  0  0
  142.5114   77.7406  222.3614 H   0  0  0  0  0  0  0  0  0  0  0  0
  138.7540   74.1030  222.7620 H   0  0  0  0  0  0  0  0  0  0  0  0
  141.3248   72.7959  223.1061 H   0  0  0  0  0  0  0  0  0  0  0  0
  138.9115   69.9445  223.2150 H   0  0  0  0  0  0  0  0  0  0  0  0
  138.4448   68.5184  225.1923 H   0  0  0  0  0  0  0  0  0  0  0  0
  139.3880   69.1385  227.4151 H   0  0  0  0  0  0  0  0  0  0  0  0
  141.2488   72.5989  225.6307 H   0  0  0  0  0  0  0  0  0  0  0  0
  1  2  2  0
  2  3  1  0
  3  4  1  0
  4  5  1  0
  5  6  1  0
  6  7  1  0
  7  8  2  0
  8  9  1  0
  9 10  2  0
 10 11  1  0
 10 12  1  0
 12 13  2  0
 13 14  1  0
  2 15  1  0
 15 16  1  0
 16 17  2  0
 17 18  1  0
 18 19  2  0
 19 20  1  0
 20 21  2  0
 21 22  1  0
 22 23  1  0
 23 24  1  0
 23 25  1  0
 23 26  1  0
 22 27  2  0
 13  7  1  0
 27 18  1  0
  3 28  1  0
  3 29  1  0
  4 30  1  0
  4 31  1  0
  5 32  1  0
  5 33  1  0
  8 34  1  0
  9 35  1  0
 12 36  1  0
 15 37  1  0
 17 38  1  0
 19 39  1  0
 20 40  1  0
 21 41  1  0
 27 42  1  0
M  END
>  <smiles>  (11) 
O=C(CCCOc1ccc(Cl)cc1Cl)NN=Cc1cccc(C(F)(F)F)c1

>  <score_type>  (11) 
oracle

>  <origin>  (11) 
autodockgpu

>  <m_score__min__energy>  (11) 
-7.5199999999999996

>  <m_primary>  (11) 
energy

>  <rmsd>  (11) 
6.236286414567858

>  <m_score__min__rmsd>  (11) 
6.236286414567858

>  <meeko>  (11) 
{"free_energy": -6.24, "intermolecular_energy": -8.93, "internal_energy": -1.91, "cluster_size": 15, "cluster_id": 1, "rank_in_cluster": 15}

>  <energy>  (11) 
-6.77

>  <cluster_rmsd>  (11) 
1.27

>  <cluster>  (11) 
1

$$$$

     RDKit          3D

 42 43  0  0  1  0  0  0  0  0999 V2000
  140.0090   74.9650  222.3470 O   0  0  0  0  0  0  0  0  0  0  0  0
  139.0720   74.1470  222.1040 C   0  0  0  0  0  0  0  0  0  0  0  0
  137.7950   74.7600  221.6070 C   0  0  0  0  0  0  0  0  0  0  0  0
  137.4090   75.8230  222.6430 C   0  0  0  0  0  0  0  0  0  0  0  0
  137.6830   77.2120  222.1020 C   0  0  0  0  0  0  0  0  0  0  0  0
  138.9950   77.3180  221.5850 O   0  0  0  0  0  0  0  0  0  0  0  0
  139.8720   78.2410  222.1860 C   0  0  0  0  0  0  0  0  0  0  0  0
  139.4510   79.0730  223.2140 C   0  0  0  0  0  0  0  0  0  0  0  0
  140.2790   79.9870  223.8250 C   0  0  0  0  0  0  0  0  0  0  0  0
  141.5970   80.0720  223.3840 C   0  0  0  0  0  0  0  0  0  0  0  0
  142.6180   81.2440  224.1870 Cl  0  0  0  0  0  0  0  0  0  0  0  0
  142.0520   79.2580  222.3630 C   0  0  0  0  0  0  0  0  0  0  0  0
  141.1940   78.3420  221.7610 C   0  0  0  0  0  0  0  0  0  0  0  0
  141.7950   77.3240  220.4680 Cl  0  0  0  0  0  0  0  0  0  0  0  0
  139.1950   72.7590  222.2810 N   0  0  0  0  0  0  0  0  0  0  0  0
  140.3600   72.1230  222.7410 N   0  0  0  0  0  0  0  0  0  0  0  0
  140.3110   70.8690  223.1030 C   0  0  0  0  0  0  0  0  0  0  0  0
  140.1210   70.4950  224.5160 C   0  0  0  0  0  0  0  0  0  0  0  0
  139.4640   69.3350  224.8780 C   0  0  0  0  0  0  0  0  0  0  0  0
  139.2900   68.9910  226.2130 C   0  0  0  0  0  0  0  0  0  0  0  0
  139.7840   69.8250  227.2040 C   0  0  0  0  0  0  0  0  0  0  0  0
  140.4500   71.0010  226.8510 C   0  0  0  0  0  0  0  0  0  0  0  0
  140.9750   71.8860  227.9380 C   0  0  0  0  0  0  0  0  0  0  0  0
  141.7160   72.9070  227.4080 F   0  0  0  0  0  0  0  0  0  0  0  0
  139.9370   72.3180  228.7140 F   0  0  0  0  0  0  0  0  0  0  0  0
  141.7630   71.0350  228.7220 F   0  0  0  0  0  0  0  0  0  0  0  0
  140.6110   71.3220  225.5070 C   0  0  0  0  0  0  0  0  0  0  0  0
  137.9512   75.2243  220.6221 H   0  0  0  0  0  0  0  0  0  0  0  0
  137.0037   74.0052  221.4882 H   0  0  0  0  0  0  0  0  0  0  0  0
  136.3381   75.7296  222.8764 H   0  0  0  0  0  0  0  0  0  0  0  0
  138.0087   75.6695  223.5523 H   0  0  0  0  0  0  0  0  0  0  0  0
  136.9638   77.4310  221.2991 H   0  0  0  0  0  0  0  0  0  0  0  0
  137.5788   77.9306  222.9283 H   0  0  0  0  0  0  0  0  0  0  0  0
  138.4082   78.9985  223.5560 H   0  0  0  0  0  0  0  0  0  0  0  0
  139.9107   80.6309  224.6372 H   0  0  0  0  0  0  0  0  0  0  0  0
  143.0960   79.3346  222.0252 H   0  0  0  0  0  0  0  0  0  0  0  0
  138.3900   72.0970  222.0690 H   0  0  0  0  0  0  0  0  0  0  0  0
  140.4130   70.0808  222.3425 H   0  0  0  0  0  0  0  0  0  0  0  0
  139.0710   68.6707  224.0942 H   0  0  0  0  0  0  0  0  0  0  0  0
  138.7638   68.0631  226.4816 H   0  0  0  0  0  0  0  0  0  0  0  0
  139.6521   69.5618  228.2639 H   0  0  0  0  0  0  0  0  0  0  0  0
  141.1362   72.2479  225.2299 H   0  0  0  0  0  0  0  0  0  0  0  0
  1  2  2  0
  2  3  1  0
  3  4  1  0
  4  5  1  0
  5  6  1  0
  6  7  1  0
  7  8  2  0
  8  9  1  0
  9 10  2  0
 10 11  1  0
 10 12  1  0
 12 13  2  0
 13 14  1  0
  2 15  1  0
 15 16  1  0
 16 17  2  0
 17 18  1  0
 18 19  2  0
 19 20  1  0
 20 21  2  0
 21 22  1  0
 22 23  1  0
 23 24  1  0
 23 25  1  0
 23 26  1  0
 22 27  2  0
 13  7  1  0
 27 18  1  0
  3 28  1  0
  3 29  1  0
  4 30  1  0
  4 31  1  0
  5 32  1  0
  5 33  1  0
  8 34  1  0
  9 35  1  0
 12 36  1  0
 15 37  1  0
 17 38  1  0
 19 39  1  0
 20 40  1  0
 21 41  1  0
 27 42  1  0
M  END
>  <smiles>  (12) 
O=C(CCCOc1ccc(Cl)cc1Cl)NN=Cc1cccc(C(F)(F)F)c1

>  <score_type>  (12) 
oracle

>  <origin>  (12) 
autodockgpu

>  <m_score__min__energy>  (12) 
-7.5199999999999996

>  <m_primary>  (12) 
energy

>  <rmsd>  (12) 
5.2460251723203095

>  <m_score__min__rmsd>  (12) 
5.2460251723203095

>  <meeko>  (12) 
{"free_energy": -6.77, "intermolecular_energy": -9.46, "internal_energy": -0.94, "cluster_size": 15, "cluster_id": 1, "rank_in_cluster": 11}

>  <energy>  (12) 
-6.5

>  <cluster_rmsd>  (12) 
1.69

>  <cluster>  (12) 
1

$$$$

     RDKit          3D

 42 43  0  0  1  0  0  0  0  0999 V2000
  139.5770   75.3030  222.7020 O   0  0  0  0  0  0  0  0  0  0  0  0
  139.2750   74.3920  221.8750 C   0  0  0  0  0  0  0  0  0  0  0  0
  138.3550   74.8090  220.7640 C   0  0  0  0  0  0  0  0  0  0  0  0
  138.5560   73.7810  219.6440 C   0  0  0  0  0  0  0  0  0  0  0  0
  139.9780   73.8410  219.1220 C   0  0  0  0  0  0  0  0  0  0  0  0
  140.7090   72.6830  219.4750 O   0  0  0  0  0  0  0  0  0  0  0  0
  142.0410   72.8430  219.9020 C   0  0  0  0  0  0  0  0  0  0  0  0
  142.5590   74.0970  220.1950 C   0  0  0  0  0  0  0  0  0  0  0  0
  143.8550   74.2930  220.6150 C   0  0  0  0  0  0  0  0  0  0  0  0
  144.6740   73.1760  220.7480 C   0  0  0  0  0  0  0  0  0  0  0  0
  146.3140   73.4660  221.2840 Cl  0  0  0  0  0  0  0  0  0  0  0  0
  144.1930   71.9110  220.4650 C   0  0  0  0  0  0  0  0  0  0  0  0
  142.8780   71.7400  220.0430 C   0  0  0  0  0  0  0  0  0  0  0  0
  142.2920   70.1270  219.6900 Cl  0  0  0  0  0  0  0  0  0  0  0  0
  139.7550   73.0740  221.9680 N   0  0  0  0  0  0  0  0  0  0  0  0
  140.6170   72.6200  222.9800 N   0  0  0  0  0  0  0  0  0  0  0  0
  140.5700   71.3680  223.3540 C   0  0  0  0  0  0  0  0  0  0  0  0
  140.6190   71.0020  224.7810 C   0  0  0  0  0  0  0  0  0  0  0  0
  141.0020   71.9080  225.7500 C   0  0  0  0  0  0  0  0  0  0  0  0
  141.0440   71.5530  227.0930 C   0  0  0  0  0  0  0  0  0  0  0  0
  140.6970   70.2660  227.4720 C   0  0  0  0  0  0  0  0  0  0  0  0
  140.3080   69.3400  226.5000 C   0  0  0  0  0  0  0  0  0  0  0  0
  139.9360   67.9560  226.9320 C   0  0  0  0  0  0  0  0  0  0  0  0
  138.8090   67.5370  226.2800 F   0  0  0  0  0  0  0  0  0  0  0  0
  141.0040   67.1220  226.7550 F   0  0  0  0  0  0  0  0  0  0  0  0
  139.7170   68.0740  228.3100 F   0  0  0  0  0  0  0  0  0  0  0  0
  140.2730   69.7210  225.1630 C   0  0  0  0  0  0  0  0  0  0  0  0
  137.3104   74.8002  221.1086 H   0  0  0  0  0  0  0  0  0  0  0  0
  138.5749   75.8302  220.4193 H   0  0  0  0  0  0  0  0  0  0  0  0
  138.3561   72.7731  220.0367 H   0  0  0  0  0  0  0  0  0  0  0  0
  137.8633   74.0096  218.8207 H   0  0  0  0  0  0  0  0  0  0  0  0
  139.9530   73.9275  218.0257 H   0  0  0  0  0  0  0  0  0  0  0  0
  140.4745   74.7132  219.5724 H   0  0  0  0  0  0  0  0  0  0  0  0
  141.9040   74.9740  220.0866 H   0  0  0  0  0  0  0  0  0  0  0  0
  144.2318   75.3019  220.8387 H   0  0  0  0  0  0  0  0  0  0  0  0
  144.8519   71.0369  220.5738 H   0  0  0  0  0  0  0  0  0  0  0  0
  139.4830   72.3310  221.2590 H   0  0  0  0  0  0  0  0  0  0  0  0
  140.4929   70.5771  222.5934 H   0  0  0  0  0  0  0  0  0  0  0  0
  141.2792   72.9303  225.4533 H   0  0  0  0  0  0  0  0  0  0  0  0
  141.3508   72.2892  227.8506 H   0  0  0  0  0  0  0  0  0  0  0  0
  140.7276   69.9747  228.5323 H   0  0  0  0  0  0  0  0  0  0  0  0
  139.9654   68.9917  224.3991 H   0  0  0  0  0  0  0  0  0  0  0  0
  1  2  2  0
  2  3  1  0
  3  4  1  0
  4  5  1  0
  5  6  1  0
  6  7  1  0
  7  8  2  0
  8  9  1  0
  9 10  2  0
 10 11  1  0
 10 12  1  0
 12 13  2  0
 13 14  1  0
  2 15  1  0
 15 16  1  0
 16 17  2  0
 17 18  1  0
 18 19  2  0
 19 20  1  0
 20 21  2  0
 21 22  1  0
 22 23  1  0
 23 24  1  0
 23 25  1  0
 23 26  1  0
 22 27  2  0
 13  7  1  0
 27 18  1  0
  3 28  1  0
  3 29  1  0
  4 30  1  0
  4 31  1  0
  5 32  1  0
  5 33  1  0
  8 34  1  0
  9 35  1  0
 12 36  1  0
 15 37  1  0
 17 38  1  0
 19 39  1  0
 20 40  1  0
 21 41  1  0
 27 42  1  0
M  END
>  <smiles>  (13) 
O=C(CCCOc1ccc(Cl)cc1Cl)NN=Cc1cccc(C(F)(F)F)c1

>  <score_type>  (13) 
oracle

>  <origin>  (13) 
autodockgpu

>  <m_score__min__energy>  (13) 
-7.5199999999999996

>  <m_primary>  (13) 
energy

>  <rmsd>  (13) 
9.75228920556755

>  <m_score__min__rmsd>  (13) 
9.75228920556755

>  <meeko>  (13) 
{"free_energy": -5.92, "intermolecular_energy": -8.6, "internal_energy": -2.06, "cluster_size": 1, "cluster_id": 7, "rank_in_cluster": 1}

>  <energy>  (13) 
-6.38

>  <cluster_rmsd>  (13) 
1.9

>  <cluster>  (13) 
1

$$$$

     RDKit          3D

 42 43  0  0  1  0  0  0  0  0999 V2000
  139.6640   70.9390  220.6730 O   0  0  0  0  0  0  0  0  0  0  0  0
  139.9000   72.1060  221.1070 C   0  0  0  0  0  0  0  0  0  0  0  0
  140.5220   73.0480  220.1170 C   0  0  0  0  0  0  0  0  0  0  0  0
  141.7670   73.6200  220.8060 C   0  0  0  0  0  0  0  0  0  0  0  0
  141.5330   75.0620  221.2080 C   0  0  0  0  0  0  0  0  0  0  0  0
  140.3570   75.2010  221.9820 O   0  0  0  0  0  0  0  0  0  0  0  0
  139.9820   76.4940  222.3940 C   0  0  0  0  0  0  0  0  0  0  0  0
  140.9310   77.4680  222.6670 C   0  0  0  0  0  0  0  0  0  0  0  0
  140.6030   78.7420  223.0720 C   0  0  0  0  0  0  0  0  0  0  0  0
  139.2540   79.0560  223.2100 C   0  0  0  0  0  0  0  0  0  0  0  0
  138.8770   80.6850  223.7250 Cl  0  0  0  0  0  0  0  0  0  0  0  0
  138.2790   78.1110  222.9460 C   0  0  0  0  0  0  0  0  0  0  0  0
  138.6380   76.8300  222.5380 C   0  0  0  0  0  0  0  0  0  0  0  0
  137.3850   75.6500  222.2110 Cl  0  0  0  0  0  0  0  0  0  0  0  0
  139.6110   72.5150  222.4210 N   0  0  0  0  0  0  0  0  0  0  0  0
  139.0310   71.6840  223.3940 N   0  0  0  0  0  0  0  0  0  0  0  0
  139.7350   70.7150  223.9170 C   0  0  0  0  0  0  0  0  0  0  0  0
  140.1800   70.7750  225.3210 C   0  0  0  0  0  0  0  0  0  0  0  0
  140.7540   71.9130  225.8530 C   0  0  0  0  0  0  0  0  0  0  0  0
  141.1700   71.9610  227.1770 C   0  0  0  0  0  0  0  0  0  0  0  0
  141.0080   70.8460  227.9850 C   0  0  0  0  0  0  0  0  0  0  0  0
  140.4300   69.6880  227.4600 C   0  0  0  0  0  0  0  0  0  0  0  0
  140.2650   68.4970  228.3500 C   0  0  0  0  0  0  0  0  0  0  0  0
  141.4810   67.9360  228.6300 F   0  0  0  0  0  0  0  0  0  0  0  0
  139.5650   68.8560  229.4670 F   0  0  0  0  0  0  0  0  0  0  0  0
  139.4570   67.6250  227.6090 F   0  0  0  0  0  0  0  0  0  0  0  0
  140.0210   69.6670  226.1300 C   0  0  0  0  0  0  0  0  0  0  0  0
  140.8054   72.5084  219.2013 H   0  0  0  0  0  0  0  0  0  0  0  0
  139.8222   73.8438  219.8220 H   0  0  0  0  0  0  0  0  0  0  0  0
  141.9898   73.0250  221.7040 H   0  0  0  0  0  0  0  0  0  0  0  0
  142.6136   73.5780  220.1049 H   0  0  0  0  0  0  0  0  0  0  0  0
  142.3926   75.4124  221.7981 H   0  0  0  0  0  0  0  0  0  0  0  0
  141.4159   75.6605  220.2925 H   0  0  0  0  0  0  0  0  0  0  0  0
  141.9945   77.2105  222.5547 H   0  0  0  0  0  0  0  0  0  0  0  0
  141.3831   79.4891  223.2802 H   0  0  0  0  0  0  0  0  0  0  0  0
  137.2166   78.3729  223.0589 H   0  0  0  0  0  0  0  0  0  0  0  0
  139.8220   73.5010  222.7560 H   0  0  0  0  0  0  0  0  0  0  0  0
  139.9991   69.8427  223.3011 H   0  0  0  0  0  0  0  0  0  0  0  0
  140.8843   72.7995  225.2149 H   0  0  0  0  0  0  0  0  0  0  0  0
  141.6248   72.8771  227.5819 H   0  0  0  0  0  0  0  0  0  0  0  0
  141.3334   70.8733  229.0354 H   0  0  0  0  0  0  0  0  0  0  0  0
  139.5647   68.7552  225.7173 H   0  0  0  0  0  0  0  0  0  0  0  0
  1  2  2  0
  2  3  1  0
  3  4  1  0
  4  5  1  0
  5  6  1  0
  6  7  1  0
  7  8  2  0
  8  9  1  0
  9 10  2  0
 10 11  1  0
 10 12  1  0
 12 13  2  0
 13 14  1  0
  2 15  1  0
 15 16  1  0
 16 17  2  0
 17 18  1  0
 18 19  2  0
 19 20  1  0
 20 21  2  0
 21 22  1  0
 22 23  1  0
 23 24  1  0
 23 25  1  0
 23 26  1  0
 22 27  2  0
 13  7  1  0
 27 18  1  0
  3 28  1  0
  3 29  1  0
  4 30  1  0
  4 31  1  0
  5 32  1  0
  5 33  1  0
  8 34  1  0
  9 35  1  0
 12 36  1  0
 15 37  1  0
 17 38  1  0
 19 39  1  0
 20 40  1  0
 21 41  1  0
 27 42  1  0
M  END
>  <smiles>  (14) 
O=C(CCCOc1ccc(Cl)cc1Cl)NN=Cc1cccc(C(F)(F)F)c1

>  <score_type>  (14) 
oracle

>  <origin>  (14) 
autodockgpu

>  <m_score__min__energy>  (14) 
-7.5199999999999996

>  <m_primary>  (14) 
energy

>  <rmsd>  (14) 
6.985362365674066

>  <m_score__min__rmsd>  (14) 
6.985362365674066

>  <meeko>  (14) 
{"free_energy": -6.35, "intermolecular_energy": -9.04, "internal_energy": -1.77, "cluster_size": 5, "cluster_id": 3, "rank_in_cluster": 5}

>  <energy>  (14) 
-6.36

>  <cluster_rmsd>  (14) 
1.79

>  <cluster>  (14) 
1

$$$$

     RDKit          3D

 42 43  0  0  1  0  0  0  0  0999 V2000
  139.2940   75.4050  222.7580 O   0  0  0  0  0  0  0  0  0  0  0  0
  139.8010   74.9930  221.6730 C   0  0  0  0  0  0  0  0  0  0  0  0
  139.6180   75.9010  220.4910 C   0  0  0  0  0  0  0  0  0  0  0  0
  139.6400   74.9910  219.2570 C   0  0  0  0  0  0  0  0  0  0  0  0
  141.0310   74.9470  218.6570 C   0  0  0  0  0  0  0  0  0  0  0  0
  141.6220   73.6710  218.8100 O   0  0  0  0  0  0  0  0  0  0  0  0
  142.8140   73.5760  219.5540 C   0  0  0  0  0  0  0  0  0  0  0  0
  143.6370   74.6770  219.7430 C   0  0  0  0  0  0  0  0  0  0  0  0
  144.8080   74.6230  220.4630 C   0  0  0  0  0  0  0  0  0  0  0  0
  145.1740   73.4020  221.0230 C   0  0  0  0  0  0  0  0  0  0  0  0
  146.6690   73.3740  221.9320 Cl  0  0  0  0  0  0  0  0  0  0  0  0
  144.3790   72.2830  220.8560 C   0  0  0  0  0  0  0  0  0  0  0  0
  143.1990   72.3650  220.1230 C   0  0  0  0  0  0  0  0  0  0  0  0
  142.2100   70.9330  219.9250 Cl  0  0  0  0  0  0  0  0  0  0  0  0
  140.4930   73.7750  221.5580 N   0  0  0  0  0  0  0  0  0  0  0  0
  140.6990   72.8830  222.6230 N   0  0  0  0  0  0  0  0  0  0  0  0
  139.8530   71.9070  222.8200 C   0  0  0  0  0  0  0  0  0  0  0  0
  139.8670   71.1330  224.0740 C   0  0  0  0  0  0  0  0  0  0  0  0
  139.3740   69.8440  224.1380 C   0  0  0  0  0  0  0  0  0  0  0  0
  139.3920   69.1230  225.3240 C   0  0  0  0  0  0  0  0  0  0  0  0
  139.9130   69.7030  226.4700 C   0  0  0  0  0  0  0  0  0  0  0  0
  140.4150   71.0060  226.4190 C   0  0  0  0  0  0  0  0  0  0  0  0
  140.9740   71.6130  227.6680 C   0  0  0  0  0  0  0  0  0  0  0  0
  141.5210   70.6460  228.4670 F   0  0  0  0  0  0  0  0  0  0  0  0
  141.8540   72.6040  227.3380 F   0  0  0  0  0  0  0  0  0  0  0  0
  139.8680   72.2170  228.2790 F   0  0  0  0  0  0  0  0  0  0  0  0
  140.3850   71.7070  225.2180 C   0  0  0  0  0  0  0  0  0  0  0  0
  138.6559   76.4299  220.5597 H   0  0  0  0  0  0  0  0  0  0  0  0
  140.4062   76.6667  220.4431 H   0  0  0  0  0  0  0  0  0  0  0  0
  139.3399   73.9744  219.5511 H   0  0  0  0  0  0  0  0  0  0  0  0
  138.9408   75.3898  218.5073 H   0  0  0  0  0  0  0  0  0  0  0  0
  140.9654   75.1842  217.5849 H   0  0  0  0  0  0  0  0  0  0  0  0
  141.6571   75.6824  219.1834 H   0  0  0  0  0  0  0  0  0  0  0  0
  143.3394   75.6373  219.2965 H   0  0  0  0  0  0  0  0  0  0  0  0
  145.4358   75.5170  220.5923 H   0  0  0  0  0  0  0  0  0  0  0  0
  144.6804   71.3247  221.3041 H   0  0  0  0  0  0  0  0  0  0  0  0
  140.9070   73.4560  220.6320 H   0  0  0  0  0  0  0  0  0  0  0  0
  139.1196   71.6594  222.0385 H   0  0  0  0  0  0  0  0  0  0  0  0
  138.9590   69.3799  223.2312 H   0  0  0  0  0  0  0  0  0  0  0  0
  138.9952   68.0975  225.3542 H   0  0  0  0  0  0  0  0  0  0  0  0
  139.9312   69.1403  227.4150 H   0  0  0  0  0  0  0  0  0  0  0  0
  140.7795   72.7331  225.1790 H   0  0  0  0  0  0  0  0  0  0  0  0
  1  2  2  0
  2  3  1  0
  3  4  1  0
  4  5  1  0
  5  6  1  0
  6  7  1  0
  7  8  2  0
  8  9  1  0
  9 10  2  0
 10 11  1  0
 10 12  1  0
 12 13  2  0
 13 14  1  0
  2 15  1  0
 15 16  1  0
 16 17  2  0
 17 18  1  0
 18 19  2  0
 19 20  1  0
 20 21  2  0
 21 22  1  0
 22 23  1  0
 23 24  1  0
 23 25  1  0
 23 26  1  0
 22 27  2  0
 13  7  1  0
 27 18  1  0
  3 28  1  0
  3 29  1  0
  4 30  1  0
  4 31  1  0
  5 32  1  0
  5 33  1  0
  8 34  1  0
  9 35  1  0
 12 36  1  0
 15 37  1  0
 17 38  1  0
 19 39  1  0
 20 40  1  0
 21 41  1  0
 27 42  1  0
M  END
>  <smiles>  (15) 
O=C(CCCOc1ccc(Cl)cc1Cl)NN=Cc1cccc(C(F)(F)F)c1

>  <score_type>  (15) 
oracle

>  <origin>  (15) 
autodockgpu

>  <m_score__min__energy>  (15) 
-7.5199999999999996

>  <m_primary>  (15) 
energy

>  <rmsd>  (15) 
9.442556510761293

>  <m_score__min__rmsd>  (15) 
9.442556510761293

>  <meeko>  (15) 
{"free_energy": -6.01, "intermolecular_energy": -8.69, "internal_energy": -2.09, "cluster_size": 3, "cluster_id": 5, "rank_in_cluster": 3}

>  <energy>  (15) 
-6.24

>  <cluster_rmsd>  (15) 
1.91

>  <cluster>  (15) 
1

$$$$

     RDKit          3D

 42 43  0  0  1  0  0  0  0  0999 V2000
  141.0670   72.6820  222.0610 O   0  0  0  0  0  0  0  0  0  0  0  0
  139.8950   73.0740  222.3410 C   0  0  0  0  0  0  0  0  0  0  0  0
  139.5850   74.4950  221.9690 C   0  0  0  0  0  0  0  0  0  0  0  0
  140.9160   75.1110  221.5220 C   0  0  0  0  0  0  0  0  0  0  0  0
  140.6930   76.0720  220.3710 C   0  0  0  0  0  0  0  0  0  0  0  0
  139.9070   77.1800  220.7650 O   0  0  0  0  0  0  0  0  0  0  0  0
  140.4990   78.1520  221.5950 C   0  0  0  0  0  0  0  0  0  0  0  0
  141.8390   78.4880  221.4710 C   0  0  0  0  0  0  0  0  0  0  0  0
  142.4520   79.4320  222.2630 C   0  0  0  0  0  0  0  0  0  0  0  0
  141.6820   80.0720  223.2300 C   0  0  0  0  0  0  0  0  0  0  0  0
  142.4960   81.2660  224.2170 Cl  0  0  0  0  0  0  0  0  0  0  0  0
  140.3430   79.7640  223.3830 C   0  0  0  0  0  0  0  0  0  0  0  0
  139.7470   78.8050  222.5680 C   0  0  0  0  0  0  0  0  0  0  0  0
  138.0490   78.4310  222.7820 Cl  0  0  0  0  0  0  0  0  0  0  0  0
  138.9330   72.2550  222.9570 N   0  0  0  0  0  0  0  0  0  0  0  0
  139.1590   70.9190  223.3290 N   0  0  0  0  0  0  0  0  0  0  0  0
  140.3110   70.5790  223.8450 C   0  0  0  0  0  0  0  0  0  0  0  0
  140.5620   70.7110  225.2910 C   0  0  0  0  0  0  0  0  0  0  0  0
  141.0590   71.8780  225.8370 C   0  0  0  0  0  0  0  0  0  0  0  0
  141.2920   71.9940  227.2020 C   0  0  0  0  0  0  0  0  0  0  0  0
  141.0230   70.9200  228.0350 C   0  0  0  0  0  0  0  0  0  0  0  0
  140.5200   69.7340  227.4950 C   0  0  0  0  0  0  0  0  0  0  0  0
  140.2360   68.5870  228.4140 C   0  0  0  0  0  0  0  0  0  0  0  0
  141.4010   68.0810  228.9240 F   0  0  0  0  0  0  0  0  0  0  0  0
  139.3510   68.9820  229.3770 F   0  0  0  0  0  0  0  0  0  0  0  0
  139.5850   67.6500  227.6010 F   0  0  0  0  0  0  0  0  0  0  0  0
  140.2950   69.6440  226.1250 C   0  0  0  0  0  0  0  0  0  0  0  0
  138.8542   74.5249  221.1474 H   0  0  0  0  0  0  0  0  0  0  0  0
  139.1470   75.0476  222.8132 H   0  0  0  0  0  0  0  0  0  0  0  0
  141.3656   75.6545  222.3661 H   0  0  0  0  0  0  0  0  0  0  0  0
  141.5882   74.3061  221.1899 H   0  0  0  0  0  0  0  0  0  0  0  0
  141.6683   76.4346  220.0141 H   0  0  0  0  0  0  0  0  0  0  0  0
  140.1582   75.5361  219.5730 H   0  0  0  0  0  0  0  0  0  0  0  0
  142.4394   77.9764  220.7043 H   0  0  0  0  0  0  0  0  0  0  0  0
  143.5176   79.6733  222.1358 H   0  0  0  0  0  0  0  0  0  0  0  0
  139.7465   80.2781  224.1510 H   0  0  0  0  0  0  0  0  0  0  0  0
  137.9580   72.6130  223.1800 H   0  0  0  0  0  0  0  0  0  0  0  0
  141.1043   70.1888  223.1904 H   0  0  0  0  0  0  0  0  0  0  0  0
  141.2747   72.7324  225.1786 H   0  0  0  0  0  0  0  0  0  0  0  0
  141.6874   72.9322  227.6184 H   0  0  0  0  0  0  0  0  0  0  0  0
  141.2047   71.0009  229.1169 H   0  0  0  0  0  0  0  0  0  0  0  0
  139.8989   68.7097  225.7006 H   0  0  0  0  0  0  0  0  0  0  0  0
  1  2  2  0
  2  3  1  0
  3  4  1  0
  4  5  1  0
  5  6  1  0
  6  7  1  0
  7  8  2  0
  8  9  1  0
  9 10  2  0
 10 11  1  0
 10 12  1  0
 12 13  2  0
 13 14  1  0
  2 15  1  0
 15 16  1  0
 16 17  2  0
 17 18  1  0
 18 19  2  0
 19 20  1  0
 20 21  2  0
 21 22  1  0
 22 23  1  0
 23 24  1  0
 23 25  1  0
 23 26  1  0
 22 27  2  0
 13  7  1  0
 27 18  1  0
  3 28  1  0
  3 29  1  0
  4 30  1  0
  4 31  1  0
  5 32  1  0
  5 33  1  0
  8 34  1  0
  9 35  1  0
 12 36  1  0
 15 37  1  0
 17 38  1  0
 19 39  1  0
 20 40  1  0
 21 41  1  0
 27 42  1  0
M  END
>  <smiles>  (16) 
O=C(CCCOc1ccc(Cl)cc1Cl)NN=Cc1cccc(C(F)(F)F)c1

>  <score_type>  (16) 
oracle

>  <origin>  (16) 
autodockgpu

>  <m_score__min__energy>  (16) 
-7.5199999999999996

>  <m_primary>  (16) 
energy

>  <rmsd>  (16) 
6.0514122024862225

>  <m_score__min__rmsd>  (16) 
6.0514122024862225

>  <meeko>  (16) 
{"free_energy": -6.9, "intermolecular_energy": -9.58, "internal_energy": -0.73, "cluster_size": 15, "cluster_id": 1, "rank_in_cluster": 9}

>  <energy>  (16) 
-7.35

>  <cluster_rmsd>  (16) 
0.0

>  <cluster>  (16) 
2

$$$$

     RDKit          3D

 42 43  0  0  1  0  0  0  0  0999 V2000
  139.2520   75.3680  220.0330 O   0  0  0  0  0  0  0  0  0  0  0  0
  139.2650   74.5600  221.0090 C   0  0  0  0  0  0  0  0  0  0  0  0
  138.9280   73.1360  220.6710 C   0  0  0  0  0  0  0  0  0  0  0  0
  140.2210   72.3390  220.8790 C   0  0  0  0  0  0  0  0  0  0  0  0
  140.0690   71.3800  222.0440 C   0  0  0  0  0  0  0  0  0  0  0  0
  139.8720   72.0710  223.2620 O   0  0  0  0  0  0  0  0  0  0  0  0
  140.0010   71.3490  224.4640 C   0  0  0  0  0  0  0  0  0  0  0  0
  141.0480   71.5900  225.3420 C   0  0  0  0  0  0  0  0  0  0  0  0
  141.2080   70.9040  226.5250 C   0  0  0  0  0  0  0  0  0  0  0  0
  140.2700   69.9260  226.8440 C   0  0  0  0  0  0  0  0  0  0  0  0
  140.5070   69.0780  228.3560 Cl  0  0  0  0  0  0  0  0  0  0  0  0
  139.2130   69.6580  225.9930 C   0  0  0  0  0  0  0  0  0  0  0  0
  139.0750   70.3670  224.8030 C   0  0  0  0  0  0  0  0  0  0  0  0
  137.7280   70.0070  223.7420 Cl  0  0  0  0  0  0  0  0  0  0  0  0
  139.5690   74.9450  222.3260 N   0  0  0  0  0  0  0  0  0  0  0  0
  139.8920   76.2570  222.7080 N   0  0  0  0  0  0  0  0  0  0  0  0
  141.0390   76.7700  222.3470 C   0  0  0  0  0  0  0  0  0  0  0  0
  141.3330   78.1980  222.5670 C   0  0  0  0  0  0  0  0  0  0  0  0
  141.8450   78.6570  223.7640 C   0  0  0  0  0  0  0  0  0  0  0  0
  142.1200   80.0050  223.9620 C   0  0  0  0  0  0  0  0  0  0  0  0
  141.8750   80.9100  222.9410 C   0  0  0  0  0  0  0  0  0  0  0  0
  141.3560   80.4580  221.7260 C   0  0  0  0  0  0  0  0  0  0  0  0
  141.0990   81.4520  220.6370 C   0  0  0  0  0  0  0  0  0  0  0  0
  139.7970   81.3850  220.2230 F   0  0  0  0  0  0  0  0  0  0  0  0
  141.4680   82.6980  221.0610 F   0  0  0  0  0  0  0  0  0  0  0  0
  141.9810   81.0770  219.6150 F   0  0  0  0  0  0  0  0  0  0  0  0
  141.0900   79.1030  221.5530 C   0  0  0  0  0  0  0  0  0  0  0  0
  138.1362   72.7616  221.3365 H   0  0  0  0  0  0  0  0  0  0  0  0
  138.5565   73.0421  219.6399 H   0  0  0  0  0  0  0  0  0  0  0  0
  140.4455   71.7677  219.9662 H   0  0  0  0  0  0  0  0  0  0  0  0
  141.0406   73.0392  221.0977 H   0  0  0  0  0  0  0  0  0  0  0  0
  139.2029   70.7275  221.8592 H   0  0  0  0  0  0  0  0  0  0  0  0
  140.9934   70.7896  222.1278 H   0  0  0  0  0  0  0  0  0  0  0  0
  141.7840   72.3647  225.0809 H   0  0  0  0  0  0  0  0  0  0  0  0
  142.0509   71.1220  227.1973 H   0  0  0  0  0  0  0  0  0  0  0  0
  138.4793   68.8823  226.2574 H   0  0  0  0  0  0  0  0  0  0  0  0
  139.5710   74.2430  223.1240 H   0  0  0  0  0  0  0  0  0  0  0  0
  141.7953   76.1274  221.8725 H   0  0  0  0  0  0  0  0  0  0  0  0
  142.0392   77.9420  224.5770 H   0  0  0  0  0  0  0  0  0  0  0  0
  142.5293   80.3513  224.9225 H   0  0  0  0  0  0  0  0  0  0  0  0
  142.0884   81.9792  223.0872 H   0  0  0  0  0  0  0  0  0  0  0  0
  140.6807   78.7483  220.5956 H   0  0  0  0  0  0  0  0  0  0  0  0
  1  2  2  0
  2  3  1  0
  3  4  1  0
  4  5  1  0
  5  6  1  0
  6  7  1  0
  7  8  2  0
  8  9  1  0
  9 10  2  0
 10 11  1  0
 10 12  1  0
 12 13  2  0
 13 14  1  0
  2 15  1  0
 15 16  1  0
 16 17  2  0
 17 18  1  0
 18 19  2  0
 19 20  1  0
 20 21  2  0
 21 22  1  0
 22 23  1  0
 23 24  1  0
 23 25  1  0
 23 26  1  0
 22 27  2  0
 13  7  1  0
 27 18  1  0
  3 28  1  0
  3 29  1  0
  4 30  1  0
  4 31  1  0
  5 32  1  0
  5 33  1  0
  8 34  1  0
  9 35  1  0
 12 36  1  0
 15 37  1  0
 17 38  1  0
 19 39  1  0
 20 40  1  0
 21 41  1  0
 27 42  1  0
M  END
>  <smiles>  (17) 
O=C(CCCOc1ccc(Cl)cc1Cl)NN=Cc1cccc(C(F)(F)F)c1

>  <score_type>  (17) 
oracle

>  <origin>  (17) 
autodockgpu

>  <m_score__min__energy>  (17) 
-7.5199999999999996

>  <m_primary>  (17) 
energy

>  <rmsd>  (17) 
12.495665393977724

>  <m_score__min__rmsd>  (17) 
12.495665393977724

>  <meeko>  (17) 
{"free_energy": -6.46, "intermolecular_energy": -9.14, "internal_energy": -1.46, "cluster_size": 6, "cluster_id": 2, "rank_in_cluster": 5}

>  <energy>  (17) 
-7.28

>  <cluster_rmsd>  (17) 
1.04

>  <cluster>  (17) 
2

$$$$

     RDKit          3D

 42 43  0  0  1  0  0  0  0  0999 V2000
  140.9410   75.0270  221.4760 O   0  0  0  0  0  0  0  0  0  0  0  0
  139.7460   75.0260  221.8990 C   0  0  0  0  0  0  0  0  0  0  0  0
  139.0800   76.3710  221.9500 C   0  0  0  0  0  0  0  0  0  0  0  0
  138.0630   76.2920  223.0950 C   0  0  0  0  0  0  0  0  0  0  0  0
  136.7020   75.8860  222.5660 C   0  0  0  0  0  0  0  0  0  0  0  0
  136.5270   74.4830  222.6080 O   0  0  0  0  0  0  0  0  0  0  0  0
  135.7620   73.9400  223.6590 C   0  0  0  0  0  0  0  0  0  0  0  0
  135.0790   74.7550  224.5490 C   0  0  0  0  0  0  0  0  0  0  0  0
  134.3220   74.2620  225.5880 C   0  0  0  0  0  0  0  0  0  0  0  0
  134.2470   72.8810  225.7420 C   0  0  0  0  0  0  0  0  0  0  0  0
  133.2740   72.2930  227.0730 Cl  0  0  0  0  0  0  0  0  0  0  0  0
  134.9140   72.0370  224.8740 C   0  0  0  0  0  0  0  0  0  0  0  0
  135.6730   72.5620  223.8320 C   0  0  0  0  0  0  0  0  0  0  0  0
  136.5110   71.4710  222.7460 Cl  0  0  0  0  0  0  0  0  0  0  0  0
  139.0710   73.8610  222.3010 N   0  0  0  0  0  0  0  0  0  0  0  0
  139.6360   72.5760  222.2770 N   0  0  0  0  0  0  0  0  0  0  0  0
  140.5620   72.2620  223.1450 C   0  0  0  0  0  0  0  0  0  0  0  0
  140.2450   71.4410  224.3280 C   0  0  0  0  0  0  0  0  0  0  0  0
  139.5050   70.2800  224.2280 C   0  0  0  0  0  0  0  0  0  0  0  0
  139.2110   69.5120  225.3480 C   0  0  0  0  0  0  0  0  0  0  0  0
  139.6680   69.9160  226.5920 C   0  0  0  0  0  0  0  0  0  0  0  0
  140.4180   71.0890  226.7070 C   0  0  0  0  0  0  0  0  0  0  0  0
  140.9020   71.5060  228.0610 C   0  0  0  0  0  0  0  0  0  0  0  0
  141.8680   72.4680  227.9490 F   0  0  0  0  0  0  0  0  0  0  0  0
  139.8380   71.8960  228.8250 F   0  0  0  0  0  0  0  0  0  0  0  0
  141.4140   70.3280  228.6200 F   0  0  0  0  0  0  0  0  0  0  0  0
  140.6980   71.8400  225.5700 C   0  0  0  0  0  0  0  0  0  0  0  0
  139.8218   77.1581  222.1505 H   0  0  0  0  0  0  0  0  0  0  0  0
  138.5946   76.6183  220.9944 H   0  0  0  0  0  0  0  0  0  0  0  0
  138.4026   75.5480  223.8306 H   0  0  0  0  0  0  0  0  0  0  0  0
  137.9811   77.2816  223.5683 H   0  0  0  0  0  0  0  0  0  0  0  0
  135.9233   76.3619  223.1801 H   0  0  0  0  0  0  0  0  0  0  0  0
  136.6278   76.2119  221.5180 H   0  0  0  0  0  0  0  0  0  0  0  0
  135.1450   75.8453  224.4190 H   0  0  0  0  0  0  0  0  0  0  0  0
  133.7929   74.9388  226.2751 H   0  0  0  0  0  0  0  0  0  0  0  0
  134.8448   70.9473  225.0071 H   0  0  0  0  0  0  0  0  0  0  0  0
  138.0680   73.8920  222.6520 H   0  0  0  0  0  0  0  0  0  0  0  0
  141.5922   72.6154  222.9905 H   0  0  0  0  0  0  0  0  0  0  0  0
  139.1408   69.9563  223.2418 H   0  0  0  0  0  0  0  0  0  0  0  0
  138.6197   68.5899  225.2477 H   0  0  0  0  0  0  0  0  0  0  0  0
  139.4412   69.3156  227.4854 H   0  0  0  0  0  0  0  0  0  0  0  0
  141.2880   72.7638  225.6615 H   0  0  0  0  0  0  0  0  0  0  0  0
  1  2  2  0
  2  3  1  0
  3  4  1  0
  4  5  1  0
  5  6  1  0
  6  7  1  0
  7  8  2  0
  8  9  1  0
  9 10  2  0
 10 11  1  0
 10 12  1  0
 12 13  2  0
 13 14  1  0
  2 15  1  0
 15 16  1  0
 16 17  2  0
 17 18  1  0
 18 19  2  0
 19 20  1  0
 20 21  2  0
 21 22  1  0
 22 23  1  0
 23 24  1  0
 23 25  1  0
 23 26  1  0
 22 27  2  0
 13  7  1  0
 27 18  1  0
  3 28  1  0
  3 29  1  0
  4 30  1  0
  4 31  1  0
  5 32  1  0
  5 33  1  0
  8 34  1  0
  9 35  1  0
 12 36  1  0
 15 37  1  0
 17 38  1  0
 19 39  1  0
 20 40  1  0
 21 41  1  0
 27 42  1  0
M  END
>  <smiles>  (18) 
O=C(CCCOc1ccc(Cl)cc1Cl)NN=Cc1cccc(C(F)(F)F)c1

>  <score_type>  (18) 
oracle

>  <origin>  (18) 
autodockgpu

>  <m_score__min__energy>  (18) 
-7.5199999999999996

>  <m_primary>  (18) 
energy

>  <rmsd>  (18) 
10.135199940398554

>  <m_score__min__rmsd>  (18) 
10.135199940398554

>  <meeko>  (18) 
{"free_energy": -5.49, "intermolecular_energy": -8.17, "internal_energy": -2.22, "cluster_size": 9, "cluster_id": 8, "rank_in_cluster": 9}

>  <energy>  (18) 
-6.72

>  <cluster_rmsd>  (18) 
1.91

>  <cluster>  (18) 
2

$$$$

     RDKit          3D

 42 43  0  0  1  0  0  0  0  0999 V2000
  138.6580   72.3930  220.3530 O   0  0  0  0  0  0  0  0  0  0  0  0
  138.4110   73.3100  221.1920 C   0  0  0  0  0  0  0  0  0  0  0  0
  137.1920   74.1380  220.9010 C   0  0  0  0  0  0  0  0  0  0  0  0
  136.8830   74.8970  222.1970 C   0  0  0  0  0  0  0  0  0  0  0  0
  137.5220   76.2720  222.1680 C   0  0  0  0  0  0  0  0  0  0  0  0
  138.9050   76.1950  221.8820 O   0  0  0  0  0  0  0  0  0  0  0  0
  139.7140   77.2990  222.2110 C   0  0  0  0  0  0  0  0  0  0  0  0
  139.2600   78.2990  223.0590 C   0  0  0  0  0  0  0  0  0  0  0  0
  140.0210   79.3930  223.4030 C   0  0  0  0  0  0  0  0  0  0  0  0
  141.3030   79.4900  222.8700 C   0  0  0  0  0  0  0  0  0  0  0  0
  142.2390   80.8950  223.3320 Cl  0  0  0  0  0  0  0  0  0  0  0  0
  141.7900   78.5130  222.0210 C   0  0  0  0  0  0  0  0  0  0  0  0
  140.9990   77.4170  221.6890 C   0  0  0  0  0  0  0  0  0  0  0  0
  141.6380   76.1930  220.6100 Cl  0  0  0  0  0  0  0  0  0  0  0  0
  139.2080   73.5560  222.3230 N   0  0  0  0  0  0  0  0  0  0  0  0
  140.3580   72.8200  222.6510 N   0  0  0  0  0  0  0  0  0  0  0  0
  140.2800   71.5210  222.7710 C   0  0  0  0  0  0  0  0  0  0  0  0
  140.1510   70.8890  224.0970 C   0  0  0  0  0  0  0  0  0  0  0  0
  139.5790   69.6420  224.2540 C   0  0  0  0  0  0  0  0  0  0  0  0
  139.4620   69.0540  225.5070 C   0  0  0  0  0  0  0  0  0  0  0  0
  139.9250   69.7300  226.6250 C   0  0  0  0  0  0  0  0  0  0  0  0
  140.5050   70.9920  226.4800 C   0  0  0  0  0  0  0  0  0  0  0  0
  141.0000   71.7040  227.7010 C   0  0  0  0  0  0  0  0  0  0  0  0
  141.9400   72.6380  227.3630 F   0  0  0  0  0  0  0  0  0  0  0  0
  139.9380   72.2270  228.3840 F   0  0  0  0  0  0  0  0  0  0  0  0
  141.5500   70.6860  228.4910 F   0  0  0  0  0  0  0  0  0  0  0  0
  140.6110   71.5580  225.2140 C   0  0  0  0  0  0  0  0  0  0  0  0
  137.3952   74.8444  220.0826 H   0  0  0  0  0  0  0  0  0  0  0  0
  136.3436   73.5126  220.5861 H   0  0  0  0  0  0  0  0  0  0  0  0
  135.7935   75.0055  222.3028 H   0  0  0  0  0  0  0  0  0  0  0  0
  137.2903   74.3315  223.0481 H   0  0  0  0  0  0  0  0  0  0  0  0
  137.0300   76.8785  221.3933 H   0  0  0  0  0  0  0  0  0  0  0  0
  137.3998   76.7303  223.1605 H   0  0  0  0  0  0  0  0  0  0  0  0
  138.2454   78.2135  223.4754 H   0  0  0  0  0  0  0  0  0  0  0  0
  139.6280   80.1670  224.0786 H   0  0  0  0  0  0  0  0  0  0  0  0
  142.8052   78.6023  221.6070 H   0  0  0  0  0  0  0  0  0  0  0  0
  138.9750   74.3340  223.0090 H   0  0  0  0  0  0  0  0  0  0  0  0
  140.3110   70.8903  221.8703 H   0  0  0  0  0  0  0  0  0  0  0  0
  139.2086   69.1036  223.3692 H   0  0  0  0  0  0  0  0  0  0  0  0
  139.0051   68.0588  225.6113 H   0  0  0  0  0  0  0  0  0  0  0  0
  139.8359   69.2743  227.6222 H   0  0  0  0  0  0  0  0  0  0  0  0
  141.0676   72.5524  225.1009 H   0  0  0  0  0  0  0  0  0  0  0  0
  1  2  2  0
  2  3  1  0
  3  4  1  0
  4  5  1  0
  5  6  1  0
  6  7  1  0
  7  8  2  0
  8  9  1  0
  9 10  2  0
 10 11  1  0
 10 12  1  0
 12 13  2  0
 13 14  1  0
  2 15  1  0
 15 16  1  0
 16 17  2  0
 17 18  1  0
 18 19  2  0
 19 20  1  0
 20 21  2  0
 21 22  1  0
 22 23  1  0
 23 24  1  0
 23 25  1  0
 23 26  1  0
 22 27  2  0
 13  7  1  0
 27 18  1  0
  3 28  1  0
  3 29  1  0
  4 30  1  0
  4 31  1  0
  5 32  1  0
  5 33  1  0
  8 34  1  0
  9 35  1  0
 12 36  1  0
 15 37  1  0
 17 38  1  0
 19 39  1  0
 20 40  1  0
 21 41  1  0
 27 42  1  0
M  END
>  <smiles>  (19) 
O=C(CCCOc1ccc(Cl)cc1Cl)NN=Cc1cccc(C(F)(F)F)c1

>  <score_type>  (19) 
oracle

>  <origin>  (19) 
autodockgpu

>  <m_score__min__energy>  (19) 
-7.5199999999999996

>  <m_primary>  (19) 
energy

>  <rmsd>  (19) 
5.863108416090946

>  <m_score__min__rmsd>  (19) 
5.863108416090946

>  <meeko>  (19) 
{"free_energy": -6.78, "intermolecular_energy": -9.46, "internal_energy": -1.59, "cluster_size": 15, "cluster_id": 1, "rank_in_cluster": 10}

>  <energy>  (19) 
-6.55

>  <cluster_rmsd>  (19) 
1.3

>  <cluster>  (19) 
2

$$$$

     RDKit          3D

 42 43  0  0  1  0  0  0  0  0999 V2000
  141.1350   75.9270  221.9420 O   0  0  0  0  0  0  0  0  0  0  0  0
  139.9240   75.6320  222.1700 C   0  0  0  0  0  0  0  0  0  0  0  0
  138.9770   76.7960  222.2210 C   0  0  0  0  0  0  0  0  0  0  0  0
  137.6490   76.2820  221.6510 C   0  0  0  0  0  0  0  0  0  0  0  0
  136.7150   75.8760  222.7730 C   0  0  0  0  0  0  0  0  0  0  0  0
  136.3540   74.5110  222.6790 O   0  0  0  0  0  0  0  0  0  0  0  0
  135.6190   73.9450  223.7380 C   0  0  0  0  0  0  0  0  0  0  0  0
  135.0360   74.7370  224.7170 C   0  0  0  0  0  0  0  0  0  0  0  0
  134.3110   74.2190  225.7660 C   0  0  0  0  0  0  0  0  0  0  0  0
  134.1640   72.8370  225.8390 C   0  0  0  0  0  0  0  0  0  0  0  0
  133.2360   72.2180  227.1880 Cl  0  0  0  0  0  0  0  0  0  0  0  0
  134.7310   72.0160  224.8830 C   0  0  0  0  0  0  0  0  0  0  0  0
  135.4590   72.5650  223.8310 C   0  0  0  0  0  0  0  0  0  0  0  0
  136.1690   71.5030  222.6320 Cl  0  0  0  0  0  0  0  0  0  0  0  0
  139.4730   74.3160  222.3660 N   0  0  0  0  0  0  0  0  0  0  0  0
  140.3060   73.1850  222.3310 N   0  0  0  0  0  0  0  0  0  0  0  0
  139.7750   71.9910  222.3540 C   0  0  0  0  0  0  0  0  0  0  0  0
  139.6760   71.2300  223.6130 C   0  0  0  0  0  0  0  0  0  0  0  0
  138.9490   70.0590  223.6970 C   0  0  0  0  0  0  0  0  0  0  0  0
  138.8610   69.3490  224.8880 C   0  0  0  0  0  0  0  0  0  0  0  0
  139.5140   69.8210  226.0160 C   0  0  0  0  0  0  0  0  0  0  0  0
  140.2520   71.0040  225.9430 C   0  0  0  0  0  0  0  0  0  0  0  0
  140.9490   71.4960  227.1740 C   0  0  0  0  0  0  0  0  0  0  0  0
  140.0980   72.2420  227.9410 F   0  0  0  0  0  0  0  0  0  0  0  0
  141.4920   70.4360  227.8430 F   0  0  0  0  0  0  0  0  0  0  0  0
  142.0070   72.2700  226.6810 F   0  0  0  0  0  0  0  0  0  0  0  0
  140.3240   71.6970  224.7390 C   0  0  0  0  0  0  0  0  0  0  0  0
  138.8425   77.1348  223.2589 H   0  0  0  0  0  0  0  0  0  0  0  0
  139.3587   77.6529  221.6465 H   0  0  0  0  0  0  0  0  0  0  0  0
  137.1771   77.0784  221.0567 H   0  0  0  0  0  0  0  0  0  0  0  0
  137.8480   75.4052  221.0173 H   0  0  0  0  0  0  0  0  0  0  0  0
  137.2178   76.0472  223.7362 H   0  0  0  0  0  0  0  0  0  0  0  0
  135.7996   76.4811  222.6960 H   0  0  0  0  0  0  0  0  0  0  0  0
  135.1588   75.8282  224.6517 H   0  0  0  0  0  0  0  0  0  0  0  0
  133.8614   74.8775  226.5238 H   0  0  0  0  0  0  0  0  0  0  0  0
  134.6068   70.9253  224.9534 H   0  0  0  0  0  0  0  0  0  0  0  0
  138.4500   74.1000  222.5570 H   0  0  0  0  0  0  0  0  0  0  0  0
  139.3967   71.5476  221.4211 H   0  0  0  0  0  0  0  0  0  0  0  0
  138.4297   69.6811  222.8040 H   0  0  0  0  0  0  0  0  0  0  0  0
  138.2768   68.4182  224.9356 H   0  0  0  0  0  0  0  0  0  0  0  0
  139.4511   69.2663  226.9638 H   0  0  0  0  0  0  0  0  0  0  0  0
  140.9050   72.6294  224.6834 H   0  0  0  0  0  0  0  0  0  0  0  0
  1  2  2  0
  2  3  1  0
  3  4  1  0
  4  5  1  0
  5  6  1  0
  6  7  1  0
  7  8  2  0
  8  9  1  0
  9 10  2  0
 10 11  1  0
 10 12  1  0
 12 13  2  0
 13 14  1  0
  2 15  1  0
 15 16  1  0
 16 17  2  0
 17 18  1  0
 18 19  2  0
 19 20  1  0
 20 21  2  0
 21 22  1  0
 22 23  1  0
 23 24  1  0
 23 25  1  0
 23 26  1  0
 22 27  2  0
 13  7  1  0
 27 18  1  0
  3 28  1  0
  3 29  1  0
  4 30  1  0
  4 31  1  0
  5 32  1  0
  5 33  1  0
  8 34  1  0
  9 35  1  0
 12 36  1  0
 15 37  1  0
 17 38  1  0
 19 39  1  0
 20 40  1  0
 21 41  1  0
 27 42  1  0
M  END
>  <smiles>  (20) 
O=C(CCCOc1ccc(Cl)cc1Cl)NN=Cc1cccc(C(F)(F)F)c1

>  <score_type>  (20) 
oracle

>  <origin>  (20) 
autodockgpu

>  <m_score__min__energy>  (20) 
-7.5199999999999996

>  <m_primary>  (20) 
energy

>  <rmsd>  (20) 
10.267040602285292

>  <m_score__min__rmsd>  (20) 
10.267040602285292

>  <meeko>  (20) 
{"free_energy": -5.59, "intermolecular_energy": -8.27, "internal_energy": -2.18, "cluster_size": 9, "cluster_id": 8, "rank_in_cluster": 7}

>  <energy>  (20) 
-6.46

>  <cluster_rmsd>  (20) 
1.32

>  <cluster>  (20) 
2

$$$$

     RDKit          3D

 42 43  0  0  1  0  0  0  0  0999 V2000
  141.1850   73.3680  220.6170 O   0  0  0  0  0  0  0  0  0  0  0  0
  141.8480   74.4450  220.5400 C   0  0  0  0  0  0  0  0  0  0  0  0
  142.9330   74.4610  219.5020 C   0  0  0  0  0  0  0  0  0  0  0  0
  143.6940   75.7760  219.7110 C   0  0  0  0  0  0  0  0  0  0  0  0
  143.0730   76.8830  218.8820 C   0  0  0  0  0  0  0  0  0  0  0  0
  141.7150   77.0870  219.2230 O   0  0  0  0  0  0  0  0  0  0  0  0
  141.2770   78.4070  219.4420 C   0  0  0  0  0  0  0  0  0  0  0  0
  142.1780   79.4410  219.6540 C   0  0  0  0  0  0  0  0  0  0  0  0
  141.7880   80.7430  219.8710 C   0  0  0  0  0  0  0  0  0  0  0  0
  140.4250   81.0230  219.8760 C   0  0  0  0  0  0  0  0  0  0  0  0
  139.9690   82.6900  220.1540 Cl  0  0  0  0  0  0  0  0  0  0  0  0
  139.4970   80.0200  219.6670 C   0  0  0  0  0  0  0  0  0  0  0  0
  139.9190   78.7110  219.4500 C   0  0  0  0  0  0  0  0  0  0  0  0
  138.7240   77.4560  219.1890 Cl  0  0  0  0  0  0  0  0  0  0  0  0
  141.6050   75.5610  221.3580 N   0  0  0  0  0  0  0  0  0  0  0  0
  140.6080   75.6110  222.3460 N   0  0  0  0  0  0  0  0  0  0  0  0
  139.6260   76.4670  222.2290 C   0  0  0  0  0  0  0  0  0  0  0  0
  139.7690   77.8540  222.7080 C   0  0  0  0  0  0  0  0  0  0  0  0
  138.6780   78.6010  223.1030 C   0  0  0  0  0  0  0  0  0  0  0  0
  138.8220   79.9070  223.5530 C   0  0  0  0  0  0  0  0  0  0  0  0
  140.0850   80.4760  223.6070 C   0  0  0  0  0  0  0  0  0  0  0  0
  141.1970   79.7310  223.2090 C   0  0  0  0  0  0  0  0  0  0  0  0
  142.5510   80.3650  223.2760 C   0  0  0  0  0  0  0  0  0  0  0  0
  142.5740   81.5250  222.5510 F   0  0  0  0  0  0  0  0  0  0  0  0
  142.9090   80.5390  224.5840 F   0  0  0  0  0  0  0  0  0  0  0  0
  143.4080   79.4020  222.7290 F   0  0  0  0  0  0  0  0  0  0  0  0
  141.0250   78.4240  222.7630 C   0  0  0  0  0  0  0  0  0  0  0  0
  143.6070   73.6027  219.6396 H   0  0  0  0  0  0  0  0  0  0  0  0
  142.5204   74.3900  218.4848 H   0  0  0  0  0  0  0  0  0  0  0  0
  143.6533   76.0533  220.7747 H   0  0  0  0  0  0  0  0  0  0  0  0
  144.7389   75.6377  219.3964 H   0  0  0  0  0  0  0  0  0  0  0  0
  143.6294   77.8156  219.0570 H   0  0  0  0  0  0  0  0  0  0  0  0
  143.1225   76.5902  217.8229 H   0  0  0  0  0  0  0  0  0  0  0  0
  143.2533   79.2094  219.6484 H   0  0  0  0  0  0  0  0  0  0  0  0
  142.5307   81.5375  220.0354 H   0  0  0  0  0  0  0  0  0  0  0  0
  138.4227   80.2565  219.6722 H   0  0  0  0  0  0  0  0  0  0  0  0
  142.1790   76.4510  221.2710 H   0  0  0  0  0  0  0  0  0  0  0  0
  138.6803   76.1476  221.7668 H   0  0  0  0  0  0  0  0  0  0  0  0
  137.6742   78.1531  223.0606 H   0  0  0  0  0  0  0  0  0  0  0  0
  137.9400   80.4859  223.8644 H   0  0  0  0  0  0  0  0  0  0  0  0
  140.2106   81.5096  223.9617 H   0  0  0  0  0  0  0  0  0  0  0  0
  141.9014   77.8375  222.4502 H   0  0  0  0  0  0  0  0  0  0  0  0
  1  2  2  0
  2  3  1  0
  3  4  1  0
  4  5  1  0
  5  6  1  0
  6  7  1  0
  7  8  2  0
  8  9  1  0
  9 10  2  0
 10 11  1  0
 10 12  1  0
 12 13  2  0
 13 14  1  0
  2 15  1  0
 15 16  1  0
 16 17  2  0
 17 18  1  0
 18 19  2  0
 19 20  1  0
 20 21  2  0
 21 22  1  0
 22 23  1  0
 23 24  1  0
 23 25  1  0
 23 26  1  0
 22 27  2  0
 13  7  1  0
 27 18  1  0
  3 28  1  0
  3 29  1  0
  4 30  1  0
  4 31  1  0
  5 32  1  0
  5 33  1  0
  8 34  1  0
  9 35  1  0
 12 36  1  0
 15 37  1  0
 17 38  1  0
 19 39  1  0
 20 40  1  0
 21 41  1  0
 27 42  1  0
M  END
>  <smiles>  (21) 
O=C(CCCOc1ccc(Cl)cc1Cl)NN=Cc1cccc(C(F)(F)F)c1

>  <score_type>  (21) 
oracle

>  <origin>  (21) 
autodockgpu

>  <m_score__min__energy>  (21) 
-7.5199999999999996

>  <m_primary>  (21) 
energy

>  <rmsd>  (21) 
6.012067522595582

>  <m_score__min__rmsd>  (21) 
6.012067522595582

>  <meeko>  (21) 
{"free_energy": -4.45, "intermolecular_energy": -7.14, "internal_energy": -3.27, "cluster_size": 3, "cluster_id": 12, "rank_in_cluster": 3}

>  <energy>  (21) 
-6.43

>  <cluster_rmsd>  (21) 
1.95

>  <cluster>  (21) 
2

$$$$

     RDKit          3D

 42 43  0  0  1  0  0  0  0  0999 V2000
  139.6040   74.1590  222.2420 O   0  0  0  0  0  0  0  0  0  0  0  0
  140.6680   74.4770  221.6300 C   0  0  0  0  0  0  0  0  0  0  0  0
  141.1810   73.4550  220.6570 C   0  0  0  0  0  0  0  0  0  0  0  0
  140.4250   72.1590  220.9730 C   0  0  0  0  0  0  0  0  0  0  0  0
  140.9030   71.5770  222.2890 C   0  0  0  0  0  0  0  0  0  0  0  0
  139.9100   71.6780  223.2920 O   0  0  0  0  0  0  0  0  0  0  0  0
  140.0840   70.9360  224.4750 C   0  0  0  0  0  0  0  0  0  0  0  0
  140.8020   71.4450  225.5480 C   0  0  0  0  0  0  0  0  0  0  0  0
  140.9940   70.7500  226.7200 C   0  0  0  0  0  0  0  0  0  0  0  0
  140.4360   69.4780  226.8230 C   0  0  0  0  0  0  0  0  0  0  0  0
  140.7000   68.6260  228.3290 Cl  0  0  0  0  0  0  0  0  0  0  0  0
  139.7140   68.9380  225.7750 C   0  0  0  0  0  0  0  0  0  0  0  0
  139.5350   69.6630  224.6000 C   0  0  0  0  0  0  0  0  0  0  0  0
  138.6170   68.9560  223.2860 Cl  0  0  0  0  0  0  0  0  0  0  0  0
  141.3390   75.6950  221.8320 N   0  0  0  0  0  0  0  0  0  0  0  0
  140.9130   76.6910  222.7250 N   0  0  0  0  0  0  0  0  0  0  0  0
  140.3800   77.7900  222.2600 C   0  0  0  0  0  0  0  0  0  0  0  0
  141.0000   79.1020  222.5200 C   0  0  0  0  0  0  0  0  0  0  0  0
  141.9130   79.2830  223.5400 C   0  0  0  0  0  0  0  0  0  0  0  0
  142.4920   80.5230  223.7780 C   0  0  0  0  0  0  0  0  0  0  0  0
  142.1490   81.6030  222.9800 C   0  0  0  0  0  0  0  0  0  0  0  0
  141.2260   81.4320  221.9450 C   0  0  0  0  0  0  0  0  0  0  0  0
  140.8710   82.6120  221.0950 C   0  0  0  0  0  0  0  0  0  0  0  0
  139.5130   82.7150  220.9610 F   0  0  0  0  0  0  0  0  0  0  0  0
  141.4500   83.7370  221.6110 F   0  0  0  0  0  0  0  0  0  0  0  0
  141.4870   82.3460  219.8650 F   0  0  0  0  0  0  0  0  0  0  0  0
  140.6610   80.1800  221.7280 C   0  0  0  0  0  0  0  0  0  0  0  0
  140.9783   73.7743  219.6240 H   0  0  0  0  0  0  0  0  0  0  0  0
  142.2690   73.3208  220.7477 H   0  0  0  0  0  0  0  0  0  0  0  0
  139.3485   72.3746  221.0415 H   0  0  0  0  0  0  0  0  0  0  0  0
  140.6137   71.4306  220.1707 H   0  0  0  0  0  0  0  0  0  0  0  0
  141.1544   70.5165  222.1405 H   0  0  0  0  0  0  0  0  0  0  0  0
  141.7849   72.1462  222.6180 H   0  0  0  0  0  0  0  0  0  0  0  0
  141.2379   72.4509  225.4574 H   0  0  0  0  0  0  0  0  0  0  0  0
  141.5702   71.1854  227.5497 H   0  0  0  0  0  0  0  0  0  0  0  0
  139.2794   67.9320  225.8698 H   0  0  0  0  0  0  0  0  0  0  0  0
  142.2310   75.9330  221.3040 H   0  0  0  0  0  0  0  0  0  0  0  0
  139.4557   77.7352  221.6662 H   0  0  0  0  0  0  0  0  0  0  0  0
  142.1871   78.4287  224.1764 H   0  0  0  0  0  0  0  0  0  0  0  0
  143.2183   80.6470  224.5948 H   0  0  0  0  0  0  0  0  0  0  0  0
  142.6010   82.5895  223.1605 H   0  0  0  0  0  0  0  0  0  0  0  0
  139.9336   80.0471  220.9136 H   0  0  0  0  0  0  0  0  0  0  0  0
  1  2  2  0
  2  3  1  0
  3  4  1  0
  4  5  1  0
  5  6  1  0
  6  7  1  0
  7  8  2  0
  8  9  1  0
  9 10  2  0
 10 11  1  0
 10 12  1  0
 12 13  2  0
 13 14  1  0
  2 15  1  0
 15 16  1  0
 16 17  2  0
 17 18  1  0
 18 19  2  0
 19 20  1  0
 20 21  2  0
 21 22  1  0
 22 23  1  0
 23 24  1  0
 23 25  1  0
 23 26  1  0
 22 27  2  0
 13  7  1  0
 27 18  1  0
  3 28  1  0
  3 29  1  0
  4 30  1  0
  4 31  1  0
  5 32  1  0
  5 33  1  0
  8 34  1  0
  9 35  1  0
 12 36  1  0
 15 37  1  0
 17 38  1  0
 19 39  1  0
 20 40  1  0
 21 41  1  0
 27 42  1  0
M  END
>  <smiles>  (22) 
O=C(CCCOc1ccc(Cl)cc1Cl)NN=Cc1cccc(C(F)(F)F)c1

>  <score_type>  (22) 
oracle

>  <origin>  (22) 
autodockgpu

>  <m_score__min__energy>  (22) 
-7.5199999999999996

>  <m_primary>  (22) 
energy

>  <rmsd>  (22) 
12.681056127988331

>  <m_score__min__rmsd>  (22) 
12.681056127988331

>  <meeko>  (22) 
{"free_energy": -7.35, "intermolecular_energy": -10.03, "internal_energy": -0.71, "cluster_size": 6, "cluster_id": 2, "rank_in_cluster": 1}

>  <energy>  (22) 
-7.12

>  <cluster_rmsd>  (22) 
0.0

>  <cluster>  (22) 
3

$$$$

     RDKit          3D

 42 43  0  0  1  0  0  0  0  0999 V2000
  141.5330   75.1500  220.7300 O   0  0  0  0  0  0  0  0  0  0  0  0
  140.7750   74.2760  221.2470 C   0  0  0  0  0  0  0  0  0  0  0  0
  140.9810   72.8720  220.7540 C   0  0  0  0  0  0  0  0  0  0  0  0
  141.0420   71.9920  222.0090 C   0  0  0  0  0  0  0  0  0  0  0  0
  139.6640   71.4620  222.3510 C   0  0  0  0  0  0  0  0  0  0  0  0
  139.2480   71.8880  223.6340 O   0  0  0  0  0  0  0  0  0  0  0  0
  139.6110   71.1010  224.7440 C   0  0  0  0  0  0  0  0  0  0  0  0
  140.6300   71.4890  225.6010 C   0  0  0  0  0  0  0  0  0  0  0  0
  141.0130   70.7470  226.6960 C   0  0  0  0  0  0  0  0  0  0  0  0
  140.3390   69.5540  226.9430 C   0  0  0  0  0  0  0  0  0  0  0  0
  140.8540   68.6400  228.3440 Cl  0  0  0  0  0  0  0  0  0  0  0  0
  139.3180   69.1350  226.1110 C   0  0  0  0  0  0  0  0  0  0  0  0
  138.9510   69.9050  225.0100 C   0  0  0  0  0  0  0  0  0  0  0  0
  137.6540   69.3510  223.9700 Cl  0  0  0  0  0  0  0  0  0  0  0  0
  139.8010   74.5740  222.2150 N   0  0  0  0  0  0  0  0  0  0  0  0
  139.5600   75.8630  222.7180 N   0  0  0  0  0  0  0  0  0  0  0  0
  139.6260   76.8920  221.9140 C   0  0  0  0  0  0  0  0  0  0  0  0
  140.4940   78.0420  222.2260 C   0  0  0  0  0  0  0  0  0  0  0  0
  141.3900   78.0110  223.2760 C   0  0  0  0  0  0  0  0  0  0  0  0
  142.2040   79.1000  223.5620 C   0  0  0  0  0  0  0  0  0  0  0  0
  142.1170   80.2420  222.7820 C   0  0  0  0  0  0  0  0  0  0  0  0
  141.2140   80.2860  221.7170 C   0  0  0  0  0  0  0  0  0  0  0  0
  141.1380   81.5300  220.8870 C   0  0  0  0  0  0  0  0  0  0  0  0
  141.7920   81.3540  219.6990 F   0  0  0  0  0  0  0  0  0  0  0  0
  139.8300   81.8960  220.7350 F   0  0  0  0  0  0  0  0  0  0  0  0
  141.7610   82.5060  221.6750 F   0  0  0  0  0  0  0  0  0  0  0  0
  140.4110   79.1820  221.4510 C   0  0  0  0  0  0  0  0  0  0  0  0
  140.1426   72.5649  220.1115 H   0  0  0  0  0  0  0  0  0  0  0  0
  141.8987   72.7847  220.1538 H   0  0  0  0  0  0  0  0  0  0  0  0
  141.7204   71.1458  221.8255 H   0  0  0  0  0  0  0  0  0  0  0  0
  141.4105   72.5966  222.8508 H   0  0  0  0  0  0  0  0  0  0  0  0
  138.9450   71.8269  221.6028 H   0  0  0  0  0  0  0  0  0  0  0  0
  139.7071   70.3628  222.3497 H   0  0  0  0  0  0  0  0  0  0  0  0
  141.1565   72.4329  225.3966 H   0  0  0  0  0  0  0  0  0  0  0  0
  141.8259   71.0862  227.3549 H   0  0  0  0  0  0  0  0  0  0  0  0
  138.7937   68.1906  226.3190 H   0  0  0  0  0  0  0  0  0  0  0  0
  139.1790   73.8180  222.6300 H   0  0  0  0  0  0  0  0  0  0  0  0
  139.0257   76.8997  220.9923 H   0  0  0  0  0  0  0  0  0  0  0  0
  141.4607   77.1066  223.8982 H   0  0  0  0  0  0  0  0  0  0  0  0
  142.9128   79.0559  224.4020 H   0  0  0  0  0  0  0  0  0  0  0  0
  142.7562   81.1101  223.0005 H   0  0  0  0  0  0  0  0  0  0  0  0
  139.7003   79.2174  220.6121 H   0  0  0  0  0  0  0  0  0  0  0  0
  1  2  2  0
  2  3  1  0
  3  4  1  0
  4  5  1  0
  5  6  1  0
  6  7  1  0
  7  8  2  0
  8  9  1  0
  9 10  2  0
 10 11  1  0
 10 12  1  0
 12 13  2  0
 13 14  1  0
  2 15  1  0
 15 16  1  0
 16 17  2  0
 17 18  1  0
 18 19  2  0
 19 20  1  0
 20 21  2  0
 21 22  1  0
 22 23  1  0
 23 24  1  0
 23 25  1  0
 23 26  1  0
 22 27  2  0
 13  7  1  0
 27 18  1  0
  3 28  1  0
  3 29  1  0
  4 30  1  0
  4 31  1  0
  5 32  1  0
  5 33  1  0
  8 34  1  0
  9 35  1  0
 12 36  1  0
 15 37  1  0
 17 38  1  0
 19 39  1  0
 20 40  1  0
 21 41  1  0
 27 42  1  0
M  END
>  <smiles>  (23) 
O=C(CCCOc1ccc(Cl)cc1Cl)NN=Cc1cccc(C(F)(F)F)c1

>  <score_type>  (23) 
oracle

>  <origin>  (23) 
autodockgpu

>  <m_score__min__energy>  (23) 
-7.5199999999999996

>  <m_primary>  (23) 
energy

>  <rmsd>  (23) 
12.637027233191807

>  <m_score__min__rmsd>  (23) 
12.637027233191807

>  <meeko>  (23) 
{"free_energy": -6.55, "intermolecular_energy": -9.24, "internal_energy": -1.37, "cluster_size": 6, "cluster_id": 2, "rank_in_cluster": 4}

>  <energy>  (23) 
-7.04

>  <cluster_rmsd>  (23) 
0.76

>  <cluster>  (23) 
3

$$$$

     RDKit          3D

 42 43  0  0  1  0  0  0  0  0999 V2000
  141.1460   74.7630  220.8840 O   0  0  0  0  0  0  0  0  0  0  0  0
  140.2080   74.9480  221.7160 C   0  0  0  0  0  0  0  0  0  0  0  0
  139.8860   76.3850  222.0130 C   0  0  0  0  0  0  0  0  0  0  0  0
  138.5010   76.3760  222.6690 C   0  0  0  0  0  0  0  0  0  0  0  0
  137.4640   75.8320  221.7070 C   0  0  0  0  0  0  0  0  0  0  0  0
  136.7970   74.7070  222.2460 O   0  0  0  0  0  0  0  0  0  0  0  0
  135.9470   74.9050  223.3510 C   0  0  0  0  0  0  0  0  0  0  0  0
  135.4560   76.1640  223.6670 C   0  0  0  0  0  0  0  0  0  0  0  0
  134.6230   76.3960  224.7380 C   0  0  0  0  0  0  0  0  0  0  0  0
  134.2650   75.3120  225.5330 C   0  0  0  0  0  0  0  0  0  0  0  0
  133.2050   75.6480  226.8850 Cl  0  0  0  0  0  0  0  0  0  0  0  0
  134.7340   74.0430  225.2490 C   0  0  0  0  0  0  0  0  0  0  0  0
  135.5750   73.8350  224.1590 C   0  0  0  0  0  0  0  0  0  0  0  0
  136.1570   72.2170  223.8210 Cl  0  0  0  0  0  0  0  0  0  0  0  0
  139.5040   73.9000  222.3320 N   0  0  0  0  0  0  0  0  0  0  0  0
  139.7550   72.5380  222.0970 N   0  0  0  0  0  0  0  0  0  0  0  0
  140.6440   71.9120  222.8230 C   0  0  0  0  0  0  0  0  0  0  0  0
  140.2590   71.2340  224.0740 C   0  0  0  0  0  0  0  0  0  0  0  0
  139.4490   70.1160  224.0730 C   0  0  0  0  0  0  0  0  0  0  0  0
  139.0910   69.4830  225.2570 C   0  0  0  0  0  0  0  0  0  0  0  0
  139.5540   69.9810  226.4650 C   0  0  0  0  0  0  0  0  0  0  0  0
  140.3740   71.1120  226.4800 C   0  0  0  0  0  0  0  0  0  0  0  0
  140.8620   71.6320  227.7950 C   0  0  0  0  0  0  0  0  0  0  0  0
  141.7670   72.6400  227.6060 F   0  0  0  0  0  0  0  0  0  0  0  0
  139.7950   72.0000  228.5640 F   0  0  0  0  0  0  0  0  0  0  0  0
  141.4570   70.5190  228.4040 F   0  0  0  0  0  0  0  0  0  0  0  0
  140.7170   71.7260  225.2800 C   0  0  0  0  0  0  0  0  0  0  0  0
  140.6323   76.8107  222.6999 H   0  0  0  0  0  0  0  0  0  0  0  0
  139.8976   76.9993  221.1006 H   0  0  0  0  0  0  0  0  0  0  0  0
  138.5297   75.7420  223.5675 H   0  0  0  0  0  0  0  0  0  0  0  0
  138.2288   77.4063  222.9417 H   0  0  0  0  0  0  0  0  0  0  0  0
  136.7247   76.6187  221.4959 H   0  0  0  0  0  0  0  0  0  0  0  0
  137.9777   75.5202  220.7857 H   0  0  0  0  0  0  0  0  0  0  0  0
  135.7456   77.0150  223.0330 H   0  0  0  0  0  0  0  0  0  0  0  0
  134.2517   77.4077  224.9585 H   0  0  0  0  0  0  0  0  0  0  0  0
  134.4419   73.1951  225.8860 H   0  0  0  0  0  0  0  0  0  0  0  0
  138.7220   74.0880  223.0260 H   0  0  0  0  0  0  0  0  0  0  0  0
  141.6940   71.8910  222.4957 H   0  0  0  0  0  0  0  0  0  0  0  0
  139.0798   69.7185  223.1161 H   0  0  0  0  0  0  0  0  0  0  0  0
  138.4448   68.5931  225.2359 H   0  0  0  0  0  0  0  0  0  0  0  0
  139.2768   69.4875  227.4082 H   0  0  0  0  0  0  0  0  0  0  0  0
  141.3626   72.6166  225.2920 H   0  0  0  0  0  0  0  0  0  0  0  0
  1  2  2  0
  2  3  1  0
  3  4  1  0
  4  5  1  0
  5  6  1  0
  6  7  1  0
  7  8  2  0
  8  9  1  0
  9 10  2  0
 10 11  1  0
 10 12  1  0
 12 13  2  0
 13 14  1  0
  2 15  1  0
 15 16  1  0
 16 17  2  0
 17 18  1  0
 18 19  2  0
 19 20  1  0
 20 21  2  0
 21 22  1  0
 22 23  1  0
 23 24  1  0
 23 25  1  0
 23 26  1  0
 22 27  2  0
 13  7  1  0
 27 18  1  0
  3 28  1  0
  3 29  1  0
  4 30  1  0
  4 31  1  0
  5 32  1  0
  5 33  1  0
  8 34  1  0
  9 35  1  0
 12 36  1  0
 15 37  1  0
 17 38  1  0
 19 39  1  0
 20 40  1  0
 21 41  1  0
 27 42  1  0
M  END
>  <smiles>  (24) 
O=C(CCCOc1ccc(Cl)cc1Cl)NN=Cc1cccc(C(F)(F)F)c1

>  <score_type>  (24) 
oracle

>  <origin>  (24) 
autodockgpu

>  <m_score__min__energy>  (24) 
-7.5199999999999996

>  <m_primary>  (24) 
energy

>  <rmsd>  (24) 
9.11431731572743

>  <m_score__min__rmsd>  (24) 
9.11431731572743

>  <meeko>  (24) 
{"free_energy": -5.78, "intermolecular_energy": -8.46, "internal_energy": -1.91, "cluster_size": 9, "cluster_id": 8, "rank_in_cluster": 4}

>  <energy>  (24) 
-6.97

>  <cluster_rmsd>  (24) 
1.52

>  <cluster>  (24) 
3

$$$$

     RDKit          3D

 42 43  0  0  1  0  0  0  0  0999 V2000
  140.4850   74.1890  222.3300 O   0  0  0  0  0  0  0  0  0  0  0  0
  139.4900   73.5240  221.9150 C   0  0  0  0  0  0  0  0  0  0  0  0
  138.5690   74.2560  220.9820 C   0  0  0  0  0  0  0  0  0  0  0  0
  137.5810   75.0120  221.8780 C   0  0  0  0  0  0  0  0  0  0  0  0
  138.3110   76.0370  222.7230 C   0  0  0  0  0  0  0  0  0  0  0  0
  138.5270   77.2390  222.0090 O   0  0  0  0  0  0  0  0  0  0  0  0
  139.5650   78.0890  222.4380 C   0  0  0  0  0  0  0  0  0  0  0  0
  139.3450   79.0690  223.3950 C   0  0  0  0  0  0  0  0  0  0  0  0
  140.3340   79.9180  223.8390 C   0  0  0  0  0  0  0  0  0  0  0  0
  141.6070   79.7770  223.2960 C   0  0  0  0  0  0  0  0  0  0  0  0
  142.8360   80.8740  223.8860 Cl  0  0  0  0  0  0  0  0  0  0  0  0
  141.8640   78.8110  222.3400 C   0  0  0  0  0  0  0  0  0  0  0  0
  140.8460   77.9660  221.9080 C   0  0  0  0  0  0  0  0  0  0  0  0
  141.1960   76.7510  220.6950 Cl  0  0  0  0  0  0  0  0  0  0  0  0
  139.2430   72.1910  222.2880 N   0  0  0  0  0  0  0  0  0  0  0  0
  140.0640   71.4510  223.1550 N   0  0  0  0  0  0  0  0  0  0  0  0
  139.6030   70.3590  223.7050 C   0  0  0  0  0  0  0  0  0  0  0  0
  139.8950   70.0380  225.1140 C   0  0  0  0  0  0  0  0  0  0  0  0
  139.8620   68.7410  225.5840 C   0  0  0  0  0  0  0  0  0  0  0  0
  140.1390   68.4480  226.9140 C   0  0  0  0  0  0  0  0  0  0  0  0
  140.4540   69.4750  227.7890 C   0  0  0  0  0  0  0  0  0  0  0  0
  140.4900   70.7930  227.3250 C   0  0  0  0  0  0  0  0  0  0  0  0
  140.8330   71.8870  228.2880 C   0  0  0  0  0  0  0  0  0  0  0  0
  139.7260   72.2650  228.9970 F   0  0  0  0  0  0  0  0  0  0  0  0
  141.8710   71.4870  229.0800 F   0  0  0  0  0  0  0  0  0  0  0  0
  141.2990   72.9260  227.4730 F   0  0  0  0  0  0  0  0  0  0  0  0
  140.2090   71.0590  225.9890 C   0  0  0  0  0  0  0  0  0  0  0  0
  139.1373   74.9615  220.3580 H   0  0  0  0  0  0  0  0  0  0  0  0
  138.0507   73.5655  220.3004 H   0  0  0  0  0  0  0  0  0  0  0  0
  136.8390   75.5241  221.2478 H   0  0  0  0  0  0  0  0  0  0  0  0
  137.0804   74.2929  222.5430 H   0  0  0  0  0  0  0  0  0  0  0  0
  137.7098   76.2560  223.6178 H   0  0  0  0  0  0  0  0  0  0  0  0
  139.2903   75.6203  223.0012 H   0  0  0  0  0  0  0  0  0  0  0  0
  138.3350   79.1725  223.8182 H   0  0  0  0  0  0  0  0  0  0  0  0
  140.1239   80.6842  224.5998 H   0  0  0  0  0  0  0  0  0  0  0  0
  142.8757   78.7104  221.9200 H   0  0  0  0  0  0  0  0  0  0  0  0
  138.3980   71.6590  221.9240 H   0  0  0  0  0  0  0  0  0  0  0  0
  138.9882   69.6693  223.1081 H   0  0  0  0  0  0  0  0  0  0  0  0
  139.6116   67.9230  224.8925 H   0  0  0  0  0  0  0  0  0  0  0  0
  140.1084   67.4075  227.2697 H   0  0  0  0  0  0  0  0  0  0  0  0
  140.6747   69.2542  228.8438 H   0  0  0  0  0  0  0  0  0  0  0  0
  140.2373   72.0965  225.6246 H   0  0  0  0  0  0  0  0  0  0  0  0
  1  2  2  0
  2  3  1  0
  3  4  1  0
  4  5  1  0
  5  6  1  0
  6  7  1  0
  7  8  2  0
  8  9  1  0
  9 10  2  0
 10 11  1  0
 10 12  1  0
 12 13  2  0
 13 14  1  0
  2 15  1  0
 15 16  1  0
 16 17  2  0
 17 18  1  0
 18 19  2  0
 19 20  1  0
 20 21  2  0
 21 22  1  0
 22 23  1  0
 23 24  1  0
 23 25  1  0
 23 26  1  0
 22 27  2  0
 13  7  1  0
 27 18  1  0
  3 28  1  0
  3 29  1  0
  4 30  1  0
  4 31  1  0
  5 32  1  0
  5 33  1  0
  8 34  1  0
  9 35  1  0
 12 36  1  0
 15 37  1  0
 17 38  1  0
 19 39  1  0
 20 40  1  0
 21 41  1  0
 27 42  1  0
M  END
>  <smiles>  (25) 
O=C(CCCOc1ccc(Cl)cc1Cl)NN=Cc1cccc(C(F)(F)F)c1

>  <score_type>  (25) 
oracle

>  <origin>  (25) 
autodockgpu

>  <m_score__min__energy>  (25) 
-7.5199999999999996

>  <m_primary>  (25) 
energy

>  <rmsd>  (25) 
5.94598196893957

>  <m_score__min__rmsd>  (25) 
5.94598196893957

>  <meeko>  (25) 
{"free_energy": -7.35, "intermolecular_energy": -10.03, "internal_energy": -0.96, "cluster_size": 15, "cluster_id": 1, "rank_in_cluster": 4}

>  <energy>  (25) 
-6.54

>  <cluster_rmsd>  (25) 
1.86

>  <cluster>  (25) 
3

$$$$

     RDKit          3D

 42 43  0  0  1  0  0  0  0  0999 V2000
  140.4530   75.2610  221.0300 O   0  0  0  0  0  0  0  0  0  0  0  0
  139.3460   74.8520  221.4910 C   0  0  0  0  0  0  0  0  0  0  0  0
  138.1400   75.6380  221.0620 C   0  0  0  0  0  0  0  0  0  0  0  0
  137.8890   76.6610  222.1760 C   0  0  0  0  0  0  0  0  0  0  0  0
  136.9730   76.0770  223.2330 C   0  0  0  0  0  0  0  0  0  0  0  0
  136.5790   74.7580  222.9060 O   0  0  0  0  0  0  0  0  0  0  0  0
  135.8030   74.0460  223.8410 C   0  0  0  0  0  0  0  0  0  0  0  0
  135.0780   74.7010  224.8260 C   0  0  0  0  0  0  0  0  0  0  0  0
  134.3090   74.0400  225.7560 C   0  0  0  0  0  0  0  0  0  0  0  0
  134.2640   72.6500  225.6960 C   0  0  0  0  0  0  0  0  0  0  0  0
  133.2760   71.8460  226.8950 Cl  0  0  0  0  0  0  0  0  0  0  0  0
  134.9740   71.9620  224.7290 C   0  0  0  0  0  0  0  0  0  0  0  0
  135.7440   72.6560  223.8000 C   0  0  0  0  0  0  0  0  0  0  0  0
  136.6350   71.7620  222.5850 Cl  0  0  0  0  0  0  0  0  0  0  0  0
  139.2270   73.7440  222.3470 N   0  0  0  0  0  0  0  0  0  0  0  0
  140.3130   72.9680  222.7840 N   0  0  0  0  0  0  0  0  0  0  0  0
  140.1750   71.6730  222.8990 C   0  0  0  0  0  0  0  0  0  0  0  0
  139.9630   71.0470  224.2170 C   0  0  0  0  0  0  0  0  0  0  0  0
  139.1850   69.9170  224.3660 C   0  0  0  0  0  0  0  0  0  0  0  0
  138.9910   69.3340  225.6120 C   0  0  0  0  0  0  0  0  0  0  0  0
  139.5870   69.8950  226.7310 C   0  0  0  0  0  0  0  0  0  0  0  0
  140.3770   71.0390  226.5930 C   0  0  0  0  0  0  0  0  0  0  0  0
  141.0130   71.6280  227.8130 C   0  0  0  0  0  0  0  0  0  0  0  0
  141.6080   70.6500  228.5630 F   0  0  0  0  0  0  0  0  0  0  0  0
  141.8720   72.6240  227.4440 F   0  0  0  0  0  0  0  0  0  0  0  0
  139.9470   72.2230  228.5010 F   0  0  0  0  0  0  0  0  0  0  0  0
  140.5560   71.6030  225.3330 C   0  0  0  0  0  0  0  0  0  0  0  0
  138.3362   76.1505  220.1087 H   0  0  0  0  0  0  0  0  0  0  0  0
  137.2671   74.9869  220.9066 H   0  0  0  0  0  0  0  0  0  0  0  0
  138.8483   76.9353  222.6391 H   0  0  0  0  0  0  0  0  0  0  0  0
  137.4107   77.5513  221.7417 H   0  0  0  0  0  0  0  0  0  0  0  0
  137.5026   76.0633  224.1970 H   0  0  0  0  0  0  0  0  0  0  0  0
  136.0701   76.7026  223.2913 H   0  0  0  0  0  0  0  0  0  0  0  0
  135.1199   75.7995  224.8653 H   0  0  0  0  0  0  0  0  0  0  0  0
  133.7471   74.5929  226.5232 H   0  0  0  0  0  0  0  0  0  0  0  0
  134.9301   70.8634  224.6939 H   0  0  0  0  0  0  0  0  0  0  0  0
  138.2830   73.4260  222.7180 H   0  0  0  0  0  0  0  0  0  0  0  0
  140.2177   71.0413  221.9995 H   0  0  0  0  0  0  0  0  0  0  0  0
  138.7092   69.4692  223.4810 H   0  0  0  0  0  0  0  0  0  0  0  0
  138.3682   68.4326  225.7101 H   0  0  0  0  0  0  0  0  0  0  0  0
  139.4387   69.4418  227.7223 H   0  0  0  0  0  0  0  0  0  0  0  0
  141.1782   72.5037  225.2250 H   0  0  0  0  0  0  0  0  0  0  0  0
  1  2  2  0
  2  3  1  0
  3  4  1  0
  4  5  1  0
  5  6  1  0
  6  7  1  0
  7  8  2  0
  8  9  1  0
  9 10  2  0
 10 11  1  0
 10 12  1  0
 12 13  2  0
 13 14  1  0
  2 15  1  0
 15 16  1  0
 16 17  2  0
 17 18  1  0
 18 19  2  0
 19 20  1  0
 20 21  2  0
 21 22  1  0
 22 23  1  0
 23 24  1  0
 23 25  1  0
 23 26  1  0
 22 27  2  0
 13  7  1  0
 27 18  1  0
  3 28  1  0
  3 29  1  0
  4 30  1  0
  4 31  1  0
  5 32  1  0
  5 33  1  0
  8 34  1  0
  9 35  1  0
 12 36  1  0
 15 37  1  0
 17 38  1  0
 19 39  1  0
 20 40  1  0
 21 41  1  0
 27 42  1  0
M  END
>  <smiles>  (26) 
O=C(CCCOc1ccc(Cl)cc1Cl)NN=Cc1cccc(C(F)(F)F)c1

>  <score_type>  (26) 
oracle

>  <origin>  (26) 
autodockgpu

>  <m_score__min__energy>  (26) 
-7.5199999999999996

>  <m_primary>  (26) 
energy

>  <rmsd>  (26) 
10.233325525835017

>  <m_score__min__rmsd>  (26) 
10.233325525835017

>  <meeko>  (26) 
{"free_energy": -5.81, "intermolecular_energy": -8.5, "internal_energy": -2.24, "cluster_size": 9, "cluster_id": 8, "rank_in_cluster": 2}

>  <energy>  (26) 
-6.35

>  <cluster_rmsd>  (26) 
1.91

>  <cluster>  (26) 
3

$$$$

     RDKit          3D

 42 43  0  0  1  0  0  0  0  0999 V2000
  140.7530   72.4510  221.3760 O   0  0  0  0  0  0  0  0  0  0  0  0
  139.7660   72.8150  222.0820 C   0  0  0  0  0  0  0  0  0  0  0  0
  139.3980   74.2670  221.9740 C   0  0  0  0  0  0  0  0  0  0  0  0
  138.4890   74.3790  220.7450 C   0  0  0  0  0  0  0  0  0  0  0  0
  137.0330   74.2730  221.1530 C   0  0  0  0  0  0  0  0  0  0  0  0
  136.8750   73.4730  222.3080 O   0  0  0  0  0  0  0  0  0  0  0  0
  136.0800   73.9720  223.3580 C   0  0  0  0  0  0  0  0  0  0  0  0
  135.8990   75.3360  223.5400 C   0  0  0  0  0  0  0  0  0  0  0  0
  135.1300   75.8620  224.5540 C   0  0  0  0  0  0  0  0  0  0  0  0
  134.5120   74.9750  225.4310 C   0  0  0  0  0  0  0  0  0  0  0  0
  133.5430   75.6810  226.7050 Cl  0  0  0  0  0  0  0  0  0  0  0  0
  134.6700   73.6090  225.2810 C   0  0  0  0  0  0  0  0  0  0  0  0
  135.4530   73.1040  224.2470 C   0  0  0  0  0  0  0  0  0  0  0  0
  135.6380   71.3700  224.0790 Cl  0  0  0  0  0  0  0  0  0  0  0  0
  139.0500   71.9410  222.9170 N   0  0  0  0  0  0  0  0  0  0  0  0
  139.3420   70.5750  223.0630 N   0  0  0  0  0  0  0  0  0  0  0  0
  138.8300   69.9080  224.0630 C   0  0  0  0  0  0  0  0  0  0  0  0
  139.5870   69.7170  225.3130 C   0  0  0  0  0  0  0  0  0  0  0  0
  139.9440   68.4600  225.7600 C   0  0  0  0  0  0  0  0  0  0  0  0
  140.6570   68.2890  226.9400 C   0  0  0  0  0  0  0  0  0  0  0  0
  141.0200   69.3990  227.6860 C   0  0  0  0  0  0  0  0  0  0  0  0
  140.6650   70.6760  227.2450 C   0  0  0  0  0  0  0  0  0  0  0  0
  141.0670   71.8610  228.0670 C   0  0  0  0  0  0  0  0  0  0  0  0
  142.0060   71.5030  228.9960 F   0  0  0  0  0  0  0  0  0  0  0  0
  141.4800   72.8680  227.2420 F   0  0  0  0  0  0  0  0  0  0  0  0
  139.8760   72.2750  228.6760 F   0  0  0  0  0  0  0  0  0  0  0  0
  139.9500   70.8200  226.0600 C   0  0  0  0  0  0  0  0  0  0  0  0
  138.8624   74.5943  222.8773 H   0  0  0  0  0  0  0  0  0  0  0  0
  140.2897   74.9037  221.8765 H   0  0  0  0  0  0  0  0  0  0  0  0
  138.6586   75.3496  220.2560 H   0  0  0  0  0  0  0  0  0  0  0  0
  138.7254   73.5594  220.0505 H   0  0  0  0  0  0  0  0  0  0  0  0
  136.6459   75.2814  221.3611 H   0  0  0  0  0  0  0  0  0  0  0  0
  136.4772   73.8023  220.3287 H   0  0  0  0  0  0  0  0  0  0  0  0
  136.3924   76.0286  222.8423 H   0  0  0  0  0  0  0  0  0  0  0  0
  135.0079   76.9493  224.6675 H   0  0  0  0  0  0  0  0  0  0  0  0
  134.1753   72.9197  225.9811 H   0  0  0  0  0  0  0  0  0  0  0  0
  138.2260   72.2770  223.4990 H   0  0  0  0  0  0  0  0  0  0  0  0
  137.8196   69.4830  223.9706 H   0  0  0  0  0  0  0  0  0  0  0  0
  139.6581   67.5767  225.1700 H   0  0  0  0  0  0  0  0  0  0  0  0
  140.9315   67.2795  227.2798 H   0  0  0  0  0  0  0  0  0  0  0  0
  141.5853   69.2750  228.6215 H   0  0  0  0  0  0  0  0  0  0  0  0
  139.6703   71.8259  225.7138 H   0  0  0  0  0  0  0  0  0  0  0  0
  1  2  2  0
  2  3  1  0
  3  4  1  0
  4  5  1  0
  5  6  1  0
  6  7  1  0
  7  8  2  0
  8  9  1  0
  9 10  2  0
 10 11  1  0
 10 12  1  0
 12 13  2  0
 13 14  1  0
  2 15  1  0
 15 16  1  0
 16 17  2  0
 17 18  1  0
 18 19  2  0
 19 20  1  0
 20 21  2  0
 21 22  1  0
 22 23  1  0
 23 24  1  0
 23 25  1  0
 23 26  1  0
 22 27  2  0
 13  7  1  0
 27 18  1  0
  3 28  1  0
  3 29  1  0
  4 30  1  0
  4 31  1  0
  5 32  1  0
  5 33  1  0
  8 34  1  0
  9 35  1  0
 12 36  1  0
 15 37  1  0
 17 38  1  0
 19 39  1  0
 20 40  1  0
 21 41  1  0
 27 42  1  0
M  END
>  <smiles>  (27) 
O=C(CCCOc1ccc(Cl)cc1Cl)NN=Cc1cccc(C(F)(F)F)c1

>  <score_type>  (27) 
oracle

>  <origin>  (27) 
autodockgpu

>  <m_score__min__energy>  (27) 
-7.5199999999999996

>  <m_primary>  (27) 
energy

>  <rmsd>  (27) 
9.812749934676974

>  <m_score__min__rmsd>  (27) 
9.812749934676974

>  <meeko>  (27) 
{"free_energy": -5.68, "intermolecular_energy": -8.36, "internal_energy": -1.97, "cluster_size": 9, "cluster_id": 8, "rank_in_cluster": 5}

>  <energy>  (27) 
-6.48

>  <cluster_rmsd>  (27) 
0.0

>  <cluster>  (27) 
4

$$$$

     RDKit          3D

 42 43  0  0  1  0  0  0  0  0999 V2000
  141.6720   70.4270  220.4570 O   0  0  0  0  0  0  0  0  0  0  0  0
  141.3930   71.6390  220.7000 C   0  0  0  0  0  0  0  0  0  0  0  0
  142.2830   72.6510  220.0370 C   0  0  0  0  0  0  0  0  0  0  0  0
  141.4550   73.9380  219.9390 C   0  0  0  0  0  0  0  0  0  0  0  0
  141.7420   74.8410  221.1220 C   0  0  0  0  0  0  0  0  0  0  0  0
  140.6190   74.9510  221.9750 O   0  0  0  0  0  0  0  0  0  0  0  0
  140.1840   76.2400  222.3370 C   0  0  0  0  0  0  0  0  0  0  0  0
  141.0880   77.2480  222.6430 C   0  0  0  0  0  0  0  0  0  0  0  0
  140.7010   78.5190  223.0010 C   0  0  0  0  0  0  0  0  0  0  0  0
  139.3380   78.7950  223.0560 C   0  0  0  0  0  0  0  0  0  0  0  0
  138.8870   80.4230  223.5140 Cl  0  0  0  0  0  0  0  0  0  0  0  0
  138.4080   77.8170  222.7570 C   0  0  0  0  0  0  0  0  0  0  0  0
  138.8260   76.5390  222.3980 C   0  0  0  0  0  0  0  0  0  0  0  0
  137.6270   75.3160  222.0260 Cl  0  0  0  0  0  0  0  0  0  0  0  0
  140.3310   72.0350  221.5300 N   0  0  0  0  0  0  0  0  0  0  0  0
  139.4630   71.1410  222.1780 N   0  0  0  0  0  0  0  0  0  0  0  0
  139.0100   71.4310  223.3690 C   0  0  0  0  0  0  0  0  0  0  0  0
  139.7600   71.0470  224.5790 C   0  0  0  0  0  0  0  0  0  0  0  0
  140.6920   71.8890  225.1530 C   0  0  0  0  0  0  0  0  0  0  0  0
  141.3930   71.5180  226.2930 C   0  0  0  0  0  0  0  0  0  0  0  0
  141.1570   70.2800  226.8690 C   0  0  0  0  0  0  0  0  0  0  0  0
  140.2170   69.4190  226.2980 C   0  0  0  0  0  0  0  0  0  0  0  0
  139.9780   68.0870  226.9370 C   0  0  0  0  0  0  0  0  0  0  0  0
  138.9230   67.4520  226.3410 F   0  0  0  0  0  0  0  0  0  0  0  0
  141.1320   67.3560  226.9130 F   0  0  0  0  0  0  0  0  0  0  0  0
  139.7000   68.3940  228.2750 F   0  0  0  0  0  0  0  0  0  0  0  0
  139.5280   69.8150  225.1560 C   0  0  0  0  0  0  0  0  0  0  0  0
  143.1855   72.8217  220.6422 H   0  0  0  0  0  0  0  0  0  0  0  0
  142.6163   72.3085  219.0462 H   0  0  0  0  0  0  0  0  0  0  0  0
  141.7134   74.4655  219.0090 H   0  0  0  0  0  0  0  0  0  0  0  0
  140.3866   73.6764  219.9401 H   0  0  0  0  0  0  0  0  0  0  0  0
  142.5851   74.4249  221.6930 H   0  0  0  0  0  0  0  0  0  0  0  0
  141.9845   75.8436  220.7399 H   0  0  0  0  0  0  0  0  0  0  0  0
  142.1632   77.0202  222.5972 H   0  0  0  0  0  0  0  0  0  0  0  0
  141.4461   79.2932  223.2365 H   0  0  0  0  0  0  0  0  0  0  0  0
  137.3339   78.0497  222.8030 H   0  0  0  0  0  0  0  0  0  0  0  0
  140.1220   73.0610  221.7150 H   0  0  0  0  0  0  0  0  0  0  0  0
  138.0559   71.9690  223.4702 H   0  0  0  0  0  0  0  0  0  0  0  0
  140.8828   72.8724  224.6985 H   0  0  0  0  0  0  0  0  0  0  0  0
  142.1311   72.2028  226.7360 H   0  0  0  0  0  0  0  0  0  0  0  0
  141.7074   69.9767  227.7718 H   0  0  0  0  0  0  0  0  0  0  0  0
  138.7879   69.1365  224.7067 H   0  0  0  0  0  0  0  0  0  0  0  0
  1  2  2  0
  2  3  1  0
  3  4  1  0
  4  5  1  0
  5  6  1  0
  6  7  1  0
  7  8  2  0
  8  9  1  0
  9 10  2  0
 10 11  1  0
 10 12  1  0
 12 13  2  0
 13 14  1  0
  2 15  1  0
 15 16  1  0
 16 17  2  0
 17 18  1  0
 18 19  2  0
 19 20  1  0
 20 21  2  0
 21 22  1  0
 22 23  1  0
 23 24  1  0
 23 25  1  0
 23 26  1  0
 22 27  2  0
 13  7  1  0
 27 18  1  0
  3 28  1  0
  3 29  1  0
  4 30  1  0
  4 31  1  0
  5 32  1  0
  5 33  1  0
  8 34  1  0
  9 35  1  0
 12 36  1  0
 15 37  1  0
 17 38  1  0
 19 39  1  0
 20 40  1  0
 21 41  1  0
 27 42  1  0
M  END
>  <smiles>  (28) 
O=C(CCCOc1ccc(Cl)cc1Cl)NN=Cc1cccc(C(F)(F)F)c1

>  <score_type>  (28) 
oracle

>  <origin>  (28) 
autodockgpu

>  <m_score__min__energy>  (28) 
-7.5199999999999996

>  <m_primary>  (28) 
energy

>  <rmsd>  (28) 
7.226002187480709

>  <m_score__min__rmsd>  (28) 
7.226002187480709

>  <meeko>  (28) 
{"free_energy": -5.75, "intermolecular_energy": -8.44, "internal_energy": -1.9, "cluster_size": 1, "cluster_id": 9, "rank_in_cluster": 1}

>  <energy>  (28) 
-6.42

>  <cluster_rmsd>  (28) 
0.77

>  <cluster>  (28) 
4

$$$$

     RDKit          3D

 42 43  0  0  1  0  0  0  0  0999 V2000
  139.2640   71.1750  220.5110 O   0  0  0  0  0  0  0  0  0  0  0  0
  139.2790   72.3450  220.9980 C   0  0  0  0  0  0  0  0  0  0  0  0
  139.6350   73.4390  220.0340 C   0  0  0  0  0  0  0  0  0  0  0  0
  141.1480   73.6450  220.1740 C   0  0  0  0  0  0  0  0  0  0  0  0
  141.4390   74.8570  221.0380 C   0  0  0  0  0  0  0  0  0  0  0  0
  140.4230   75.0640  222.0000 O   0  0  0  0  0  0  0  0  0  0  0  0
  140.0850   76.3890  222.3340 C   0  0  0  0  0  0  0  0  0  0  0  0
  141.0620   77.3380  222.6000 C   0  0  0  0  0  0  0  0  0  0  0  0
  140.7700   78.6420  222.9300 C   0  0  0  0  0  0  0  0  0  0  0  0
  139.4310   79.0140  222.9960 C   0  0  0  0  0  0  0  0  0  0  0  0
  139.1010   80.6810  223.4180 Cl  0  0  0  0  0  0  0  0  0  0  0  0
  138.4300   78.0970  222.7370 C   0  0  0  0  0  0  0  0  0  0  0  0
  138.7520   76.7840  222.4060 C   0  0  0  0  0  0  0  0  0  0  0  0
  137.4650   75.6390  222.0830 Cl  0  0  0  0  0  0  0  0  0  0  0  0
  138.9870   72.6250  222.3440 N   0  0  0  0  0  0  0  0  0  0  0  0
  138.6470   71.6480  223.2950 N   0  0  0  0  0  0  0  0  0  0  0  0
  139.5440   70.7750  223.6720 C   0  0  0  0  0  0  0  0  0  0  0  0
  140.0910   70.7930  225.0400 C   0  0  0  0  0  0  0  0  0  0  0  0
  140.7780   71.8850  225.5330 C   0  0  0  0  0  0  0  0  0  0  0  0
  141.2900   71.8930  226.8240 C   0  0  0  0  0  0  0  0  0  0  0  0
  141.1120   70.7860  227.6370 C   0  0  0  0  0  0  0  0  0  0  0  0
  140.4200   69.6740  227.1510 C   0  0  0  0  0  0  0  0  0  0  0  0
  140.2390   68.4890  228.0470 C   0  0  0  0  0  0  0  0  0  0  0  0
  139.5390   67.5040  227.4040 F   0  0  0  0  0  0  0  0  0  0  0  0
  141.4570   68.0740  228.5060 F   0  0  0  0  0  0  0  0  0  0  0  0
  139.5240   68.9920  229.1410 F   0  0  0  0  0  0  0  0  0  0  0  0
  139.9160   69.6910  225.8540 C   0  0  0  0  0  0  0  0  0  0  0  0
  139.3828   73.1403  219.0058 H   0  0  0  0  0  0  0  0  0  0  0  0
  139.0794   74.3638  220.2488 H   0  0  0  0  0  0  0  0  0  0  0  0
  141.5937   72.7532  220.6387 H   0  0  0  0  0  0  0  0  0  0  0  0
  141.5799   73.8068  219.1754 H   0  0  0  0  0  0  0  0  0  0  0  0
  142.3968   74.7043  221.5569 H   0  0  0  0  0  0  0  0  0  0  0  0
  141.4831   75.7424  220.3868 H   0  0  0  0  0  0  0  0  0  0  0  0
  142.1178   77.0343  222.5446 H   0  0  0  0  0  0  0  0  0  0  0  0
  141.5708   79.3677  223.1352 H   0  0  0  0  0  0  0  0  0  0  0  0
  137.3757   78.4057  222.7926 H   0  0  0  0  0  0  0  0  0  0  0  0
  139.0090   73.6170  222.7240 H   0  0  0  0  0  0  0  0  0  0  0  0
  139.8955   70.0160  222.9576 H   0  0  0  0  0  0  0  0  0  0  0  0
  140.9225   72.7660  224.8903 H   0  0  0  0  0  0  0  0  0  0  0  0
  141.8335   72.7730  227.1984 H   0  0  0  0  0  0  0  0  0  0  0  0
  141.5138   70.7824  228.6610 H   0  0  0  0  0  0  0  0  0  0  0  0
  139.3710   68.8152  225.4720 H   0  0  0  0  0  0  0  0  0  0  0  0
  1  2  2  0
  2  3  1  0
  3  4  1  0
  4  5  1  0
  5  6  1  0
  6  7  1  0
  7  8  2  0
  8  9  1  0
  9 10  2  0
 10 11  1  0
 10 12  1  0
 12 13  2  0
 13 14  1  0
  2 15  1  0
 15 16  1  0
 16 17  2  0
 17 18  1  0
 18 19  2  0
 19 20  1  0
 20 21  2  0
 21 22  1  0
 22 23  1  0
 23 24  1  0
 23 25  1  0
 23 26  1  0
 22 27  2  0
 13  7  1  0
 27 18  1  0
  3 28  1  0
  3 29  1  0
  4 30  1  0
  4 31  1  0
  5 32  1  0
  5 33  1  0
  8 34  1  0
  9 35  1  0
 12 36  1  0
 15 37  1  0
 17 38  1  0
 19 39  1  0
 20 40  1  0
 21 41  1  0
 27 42  1  0
M  END
>  <smiles>  (29) 
O=C(CCCOc1ccc(Cl)cc1Cl)NN=Cc1cccc(C(F)(F)F)c1

>  <score_type>  (29) 
oracle

>  <origin>  (29) 
autodockgpu

>  <m_score__min__energy>  (29) 
-7.5199999999999996

>  <m_primary>  (29) 
energy

>  <rmsd>  (29) 
7.082974445371897

>  <m_score__min__rmsd>  (29) 
7.082974445371897

>  <meeko>  (29) 
{"free_energy": -6.54, "intermolecular_energy": -9.22, "internal_energy": -1.82, "cluster_size": 5, "cluster_id": 3, "rank_in_cluster": 4}

>  <energy>  (29) 
-6.23

>  <cluster_rmsd>  (29) 
0.0

>  <cluster>  (29) 
5

$$$$

     RDKit          3D

 42 43  0  0  1  0  0  0  0  0999 V2000
  140.4780   74.8400  222.1050 O   0  0  0  0  0  0  0  0  0  0  0  0
  139.4440   74.1200  221.9670 C   0  0  0  0  0  0  0  0  0  0  0  0
  138.2450   74.8190  221.3920 C   0  0  0  0  0  0  0  0  0  0  0  0
  137.8380   75.8730  222.4280 C   0  0  0  0  0  0  0  0  0  0  0  0
  137.7690   77.2450  221.7870 C   0  0  0  0  0  0  0  0  0  0  0  0
  138.9750   77.5670  221.1200 O   0  0  0  0  0  0  0  0  0  0  0  0
  139.9280   78.3400  221.8090 C   0  0  0  0  0  0  0  0  0  0  0  0
  139.5630   79.1650  222.8630 C   0  0  0  0  0  0  0  0  0  0  0  0
  140.4670   79.9360  223.5600 C   0  0  0  0  0  0  0  0  0  0  0  0
  141.8040   79.8770  223.1800 C   0  0  0  0  0  0  0  0  0  0  0  0
  142.9210   80.8700  224.0900 Cl  0  0  0  0  0  0  0  0  0  0  0  0
  142.2060   79.0660  222.1340 C   0  0  0  0  0  0  0  0  0  0  0  0
  141.2720   78.2970  221.4460 C   0  0  0  0  0  0  0  0  0  0  0  0
  141.8050   77.2780  220.1240 Cl  0  0  0  0  0  0  0  0  0  0  0  0
  139.3970   72.7610  222.3190 N   0  0  0  0  0  0  0  0  0  0  0  0
  140.4810   72.0500  222.8600 N   0  0  0  0  0  0  0  0  0  0  0  0
  140.2640   70.9300  223.4980 C   0  0  0  0  0  0  0  0  0  0  0  0
  140.4890   70.8310  224.9520 C   0  0  0  0  0  0  0  0  0  0  0  0
  140.8700   71.9250  225.7040 C   0  0  0  0  0  0  0  0  0  0  0  0
  141.0800   71.8220  227.0730 C   0  0  0  0  0  0  0  0  0  0  0  0
  140.9060   70.5990  227.7020 C   0  0  0  0  0  0  0  0  0  0  0  0
  140.5210   69.4850  226.9520 C   0  0  0  0  0  0  0  0  0  0  0  0
  140.3390   68.1740  227.6520 C   0  0  0  0  0  0  0  0  0  0  0  0
  141.4380   67.3790  227.4740 F   0  0  0  0  0  0  0  0  0  0  0  0
  140.0390   68.3970  228.9660 F   0  0  0  0  0  0  0  0  0  0  0  0
  139.2030   67.6190  227.0480 F   0  0  0  0  0  0  0  0  0  0  0  0
  140.3170   69.6150  225.5820 C   0  0  0  0  0  0  0  0  0  0  0  0
  138.5037   75.3004  220.4374 H   0  0  0  0  0  0  0  0  0  0  0  0
  137.4252   74.1144  221.1883 H   0  0  0  0  0  0  0  0  0  0  0  0
  136.8509   75.6149  222.8390 H   0  0  0  0  0  0  0  0  0  0  0  0
  138.5889   75.8920  223.2316 H   0  0  0  0  0  0  0  0  0  0  0  0
  136.9437   77.2587  221.0599 H   0  0  0  0  0  0  0  0  0  0  0  0
  137.6042   77.9888  222.5805 H   0  0  0  0  0  0  0  0  0  0  0  0
  138.5034   79.2053  223.1555 H   0  0  0  0  0  0  0  0  0  0  0  0
  140.1418   80.5786  224.3915 H   0  0  0  0  0  0  0  0  0  0  0  0
  143.2667   79.0288  221.8452 H   0  0  0  0  0  0  0  0  0  0  0  0
  138.5140   72.1830  222.1920 H   0  0  0  0  0  0  0  0  0  0  0  0
  139.9087   70.0494  222.9428 H   0  0  0  0  0  0  0  0  0  0  0  0
  141.0099   72.8972  225.2088 H   0  0  0  0  0  0  0  0  0  0  0  0
  141.3825   72.7054  227.6545 H   0  0  0  0  0  0  0  0  0  0  0  0
  141.0702   70.5062  228.7857 H   0  0  0  0  0  0  0  0  0  0  0  0
  140.0145   68.7367  224.9928 H   0  0  0  0  0  0  0  0  0  0  0  0
  1  2  2  0
  2  3  1  0
  3  4  1  0
  4  5  1  0
  5  6  1  0
  6  7  1  0
  7  8  2  0
  8  9  1  0
  9 10  2  0
 10 11  1  0
 10 12  1  0
 12 13  2  0
 13 14  1  0
  2 15  1  0
 15 16  1  0
 16 17  2  0
 17 18  1  0
 18 19  2  0
 19 20  1  0
 20 21  2  0
 21 22  1  0
 22 23  1  0
 23 24  1  0
 23 25  1  0
 23 26  1  0
 22 27  2  0
 13  7  1  0
 27 18  1  0
  3 28  1  0
  3 29  1  0
  4 30  1  0
  4 31  1  0
  5 32  1  0
  5 33  1  0
  8 34  1  0
  9 35  1  0
 12 36  1  0
 15 37  1  0
 17 38  1  0
 19 39  1  0
 20 40  1  0
 21 41  1  0
 27 42  1  0
M  END
>  <smiles>  (30) 
O=C(CCCOc1ccc(Cl)cc1Cl)NN=Cc1cccc(C(F)(F)F)c1

>  <score_type>  (30) 
oracle

>  <origin>  (30) 
autodockgpu

>  <m_score__min__energy>  (30) 
-7.5199999999999996

>  <m_primary>  (30) 
energy

>  <rmsd>  (30) 
5.131304101790644

>  <m_score__min__rmsd>  (30) 
5.131304101790644

>  <meeko>  (30) 
{"free_energy": -7.04, "intermolecular_energy": -9.72, "internal_energy": -1.03, "cluster_size": 5, "cluster_id": 3, "rank_in_cluster": 2}

>  <energy>  (30) 
-6.14

>  <cluster_rmsd>  (30) 
0.46

>  <cluster>  (30) 
5

$$$$

     RDKit          3D

 42 43  0  0  1  0  0  0  0  0999 V2000
  140.5440   73.6790  221.9680 O   0  0  0  0  0  0  0  0  0  0  0  0
  141.3640   74.4750  221.4220 C   0  0  0  0  0  0  0  0  0  0  0  0
  142.2530   73.8660  220.3760 C   0  0  0  0  0  0  0  0  0  0  0  0
  143.3650   74.8900  220.1230 C   0  0  0  0  0  0  0  0  0  0  0  0
  142.9200   75.9100  219.0920 C   0  0  0  0  0  0  0  0  0  0  0  0
  142.6010   77.1490  219.6940 O   0  0  0  0  0  0  0  0  0  0  0  0
  142.0790   78.1690  218.8750 C   0  0  0  0  0  0  0  0  0  0  0  0
  142.8990   79.1460  218.3290 C   0  0  0  0  0  0  0  0  0  0  0  0
  142.4250   80.1590  217.5250 C   0  0  0  0  0  0  0  0  0  0  0  0
  141.0600   80.1930  217.2550 C   0  0  0  0  0  0  0  0  0  0  0  0
  140.4980   81.4940  216.2280 Cl  0  0  0  0  0  0  0  0  0  0  0  0
  140.2130   79.2360  217.7810 C   0  0  0  0  0  0  0  0  0  0  0  0
  140.7170   78.2230  218.5920 C   0  0  0  0  0  0  0  0  0  0  0  0
  139.6220   77.0230  219.2480 Cl  0  0  0  0  0  0  0  0  0  0  0  0
  141.4570   75.8370  221.7550 N   0  0  0  0  0  0  0  0  0  0  0  0
  140.6570   76.4670  222.7220 N   0  0  0  0  0  0  0  0  0  0  0  0
  140.1100   77.6230  222.4530 C   0  0  0  0  0  0  0  0  0  0  0  0
  140.8790   78.8740  222.5860 C   0  0  0  0  0  0  0  0  0  0  0  0
  141.8490   79.0300  223.5560 C   0  0  0  0  0  0  0  0  0  0  0  0
  142.5690   80.2120  223.6730 C   0  0  0  0  0  0  0  0  0  0  0  0
  142.3110   81.2590  222.8020 C   0  0  0  0  0  0  0  0  0  0  0  0
  141.3320   81.1150  221.8170 C   0  0  0  0  0  0  0  0  0  0  0  0
  141.0700   82.2580  220.8870 C   0  0  0  0  0  0  0  0  0  0  0  0
  141.2720   83.4510  221.5260 F   0  0  0  0  0  0  0  0  0  0  0  0
  141.8300   82.1120  219.7610 F   0  0  0  0  0  0  0  0  0  0  0  0
  139.7290   82.0970  220.5150 F   0  0  0  0  0  0  0  0  0  0  0  0
  140.6250   79.9200  221.7210 C   0  0  0  0  0  0  0  0  0  0  0  0
  142.6797   72.9197  220.7400 H   0  0  0  0  0  0  0  0  0  0  0  0
  141.6962   73.6381  219.4551 H   0  0  0  0  0  0  0  0  0  0  0  0
  143.6032   75.4065  221.0645 H   0  0  0  0  0  0  0  0  0  0  0  0
  144.2544   74.3648  219.7446 H   0  0  0  0  0  0  0  0  0  0  0  0
  143.7328   76.0635  218.3669 H   0  0  0  0  0  0  0  0  0  0  0  0
  142.0180   75.5260  218.5931 H   0  0  0  0  0  0  0  0  0  0  0  0
  143.9764   79.1100  218.5481 H   0  0  0  0  0  0  0  0  0  0  0  0
  143.1043   80.9177  217.1091 H   0  0  0  0  0  0  0  0  0  0  0  0
  139.1365   79.2749  217.5580 H   0  0  0  0  0  0  0  0  0  0  0  0
  142.1570   76.4800  221.2790 H   0  0  0  0  0  0  0  0  0  0  0  0
  139.0615   77.6633  222.1228 H   0  0  0  0  0  0  0  0  0  0  0  0
  142.0557   78.2019  224.2499 H   0  0  0  0  0  0  0  0  0  0  0  0
  143.3389   80.3165  224.4517 H   0  0  0  0  0  0  0  0  0  0  0  0
  142.8753   82.1995  222.8865 H   0  0  0  0  0  0  0  0  0  0  0  0
  139.8532   79.8072  220.9453 H   0  0  0  0  0  0  0  0  0  0  0  0
  1  2  2  0
  2  3  1  0
  3  4  1  0
  4  5  1  0
  5  6  1  0
  6  7  1  0
  7  8  2  0
  8  9  1  0
  9 10  2  0
 10 11  1  0
 10 12  1  0
 12 13  2  0
 13 14  1  0
  2 15  1  0
 15 16  1  0
 16 17  2  0
 17 18  1  0
 18 19  2  0
 19 20  1  0
 20 21  2  0
 21 22  1  0
 22 23  1  0
 23 24  1  0
 23 25  1  0
 23 26  1  0
 22 27  2  0
 13  7  1  0
 27 18  1  0
  3 28  1  0
  3 29  1  0
  4 30  1  0
  4 31  1  0
  5 32  1  0
  5 33  1  0
  8 34  1  0
  9 35  1  0
 12 36  1  0
 15 37  1  0
 17 38  1  0
 19 39  1  0
 20 40  1  0
 21 41  1  0
 27 42  1  0
M  END
>  <smiles>  (31) 
O=C(CCCOc1ccc(Cl)cc1Cl)NN=Cc1cccc(C(F)(F)F)c1

>  <score_type>  (31) 
oracle

>  <origin>  (31) 
autodockgpu

>  <m_score__min__energy>  (31) 
-7.5199999999999996

>  <m_primary>  (31) 
energy

>  <rmsd>  (31) 
7.071050564623616

>  <m_score__min__rmsd>  (31) 
7.071050564623616

>  <meeko>  (31) 
{"free_energy": -4.78, "intermolecular_energy": -7.47, "internal_energy": -2.97, "cluster_size": 3, "cluster_id": 12, "rank_in_cluster": 2}

>  <energy>  (31) 
-6.01

>  <cluster_rmsd>  (31) 
1.42

>  <cluster>  (31) 
5

$$$$

     RDKit          3D

 42 43  0  0  1  0  0  0  0  0999 V2000
  140.1850   73.9180  220.0770 O   0  0  0  0  0  0  0  0  0  0  0  0
  139.3720   74.1650  221.0170 C   0  0  0  0  0  0  0  0  0  0  0  0
  138.2180   75.0540  220.6530 C   0  0  0  0  0  0  0  0  0  0  0  0
  137.4030   75.2310  221.9400 C   0  0  0  0  0  0  0  0  0  0  0  0
  137.8250   76.4940  222.6630 C   0  0  0  0  0  0  0  0  0  0  0  0
  138.4450   77.4130  221.7830 O   0  0  0  0  0  0  0  0  0  0  0  0
  139.4710   78.2310  222.2930 C   0  0  0  0  0  0  0  0  0  0  0  0
  140.8080   77.9040  222.1180 C   0  0  0  0  0  0  0  0  0  0  0  0
  141.8390   78.6780  222.6010 C   0  0  0  0  0  0  0  0  0  0  0  0
  141.5120   79.8390  223.2960 C   0  0  0  0  0  0  0  0  0  0  0  0
  142.8490   80.7970  223.8930 Cl  0  0  0  0  0  0  0  0  0  0  0  0
  140.1910   80.1970  223.4900 C   0  0  0  0  0  0  0  0  0  0  0  0
  139.1680   79.3970  222.9900 C   0  0  0  0  0  0  0  0  0  0  0  0
  137.5010   79.8710  223.2500 Cl  0  0  0  0  0  0  0  0  0  0  0  0
  139.5190   73.6560  222.3180 N   0  0  0  0  0  0  0  0  0  0  0  0
  140.5740   72.8210  222.7230 N   0  0  0  0  0  0  0  0  0  0  0  0
  140.3690   71.5370  222.8470 C   0  0  0  0  0  0  0  0  0  0  0  0
  140.1480   70.9290  224.1720 C   0  0  0  0  0  0  0  0  0  0  0  0
  139.4270   69.7610  224.3240 C   0  0  0  0  0  0  0  0  0  0  0  0
  139.2250   69.1960  225.5760 C   0  0  0  0  0  0  0  0  0  0  0  0
  139.7550   69.8130  226.6990 C   0  0  0  0  0  0  0  0  0  0  0  0
  140.4860   70.9950  226.5590 C   0  0  0  0  0  0  0  0  0  0  0  0
  141.0490   71.6440  227.7840 C   0  0  0  0  0  0  0  0  0  0  0  0
  141.6330   70.7100  228.5960 F   0  0  0  0  0  0  0  0  0  0  0  0
  141.9000   72.6480  227.4180 F   0  0  0  0  0  0  0  0  0  0  0  0
  139.9390   72.2350  228.4000 F   0  0  0  0  0  0  0  0  0  0  0  0
  140.6740   71.5400  225.2930 C   0  0  0  0  0  0  0  0  0  0  0  0
  138.5831   76.0276  220.2942 H   0  0  0  0  0  0  0  0  0  0  0  0
  137.6104   74.6179  219.8464 H   0  0  0  0  0  0  0  0  0  0  0  0
  136.3348   75.2984  221.6862 H   0  0  0  0  0  0  0  0  0  0  0  0
  137.5816   74.3671  222.5971 H   0  0  0  0  0  0  0  0  0  0  0  0
  136.9357   76.9669  223.1051 H   0  0  0  0  0  0  0  0  0  0  0  0
  138.5508   76.2193  223.4425 H   0  0  0  0  0  0  0  0  0  0  0  0
  141.0556   76.9841  221.5681 H   0  0  0  0  0  0  0  0  0  0  0  0
  142.8882   78.3881  222.4427 H   0  0  0  0  0  0  0  0  0  0  0  0
  139.9477   81.1172  224.0414 H   0  0  0  0  0  0  0  0  0  0  0  0
  138.8210   73.8820  223.0870 H   0  0  0  0  0  0  0  0  0  0  0  0
  140.3611   70.9002  221.9501 H   0  0  0  0  0  0  0  0  0  0  0  0
  139.0045   69.2687  223.4357 H   0  0  0  0  0  0  0  0  0  0  0  0
  138.6482   68.2648  225.6765 H   0  0  0  0  0  0  0  0  0  0  0  0
  139.6005   69.3737  227.6955 H   0  0  0  0  0  0  0  0  0  0  0  0
  141.2498   72.4708  225.1834 H   0  0  0  0  0  0  0  0  0  0  0  0
  1  2  2  0
  2  3  1  0
  3  4  1  0
  4  5  1  0
  5  6  1  0
  6  7  1  0
  7  8  2  0
  8  9  1  0
  9 10  2  0
 10 11  1  0
 10 12  1  0
 12 13  2  0
 13 14  1  0
  2 15  1  0
 15 16  1  0
 16 17  2  0
 17 18  1  0
 18 19  2  0
 19 20  1  0
 20 21  2  0
 21 22  1  0
 22 23  1  0
 23 24  1  0
 23 25  1  0
 23 26  1  0
 22 27  2  0
 13  7  1  0
 27 18  1  0
  3 28  1  0
  3 29  1  0
  4 30  1  0
  4 31  1  0
  5 32  1  0
  5 33  1  0
  8 34  1  0
  9 35  1  0
 12 36  1  0
 15 37  1  0
 17 38  1  0
 19 39  1  0
 20 40  1  0
 21 41  1  0
 27 42  1  0
M  END
>  <smiles>  (32) 
O=C(CCCOc1ccc(Cl)cc1Cl)NN=Cc1cccc(C(F)(F)F)c1

>  <score_type>  (32) 
oracle

>  <origin>  (32) 
autodockgpu

>  <m_score__min__energy>  (32) 
-7.5199999999999996

>  <m_primary>  (32) 
energy

>  <rmsd>  (32) 
6.006568586590389

>  <m_score__min__rmsd>  (32) 
6.006568586590389

>  <meeko>  (32) 
{"free_energy": -7.06, "intermolecular_energy": -9.75, "internal_energy": -0.91, "cluster_size": 15, "cluster_id": 1, "rank_in_cluster": 6}

>  <energy>  (32) 
-6.03

>  <cluster_rmsd>  (32) 
0.0

>  <cluster>  (32) 
6

$$$$

     RDKit          3D

 42 43  0  0  1  0  0  0  0  0999 V2000
  140.3360   74.0220  220.1670 O   0  0  0  0  0  0  0  0  0  0  0  0
  139.4640   74.1480  221.0770 C   0  0  0  0  0  0  0  0  0  0  0  0
  138.2770   74.9960  220.7190 C   0  0  0  0  0  0  0  0  0  0  0  0
  137.5280   75.2450  222.0340 C   0  0  0  0  0  0  0  0  0  0  0  0
  137.9400   76.5750  222.6330 C   0  0  0  0  0  0  0  0  0  0  0  0
  138.7060   77.3390  221.7210 O   0  0  0  0  0  0  0  0  0  0  0  0
  139.7160   78.1730  222.2380 C   0  0  0  0  0  0  0  0  0  0  0  0
  139.4500   79.0900  223.2450 C   0  0  0  0  0  0  0  0  0  0  0  0
  140.4110   79.9210  223.7740 C   0  0  0  0  0  0  0  0  0  0  0  0
  141.7050   79.8290  223.2690 C   0  0  0  0  0  0  0  0  0  0  0  0
  142.8970   80.9020  223.9680 Cl  0  0  0  0  0  0  0  0  0  0  0  0
  142.0070   78.9270  222.2650 C   0  0  0  0  0  0  0  0  0  0  0  0
  141.0170   78.0980  221.7470 C   0  0  0  0  0  0  0  0  0  0  0  0
  141.4250   76.9640  220.4750 Cl  0  0  0  0  0  0  0  0  0  0  0  0
  139.5770   73.5480  222.3430 N   0  0  0  0  0  0  0  0  0  0  0  0
  140.6590   72.7450  222.7400 N   0  0  0  0  0  0  0  0  0  0  0  0
  140.4780   71.4640  222.9220 C   0  0  0  0  0  0  0  0  0  0  0  0
  140.1660   70.9260  224.2590 C   0  0  0  0  0  0  0  0  0  0  0  0
  139.3830   69.8000  224.4230 C   0  0  0  0  0  0  0  0  0  0  0  0
  139.0950   69.3000  225.6860 C   0  0  0  0  0  0  0  0  0  0  0  0
  139.5990   69.9400  226.8070 C   0  0  0  0  0  0  0  0  0  0  0  0
  140.3920   71.0800  226.6550 C   0  0  0  0  0  0  0  0  0  0  0  0
  140.9260   71.7560  227.8790 C   0  0  0  0  0  0  0  0  0  0  0  0
  141.8200   72.7330  227.5350 F   0  0  0  0  0  0  0  0  0  0  0  0
  139.8860   72.2170  228.6350 F   0  0  0  0  0  0  0  0  0  0  0  0
  141.5450   70.7250  228.5960 F   0  0  0  0  0  0  0  0  0  0  0  0
  140.6660   71.5610  225.3780 C   0  0  0  0  0  0  0  0  0  0  0  0
  138.6060   75.9492  220.2794 H   0  0  0  0  0  0  0  0  0  0  0  0
  137.6353   74.5003  219.9757 H   0  0  0  0  0  0  0  0  0  0  0  0
  136.4456   75.2554  221.8383 H   0  0  0  0  0  0  0  0  0  0  0  0
  137.7761   74.4419  222.7436 H   0  0  0  0  0  0  0  0  0  0  0  0
  137.0362   77.1410  222.9027 H   0  0  0  0  0  0  0  0  0  0  0  0
  138.5575   76.3771  223.5216 H   0  0  0  0  0  0  0  0  0  0  0  0
  138.4247   79.1556  223.6381 H   0  0  0  0  0  0  0  0  0  0  0  0
  140.1640   80.6366  224.5721 H   0  0  0  0  0  0  0  0  0  0  0  0
  143.0335   78.8648  221.8747 H   0  0  0  0  0  0  0  0  0  0  0  0
  138.8280   73.6730  223.0870 H   0  0  0  0  0  0  0  0  0  0  0  0
  140.5594   70.7775  222.0663 H   0  0  0  0  0  0  0  0  0  0  0  0
  138.9798   69.2895  223.5360 H   0  0  0  0  0  0  0  0  0  0  0  0
  138.4705   68.4012  225.7960 H   0  0  0  0  0  0  0  0  0  0  0  0
  139.3757   69.5522  227.8119 H   0  0  0  0  0  0  0  0  0  0  0  0
  141.2895   72.4594  225.2589 H   0  0  0  0  0  0  0  0  0  0  0  0
  1  2  2  0
  2  3  1  0
  3  4  1  0
  4  5  1  0
  5  6  1  0
  6  7  1  0
  7  8  2  0
  8  9  1  0
  9 10  2  0
 10 11  1  0
 10 12  1  0
 12 13  2  0
 13 14  1  0
  2 15  1  0
 15 16  1  0
 16 17  2  0
 17 18  1  0
 18 19  2  0
 19 20  1  0
 20 21  2  0
 21 22  1  0
 22 23  1  0
 23 24  1  0
 23 25  1  0
 23 26  1  0
 22 27  2  0
 13  7  1  0
 27 18  1  0
  3 28  1  0
  3 29  1  0
  4 30  1  0
  4 31  1  0
  5 32  1  0
  5 33  1  0
  8 34  1  0
  9 35  1  0
 12 36  1  0
 15 37  1  0
 17 38  1  0
 19 39  1  0
 20 40  1  0
 21 41  1  0
 27 42  1  0
M  END
>  <smiles>  (33) 
O=C(CCCOc1ccc(Cl)cc1Cl)NN=Cc1cccc(C(F)(F)F)c1

>  <score_type>  (33) 
oracle

>  <origin>  (33) 
autodockgpu

>  <m_score__min__energy>  (33) 
-7.5199999999999996

>  <m_primary>  (33) 
energy

>  <rmsd>  (33) 
5.64631972956882

>  <m_score__min__rmsd>  (33) 
5.64631972956882

>  <meeko>  (33) 
{"free_energy": -7.08, "intermolecular_energy": -9.76, "internal_energy": -1.04, "cluster_size": 15, "cluster_id": 1, "rank_in_cluster": 5}

>  <energy>  (33) 
-5.92

>  <cluster_rmsd>  (33) 
0.0

>  <cluster>  (33) 
7

$$$$

     RDKit          3D

 42 43  0  0  1  0  0  0  0  0999 V2000
  139.5190   75.5250  222.5800 O   0  0  0  0  0  0  0  0  0  0  0  0
  140.2040   75.0100  221.6460 C   0  0  0  0  0  0  0  0  0  0  0  0
  140.7920   75.9840  220.6660 C   0  0  0  0  0  0  0  0  0  0  0  0
  141.6320   75.1460  219.6950 C   0  0  0  0  0  0  0  0  0  0  0  0
  143.0210   74.9200  220.2590 C   0  0  0  0  0  0  0  0  0  0  0  0
  143.0860   73.7260  221.0140 O   0  0  0  0  0  0  0  0  0  0  0  0
  143.6680   72.5920  220.4150 C   0  0  0  0  0  0  0  0  0  0  0  0
  142.8900   71.5380  219.9580 C   0  0  0  0  0  0  0  0  0  0  0  0
  143.4230   70.4140  219.3670 C   0  0  0  0  0  0  0  0  0  0  0  0
  144.8060   70.3430  219.2290 C   0  0  0  0  0  0  0  0  0  0  0  0
  145.4440   68.9000  218.4730 Cl  0  0  0  0  0  0  0  0  0  0  0  0
  145.6130   71.3740  219.6720 C   0  0  0  0  0  0  0  0  0  0  0  0
  145.0490   72.5000  220.2660 C   0  0  0  0  0  0  0  0  0  0  0  0
  146.0940   73.7920  220.8210 Cl  0  0  0  0  0  0  0  0  0  0  0  0
  140.4140   73.6270  221.5150 N   0  0  0  0  0  0  0  0  0  0  0  0
  139.8940   72.6640  222.3960 N   0  0  0  0  0  0  0  0  0  0  0  0
  140.7050   71.8360  222.9990 C   0  0  0  0  0  0  0  0  0  0  0  0
  140.3150   71.1730  224.2570 C   0  0  0  0  0  0  0  0  0  0  0  0
  139.5180   70.0460  224.2650 C   0  0  0  0  0  0  0  0  0  0  0  0
  139.1550   69.4280  225.4550 C   0  0  0  0  0  0  0  0  0  0  0  0
  139.5980   69.9500  226.6600 C   0  0  0  0  0  0  0  0  0  0  0  0
  140.4040   71.0910  226.6650 C   0  0  0  0  0  0  0  0  0  0  0  0
  140.8720   71.6370  227.9780 C   0  0  0  0  0  0  0  0  0  0  0  0
  141.7820   72.6400  227.7820 F   0  0  0  0  0  0  0  0  0  0  0  0
  139.7920   72.0240  228.7200 F   0  0  0  0  0  0  0  0  0  0  0  0
  141.4530   70.5360  228.6200 F   0  0  0  0  0  0  0  0  0  0  0  0
  140.7540   71.6900  225.4590 C   0  0  0  0  0  0  0  0  0  0  0  0
  139.9931   76.5113  220.1242 H   0  0  0  0  0  0  0  0  0  0  0  0
  141.4007   76.7483  221.1713 H   0  0  0  0  0  0  0  0  0  0  0  0
  141.1420   74.1739  219.5374 H   0  0  0  0  0  0  0  0  0  0  0  0
  141.7175   75.6848  218.7398 H   0  0  0  0  0  0  0  0  0  0  0  0
  143.7384   74.8566  219.4275 H   0  0  0  0  0  0  0  0  0  0  0  0
  143.2649   75.7621  220.9234 H   0  0  0  0  0  0  0  0  0  0  0  0
  141.7980   71.6031  220.0729 H   0  0  0  0  0  0  0  0  0  0  0  0
  142.7755   69.5975  219.0149 H   0  0  0  0  0  0  0  0  0  0  0  0
  146.7046   71.3047  219.5549 H   0  0  0  0  0  0  0  0  0  0  0  0
  140.9930   73.2240  220.7200 H   0  0  0  0  0  0  0  0  0  0  0  0
  141.6932   71.6304  222.5618 H   0  0  0  0  0  0  0  0  0  0  0  0
  139.1635   69.6292  223.3107 H   0  0  0  0  0  0  0  0  0  0  0  0
  138.5199   68.5300  225.4410 H   0  0  0  0  0  0  0  0  0  0  0  0
  139.3163   69.4682  227.6079 H   0  0  0  0  0  0  0  0  0  0  0  0
  141.3893   72.5880  225.4636 H   0  0  0  0  0  0  0  0  0  0  0  0
  1  2  2  0
  2  3  1  0
  3  4  1  0
  4  5  1  0
  5  6  1  0
  6  7  1  0
  7  8  2  0
  8  9  1  0
  9 10  2  0
 10 11  1  0
 10 12  1  0
 12 13  2  0
 13 14  1  0
  2 15  1  0
 15 16  1  0
 16 17  2  0
 17 18  1  0
 18 19  2  0
 19 20  1  0
 20 21  2  0
 21 22  1  0
 22 23  1  0
 23 24  1  0
 23 25  1  0
 23 26  1  0
 22 27  2  0
 13  7  1  0
 27 18  1  0
  3 28  1  0
  3 29  1  0
  4 30  1  0
  4 31  1  0
  5 32  1  0
  5 33  1  0
  8 34  1  0
  9 35  1  0
 12 36  1  0
 15 37  1  0
 17 38  1  0
 19 39  1  0
 20 40  1  0
 21 41  1  0
 27 42  1  0
M  END
>  <smiles>  (34) 
O=C(CCCOc1ccc(Cl)cc1Cl)NN=Cc1cccc(C(F)(F)F)c1

>  <score_type>  (34) 
oracle

>  <origin>  (34) 
autodockgpu

>  <m_score__min__energy>  (34) 
-7.5199999999999996

>  <m_primary>  (34) 
energy

>  <rmsd>  (34) 
11.046936253707498

>  <m_score__min__rmsd>  (34) 
11.046936253707498

>  <meeko>  (34) 
{"free_energy": -6.14, "intermolecular_energy": -8.82, "internal_energy": -1.75, "cluster_size": 3, "cluster_id": 5, "rank_in_cluster": 2}

>  <energy>  (34) 
-5.87

>  <cluster_rmsd>  (34) 
0.0

>  <cluster>  (34) 
8

$$$$

     RDKit          3D

 42 43  0  0  1  0  0  0  0  0999 V2000
  140.3570   73.9360  222.0110 O   0  0  0  0  0  0  0  0  0  0  0  0
  139.2160   73.3860  222.0490 C   0  0  0  0  0  0  0  0  0  0  0  0
  138.1020   74.1720  221.4210 C   0  0  0  0  0  0  0  0  0  0  0  0
  138.5630   75.6340  221.4300 C   0  0  0  0  0  0  0  0  0  0  0  0
  138.1840   76.2990  222.7390 C   0  0  0  0  0  0  0  0  0  0  0  0
  138.1030   77.7040  222.6030 O   0  0  0  0  0  0  0  0  0  0  0  0
  139.2450   78.4680  222.9120 C   0  0  0  0  0  0  0  0  0  0  0  0
  140.5240   77.9690  222.7100 C   0  0  0  0  0  0  0  0  0  0  0  0
  141.6630   78.6860  223.0000 C   0  0  0  0  0  0  0  0  0  0  0  0
  141.5120   79.9680  223.5200 C   0  0  0  0  0  0  0  0  0  0  0  0
  142.9830   80.8470  223.8750 Cl  0  0  0  0  0  0  0  0  0  0  0  0
  140.2540   80.4990  223.7350 C   0  0  0  0  0  0  0  0  0  0  0  0
  139.1180   79.7530  223.4330 C   0  0  0  0  0  0  0  0  0  0  0  0
  137.5340   80.4470  223.7160 Cl  0  0  0  0  0  0  0  0  0  0  0  0
  138.9840   72.1290  222.6330 N   0  0  0  0  0  0  0  0  0  0  0  0
  139.9810   71.3450  223.2360 N   0  0  0  0  0  0  0  0  0  0  0  0
  139.6610   70.2000  223.7790 C   0  0  0  0  0  0  0  0  0  0  0  0
  139.9440   69.9300  225.2000 C   0  0  0  0  0  0  0  0  0  0  0  0
  139.9070   68.6490  225.7160 C   0  0  0  0  0  0  0  0  0  0  0  0
  140.1750   68.4040  227.0570 C   0  0  0  0  0  0  0  0  0  0  0  0
  140.4860   69.4620  227.8970 C   0  0  0  0  0  0  0  0  0  0  0  0
  140.5260   70.7620  227.3870 C   0  0  0  0  0  0  0  0  0  0  0  0
  140.8640   71.8890  228.3120 C   0  0  0  0  0  0  0  0  0  0  0  0
  139.7610   72.2680  229.0290 F   0  0  0  0  0  0  0  0  0  0  0  0
  141.9230   71.5320  229.0980 F   0  0  0  0  0  0  0  0  0  0  0  0
  141.2970   72.9130  227.4600 F   0  0  0  0  0  0  0  0  0  0  0  0
  140.2530   70.9800  226.0400 C   0  0  0  0  0  0  0  0  0  0  0  0
  137.9279   73.8319  220.3895 H   0  0  0  0  0  0  0  0  0  0  0  0
  137.1573   74.0428  221.9694 H   0  0  0  0  0  0  0  0  0  0  0  0
  139.6556   75.6704  221.3078 H   0  0  0  0  0  0  0  0  0  0  0  0
  138.0725   76.1682  220.6029 H   0  0  0  0  0  0  0  0  0  0  0  0
  137.2063   75.9147  223.0650 H   0  0  0  0  0  0  0  0  0  0  0  0
  138.9629   76.0688  223.4808 H   0  0  0  0  0  0  0  0  0  0  0  0
  140.6328   76.9543  222.2995 H   0  0  0  0  0  0  0  0  0  0  0  0
  142.6616   78.2587  222.8260 H   0  0  0  0  0  0  0  0  0  0  0  0
  140.1502   81.5141  224.1460 H   0  0  0  0  0  0  0  0  0  0  0  0
  138.0140   71.6940  222.6500 H   0  0  0  0  0  0  0  0  0  0  0  0
  139.1736   69.4269  223.1668 H   0  0  0  0  0  0  0  0  0  0  0  0
  139.6606   67.8070  225.0525 H   0  0  0  0  0  0  0  0  0  0  0  0
  140.1406   67.3771  227.4497 H   0  0  0  0  0  0  0  0  0  0  0  0
  140.7003   69.2788  228.9603 H   0  0  0  0  0  0  0  0  0  0  0  0
  140.2840   72.0039  225.6393 H   0  0  0  0  0  0  0  0  0  0  0  0
  1  2  2  0
  2  3  1  0
  3  4  1  0
  4  5  1  0
  5  6  1  0
  6  7  1  0
  7  8  2  0
  8  9  1  0
  9 10  2  0
 10 11  1  0
 10 12  1  0
 12 13  2  0
 13 14  1  0
  2 15  1  0
 15 16  1  0
 16 17  2  0
 17 18  1  0
 18 19  2  0
 19 20  1  0
 20 21  2  0
 21 22  1  0
 22 23  1  0
 23 24  1  0
 23 25  1  0
 23 26  1  0
 22 27  2  0
 13  7  1  0
 27 18  1  0
  3 28  1  0
  3 29  1  0
  4 30  1  0
  4 31  1  0
  5 32  1  0
  5 33  1  0
  8 34  1  0
  9 35  1  0
 12 36  1  0
 15 37  1  0
 17 38  1  0
 19 39  1  0
 20 40  1  0
 21 41  1  0
 27 42  1  0
M  END
>  <smiles>  (35) 
O=C(CCCOc1ccc(Cl)cc1Cl)NN=Cc1cccc(C(F)(F)F)c1

>  <score_type>  (35) 
oracle

>  <origin>  (35) 
autodockgpu

>  <m_score__min__energy>  (35) 
-7.5199999999999996

>  <m_primary>  (35) 
energy

>  <rmsd>  (35) 
6.142777163418696

>  <m_score__min__rmsd>  (35) 
6.142777163418696

>  <meeko>  (35) 
{"free_energy": -7.52, "intermolecular_energy": -10.21, "internal_energy": -0.76, "cluster_size": 15, "cluster_id": 1, "rank_in_cluster": 1}

>  <energy>  (35) 
-5.81

>  <cluster_rmsd>  (35) 
1.39

>  <cluster>  (35) 
8

$$$$

     RDKit          3D

 42 43  0  0  1  0  0  0  0  0999 V2000
  140.9560   74.7660  221.3880 O   0  0  0  0  0  0  0  0  0  0  0  0
  139.7850   74.3660  221.6590 C   0  0  0  0  0  0  0  0  0  0  0  0
  138.6760   75.1050  220.9670 C   0  0  0  0  0  0  0  0  0  0  0  0
  137.5870   75.3130  222.0270 C   0  0  0  0  0  0  0  0  0  0  0  0
  138.0000   76.3980  223.0020 C   0  0  0  0  0  0  0  0  0  0  0  0
  138.1930   77.6370  222.3480 O   0  0  0  0  0  0  0  0  0  0  0  0
  139.3030   78.4180  222.7210 C   0  0  0  0  0  0  0  0  0  0  0  0
  140.6010   77.9640  222.5340 C   0  0  0  0  0  0  0  0  0  0  0  0
  141.7110   78.6990  222.8860 C   0  0  0  0  0  0  0  0  0  0  0  0
  141.5090   79.9530  223.4540 C   0  0  0  0  0  0  0  0  0  0  0  0
  142.9440   80.8560  223.8870 Cl  0  0  0  0  0  0  0  0  0  0  0  0
  140.2310   80.4390  223.6560 C   0  0  0  0  0  0  0  0  0  0  0  0
  139.1260   79.6760  223.2910 C   0  0  0  0  0  0  0  0  0  0  0  0
  137.5160   80.3140  223.5570 Cl  0  0  0  0  0  0  0  0  0  0  0  0
  139.5160   73.3070  222.5430 N   0  0  0  0  0  0  0  0  0  0  0  0
  140.5060   72.5760  223.2200 N   0  0  0  0  0  0  0  0  0  0  0  0
  140.2340   71.3770  223.6620 C   0  0  0  0  0  0  0  0  0  0  0  0
  140.4860   71.0130  225.0680 C   0  0  0  0  0  0  0  0  0  0  0  0
  140.8130   71.9620  226.0160 C   0  0  0  0  0  0  0  0  0  0  0  0
  141.0490   71.6100  227.3390 C   0  0  0  0  0  0  0  0  0  0  0  0
  140.9540   70.2810  227.7200 C   0  0  0  0  0  0  0  0  0  0  0  0
  140.6240   69.3100  226.7710 C   0  0  0  0  0  0  0  0  0  0  0  0
  140.5270   67.8810  227.2040 C   0  0  0  0  0  0  0  0  0  0  0  0
  141.0650   67.7210  228.4520 F   0  0  0  0  0  0  0  0  0  0  0  0
  139.2280   67.4660  227.1190 F   0  0  0  0  0  0  0  0  0  0  0  0
  141.2580   67.1800  226.2370 F   0  0  0  0  0  0  0  0  0  0  0  0
  140.3930   69.6900  225.4520 C   0  0  0  0  0  0  0  0  0  0  0  0
  139.0368   76.0746  220.5931 H   0  0  0  0  0  0  0  0  0  0  0  0
  138.2954   74.5447  220.1002 H   0  0  0  0  0  0  0  0  0  0  0  0
  136.6503   75.6082  221.5315 H   0  0  0  0  0  0  0  0  0  0  0  0
  137.4420   74.3728  222.5793 H   0  0  0  0  0  0  0  0  0  0  0  0
  137.2133   76.5138  223.7620 H   0  0  0  0  0  0  0  0  0  0  0  0
  138.9521   76.1008  223.4658 H   0  0  0  0  0  0  0  0  0  0  0  0
  140.7500   76.9714  222.0839 H   0  0  0  0  0  0  0  0  0  0  0  0
  142.7258   78.3069  222.7232 H   0  0  0  0  0  0  0  0  0  0  0  0
  140.0869   81.4320  224.1067 H   0  0  0  0  0  0  0  0  0  0  0  0
  138.5220   72.9940  222.7510 H   0  0  0  0  0  0  0  0  0  0  0  0
  139.8111   70.6288  222.9754 H   0  0  0  0  0  0  0  0  0  0  0  0
  140.8882   73.0181  225.7177 H   0  0  0  0  0  0  0  0  0  0  0  0
  141.3095   72.3810  228.0791 H   0  0  0  0  0  0  0  0  0  0  0  0
  141.1376   69.9917  228.7653 H   0  0  0  0  0  0  0  0  0  0  0  0
  140.1327   68.9256  224.7051 H   0  0  0  0  0  0  0  0  0  0  0  0
  1  2  2  0
  2  3  1  0
  3  4  1  0
  4  5  1  0
  5  6  1  0
  6  7  1  0
  7  8  2  0
  8  9  1  0
  9 10  2  0
 10 11  1  0
 10 12  1  0
 12 13  2  0
 13 14  1  0
  2 15  1  0
 15 16  1  0
 16 17  2  0
 17 18  1  0
 18 19  2  0
 19 20  1  0
 20 21  2  0
 21 22  1  0
 22 23  1  0
 23 24  1  0
 23 25  1  0
 23 26  1  0
 22 27  2  0
 13  7  1  0
 27 18  1  0
  3 28  1  0
  3 29  1  0
  4 30  1  0
  4 31  1  0
  5 32  1  0
  5 33  1  0
  8 34  1  0
  9 35  1  0
 12 36  1  0
 15 37  1  0
 17 38  1  0
 19 39  1  0
 20 40  1  0
 21 41  1  0
 27 42  1  0
M  END
>  <smiles>  (36) 
O=C(CCCOc1ccc(Cl)cc1Cl)NN=Cc1cccc(C(F)(F)F)c1

>  <score_type>  (36) 
oracle

>  <origin>  (36) 
autodockgpu

>  <m_score__min__energy>  (36) 
-7.5199999999999996

>  <m_primary>  (36) 
energy

>  <rmsd>  (36) 
6.105694059787769

>  <m_score__min__rmsd>  (36) 
6.105694059787769

>  <meeko>  (36) 
{"free_energy": -7.44, "intermolecular_energy": -10.13, "internal_energy": -0.96, "cluster_size": 15, "cluster_id": 1, "rank_in_cluster": 2}

>  <energy>  (36) 
-5.81

>  <cluster_rmsd>  (36) 
1.41

>  <cluster>  (36) 
8

$$$$

     RDKit          3D

 42 43  0  0  1  0  0  0  0  0999 V2000
  140.5730   74.3350  221.9840 O   0  0  0  0  0  0  0  0  0  0  0  0
  139.3960   73.8840  221.8490 C   0  0  0  0  0  0  0  0  0  0  0  0
  138.4120   74.8310  221.2250 C   0  0  0  0  0  0  0  0  0  0  0  0
  137.5010   75.3010  222.3660 C   0  0  0  0  0  0  0  0  0  0  0  0
  137.7930   76.7480  222.7130 C   0  0  0  0  0  0  0  0  0  0  0  0
  138.7890   77.2930  221.8690 O   0  0  0  0  0  0  0  0  0  0  0  0
  139.6670   78.2500  222.4120 C   0  0  0  0  0  0  0  0  0  0  0  0
  141.0010   77.9510  222.6500 C   0  0  0  0  0  0  0  0  0  0  0  0
  141.8900   78.8600  223.1790 C   0  0  0  0  0  0  0  0  0  0  0  0
  141.4170   80.1330  223.4860 C   0  0  0  0  0  0  0  0  0  0  0  0
  142.5770   81.2590  224.1560 Cl  0  0  0  0  0  0  0  0  0  0  0  0
  140.0940   80.4660  223.2620 C   0  0  0  0  0  0  0  0  0  0  0  0
  139.2160   79.5290  222.7260 C   0  0  0  0  0  0  0  0  0  0  0  0
  137.5440   79.9760  222.4530 Cl  0  0  0  0  0  0  0  0  0  0  0  0
  139.0130   72.5920  222.2470 N   0  0  0  0  0  0  0  0  0  0  0  0
  139.8840   71.6590  222.8340 N   0  0  0  0  0  0  0  0  0  0  0  0
  139.4360   70.8540  223.7610 C   0  0  0  0  0  0  0  0  0  0  0  0
  140.0070   70.8720  225.1210 C   0  0  0  0  0  0  0  0  0  0  0  0
  140.7820   71.9230  225.5680 C   0  0  0  0  0  0  0  0  0  0  0  0
  141.3160   71.9310  226.8510 C   0  0  0  0  0  0  0  0  0  0  0  0
  141.0680   70.8650  227.7010 C   0  0  0  0  0  0  0  0  0  0  0  0
  140.2850   69.7950  227.2600 C   0  0  0  0  0  0  0  0  0  0  0  0
  140.0300   68.6550  228.1960 C   0  0  0  0  0  0  0  0  0  0  0  0
  139.3570   67.6510  227.5550 F   0  0  0  0  0  0  0  0  0  0  0  0
  141.2110   68.2460  228.7480 F   0  0  0  0  0  0  0  0  0  0  0  0
  139.2580   69.2170  229.2190 F   0  0  0  0  0  0  0  0  0  0  0  0
  139.7630   69.8120  225.9710 C   0  0  0  0  0  0  0  0  0  0  0  0
  138.9366   75.6875  220.7765 H   0  0  0  0  0  0  0  0  0  0  0  0
  137.8372   74.3459  220.4224 H   0  0  0  0  0  0  0  0  0  0  0  0
  136.4506   75.2081  222.0530 H   0  0  0  0  0  0  0  0  0  0  0  0
  137.6877   74.6767  223.2522 H   0  0  0  0  0  0  0  0  0  0  0  0
  136.8697   77.3355  222.6018 H   0  0  0  0  0  0  0  0  0  0  0  0
  138.1598   76.7870  223.7493 H   0  0  0  0  0  0  0  0  0  0  0  0
  141.3648   76.9422  222.4050 H   0  0  0  0  0  0  0  0  0  0  0  0
  142.9416   78.5886  223.3537 H   0  0  0  0  0  0  0  0  0  0  0  0
  139.7340   81.4758  223.5085 H   0  0  0  0  0  0  0  0  0  0  0  0
  138.0180   72.2430  222.1200 H   0  0  0  0  0  0  0  0  0  0  0  0
  138.6219   70.1533  223.5238 H   0  0  0  0  0  0  0  0  0  0  0  0
  140.9808   72.7706  224.8957 H   0  0  0  0  0  0  0  0  0  0  0  0
  141.9313   72.7777  227.1895 H   0  0  0  0  0  0  0  0  0  0  0  0
  141.4858   70.8612  228.7186 H   0  0  0  0  0  0  0  0  0  0  0  0
  139.1472   68.9691  225.6240 H   0  0  0  0  0  0  0  0  0  0  0  0
  1  2  2  0
  2  3  1  0
  3  4  1  0
  4  5  1  0
  5  6  1  0
  6  7  1  0
  7  8  2  0
  8  9  1  0
  9 10  2  0
 10 11  1  0
 10 12  1  0
 12 13  2  0
 13 14  1  0
  2 15  1  0
 15 16  1  0
 16 17  2  0
 17 18  1  0
 18 19  2  0
 19 20  1  0
 20 21  2  0
 21 22  1  0
 22 23  1  0
 23 24  1  0
 23 25  1  0
 23 26  1  0
 22 27  2  0
 13  7  1  0
 27 18  1  0
  3 28  1  0
  3 29  1  0
  4 30  1  0
  4 31  1  0
  5 32  1  0
  5 33  1  0
  8 34  1  0
  9 35  1  0
 12 36  1  0
 15 37  1  0
 17 38  1  0
 19 39  1  0
 20 40  1  0
 21 41  1  0
 27 42  1  0
M  END
>  <smiles>  (37) 
O=C(CCCOc1ccc(Cl)cc1Cl)NN=Cc1cccc(C(F)(F)F)c1

>  <score_type>  (37) 
oracle

>  <origin>  (37) 
autodockgpu

>  <m_score__min__energy>  (37) 
-7.5199999999999996

>  <m_primary>  (37) 
energy

>  <rmsd>  (37) 
5.876809590399148

>  <m_score__min__rmsd>  (37) 
5.876809590399148

>  <meeko>  (37) 
{"free_energy": -6.98, "intermolecular_energy": -9.67, "internal_energy": -0.9, "cluster_size": 15, "cluster_id": 1, "rank_in_cluster": 8}

>  <energy>  (37) 
-5.78

>  <cluster_rmsd>  (37) 
1.14

>  <cluster>  (37) 
8

$$$$

     RDKit          3D

 42 43  0  0  1  0  0  0  0  0999 V2000
  137.7690   72.1080  220.8900 O   0  0  0  0  0  0  0  0  0  0  0  0
  138.0380   73.2250  221.4250 C   0  0  0  0  0  0  0  0  0  0  0  0
  137.1760   74.3740  220.9870 C   0  0  0  0  0  0  0  0  0  0  0  0
  136.5740   74.9590  222.2700 C   0  0  0  0  0  0  0  0  0  0  0  0
  137.3920   76.1440  222.7440 C   0  0  0  0  0  0  0  0  0  0  0  0
  138.6930   76.1310  222.1900 O   0  0  0  0  0  0  0  0  0  0  0  0
  139.5080   77.2630  222.3820 C   0  0  0  0  0  0  0  0  0  0  0  0
  139.0630   78.3570  223.1100 C   0  0  0  0  0  0  0  0  0  0  0  0
  139.8300   79.4810  223.3190 C   0  0  0  0  0  0  0  0  0  0  0  0
  141.1090   79.5090  222.7700 C   0  0  0  0  0  0  0  0  0  0  0  0
  142.0530   80.9540  223.0580 Cl  0  0  0  0  0  0  0  0  0  0  0  0
  141.5870   78.4370  222.0390 C   0  0  0  0  0  0  0  0  0  0  0  0
  140.7910   77.3130  221.8430 C   0  0  0  0  0  0  0  0  0  0  0  0
  141.4190   75.9680  220.9120 Cl  0  0  0  0  0  0  0  0  0  0  0  0
  139.0670   73.4020  222.3650 N   0  0  0  0  0  0  0  0  0  0  0  0
  139.9070   72.3710  222.8170 N   0  0  0  0  0  0  0  0  0  0  0  0
  139.3860   71.2320  223.1920 C   0  0  0  0  0  0  0  0  0  0  0  0
  139.7220   70.6400  224.5000 C   0  0  0  0  0  0  0  0  0  0  0  0
  139.6190   69.2820  224.7290 C   0  0  0  0  0  0  0  0  0  0  0  0
  139.9380   68.7330  225.9650 C   0  0  0  0  0  0  0  0  0  0  0  0
  140.3670   69.5600  226.9910 C   0  0  0  0  0  0  0  0  0  0  0  0
  140.4740   70.9360  226.7720 C   0  0  0  0  0  0  0  0  0  0  0  0
  140.9400   71.8110  227.8940 C   0  0  0  0  0  0  0  0  0  0  0  0
  141.6830   72.8530  227.4120 F   0  0  0  0  0  0  0  0  0  0  0  0
  139.8650   72.2110  228.6360 F   0  0  0  0  0  0  0  0  0  0  0  0
  141.7120   70.9590  228.6940 F   0  0  0  0  0  0  0  0  0  0  0  0
  140.1490   71.4600  225.5250 C   0  0  0  0  0  0  0  0  0  0  0  0
  137.7822   75.1315  220.4685 H   0  0  0  0  0  0  0  0  0  0  0  0
  136.3939   74.0483  220.2853 H   0  0  0  0  0  0  0  0  0  0  0  0
  135.5431   75.2867  222.0702 H   0  0  0  0  0  0  0  0  0  0  0  0
  136.5795   74.1855  223.0521 H   0  0  0  0  0  0  0  0  0  0  0  0
  136.8844   77.0721  222.4424 H   0  0  0  0  0  0  0  0  0  0  0  0
  137.4826   76.0849  223.8387 H   0  0  0  0  0  0  0  0  0  0  0  0
  138.0510   78.3248  223.5399 H   0  0  0  0  0  0  0  0  0  0  0  0
  139.4442   80.3305  223.9017 H   0  0  0  0  0  0  0  0  0  0  0  0
  142.5997   78.4731  221.6112 H   0  0  0  0  0  0  0  0  0  0  0  0
  139.2700   74.3520  222.7960 H   0  0  0  0  0  0  0  0  0  0  0  0
  138.6876   70.7083  222.5227 H   0  0  0  0  0  0  0  0  0  0  0  0
  139.2779   68.6224  223.9175 H   0  0  0  0  0  0  0  0  0  0  0  0
  139.8506   67.6487  226.1281 H   0  0  0  0  0  0  0  0  0  0  0  0
  140.6221   69.1353  227.9731 H   0  0  0  0  0  0  0  0  0  0  0  0
  140.2335   72.5432  225.3533 H   0  0  0  0  0  0  0  0  0  0  0  0
  1  2  2  0
  2  3  1  0
  3  4  1  0
  4  5  1  0
  5  6  1  0
  6  7  1  0
  7  8  2  0
  8  9  1  0
  9 10  2  0
 10 11  1  0
 10 12  1  0
 12 13  2  0
 13 14  1  0
  2 15  1  0
 15 16  1  0
 16 17  2  0
 17 18  1  0
 18 19  2  0
 19 20  1  0
 20 21  2  0
 21 22  1  0
 22 23  1  0
 23 24  1  0
 23 25  1  0
 23 26  1  0
 22 27  2  0
 13  7  1  0
 27 18  1  0
  3 28  1  0
  3 29  1  0
  4 30  1  0
  4 31  1  0
  5 32  1  0
  5 33  1  0
  8 34  1  0
  9 35  1  0
 12 36  1  0
 15 37  1  0
 17 38  1  0
 19 39  1  0
 20 40  1  0
 21 41  1  0
 27 42  1  0
M  END
>  <smiles>  (38) 
O=C(CCCOc1ccc(Cl)cc1Cl)NN=Cc1cccc(C(F)(F)F)c1

>  <score_type>  (38) 
oracle

>  <origin>  (38) 
autodockgpu

>  <m_score__min__energy>  (38) 
-7.5199999999999996

>  <m_primary>  (38) 
energy

>  <rmsd>  (38) 
6.0573300388766125

>  <m_score__min__rmsd>  (38) 
6.0573300388766125

>  <meeko>  (38) 
{"free_energy": -6.5, "intermolecular_energy": -9.19, "internal_energy": -1.6, "cluster_size": 15, "cluster_id": 1, "rank_in_cluster": 12}

>  <energy>  (38) 
-5.68

>  <cluster_rmsd>  (38) 
0.59

>  <cluster>  (38) 
8

$$$$

     RDKit          3D

 42 43  0  0  1  0  0  0  0  0999 V2000
  140.9220   73.5020  220.6090 O   0  0  0  0  0  0  0  0  0  0  0  0
  139.8530   73.6560  221.2710 C   0  0  0  0  0  0  0  0  0  0  0  0
  138.7910   74.4780  220.5980 C   0  0  0  0  0  0  0  0  0  0  0  0
  139.0790   75.9330  220.9870 C   0  0  0  0  0  0  0  0  0  0  0  0
  138.4730   76.2480  222.3400 C   0  0  0  0  0  0  0  0  0  0  0  0
  138.2770   77.6390  222.5100 O   0  0  0  0  0  0  0  0  0  0  0  0
  139.3940   78.4320  222.8350 C   0  0  0  0  0  0  0  0  0  0  0  0
  140.6880   77.9580  222.6700 C   0  0  0  0  0  0  0  0  0  0  0  0
  141.8040   78.7030  222.9770 C   0  0  0  0  0  0  0  0  0  0  0  0
  141.6130   79.9890  223.4740 C   0  0  0  0  0  0  0  0  0  0  0  0
  143.0560   80.9050  223.8510 Cl  0  0  0  0  0  0  0  0  0  0  0  0
  140.3390   80.4950  223.6520 C   0  0  0  0  0  0  0  0  0  0  0  0
  139.2270   79.7210  223.3340 C   0  0  0  0  0  0  0  0  0  0  0  0
  137.6230   80.3840  223.5690 Cl  0  0  0  0  0  0  0  0  0  0  0  0
  139.6500   73.1060  222.5480 N   0  0  0  0  0  0  0  0  0  0  0  0
  140.6000   72.3280  223.2300 N   0  0  0  0  0  0  0  0  0  0  0  0
  140.2240   71.2320  223.8330 C   0  0  0  0  0  0  0  0  0  0  0  0
  140.5020   71.0210  225.2660 C   0  0  0  0  0  0  0  0  0  0  0  0
  140.8750   72.0620  226.0930 C   0  0  0  0  0  0  0  0  0  0  0  0
  141.1350   71.8540  227.4420 C   0  0  0  0  0  0  0  0  0  0  0  0
  141.0200   70.5780  227.9720 C   0  0  0  0  0  0  0  0  0  0  0  0
  140.6440   69.5170  227.1450 C   0  0  0  0  0  0  0  0  0  0  0  0
  140.5260   68.1470  227.7380 C   0  0  0  0  0  0  0  0  0  0  0  0
  141.4570   67.3070  227.1930 F   0  0  0  0  0  0  0  0  0  0  0  0
  140.6050   68.2330  229.1000 F   0  0  0  0  0  0  0  0  0  0  0  0
  139.2230   67.7460  227.4160 F   0  0  0  0  0  0  0  0  0  0  0  0
  140.3890   69.7520  225.7980 C   0  0  0  0  0  0  0  0  0  0  0  0
  138.8462   74.3554  219.5063 H   0  0  0  0  0  0  0  0  0  0  0  0
  137.7822   74.1682  220.9084 H   0  0  0  0  0  0  0  0  0  0  0  0
  140.1672   76.0875  221.0324 H   0  0  0  0  0  0  0  0  0  0  0  0
  138.6339   76.5988  220.2329 H   0  0  0  0  0  0  0  0  0  0  0  0
  137.5023   75.7374  222.4244 H   0  0  0  0  0  0  0  0  0  0  0  0
  139.1679   75.9000  223.1185 H   0  0  0  0  0  0  0  0  0  0  0  0
  140.8281   76.9406  222.2759 H   0  0  0  0  0  0  0  0  0  0  0  0
  142.8154   78.2947  222.8340 H   0  0  0  0  0  0  0  0  0  0  0  0
  140.2037   81.5129  224.0463 H   0  0  0  0  0  0  0  0  0  0  0  0
  138.7410   73.2520  223.0790 H   0  0  0  0  0  0  0  0  0  0  0  0
  139.6924   70.4552  223.2638 H   0  0  0  0  0  0  0  0  0  0  0  0
  140.9681   73.0755  225.6758 H   0  0  0  0  0  0  0  0  0  0  0  0
  141.4301   72.6961  228.0852 H   0  0  0  0  0  0  0  0  0  0  0  0
  141.2239   70.4021  229.0385 H   0  0  0  0  0  0  0  0  0  0  0  0
  140.0933   68.9155  225.1478 H   0  0  0  0  0  0  0  0  0  0  0  0
  1  2  2  0
  2  3  1  0
  3  4  1  0
  4  5  1  0
  5  6  1  0
  6  7  1  0
  7  8  2  0
  8  9  1  0
  9 10  2  0
 10 11  1  0
 10 12  1  0
 12 13  2  0
 13 14  1  0
  2 15  1  0
 15 16  1  0
 16 17  2  0
 17 18  1  0
 18 19  2  0
 19 20  1  0
 20 21  2  0
 21 22  1  0
 22 23  1  0
 23 24  1  0
 23 25  1  0
 23 26  1  0
 22 27  2  0
 13  7  1  0
 27 18  1  0
  3 28  1  0
  3 29  1  0
  4 30  1  0
  4 31  1  0
  5 32  1  0
  5 33  1  0
  8 34  1  0
  9 35  1  0
 12 36  1  0
 15 37  1  0
 17 38  1  0
 19 39  1  0
 20 40  1  0
 21 41  1  0
 27 42  1  0
M  END
>  <smiles>  (39) 
O=C(CCCOc1ccc(Cl)cc1Cl)NN=Cc1cccc(C(F)(F)F)c1

>  <score_type>  (39) 
oracle

>  <origin>  (39) 
autodockgpu

>  <m_score__min__energy>  (39) 
-7.5199999999999996

>  <m_primary>  (39) 
energy

>  <rmsd>  (39) 
6.117425718370092

>  <m_score__min__rmsd>  (39) 
6.117425718370092

>  <meeko>  (39) 
{"free_energy": -7.38, "intermolecular_energy": -10.06, "internal_energy": -0.72, "cluster_size": 15, "cluster_id": 1, "rank_in_cluster": 3}

>  <energy>  (39) 
-5.6

>  <cluster_rmsd>  (39) 
1.38

>  <cluster>  (39) 
8

$$$$

     RDKit          3D

 42 43  0  0  1  0  0  0  0  0999 V2000
  139.1300   75.6050  221.6210 O   0  0  0  0  0  0  0  0  0  0  0  0
  140.3270   75.2110  221.4890 C   0  0  0  0  0  0  0  0  0  0  0  0
  141.2450   76.1650  220.7810 C   0  0  0  0  0  0  0  0  0  0  0  0
  141.9060   75.3560  219.6590 C   0  0  0  0  0  0  0  0  0  0  0  0
  143.3110   74.9490  220.0580 C   0  0  0  0  0  0  0  0  0  0  0  0
  143.3050   73.7880  220.8640 O   0  0  0  0  0  0  0  0  0  0  0  0
  143.8530   72.6060  220.3300 C   0  0  0  0  0  0  0  0  0  0  0  0
  143.0440   71.5560  219.9210 C   0  0  0  0  0  0  0  0  0  0  0  0
  143.5420   70.3850  219.3950 C   0  0  0  0  0  0  0  0  0  0  0  0
  144.9230   70.2620  219.2720 C   0  0  0  0  0  0  0  0  0  0  0  0
  145.5180   68.7600  218.5980 Cl  0  0  0  0  0  0  0  0  0  0  0  0
  145.7620   71.2870  219.6690 C   0  0  0  0  0  0  0  0  0  0  0  0
  145.2310   72.4600  220.1980 C   0  0  0  0  0  0  0  0  0  0  0  0
  146.3140   73.7450  220.6950 Cl  0  0  0  0  0  0  0  0  0  0  0  0
  140.7870   73.9700  221.9610 N   0  0  0  0  0  0  0  0  0  0  0  0
  139.9810   73.0340  222.6300 N   0  0  0  0  0  0  0  0  0  0  0  0
  140.4050   71.8060  222.7770 C   0  0  0  0  0  0  0  0  0  0  0  0
  140.2530   71.1010  224.0630 C   0  0  0  0  0  0  0  0  0  0  0  0
  139.6900   69.8420  224.1370 C   0  0  0  0  0  0  0  0  0  0  0  0
  139.5510   69.1850  225.3530 C   0  0  0  0  0  0  0  0  0  0  0  0
  139.9830   69.8020  226.5170 C   0  0  0  0  0  0  0  0  0  0  0  0
  140.5540   71.0750  226.4550 C   0  0  0  0  0  0  0  0  0  0  0  0
  141.0140   71.7220  227.7240 C   0  0  0  0  0  0  0  0  0  0  0  0
  141.9840   72.6510  227.4640 F   0  0  0  0  0  0  0  0  0  0  0  0
  139.9380   72.2360  228.3900 F   0  0  0  0  0  0  0  0  0  0  0  0
  141.5150   70.6590  228.4870 F   0  0  0  0  0  0  0  0  0  0  0  0
  140.6820   71.7110  225.2240 C   0  0  0  0  0  0  0  0  0  0  0  0
  140.6734   77.0058  220.3611 H   0  0  0  0  0  0  0  0  0  0  0  0
  141.9924   76.5908  221.4666 H   0  0  0  0  0  0  0  0  0  0  0  0
  141.3090   74.4531  219.4630 H   0  0  0  0  0  0  0  0  0  0  0  0
  141.9584   75.9784  218.7535 H   0  0  0  0  0  0  0  0  0  0  0  0
  143.8972   74.7498  219.1488 H   0  0  0  0  0  0  0  0  0  0  0  0
  143.7562   75.7701  220.6390 H   0  0  0  0  0  0  0  0  0  0  0  0
  141.9539   71.6639  220.0216 H   0  0  0  0  0  0  0  0  0  0  0  0
  142.8698   69.5725  219.0819 H   0  0  0  0  0  0  0  0  0  0  0  0
  146.8515   71.1752  219.5666 H   0  0  0  0  0  0  0  0  0  0  0  0
  141.7980   73.6660  221.8340 H   0  0  0  0  0  0  0  0  0  0  0  0
  140.8817   71.2917  221.9295 H   0  0  0  0  0  0  0  0  0  0  0  0
  139.3451   69.3502  223.2155 H   0  0  0  0  0  0  0  0  0  0  0  0
  139.1012   68.1819  225.3921 H   0  0  0  0  0  0  0  0  0  0  0  0
  139.8765   69.2910  227.4853 H   0  0  0  0  0  0  0  0  0  0  0  0
  141.1314   72.7139  225.1757 H   0  0  0  0  0  0  0  0  0  0  0  0
  1  2  2  0
  2  3  1  0
  3  4  1  0
  4  5  1  0
  5  6  1  0
  6  7  1  0
  7  8  2  0
  8  9  1  0
  9 10  2  0
 10 11  1  0
 10 12  1  0
 12 13  2  0
 13 14  1  0
  2 15  1  0
 15 16  1  0
 16 17  2  0
 17 18  1  0
 18 19  2  0
 19 20  1  0
 20 21  2  0
 21 22  1  0
 22 23  1  0
 23 24  1  0
 23 25  1  0
 23 26  1  0
 22 27  2  0
 13  7  1  0
 27 18  1  0
  3 28  1  0
  3 29  1  0
  4 30  1  0
  4 31  1  0
  5 32  1  0
  5 33  1  0
  8 34  1  0
  9 35  1  0
 12 36  1  0
 15 37  1  0
 17 38  1  0
 19 39  1  0
 20 40  1  0
 21 41  1  0
 27 42  1  0
M  END
>  <smiles>  (40) 
O=C(CCCOc1ccc(Cl)cc1Cl)NN=Cc1cccc(C(F)(F)F)c1

>  <score_type>  (40) 
oracle

>  <origin>  (40) 
autodockgpu

>  <m_score__min__energy>  (40) 
-7.5199999999999996

>  <m_primary>  (40) 
energy

>  <rmsd>  (40) 
11.132180090750468

>  <m_score__min__rmsd>  (40) 
11.132180090750468

>  <meeko>  (40) 
{"free_energy": -6.23, "intermolecular_energy": -8.91, "internal_energy": -1.8, "cluster_size": 3, "cluster_id": 5, "rank_in_cluster": 1}

>  <energy>  (40) 
-5.59

>  <cluster_rmsd>  (40) 
1.54

>  <cluster>  (40) 
8

$$$$

     RDKit          3D

 42 43  0  0  1  0  0  0  0  0999 V2000
  139.6020   73.7800  219.7460 O   0  0  0  0  0  0  0  0  0  0  0  0
  139.1940   73.3270  220.8560 C   0  0  0  0  0  0  0  0  0  0  0  0
  138.9900   71.8400  220.9100 C   0  0  0  0  0  0  0  0  0  0  0  0
  140.3270   71.2510  221.3760 C   0  0  0  0  0  0  0  0  0  0  0  0
  140.8700   72.0380  222.5530 C   0  0  0  0  0  0  0  0  0  0  0  0
  139.9120   72.1520  223.5860 O   0  0  0  0  0  0  0  0  0  0  0  0
  140.0210   71.2880  224.6920 C   0  0  0  0  0  0  0  0  0  0  0  0
  140.9370   71.5280  225.7070 C   0  0  0  0  0  0  0  0  0  0  0  0
  141.0730   70.7060  226.8040 C   0  0  0  0  0  0  0  0  0  0  0  0
  140.2500   69.5870  226.8860 C   0  0  0  0  0  0  0  0  0  0  0  0
  140.4530   68.5680  228.2940 Cl  0  0  0  0  0  0  0  0  0  0  0  0
  139.3270   69.3150  225.8940 C   0  0  0  0  0  0  0  0  0  0  0  0
  139.2090   70.1630  224.7960 C   0  0  0  0  0  0  0  0  0  0  0  0
  138.0320   69.7970  223.5510 Cl  0  0  0  0  0  0  0  0  0  0  0  0
  138.9400   74.1390  221.9750 N   0  0  0  0  0  0  0  0  0  0  0  0
  139.1100   75.5330  221.9900 N   0  0  0  0  0  0  0  0  0  0  0  0
  140.2870   76.0370  222.2510 C   0  0  0  0  0  0  0  0  0  0  0  0
  141.3640   76.0090  221.2440 C   0  0  0  0  0  0  0  0  0  0  0  0
  141.5760   77.0650  220.3800 C   0  0  0  0  0  0  0  0  0  0  0  0
  142.5930   77.0300  219.4340 C   0  0  0  0  0  0  0  0  0  0  0  0
  143.4130   75.9150  219.3520 C   0  0  0  0  0  0  0  0  0  0  0  0
  143.2080   74.8400  220.2200 C   0  0  0  0  0  0  0  0  0  0  0  0
  144.1050   73.6460  220.1150 C   0  0  0  0  0  0  0  0  0  0  0  0
  144.2720   73.2870  218.8050 F   0  0  0  0  0  0  0  0  0  0  0  0
  145.2820   73.9030  220.7590 F   0  0  0  0  0  0  0  0  0  0  0  0
  143.4360   72.6500  220.8380 F   0  0  0  0  0  0  0  0  0  0  0  0
  142.1820   74.9000  221.1590 C   0  0  0  0  0  0  0  0  0  0  0  0
  138.1914   71.5887  221.6235 H   0  0  0  0  0  0  0  0  0  0  0  0
  138.6894   71.4370  219.9316 H   0  0  0  0  0  0  0  0  0  0  0  0
  140.1761   70.2043  221.6786 H   0  0  0  0  0  0  0  0  0  0  0  0
  141.0486   71.3048  220.5475 H   0  0  0  0  0  0  0  0  0  0  0  0
  141.7601   71.5249  222.9460 H   0  0  0  0  0  0  0  0  0  0  0  0
  141.1235   73.0499  222.2041 H   0  0  0  0  0  0  0  0  0  0  0  0
  141.5836   72.4147  225.6319 H   0  0  0  0  0  0  0  0  0  0  0  0
  141.8093   70.9273  227.5907 H   0  0  0  0  0  0  0  0  0  0  0  0
  138.6838   68.4261  225.9721 H   0  0  0  0  0  0  0  0  0  0  0  0
  138.5970   73.7300  222.8930 H   0  0  0  0  0  0  0  0  0  0  0  0
  140.4772   76.4886  223.2358 H   0  0  0  0  0  0  0  0  0  0  0  0
  140.9272   77.9511  220.4419 H   0  0  0  0  0  0  0  0  0  0  0  0
  142.7466   77.8813  218.7546 H   0  0  0  0  0  0  0  0  0  0  0  0
  144.2213   75.8771  218.6068 H   0  0  0  0  0  0  0  0  0  0  0  0
  142.0209   74.0529  221.8420 H   0  0  0  0  0  0  0  0  0  0  0  0
  1  2  2  0
  2  3  1  0
  3  4  1  0
  4  5  1  0
  5  6  1  0
  6  7  1  0
  7  8  2  0
  8  9  1  0
  9 10  2  0
 10 11  1  0
 10 12  1  0
 12 13  2  0
 13 14  1  0
  2 15  1  0
 15 16  1  0
 16 17  2  0
 17 18  1  0
 18 19  2  0
 19 20  1  0
 20 21  2  0
 21 22  1  0
 22 23  1  0
 23 24  1  0
 23 25  1  0
 23 26  1  0
 22 27  2  0
 13  7  1  0
 27 18  1  0
  3 28  1  0
  3 29  1  0
  4 30  1  0
  4 31  1  0
  5 32  1  0
  5 33  1  0
  8 34  1  0
  9 35  1  0
 12 36  1  0
 15 37  1  0
 17 38  1  0
 19 39  1  0
 20 40  1  0
 21 41  1  0
 27 42  1  0
M  END
>  <smiles>  (41) 
O=C(CCCOc1ccc(Cl)cc1Cl)NN=Cc1cccc(C(F)(F)F)c1

>  <score_type>  (41) 
oracle

>  <origin>  (41) 
autodockgpu

>  <m_score__min__energy>  (41) 
-7.5199999999999996

>  <m_primary>  (41) 
energy

>  <rmsd>  (41) 
12.411690800678109

>  <m_score__min__rmsd>  (41) 
12.411690800678109

>  <meeko>  (41) 
{"free_energy": -5.66, "intermolecular_energy": -8.34, "internal_energy": -2.23, "cluster_size": 2, "cluster_id": 10, "rank_in_cluster": 2}

>  <energy>  (41) 
-5.58

>  <cluster_rmsd>  (41) 
1.58

>  <cluster>  (41) 
8

$$$$

     RDKit          3D

 42 43  0  0  1  0  0  0  0  0999 V2000
  135.8170   71.7370  222.5940 O   0  0  0  0  0  0  0  0  0  0  0  0
  136.5920   72.7320  222.7110 C   0  0  0  0  0  0  0  0  0  0  0  0
  135.9120   74.0610  222.8800 C   0  0  0  0  0  0  0  0  0  0  0  0
  135.7690   74.6410  221.4680 C   0  0  0  0  0  0  0  0  0  0  0  0
  136.9810   75.4790  221.1150 C   0  0  0  0  0  0  0  0  0  0  0  0
  138.0160   75.3200  222.0660 O   0  0  0  0  0  0  0  0  0  0  0  0
  138.8680   76.4140  222.3110 C   0  0  0  0  0  0  0  0  0  0  0  0
  138.3700   77.6290  222.7600 C   0  0  0  0  0  0  0  0  0  0  0  0
  139.1710   78.7210  223.0090 C   0  0  0  0  0  0  0  0  0  0  0  0
  140.5400   78.5880  222.7980 C   0  0  0  0  0  0  0  0  0  0  0  0
  141.5240   79.9970  223.1270 Cl  0  0  0  0  0  0  0  0  0  0  0  0
  141.0720   77.3930  222.3510 C   0  0  0  0  0  0  0  0  0  0  0  0
  140.2400   76.3040  222.1060 C   0  0  0  0  0  0  0  0  0  0  0  0
  140.9380   74.8000  221.5380 Cl  0  0  0  0  0  0  0  0  0  0  0  0
  137.9930   72.6270  222.6860 N   0  0  0  0  0  0  0  0  0  0  0  0
  138.6890   71.4170  222.5320 N   0  0  0  0  0  0  0  0  0  0  0  0
  139.8410   71.2550  223.1270 C   0  0  0  0  0  0  0  0  0  0  0  0
  139.9180   70.6970  224.4900 C   0  0  0  0  0  0  0  0  0  0  0  0
  139.5250   69.4030  224.7670 C   0  0  0  0  0  0  0  0  0  0  0  0
  139.6020   68.8860  226.0540 C   0  0  0  0  0  0  0  0  0  0  0  0
  140.0790   69.6810  227.0840 C   0  0  0  0  0  0  0  0  0  0  0  0
  140.4790   70.9930  226.8160 C   0  0  0  0  0  0  0  0  0  0  0  0
  140.9920   71.8340  227.9430 C   0  0  0  0  0  0  0  0  0  0  0  0
  141.7450   72.8710  227.4630 F   0  0  0  0  0  0  0  0  0  0  0  0
  139.9450   72.2420  228.7210 F   0  0  0  0  0  0  0  0  0  0  0  0
  141.7650   70.9500  228.7060 F   0  0  0  0  0  0  0  0  0  0  0  0
  140.3930   71.4860  225.5180 C   0  0  0  0  0  0  0  0  0  0  0  0
  134.9223   73.9287  223.3416 H   0  0  0  0  0  0  0  0  0  0  0  0
  136.4890   74.7300  223.5354 H   0  0  0  0  0  0  0  0  0  0  0  0
  135.6755   73.8168  220.7455 H   0  0  0  0  0  0  0  0  0  0  0  0
  134.8729   75.2780  221.4334 H   0  0  0  0  0  0  0  0  0  0  0  0
  137.3531   75.1708  220.1268 H   0  0  0  0  0  0  0  0  0  0  0  0
  136.6789   76.5367  221.1073 H   0  0  0  0  0  0  0  0  0  0  0  0
  137.2865   77.7240  222.9244 H   0  0  0  0  0  0  0  0  0  0  0  0
  138.7418   79.6696  223.3639 H   0  0  0  0  0  0  0  0  0  0  0  0
  142.1561   77.3022  222.1884 H   0  0  0  0  0  0  0  0  0  0  0  0
  138.6170   73.4820  222.7860 H   0  0  0  0  0  0  0  0  0  0  0  0
  140.7662   71.5387  222.6040 H   0  0  0  0  0  0  0  0  0  0  0  0
  139.1435   68.7691  223.9529 H   0  0  0  0  0  0  0  0  0  0  0  0
  139.2862   67.8515  226.2544 H   0  0  0  0  0  0  0  0  0  0  0  0
  140.1424   69.2816  228.1069 H   0  0  0  0  0  0  0  0  0  0  0  0
  140.7079   72.5188  225.3081 H   0  0  0  0  0  0  0  0  0  0  0  0
  1  2  2  0
  2  3  1  0
  3  4  1  0
  4  5  1  0
  5  6  1  0
  6  7  1  0
  7  8  2  0
  8  9  1  0
  9 10  2  0
 10 11  1  0
 10 12  1  0
 12 13  2  0
 13 14  1  0
  2 15  1  0
 15 16  1  0
 16 17  2  0
 17 18  1  0
 18 19  2  0
 19 20  1  0
 20 21  2  0
 21 22  1  0
 22 23  1  0
 23 24  1  0
 23 25  1  0
 23 26  1  0
 22 27  2  0
 13  7  1  0
 27 18  1  0
  3 28  1  0
  3 29  1  0
  4 30  1  0
  4 31  1  0
  5 32  1  0
  5 33  1  0
  8 34  1  0
  9 35  1  0
 12 36  1  0
 15 37  1  0
 17 38  1  0
 19 39  1  0
 20 40  1  0
 21 41  1  0
 27 42  1  0
M  END
>  <smiles>  (42) 
O=C(CCCOc1ccc(Cl)cc1Cl)NN=Cc1cccc(C(F)(F)F)c1

>  <score_type>  (42) 
oracle

>  <origin>  (42) 
autodockgpu

>  <m_score__min__energy>  (42) 
-7.5199999999999996

>  <m_primary>  (42) 
energy

>  <rmsd>  (42) 
6.476177075325096

>  <m_score__min__rmsd>  (42) 
6.476177075325096

>  <meeko>  (42) 
{"free_energy": -6.03, "intermolecular_energy": -8.72, "internal_energy": -1.87, "cluster_size": 1, "cluster_id": 6, "rank_in_cluster": 1}

>  <energy>  (42) 
-5.49

>  <cluster_rmsd>  (42) 
1.34

>  <cluster>  (42) 
8

$$$$

     RDKit          3D

 42 43  0  0  1  0  0  0  0  0999 V2000
  140.7630   75.4610  221.5010 O   0  0  0  0  0  0  0  0  0  0  0  0
  139.6160   75.0080  221.7900 C   0  0  0  0  0  0  0  0  0  0  0  0
  138.4650   75.9200  221.4770 C   0  0  0  0  0  0  0  0  0  0  0  0
  137.9210   76.3880  222.8320 C   0  0  0  0  0  0  0  0  0  0  0  0
  136.5400   75.8120  223.0740 C   0  0  0  0  0  0  0  0  0  0  0  0
  136.5250   74.4090  222.8980 O   0  0  0  0  0  0  0  0  0  0  0  0
  135.7910   73.6320  223.8150 C   0  0  0  0  0  0  0  0  0  0  0  0
  135.0380   74.2220  224.8190 C   0  0  0  0  0  0  0  0  0  0  0  0
  134.3080   73.4970  225.7340 C   0  0  0  0  0  0  0  0  0  0  0  0
  134.3340   72.1090  225.6360 C   0  0  0  0  0  0  0  0  0  0  0  0
  133.3930   71.2220  226.8150 Cl  0  0  0  0  0  0  0  0  0  0  0  0
  135.0730   71.4850  224.6470 C   0  0  0  0  0  0  0  0  0  0  0  0
  135.8030   72.2430  223.7350 C   0  0  0  0  0  0  0  0  0  0  0  0
  136.7320   71.4290  222.4930 Cl  0  0  0  0  0  0  0  0  0  0  0  0
  139.4080   73.7420  222.3650 N   0  0  0  0  0  0  0  0  0  0  0  0
  140.4390   72.8420  222.6810 N   0  0  0  0  0  0  0  0  0  0  0  0
  140.1670   71.5710  222.8130 C   0  0  0  0  0  0  0  0  0  0  0  0
  139.9540   70.9760  224.1450 C   0  0  0  0  0  0  0  0  0  0  0  0
  139.1630   69.8580  224.3220 C   0  0  0  0  0  0  0  0  0  0  0  0
  138.9670   69.3040  225.5810 C   0  0  0  0  0  0  0  0  0  0  0  0
  139.5760   69.8820  226.6840 C   0  0  0  0  0  0  0  0  0  0  0  0
  140.3790   71.0130  226.5180 C   0  0  0  0  0  0  0  0  0  0  0  0
  141.0260   71.6210  227.7230 C   0  0  0  0  0  0  0  0  0  0  0  0
  141.6310   70.6550  228.4800 F   0  0  0  0  0  0  0  0  0  0  0  0
  141.8800   72.6120  227.3300 F   0  0  0  0  0  0  0  0  0  0  0  0
  139.9680   72.2240  228.4140 F   0  0  0  0  0  0  0  0  0  0  0  0
  140.5580   71.5480  225.2470 C   0  0  0  0  0  0  0  0  0  0  0  0
  138.8086   76.7807  220.8845 H   0  0  0  0  0  0  0  0  0  0  0  0
  137.6918   75.4072  220.8861 H   0  0  0  0  0  0  0  0  0  0  0  0
  138.5989   76.0520  223.6304 H   0  0  0  0  0  0  0  0  0  0  0  0
  137.8545   77.4860  222.8300 H   0  0  0  0  0  0  0  0  0  0  0  0
  136.2304   76.0464  224.1032 H   0  0  0  0  0  0  0  0  0  0  0  0
  135.8475   76.2585  222.3452 H   0  0  0  0  0  0  0  0  0  0  0  0
  135.0232   75.3198  224.8875 H   0  0  0  0  0  0  0  0  0  0  0  0
  133.7224   73.9993  226.5181 H   0  0  0  0  0  0  0  0  0  0  0  0
  135.0840   70.3871  224.5808 H   0  0  0  0  0  0  0  0  0  0  0  0
  138.4320   73.3900  222.5970 H   0  0  0  0  0  0  0  0  0  0  0  0
  140.0959   70.9358  221.9177 H   0  0  0  0  0  0  0  0  0  0  0  0
  138.6784   69.3968  223.4488 H   0  0  0  0  0  0  0  0  0  0  0  0
  138.3331   68.4131  225.7016 H   0  0  0  0  0  0  0  0  0  0  0  0
  139.4276   69.4520  227.6855 H   0  0  0  0  0  0  0  0  0  0  0  0
  141.1896   72.4393  225.1177 H   0  0  0  0  0  0  0  0  0  0  0  0
  1  2  2  0
  2  3  1  0
  3  4  1  0
  4  5  1  0
  5  6  1  0
  6  7  1  0
  7  8  2  0
  8  9  1  0
  9 10  2  0
 10 11  1  0
 10 12  1  0
 12 13  2  0
 13 14  1  0
  2 15  1  0
 15 16  1  0
 16 17  2  0
 17 18  1  0
 18 19  2  0
 19 20  1  0
 20 21  2  0
 21 22  1  0
 22 23  1  0
 23 24  1  0
 23 25  1  0
 23 26  1  0
 22 27  2  0
 13  7  1  0
 27 18  1  0
  3 28  1  0
  3 29  1  0
  4 30  1  0
  4 31  1  0
  5 32  1  0
  5 33  1  0
  8 34  1  0
  9 35  1  0
 12 36  1  0
 15 37  1  0
 17 38  1  0
 19 39  1  0
 20 40  1  0
 21 41  1  0
 27 42  1  0
M  END
>  <smiles>  (43) 
O=C(CCCOc1ccc(Cl)cc1Cl)NN=Cc1cccc(C(F)(F)F)c1

>  <score_type>  (43) 
oracle

>  <origin>  (43) 
autodockgpu

>  <m_score__min__energy>  (43) 
-7.5199999999999996

>  <m_primary>  (43) 
energy

>  <rmsd>  (43) 
10.528525829083799

>  <m_score__min__rmsd>  (43) 
10.528525829083799

>  <meeko>  (43) 
{"free_energy": -5.81, "intermolecular_energy": -8.49, "internal_energy": -2.3, "cluster_size": 9, "cluster_id": 8, "rank_in_cluster": 3}

>  <energy>  (43) 
-5.75

>  <cluster_rmsd>  (43) 
0.0

>  <cluster>  (43) 
9

$$$$

     RDKit          3D

 42 43  0  0  1  0  0  0  0  0999 V2000
  140.2330   74.7150  219.7330 O   0  0  0  0  0  0  0  0  0  0  0  0
  140.0280   73.9120  220.6920 C   0  0  0  0  0  0  0  0  0  0  0  0
  140.2230   72.4590  220.3670 C   0  0  0  0  0  0  0  0  0  0  0  0
  139.3940   71.6850  221.4000 C   0  0  0  0  0  0  0  0  0  0  0  0
  140.2650   71.2590  222.5650 C   0  0  0  0  0  0  0  0  0  0  0  0
  139.7640   71.7480  223.7930 O   0  0  0  0  0  0  0  0  0  0  0  0
  139.9680   70.9710  224.9500 C   0  0  0  0  0  0  0  0  0  0  0  0
  140.8600   71.3670  225.9370 C   0  0  0  0  0  0  0  0  0  0  0  0
  141.0860   70.6350  227.0800 C   0  0  0  0  0  0  0  0  0  0  0  0
  140.3830   69.4450  227.2430 C   0  0  0  0  0  0  0  0  0  0  0  0
  140.6980   68.5430  228.7090 Cl  0  0  0  0  0  0  0  0  0  0  0  0
  139.4860   69.0180  226.2810 C   0  0  0  0  0  0  0  0  0  0  0  0
  139.2760   69.7780  225.1330 C   0  0  0  0  0  0  0  0  0  0  0  0
  138.1350   69.2150  223.9280 Cl  0  0  0  0  0  0  0  0  0  0  0  0
  139.6430   74.3280  221.9780 N   0  0  0  0  0  0  0  0  0  0  0  0
  139.4450   75.6690  222.3460 N   0  0  0  0  0  0  0  0  0  0  0  0
  140.4610   76.4920  222.3560 C   0  0  0  0  0  0  0  0  0  0  0  0
  140.2900   77.9010  222.7530 C   0  0  0  0  0  0  0  0  0  0  0  0
  139.0490   78.4230  223.0590 C   0  0  0  0  0  0  0  0  0  0  0  0
  138.8970   79.7530  223.4320 C   0  0  0  0  0  0  0  0  0  0  0  0
  140.0100   80.5750  223.4990 C   0  0  0  0  0  0  0  0  0  0  0  0
  141.2720   80.0590  223.1910 C   0  0  0  0  0  0  0  0  0  0  0  0
  142.4600   80.9660  223.2700 C   0  0  0  0  0  0  0  0  0  0  0  0
  142.5410   81.5430  224.5070 F   0  0  0  0  0  0  0  0  0  0  0  0
  143.5850   80.2730  222.9220 F   0  0  0  0  0  0  0  0  0  0  0  0
  142.2290   81.9220  222.2730 F   0  0  0  0  0  0  0  0  0  0  0  0
  141.3960   78.7240  222.8200 C   0  0  0  0  0  0  0  0  0  0  0  0
  139.8658   72.2428  219.3494 H   0  0  0  0  0  0  0  0  0  0  0  0
  141.2849   72.1746  220.4047 H   0  0  0  0  0  0  0  0  0  0  0  0
  138.5832   72.3295  221.7704 H   0  0  0  0  0  0  0  0  0  0  0  0
  138.9750   70.7877  220.9211 H   0  0  0  0  0  0  0  0  0  0  0  0
  140.2969   70.1602  222.6043 H   0  0  0  0  0  0  0  0  0  0  0  0
  141.2719   71.6751  222.4131 H   0  0  0  0  0  0  0  0  0  0  0  0
  141.4113   72.3088  225.7992 H   0  0  0  0  0  0  0  0  0  0  0  0
  141.8006   70.9799  227.8418 H   0  0  0  0  0  0  0  0  0  0  0  0
  138.9368   68.0755  226.4229 H   0  0  0  0  0  0  0  0  0  0  0  0
  139.4780   73.6290  222.7620 H   0  0  0  0  0  0  0  0  0  0  0  0
  141.4570   76.1277  222.0641 H   0  0  0  0  0  0  0  0  0  0  0  0
  138.1630   77.7732  223.0065 H   0  0  0  0  0  0  0  0  0  0  0  0
  137.8998   80.1503  223.6724 H   0  0  0  0  0  0  0  0  0  0  0  0
  139.9011   81.6293  223.7933 H   0  0  0  0  0  0  0  0  0  0  0  0
  142.3892   78.3187  222.5767 H   0  0  0  0  0  0  0  0  0  0  0  0
  1  2  2  0
  2  3  1  0
  3  4  1  0
  4  5  1  0
  5  6  1  0
  6  7  1  0
  7  8  2  0
  8  9  1  0
  9 10  2  0
 10 11  1  0
 10 12  1  0
 12 13  2  0
 13 14  1  0
  2 15  1  0
 15 16  1  0
 16 17  2  0
 17 18  1  0
 18 19  2  0
 19 20  1  0
 20 21  2  0
 21 22  1  0
 22 23  1  0
 23 24  1  0
 23 25  1  0
 23 26  1  0
 22 27  2  0
 13  7  1  0
 27 18  1  0
  3 28  1  0
  3 29  1  0
  4 30  1  0
  4 31  1  0
  5 32  1  0
  5 33  1  0
  8 34  1  0
  9 35  1  0
 12 36  1  0
 15 37  1  0
 17 38  1  0
 19 39  1  0
 20 40  1  0
 21 41  1  0
 27 42  1  0
M  END
>  <smiles>  (44) 
O=C(CCCOc1ccc(Cl)cc1Cl)NN=Cc1cccc(C(F)(F)F)c1

>  <score_type>  (44) 
oracle

>  <origin>  (44) 
autodockgpu

>  <m_score__min__energy>  (44) 
-7.5199999999999996

>  <m_primary>  (44) 
energy

>  <rmsd>  (44) 
12.89632742145994

>  <m_score__min__rmsd>  (44) 
12.89632742145994

>  <meeko>  (44) 
{"free_energy": -6.72, "intermolecular_energy": -9.4, "internal_energy": -1.37, "cluster_size": 6, "cluster_id": 2, "rank_in_cluster": 3}

>  <energy>  (44) 
-5.69

>  <cluster_rmsd>  (44) 
0.0

>  <cluster>  (44) 
10

$$$$

     RDKit          3D

 42 43  0  0  1  0  0  0  0  0999 V2000
  138.8740   73.9080  219.7470 O   0  0  0  0  0  0  0  0  0  0  0  0
  138.9500   73.4800  220.9370 C   0  0  0  0  0  0  0  0  0  0  0  0
  138.8570   71.9890  221.0920 C   0  0  0  0  0  0  0  0  0  0  0  0
  140.3030   71.4840  221.1670 C   0  0  0  0  0  0  0  0  0  0  0  0
  140.9320   71.8800  222.4880 C   0  0  0  0  0  0  0  0  0  0  0  0
  139.9640   71.9800  223.5150 O   0  0  0  0  0  0  0  0  0  0  0  0
  140.1110   71.1570  224.6480 C   0  0  0  0  0  0  0  0  0  0  0  0
  140.9150   71.5340  225.7140 C   0  0  0  0  0  0  0  0  0  0  0  0
  141.0830   70.7570  226.8380 C   0  0  0  0  0  0  0  0  0  0  0  0
  140.4100   69.5400  226.8960 C   0  0  0  0  0  0  0  0  0  0  0  0
  140.6480   68.5810  228.3410 Cl  0  0  0  0  0  0  0  0  0  0  0  0
  139.5990   69.1310  225.8530 C   0  0  0  0  0  0  0  0  0  0  0  0
  139.4470   69.9360  224.7280 C   0  0  0  0  0  0  0  0  0  0  0  0
  138.4150   69.3960  223.4190 Cl  0  0  0  0  0  0  0  0  0  0  0  0
  139.1100   74.3200  222.0520 N   0  0  0  0  0  0  0  0  0  0  0  0
  139.2040   75.7200  221.9760 N   0  0  0  0  0  0  0  0  0  0  0  0
  140.3670   76.2970  222.1270 C   0  0  0  0  0  0  0  0  0  0  0  0
  141.4420   76.1070  221.1360 C   0  0  0  0  0  0  0  0  0  0  0  0
  141.7600   77.0850  220.2140 C   0  0  0  0  0  0  0  0  0  0  0  0
  142.7750   76.8970  219.2840 C   0  0  0  0  0  0  0  0  0  0  0  0
  143.4840   75.7060  219.2770 C   0  0  0  0  0  0  0  0  0  0  0  0
  143.1720   74.7090  220.2040 C   0  0  0  0  0  0  0  0  0  0  0  0
  143.9510   73.4310  220.1790 C   0  0  0  0  0  0  0  0  0  0  0  0
  143.2540   72.4330  220.8030 F   0  0  0  0  0  0  0  0  0  0  0  0
  144.2900   73.1300  218.8900 F   0  0  0  0  0  0  0  0  0  0  0  0
  145.1320   73.7370  220.8660 F   0  0  0  0  0  0  0  0  0  0  0  0
  142.1510   74.9230  221.1250 C   0  0  0  0  0  0  0  0  0  0  0  0
  138.3139   71.7331  222.0137 H   0  0  0  0  0  0  0  0  0  0  0  0
  138.3111   71.5289  220.2551 H   0  0  0  0  0  0  0  0  0  0  0  0
  140.3094   70.3878  221.0765 H   0  0  0  0  0  0  0  0  0  0  0  0
  140.8815   71.9339  220.3467 H   0  0  0  0  0  0  0  0  0  0  0  0
  141.6761   71.1210  222.7711 H   0  0  0  0  0  0  0  0  0  0  0  0
  141.4049   72.8652  222.3630 H   0  0  0  0  0  0  0  0  0  0  0  0
  141.4423   72.4978  225.6586 H   0  0  0  0  0  0  0  0  0  0  0  0
  141.7290   71.0877  227.6646 H   0  0  0  0  0  0  0  0  0  0  0  0
  139.0727   68.1669  225.9128 H   0  0  0  0  0  0  0  0  0  0  0  0
  139.1700   73.9310  223.0390 H   0  0  0  0  0  0  0  0  0  0  0  0
  140.5463   76.9335  223.0060 H   0  0  0  0  0  0  0  0  0  0  0  0
  141.1988   78.0311  220.2160 H   0  0  0  0  0  0  0  0  0  0  0  0
  143.0143   77.6881  218.5581 H   0  0  0  0  0  0  0  0  0  0  0  0
  144.2890   75.5467  218.5444 H   0  0  0  0  0  0  0  0  0  0  0  0
  141.9055   74.1373  221.8546 H   0  0  0  0  0  0  0  0  0  0  0  0
  1  2  2  0
  2  3  1  0
  3  4  1  0
  4  5  1  0
  5  6  1  0
  6  7  1  0
  7  8  2  0
  8  9  1  0
  9 10  2  0
 10 11  1  0
 10 12  1  0
 12 13  2  0
 13 14  1  0
  2 15  1  0
 15 16  1  0
 16 17  2  0
 17 18  1  0
 18 19  2  0
 19 20  1  0
 20 21  2  0
 21 22  1  0
 22 23  1  0
 23 24  1  0
 23 25  1  0
 23 26  1  0
 22 27  2  0
 13  7  1  0
 27 18  1  0
  3 28  1  0
  3 29  1  0
  4 30  1  0
  4 31  1  0
  5 32  1  0
  5 33  1  0
  8 34  1  0
  9 35  1  0
 12 36  1  0
 15 37  1  0
 17 38  1  0
 19 39  1  0
 20 40  1  0
 21 41  1  0
 27 42  1  0
M  END
>  <smiles>  (45) 
O=C(CCCOc1ccc(Cl)cc1Cl)NN=Cc1cccc(C(F)(F)F)c1

>  <score_type>  (45) 
oracle

>  <origin>  (45) 
autodockgpu

>  <m_score__min__energy>  (45) 
-7.5199999999999996

>  <m_primary>  (45) 
energy

>  <rmsd>  (45) 
12.513561025452002

>  <m_score__min__rmsd>  (45) 
12.513561025452002

>  <meeko>  (45) 
{"free_energy": -5.69, "intermolecular_energy": -8.37, "internal_energy": -2.22, "cluster_size": 2, "cluster_id": 10, "rank_in_cluster": 1}

>  <energy>  (45) 
-5.66

>  <cluster_rmsd>  (45) 
0.3

>  <cluster>  (45) 
10

$$$$

     RDKit          3D

 42 43  0  0  1  0  0  0  0  0999 V2000
  139.2940   74.7790  219.9430 O   0  0  0  0  0  0  0  0  0  0  0  0
  139.3380   74.0300  220.9640 C   0  0  0  0  0  0  0  0  0  0  0  0
  139.2910   72.5560  220.6850 C   0  0  0  0  0  0  0  0  0  0  0  0
  140.7290   72.0510  220.8530 C   0  0  0  0  0  0  0  0  0  0  0  0
  141.0770   71.9280  222.3230 C   0  0  0  0  0  0  0  0  0  0  0  0
  139.9170   71.7920  223.1210 O   0  0  0  0  0  0  0  0  0  0  0  0
  140.0260   71.0950  224.3390 C   0  0  0  0  0  0  0  0  0  0  0  0
  140.8810   71.5280  225.3440 C   0  0  0  0  0  0  0  0  0  0  0  0
  141.0150   70.8730  226.5470 C   0  0  0  0  0  0  0  0  0  0  0  0
  140.2540   69.7270  226.7550 C   0  0  0  0  0  0  0  0  0  0  0  0
  140.4520   68.9240  228.2970 Cl  0  0  0  0  0  0  0  0  0  0  0  0
  139.3920   69.2660  225.7770 C   0  0  0  0  0  0  0  0  0  0  0  0
  139.2750   69.9460  224.5690 C   0  0  0  0  0  0  0  0  0  0  0  0
  138.1760   69.3410  223.3450 Cl  0  0  0  0  0  0  0  0  0  0  0  0
  139.4230   74.5210  222.2780 N   0  0  0  0  0  0  0  0  0  0  0  0
  139.4700   75.8860  222.6070 N   0  0  0  0  0  0  0  0  0  0  0  0
  140.5470   76.5770  222.3380 C   0  0  0  0  0  0  0  0  0  0  0  0
  140.6530   77.9960  222.7260 C   0  0  0  0  0  0  0  0  0  0  0  0
  141.8740   78.6330  222.8200 C   0  0  0  0  0  0  0  0  0  0  0  0
  141.9640   79.9700  223.1850 C   0  0  0  0  0  0  0  0  0  0  0  0
  140.8080   80.6830  223.4620 C   0  0  0  0  0  0  0  0  0  0  0  0
  139.5660   80.0500  223.3700 C   0  0  0  0  0  0  0  0  0  0  0  0
  138.3310   80.8390  223.6730 C   0  0  0  0  0  0  0  0  0  0  0  0
  137.2120   80.1200  223.3500 F   0  0  0  0  0  0  0  0  0  0  0  0
  138.3560   81.2420  224.9780 F   0  0  0  0  0  0  0  0  0  0  0  0
  138.4510   81.9830  222.8750 F   0  0  0  0  0  0  0  0  0  0  0  0
  139.5040   78.7100  223.0020 C   0  0  0  0  0  0  0  0  0  0  0  0
  138.6227   72.0525  221.3990 H   0  0  0  0  0  0  0  0  0  0  0  0
  138.9049   72.3478  219.6763 H   0  0  0  0  0  0  0  0  0  0  0  0
  140.8254   71.0655  220.3739 H   0  0  0  0  0  0  0  0  0  0  0  0
  141.4168   72.7689  220.3822 H   0  0  0  0  0  0  0  0  0  0  0  0
  141.7151   71.0436  222.4664 H   0  0  0  0  0  0  0  0  0  0  0  0
  141.6022   72.8441  222.6310 H   0  0  0  0  0  0  0  0  0  0  0  0
  141.4781   72.4354  225.1707 H   0  0  0  0  0  0  0  0  0  0  0  0
  141.7030   71.2444  227.3207 H   0  0  0  0  0  0  0  0  0  0  0  0
  138.7966   68.3583  225.9548 H   0  0  0  0  0  0  0  0  0  0  0  0
  139.4570   73.8680  223.1160 H   0  0  0  0  0  0  0  0  0  0  0  0
  141.3854   76.0934  221.8152 H   0  0  0  0  0  0  0  0  0  0  0  0
  142.7938   78.0706  222.6015 H   0  0  0  0  0  0  0  0  0  0  0  0
  142.9464   80.4600  223.2538 H   0  0  0  0  0  0  0  0  0  0  0  0
  140.8683   81.7421  223.7529 H   0  0  0  0  0  0  0  0  0  0  0  0
  138.5257   78.2122  222.9299 H   0  0  0  0  0  0  0  0  0  0  0  0
  1  2  2  0
  2  3  1  0
  3  4  1  0
  4  5  1  0
  5  6  1  0
  6  7  1  0
  7  8  2  0
  8  9  1  0
  9 10  2  0
 10 11  1  0
 10 12  1  0
 12 13  2  0
 13 14  1  0
  2 15  1  0
 15 16  1  0
 16 17  2  0
 17 18  1  0
 18 19  2  0
 19 20  1  0
 20 21  2  0
 21 22  1  0
 22 23  1  0
 23 24  1  0
 23 25  1  0
 23 26  1  0
 22 27  2  0
 13  7  1  0
 27 18  1  0
  3 28  1  0
  3 29  1  0
  4 30  1  0
  4 31  1  0
  5 32  1  0
  5 33  1  0
  8 34  1  0
  9 35  1  0
 12 36  1  0
 15 37  1  0
 17 38  1  0
 19 39  1  0
 20 40  1  0
 21 41  1  0
 27 42  1  0
M  END
>  <smiles>  (46) 
O=C(CCCOc1ccc(Cl)cc1Cl)NN=Cc1cccc(C(F)(F)F)c1

>  <score_type>  (46) 
oracle

>  <origin>  (46) 
autodockgpu

>  <m_score__min__energy>  (46) 
-7.5199999999999996

>  <m_primary>  (46) 
energy

>  <rmsd>  (46) 
12.43418055615382

>  <m_score__min__rmsd>  (46) 
12.43418055615382

>  <meeko>  (46) 
{"free_energy": -6.43, "intermolecular_energy": -9.11, "internal_energy": -1.61, "cluster_size": 6, "cluster_id": 2, "rank_in_cluster": 6}

>  <energy>  (46) 
-5.4

>  <cluster_rmsd>  (46) 
0.0

>  <cluster>  (46) 
11

$$$$

     RDKit          3D

 42 43  0  0  1  0  0  0  0  0999 V2000
  140.9830   73.7290  221.9130 O   0  0  0  0  0  0  0  0  0  0  0  0
  139.7470   73.7370  222.1900 C   0  0  0  0  0  0  0  0  0  0  0  0
  139.0330   75.0300  221.9150 C   0  0  0  0  0  0  0  0  0  0  0  0
  138.0100   74.7180  220.8160 C   0  0  0  0  0  0  0  0  0  0  0  0
  136.6160   74.6220  221.4050 C   0  0  0  0  0  0  0  0  0  0  0  0
  136.6030   73.8350  222.5800 O   0  0  0  0  0  0  0  0  0  0  0  0
  135.7650   74.2360  223.6380 C   0  0  0  0  0  0  0  0  0  0  0  0
  135.5170   75.5770  223.8930 C   0  0  0  0  0  0  0  0  0  0  0  0
  134.7040   76.0080  224.9170 C   0  0  0  0  0  0  0  0  0  0  0  0
  134.1100   75.0450  225.7280 C   0  0  0  0  0  0  0  0  0  0  0  0
  133.0840   75.6320  227.0180 Cl  0  0  0  0  0  0  0  0  0  0  0  0
  134.3330   73.6990  225.5040 C   0  0  0  0  0  0  0  0  0  0  0  0
  135.1600   73.2900  224.4610 C   0  0  0  0  0  0  0  0  0  0  0  0
  135.4290   71.5790  224.1990 Cl  0  0  0  0  0  0  0  0  0  0  0  0
  139.0670   72.6270  222.7200 N   0  0  0  0  0  0  0  0  0  0  0  0
  139.6750   71.3920  223.0000 N   0  0  0  0  0  0  0  0  0  0  0  0
  139.0650   70.5340  223.7740 C   0  0  0  0  0  0  0  0  0  0  0  0
  139.6370   70.1500  225.0770 C   0  0  0  0  0  0  0  0  0  0  0  0
  139.8500   68.8280  225.4150 C   0  0  0  0  0  0  0  0  0  0  0  0
  140.3900   68.4750  226.6460 C   0  0  0  0  0  0  0  0  0  0  0  0
  140.7210   69.4660  227.5560 C   0  0  0  0  0  0  0  0  0  0  0  0
  140.5090   70.8070  227.2270 C   0  0  0  0  0  0  0  0  0  0  0  0
  140.8750   71.8610  228.2250 C   0  0  0  0  0  0  0  0  0  0  0  0
  139.7670   72.2700  228.9170 F   0  0  0  0  0  0  0  0  0  0  0  0
  141.8750   71.3970  229.0320 F   0  0  0  0  0  0  0  0  0  0  0  0
  141.4060   72.8990  227.4490 F   0  0  0  0  0  0  0  0  0  0  0  0
  139.9680   71.1340  225.9870 C   0  0  0  0  0  0  0  0  0  0  0  0
  138.5235   75.3865  222.8223 H   0  0  0  0  0  0  0  0  0  0  0  0
  139.7324   75.8200  221.6040 H   0  0  0  0  0  0  0  0  0  0  0  0
  138.0311   75.5194  220.0628 H   0  0  0  0  0  0  0  0  0  0  0  0
  138.2682   73.7555  220.3502 H   0  0  0  0  0  0  0  0  0  0  0  0
  136.2604   75.6340  221.6487 H   0  0  0  0  0  0  0  0  0  0  0  0
  135.9597   74.1446  220.6625 H   0  0  0  0  0  0  0  0  0  0  0  0
  135.9918   76.3305  223.2473 H   0  0  0  0  0  0  0  0  0  0  0  0
  134.5291   77.0803  225.0891 H   0  0  0  0  0  0  0  0  0  0  0  0
  133.8556   72.9489  226.1517 H   0  0  0  0  0  0  0  0  0  0  0  0
  138.0290   72.6650  222.9430 H   0  0  0  0  0  0  0  0  0  0  0  0
  138.1116   70.0922  223.4487 H   0  0  0  0  0  0  0  0  0  0  0  0
  139.5870   68.0386  224.6955 H   0  0  0  0  0  0  0  0  0  0  0  0
  140.5535   67.4163  226.8961 H   0  0  0  0  0  0  0  0  0  0  0  0
  141.1488   69.1980  228.5333 H   0  0  0  0  0  0  0  0  0  0  0  0
  139.8020   72.1903  225.7287 H   0  0  0  0  0  0  0  0  0  0  0  0
  1  2  2  0
  2  3  1  0
  3  4  1  0
  4  5  1  0
  5  6  1  0
  6  7  1  0
  7  8  2  0
  8  9  1  0
  9 10  2  0
 10 11  1  0
 10 12  1  0
 12 13  2  0
 13 14  1  0
  2 15  1  0
 15 16  1  0
 16 17  2  0
 17 18  1  0
 18 19  2  0
 19 20  1  0
 20 21  2  0
 21 22  1  0
 22 23  1  0
 23 24  1  0
 23 25  1  0
 23 26  1  0
 22 27  2  0
 13  7  1  0
 27 18  1  0
  3 28  1  0
  3 29  1  0
  4 30  1  0
  4 31  1  0
  5 32  1  0
  5 33  1  0
  8 34  1  0
  9 35  1  0
 12 36  1  0
 15 37  1  0
 17 38  1  0
 19 39  1  0
 20 40  1  0
 21 41  1  0
 27 42  1  0
M  END
>  <smiles>  (47) 
O=C(CCCOc1ccc(Cl)cc1Cl)NN=Cc1cccc(C(F)(F)F)c1

>  <score_type>  (47) 
oracle

>  <origin>  (47) 
autodockgpu

>  <m_score__min__energy>  (47) 
-7.5199999999999996

>  <m_primary>  (47) 
energy

>  <rmsd>  (47) 
9.861857898701645

>  <m_score__min__rmsd>  (47) 
9.861857898701645

>  <meeko>  (47) 
{"free_energy": -5.87, "intermolecular_energy": -8.56, "internal_energy": -1.98, "cluster_size": 9, "cluster_id": 8, "rank_in_cluster": 1}

>  <energy>  (47) 
-5.34

>  <cluster_rmsd>  (47) 
0.0

>  <cluster>  (47) 
12

$$$$

     RDKit          3D

 42 43  0  0  1  0  0  0  0  0999 V2000
  141.1410   72.5300  221.0540 O   0  0  0  0  0  0  0  0  0  0  0  0
  140.3720   73.3450  221.6450 C   0  0  0  0  0  0  0  0  0  0  0  0
  140.7930   74.7850  221.5880 C   0  0  0  0  0  0  0  0  0  0  0  0
  141.9800   74.8360  220.6180 C   0  0  0  0  0  0  0  0  0  0  0  0
  142.0530   76.1920  219.9440 C   0  0  0  0  0  0  0  0  0  0  0  0
  141.0350   77.0570  220.4080 O   0  0  0  0  0  0  0  0  0  0  0  0
  141.3940   78.0930  221.2910 C   0  0  0  0  0  0  0  0  0  0  0  0
  141.3630   77.9110  222.6660 C   0  0  0  0  0  0  0  0  0  0  0  0
  141.7070   78.9000  223.5610 C   0  0  0  0  0  0  0  0  0  0  0  0
  142.1020   80.1330  223.0510 C   0  0  0  0  0  0  0  0  0  0  0  0
  142.5310   81.3630  224.2200 Cl  0  0  0  0  0  0  0  0  0  0  0  0
  142.1450   80.3510  221.6860 C   0  0  0  0  0  0  0  0  0  0  0  0
  141.7920   79.3350  220.8030 C   0  0  0  0  0  0  0  0  0  0  0  0
  141.8540   79.6360  219.0780 Cl  0  0  0  0  0  0  0  0  0  0  0  0
  139.2010   72.9540  222.3160 N   0  0  0  0  0  0  0  0  0  0  0  0
  138.7510   71.6260  222.4060 N   0  0  0  0  0  0  0  0  0  0  0  0
  138.3550   71.1560  223.5590 C   0  0  0  0  0  0  0  0  0  0  0  0
  139.3290   70.7690  224.5960 C   0  0  0  0  0  0  0  0  0  0  0  0
  140.3670   71.6020  224.9630 C   0  0  0  0  0  0  0  0  0  0  0  0
  141.2800   71.2290  225.9410 C   0  0  0  0  0  0  0  0  0  0  0  0
  141.1520   69.9970  226.5620 C   0  0  0  0  0  0  0  0  0  0  0  0
  140.1070   69.1440  226.1990 C   0  0  0  0  0  0  0  0  0  0  0  0
  139.9870   67.8180  226.8840 C   0  0  0  0  0  0  0  0  0  0  0  0
  138.8130   67.2060  226.5390 F   0  0  0  0  0  0  0  0  0  0  0  0
  141.0910   67.0630  226.6090 F   0  0  0  0  0  0  0  0  0  0  0  0
  140.0190   68.1330  228.2480 F   0  0  0  0  0  0  0  0  0  0  0  0
  139.2050   69.5420  225.2170 C   0  0  0  0  0  0  0  0  0  0  0  0
  139.9680   75.4108  221.2168 H   0  0  0  0  0  0  0  0  0  0  0  0
  141.0668   75.1661  222.5829 H   0  0  0  0  0  0  0  0  0  0  0  0
  142.9115   74.6574  221.1752 H   0  0  0  0  0  0  0  0  0  0  0  0
  141.8458   74.0615  219.8485 H   0  0  0  0  0  0  0  0  0  0  0  0
  143.0322   76.6452  220.1580 H   0  0  0  0  0  0  0  0  0  0  0  0
  141.9164   76.0474  218.8621 H   0  0  0  0  0  0  0  0  0  0  0  0
  141.0496   76.9327  223.0593 H   0  0  0  0  0  0  0  0  0  0  0  0
  141.6706   78.7206  224.6457 H   0  0  0  0  0  0  0  0  0  0  0  0
  142.4593   81.3307  221.2970 H   0  0  0  0  0  0  0  0  0  0  0  0
  138.5760   73.6610  222.8040 H   0  0  0  0  0  0  0  0  0  0  0  0
  137.2788   71.0474  223.7590 H   0  0  0  0  0  0  0  0  0  0  0  0
  140.4731   72.5802  224.4713 H   0  0  0  0  0  0  0  0  0  0  0  0
  142.0995   71.9074  226.2208 H   0  0  0  0  0  0  0  0  0  0  0  0
  141.8701   69.6920  227.3374 H   0  0  0  0  0  0  0  0  0  0  0  0
  138.3821   68.8701  224.9316 H   0  0  0  0  0  0  0  0  0  0  0  0
  1  2  2  0
  2  3  1  0
  3  4  1  0
  4  5  1  0
  5  6  1  0
  6  7  1  0
  7  8  2  0
  8  9  1  0
  9 10  2  0
 10 11  1  0
 10 12  1  0
 12 13  2  0
 13 14  1  0
  2 15  1  0
 15 16  1  0
 16 17  2  0
 17 18  1  0
 18 19  2  0
 19 20  1  0
 20 21  2  0
 21 22  1  0
 22 23  1  0
 23 24  1  0
 23 25  1  0
 23 26  1  0
 22 27  2  0
 13  7  1  0
 27 18  1  0
  3 28  1  0
  3 29  1  0
  4 30  1  0
  4 31  1  0
  5 32  1  0
  5 33  1  0
  8 34  1  0
  9 35  1  0
 12 36  1  0
 15 37  1  0
 17 38  1  0
 19 39  1  0
 20 40  1  0
 21 41  1  0
 27 42  1  0
M  END
>  <smiles>  (48) 
O=C(CCCOc1ccc(Cl)cc1Cl)NN=Cc1cccc(C(F)(F)F)c1

>  <score_type>  (48) 
oracle

>  <origin>  (48) 
autodockgpu

>  <m_score__min__energy>  (48) 
-7.5199999999999996

>  <m_primary>  (48) 
energy

>  <rmsd>  (48) 
5.913693941426174

>  <m_score__min__rmsd>  (48) 
5.913693941426174

>  <meeko>  (48) 
{"free_energy": -6.97, "intermolecular_energy": -9.65, "internal_energy": -0.88, "cluster_size": 5, "cluster_id": 3, "rank_in_cluster": 3}

>  <energy>  (48) 
-4.78

>  <cluster_rmsd>  (48) 
1.88

>  <cluster>  (48) 
12

$$$$

     RDKit          3D

 42 43  0  0  1  0  0  0  0  0999 V2000
  139.5680   74.5770  222.3340 O   0  0  0  0  0  0  0  0  0  0  0  0
  140.6680   74.9130  221.8020 C   0  0  0  0  0  0  0  0  0  0  0  0
  141.3330   73.8530  220.9720 C   0  0  0  0  0  0  0  0  0  0  0  0
  140.4630   72.5980  221.1200 C   0  0  0  0  0  0  0  0  0  0  0  0
  140.8900   71.8000  222.3360 C   0  0  0  0  0  0  0  0  0  0  0  0
  140.2280   72.2420  223.5050 O   0  0  0  0  0  0  0  0  0  0  0  0
  140.2580   71.4100  224.6400 C   0  0  0  0  0  0  0  0  0  0  0  0
  141.0680   71.7020  225.7280 C   0  0  0  0  0  0  0  0  0  0  0  0
  141.1250   70.9130  226.8540 C   0  0  0  0  0  0  0  0  0  0  0  0
  140.3290   69.7720  226.8920 C   0  0  0  0  0  0  0  0  0  0  0  0
  140.4280   68.7950  228.3410 Cl  0  0  0  0  0  0  0  0  0  0  0  0
  139.5080   69.4480  225.8270 C   0  0  0  0  0  0  0  0  0  0  0  0
  139.4700   70.2640  224.7000 C   0  0  0  0  0  0  0  0  0  0  0  0
  138.4230   69.8320  223.3630 Cl  0  0  0  0  0  0  0  0  0  0  0  0
  141.2470   76.1830  221.9630 N   0  0  0  0  0  0  0  0  0  0  0  0
  140.6770   77.2170  222.7240 N   0  0  0  0  0  0  0  0  0  0  0  0
  141.4510   78.1170  223.2720 C   0  0  0  0  0  0  0  0  0  0  0  0
  141.5630   79.4700  222.6980 C   0  0  0  0  0  0  0  0  0  0  0  0
  141.6960   80.5890  223.4970 C   0  0  0  0  0  0  0  0  0  0  0  0
  141.8010   81.8600  222.9480 C   0  0  0  0  0  0  0  0  0  0  0  0
  141.7710   82.0150  221.5710 C   0  0  0  0  0  0  0  0  0  0  0  0
  141.6360   80.8910  220.7510 C   0  0  0  0  0  0  0  0  0  0  0  0
  141.6070   81.0810  219.2670 C   0  0  0  0  0  0  0  0  0  0  0  0
  142.5890   80.3410  218.6690 F   0  0  0  0  0  0  0  0  0  0  0  0
  140.3550   80.7990  218.7960 F   0  0  0  0  0  0  0  0  0  0  0  0
  141.8230   82.4540  219.0930 F   0  0  0  0  0  0  0  0  0  0  0  0
  141.5330   79.6290  221.3270 C   0  0  0  0  0  0  0  0  0  0  0  0
  141.3792   74.1648  219.9181 H   0  0  0  0  0  0  0  0  0  0  0  0
  142.3663   73.6701  221.3017 H   0  0  0  0  0  0  0  0  0  0  0  0
  139.4108   72.8977  221.2342 H   0  0  0  0  0  0  0  0  0  0  0  0
  140.5825   71.9729  220.2228 H   0  0  0  0  0  0  0  0  0  0  0  0
  140.6510   70.7393  222.1693 H   0  0  0  0  0  0  0  0  0  0  0  0
  141.9717   71.9402  222.4782 H   0  0  0  0  0  0  0  0  0  0  0  0
  141.6935   72.6060  225.6887 H   0  0  0  0  0  0  0  0  0  0  0  0
  141.7795   71.1760  227.6980 H   0  0  0  0  0  0  0  0  0  0  0  0
  138.8837   68.5434  225.8708 H   0  0  0  0  0  0  0  0  0  0  0  0
  142.1720   76.4360  221.5040 H   0  0  0  0  0  0  0  0  0  0  0  0
  142.0265   77.8610  224.1738 H   0  0  0  0  0  0  0  0  0  0  0  0
  141.7192   80.4707  224.5904 H   0  0  0  0  0  0  0  0  0  0  0  0
  141.9073   82.7383  223.6017 H   0  0  0  0  0  0  0  0  0  0  0  0
  141.8530   83.0175  221.1257 H   0  0  0  0  0  0  0  0  0  0  0  0
  141.4261   78.7452  220.6809 H   0  0  0  0  0  0  0  0  0  0  0  0
  1  2  2  0
  2  3  1  0
  3  4  1  0
  4  5  1  0
  5  6  1  0
  6  7  1  0
  7  8  2  0
  8  9  1  0
  9 10  2  0
 10 11  1  0
 10 12  1  0
 12 13  2  0
 13 14  1  0
  2 15  1  0
 15 16  1  0
 16 17  2  0
 17 18  1  0
 18 19  2  0
 19 20  1  0
 20 21  2  0
 21 22  1  0
 22 23  1  0
 23 24  1  0
 23 25  1  0
 23 26  1  0
 22 27  2  0
 13  7  1  0
 27 18  1  0
  3 28  1  0
  3 29  1  0
  4 30  1  0
  4 31  1  0
  5 32  1  0
  5 33  1  0
  8 34  1  0
  9 35  1  0
 12 36  1  0
 15 37  1  0
 17 38  1  0
 19 39  1  0
 20 40  1  0
 21 41  1  0
 27 42  1  0
M  END
>  <smiles>  (49) 
O=C(CCCOc1ccc(Cl)cc1Cl)NN=Cc1cccc(C(F)(F)F)c1

>  <score_type>  (49) 
oracle

>  <origin>  (49) 
autodockgpu

>  <m_score__min__energy>  (49) 
-7.5199999999999996

>  <m_primary>  (49) 
energy

>  <rmsd>  (49) 
12.45308994242765

>  <m_score__min__rmsd>  (49) 
12.45308994242765

>  <meeko>  (49) 
{"free_energy": -7.28, "intermolecular_energy": -9.97, "internal_energy": -0.72, "cluster_size": 6, "cluster_id": 2, "rank_in_cluster": 2}

>  <energy>  (49) 
-4.45

>  <cluster_rmsd>  (49) 
1.58

>  <cluster>  (49) 
12

$$$$

     RDKit          3D

 42 43  0  0  1  0  0  0  0  0999 V2000
  140.8620   73.2670  222.3500 O   0  0  0  0  0  0  0  0  0  0  0  0
  141.0650   74.1200  221.4360 C   0  0  0  0  0  0  0  0  0  0  0  0
  141.8700   73.6310  220.2660 C   0  0  0  0  0  0  0  0  0  0  0  0
  143.3000   74.1330  220.5020 C   0  0  0  0  0  0  0  0  0  0  0  0
  143.5350   75.4300  219.7540 C   0  0  0  0  0  0  0  0  0  0  0  0
  142.3230   75.9760  219.2680 O   0  0  0  0  0  0  0  0  0  0  0  0
  142.2770   77.3580  219.0030 C   0  0  0  0  0  0  0  0  0  0  0  0
  141.8400   78.2620  219.9590 C   0  0  0  0  0  0  0  0  0  0  0  0
  141.7810   79.6200  219.7360 C   0  0  0  0  0  0  0  0  0  0  0  0
  142.1800   80.0940  218.4900 C   0  0  0  0  0  0  0  0  0  0  0  0
  142.0910   81.8240  218.2450 Cl  0  0  0  0  0  0  0  0  0  0  0  0
  142.6220   79.2220  217.5120 C   0  0  0  0  0  0  0  0  0  0  0  0
  142.6720   77.8540  217.7630 C   0  0  0  0  0  0  0  0  0  0  0  0
  143.2340   76.7700  216.5070 Cl  0  0  0  0  0  0  0  0  0  0  0  0
  140.5830   75.4390  221.4890 N   0  0  0  0  0  0  0  0  0  0  0  0
  139.8260   75.9580  222.5520 N   0  0  0  0  0  0  0  0  0  0  0  0
  139.0300   76.9740  222.3420 C   0  0  0  0  0  0  0  0  0  0  0  0
  139.3900   78.3260  222.8060 C   0  0  0  0  0  0  0  0  0  0  0  0
  138.4380   79.2110  223.2700 C   0  0  0  0  0  0  0  0  0  0  0  0
  138.7860   80.4840  223.7050 C   0  0  0  0  0  0  0  0  0  0  0  0
  140.1150   80.8780  223.6730 C   0  0  0  0  0  0  0  0  0  0  0  0
  141.0880   79.9910  223.2050 C   0  0  0  0  0  0  0  0  0  0  0  0
  142.5170   80.4370  223.1790 C   0  0  0  0  0  0  0  0  0  0  0  0
  142.8300   81.1090  224.3290 F   0  0  0  0  0  0  0  0  0  0  0  0
  143.3250   79.3610  222.9440 F   0  0  0  0  0  0  0  0  0  0  0  0
  142.5940   81.2760  222.0600 F   0  0  0  0  0  0  0  0  0  0  0  0
  140.7120   78.7220  222.7750 C   0  0  0  0  0  0  0  0  0  0  0  0
  141.8525   72.5320  220.2218 H   0  0  0  0  0  0  0  0  0  0  0  0
  141.4638   74.0007  219.3129 H   0  0  0  0  0  0  0  0  0  0  0  0
  143.4515   74.3027  221.5782 H   0  0  0  0  0  0  0  0  0  0  0  0
  144.0089   73.3761  220.1351 H   0  0  0  0  0  0  0  0  0  0  0  0
  144.0059   76.1547  220.4345 H   0  0  0  0  0  0  0  0  0  0  0  0
  144.1875   75.2188  218.8940 H   0  0  0  0  0  0  0  0  0  0  0  0
  141.5260   77.8772  220.9405 H   0  0  0  0  0  0  0  0  0  0  0  0
  141.4294   80.3084  220.5186 H   0  0  0  0  0  0  0  0  0  0  0  0
  142.9352   79.6111  216.5319 H   0  0  0  0  0  0  0  0  0  0  0  0
  140.7710   76.1330  220.7060 H   0  0  0  0  0  0  0  0  0  0  0  0
  138.0789   76.8176  221.8119 H   0  0  0  0  0  0  0  0  0  0  0  0
  137.3825   78.9024  223.2960 H   0  0  0  0  0  0  0  0  0  0  0  0
  138.0124   81.1744  224.0722 H   0  0  0  0  0  0  0  0  0  0  0  0
  140.4019   81.8836  224.0143 H   0  0  0  0  0  0  0  0  0  0  0  0
  141.4786   78.0251  222.4054 H   0  0  0  0  0  0  0  0  0  0  0  0
  1  2  2  0
  2  3  1  0
  3  4  1  0
  4  5  1  0
  5  6  1  0
  6  7  1  0
  7  8  2  0
  8  9  1  0
  9 10  2  0
 10 11  1  0
 10 12  1  0
 12 13  2  0
 13 14  1  0
  2 15  1  0
 15 16  1  0
 16 17  2  0
 17 18  1  0
 18 19  2  0
 19 20  1  0
 20 21  2  0
 21 22  1  0
 22 23  1  0
 23 24  1  0
 23 25  1  0
 23 26  1  0
 22 27  2  0
 13  7  1  0
 27 18  1  0
  3 28  1  0
  3 29  1  0
  4 30  1  0
  4 31  1  0
  5 32  1  0
  5 33  1  0
  8 34  1  0
  9 35  1  0
 12 36  1  0
 15 37  1  0
 17 38  1  0
 19 39  1  0
 20 40  1  0
 21 41  1  0
 27 42  1  0
M  END
>  <smiles>  (50) 
O=C(CCCOc1ccc(Cl)cc1Cl)NN=Cc1cccc(C(F)(F)F)c1

>  <score_type>  (50) 
oracle

>  <origin>  (50) 
autodockgpu

>  <m_score__min__energy>  (50) 
-7.5199999999999996

>  <m_primary>  (50) 
energy

>  <rmsd>  (50) 
6.965884689674648

>  <m_score__min__rmsd>  (50) 
6.965884689674648

>  <meeko>  (50) 
{"free_energy": -5.34, "intermolecular_energy": -8.03, "internal_energy": -2.35, "cluster_size": 3, "cluster_id": 12, "rank_in_cluster": 1}

>  <energy>  (50) 
-4.81

>  <cluster_rmsd>  (50) 
0.0

>  <cluster>  (50) 
13

$$$$

     RDKit          3D

 42 43  0  0  1  0  0  0  0  0999 V2000
  137.7830   70.0680  224.3200 O   0  0  0  0  0  0  0  0  0  0  0  0
  137.6100   71.1200  223.6530 C   0  0  0  0  0  0  0  0  0  0  0  0
  136.2660   71.6630  223.3340 C   0  0  0  0  0  0  0  0  0  0  0  0
  136.1890   73.1440  223.4350 C   0  0  0  0  0  0  0  0  0  0  0  0
  136.7090   73.7190  222.0930 C   0  0  0  0  0  0  0  0  0  0  0  0
  137.5750   74.6800  222.1820 O   0  0  0  0  0  0  0  0  0  0  0  0
  138.4310   75.6250  222.2680 C   0  0  0  0  0  0  0  0  0  0  0  0
  138.0980   76.9010  222.7450 C   0  0  0  0  0  0  0  0  0  0  0  0
  139.0170   77.9180  222.8380 C   0  0  0  0  0  0  0  0  0  0  0  0
  140.3030   77.6520  222.4420 C   0  0  0  0  0  0  0  0  0  0  0  0
  141.4810   78.9290  222.5510 Cl  0  0  0  0  0  0  0  0  0  0  0  0
  140.7080   76.4320  221.9640 C   0  0  0  0  0  0  0  0  0  0  0  0
  139.7700   75.4370  221.8840 C   0  0  0  0  0  0  0  0  0  0  0  0
  140.2250   73.8640  221.2850 Cl  0  0  0  0  0  0  0  0  0  0  0  0
  138.7270   71.8860  223.1420 N   0  0  0  0  0  0  0  0  0  0  0  0
  139.9810   71.4190  223.4150 N   0  0  0  0  0  0  0  0  0  0  0  0
  140.6830   71.8740  224.3600 C   0  0  0  0  0  0  0  0  0  0  0  0
  140.7970   71.4440  225.7230 C   0  0  0  0  0  0  0  0  0  0  0  0
  141.0260   72.2130  226.8270 C   0  0  0  0  0  0  0  0  0  0  0  0
  141.1300   71.7140  228.1180 C   0  0  0  0  0  0  0  0  0  0  0  0
  141.0010   70.3730  228.3430 C   0  0  0  0  0  0  0  0  0  0  0  0
  140.7690   69.5720  227.2430 C   0  0  0  0  0  0  0  0  0  0  0  0
  140.6280   68.1200  227.4640 C   0  0  0  0  0  0  0  0  0  0  0  0
  141.4120   67.4290  226.5620 F   0  0  0  0  0  0  0  0  0  0  0  0
  141.0580   67.7970  228.7520 F   0  0  0  0  0  0  0  0  0  0  0  0
  139.3080   67.7070  227.3950 F   0  0  0  0  0  0  0  0  0  0  0  0
  140.6670   70.0730  225.9670 C   0  0  0  0  0  0  0  0  0  0  0  0
  136.0062   71.3695  222.3062 H   0  0  0  0  0  0  0  0  0  0  0  0
  135.5646   71.2499  224.0739 H   0  0  0  0  0  0  0  0  0  0  0  0
  135.1478   73.4574  223.6018 H   0  0  0  0  0  0  0  0  0  0  0  0
  136.7920   73.5112  224.2786 H   0  0  0  0  0  0  0  0  0  0  0  0
  137.1768   72.8957  221.5333 H   0  0  0  0  0  0  0  0  0  0  0  0
  135.8297   74.1581  221.5990 H   0  0  0  0  0  0  0  0  0  0  0  0
  137.0611   77.0951  223.0567 H   0  0  0  0  0  0  0  0  0  0  0  0
  138.7316   78.9105  223.2167 H   0  0  0  0  0  0  0  0  0  0  0  0
  141.7496   76.2586  221.6557 H   0  0  0  0  0  0  0  0  0  0  0  0
  138.5550   72.7610  222.5630 H   0  0  0  0  0  0  0  0  0  0  0  0
  141.3079   72.7397  224.0954 H   0  0  0  0  0  0  0  0  0  0  0  0
  141.1352   73.2982  226.6845 H   0  0  0  0  0  0  0  0  0  0  0  0
  141.3162   72.3979  228.9592 H   0  0  0  0  0  0  0  0  0  0  0  0
  141.0785   69.9502  229.3555 H   0  0  0  0  0  0  0  0  0  0  0  0
  140.4808   69.3871  225.1274 H   0  0  0  0  0  0  0  0  0  0  0  0
  1  2  2  0
  2  3  1  0
  3  4  1  0
  4  5  1  0
  5  6  1  0
  6  7  1  0
  7  8  2  0
  8  9  1  0
  9 10  2  0
 10 11  1  0
 10 12  1  0
 12 13  2  0
 13 14  1  0
  2 15  1  0
 15 16  1  0
 16 17  2  0
 17 18  1  0
 18 19  2  0
 19 20  1  0
 20 21  2  0
 21 22  1  0
 22 23  1  0
 23 24  1  0
 23 25  1  0
 23 26  1  0
 22 27  2  0
 13  7  1  0
 27 18  1  0
  3 28  1  0
  3 29  1  0
  4 30  1  0
  4 31  1  0
  5 32  1  0
  5 33  1  0
  8 34  1  0
  9 35  1  0
 12 36  1  0
 15 37  1  0
 17 38  1  0
 19 39  1  0
 20 40  1  0
 21 41  1  0
 27 42  1  0
M  END
>  <smiles>  (51) 
O=C(CCCOc1ccc(Cl)cc1Cl)NN=Cc1cccc(C(F)(F)F)c1

>  <score_type>  (51) 
oracle

>  <origin>  (51) 
autodockgpu

>  <m_score__min__energy>  (51) 
-7.79

>  <m_primary>  (51) 
energy

>  <rmsd>  (51) 
7.679477847124725

>  <m_score__min__rmsd>  (51) 
7.679477847124725

>  <meeko>  (51) 
{"free_energy": -6.14, "intermolecular_energy": -8.82, "internal_energy": -1.82, "cluster_size": 3, "cluster_id": 4, "rank_in_cluster": 1}

>  <energy>  (51) 
-7.79

>  <cluster_rmsd>  (51) 
0.0

>  <cluster>  (51) 
1

$$$$

     RDKit          3D

 42 43  0  0  1  0  0  0  0  0999 V2000
  140.0940   74.1240  221.9490 O   0  0  0  0  0  0  0  0  0  0  0  0
  141.1570   74.5270  221.4100 C   0  0  0  0  0  0  0  0  0  0  0  0
  142.1900   73.6060  220.8720 C   0  0  0  0  0  0  0  0  0  0  0  0
  143.2830   74.3060  220.1460 C   0  0  0  0  0  0  0  0  0  0  0  0
  142.6920   74.7970  218.8000 C   0  0  0  0  0  0  0  0  0  0  0  0
  142.5890   76.0820  218.6590 O   0  0  0  0  0  0  0  0  0  0  0  0
  142.4900   77.3490  218.5170 C   0  0  0  0  0  0  0  0  0  0  0  0
  142.1930   78.2050  219.5880 C   0  0  0  0  0  0  0  0  0  0  0  0
  142.0860   79.5660  219.4370 C   0  0  0  0  0  0  0  0  0  0  0  0
  142.2790   80.0840  218.1820 C   0  0  0  0  0  0  0  0  0  0  0  0
  142.1460   81.8070  217.9710 Cl  0  0  0  0  0  0  0  0  0  0  0  0
  142.5710   79.3150  217.0850 C   0  0  0  0  0  0  0  0  0  0  0  0
  142.6720   77.9610  217.2660 C   0  0  0  0  0  0  0  0  0  0  0  0
  143.0420   76.9320  215.9080 Cl  0  0  0  0  0  0  0  0  0  0  0  0
  141.4510   75.9380  221.2760 N   0  0  0  0  0  0  0  0  0  0  0  0
  140.5250   76.8170  221.7590 N   0  0  0  0  0  0  0  0  0  0  0  0
  140.7240   77.5100  222.7960 C   0  0  0  0  0  0  0  0  0  0  0  0
  141.1730   78.8640  222.9370 C   0  0  0  0  0  0  0  0  0  0  0  0
  142.1550   79.3390  223.7560 C   0  0  0  0  0  0  0  0  0  0  0  0
  142.5260   80.6740  223.8380 C   0  0  0  0  0  0  0  0  0  0  0  0
  141.8930   81.6060  223.0660 C   0  0  0  0  0  0  0  0  0  0  0  0
  140.8960   81.1520  222.2270 C   0  0  0  0  0  0  0  0  0  0  0  0
  140.1980   82.1430  221.3840 C   0  0  0  0  0  0  0  0  0  0  0  0
  139.6010   81.5100  220.3120 F   0  0  0  0  0  0  0  0  0  0  0  0
  139.2010   82.7730  222.1280 F   0  0  0  0  0  0  0  0  0  0  0  0
  141.0440   83.1530  220.9580 F   0  0  0  0  0  0  0  0  0  0  0  0
  140.5330   79.8280  222.1510 C   0  0  0  0  0  0  0  0  0  0  0  0
  142.6303   73.0472  221.7110 H   0  0  0  0  0  0  0  0  0  0  0  0
  141.6909   72.9441  220.1489 H   0  0  0  0  0  0  0  0  0  0  0  0
  143.6404   75.1626  220.7364 H   0  0  0  0  0  0  0  0  0  0  0  0
  144.1361   73.6324  219.9774 H   0  0  0  0  0  0  0  0  0  0  0  0
  143.3367   74.4205  217.9922 H   0  0  0  0  0  0  0  0  0  0  0  0
  141.6619   74.4121  218.7706 H   0  0  0  0  0  0  0  0  0  0  0  0
  142.0400   77.7697  220.5866 H   0  0  0  0  0  0  0  0  0  0  0  0
  141.8537   80.2174  220.2924 H   0  0  0  0  0  0  0  0  0  0  0  0
  142.7190   79.7695  216.0943 H   0  0  0  0  0  0  0  0  0  0  0  0
  142.3670   76.2540  220.8350 H   0  0  0  0  0  0  0  0  0  0  0  0
  140.5198   76.9907  223.7440 H   0  0  0  0  0  0  0  0  0  0  0  0
  142.6874   78.6172  224.3928 H   0  0  0  0  0  0  0  0  0  0  0  0
  143.3291   80.9811  224.5241 H   0  0  0  0  0  0  0  0  0  0  0  0
  142.1657   82.6707  223.1110 H   0  0  0  0  0  0  0  0  0  0  0  0
  139.7298   79.5232  221.4640 H   0  0  0  0  0  0  0  0  0  0  0  0
  1  2  2  0
  2  3  1  0
  3  4  1  0
  4  5  1  0
  5  6  1  0
  6  7  1  0
  7  8  2  0
  8  9  1  0
  9 10  2  0
 10 11  1  0
 10 12  1  0
 12 13  2  0
 13 14  1  0
  2 15  1  0
 15 16  1  0
 16 17  2  0
 17 18  1  0
 18 19  2  0
 19 20  1  0
 20 21  2  0
 21 22  1  0
 22 23  1  0
 23 24  1  0
 23 25  1  0
 23 26  1  0
 22 27  2  0
 13  7  1  0
 27 18  1  0
  3 28  1  0
  3 29  1  0
  4 30  1  0
  4 31  1  0
  5 32  1  0
  5 33  1  0
  8 34  1  0
  9 35  1  0
 12 36  1  0
 15 37  1  0
 17 38  1  0
 19 39  1  0
 20 40  1  0
 21 41  1  0
 27 42  1  0
M  END
>  <smiles>  (52) 
O=C(CCCOc1ccc(Cl)cc1Cl)NN=Cc1cccc(C(F)(F)F)c1

>  <score_type>  (52) 
oracle

>  <origin>  (52) 
autodockgpu

>  <m_score__min__energy>  (52) 
-7.79

>  <m_primary>  (52) 
energy

>  <rmsd>  (52) 
7.283832635267286

>  <m_score__min__rmsd>  (52) 
7.283832635267286

>  <meeko>  (52) 
{"free_energy": -5.46, "intermolecular_energy": -8.15, "internal_energy": -2.28, "cluster_size": 3, "cluster_id": 9, "rank_in_cluster": 1}

>  <energy>  (52) 
-7.63

>  <cluster_rmsd>  (52) 
1.62

>  <cluster>  (52) 
1

$$$$

     RDKit          3D

 42 43  0  0  1  0  0  0  0  0999 V2000
  141.3720   74.9810  221.4640 O   0  0  0  0  0  0  0  0  0  0  0  0
  140.1560   74.9270  221.7800 C   0  0  0  0  0  0  0  0  0  0  0  0
  139.1990   76.0290  221.5070 C   0  0  0  0  0  0  0  0  0  0  0  0
  138.1300   76.1490  222.5330 C   0  0  0  0  0  0  0  0  0  0  0  0
  136.8790   75.4280  221.9700 C   0  0  0  0  0  0  0  0  0  0  0  0
  136.5380   74.3290  222.5690 O   0  0  0  0  0  0  0  0  0  0  0  0
  136.1990   73.2460  223.1580 C   0  0  0  0  0  0  0  0  0  0  0  0
  136.5880   71.9820  222.6920 C   0  0  0  0  0  0  0  0  0  0  0  0
  136.2240   70.8180  223.3250 C   0  0  0  0  0  0  0  0  0  0  0  0
  135.4500   70.9210  224.4520 C   0  0  0  0  0  0  0  0  0  0  0  0
  134.9790   69.4570  225.2670 Cl  0  0  0  0  0  0  0  0  0  0  0  0
  135.0290   72.1190  224.9710 C   0  0  0  0  0  0  0  0  0  0  0  0
  135.4070   73.2630  224.3190 C   0  0  0  0  0  0  0  0  0  0  0  0
  134.9020   74.8150  224.9310 Cl  0  0  0  0  0  0  0  0  0  0  0  0
  139.5960   73.7670  222.4410 N   0  0  0  0  0  0  0  0  0  0  0  0
  140.4440   72.7310  222.7090 N   0  0  0  0  0  0  0  0  0  0  0  0
  140.0300   71.5690  222.9780 C   0  0  0  0  0  0  0  0  0  0  0  0
  139.8670   70.9090  224.2400 C   0  0  0  0  0  0  0  0  0  0  0  0
  139.1950   69.7490  224.4970 C   0  0  0  0  0  0  0  0  0  0  0  0
  139.0780   69.1780  225.7570 C   0  0  0  0  0  0  0  0  0  0  0  0
  139.6580   69.7820  226.8350 C   0  0  0  0  0  0  0  0  0  0  0  0
  140.3450   70.9560  226.6030 C   0  0  0  0  0  0  0  0  0  0  0  0
  140.9790   71.6250  227.7550 C   0  0  0  0  0  0  0  0  0  0  0  0
  141.8190   72.6270  227.3130 F   0  0  0  0  0  0  0  0  0  0  0  0
  139.9970   72.2040  228.5600 F   0  0  0  0  0  0  0  0  0  0  0  0
  141.6530   70.7330  228.5710 F   0  0  0  0  0  0  0  0  0  0  0  0
  140.4570   71.5170  225.3530 C   0  0  0  0  0  0  0  0  0  0  0  0
  139.7578   76.9759  221.4730 H   0  0  0  0  0  0  0  0  0  0  0  0
  138.7069   75.8026  220.5496 H   0  0  0  0  0  0  0  0  0  0  0  0
  138.4510   75.6719  223.4707 H   0  0  0  0  0  0  0  0  0  0  0  0
  137.9104   77.2049  222.7496 H   0  0  0  0  0  0  0  0  0  0  0  0
  136.0305   76.1248  222.0367 H   0  0  0  0  0  0  0  0  0  0  0  0
  137.1423   75.1362  220.9426 H   0  0  0  0  0  0  0  0  0  0  0  0
  137.2080   71.9199  221.7855 H   0  0  0  0  0  0  0  0  0  0  0  0
  136.5425   69.8377  222.9409 H   0  0  0  0  0  0  0  0  0  0  0  0
  134.4095   72.1596  225.8790 H   0  0  0  0  0  0  0  0  0  0  0  0
  138.5680   73.7530  222.7170 H   0  0  0  0  0  0  0  0  0  0  0  0
  139.7489   70.9655  222.1024 H   0  0  0  0  0  0  0  0  0  0  0  0
  138.7155   69.2337  223.6517 H   0  0  0  0  0  0  0  0  0  0  0  0
  138.5185   68.2398  225.8865 H   0  0  0  0  0  0  0  0  0  0  0  0
  139.5811   69.3517  227.8444 H   0  0  0  0  0  0  0  0  0  0  0  0
  141.0172   72.4552  225.2265 H   0  0  0  0  0  0  0  0  0  0  0  0
  1  2  2  0
  2  3  1  0
  3  4  1  0
  4  5  1  0
  5  6  1  0
  6  7  1  0
  7  8  2  0
  8  9  1  0
  9 10  2  0
 10 11  1  0
 10 12  1  0
 12 13  2  0
 13 14  1  0
  2 15  1  0
 15 16  1  0
 16 17  2  0
 17 18  1  0
 18 19  2  0
 19 20  1  0
 20 21  2  0
 21 22  1  0
 22 23  1  0
 23 24  1  0
 23 25  1  0
 23 26  1  0
 22 27  2  0
 13  7  1  0
 27 18  1  0
  3 28  1  0
  3 29  1  0
  4 30  1  0
  4 31  1  0
  5 32  1  0
  5 33  1  0
  8 34  1  0
  9 35  1  0
 12 36  1  0
 15 37  1  0
 17 38  1  0
 19 39  1  0
 20 40  1  0
 21 41  1  0
 27 42  1  0
M  END
>  <smiles>  (53) 
O=C(CCCOc1ccc(Cl)cc1Cl)NN=Cc1cccc(C(F)(F)F)c1

>  <score_type>  (53) 
oracle

>  <origin>  (53) 
autodockgpu

>  <m_score__min__energy>  (53) 
-7.79

>  <m_primary>  (53) 
energy

>  <rmsd>  (53) 
10.707996515800438

>  <m_score__min__rmsd>  (53) 
10.707996515800438

>  <meeko>  (53) 
{"free_energy": -5.66, "intermolecular_energy": -8.35, "internal_energy": -2.48, "cluster_size": 13, "cluster_id": 6, "rank_in_cluster": 5}

>  <energy>  (53) 
-7.43

>  <cluster_rmsd>  (53) 
0.67

>  <cluster>  (53) 
1

$$$$

     RDKit          3D

 42 43  0  0  1  0  0  0  0  0999 V2000
  140.0180   73.5580  221.3910 O   0  0  0  0  0  0  0  0  0  0  0  0
  141.0850   74.1450  221.0760 C   0  0  0  0  0  0  0  0  0  0  0  0
  142.0930   73.5550  220.1600 C   0  0  0  0  0  0  0  0  0  0  0  0
  143.4070   73.3070  220.8100 C   0  0  0  0  0  0  0  0  0  0  0  0
  144.3240   74.5030  220.4510 C   0  0  0  0  0  0  0  0  0  0  0  0
  143.7670   75.4680  219.7870 O   0  0  0  0  0  0  0  0  0  0  0  0
  143.2220   76.4200  219.1310 C   0  0  0  0  0  0  0  0  0  0  0  0
  142.5780   77.4950  219.7610 C   0  0  0  0  0  0  0  0  0  0  0  0
  141.9910   78.5190  219.0570 C   0  0  0  0  0  0  0  0  0  0  0  0
  142.0480   78.4650  217.6880 C   0  0  0  0  0  0  0  0  0  0  0  0
  141.3090   79.7540  216.7800 Cl  0  0  0  0  0  0  0  0  0  0  0  0
  142.6580   77.4500  216.9980 C   0  0  0  0  0  0  0  0  0  0  0  0
  143.2360   76.4420  217.7260 C   0  0  0  0  0  0  0  0  0  0  0  0
  144.0260   75.1240  216.9040 Cl  0  0  0  0  0  0  0  0  0  0  0  0
  141.4070   75.4590  221.5920 N   0  0  0  0  0  0  0  0  0  0  0  0
  140.5050   76.0370  222.4380 N   0  0  0  0  0  0  0  0  0  0  0  0
  140.1650   77.2480  222.3410 C   0  0  0  0  0  0  0  0  0  0  0  0
  140.8980   78.4460  222.6290 C   0  0  0  0  0  0  0  0  0  0  0  0
  141.8050   78.6520  223.6280 C   0  0  0  0  0  0  0  0  0  0  0  0
  142.4700   79.8520  223.8420 C   0  0  0  0  0  0  0  0  0  0  0  0
  142.2310   80.9190  223.0250 C   0  0  0  0  0  0  0  0  0  0  0  0
  141.3180   80.7370  222.0070 C   0  0  0  0  0  0  0  0  0  0  0  0
  141.0440   81.8790  221.1120 C   0  0  0  0  0  0  0  0  0  0  0  0
  141.4880   83.0500  221.6950 F   0  0  0  0  0  0  0  0  0  0  0  0
  141.7280   81.7060  219.9090 F   0  0  0  0  0  0  0  0  0  0  0  0
  139.7050   81.9680  220.7730 F   0  0  0  0  0  0  0  0  0  0  0  0
  140.6630   79.5470  221.7990 C   0  0  0  0  0  0  0  0  0  0  0  0
  141.7039   72.5975  219.7833 H   0  0  0  0  0  0  0  0  0  0  0  0
  142.2622   74.2815  219.3516 H   0  0  0  0  0  0  0  0  0  0  0  0
  143.2822   73.2411  221.9009 H   0  0  0  0  0  0  0  0  0  0  0  0
  143.8440   72.3595  220.4619 H   0  0  0  0  0  0  0  0  0  0  0  0
  144.7136   74.9221  221.3905 H   0  0  0  0  0  0  0  0  0  0  0  0
  145.0980   74.0935  219.7853 H   0  0  0  0  0  0  0  0  0  0  0  0
  142.5414   77.5194  220.8601 H   0  0  0  0  0  0  0  0  0  0  0  0
  141.4929   79.3527  219.5736 H   0  0  0  0  0  0  0  0  0  0  0  0
  142.6830   77.4442  215.8983 H   0  0  0  0  0  0  0  0  0  0  0  0
  142.3260   75.9270  221.3270 H   0  0  0  0  0  0  0  0  0  0  0  0
  139.1401   77.4112  221.9764 H   0  0  0  0  0  0  0  0  0  0  0  0
  142.0229   77.8142  224.3067 H   0  0  0  0  0  0  0  0  0  0  0  0
  143.1890   79.9427  224.6695 H   0  0  0  0  0  0  0  0  0  0  0  0
  142.7436   81.8811  223.1718 H   0  0  0  0  0  0  0  0  0  0  0  0
  139.9454   79.4593  220.9699 H   0  0  0  0  0  0  0  0  0  0  0  0
  1  2  2  0
  2  3  1  0
  3  4  1  0
  4  5  1  0
  5  6  1  0
  6  7  1  0
  7  8  2  0
  8  9  1  0
  9 10  2  0
 10 11  1  0
 10 12  1  0
 12 13  2  0
 13 14  1  0
  2 15  1  0
 15 16  1  0
 16 17  2  0
 17 18  1  0
 18 19  2  0
 19 20  1  0
 20 21  2  0
 21 22  1  0
 22 23  1  0
 23 24  1  0
 23 25  1  0
 23 26  1  0
 22 27  2  0
 13  7  1  0
 27 18  1  0
  3 28  1  0
  3 29  1  0
  4 30  1  0
  4 31  1  0
  5 32  1  0
  5 33  1  0
  8 34  1  0
  9 35  1  0
 12 36  1  0
 15 37  1  0
 17 38  1  0
 19 39  1  0
 20 40  1  0
 21 41  1  0
 27 42  1  0
M  END
>  <smiles>  (54) 
O=C(CCCOc1ccc(Cl)cc1Cl)NN=Cc1cccc(C(F)(F)F)c1

>  <score_type>  (54) 
oracle

>  <origin>  (54) 
autodockgpu

>  <m_score__min__energy>  (54) 
-7.79

>  <m_primary>  (54) 
energy

>  <rmsd>  (54) 
8.126458610865285

>  <m_score__min__rmsd>  (54) 
8.126458610865285

>  <meeko>  (54) 
{"free_energy": -5.4, "intermolecular_energy": -8.09, "internal_energy": -2.42, "cluster_size": 3, "cluster_id": 9, "rank_in_cluster": 2}

>  <energy>  (54) 
-7.37

>  <cluster_rmsd>  (54) 
1.7

>  <cluster>  (54) 
1

$$$$

     RDKit          3D

 42 43  0  0  1  0  0  0  0  0999 V2000
  141.0310   80.1300  219.3000 O   0  0  0  0  0  0  0  0  0  0  0  0
  141.5640   79.8050  220.3930 C   0  0  0  0  0  0  0  0  0  0  0  0
  141.6000   80.7040  221.5740 C   0  0  0  0  0  0  0  0  0  0  0  0
  142.7900   80.4930  222.4390 C   0  0  0  0  0  0  0  0  0  0  0  0
  142.3860   79.4590  223.5210 C   0  0  0  0  0  0  0  0  0  0  0  0
  141.4190   78.6540  223.2060 O   0  0  0  0  0  0  0  0  0  0  0  0
  140.4690   77.8580  222.8930 C   0  0  0  0  0  0  0  0  0  0  0  0
  140.7000   76.5560  222.4260 C   0  0  0  0  0  0  0  0  0  0  0  0
  139.6790   75.7010  222.0890 C   0  0  0  0  0  0  0  0  0  0  0  0
  138.3940   76.1610  222.2210 C   0  0  0  0  0  0  0  0  0  0  0  0
  137.0870   75.0910  221.7970 Cl  0  0  0  0  0  0  0  0  0  0  0  0
  138.0850   77.4190  222.6690 C   0  0  0  0  0  0  0  0  0  0  0  0
  139.1230   78.2500  222.9980 C   0  0  0  0  0  0  0  0  0  0  0  0
  138.7930   79.8620  223.5740 Cl  0  0  0  0  0  0  0  0  0  0  0  0
  142.1870   78.5120  220.5770 N   0  0  0  0  0  0  0  0  0  0  0  0
  142.1740   77.6550  219.5140 N   0  0  0  0  0  0  0  0  0  0  0  0
  143.0600   76.7720  219.3440 C   0  0  0  0  0  0  0  0  0  0  0  0
  143.1450   75.4320  219.8460 C   0  0  0  0  0  0  0  0  0  0  0  0
  142.1210   74.5700  220.1090 C   0  0  0  0  0  0  0  0  0  0  0  0
  142.2910   73.2840  220.6040 C   0  0  0  0  0  0  0  0  0  0  0  0
  143.5470   72.8110  220.8570 C   0  0  0  0  0  0  0  0  0  0  0  0
  144.6010   73.6630  220.5990 C   0  0  0  0  0  0  0  0  0  0  0  0
  145.9670   73.1720  220.8670 C   0  0  0  0  0  0  0  0  0  0  0  0
  146.1820   71.9890  220.1880 F   0  0  0  0  0  0  0  0  0  0  0  0
  146.8980   74.1080  220.4180 F   0  0  0  0  0  0  0  0  0  0  0  0
  146.2120   73.0200  222.2210 F   0  0  0  0  0  0  0  0  0  0  0  0
  144.4260   74.9350  220.1090 C   0  0  0  0  0  0  0  0  0  0  0  0
  141.6065   81.7454  221.2197 H   0  0  0  0  0  0  0  0  0  0  0  0
  140.7117   80.4778  222.1821 H   0  0  0  0  0  0  0  0  0  0  0  0
  143.6280   80.1060  221.8408 H   0  0  0  0  0  0  0  0  0  0  0  0
  143.1127   81.4381  222.9001 H   0  0  0  0  0  0  0  0  0  0  0  0
  143.2716   78.8478  223.7496 H   0  0  0  0  0  0  0  0  0  0  0  0
  142.0146   80.0497  224.3714 H   0  0  0  0  0  0  0  0  0  0  0  0
  141.7380   76.2061  222.3257 H   0  0  0  0  0  0  0  0  0  0  0  0
  139.8850   74.6832  221.7261 H   0  0  0  0  0  0  0  0  0  0  0  0
  137.0399   77.7497  222.7611 H   0  0  0  0  0  0  0  0  0  0  0  0
  142.6490   78.2670  221.5040 H   0  0  0  0  0  0  0  0  0  0  0  0
  143.9028   77.0807  218.7080 H   0  0  0  0  0  0  0  0  0  0  0  0
  141.0947   74.9159  219.9165 H   0  0  0  0  0  0  0  0  0  0  0  0
  141.4146   72.6465  220.7923 H   0  0  0  0  0  0  0  0  0  0  0  0
  143.7109   71.7963  221.2489 H   0  0  0  0  0  0  0  0  0  0  0  0
  145.3042   75.5703  219.9212 H   0  0  0  0  0  0  0  0  0  0  0  0
  1  2  2  0
  2  3  1  0
  3  4  1  0
  4  5  1  0
  5  6  1  0
  6  7  1  0
  7  8  2  0
  8  9  1  0
  9 10  2  0
 10 11  1  0
 10 12  1  0
 12 13  2  0
 13 14  1  0
  2 15  1  0
 15 16  1  0
 16 17  2  0
 17 18  1  0
 18 19  2  0
 19 20  1  0
 20 21  2  0
 21 22  1  0
 22 23  1  0
 23 24  1  0
 23 25  1  0
 23 26  1  0
 22 27  2  0
 13  7  1  0
 27 18  1  0
  3 28  1  0
  3 29  1  0
  4 30  1  0
  4 31  1  0
  5 32  1  0
  5 33  1  0
  8 34  1  0
  9 35  1  0
 12 36  1  0
 15 37  1  0
 17 38  1  0
 19 39  1  0
 20 40  1  0
 21 41  1  0
 27 42  1  0
M  END
>  <smiles>  (55) 
O=C(CCCOc1ccc(Cl)cc1Cl)NN=Cc1cccc(C(F)(F)F)c1

>  <score_type>  (55) 
oracle

>  <origin>  (55) 
autodockgpu

>  <m_score__min__energy>  (55) 
-7.79

>  <m_primary>  (55) 
energy

>  <rmsd>  (55) 
6.45478105544847

>  <m_score__min__rmsd>  (55) 
6.45478105544847

>  <meeko>  (55) 
{"free_energy": -5.54, "intermolecular_energy": -8.23, "internal_energy": -2.3, "cluster_size": 1, "cluster_id": 8, "rank_in_cluster": 1}

>  <energy>  (55) 
-7.3

>  <cluster_rmsd>  (55) 
0.58

>  <cluster>  (55) 
1

$$$$

     RDKit          3D

 42 43  0  0  1  0  0  0  0  0999 V2000
  140.0170   75.1830  222.1500 O   0  0  0  0  0  0  0  0  0  0  0  0
  140.8730   74.4320  221.6170 C   0  0  0  0  0  0  0  0  0  0  0  0
  141.8290   74.9020  220.5830 C   0  0  0  0  0  0  0  0  0  0  0  0
  141.2920   76.0010  219.7390 C   0  0  0  0  0  0  0  0  0  0  0  0
  141.8720   77.3260  220.2940 C   0  0  0  0  0  0  0  0  0  0  0  0
  141.1140   77.9780  221.1200 O   0  0  0  0  0  0  0  0  0  0  0  0
  140.3650   78.6170  221.9350 C   0  0  0  0  0  0  0  0  0  0  0  0
  138.9750   78.4420  221.9760 C   0  0  0  0  0  0  0  0  0  0  0  0
  138.1690   79.1290  222.8520 C   0  0  0  0  0  0  0  0  0  0  0  0
  138.7700   80.0150  223.7080 C   0  0  0  0  0  0  0  0  0  0  0  0
  137.7650   80.8960  224.8240 Cl  0  0  0  0  0  0  0  0  0  0  0  0
  140.1220   80.2440  223.7300 C   0  0  0  0  0  0  0  0  0  0  0  0
  140.9000   79.5450  222.8460 C   0  0  0  0  0  0  0  0  0  0  0  0
  142.6260   79.7930  222.8270 Cl  0  0  0  0  0  0  0  0  0  0  0  0
  140.9880   73.0360  221.9810 N   0  0  0  0  0  0  0  0  0  0  0  0
  140.1270   72.5650  222.9300 N   0  0  0  0  0  0  0  0  0  0  0  0
  140.2780   71.4400  223.4850 C   0  0  0  0  0  0  0  0  0  0  0  0
  140.4680   71.1020  224.8650 C   0  0  0  0  0  0  0  0  0  0  0  0
  140.9090   71.9110  225.8710 C   0  0  0  0  0  0  0  0  0  0  0  0
  141.0720   71.5000  227.1870 C   0  0  0  0  0  0  0  0  0  0  0  0
  140.7830   70.2130  227.5410 C   0  0  0  0  0  0  0  0  0  0  0  0
  140.3340   69.3740  226.5410 C   0  0  0  0  0  0  0  0  0  0  0  0
  140.0170   67.9790  226.9020 C   0  0  0  0  0  0  0  0  0  0  0  0
  138.8340   67.5950  226.3010 F   0  0  0  0  0  0  0  0  0  0  0  0
  141.0300   67.1340  226.4460 F   0  0  0  0  0  0  0  0  0  0  0  0
  139.9620   67.7930  228.2720 F   0  0  0  0  0  0  0  0  0  0  0  0
  140.1750   69.7870  225.2400 C   0  0  0  0  0  0  0  0  0  0  0  0
  142.7384   75.2616  221.0866 H   0  0  0  0  0  0  0  0  0  0  0  0
  142.0317   74.0504  219.9170 H   0  0  0  0  0  0  0  0  0  0  0  0
  141.6042   75.8610  218.6936 H   0  0  0  0  0  0  0  0  0  0  0  0
  140.1924   76.0134  219.7651 H   0  0  0  0  0  0  0  0  0  0  0  0
  142.8116   77.0897  220.8149 H   0  0  0  0  0  0  0  0  0  0  0  0
  141.9934   77.9844  219.4212 H   0  0  0  0  0  0  0  0  0  0  0  0
  138.5113   77.7273  221.2802 H   0  0  0  0  0  0  0  0  0  0  0  0
  137.0802   78.9733  222.8657 H   0  0  0  0  0  0  0  0  0  0  0  0
  140.5660   80.9640  224.4332 H   0  0  0  0  0  0  0  0  0  0  0  0
  141.7080   72.4150  221.5020 H   0  0  0  0  0  0  0  0  0  0  0  0
  140.2609   70.5810  222.7981 H   0  0  0  0  0  0  0  0  0  0  0  0
  141.1508   72.9552  225.6238 H   0  0  0  0  0  0  0  0  0  0  0  0
  141.4339   72.2108  227.9445 H   0  0  0  0  0  0  0  0  0  0  0  0
  140.9026   69.8609  228.5762 H   0  0  0  0  0  0  0  0  0  0  0  0
  139.8128   69.0745  224.4843 H   0  0  0  0  0  0  0  0  0  0  0  0
  1  2  2  0
  2  3  1  0
  3  4  1  0
  4  5  1  0
  5  6  1  0
  6  7  1  0
  7  8  2  0
  8  9  1  0
  9 10  2  0
 10 11  1  0
 10 12  1  0
 12 13  2  0
 13 14  1  0
  2 15  1  0
 15 16  1  0
 16 17  2  0
 17 18  1  0
 18 19  2  0
 19 20  1  0
 20 21  2  0
 21 22  1  0
 22 23  1  0
 23 24  1  0
 23 25  1  0
 23 26  1  0
 22 27  2  0
 13  7  1  0
 27 18  1  0
  3 28  1  0
  3 29  1  0
  4 30  1  0
  4 31  1  0
  5 32  1  0
  5 33  1  0
  8 34  1  0
  9 35  1  0
 12 36  1  0
 15 37  1  0
 17 38  1  0
 19 39  1  0
 20 40  1  0
 21 41  1  0
 27 42  1  0
M  END
>  <smiles>  (56) 
O=C(CCCOc1ccc(Cl)cc1Cl)NN=Cc1cccc(C(F)(F)F)c1

>  <score_type>  (56) 
oracle

>  <origin>  (56) 
autodockgpu

>  <m_score__min__energy>  (56) 
-7.79

>  <m_primary>  (56) 
energy

>  <rmsd>  (56) 
5.522834508910975

>  <m_score__min__rmsd>  (56) 
5.522834508910975

>  <meeko>  (56) 
{"free_energy": -7.08, "intermolecular_energy": -9.76, "internal_energy": -0.89, "cluster_size": 13, "cluster_id": 1, "rank_in_cluster": 7}

>  <energy>  (56) 
-7.21

>  <cluster_rmsd>  (56) 
0.63

>  <cluster>  (56) 
1

$$$$

     RDKit          3D

 42 43  0  0  1  0  0  0  0  0999 V2000
  141.4700   72.8140  221.3250 O   0  0  0  0  0  0  0  0  0  0  0  0
  140.4910   73.4850  221.7420 C   0  0  0  0  0  0  0  0  0  0  0  0
  140.2060   74.8690  221.2870 C   0  0  0  0  0  0  0  0  0  0  0  0
  138.7590   75.1340  221.0750 C   0  0  0  0  0  0  0  0  0  0  0  0
  138.2840   76.0260  222.2500 C   0  0  0  0  0  0  0  0  0  0  0  0
  139.0650   77.0120  222.5680 O   0  0  0  0  0  0  0  0  0  0  0  0
  139.8370   77.9820  222.8810 C   0  0  0  0  0  0  0  0  0  0  0  0
  141.2300   77.8390  222.9600 C   0  0  0  0  0  0  0  0  0  0  0  0
  142.0600   78.8810  223.2970 C   0  0  0  0  0  0  0  0  0  0  0  0
  141.4830   80.0950  223.5640 C   0  0  0  0  0  0  0  0  0  0  0  0
  142.5200   81.4260  223.9940 Cl  0  0  0  0  0  0  0  0  0  0  0  0
  140.1300   80.3150  223.5100 C   0  0  0  0  0  0  0  0  0  0  0  0
  139.3260   79.2590  223.1700 C   0  0  0  0  0  0  0  0  0  0  0  0
  137.6000   79.4780  223.0840 Cl  0  0  0  0  0  0  0  0  0  0  0  0
  139.5600   72.9450  222.7100 N   0  0  0  0  0  0  0  0  0  0  0  0
  139.7870   71.6730  223.1530 N   0  0  0  0  0  0  0  0  0  0  0  0
  140.7500   71.3840  223.9160 C   0  0  0  0  0  0  0  0  0  0  0  0
  140.7840   71.1790  225.3340 C   0  0  0  0  0  0  0  0  0  0  0  0
  141.0000   72.1090  226.3090 C   0  0  0  0  0  0  0  0  0  0  0  0
  141.0230   71.8240  227.6680 C   0  0  0  0  0  0  0  0  0  0  0  0
  140.8210   70.5450  228.1000 C   0  0  0  0  0  0  0  0  0  0  0  0
  140.6000   69.5850  227.1340 C   0  0  0  0  0  0  0  0  0  0  0  0
  140.3790   68.1950  227.5800 C   0  0  0  0  0  0  0  0  0  0  0  0
  140.2570   68.1560  228.9540 F   0  0  0  0  0  0  0  0  0  0  0  0
  139.1970   67.7060  227.0240 F   0  0  0  0  0  0  0  0  0  0  0  0
  141.3790   67.3420  227.1440 F   0  0  0  0  0  0  0  0  0  0  0  0
  140.5780   69.8730  225.7900 C   0  0  0  0  0  0  0  0  0  0  0  0
  140.5813   75.5702  222.0469 H   0  0  0  0  0  0  0  0  0  0  0  0
  140.7062   75.0014  220.3163 H   0  0  0  0  0  0  0  0  0  0  0  0
  138.6069   75.6563  220.1189 H   0  0  0  0  0  0  0  0  0  0  0  0
  138.1889   74.1939  221.0409 H   0  0  0  0  0  0  0  0  0  0  0  0
  137.3046   76.4467  221.9785 H   0  0  0  0  0  0  0  0  0  0  0  0
  138.2630   75.3684  223.1316 H   0  0  0  0  0  0  0  0  0  0  0  0
  141.6746   76.8563  222.7442 H   0  0  0  0  0  0  0  0  0  0  0  0
  143.1503   78.7453  223.3506 H   0  0  0  0  0  0  0  0  0  0  0  0
  139.7053   81.3051  223.7320 H   0  0  0  0  0  0  0  0  0  0  0  0
  138.7510   73.5390  223.0630 H   0  0  0  0  0  0  0  0  0  0  0  0
  141.7205   71.2712  223.4107 H   0  0  0  0  0  0  0  0  0  0  0  0
  141.1666   73.1511  225.9987 H   0  0  0  0  0  0  0  0  0  0  0  0
  141.2039   72.6286  228.3960 H   0  0  0  0  0  0  0  0  0  0  0  0
  140.8338   70.2911  229.1702 H   0  0  0  0  0  0  0  0  0  0  0  0
  140.3962   69.0665  225.0644 H   0  0  0  0  0  0  0  0  0  0  0  0
  1  2  2  0
  2  3  1  0
  3  4  1  0
  4  5  1  0
  5  6  1  0
  6  7  1  0
  7  8  2  0
  8  9  1  0
  9 10  2  0
 10 11  1  0
 10 12  1  0
 12 13  2  0
 13 14  1  0
  2 15  1  0
 15 16  1  0
 16 17  2  0
 17 18  1  0
 18 19  2  0
 19 20  1  0
 20 21  2  0
 21 22  1  0
 22 23  1  0
 23 24  1  0
 23 25  1  0
 23 26  1  0
 22 27  2  0
 13  7  1  0
 27 18  1  0
  3 28  1  0
  3 29  1  0
  4 30  1  0
  4 31  1  0
  5 32  1  0
  5 33  1  0
  8 34  1  0
  9 35  1  0
 12 36  1  0
 15 37  1  0
 17 38  1  0
 19 39  1  0
 20 40  1  0
 21 41  1  0
 27 42  1  0
M  END
>  <smiles>  (57) 
O=C(CCCOc1ccc(Cl)cc1Cl)NN=Cc1cccc(C(F)(F)F)c1

>  <score_type>  (57) 
oracle

>  <origin>  (57) 
autodockgpu

>  <m_score__min__energy>  (57) 
-7.79

>  <m_primary>  (57) 
energy

>  <rmsd>  (57) 
6.285093436447762

>  <m_score__min__rmsd>  (57) 
6.285093436447762

>  <meeko>  (57) 
{"free_energy": -7.43, "intermolecular_energy": -10.11, "internal_energy": -0.77, "cluster_size": 13, "cluster_id": 1, "rank_in_cluster": 3}

>  <energy>  (57) 
-7.08

>  <cluster_rmsd>  (57) 
1.61

>  <cluster>  (57) 
1

$$$$

     RDKit          3D

 42 43  0  0  1  0  0  0  0  0999 V2000
  140.4200   73.0610  220.1860 O   0  0  0  0  0  0  0  0  0  0  0  0
  139.5240   73.5630  220.9130 C   0  0  0  0  0  0  0  0  0  0  0  0
  138.4090   74.3810  220.3730 C   0  0  0  0  0  0  0  0  0  0  0  0
  137.0930   74.0620  220.9870 C   0  0  0  0  0  0  0  0  0  0  0  0
  136.8030   75.1660  222.0360 C   0  0  0  0  0  0  0  0  0  0  0  0
  137.7680   76.0030  222.2630 O   0  0  0  0  0  0  0  0  0  0  0  0
  138.7180   76.8290  222.4830 C   0  0  0  0  0  0  0  0  0  0  0  0
  140.0680   76.4510  222.4450 C   0  0  0  0  0  0  0  0  0  0  0  0
  141.0900   77.3380  222.6830 C   0  0  0  0  0  0  0  0  0  0  0  0
  140.7530   78.6360  222.9660 C   0  0  0  0  0  0  0  0  0  0  0  0
  142.0350   79.7750  223.2710 Cl  0  0  0  0  0  0  0  0  0  0  0  0
  139.4580   79.0850  223.0230 C   0  0  0  0  0  0  0  0  0  0  0  0
  138.4600   78.1780  222.7810 C   0  0  0  0  0  0  0  0  0  0  0  0
  136.7940   78.6890  222.8390 Cl  0  0  0  0  0  0  0  0  0  0  0  0
  139.5180   73.3740  222.3480 N   0  0  0  0  0  0  0  0  0  0  0  0
  140.5280   72.6270  222.8840 N   0  0  0  0  0  0  0  0  0  0  0  0
  140.3230   71.5160  223.4470 C   0  0  0  0  0  0  0  0  0  0  0  0
  140.4880   71.1240  224.8160 C   0  0  0  0  0  0  0  0  0  0  0  0
  140.9150   71.8910  225.8610 C   0  0  0  0  0  0  0  0  0  0  0  0
  141.0540   71.4280  227.1630 C   0  0  0  0  0  0  0  0  0  0  0  0
  140.7560   70.1300  227.4600 C   0  0  0  0  0  0  0  0  0  0  0  0
  140.3220   69.3320  226.4210 C   0  0  0  0  0  0  0  0  0  0  0  0
  139.9950   67.9240  226.7220 C   0  0  0  0  0  0  0  0  0  0  0  0
  141.0700   67.1150  226.4100 F   0  0  0  0  0  0  0  0  0  0  0  0
  139.7270   67.7850  228.0840 F   0  0  0  0  0  0  0  0  0  0  0  0
  138.8490   67.5030  226.0690 F   0  0  0  0  0  0  0  0  0  0  0  0
  140.1860   69.7950  225.1350 C   0  0  0  0  0  0  0  0  0  0  0  0
  138.6327   75.4419  220.5588 H   0  0  0  0  0  0  0  0  0  0  0  0
  138.3303   74.1552  219.2993 H   0  0  0  0  0  0  0  0  0  0  0  0
  136.3079   74.0573  220.2166 H   0  0  0  0  0  0  0  0  0  0  0  0
  137.1099   73.0679  221.4576 H   0  0  0  0  0  0  0  0  0  0  0  0
  135.9333   75.7419  221.6867 H   0  0  0  0  0  0  0  0  0  0  0  0
  136.6403   74.6364  222.9863 H   0  0  0  0  0  0  0  0  0  0  0  0
  140.3182   75.4046  222.2160 H   0  0  0  0  0  0  0  0  0  0  0  0
  142.1417   77.0176  222.6476 H   0  0  0  0  0  0  0  0  0  0  0  0
  139.2290   80.1357  223.2547 H   0  0  0  0  0  0  0  0  0  0  0  0
  138.7610   73.8250  222.9440 H   0  0  0  0  0  0  0  0  0  0  0  0
  139.9592   70.7207  222.7798 H   0  0  0  0  0  0  0  0  0  0  0  0
  141.1650   72.9430  225.6592 H   0  0  0  0  0  0  0  0  0  0  0  0
  141.4041   72.1072  227.9542 H   0  0  0  0  0  0  0  0  0  0  0  0
  140.8572   69.7370  228.4824 H   0  0  0  0  0  0  0  0  0  0  0  0
  139.8355   69.1131  224.3462 H   0  0  0  0  0  0  0  0  0  0  0  0
  1  2  2  0
  2  3  1  0
  3  4  1  0
  4  5  1  0
  5  6  1  0
  6  7  1  0
  7  8  2  0
  8  9  1  0
  9 10  2  0
 10 11  1  0
 10 12  1  0
 12 13  2  0
 13 14  1  0
  2 15  1  0
 15 16  1  0
 16 17  2  0
 17 18  1  0
 18 19  2  0
 19 20  1  0
 20 21  2  0
 21 22  1  0
 22 23  1  0
 23 24  1  0
 23 25  1  0
 23 26  1  0
 22 27  2  0
 13  7  1  0
 27 18  1  0
  3 28  1  0
  3 29  1  0
  4 30  1  0
  4 31  1  0
  5 32  1  0
  5 33  1  0
  8 34  1  0
  9 35  1  0
 12 36  1  0
 15 37  1  0
 17 38  1  0
 19 39  1  0
 20 40  1  0
 21 41  1  0
 27 42  1  0
M  END
>  <smiles>  (58) 
O=C(CCCOc1ccc(Cl)cc1Cl)NN=Cc1cccc(C(F)(F)F)c1

>  <score_type>  (58) 
oracle

>  <origin>  (58) 
autodockgpu

>  <m_score__min__energy>  (58) 
-7.79

>  <m_primary>  (58) 
energy

>  <rmsd>  (58) 
6.918147234566812

>  <m_score__min__rmsd>  (58) 
6.918147234566812

>  <meeko>  (58) 
{"free_energy": -6.66, "intermolecular_energy": -9.35, "internal_energy": -1.35, "cluster_size": 13, "cluster_id": 1, "rank_in_cluster": 10}

>  <energy>  (58) 
-6.74

>  <cluster_rmsd>  (58) 
2.0

>  <cluster>  (58) 
1

$$$$

     RDKit          3D

 42 43  0  0  1  0  0  0  0  0999 V2000
  140.3160   74.9320  222.3160 O   0  0  0  0  0  0  0  0  0  0  0  0
  139.4430   74.2390  221.7320 C   0  0  0  0  0  0  0  0  0  0  0  0
  138.5240   74.7920  220.7060 C   0  0  0  0  0  0  0  0  0  0  0  0
  139.2240   75.2820  219.4900 C   0  0  0  0  0  0  0  0  0  0  0  0
  140.0600   74.0980  218.9390 C   0  0  0  0  0  0  0  0  0  0  0  0
  141.2610   73.9790  219.4150 O   0  0  0  0  0  0  0  0  0  0  0  0
  142.4440   73.8640  219.8870 C   0  0  0  0  0  0  0  0  0  0  0  0
  143.3370   74.9430  219.9480 C   0  0  0  0  0  0  0  0  0  0  0  0
  144.6080   74.8210  220.4540 C   0  0  0  0  0  0  0  0  0  0  0  0
  144.9960   73.5870  220.9090 C   0  0  0  0  0  0  0  0  0  0  0  0
  146.6040   73.4130  221.5540 Cl  0  0  0  0  0  0  0  0  0  0  0  0
  144.1830   72.4830  220.8840 C   0  0  0  0  0  0  0  0  0  0  0  0
  142.9200   72.6350  220.3740 C   0  0  0  0  0  0  0  0  0  0  0  0
  141.8400   71.2690  220.3150 Cl  0  0  0  0  0  0  0  0  0  0  0  0
  139.2730   72.8320  222.0260 N   0  0  0  0  0  0  0  0  0  0  0  0
  140.1000   72.2850  222.9650 N   0  0  0  0  0  0  0  0  0  0  0  0
  139.7150   71.3940  223.7720 C   0  0  0  0  0  0  0  0  0  0  0  0
  140.1690   71.0780  225.0940 C   0  0  0  0  0  0  0  0  0  0  0  0
  140.7050   71.9250  226.0200 C   0  0  0  0  0  0  0  0  0  0  0  0
  141.1280   71.5340  227.2830 C   0  0  0  0  0  0  0  0  0  0  0  0
  141.0180   70.2280  227.6640 C   0  0  0  0  0  0  0  0  0  0  0  0
  140.4790   69.3500  226.7470 C   0  0  0  0  0  0  0  0  0  0  0  0
  140.3520   67.9320  227.1390 C   0  0  0  0  0  0  0  0  0  0  0  0
  141.3970   67.2030  226.6090 F   0  0  0  0  0  0  0  0  0  0  0  0
  140.4070   67.8240  228.5290 F   0  0  0  0  0  0  0  0  0  0  0  0
  139.1310   67.3950  226.7690 F   0  0  0  0  0  0  0  0  0  0  0  0
  140.0620   69.7430  225.4980 C   0  0  0  0  0  0  0  0  0  0  0  0
  137.8184   74.0025  220.4079 H   0  0  0  0  0  0  0  0  0  0  0  0
  138.0144   75.6558  221.1579 H   0  0  0  0  0  0  0  0  0  0  0  0
  138.4907   75.6087  218.7380 H   0  0  0  0  0  0  0  0  0  0  0  0
  139.8693   76.1405  219.7280 H   0  0  0  0  0  0  0  0  0  0  0  0
  139.5157   73.1688  219.1631 H   0  0  0  0  0  0  0  0  0  0  0  0
  140.1856   74.2986  217.8648 H   0  0  0  0  0  0  0  0  0  0  0  0
  143.0073   75.9245  219.5766 H   0  0  0  0  0  0  0  0  0  0  0  0
  145.2906   75.6827  220.4929 H   0  0  0  0  0  0  0  0  0  0  0  0
  144.5321   71.5100  221.2599 H   0  0  0  0  0  0  0  0  0  0  0  0
  138.5140   72.2700  221.5340 H   0  0  0  0  0  0  0  0  0  0  0  0
  138.8989   70.7570  223.4003 H   0  0  0  0  0  0  0  0  0  0  0  0
  140.8085   72.9858  225.7481 H   0  0  0  0  0  0  0  0  0  0  0  0
  141.5514   72.2759  227.9760 H   0  0  0  0  0  0  0  0  0  0  0  0
  141.3448   69.8905  228.6586 H   0  0  0  0  0  0  0  0  0  0  0  0
  139.6388   68.9987  224.8074 H   0  0  0  0  0  0  0  0  0  0  0  0
  1  2  2  0
  2  3  1  0
  3  4  1  0
  4  5  1  0
  5  6  1  0
  6  7  1  0
  7  8  2  0
  8  9  1  0
  9 10  2  0
 10 11  1  0
 10 12  1  0
 12 13  2  0
 13 14  1  0
  2 15  1  0
 15 16  1  0
 16 17  2  0
 17 18  1  0
 18 19  2  0
 19 20  1  0
 20 21  2  0
 21 22  1  0
 22 23  1  0
 23 24  1  0
 23 25  1  0
 23 26  1  0
 22 27  2  0
 13  7  1  0
 27 18  1  0
  3 28  1  0
  3 29  1  0
  4 30  1  0
  4 31  1  0
  5 32  1  0
  5 33  1  0
  8 34  1  0
  9 35  1  0
 12 36  1  0
 15 37  1  0
 17 38  1  0
 19 39  1  0
 20 40  1  0
 21 41  1  0
 27 42  1  0
M  END
>  <smiles>  (59) 
O=C(CCCOc1ccc(Cl)cc1Cl)NN=Cc1cccc(C(F)(F)F)c1

>  <score_type>  (59) 
oracle

>  <origin>  (59) 
autodockgpu

>  <m_score__min__energy>  (59) 
-7.79

>  <m_primary>  (59) 
energy

>  <rmsd>  (59) 
9.514840665907014

>  <m_score__min__rmsd>  (59) 
9.514840665907014

>  <meeko>  (59) 
{"free_energy": -6.33, "intermolecular_energy": -9.01, "internal_energy": -1.42, "cluster_size": 8, "cluster_id": 3, "rank_in_cluster": 4}

>  <energy>  (59) 
-6.74

>  <cluster_rmsd>  (59) 
1.83

>  <cluster>  (59) 
1

$$$$

     RDKit          3D

 42 43  0  0  1  0  0  0  0  0999 V2000
  140.7750   72.6490  220.4640 O   0  0  0  0  0  0  0  0  0  0  0  0
  139.7930   73.1900  221.0350 C   0  0  0  0  0  0  0  0  0  0  0  0
  138.6950   73.8590  220.2940 C   0  0  0  0  0  0  0  0  0  0  0  0
  137.3420   73.5090  220.8030 C   0  0  0  0  0  0  0  0  0  0  0  0
  136.9600   74.5830  221.8530 C   0  0  0  0  0  0  0  0  0  0  0  0
  137.8580   75.4870  222.0950 O   0  0  0  0  0  0  0  0  0  0  0  0
  138.7460   76.3760  222.3330 C   0  0  0  0  0  0  0  0  0  0  0  0
  140.1190   76.0980  222.2920 C   0  0  0  0  0  0  0  0  0  0  0  0
  141.0730   77.0530  222.5480 C   0  0  0  0  0  0  0  0  0  0  0  0
  140.6420   78.3180  222.8550 C   0  0  0  0  0  0  0  0  0  0  0  0
  141.8380   79.5400  223.1830 Cl  0  0  0  0  0  0  0  0  0  0  0  0
  139.3190   78.6690  222.9160 C   0  0  0  0  0  0  0  0  0  0  0  0
  138.3890   77.6970  222.6550 C   0  0  0  0  0  0  0  0  0  0  0  0
  136.6910   78.0840  222.7180 Cl  0  0  0  0  0  0  0  0  0  0  0  0
  139.6650   73.1950  222.4770 N   0  0  0  0  0  0  0  0  0  0  0  0
  140.6560   72.5880  223.1940 N   0  0  0  0  0  0  0  0  0  0  0  0
  140.4570   71.5430  223.8750 C   0  0  0  0  0  0  0  0  0  0  0  0
  140.6730   71.2870  225.2690 C   0  0  0  0  0  0  0  0  0  0  0  0
  141.0600   72.1720  226.2320 C   0  0  0  0  0  0  0  0  0  0  0  0
  141.2540   71.8380  227.5660 C   0  0  0  0  0  0  0  0  0  0  0  0
  141.0550   70.5530  227.9830 C   0  0  0  0  0  0  0  0  0  0  0  0
  140.6630   69.6380  227.0280 C   0  0  0  0  0  0  0  0  0  0  0  0
  140.4440   68.2430  227.4570 C   0  0  0  0  0  0  0  0  0  0  0  0
  140.3820   68.1790  228.8350 F   0  0  0  0  0  0  0  0  0  0  0  0
  139.2310   67.7790  226.9460 F   0  0  0  0  0  0  0  0  0  0  0  0
  141.4110   67.3850  226.9620 F   0  0  0  0  0  0  0  0  0  0  0  0
  140.4720   69.9740  225.7090 C   0  0  0  0  0  0  0  0  0  0  0  0
  138.8291   74.9475  220.3791 H   0  0  0  0  0  0  0  0  0  0  0  0
  138.7494   73.5146  219.2507 H   0  0  0  0  0  0  0  0  0  0  0  0
  136.6153   73.5129  219.9773 H   0  0  0  0  0  0  0  0  0  0  0  0
  137.3393   72.5043  221.2508 H   0  0  0  0  0  0  0  0  0  0  0  0
  136.0545   75.0954  221.4960 H   0  0  0  0  0  0  0  0  0  0  0  0
  136.8259   74.0379  222.7990 H   0  0  0  0  0  0  0  0  0  0  0  0
  140.4451   75.0768  222.0456 H   0  0  0  0  0  0  0  0  0  0  0  0
  142.1453   76.8112  222.5081 H   0  0  0  0  0  0  0  0  0  0  0  0
  139.0138   79.6958  223.1659 H   0  0  0  0  0  0  0  0  0  0  0  0
  138.8350   73.6760  222.9380 H   0  0  0  0  0  0  0  0  0  0  0  0
  140.0528   70.6922  223.3069 H   0  0  0  0  0  0  0  0  0  0  0  0
  141.2292   73.2170  225.9330 H   0  0  0  0  0  0  0  0  0  0  0  0
  141.5677   72.6080  228.2862 H   0  0  0  0  0  0  0  0  0  0  0  0
  141.2007   70.2606  229.0334 H   0  0  0  0  0  0  0  0  0  0  0  0
  140.1576   69.2020  224.9912 H   0  0  0  0  0  0  0  0  0  0  0  0
  1  2  2  0
  2  3  1  0
  3  4  1  0
  4  5  1  0
  5  6  1  0
  6  7  1  0
  7  8  2  0
  8  9  1  0
  9 10  2  0
 10 11  1  0
 10 12  1  0
 12 13  2  0
 13 14  1  0
  2 15  1  0
 15 16  1  0
 16 17  2  0
 17 18  1  0
 18 19  2  0
 19 20  1  0
 20 21  2  0
 21 22  1  0
 22 23  1  0
 23 24  1  0
 23 25  1  0
 23 26  1  0
 22 27  2  0
 13  7  1  0
 27 18  1  0
  3 28  1  0
  3 29  1  0
  4 30  1  0
  4 31  1  0
  5 32  1  0
  5 33  1  0
  8 34  1  0
  9 35  1  0
 12 36  1  0
 15 37  1  0
 17 38  1  0
 19 39  1  0
 20 40  1  0
 21 41  1  0
 27 42  1  0
M  END
>  <smiles>  (60) 
O=C(CCCOc1ccc(Cl)cc1Cl)NN=Cc1cccc(C(F)(F)F)c1

>  <score_type>  (60) 
oracle

>  <origin>  (60) 
autodockgpu

>  <m_score__min__energy>  (60) 
-7.79

>  <m_primary>  (60) 
energy

>  <rmsd>  (60) 
7.264846108430413

>  <m_score__min__rmsd>  (60) 
7.264846108430413

>  <meeko>  (60) 
{"free_energy": -6.62, "intermolecular_energy": -9.3, "internal_energy": -1.58, "cluster_size": 13, "cluster_id": 1, "rank_in_cluster": 11}

>  <energy>  (60) 
-6.66

>  <cluster_rmsd>  (60) 
1.12

>  <cluster>  (60) 
1

$$$$

     RDKit          3D

 42 43  0  0  1  0  0  0  0  0999 V2000
  139.6890   71.9010  224.1540 O   0  0  0  0  0  0  0  0  0  0  0  0
  140.0590   71.1870  223.1860 C   0  0  0  0  0  0  0  0  0  0  0  0
  141.0250   71.6540  222.1600 C   0  0  0  0  0  0  0  0  0  0  0  0
  140.4390   72.6220  221.1960 C   0  0  0  0  0  0  0  0  0  0  0  0
  139.5820   73.6180  222.0180 C   0  0  0  0  0  0  0  0  0  0  0  0
  139.9590   74.8590  221.9800 O   0  0  0  0  0  0  0  0  0  0  0  0
  140.3270   76.0830  221.9430 C   0  0  0  0  0  0  0  0  0  0  0  0
  139.7120   77.0770  222.7160 C   0  0  0  0  0  0  0  0  0  0  0  0
  140.1070   78.3930  222.6760 C   0  0  0  0  0  0  0  0  0  0  0  0
  141.1420   78.7220  221.8400 C   0  0  0  0  0  0  0  0  0  0  0  0
  141.6550   80.3840  221.7760 Cl  0  0  0  0  0  0  0  0  0  0  0  0
  141.7940   77.8090  221.0520 C   0  0  0  0  0  0  0  0  0  0  0  0
  141.3800   76.5040  221.1120 C   0  0  0  0  0  0  0  0  0  0  0  0
  142.1710   75.2990  220.1340 Cl  0  0  0  0  0  0  0  0  0  0  0  0
  139.5620   69.8400  223.0050 N   0  0  0  0  0  0  0  0  0  0  0  0
  138.6720   69.3720  223.9290 N   0  0  0  0  0  0  0  0  0  0  0  0
  138.9970   68.5480  224.8280 C   0  0  0  0  0  0  0  0  0  0  0  0
  139.7540   68.7350  226.0310 C   0  0  0  0  0  0  0  0  0  0  0  0
  140.3020   67.7760  226.8320 C   0  0  0  0  0  0  0  0  0  0  0  0
  141.0180   68.0440  227.9910 C   0  0  0  0  0  0  0  0  0  0  0  0
  141.2100   69.3350  228.3910 C   0  0  0  0  0  0  0  0  0  0  0  0
  140.6660   70.3240  227.5980 C   0  0  0  0  0  0  0  0  0  0  0  0
  140.8620   71.7270  228.0120 C   0  0  0  0  0  0  0  0  0  0  0  0
  141.0280   72.5270  226.8990 F   0  0  0  0  0  0  0  0  0  0  0  0
  139.7360   72.1730  228.7050 F   0  0  0  0  0  0  0  0  0  0  0  0
  141.9230   71.8690  228.8910 F   0  0  0  0  0  0  0  0  0  0  0  0
  139.9580   70.0530  226.4510 C   0  0  0  0  0  0  0  0  0  0  0  0
  141.8698   72.1388  222.6712 H   0  0  0  0  0  0  0  0  0  0  0  0
  141.3395   70.7713  221.5839 H   0  0  0  0  0  0  0  0  0  0  0  0
  141.2395   73.1597  220.6669 H   0  0  0  0  0  0  0  0  0  0  0  0
  139.8256   72.1043  220.4438 H   0  0  0  0  0  0  0  0  0  0  0  0
  138.5508   73.5678  221.6383 H   0  0  0  0  0  0  0  0  0  0  0  0
  139.6910   73.3070  223.0675 H   0  0  0  0  0  0  0  0  0  0  0  0
  138.8819   76.7935  223.3798 H   0  0  0  0  0  0  0  0  0  0  0  0
  139.6097   79.1555  223.2935 H   0  0  0  0  0  0  0  0  0  0  0  0
  142.6212   78.1136  220.3940 H   0  0  0  0  0  0  0  0  0  0  0  0
  139.8750   69.2620  222.1670 H   0  0  0  0  0  0  0  0  0  0  0  0
  138.6421   67.5202  224.6616 H   0  0  0  0  0  0  0  0  0  0  0  0
  140.1680   66.7237  226.5411 H   0  0  0  0  0  0  0  0  0  0  0  0
  141.4304   67.2163  228.5867 H   0  0  0  0  0  0  0  0  0  0  0  0
  141.7732   69.5758  229.3047 H   0  0  0  0  0  0  0  0  0  0  0  0
  139.5473   70.8826  225.8569 H   0  0  0  0  0  0  0  0  0  0  0  0
  1  2  2  0
  2  3  1  0
  3  4  1  0
  4  5  1  0
  5  6  1  0
  6  7  1  0
  7  8  2  0
  8  9  1  0
  9 10  2  0
 10 11  1  0
 10 12  1  0
 12 13  2  0
 13 14  1  0
  2 15  1  0
 15 16  1  0
 16 17  2  0
 17 18  1  0
 18 19  2  0
 19 20  1  0
 20 21  2  0
 21 22  1  0
 22 23  1  0
 23 24  1  0
 23 25  1  0
 23 26  1  0
 22 27  2  0
 13  7  1  0
 27 18  1  0
  3 28  1  0
  3 29  1  0
  4 30  1  0
  4 31  1  0
  5 32  1  0
  5 33  1  0
  8 34  1  0
  9 35  1  0
 12 36  1  0
 15 37  1  0
 17 38  1  0
 19 39  1  0
 20 40  1  0
 21 41  1  0
 27 42  1  0
M  END
>  <smiles>  (61) 
O=C(CCCOc1ccc(Cl)cc1Cl)NN=Cc1cccc(C(F)(F)F)c1

>  <score_type>  (61) 
oracle

>  <origin>  (61) 
autodockgpu

>  <m_score__min__energy>  (61) 
-7.79

>  <m_primary>  (61) 
energy

>  <rmsd>  (61) 
7.351369023736232

>  <m_score__min__rmsd>  (61) 
7.351369023736232

>  <meeko>  (61) 
{"free_energy": -6.91, "intermolecular_energy": -9.59, "internal_energy": -0.94, "cluster_size": 5, "cluster_id": 2, "rank_in_cluster": 3}

>  <energy>  (61) 
-6.62

>  <cluster_rmsd>  (61) 
1.22

>  <cluster>  (61) 
1

$$$$

     RDKit          3D

 42 43  0  0  1  0  0  0  0  0999 V2000
  140.1630   73.0180  220.1610 O   0  0  0  0  0  0  0  0  0  0  0  0
  139.5310   73.8200  220.8970 C   0  0  0  0  0  0  0  0  0  0  0  0
  138.6690   74.9030  220.3600 C   0  0  0  0  0  0  0  0  0  0  0  0
  137.2700   74.8440  220.8580 C   0  0  0  0  0  0  0  0  0  0  0  0
  137.2600   75.4990  222.2620 C   0  0  0  0  0  0  0  0  0  0  0  0
  138.1790   76.3880  222.4830 O   0  0  0  0  0  0  0  0  0  0  0  0
  139.0860   77.2620  222.6980 C   0  0  0  0  0  0  0  0  0  0  0  0
  140.4530   76.9500  222.6680 C   0  0  0  0  0  0  0  0  0  0  0  0
  141.4290   77.8890  222.9000 C   0  0  0  0  0  0  0  0  0  0  0  0
  141.0270   79.1720  223.1710 C   0  0  0  0  0  0  0  0  0  0  0  0
  142.2510   80.3740  223.4680 Cl  0  0  0  0  0  0  0  0  0  0  0  0
  139.7120   79.5560  223.2190 C   0  0  0  0  0  0  0  0  0  0  0  0
  138.7600   78.5990  222.9830 C   0  0  0  0  0  0  0  0  0  0  0  0
  137.0720   79.0270  223.0310 Cl  0  0  0  0  0  0  0  0  0  0  0  0
  139.6030   73.7410  222.3400 N   0  0  0  0  0  0  0  0  0  0  0  0
  140.3850   72.7570  222.8740 N   0  0  0  0  0  0  0  0  0  0  0  0
  139.9370   71.6110  223.1540 C   0  0  0  0  0  0  0  0  0  0  0  0
  139.9170   70.8990  224.3980 C   0  0  0  0  0  0  0  0  0  0  0  0
  139.4590   69.6350  224.6320 C   0  0  0  0  0  0  0  0  0  0  0  0
  139.4710   69.0180  225.8760 C   0  0  0  0  0  0  0  0  0  0  0  0
  139.9630   69.6830  226.9620 C   0  0  0  0  0  0  0  0  0  0  0  0
  140.4330   70.9630  226.7520 C   0  0  0  0  0  0  0  0  0  0  0  0
  140.9700   71.7000  227.9140 C   0  0  0  0  0  0  0  0  0  0  0  0
  139.9320   72.1930  228.6790 F   0  0  0  0  0  0  0  0  0  0  0  0
  141.7250   70.8370  228.7090 F   0  0  0  0  0  0  0  0  0  0  0  0
  141.8340   72.7140  227.5360 F   0  0  0  0  0  0  0  0  0  0  0  0
  140.4200   71.5680  225.5190 C   0  0  0  0  0  0  0  0  0  0  0  0
  139.1026   75.8710  220.6515 H   0  0  0  0  0  0  0  0  0  0  0  0
  138.6311   74.7771  219.2679 H   0  0  0  0  0  0  0  0  0  0  0  0
  136.6038   75.3963  220.1789 H   0  0  0  0  0  0  0  0  0  0  0  0
  136.9150   73.8041  220.9079 H   0  0  0  0  0  0  0  0  0  0  0  0
  136.2826   75.9845  222.3996 H   0  0  0  0  0  0  0  0  0  0  0  0
  137.4618   74.6824  222.9708 H   0  0  0  0  0  0  0  0  0  0  0  0
  140.7552   75.9149  222.4506 H   0  0  0  0  0  0  0  0  0  0  0  0
  142.4954   77.6211  222.8694 H   0  0  0  0  0  0  0  0  0  0  0  0
  139.4307   80.5963  223.4393 H   0  0  0  0  0  0  0  0  0  0  0  0
  139.0760   74.4430  222.9420 H   0  0  0  0  0  0  0  0  0  0  0  0
  139.4895   71.0711  222.3065 H   0  0  0  0  0  0  0  0  0  0  0  0
  139.0543   69.0684  223.7804 H   0  0  0  0  0  0  0  0  0  0  0  0
  139.0843   67.9941  225.9863 H   0  0  0  0  0  0  0  0  0  0  0  0
  139.9838   69.2193  227.9593 H   0  0  0  0  0  0  0  0  0  0  0  0
  140.8098   72.5910  225.4116 H   0  0  0  0  0  0  0  0  0  0  0  0
  1  2  2  0
  2  3  1  0
  3  4  1  0
  4  5  1  0
  5  6  1  0
  6  7  1  0
  7  8  2  0
  8  9  1  0
  9 10  2  0
 10 11  1  0
 10 12  1  0
 12 13  2  0
 13 14  1  0
  2 15  1  0
 15 16  1  0
 16 17  2  0
 17 18  1  0
 18 19  2  0
 19 20  1  0
 20 21  2  0
 21 22  1  0
 22 23  1  0
 23 24  1  0
 23 25  1  0
 23 26  1  0
 22 27  2  0
 13  7  1  0
 27 18  1  0
  3 28  1  0
  3 29  1  0
  4 30  1  0
  4 31  1  0
  5 32  1  0
  5 33  1  0
  8 34  1  0
  9 35  1  0
 12 36  1  0
 15 37  1  0
 17 38  1  0
 19 39  1  0
 20 40  1  0
 21 41  1  0
 27 42  1  0
M  END
>  <smiles>  (62) 
O=C(CCCOc1ccc(Cl)cc1Cl)NN=Cc1cccc(C(F)(F)F)c1

>  <score_type>  (62) 
oracle

>  <origin>  (62) 
autodockgpu

>  <m_score__min__energy>  (62) 
-7.79

>  <m_primary>  (62) 
energy

>  <rmsd>  (62) 
6.694430752965874

>  <m_score__min__rmsd>  (62) 
6.694430752965874

>  <meeko>  (62) 
{"free_energy": -6.74, "intermolecular_energy": -9.42, "internal_energy": -1.58, "cluster_size": 13, "cluster_id": 1, "rank_in_cluster": 9}

>  <energy>  (62) 
-6.52

>  <cluster_rmsd>  (62) 
1.94

>  <cluster>  (62) 
1

$$$$

     RDKit          3D

 42 43  0  0  1  0  0  0  0  0999 V2000
  141.2450   75.3750  221.4550 O   0  0  0  0  0  0  0  0  0  0  0  0
  140.0450   75.3000  221.8240 C   0  0  0  0  0  0  0  0  0  0  0  0
  139.0940   76.4360  221.7190 C   0  0  0  0  0  0  0  0  0  0  0  0
  137.7610   76.0430  221.1920 C   0  0  0  0  0  0  0  0  0  0  0  0
  136.7870   76.0150  222.3970 C   0  0  0  0  0  0  0  0  0  0  0  0
  136.4670   74.8390  222.8430 O   0  0  0  0  0  0  0  0  0  0  0  0
  136.1510   73.6830  223.2860 C   0  0  0  0  0  0  0  0  0  0  0  0
  136.5850   72.4980  222.6730 C   0  0  0  0  0  0  0  0  0  0  0  0
  136.2460   71.2540  223.1480 C   0  0  0  0  0  0  0  0  0  0  0  0
  135.4510   71.1940  224.2640 C   0  0  0  0  0  0  0  0  0  0  0  0
  135.0110   69.6260  224.8800 Cl  0  0  0  0  0  0  0  0  0  0  0  0
  134.9860   72.3050  224.9200 C   0  0  0  0  0  0  0  0  0  0  0  0
  135.3410   73.5320  224.4240 C   0  0  0  0  0  0  0  0  0  0  0  0
  134.7800   74.9800  225.2150 Cl  0  0  0  0  0  0  0  0  0  0  0  0
  139.4990   74.0830  222.3850 N   0  0  0  0  0  0  0  0  0  0  0  0
  140.3420   73.0140  222.4980 N   0  0  0  0  0  0  0  0  0  0  0  0
  139.9240   71.8410  222.7040 C   0  0  0  0  0  0  0  0  0  0  0  0
  139.7630   71.1140  223.9290 C   0  0  0  0  0  0  0  0  0  0  0  0
  139.0830   69.9470  224.1270 C   0  0  0  0  0  0  0  0  0  0  0  0
  138.9690   69.3090  225.3540 C   0  0  0  0  0  0  0  0  0  0  0  0
  139.5610   69.8470  226.4600 C   0  0  0  0  0  0  0  0  0  0  0  0
  140.2560   71.0270  226.2880 C   0  0  0  0  0  0  0  0  0  0  0  0
  140.9030   71.6270  227.4710 C   0  0  0  0  0  0  0  0  0  0  0  0
  141.8470   72.5530  227.0720 F   0  0  0  0  0  0  0  0  0  0  0  0
  139.9480   72.2850  228.2460 F   0  0  0  0  0  0  0  0  0  0  0  0
  141.4640   70.6700  228.3010 F   0  0  0  0  0  0  0  0  0  0  0  0
  140.3650   71.6540  225.0700 C   0  0  0  0  0  0  0  0  0  0  0  0
  138.9587   76.8712  222.7202 H   0  0  0  0  0  0  0  0  0  0  0  0
  139.5251   77.1558  221.0076 H   0  0  0  0  0  0  0  0  0  0  0  0
  137.4186   76.7758  220.4466 H   0  0  0  0  0  0  0  0  0  0  0  0
  137.8073   75.0592  220.7021 H   0  0  0  0  0  0  0  0  0  0  0  0
  137.2561   76.5715  223.2218 H   0  0  0  0  0  0  0  0  0  0  0  0
  135.8493   76.4583  222.0306 H   0  0  0  0  0  0  0  0  0  0  0  0
  137.2209   72.5674  221.7781 H   0  0  0  0  0  0  0  0  0  0  0  0
  136.5997   70.3387  222.6508 H   0  0  0  0  0  0  0  0  0  0  0  0
  134.3503   72.2143  225.8131 H   0  0  0  0  0  0  0  0  0  0  0  0
  138.4860   74.0500  222.7090 H   0  0  0  0  0  0  0  0  0  0  0  0
  139.6371   71.2875  221.7977 H   0  0  0  0  0  0  0  0  0  0  0  0
  138.5940   69.4825  223.2580 H   0  0  0  0  0  0  0  0  0  0  0  0
  138.4018   68.3700  225.4353 H   0  0  0  0  0  0  0  0  0  0  0  0
  139.4875   69.3618  227.4445 H   0  0  0  0  0  0  0  0  0  0  0  0
  140.9331   72.5927  224.9915 H   0  0  0  0  0  0  0  0  0  0  0  0
  1  2  2  0
  2  3  1  0
  3  4  1  0
  4  5  1  0
  5  6  1  0
  6  7  1  0
  7  8  2  0
  8  9  1  0
  9 10  2  0
 10 11  1  0
 10 12  1  0
 12 13  2  0
 13 14  1  0
  2 15  1  0
 15 16  1  0
 16 17  2  0
 17 18  1  0
 18 19  2  0
 19 20  1  0
 20 21  2  0
 21 22  1  0
 22 23  1  0
 23 24  1  0
 23 25  1  0
 23 26  1  0
 22 27  2  0
 13  7  1  0
 27 18  1  0
  3 28  1  0
  3 29  1  0
  4 30  1  0
  4 31  1  0
  5 32  1  0
  5 33  1  0
  8 34  1  0
  9 35  1  0
 12 36  1  0
 15 37  1  0
 17 38  1  0
 19 39  1  0
 20 40  1  0
 21 41  1  0
 27 42  1  0
M  END
>  <smiles>  (63) 
O=C(CCCOc1ccc(Cl)cc1Cl)NN=Cc1cccc(C(F)(F)F)c1

>  <score_type>  (63) 
oracle

>  <origin>  (63) 
autodockgpu

>  <m_score__min__energy>  (63) 
-7.79

>  <m_primary>  (63) 
energy

>  <rmsd>  (63) 
10.380069178596061

>  <m_score__min__rmsd>  (63) 
10.380069178596061

>  <meeko>  (63) 
{"free_energy": -5.46, "intermolecular_energy": -8.14, "internal_energy": -2.47, "cluster_size": 13, "cluster_id": 6, "rank_in_cluster": 12}

>  <energy>  (63) 
-6.35

>  <cluster_rmsd>  (63) 
1.89

>  <cluster>  (63) 
1

$$$$

     RDKit          3D

 42 43  0  0  1  0  0  0  0  0999 V2000
  139.8540   75.7650  222.5520 O   0  0  0  0  0  0  0  0  0  0  0  0
  140.0110   75.0710  221.5140 C   0  0  0  0  0  0  0  0  0  0  0  0
  140.1380   75.6610  220.1580 C   0  0  0  0  0  0  0  0  0  0  0  0
  139.4030   74.9010  219.1130 C   0  0  0  0  0  0  0  0  0  0  0  0
  140.3840   73.8430  218.5480 C   0  0  0  0  0  0  0  0  0  0  0  0
  141.5380   73.7650  219.1350 O   0  0  0  0  0  0  0  0  0  0  0  0
  142.6760   73.6930  219.7130 C   0  0  0  0  0  0  0  0  0  0  0  0
  143.5280   74.7990  219.8390 C   0  0  0  0  0  0  0  0  0  0  0  0
  144.7520   74.7220  220.4590 C   0  0  0  0  0  0  0  0  0  0  0  0
  145.1330   73.5070  220.9660 C   0  0  0  0  0  0  0  0  0  0  0  0
  146.6800   73.3900  221.7560 Cl  0  0  0  0  0  0  0  0  0  0  0  0
  144.3580   72.3780  220.8840 C   0  0  0  0  0  0  0  0  0  0  0  0
  143.1430   72.4850  220.2600 C   0  0  0  0  0  0  0  0  0  0  0  0
  142.1130   71.0850  220.1240 Cl  0  0  0  0  0  0  0  0  0  0  0  0
  140.0800   73.6260  221.5720 N   0  0  0  0  0  0  0  0  0  0  0  0
  139.9680   73.0440  222.8020 N   0  0  0  0  0  0  0  0  0  0  0  0
  140.3260   71.8540  223.0240 C   0  0  0  0  0  0  0  0  0  0  0  0
  140.2810   71.0800  224.2300 C   0  0  0  0  0  0  0  0  0  0  0  0
  139.9040   69.7760  224.3730 C   0  0  0  0  0  0  0  0  0  0  0  0
  139.8820   69.0990  225.5850 C   0  0  0  0  0  0  0  0  0  0  0  0
  140.2550   69.7410  226.7310 C   0  0  0  0  0  0  0  0  0  0  0  0
  140.6420   71.0600  226.6140 C   0  0  0  0  0  0  0  0  0  0  0  0
  141.0480   71.7720  227.8410 C   0  0  0  0  0  0  0  0  0  0  0  0
  139.9330   72.2580  228.4940 F   0  0  0  0  0  0  0  0  0  0  0  0
  141.7040   70.8900  228.7000 F   0  0  0  0  0  0  0  0  0  0  0  0
  141.9540   72.7860  227.5810 F   0  0  0  0  0  0  0  0  0  0  0  0
  140.6610   71.7250  225.4110 C   0  0  0  0  0  0  0  0  0  0  0  0
  139.7429   76.6872  220.1857 H   0  0  0  0  0  0  0  0  0  0  0  0
  141.2045   75.6336  219.8902 H   0  0  0  0  0  0  0  0  0  0  0  0
  138.5254   74.4053  219.5534 H   0  0  0  0  0  0  0  0  0  0  0  0
  139.0477   75.5716  218.3168 H   0  0  0  0  0  0  0  0  0  0  0  0
  139.8992   72.8588  218.6272 H   0  0  0  0  0  0  0  0  0  0  0  0
  140.5976   74.1588  217.5162 H   0  0  0  0  0  0  0  0  0  0  0  0
  143.2044   75.7657  219.4257 H   0  0  0  0  0  0  0  0  0  0  0  0
  145.4030   75.6044  220.5453 H   0  0  0  0  0  0  0  0  0  0  0  0
  144.7000   71.4207  221.3044 H   0  0  0  0  0  0  0  0  0  0  0  0
  140.1930   73.0600  220.6780 H   0  0  0  0  0  0  0  0  0  0  0  0
  140.7389   71.3259  222.1518 H   0  0  0  0  0  0  0  0  0  0  0  0
  139.5981   69.2264  223.4705 H   0  0  0  0  0  0  0  0  0  0  0  0
  139.5644   68.0465  225.6220 H   0  0  0  0  0  0  0  0  0  0  0  0
  140.2473   69.2290  227.7046 H   0  0  0  0  0  0  0  0  0  0  0  0
  140.9790   72.7775  225.3770 H   0  0  0  0  0  0  0  0  0  0  0  0
  1  2  2  0
  2  3  1  0
  3  4  1  0
  4  5  1  0
  5  6  1  0
  6  7  1  0
  7  8  2  0
  8  9  1  0
  9 10  2  0
 10 11  1  0
 10 12  1  0
 12 13  2  0
 13 14  1  0
  2 15  1  0
 15 16  1  0
 16 17  2  0
 17 18  1  0
 18 19  2  0
 19 20  1  0
 20 21  2  0
 21 22  1  0
 22 23  1  0
 23 24  1  0
 23 25  1  0
 23 26  1  0
 22 27  2  0
 13  7  1  0
 27 18  1  0
  3 28  1  0
  3 29  1  0
  4 30  1  0
  4 31  1  0
  5 32  1  0
  5 33  1  0
  8 34  1  0
  9 35  1  0
 12 36  1  0
 15 37  1  0
 17 38  1  0
 19 39  1  0
 20 40  1  0
 21 41  1  0
 27 42  1  0
M  END
>  <smiles>  (64) 
O=C(CCCOc1ccc(Cl)cc1Cl)NN=Cc1cccc(C(F)(F)F)c1

>  <score_type>  (64) 
oracle

>  <origin>  (64) 
autodockgpu

>  <m_score__min__energy>  (64) 
-7.79

>  <m_primary>  (64) 
energy

>  <rmsd>  (64) 
9.738735510582986

>  <m_score__min__rmsd>  (64) 
9.738735510582986

>  <meeko>  (64) 
{"free_energy": -6.18, "intermolecular_energy": -8.87, "internal_energy": -2.05, "cluster_size": 8, "cluster_id": 3, "rank_in_cluster": 5}

>  <energy>  (64) 
-7.42

>  <cluster_rmsd>  (64) 
0.0

>  <cluster>  (64) 
2

$$$$

     RDKit          3D

 42 43  0  0  1  0  0  0  0  0999 V2000
  141.4000   74.1980  221.4300 O   0  0  0  0  0  0  0  0  0  0  0  0
  140.1690   74.2160  221.6890 C   0  0  0  0  0  0  0  0  0  0  0  0
  139.2250   75.1760  221.0630 C   0  0  0  0  0  0  0  0  0  0  0  0
  138.4310   74.5840  219.9540 C   0  0  0  0  0  0  0  0  0  0  0  0
  137.4470   73.5710  220.5910 C   0  0  0  0  0  0  0  0  0  0  0  0
  136.8380   73.9670  221.6650 O   0  0  0  0  0  0  0  0  0  0  0  0
  136.2340   74.3570  222.7220 C   0  0  0  0  0  0  0  0  0  0  0  0
  136.0120   75.7120  223.0060 C   0  0  0  0  0  0  0  0  0  0  0  0
  135.3630   76.1320  224.1420 C   0  0  0  0  0  0  0  0  0  0  0  0
  134.9270   75.1720  225.0180 C   0  0  0  0  0  0  0  0  0  0  0  0
  134.1040   75.6850  226.4630 Cl  0  0  0  0  0  0  0  0  0  0  0  0
  135.1060   73.8280  224.8140 C   0  0  0  0  0  0  0  0  0  0  0  0
  135.7550   73.4380  223.6720 C   0  0  0  0  0  0  0  0  0  0  0  0
  136.0110   71.7430  223.3570 Cl  0  0  0  0  0  0  0  0  0  0  0  0
  139.5790   73.2870  222.6290 N   0  0  0  0  0  0  0  0  0  0  0  0
  140.4140   72.3870  223.2260 N   0  0  0  0  0  0  0  0  0  0  0  0
  139.9930   71.4760  223.9920 C   0  0  0  0  0  0  0  0  0  0  0  0
  140.3350   71.1730  225.3510 C   0  0  0  0  0  0  0  0  0  0  0  0
  140.7280   72.0400  226.3280 C   0  0  0  0  0  0  0  0  0  0  0  0
  141.0490   71.6610  227.6250 C   0  0  0  0  0  0  0  0  0  0  0  0
  140.9810   70.3460  227.9870 C   0  0  0  0  0  0  0  0  0  0  0  0
  140.5850   69.4480  227.0170 C   0  0  0  0  0  0  0  0  0  0  0  0
  140.5050   68.0220  227.3880 C   0  0  0  0  0  0  0  0  0  0  0  0
  139.2110   67.5670  227.2290 F   0  0  0  0  0  0  0  0  0  0  0  0
  141.3360   67.2720  226.5540 F   0  0  0  0  0  0  0  0  0  0  0  0
  140.9590   67.7900  228.6750 F   0  0  0  0  0  0  0  0  0  0  0  0
  140.2680   69.8300  225.7350 C   0  0  0  0  0  0  0  0  0  0  0  0
  138.5301   75.5363  221.8359 H   0  0  0  0  0  0  0  0  0  0  0  0
  139.8268   75.9904  220.6333 H   0  0  0  0  0  0  0  0  0  0  0  0
  137.8731   75.3718  219.4266 H   0  0  0  0  0  0  0  0  0  0  0  0
  139.0868   74.0876  219.2235 H   0  0  0  0  0  0  0  0  0  0  0  0
  136.6808   73.3286  219.8399 H   0  0  0  0  0  0  0  0  0  0  0  0
  138.0633   72.7136  220.8993 H   0  0  0  0  0  0  0  0  0  0  0  0
  136.3711   76.4678  222.2920 H   0  0  0  0  0  0  0  0  0  0  0  0
  135.1991   77.2013  224.3415 H   0  0  0  0  0  0  0  0  0  0  0  0
  134.7412   73.0884  225.5420 H   0  0  0  0  0  0  0  0  0  0  0  0
  138.5380   73.3350  222.8460 H   0  0  0  0  0  0  0  0  0  0  0  0
  139.2430   70.8070  223.5448 H   0  0  0  0  0  0  0  0  0  0  0  0
  140.7950   73.1078  226.0722 H   0  0  0  0  0  0  0  0  0  0  0  0
  141.3576   72.4192  228.3598 H   0  0  0  0  0  0  0  0  0  0  0  0
  141.2308   70.0172  229.0066 H   0  0  0  0  0  0  0  0  0  0  0  0
  139.9579   69.0702  225.0025 H   0  0  0  0  0  0  0  0  0  0  0  0
  1  2  2  0
  2  3  1  0
  3  4  1  0
  4  5  1  0
  5  6  1  0
  6  7  1  0
  7  8  2  0
  8  9  1  0
  9 10  2  0
 10 11  1  0
 10 12  1  0
 12 13  2  0
 13 14  1  0
  2 15  1  0
 15 16  1  0
 16 17  2  0
 17 18  1  0
 18 19  2  0
 19 20  1  0
 20 21  2  0
 21 22  1  0
 22 23  1  0
 23 24  1  0
 23 25  1  0
 23 26  1  0
 22 27  2  0
 13  7  1  0
 27 18  1  0
  3 28  1  0
  3 29  1  0
  4 30  1  0
  4 31  1  0
  5 32  1  0
  5 33  1  0
  8 34  1  0
  9 35  1  0
 12 36  1  0
 15 37  1  0
 17 38  1  0
 19 39  1  0
 20 40  1  0
 21 41  1  0
 27 42  1  0
M  END
>  <smiles>  (65) 
O=C(CCCOc1ccc(Cl)cc1Cl)NN=Cc1cccc(C(F)(F)F)c1

>  <score_type>  (65) 
oracle

>  <origin>  (65) 
autodockgpu

>  <m_score__min__energy>  (65) 
-7.79

>  <m_primary>  (65) 
energy

>  <rmsd>  (65) 
9.693546048367446

>  <m_score__min__rmsd>  (65) 
9.693546048367446

>  <meeko>  (65) 
{"free_energy": -5.94, "intermolecular_energy": -8.63, "internal_energy": -1.92, "cluster_size": 13, "cluster_id": 6, "rank_in_cluster": 2}

>  <energy>  (65) 
-7.01

>  <cluster_rmsd>  (65) 
1.76

>  <cluster>  (65) 
2

$$$$

     RDKit          3D

 42 43  0  0  1  0  0  0  0  0999 V2000
  138.5040   71.6310  221.0630 O   0  0  0  0  0  0  0  0  0  0  0  0
  138.1280   72.6850  221.6360 C   0  0  0  0  0  0  0  0  0  0  0  0
  136.7150   73.1400  221.6480 C   0  0  0  0  0  0  0  0  0  0  0  0
  136.4160   74.1080  222.7350 C   0  0  0  0  0  0  0  0  0  0  0  0
  136.4250   75.5220  222.0990 C   0  0  0  0  0  0  0  0  0  0  0  0
  137.4920   76.2310  222.3050 O   0  0  0  0  0  0  0  0  0  0  0  0
  138.5420   76.9320  222.5050 C   0  0  0  0  0  0  0  0  0  0  0  0
  139.8350   76.4120  222.3510 C   0  0  0  0  0  0  0  0  0  0  0  0
  140.9630   77.1650  222.5670 C   0  0  0  0  0  0  0  0  0  0  0  0
  140.7940   78.4710  222.9480 C   0  0  0  0  0  0  0  0  0  0  0  0
  142.2140   79.4410  223.2260 Cl  0  0  0  0  0  0  0  0  0  0  0  0
  139.5650   79.0540  223.1200 C   0  0  0  0  0  0  0  0  0  0  0  0
  138.4570   78.2790  222.8980 C   0  0  0  0  0  0  0  0  0  0  0  0
  136.8670   78.9640  223.1010 Cl  0  0  0  0  0  0  0  0  0  0  0  0
  139.0620   73.5420  222.3360 N   0  0  0  0  0  0  0  0  0  0  0  0
  140.3720   73.1580  222.3490 N   0  0  0  0  0  0  0  0  0  0  0  0
  140.7560   72.0720  222.8650 C   0  0  0  0  0  0  0  0  0  0  0  0
  140.2310   71.3340  223.9760 C   0  0  0  0  0  0  0  0  0  0  0  0
  139.3060   70.3310  223.9530 C   0  0  0  0  0  0  0  0  0  0  0  0
  138.8440   69.6700  225.0830 C   0  0  0  0  0  0  0  0  0  0  0  0
  139.3180   70.0130  226.3160 C   0  0  0  0  0  0  0  0  0  0  0  0
  140.2550   71.0250  226.3680 C   0  0  0  0  0  0  0  0  0  0  0  0
  140.7800   71.4130  227.6920 C   0  0  0  0  0  0  0  0  0  0  0  0
  139.7450   71.8290  228.5050 F   0  0  0  0  0  0  0  0  0  0  0  0
  141.3910   70.3130  228.2940 F   0  0  0  0  0  0  0  0  0  0  0  0
  141.7630   72.3840  227.6000 F   0  0  0  0  0  0  0  0  0  0  0  0
  140.7090   71.6760  225.2460 C   0  0  0  0  0  0  0  0  0  0  0  0
  136.4951   73.6203  220.6831 H   0  0  0  0  0  0  0  0  0  0  0  0
  136.0894   72.2522  221.8226 H   0  0  0  0  0  0  0  0  0  0  0  0
  135.4278   73.8953  223.1688 H   0  0  0  0  0  0  0  0  0  0  0  0
  137.1614   74.0356  223.5407 H   0  0  0  0  0  0  0  0  0  0  0  0
  136.3045   75.4031  221.0121 H   0  0  0  0  0  0  0  0  0  0  0  0
  135.6052   76.0713  222.5850 H   0  0  0  0  0  0  0  0  0  0  0  0
  139.9502   75.3615  222.0457 H   0  0  0  0  0  0  0  0  0  0  0  0
  141.9673   76.7351  222.4387 H   0  0  0  0  0  0  0  0  0  0  0  0
  139.4718   80.1066  223.4254 H   0  0  0  0  0  0  0  0  0  0  0  0
  138.7230   74.4390  222.7960 H   0  0  0  0  0  0  0  0  0  0  0  0
  141.6356   71.6187  222.3845 H   0  0  0  0  0  0  0  0  0  0  0  0
  138.9005   70.0268  222.9767 H   0  0  0  0  0  0  0  0  0  0  0  0
  138.0958   68.8697  224.9846 H   0  0  0  0  0  0  0  0  0  0  0  0
  138.9689   69.5057  227.2274 H   0  0  0  0  0  0  0  0  0  0  0  0
  141.4574   72.4758  225.3475 H   0  0  0  0  0  0  0  0  0  0  0  0
  1  2  2  0
  2  3  1  0
  3  4  1  0
  4  5  1  0
  5  6  1  0
  6  7  1  0
  7  8  2  0
  8  9  1  0
  9 10  2  0
 10 11  1  0
 10 12  1  0
 12 13  2  0
 13 14  1  0
  2 15  1  0
 15 16  1  0
 16 17  2  0
 17 18  1  0
 18 19  2  0
 19 20  1  0
 20 21  2  0
 21 22  1  0
 22 23  1  0
 23 24  1  0
 23 25  1  0
 23 26  1  0
 22 27  2  0
 13  7  1  0
 27 18  1  0
  3 28  1  0
  3 29  1  0
  4 30  1  0
  4 31  1  0
  5 32  1  0
  5 33  1  0
  8 34  1  0
  9 35  1  0
 12 36  1  0
 15 37  1  0
 17 38  1  0
 19 39  1  0
 20 40  1  0
 21 41  1  0
 27 42  1  0
M  END
>  <smiles>  (66) 
O=C(CCCOc1ccc(Cl)cc1Cl)NN=Cc1cccc(C(F)(F)F)c1

>  <score_type>  (66) 
oracle

>  <origin>  (66) 
autodockgpu

>  <m_score__min__energy>  (66) 
-7.79

>  <m_primary>  (66) 
energy

>  <rmsd>  (66) 
6.75537453899469

>  <m_score__min__rmsd>  (66) 
6.75537453899469

>  <meeko>  (66) 
{"free_energy": -6.1, "intermolecular_energy": -8.79, "internal_energy": -1.65, "cluster_size": 1, "cluster_id": 5, "rank_in_cluster": 1}

>  <energy>  (66) 
-6.91

>  <cluster_rmsd>  (66) 
1.91

>  <cluster>  (66) 
2

$$$$

     RDKit          3D

 42 43  0  0  1  0  0  0  0  0999 V2000
  140.7860   74.2150  220.9090 O   0  0  0  0  0  0  0  0  0  0  0  0
  139.7110   74.4640  221.5140 C   0  0  0  0  0  0  0  0  0  0  0  0
  139.0790   75.8070  221.5210 C   0  0  0  0  0  0  0  0  0  0  0  0
  138.2310   76.0540  222.7170 C   0  0  0  0  0  0  0  0  0  0  0  0
  136.7880   75.6300  222.3450 C   0  0  0  0  0  0  0  0  0  0  0  0
  136.2750   74.6720  223.0540 O   0  0  0  0  0  0  0  0  0  0  0  0
  135.7680   73.7300  223.7540 C   0  0  0  0  0  0  0  0  0  0  0  0
  136.0220   72.3760  223.4900 C   0  0  0  0  0  0  0  0  0  0  0  0
  135.4770   71.3630  224.2410 C   0  0  0  0  0  0  0  0  0  0  0  0
  134.6550   71.7140  225.2810 C   0  0  0  0  0  0  0  0  0  0  0  0
  133.9540   70.4430  226.2440 Cl  0  0  0  0  0  0  0  0  0  0  0  0
  134.3560   73.0130  225.6030 C   0  0  0  0  0  0  0  0  0  0  0  0
  134.9150   74.0020  224.8370 C   0  0  0  0  0  0  0  0  0  0  0  0
  134.5730   75.6730  225.1970 Cl  0  0  0  0  0  0  0  0  0  0  0  0
  139.0050   73.4410  222.2560 N   0  0  0  0  0  0  0  0  0  0  0  0
  139.5540   72.1910  222.2730 N   0  0  0  0  0  0  0  0  0  0  0  0
  140.3400   71.8080  223.1850 C   0  0  0  0  0  0  0  0  0  0  0  0
  140.0820   71.0600  224.3800 C   0  0  0  0  0  0  0  0  0  0  0  0
  139.4010   69.8840  224.5010 C   0  0  0  0  0  0  0  0  0  0  0  0
  139.1890   69.2250  225.7050 C   0  0  0  0  0  0  0  0  0  0  0  0
  139.6770   69.7530  226.8660 C   0  0  0  0  0  0  0  0  0  0  0  0
  140.3690   70.9430  226.7710 C   0  0  0  0  0  0  0  0  0  0  0  0
  140.9040   71.5310  228.0150 C   0  0  0  0  0  0  0  0  0  0  0  0
  139.8650   71.9410  228.8260 F   0  0  0  0  0  0  0  0  0  0  0  0
  141.6450   70.5720  228.7070 F   0  0  0  0  0  0  0  0  0  0  0  0
  141.7810   72.5730  227.7650 F   0  0  0  0  0  0  0  0  0  0  0  0
  140.5760   71.5900  225.5770 C   0  0  0  0  0  0  0  0  0  0  0  0
  139.8741   76.5667  221.4943 H   0  0  0  0  0  0  0  0  0  0  0  0
  138.4223   75.8616  220.6403 H   0  0  0  0  0  0  0  0  0  0  0  0
  138.5931   75.4565  223.5666 H   0  0  0  0  0  0  0  0  0  0  0  0
  138.2654   77.1136  223.0103 H   0  0  0  0  0  0  0  0  0  0  0  0
  136.1399   76.5123  222.4527 H   0  0  0  0  0  0  0  0  0  0  0  0
  136.8497   75.2385  221.3189 H   0  0  0  0  0  0  0  0  0  0  0  0
  136.6826   72.1155  222.6499 H   0  0  0  0  0  0  0  0  0  0  0  0
  135.6923   70.3080  224.0161 H   0  0  0  0  0  0  0  0  0  0  0  0
  133.6912   73.2524  226.4460 H   0  0  0  0  0  0  0  0  0  0  0  0
  138.1080   73.6800  222.7760 H   0  0  0  0  0  0  0  0  0  0  0  0
  141.3917   72.0948  223.0382 H   0  0  0  0  0  0  0  0  0  0  0  0
  138.9937   69.4286  223.5863 H   0  0  0  0  0  0  0  0  0  0  0  0
  138.6285   68.2787  225.7234 H   0  0  0  0  0  0  0  0  0  0  0  0
  139.5253   69.2521  227.8335 H   0  0  0  0  0  0  0  0  0  0  0  0
  141.1369   72.5361  225.5618 H   0  0  0  0  0  0  0  0  0  0  0  0
  1  2  2  0
  2  3  1  0
  3  4  1  0
  4  5  1  0
  5  6  1  0
  6  7  1  0
  7  8  2  0
  8  9  1  0
  9 10  2  0
 10 11  1  0
 10 12  1  0
 12 13  2  0
 13 14  1  0
  2 15  1  0
 15 16  1  0
 16 17  2  0
 17 18  1  0
 18 19  2  0
 19 20  1  0
 20 21  2  0
 21 22  1  0
 22 23  1  0
 23 24  1  0
 23 25  1  0
 23 26  1  0
 22 27  2  0
 13  7  1  0
 27 18  1  0
  3 28  1  0
  3 29  1  0
  4 30  1  0
  4 31  1  0
  5 32  1  0
  5 33  1  0
  8 34  1  0
  9 35  1  0
 12 36  1  0
 15 37  1  0
 17 38  1  0
 19 39  1  0
 20 40  1  0
 21 41  1  0
 27 42  1  0
M  END
>  <smiles>  (67) 
O=C(CCCOc1ccc(Cl)cc1Cl)NN=Cc1cccc(C(F)(F)F)c1

>  <score_type>  (67) 
oracle

>  <origin>  (67) 
autodockgpu

>  <m_score__min__energy>  (67) 
-7.79

>  <m_primary>  (67) 
energy

>  <rmsd>  (67) 
10.633362067850879

>  <m_score__min__rmsd>  (67) 
10.633362067850879

>  <meeko>  (67) 
{"free_energy": -5.62, "intermolecular_energy": -8.3, "internal_energy": -2.08, "cluster_size": 13, "cluster_id": 6, "rank_in_cluster": 8}

>  <energy>  (67) 
-6.85

>  <cluster_rmsd>  (67) 
1.37

>  <cluster>  (67) 
2

$$$$

     RDKit          3D

 42 43  0  0  1  0  0  0  0  0999 V2000
  138.9470   74.4790  220.5520 O   0  0  0  0  0  0  0  0  0  0  0  0
  138.2510   74.0750  221.5200 C   0  0  0  0  0  0  0  0  0  0  0  0
  136.9290   74.6560  221.8630 C   0  0  0  0  0  0  0  0  0  0  0  0
  137.0120   75.7820  222.8300 C   0  0  0  0  0  0  0  0  0  0  0  0
  137.2600   77.0710  222.0060 C   0  0  0  0  0  0  0  0  0  0  0  0
  138.2920   77.7770  222.3500 O   0  0  0  0  0  0  0  0  0  0  0  0
  139.3110   78.4710  222.6880 C   0  0  0  0  0  0  0  0  0  0  0  0
  139.2020   79.7810  223.1750 C   0  0  0  0  0  0  0  0  0  0  0  0
  140.2970   80.5270  223.5380 C   0  0  0  0  0  0  0  0  0  0  0  0
  141.5330   79.9480  223.4090 C   0  0  0  0  0  0  0  0  0  0  0  0
  142.9320   80.8790  223.8630 Cl  0  0  0  0  0  0  0  0  0  0  0  0
  141.7240   78.6730  222.9400 C   0  0  0  0  0  0  0  0  0  0  0  0
  140.6140   77.9530  222.5860 C   0  0  0  0  0  0  0  0  0  0  0  0
  140.7930   76.3270  221.9850 Cl  0  0  0  0  0  0  0  0  0  0  0  0
  138.7000   73.0000  222.3780 N   0  0  0  0  0  0  0  0  0  0  0  0
  139.9120   72.4380  222.0950 N   0  0  0  0  0  0  0  0  0  0  0  0
  140.6370   71.9080  222.9820 C   0  0  0  0  0  0  0  0  0  0  0  0
  140.2780   71.1820  224.1650 C   0  0  0  0  0  0  0  0  0  0  0  0
  139.5430   70.0360  224.2530 C   0  0  0  0  0  0  0  0  0  0  0  0
  139.2330   69.3970  225.4460 C   0  0  0  0  0  0  0  0  0  0  0  0
  139.6730   69.9150  226.6300 C   0  0  0  0  0  0  0  0  0  0  0  0
  140.4190   71.0740  226.5690 C   0  0  0  0  0  0  0  0  0  0  0  0
  140.9030   71.6510  227.8390 C   0  0  0  0  0  0  0  0  0  0  0  0
  141.5220   70.6740  228.5930 F   0  0  0  0  0  0  0  0  0  0  0  0
  141.8360   72.6530  227.5730 F   0  0  0  0  0  0  0  0  0  0  0  0
  139.8890   72.2640  228.5550 F   0  0  0  0  0  0  0  0  0  0  0  0
  140.7220   71.7020  225.3850 C   0  0  0  0  0  0  0  0  0  0  0  0
  136.4594   75.0240  220.9388 H   0  0  0  0  0  0  0  0  0  0  0  0
  136.3387   73.8603  222.3410 H   0  0  0  0  0  0  0  0  0  0  0  0
  136.0698   75.8680  223.3912 H   0  0  0  0  0  0  0  0  0  0  0  0
  137.8232   75.6176  223.5546 H   0  0  0  0  0  0  0  0  0  0  0  0
  137.3887   76.7779  220.9536 H   0  0  0  0  0  0  0  0  0  0  0  0
  136.3866   77.7135  222.1914 H   0  0  0  0  0  0  0  0  0  0  0  0
  138.2017   80.2286  223.2701 H   0  0  0  0  0  0  0  0  0  0  0  0
  140.1860   81.5530  223.9188 H   0  0  0  0  0  0  0  0  0  0  0  0
  142.7330   78.2441  222.8514 H   0  0  0  0  0  0  0  0  0  0  0  0
  138.1030   72.6890  223.2030 H   0  0  0  0  0  0  0  0  0  0  0  0
  141.7193   72.0215  222.8213 H   0  0  0  0  0  0  0  0  0  0  0  0
  139.1721   69.5895  223.3186 H   0  0  0  0  0  0  0  0  0  0  0  0
  138.6337   68.4746  225.4372 H   0  0  0  0  0  0  0  0  0  0  0  0
  139.4430   69.4298  227.5901 H   0  0  0  0  0  0  0  0  0  0  0  0
  141.3208   72.6246  225.3969 H   0  0  0  0  0  0  0  0  0  0  0  0
  1  2  2  0
  2  3  1  0
  3  4  1  0
  4  5  1  0
  5  6  1  0
  6  7  1  0
  7  8  2  0
  8  9  1  0
  9 10  2  0
 10 11  1  0
 10 12  1  0
 12 13  2  0
 13 14  1  0
  2 15  1  0
 15 16  1  0
 16 17  2  0
 17 18  1  0
 18 19  2  0
 19 20  1  0
 20 21  2  0
 21 22  1  0
 22 23  1  0
 23 24  1  0
 23 25  1  0
 23 26  1  0
 22 27  2  0
 13  7  1  0
 27 18  1  0
  3 28  1  0
  3 29  1  0
  4 30  1  0
  4 31  1  0
  5 32  1  0
  5 33  1  0
  8 34  1  0
  9 35  1  0
 12 36  1  0
 15 37  1  0
 17 38  1  0
 19 39  1  0
 20 40  1  0
 21 41  1  0
 27 42  1  0
M  END
>  <smiles>  (68) 
O=C(CCCOc1ccc(Cl)cc1Cl)NN=Cc1cccc(C(F)(F)F)c1

>  <score_type>  (68) 
oracle

>  <origin>  (68) 
autodockgpu

>  <m_score__min__energy>  (68) 
-7.79

>  <m_primary>  (68) 
energy

>  <rmsd>  (68) 
5.381954034127976

>  <m_score__min__rmsd>  (68) 
5.381954034127976

>  <meeko>  (68) 
{"free_energy": -6.74, "intermolecular_energy": -9.43, "internal_energy": -1.0, "cluster_size": 13, "cluster_id": 1, "rank_in_cluster": 8}

>  <energy>  (68) 
-6.7

>  <cluster_rmsd>  (68) 
1.12

>  <cluster>  (68) 
2

$$$$

     RDKit          3D

 42 43  0  0  1  0  0  0  0  0999 V2000
  141.3240   75.0300  221.9300 O   0  0  0  0  0  0  0  0  0  0  0  0
  140.0750   74.8810  221.9180 C   0  0  0  0  0  0  0  0  0  0  0  0
  139.1420   75.9130  221.3990 C   0  0  0  0  0  0  0  0  0  0  0  0
  138.1160   76.3310  222.3900 C   0  0  0  0  0  0  0  0  0  0  0  0
  136.7780   75.6760  221.9620 C   0  0  0  0  0  0  0  0  0  0  0  0
  136.4750   74.5620  222.5550 O   0  0  0  0  0  0  0  0  0  0  0  0
  136.1780   73.4640  223.1370 C   0  0  0  0  0  0  0  0  0  0  0  0
  136.5770   72.2160  222.6380 C   0  0  0  0  0  0  0  0  0  0  0  0
  136.2590   71.0350  223.2630 C   0  0  0  0  0  0  0  0  0  0  0  0
  135.5210   71.1030  224.4160 C   0  0  0  0  0  0  0  0  0  0  0  0
  135.1070   69.6160  225.2220 Cl  0  0  0  0  0  0  0  0  0  0  0  0
  135.0920   72.2830  224.9680 C   0  0  0  0  0  0  0  0  0  0  0  0
  135.4250   73.4450  224.3230 C   0  0  0  0  0  0  0  0  0  0  0  0
  134.9080   74.9760  224.9770 Cl  0  0  0  0  0  0  0  0  0  0  0  0
  139.4520   73.6730  222.4160 N   0  0  0  0  0  0  0  0  0  0  0  0
  140.2770   72.6990  222.9010 N   0  0  0  0  0  0  0  0  0  0  0  0
  139.8640   71.5400  223.1830 C   0  0  0  0  0  0  0  0  0  0  0  0
  139.8640   70.8300  224.4280 C   0  0  0  0  0  0  0  0  0  0  0  0
  139.4220   69.5610  224.6690 C   0  0  0  0  0  0  0  0  0  0  0  0
  139.4520   68.9480  225.9140 C   0  0  0  0  0  0  0  0  0  0  0  0
  139.9460   69.6210  226.9940 C   0  0  0  0  0  0  0  0  0  0  0  0
  140.4000   70.9060  226.7780 C   0  0  0  0  0  0  0  0  0  0  0  0
  140.9380   71.6510  227.9330 C   0  0  0  0  0  0  0  0  0  0  0  0
  141.7100   70.8140  228.7140 F   0  0  0  0  0  0  0  0  0  0  0  0
  141.7480   72.6940  227.4820 F   0  0  0  0  0  0  0  0  0  0  0  0
  139.9390   72.2490  228.6810 F   0  0  0  0  0  0  0  0  0  0  0  0
  140.3690   71.5080  225.5430 C   0  0  0  0  0  0  0  0  0  0  0  0
  139.7272   76.7979  221.1082 H   0  0  0  0  0  0  0  0  0  0  0  0
  138.6083   75.4695  220.5455 H   0  0  0  0  0  0  0  0  0  0  0  0
  138.4001   75.9872  223.3955 H   0  0  0  0  0  0  0  0  0  0  0  0
  138.0241   77.4267  222.4209 H   0  0  0  0  0  0  0  0  0  0  0  0
  135.9710   76.3955  222.1646 H   0  0  0  0  0  0  0  0  0  0  0  0
  136.8984   75.4228  220.8983 H   0  0  0  0  0  0  0  0  0  0  0  0
  137.1673   72.1814  221.7105 H   0  0  0  0  0  0  0  0  0  0  0  0
  136.5853   70.0681  222.8524 H   0  0  0  0  0  0  0  0  0  0  0  0
  134.5014   72.2960  225.8959 H   0  0  0  0  0  0  0  0  0  0  0  0
  138.3920   73.5780  222.4140 H   0  0  0  0  0  0  0  0  0  0  0  0
  139.4345   70.9850  222.3359 H   0  0  0  0  0  0  0  0  0  0  0  0
  139.0162   68.9877  223.8225 H   0  0  0  0  0  0  0  0  0  0  0  0
  139.0778   67.9202  226.0303 H   0  0  0  0  0  0  0  0  0  0  0  0
  139.9806   69.1595  227.9919 H   0  0  0  0  0  0  0  0  0  0  0  0
  140.7457   72.5352  225.4296 H   0  0  0  0  0  0  0  0  0  0  0  0
  1  2  2  0
  2  3  1  0
  3  4  1  0
  4  5  1  0
  5  6  1  0
  6  7  1  0
  7  8  2  0
  8  9  1  0
  9 10  2  0
 10 11  1  0
 10 12  1  0
 12 13  2  0
 13 14  1  0
  2 15  1  0
 15 16  1  0
 16 17  2  0
 17 18  1  0
 18 19  2  0
 19 20  1  0
 20 21  2  0
 21 22  1  0
 22 23  1  0
 23 24  1  0
 23 25  1  0
 23 26  1  0
 22 27  2  0
 13  7  1  0
 27 18  1  0
  3 28  1  0
  3 29  1  0
  4 30  1  0
  4 31  1  0
  5 32  1  0
  5 33  1  0
  8 34  1  0
  9 35  1  0
 12 36  1  0
 15 37  1  0
 17 38  1  0
 19 39  1  0
 20 40  1  0
 21 41  1  0
 27 42  1  0
M  END
>  <smiles>  (69) 
O=C(CCCOc1ccc(Cl)cc1Cl)NN=Cc1cccc(C(F)(F)F)c1

>  <score_type>  (69) 
oracle

>  <origin>  (69) 
autodockgpu

>  <m_score__min__energy>  (69) 
-7.79

>  <m_primary>  (69) 
energy

>  <rmsd>  (69) 
10.510079865177444

>  <m_score__min__rmsd>  (69) 
10.510079865177444

>  <meeko>  (69) 
{"free_energy": -5.61, "intermolecular_energy": -8.3, "internal_energy": -2.4, "cluster_size": 13, "cluster_id": 6, "rank_in_cluster": 9}

>  <energy>  (69) 
-6.68

>  <cluster_rmsd>  (69) 
0.0

>  <cluster>  (69) 
3

$$$$

     RDKit          3D

 42 43  0  0  1  0  0  0  0  0999 V2000
  141.2760   75.2420  221.8950 O   0  0  0  0  0  0  0  0  0  0  0  0
  140.0340   75.0430  221.8900 C   0  0  0  0  0  0  0  0  0  0  0  0
  139.0540   76.0550  221.4220 C   0  0  0  0  0  0  0  0  0  0  0  0
  137.9870   76.3470  222.4150 C   0  0  0  0  0  0  0  0  0  0  0  0
  136.7070   75.6190  221.9330 C   0  0  0  0  0  0  0  0  0  0  0  0
  136.4300   74.5000  222.5280 O   0  0  0  0  0  0  0  0  0  0  0  0
  136.1550   73.3960  223.1130 C   0  0  0  0  0  0  0  0  0  0  0  0
  136.5940   72.1570  222.6250 C   0  0  0  0  0  0  0  0  0  0  0  0
  136.2980   70.9710  223.2530 C   0  0  0  0  0  0  0  0  0  0  0  0
  135.5430   71.0260  224.3950 C   0  0  0  0  0  0  0  0  0  0  0  0
  135.1580   69.5320  225.2030 Cl  0  0  0  0  0  0  0  0  0  0  0  0
  135.0760   72.1970  224.9350 C   0  0  0  0  0  0  0  0  0  0  0  0
  135.3860   73.3640  224.2890 C   0  0  0  0  0  0  0  0  0  0  0  0
  134.8210   74.8840  224.9280 Cl  0  0  0  0  0  0  0  0  0  0  0  0
  139.4660   73.7920  222.3460 N   0  0  0  0  0  0  0  0  0  0  0  0
  140.3340   72.8340  222.7840 N   0  0  0  0  0  0  0  0  0  0  0  0
  139.9700   71.6510  223.0330 C   0  0  0  0  0  0  0  0  0  0  0  0
  139.8590   70.9560  224.2810 C   0  0  0  0  0  0  0  0  0  0  0  0
  139.2700   69.7480  224.5170 C   0  0  0  0  0  0  0  0  0  0  0  0
  139.2000   69.1440  225.7660 C   0  0  0  0  0  0  0  0  0  0  0  0
  139.7420   69.7650  226.8540 C   0  0  0  0  0  0  0  0  0  0  0  0
  140.3440   70.9880  226.6430 C   0  0  0  0  0  0  0  0  0  0  0  0
  140.9360   71.6760  227.8080 C   0  0  0  0  0  0  0  0  0  0  0  0
  139.9350   72.1800  228.6140 F   0  0  0  0  0  0  0  0  0  0  0  0
  141.6850   70.7690  228.5580 F   0  0  0  0  0  0  0  0  0  0  0  0
  141.8210   72.6720  227.4310 F   0  0  0  0  0  0  0  0  0  0  0  0
  140.4110   71.5800  225.4050 C   0  0  0  0  0  0  0  0  0  0  0  0
  139.5936   76.9887  221.2053 H   0  0  0  0  0  0  0  0  0  0  0  0
  138.5622   75.6420  220.5289 H   0  0  0  0  0  0  0  0  0  0  0  0
  138.2823   75.9747  223.4071 H   0  0  0  0  0  0  0  0  0  0  0  0
  137.8144   77.4302  222.4982 H   0  0  0  0  0  0  0  0  0  0  0  0
  135.8561   76.2996  222.0835 H   0  0  0  0  0  0  0  0  0  0  0  0
  136.8938   75.3568  220.8812 H   0  0  0  0  0  0  0  0  0  0  0  0
  137.1975   72.1334  221.7057 H   0  0  0  0  0  0  0  0  0  0  0  0
  136.6549   70.0106  222.8526 H   0  0  0  0  0  0  0  0  0  0  0  0
  134.4733   72.1987  225.8552 H   0  0  0  0  0  0  0  0  0  0  0  0
  138.4100   73.6540  222.3520 H   0  0  0  0  0  0  0  0  0  0  0  0
  139.6933   71.0580  222.1488 H   0  0  0  0  0  0  0  0  0  0  0  0
  138.8218   69.2184  223.6634 H   0  0  0  0  0  0  0  0  0  0  0  0
  138.7083   68.1664  225.8781 H   0  0  0  0  0  0  0  0  0  0  0  0
  139.7006   69.3103  227.8548 H   0  0  0  0  0  0  0  0  0  0  0  0
  140.9048   72.5569  225.2962 H   0  0  0  0  0  0  0  0  0  0  0  0
  1  2  2  0
  2  3  1  0
  3  4  1  0
  4  5  1  0
  5  6  1  0
  6  7  1  0
  7  8  2  0
  8  9  1  0
  9 10  2  0
 10 11  1  0
 10 12  1  0
 12 13  2  0
 13 14  1  0
  2 15  1  0
 15 16  1  0
 16 17  2  0
 17 18  1  0
 18 19  2  0
 19 20  1  0
 20 21  2  0
 21 22  1  0
 22 23  1  0
 23 24  1  0
 23 25  1  0
 23 26  1  0
 22 27  2  0
 13  7  1  0
 27 18  1  0
  3 28  1  0
  3 29  1  0
  4 30  1  0
  4 31  1  0
  5 32  1  0
  5 33  1  0
  8 34  1  0
  9 35  1  0
 12 36  1  0
 15 37  1  0
 17 38  1  0
 19 39  1  0
 20 40  1  0
 21 41  1  0
 27 42  1  0
M  END
>  <smiles>  (70) 
O=C(CCCOc1ccc(Cl)cc1Cl)NN=Cc1cccc(C(F)(F)F)c1

>  <score_type>  (70) 
oracle

>  <origin>  (70) 
autodockgpu

>  <m_score__min__energy>  (70) 
-7.79

>  <m_primary>  (70) 
energy

>  <rmsd>  (70) 
10.566827280523333

>  <m_score__min__rmsd>  (70) 
10.566827280523333

>  <meeko>  (70) 
{"free_energy": -5.55, "intermolecular_energy": -8.24, "internal_energy": -2.48, "cluster_size": 13, "cluster_id": 6, "rank_in_cluster": 10}

>  <energy>  (70) 
-6.46

>  <cluster_rmsd>  (70) 
1.66

>  <cluster>  (70) 
3

$$$$

     RDKit          3D

 42 43  0  0  1  0  0  0  0  0999 V2000
  140.0370   70.4050  221.4410 O   0  0  0  0  0  0  0  0  0  0  0  0
  140.1460   71.4760  222.0910 C   0  0  0  0  0  0  0  0  0  0  0  0
  141.0800   72.5640  221.7060 C   0  0  0  0  0  0  0  0  0  0  0  0
  140.4310   73.6490  220.9240 C   0  0  0  0  0  0  0  0  0  0  0  0
  139.6610   74.5380  221.9330 C   0  0  0  0  0  0  0  0  0  0  0  0
  140.0510   75.7720  222.0180 O   0  0  0  0  0  0  0  0  0  0  0  0
  140.4360   76.9880  222.1050 C   0  0  0  0  0  0  0  0  0  0  0  0
  139.8930   77.8840  223.0370 C   0  0  0  0  0  0  0  0  0  0  0  0
  140.3060   79.1910  223.1310 C   0  0  0  0  0  0  0  0  0  0  0  0
  141.2850   79.6130  222.2700 C   0  0  0  0  0  0  0  0  0  0  0  0
  141.8210   81.2660  222.3740 Cl  0  0  0  0  0  0  0  0  0  0  0  0
  141.8660   78.7990  221.3310 C   0  0  0  0  0  0  0  0  0  0  0  0
  141.4350   77.5000  221.2610 C   0  0  0  0  0  0  0  0  0  0  0  0
  142.1360   76.4190  220.0880 Cl  0  0  0  0  0  0  0  0  0  0  0  0
  139.3560   71.7250  223.2780 N   0  0  0  0  0  0  0  0  0  0  0  0
  138.4840   70.7480  223.6650 N   0  0  0  0  0  0  0  0  0  0  0  0
  138.8650   69.6830  224.2250 C   0  0  0  0  0  0  0  0  0  0  0  0
  139.5950   69.4820  225.4420 C   0  0  0  0  0  0  0  0  0  0  0  0
  139.9800   68.2990  226.0020 C   0  0  0  0  0  0  0  0  0  0  0  0
  140.6830   68.1910  227.1940 C   0  0  0  0  0  0  0  0  0  0  0  0
  141.0300   69.3170  227.8840 C   0  0  0  0  0  0  0  0  0  0  0  0
  140.6530   70.5270  227.3400 C   0  0  0  0  0  0  0  0  0  0  0  0
  141.0190   71.7570  228.0710 C   0  0  0  0  0  0  0  0  0  0  0  0
  139.9090   72.2700  228.7120 F   0  0  0  0  0  0  0  0  0  0  0  0
  141.9810   71.4600  229.0360 F   0  0  0  0  0  0  0  0  0  0  0  0
  141.5980   72.7040  227.2430 F   0  0  0  0  0  0  0  0  0  0  0  0
  139.9580   70.6270  226.1590 C   0  0  0  0  0  0  0  0  0  0  0  0
  141.5041   73.0002  222.6224 H   0  0  0  0  0  0  0  0  0  0  0  0
  141.8523   72.1170  221.0628 H   0  0  0  0  0  0  0  0  0  0  0  0
  141.1932   74.2450  220.4006 H   0  0  0  0  0  0  0  0  0  0  0  0
  139.7490   73.2332  220.1677 H   0  0  0  0  0  0  0  0  0  0  0  0
  138.6010   74.5398  221.6390 H   0  0  0  0  0  0  0  0  0  0  0  0
  139.8536   74.0978  222.9225 H   0  0  0  0  0  0  0  0  0  0  0  0
  139.1068   77.5270  223.7185 H   0  0  0  0  0  0  0  0  0  0  0  0
  139.8660   79.8750  223.8717 H   0  0  0  0  0  0  0  0  0  0  0  0
  142.6502   79.1757  220.6579 H   0  0  0  0  0  0  0  0  0  0  0  0
  139.4800   72.6310  223.8230 H   0  0  0  0  0  0  0  0  0  0  0  0
  138.5927   68.7595  223.6929 H   0  0  0  0  0  0  0  0  0  0  0  0
  139.7162   67.3704  225.4746 H   0  0  0  0  0  0  0  0  0  0  0  0
  140.9601   67.1998  227.5822 H   0  0  0  0  0  0  0  0  0  0  0  0
  141.5856   69.2615  228.8318 H   0  0  0  0  0  0  0  0  0  0  0  0
  139.6836   71.6197  225.7725 H   0  0  0  0  0  0  0  0  0  0  0  0
  1  2  2  0
  2  3  1  0
  3  4  1  0
  4  5  1  0
  5  6  1  0
  6  7  1  0
  7  8  2  0
  8  9  1  0
  9 10  2  0
 10 11  1  0
 10 12  1  0
 12 13  2  0
 13 14  1  0
  2 15  1  0
 15 16  1  0
 16 17  2  0
 17 18  1  0
 18 19  2  0
 19 20  1  0
 20 21  2  0
 21 22  1  0
 22 23  1  0
 23 24  1  0
 23 25  1  0
 23 26  1  0
 22 27  2  0
 13  7  1  0
 27 18  1  0
  3 28  1  0
  3 29  1  0
  4 30  1  0
  4 31  1  0
  5 32  1  0
  5 33  1  0
  8 34  1  0
  9 35  1  0
 12 36  1  0
 15 37  1  0
 17 38  1  0
 19 39  1  0
 20 40  1  0
 21 41  1  0
 27 42  1  0
M  END
>  <smiles>  (71) 
O=C(CCCOc1ccc(Cl)cc1Cl)NN=Cc1cccc(C(F)(F)F)c1

>  <score_type>  (71) 
oracle

>  <origin>  (71) 
autodockgpu

>  <m_score__min__energy>  (71) 
-7.79

>  <m_primary>  (71) 
energy

>  <rmsd>  (71) 
6.68400782541465

>  <m_score__min__rmsd>  (71) 
6.68400782541465

>  <meeko>  (71) 
{"free_energy": -6.85, "intermolecular_energy": -9.54, "internal_energy": -0.77, "cluster_size": 5, "cluster_id": 2, "rank_in_cluster": 4}

>  <energy>  (71) 
-6.42

>  <cluster_rmsd>  (71) 
0.96

>  <cluster>  (71) 
3

$$$$

     RDKit          3D

 42 43  0  0  1  0  0  0  0  0999 V2000
  141.5310   74.3500  221.0590 O   0  0  0  0  0  0  0  0  0  0  0  0
  140.3500   74.4890  221.4710 C   0  0  0  0  0  0  0  0  0  0  0  0
  139.4700   75.6050  221.0440 C   0  0  0  0  0  0  0  0  0  0  0  0
  138.2270   75.1500  220.3680 C   0  0  0  0  0  0  0  0  0  0  0  0
  137.0840   75.2390  221.4100 C   0  0  0  0  0  0  0  0  0  0  0  0
  136.8130   74.1450  222.0530 O   0  0  0  0  0  0  0  0  0  0  0  0
  136.5430   73.0680  222.6870 C   0  0  0  0  0  0  0  0  0  0  0  0
  136.9940   71.8110  222.2600 C   0  0  0  0  0  0  0  0  0  0  0  0
  136.7040   70.6530  222.9410 C   0  0  0  0  0  0  0  0  0  0  0  0
  135.9430   70.7560  224.0770 C   0  0  0  0  0  0  0  0  0  0  0  0
  135.5650   69.2990  224.9520 Cl  0  0  0  0  0  0  0  0  0  0  0  0
  135.4640   71.9470  224.5590 C   0  0  0  0  0  0  0  0  0  0  0  0
  135.7690   73.0850  223.8600 C   0  0  0  0  0  0  0  0  0  0  0  0
  135.1890   74.6290  224.4240 Cl  0  0  0  0  0  0  0  0  0  0  0  0
  139.7600   73.5530  222.4050 N   0  0  0  0  0  0  0  0  0  0  0  0
  140.5380   72.5110  222.8220 N   0  0  0  0  0  0  0  0  0  0  0  0
  140.0750   71.5450  223.4900 C   0  0  0  0  0  0  0  0  0  0  0  0
  140.3300   71.1440  224.8430 C   0  0  0  0  0  0  0  0  0  0  0  0
  140.8520   71.8970  225.8550 C   0  0  0  0  0  0  0  0  0  0  0  0
  141.0740   71.4270  227.1420 C   0  0  0  0  0  0  0  0  0  0  0  0
  140.7650   70.1350  227.4590 C   0  0  0  0  0  0  0  0  0  0  0  0
  140.2360   69.3530  226.4530 C   0  0  0  0  0  0  0  0  0  0  0  0
  139.8950   67.9530  226.7750 C   0  0  0  0  0  0  0  0  0  0  0  0
  138.8470   67.5300  225.9830 F   0  0  0  0  0  0  0  0  0  0  0  0
  140.9940   67.1320  226.5180 F   0  0  0  0  0  0  0  0  0  0  0  0
  139.6060   67.7810  228.1180 F   0  0  0  0  0  0  0  0  0  0  0  0
  140.0180   69.8230  225.1810 C   0  0  0  0  0  0  0  0  0  0  0  0
  139.1898   76.1883  221.9336 H   0  0  0  0  0  0  0  0  0  0  0  0
  140.0355   76.2045  220.3154 H   0  0  0  0  0  0  0  0  0  0  0  0
  138.0055   75.7995  219.5083 H   0  0  0  0  0  0  0  0  0  0  0  0
  138.3380   74.1211  219.9950 H   0  0  0  0  0  0  0  0  0  0  0  0
  137.3622   76.0039  222.1499 H   0  0  0  0  0  0  0  0  0  0  0  0
  136.1769   75.4770  220.8350 H   0  0  0  0  0  0  0  0  0  0  0  0
  137.6027   71.7493  221.3458 H   0  0  0  0  0  0  0  0  0  0  0  0
  137.0695   69.6777  222.5871 H   0  0  0  0  0  0  0  0  0  0  0  0
  134.8561   71.9872  225.4749 H   0  0  0  0  0  0  0  0  0  0  0  0
  138.7660   73.7020  222.7550 H   0  0  0  0  0  0  0  0  0  0  0  0
  139.3611   70.9084  222.9468 H   0  0  0  0  0  0  0  0  0  0  0  0
  141.1134   72.9429  225.6365 H   0  0  0  0  0  0  0  0  0  0  0  0
  141.4986   72.0947  227.9061 H   0  0  0  0  0  0  0  0  0  0  0  0
  140.9304   69.7360  228.4706 H   0  0  0  0  0  0  0  0  0  0  0  0
  139.5931   69.1528  224.4192 H   0  0  0  0  0  0  0  0  0  0  0  0
  1  2  2  0
  2  3  1  0
  3  4  1  0
  4  5  1  0
  5  6  1  0
  6  7  1  0
  7  8  2  0
  8  9  1  0
  9 10  2  0
 10 11  1  0
 10 12  1  0
 12 13  2  0
 13 14  1  0
  2 15  1  0
 15 16  1  0
 16 17  2  0
 17 18  1  0
 18 19  2  0
 19 20  1  0
 20 21  2  0
 21 22  1  0
 22 23  1  0
 23 24  1  0
 23 25  1  0
 23 26  1  0
 22 27  2  0
 13  7  1  0
 27 18  1  0
  3 28  1  0
  3 29  1  0
  4 30  1  0
  4 31  1  0
  5 32  1  0
  5 33  1  0
  8 34  1  0
  9 35  1  0
 12 36  1  0
 15 37  1  0
 17 38  1  0
 19 39  1  0
 20 40  1  0
 21 41  1  0
 27 42  1  0
M  END
>  <smiles>  (72) 
O=C(CCCOc1ccc(Cl)cc1Cl)NN=Cc1cccc(C(F)(F)F)c1

>  <score_type>  (72) 
oracle

>  <origin>  (72) 
autodockgpu

>  <m_score__min__energy>  (72) 
-7.79

>  <m_primary>  (72) 
energy

>  <rmsd>  (72) 
10.636046675544957

>  <m_score__min__rmsd>  (72) 
10.636046675544957

>  <meeko>  (72) 
{"free_energy": -5.35, "intermolecular_energy": -8.04, "internal_energy": -2.39, "cluster_size": 1, "cluster_id": 10, "rank_in_cluster": 1}

>  <energy>  (72) 
-6.33

>  <cluster_rmsd>  (72) 
1.22

>  <cluster>  (72) 
3

$$$$

     RDKit          3D

 42 43  0  0  1  0  0  0  0  0999 V2000
  139.9520   73.9170  222.3450 O   0  0  0  0  0  0  0  0  0  0  0  0
  140.7310   74.4210  221.4950 C   0  0  0  0  0  0  0  0  0  0  0  0
  141.8080   73.6480  220.8260 C   0  0  0  0  0  0  0  0  0  0  0  0
  143.0590   74.4270  220.6320 C   0  0  0  0  0  0  0  0  0  0  0  0
  143.0850   74.8820  219.1510 C   0  0  0  0  0  0  0  0  0  0  0  0
  142.8580   76.1420  218.9380 O   0  0  0  0  0  0  0  0  0  0  0  0
  142.6320   77.3820  218.7280 C   0  0  0  0  0  0  0  0  0  0  0  0
  142.1990   78.2500  219.7410 C   0  0  0  0  0  0  0  0  0  0  0  0
  141.9550   79.5830  219.5160 C   0  0  0  0  0  0  0  0  0  0  0  0
  142.1470   80.0600  218.2460 C   0  0  0  0  0  0  0  0  0  0  0  0
  141.8420   81.7470  217.9420 Cl  0  0  0  0  0  0  0  0  0  0  0  0
  142.5680   79.2770  217.2010 C   0  0  0  0  0  0  0  0  0  0  0  0
  142.8040   77.9510  217.4550 C   0  0  0  0  0  0  0  0  0  0  0  0
  143.3410   76.9060  216.1680 Cl  0  0  0  0  0  0  0  0  0  0  0  0
  140.6300   75.8110  221.1060 N   0  0  0  0  0  0  0  0  0  0  0  0
  139.6510   76.5570  221.6990 N   0  0  0  0  0  0  0  0  0  0  0  0
  139.8730   77.2940  222.6990 C   0  0  0  0  0  0  0  0  0  0  0  0
  140.6630   78.4840  222.8210 C   0  0  0  0  0  0  0  0  0  0  0  0
  141.8630   78.6310  223.4520 C   0  0  0  0  0  0  0  0  0  0  0  0
  142.5630   79.8270  223.5300 C   0  0  0  0  0  0  0  0  0  0  0  0
  142.0530   80.9530  222.9500 C   0  0  0  0  0  0  0  0  0  0  0  0
  140.8400   80.8320  222.3040 C   0  0  0  0  0  0  0  0  0  0  0  0
  140.2710   82.0390  221.6710 C   0  0  0  0  0  0  0  0  0  0  0  0
  141.2220   83.0390  221.6270 F   0  0  0  0  0  0  0  0  0  0  0  0
  139.8870   81.7450  220.3630 F   0  0  0  0  0  0  0  0  0  0  0  0
  139.1230   82.4720  222.3110 F   0  0  0  0  0  0  0  0  0  0  0  0
  140.1520   79.6450  222.2310 C   0  0  0  0  0  0  0  0  0  0  0  0
  142.0382   72.7659  221.4415 H   0  0  0  0  0  0  0  0  0  0  0  0
  141.4383   73.3724  219.8273 H   0  0  0  0  0  0  0  0  0  0  0  0
  143.0650   75.3036  221.2965 H   0  0  0  0  0  0  0  0  0  0  0  0
  143.9424   73.8164  220.8704 H   0  0  0  0  0  0  0  0  0  0  0  0
  144.0793   74.6459  218.7440 H   0  0  0  0  0  0  0  0  0  0  0  0
  142.2587   74.3454  218.6618 H   0  0  0  0  0  0  0  0  0  0  0  0
  142.0491   77.8482  220.7539 H   0  0  0  0  0  0  0  0  0  0  0  0
  141.6172   80.2445  220.3273 H   0  0  0  0  0  0  0  0  0  0  0  0
  142.7110   79.6985  216.1951 H   0  0  0  0  0  0  0  0  0  0  0  0
  141.3130   76.2210  220.4000 H   0  0  0  0  0  0  0  0  0  0  0  0
  139.3803   76.9708  223.6279 H   0  0  0  0  0  0  0  0  0  0  0  0
  142.3048   77.7443  223.9301 H   0  0  0  0  0  0  0  0  0  0  0  0
  143.5270   79.8677  224.0582 H   0  0  0  0  0  0  0  0  0  0  0  0
  142.5858   81.9143  222.9958 H   0  0  0  0  0  0  0  0  0  0  0  0
  139.1880   79.6071  221.7024 H   0  0  0  0  0  0  0  0  0  0  0  0
  1  2  2  0
  2  3  1  0
  3  4  1  0
  4  5  1  0
  5  6  1  0
  6  7  1  0
  7  8  2  0
  8  9  1  0
  9 10  2  0
 10 11  1  0
 10 12  1  0
 12 13  2  0
 13 14  1  0
  2 15  1  0
 15 16  1  0
 16 17  2  0
 17 18  1  0
 18 19  2  0
 19 20  1  0
 20 21  2  0
 21 22  1  0
 22 23  1  0
 23 24  1  0
 23 25  1  0
 23 26  1  0
 22 27  2  0
 13  7  1  0
 27 18  1  0
  3 28  1  0
  3 29  1  0
  4 30  1  0
  4 31  1  0
  5 32  1  0
  5 33  1  0
  8 34  1  0
  9 35  1  0
 12 36  1  0
 15 37  1  0
 17 38  1  0
 19 39  1  0
 20 40  1  0
 21 41  1  0
 27 42  1  0
M  END
>  <smiles>  (73) 
O=C(CCCOc1ccc(Cl)cc1Cl)NN=Cc1cccc(C(F)(F)F)c1

>  <score_type>  (73) 
oracle

>  <origin>  (73) 
autodockgpu

>  <m_score__min__energy>  (73) 
-7.79

>  <m_primary>  (73) 
energy

>  <rmsd>  (73) 
7.299687158998573

>  <m_score__min__rmsd>  (73) 
7.299687158998573

>  <meeko>  (73) 
{"free_energy": -5.08, "intermolecular_energy": -7.76, "internal_energy": -2.52, "cluster_size": 3, "cluster_id": 9, "rank_in_cluster": 3}

>  <energy>  (73) 
-6.18

>  <cluster_rmsd>  (73) 
1.99

>  <cluster>  (73) 
3

$$$$

     RDKit          3D

 42 43  0  0  1  0  0  0  0  0999 V2000
  141.5900   73.3380  221.1190 O   0  0  0  0  0  0  0  0  0  0  0  0
  142.1180   74.4420  220.8280 C   0  0  0  0  0  0  0  0  0  0  0  0
  143.2770   74.5670  219.9080 C   0  0  0  0  0  0  0  0  0  0  0  0
  143.7070   75.9730  219.6890 C   0  0  0  0  0  0  0  0  0  0  0  0
  142.7300   76.5900  218.6560 C   0  0  0  0  0  0  0  0  0  0  0  0
  142.1150   77.6690  219.0280 O   0  0  0  0  0  0  0  0  0  0  0  0
  141.5100   78.7350  219.3930 C   0  0  0  0  0  0  0  0  0  0  0  0
  142.1950   79.9110  219.7310 C   0  0  0  0  0  0  0  0  0  0  0  0
  141.5460   81.0560  220.1230 C   0  0  0  0  0  0  0  0  0  0  0  0
  140.1760   81.0240  220.1800 C   0  0  0  0  0  0  0  0  0  0  0  0
  139.3370   82.4660  220.6760 Cl  0  0  0  0  0  0  0  0  0  0  0  0
  139.4340   79.9140  219.8670 C   0  0  0  0  0  0  0  0  0  0  0  0
  140.1080   78.7870  219.4780 C   0  0  0  0  0  0  0  0  0  0  0  0
  139.2190   77.3450  219.0670 Cl  0  0  0  0  0  0  0  0  0  0  0  0
  141.6230   75.6860  221.3770 N   0  0  0  0  0  0  0  0  0  0  0  0
  140.5570   75.6140  222.2270 N   0  0  0  0  0  0  0  0  0  0  0  0
  139.6690   76.5110  222.2790 C   0  0  0  0  0  0  0  0  0  0  0  0
  139.7430   77.8670  222.7370 C   0  0  0  0  0  0  0  0  0  0  0  0
  138.7130   78.6860  223.0980 C   0  0  0  0  0  0  0  0  0  0  0  0
  138.8720   79.9960  223.5270 C   0  0  0  0  0  0  0  0  0  0  0  0
  140.1210   80.5410  223.6070 C   0  0  0  0  0  0  0  0  0  0  0  0
  141.1810   79.7340  223.2470 C   0  0  0  0  0  0  0  0  0  0  0  0
  142.5410   80.3030  223.3270 C   0  0  0  0  0  0  0  0  0  0  0  0
  143.4320   79.4840  222.6630 F   0  0  0  0  0  0  0  0  0  0  0  0
  142.5610   81.5560  222.7140 F   0  0  0  0  0  0  0  0  0  0  0  0
  142.9410   80.5190  224.6340 F   0  0  0  0  0  0  0  0  0  0  0  0
  141.0180   78.4360  222.8240 C   0  0  0  0  0  0  0  0  0  0  0  0
  144.1221   74.0060  220.3334 H   0  0  0  0  0  0  0  0  0  0  0  0
  142.9623   74.1676  218.9326 H   0  0  0  0  0  0  0  0  0  0  0  0
  143.6610   76.5337  220.6342 H   0  0  0  0  0  0  0  0  0  0  0  0
  144.7433   76.0140  219.3224 H   0  0  0  0  0  0  0  0  0  0  0  0
  143.3051   76.8265  217.7487 H   0  0  0  0  0  0  0  0  0  0  0  0
  141.9423   75.8368  218.5069 H   0  0  0  0  0  0  0  0  0  0  0  0
  143.2938   79.9165  219.6802 H   0  0  0  0  0  0  0  0  0  0  0  0
  142.1054   81.9670  220.3822 H   0  0  0  0  0  0  0  0  0  0  0  0
  138.3357   79.9283  219.9263 H   0  0  0  0  0  0  0  0  0  0  0  0
  142.0990   76.6060  221.1320 H   0  0  0  0  0  0  0  0  0  0  0  0
  138.6788   76.2012  221.9137 H   0  0  0  0  0  0  0  0  0  0  0  0
  137.6913   78.2819  223.0456 H   0  0  0  0  0  0  0  0  0  0  0  0
  137.9917   80.5953  223.8026 H   0  0  0  0  0  0  0  0  0  0  0  0
  140.2756   81.5769  223.9433 H   0  0  0  0  0  0  0  0  0  0  0  0
  141.9001   77.8382  222.5509 H   0  0  0  0  0  0  0  0  0  0  0  0
  1  2  2  0
  2  3  1  0
  3  4  1  0
  4  5  1  0
  5  6  1  0
  6  7  1  0
  7  8  2  0
  8  9  1  0
  9 10  2  0
 10 11  1  0
 10 12  1  0
 12 13  2  0
 13 14  1  0
  2 15  1  0
 15 16  1  0
 16 17  2  0
 17 18  1  0
 18 19  2  0
 19 20  1  0
 20 21  2  0
 21 22  1  0
 22 23  1  0
 23 24  1  0
 23 25  1  0
 23 26  1  0
 22 27  2  0
 13  7  1  0
 27 18  1  0
  3 28  1  0
  3 29  1  0
  4 30  1  0
  4 31  1  0
  5 32  1  0
  5 33  1  0
  8 34  1  0
  9 35  1  0
 12 36  1  0
 15 37  1  0
 17 38  1  0
 19 39  1  0
 20 40  1  0
 21 41  1  0
 27 42  1  0
M  END
>  <smiles>  (74) 
O=C(CCCOc1ccc(Cl)cc1Cl)NN=Cc1cccc(C(F)(F)F)c1

>  <score_type>  (74) 
oracle

>  <origin>  (74) 
autodockgpu

>  <m_score__min__energy>  (74) 
-7.79

>  <m_primary>  (74) 
energy

>  <rmsd>  (74) 
6.050091959547253

>  <m_score__min__rmsd>  (74) 
6.050091959547253

>  <meeko>  (74) 
{"free_energy": -4.45, "intermolecular_energy": -7.14, "internal_energy": -3.14, "cluster_size": 1, "cluster_id": 11, "rank_in_cluster": 1}

>  <energy>  (74) 
-6.18

>  <cluster_rmsd>  (74) 
0.8

>  <cluster>  (74) 
3

$$$$

     RDKit          3D

 42 43  0  0  1  0  0  0  0  0999 V2000
  141.2940   75.2240  221.8120 O   0  0  0  0  0  0  0  0  0  0  0  0
  140.0470   75.0790  221.8950 C   0  0  0  0  0  0  0  0  0  0  0  0
  139.0830   76.1430  221.5170 C   0  0  0  0  0  0  0  0  0  0  0  0
  138.0670   76.4160  222.5670 C   0  0  0  0  0  0  0  0  0  0  0  0
  136.7420   75.7620  222.0990 C   0  0  0  0  0  0  0  0  0  0  0  0
  136.4380   74.6310  222.6550 O   0  0  0  0  0  0  0  0  0  0  0  0
  136.1400   73.5140  223.2010 C   0  0  0  0  0  0  0  0  0  0  0  0
  136.5750   72.2840  222.6850 C   0  0  0  0  0  0  0  0  0  0  0  0
  136.2550   71.0840  223.2710 C   0  0  0  0  0  0  0  0  0  0  0  0
  135.4790   71.1130  224.4010 C   0  0  0  0  0  0  0  0  0  0  0  0
  135.0630   69.6010  225.1570 Cl  0  0  0  0  0  0  0  0  0  0  0  0
  135.0140   72.2730  224.9670 C   0  0  0  0  0  0  0  0  0  0  0  0
  135.3490   73.4550  224.3610 C   0  0  0  0  0  0  0  0  0  0  0  0
  134.7880   74.9620  225.0340 Cl  0  0  0  0  0  0  0  0  0  0  0  0
  139.4580   73.8450  222.3700 N   0  0  0  0  0  0  0  0  0  0  0  0
  140.3120   72.8410  222.7260 N   0  0  0  0  0  0  0  0  0  0  0  0
  139.9140   71.6710  222.9820 C   0  0  0  0  0  0  0  0  0  0  0  0
  139.8280   70.9690  224.2290 C   0  0  0  0  0  0  0  0  0  0  0  0
  139.2540   69.7550  224.4680 C   0  0  0  0  0  0  0  0  0  0  0  0
  139.2080   69.1460  225.7150 C   0  0  0  0  0  0  0  0  0  0  0  0
  139.7620   69.7670  226.7980 C   0  0  0  0  0  0  0  0  0  0  0  0
  140.3500   70.9960  226.5830 C   0  0  0  0  0  0  0  0  0  0  0  0
  140.9540   71.6840  227.7400 C   0  0  0  0  0  0  0  0  0  0  0  0
  141.8110   72.6750  227.3030 F   0  0  0  0  0  0  0  0  0  0  0  0
  139.9530   72.2820  228.5060 F   0  0  0  0  0  0  0  0  0  0  0  0
  141.6020   70.8050  228.5910 F   0  0  0  0  0  0  0  0  0  0  0  0
  140.3920   71.5940  225.3460 C   0  0  0  0  0  0  0  0  0  0  0  0
  139.6436   77.0696  221.3243 H   0  0  0  0  0  0  0  0  0  0  0  0
  138.5434   75.7918  220.6251 H   0  0  0  0  0  0  0  0  0  0  0  0
  138.3865   75.9783  223.5243 H   0  0  0  0  0  0  0  0  0  0  0  0
  137.9385   77.4983  222.7160 H   0  0  0  0  0  0  0  0  0  0  0  0
  135.9258   76.4694  222.3074 H   0  0  0  0  0  0  0  0  0  0  0  0
  136.8831   75.5385  221.0312 H   0  0  0  0  0  0  0  0  0  0  0  0
  137.1957   72.2807  221.7769 H   0  0  0  0  0  0  0  0  0  0  0  0
  136.6091   70.1322  222.8483 H   0  0  0  0  0  0  0  0  0  0  0  0
  134.3940   72.2546  225.8754 H   0  0  0  0  0  0  0  0  0  0  0  0
  138.4010   73.7530  222.4500 H   0  0  0  0  0  0  0  0  0  0  0  0
  139.5786   71.0965  222.1059 H   0  0  0  0  0  0  0  0  0  0  0  0
  138.7985   69.2246  223.6188 H   0  0  0  0  0  0  0  0  0  0  0  0
  138.7257   68.1641  225.8306 H   0  0  0  0  0  0  0  0  0  0  0  0
  139.7402   69.3075  227.7972 H   0  0  0  0  0  0  0  0  0  0  0  0
  140.8749   72.5759  225.2332 H   0  0  0  0  0  0  0  0  0  0  0  0
  1  2  2  0
  2  3  1  0
  3  4  1  0
  4  5  1  0
  5  6  1  0
  6  7  1  0
  7  8  2  0
  8  9  1  0
  9 10  2  0
 10 11  1  0
 10 12  1  0
 12 13  2  0
 13 14  1  0
  2 15  1  0
 15 16  1  0
 16 17  2  0
 17 18  1  0
 18 19  2  0
 19 20  1  0
 20 21  2  0
 21 22  1  0
 22 23  1  0
 23 24  1  0
 23 25  1  0
 23 26  1  0
 22 27  2  0
 13  7  1  0
 27 18  1  0
  3 28  1  0
  3 29  1  0
  4 30  1  0
  4 31  1  0
  5 32  1  0
  5 33  1  0
  8 34  1  0
  9 35  1  0
 12 36  1  0
 15 37  1  0
 17 38  1  0
 19 39  1  0
 20 40  1  0
 21 41  1  0
 27 42  1  0
M  END
>  <smiles>  (75) 
O=C(CCCOc1ccc(Cl)cc1Cl)NN=Cc1cccc(C(F)(F)F)c1

>  <score_type>  (75) 
oracle

>  <origin>  (75) 
autodockgpu

>  <m_score__min__energy>  (75) 
-7.79

>  <m_primary>  (75) 
energy

>  <rmsd>  (75) 
10.493023395325563

>  <m_score__min__rmsd>  (75) 
10.493023395325563

>  <meeko>  (75) 
{"free_energy": -5.66, "intermolecular_energy": -8.34, "internal_energy": -2.46, "cluster_size": 13, "cluster_id": 6, "rank_in_cluster": 6}

>  <energy>  (75) 
-6.13

>  <cluster_rmsd>  (75) 
1.96

>  <cluster>  (75) 
3

$$$$

     RDKit          3D

 42 43  0  0  1  0  0  0  0  0999 V2000
  139.9430   74.5660  222.3260 O   0  0  0  0  0  0  0  0  0  0  0  0
  139.5130   73.5880  221.6610 C   0  0  0  0  0  0  0  0  0  0  0  0
  138.6340   73.7410  220.4740 C   0  0  0  0  0  0  0  0  0  0  0  0
  138.8840   74.9930  219.7130 C   0  0  0  0  0  0  0  0  0  0  0  0
  140.0320   74.6940  218.7140 C   0  0  0  0  0  0  0  0  0  0  0  0
  141.1910   74.4410  219.2380 O   0  0  0  0  0  0  0  0  0  0  0  0
  142.3320   74.1890  219.7570 C   0  0  0  0  0  0  0  0  0  0  0  0
  142.6670   72.9230  220.2580 C   0  0  0  0  0  0  0  0  0  0  0  0
  143.8930   72.6510  220.8160 C   0  0  0  0  0  0  0  0  0  0  0  0
  144.8060   73.6720  220.8750 C   0  0  0  0  0  0  0  0  0  0  0  0
  146.3650   73.3460  221.5790 Cl  0  0  0  0  0  0  0  0  0  0  0  0
  144.5550   74.9360  220.4080 C   0  0  0  0  0  0  0  0  0  0  0  0
  143.3240   75.1790  219.8570 C   0  0  0  0  0  0  0  0  0  0  0  0
  142.9470   76.7670  219.2450 Cl  0  0  0  0  0  0  0  0  0  0  0  0
  139.8510   72.2250  222.0130 N   0  0  0  0  0  0  0  0  0  0  0  0
  140.6590   72.0420  223.0990 N   0  0  0  0  0  0  0  0  0  0  0  0
  140.4620   71.1240  223.9430 C   0  0  0  0  0  0  0  0  0  0  0  0
  140.6730   71.1040  225.3600 C   0  0  0  0  0  0  0  0  0  0  0  0
  141.0890   72.1290  226.1590 C   0  0  0  0  0  0  0  0  0  0  0  0
  141.2760   72.0230  227.5310 C   0  0  0  0  0  0  0  0  0  0  0  0
  141.0390   70.8350  228.1610 C   0  0  0  0  0  0  0  0  0  0  0  0
  140.6170   69.7820  227.3760 C   0  0  0  0  0  0  0  0  0  0  0  0
  140.3550   68.4890  228.0380 C   0  0  0  0  0  0  0  0  0  0  0  0
  139.5040   67.7270  227.2620 F   0  0  0  0  0  0  0  0  0  0  0  0
  141.5520   67.7880  228.1870 F   0  0  0  0  0  0  0  0  0  0  0  0
  139.8530   68.6490  229.3180 F   0  0  0  0  0  0  0  0  0  0  0  0
  140.4330   69.8930  226.0180 C   0  0  0  0  0  0  0  0  0  0  0  0
  138.8017   72.8856  219.8031 H   0  0  0  0  0  0  0  0  0  0  0  0
  137.5977   73.7845  220.8403 H   0  0  0  0  0  0  0  0  0  0  0  0
  137.9765   75.2913  219.1675 H   0  0  0  0  0  0  0  0  0  0  0  0
  139.1566   75.8163  220.3897 H   0  0  0  0  0  0  0  0  0  0  0  0
  139.7365   73.8210  218.1135 H   0  0  0  0  0  0  0  0  0  0  0  0
  140.1656   75.6174  218.1313 H   0  0  0  0  0  0  0  0  0  0  0  0
  141.9203   72.1172  220.2023 H   0  0  0  0  0  0  0  0  0  0  0  0
  144.1334   71.6493  221.2017 H   0  0  0  0  0  0  0  0  0  0  0  0
  145.3155   75.7281  220.4733 H   0  0  0  0  0  0  0  0  0  0  0  0
  139.4590   71.4140  221.4470 H   0  0  0  0  0  0  0  0  0  0  0  0
  140.0642   70.1886  223.5226 H   0  0  0  0  0  0  0  0  0  0  0  0
  141.2891   73.1017  225.6859 H   0  0  0  0  0  0  0  0  0  0  0  0
  141.6147   72.8951  228.1096 H   0  0  0  0  0  0  0  0  0  0  0  0
  141.1784   70.7226  229.2463 H   0  0  0  0  0  0  0  0  0  0  0  0
  140.0931   69.0195  225.4423 H   0  0  0  0  0  0  0  0  0  0  0  0
  1  2  2  0
  2  3  1  0
  3  4  1  0
  4  5  1  0
  5  6  1  0
  6  7  1  0
  7  8  2  0
  8  9  1  0
  9 10  2  0
 10 11  1  0
 10 12  1  0
 12 13  2  0
 13 14  1  0
  2 15  1  0
 15 16  1  0
 16 17  2  0
 17 18  1  0
 18 19  2  0
 19 20  1  0
 20 21  2  0
 21 22  1  0
 22 23  1  0
 23 24  1  0
 23 25  1  0
 23 26  1  0
 22 27  2  0
 13  7  1  0
 27 18  1  0
  3 28  1  0
  3 29  1  0
  4 30  1  0
  4 31  1  0
  5 32  1  0
  5 33  1  0
  8 34  1  0
  9 35  1  0
 12 36  1  0
 15 37  1  0
 17 38  1  0
 19 39  1  0
 20 40  1  0
 21 41  1  0
 27 42  1  0
M  END
>  <smiles>  (76) 
O=C(CCCOc1ccc(Cl)cc1Cl)NN=Cc1cccc(C(F)(F)F)c1

>  <score_type>  (76) 
oracle

>  <origin>  (76) 
autodockgpu

>  <m_score__min__energy>  (76) 
-7.79

>  <m_primary>  (76) 
energy

>  <rmsd>  (76) 
9.199745082403183

>  <m_score__min__rmsd>  (76) 
9.199745082403183

>  <meeko>  (76) 
{"free_energy": -6.68, "intermolecular_energy": -9.36, "internal_energy": -1.3, "cluster_size": 8, "cluster_id": 3, "rank_in_cluster": 1}

>  <energy>  (76) 
-6.01

>  <cluster_rmsd>  (76) 
1.67

>  <cluster>  (76) 
3

$$$$

     RDKit          3D

 42 43  0  0  1  0  0  0  0  0999 V2000
  141.2270   74.4110  220.9600 O   0  0  0  0  0  0  0  0  0  0  0  0
  140.0710   74.5710  221.4310 C   0  0  0  0  0  0  0  0  0  0  0  0
  139.1660   75.6650  220.9960 C   0  0  0  0  0  0  0  0  0  0  0  0
  138.3580   76.2370  222.1050 C   0  0  0  0  0  0  0  0  0  0  0  0
  136.8980   75.7610  221.8960 C   0  0  0  0  0  0  0  0  0  0  0  0
  136.5650   74.6650  222.5050 O   0  0  0  0  0  0  0  0  0  0  0  0
  136.2390   73.5840  223.1060 C   0  0  0  0  0  0  0  0  0  0  0  0
  136.6390   72.3200  222.6490 C   0  0  0  0  0  0  0  0  0  0  0  0
  136.2890   71.1580  223.2940 C   0  0  0  0  0  0  0  0  0  0  0  0
  135.5190   71.2640  224.4240 C   0  0  0  0  0  0  0  0  0  0  0  0
  135.0660   69.8020  225.2530 Cl  0  0  0  0  0  0  0  0  0  0  0  0
  135.0880   72.4610  224.9330 C   0  0  0  0  0  0  0  0  0  0  0  0
  135.4520   73.6040  224.2700 C   0  0  0  0  0  0  0  0  0  0  0  0
  134.9340   75.1560  224.8700 Cl  0  0  0  0  0  0  0  0  0  0  0  0
  139.5360   73.6860  222.4430 N   0  0  0  0  0  0  0  0  0  0  0  0
  140.3380   72.6660  222.8690 N   0  0  0  0  0  0  0  0  0  0  0  0
  139.8850   71.5250  223.1630 C   0  0  0  0  0  0  0  0  0  0  0  0
  139.8460   70.8360  224.4190 C   0  0  0  0  0  0  0  0  0  0  0  0
  139.3650   69.5850  224.6730 C   0  0  0  0  0  0  0  0  0  0  0  0
  139.3580   68.9910  225.9280 C   0  0  0  0  0  0  0  0  0  0  0  0
  139.8550   69.6680  227.0050 C   0  0  0  0  0  0  0  0  0  0  0  0
  140.3480   70.9360  226.7760 C   0  0  0  0  0  0  0  0  0  0  0  0
  140.8890   71.6850  227.9270 C   0  0  0  0  0  0  0  0  0  0  0  0
  141.6760   70.8540  228.7000 F   0  0  0  0  0  0  0  0  0  0  0  0
  141.6840   72.7370  227.4710 F   0  0  0  0  0  0  0  0  0  0  0  0
  139.8900   72.2710  228.6850 F   0  0  0  0  0  0  0  0  0  0  0  0
  140.3520   71.5180  225.5310 C   0  0  0  0  0  0  0  0  0  0  0  0
  139.7758   76.4689  220.5579 H   0  0  0  0  0  0  0  0  0  0  0  0
  138.4618   75.2349  220.2686 H   0  0  0  0  0  0  0  0  0  0  0  0
  138.7374   75.8775  223.0729 H   0  0  0  0  0  0  0  0  0  0  0  0
  138.4158   77.3355  222.1060 H   0  0  0  0  0  0  0  0  0  0  0  0
  136.2296   76.5595  222.2504 H   0  0  0  0  0  0  0  0  0  0  0  0
  136.8079   75.5427  220.8216 H   0  0  0  0  0  0  0  0  0  0  0  0
  137.2559   72.2562  221.7405 H   0  0  0  0  0  0  0  0  0  0  0  0
  136.6150   70.1773  222.9172 H   0  0  0  0  0  0  0  0  0  0  0  0
  134.4709   72.5031  225.8427 H   0  0  0  0  0  0  0  0  0  0  0  0
  138.5630   73.8540  222.8400 H   0  0  0  0  0  0  0  0  0  0  0  0
  139.4499   70.9700  222.3188 H   0  0  0  0  0  0  0  0  0  0  0  0
  138.9563   69.0097  223.8292 H   0  0  0  0  0  0  0  0  0  0  0  0
  138.9526   67.9763  226.0547 H   0  0  0  0  0  0  0  0  0  0  0  0
  139.8619   69.2220  228.0105 H   0  0  0  0  0  0  0  0  0  0  0  0
  140.7581   72.5328  225.4072 H   0  0  0  0  0  0  0  0  0  0  0  0
  1  2  2  0
  2  3  1  0
  3  4  1  0
  4  5  1  0
  5  6  1  0
  6  7  1  0
  7  8  2  0
  8  9  1  0
  9 10  2  0
 10 11  1  0
 10 12  1  0
 12 13  2  0
 13 14  1  0
  2 15  1  0
 15 16  1  0
 16 17  2  0
 17 18  1  0
 18 19  2  0
 19 20  1  0
 20 21  2  0
 21 22  1  0
 22 23  1  0
 23 24  1  0
 23 25  1  0
 23 26  1  0
 22 27  2  0
 13  7  1  0
 27 18  1  0
  3 28  1  0
  3 29  1  0
  4 30  1  0
  4 31  1  0
  5 32  1  0
  5 33  1  0
  8 34  1  0
  9 35  1  0
 12 36  1  0
 15 37  1  0
 17 38  1  0
 19 39  1  0
 20 40  1  0
 21 41  1  0
 27 42  1  0
M  END
>  <smiles>  (77) 
O=C(CCCOc1ccc(Cl)cc1Cl)NN=Cc1cccc(C(F)(F)F)c1

>  <score_type>  (77) 
oracle

>  <origin>  (77) 
autodockgpu

>  <m_score__min__energy>  (77) 
-7.79

>  <m_primary>  (77) 
energy

>  <rmsd>  (77) 
10.3809357761119

>  <m_score__min__rmsd>  (77) 
10.3809357761119

>  <meeko>  (77) 
{"free_energy": -5.64, "intermolecular_energy": -8.33, "internal_energy": -2.41, "cluster_size": 13, "cluster_id": 6, "rank_in_cluster": 7}

>  <energy>  (77) 
-6.14

>  <cluster_rmsd>  (77) 
0.0

>  <cluster>  (77) 
4

$$$$

     RDKit          3D

 42 43  0  0  1  0  0  0  0  0999 V2000
  141.1110   74.2320  220.9460 O   0  0  0  0  0  0  0  0  0  0  0  0
  140.1030   74.6340  221.5820 C   0  0  0  0  0  0  0  0  0  0  0  0
  139.6910   76.0600  221.6280 C   0  0  0  0  0  0  0  0  0  0  0  0
  138.7260   76.3600  222.7190 C   0  0  0  0  0  0  0  0  0  0  0  0
  137.3230   75.9390  222.2120 C   0  0  0  0  0  0  0  0  0  0  0  0
  136.5670   75.3300  223.0720 O   0  0  0  0  0  0  0  0  0  0  0  0
  135.8220   74.7260  223.9170 C   0  0  0  0  0  0  0  0  0  0  0  0
  135.1980   75.3930  224.9820 C   0  0  0  0  0  0  0  0  0  0  0  0
  134.3970   74.7450  225.8900 C   0  0  0  0  0  0  0  0  0  0  0  0
  134.2160   73.3960  225.7310 C   0  0  0  0  0  0  0  0  0  0  0  0
  133.2050   72.5580  226.8740 Cl  0  0  0  0  0  0  0  0  0  0  0  0
  134.7910   72.6720  224.7180 C   0  0  0  0  0  0  0  0  0  0  0  0
  135.5840   73.3440  223.8270 C   0  0  0  0  0  0  0  0  0  0  0  0
  136.3410   72.4770  222.5170 Cl  0  0  0  0  0  0  0  0  0  0  0  0
  139.2610   73.7190  222.3240 N   0  0  0  0  0  0  0  0  0  0  0  0
  139.6060   72.3980  222.3060 N   0  0  0  0  0  0  0  0  0  0  0  0
  140.4130   71.8970  223.1380 C   0  0  0  0  0  0  0  0  0  0  0  0
  140.1680   71.1280  224.3230 C   0  0  0  0  0  0  0  0  0  0  0  0
  139.5140   69.9350  224.4260 C   0  0  0  0  0  0  0  0  0  0  0  0
  139.3130   69.2570  225.6210 C   0  0  0  0  0  0  0  0  0  0  0  0
  139.7840   69.7810  226.7900 C   0  0  0  0  0  0  0  0  0  0  0  0
  140.4500   70.9870  226.7130 C   0  0  0  0  0  0  0  0  0  0  0  0
  140.9670   71.5720  227.9660 C   0  0  0  0  0  0  0  0  0  0  0  0
  141.6570   70.6140  228.6820 F   0  0  0  0  0  0  0  0  0  0  0  0
  141.8470   72.6120  227.6700 F   0  0  0  0  0  0  0  0  0  0  0  0
  139.9620   72.1380  228.7320 F   0  0  0  0  0  0  0  0  0  0  0  0
  140.6460   71.6540  225.5280 C   0  0  0  0  0  0  0  0  0  0  0  0
  140.5888   76.6779  221.7767 H   0  0  0  0  0  0  0  0  0  0  0  0
  139.1860   76.2834  220.6767 H   0  0  0  0  0  0  0  0  0  0  0  0
  138.9880   75.7897  223.6224 H   0  0  0  0  0  0  0  0  0  0  0  0
  138.7455   77.4291  222.9771 H   0  0  0  0  0  0  0  0  0  0  0  0
  136.7965   76.8479  221.8852 H   0  0  0  0  0  0  0  0  0  0  0  0
  137.5044   75.2104  221.4082 H   0  0  0  0  0  0  0  0  0  0  0  0
  135.3563   76.4758  225.0939 H   0  0  0  0  0  0  0  0  0  0  0  0
  133.9173   75.2900  226.7164 H   0  0  0  0  0  0  0  0  0  0  0  0
  134.6210   71.5892  224.6247 H   0  0  0  0  0  0  0  0  0  0  0  0
  138.4250   74.0860  222.8710 H   0  0  0  0  0  0  0  0  0  0  0  0
  141.4752   72.0801  222.9182 H   0  0  0  0  0  0  0  0  0  0  0  0
  139.1211   69.4816  223.5040 H   0  0  0  0  0  0  0  0  0  0  0  0
  138.7744   68.2979  225.6256 H   0  0  0  0  0  0  0  0  0  0  0  0
  139.6391   69.2649  227.7506 H   0  0  0  0  0  0  0  0  0  0  0  0
  141.1851   72.6128  225.5267 H   0  0  0  0  0  0  0  0  0  0  0  0
  1  2  2  0
  2  3  1  0
  3  4  1  0
  4  5  1  0
  5  6  1  0
  6  7  1  0
  7  8  2  0
  8  9  1  0
  9 10  2  0
 10 11  1  0
 10 12  1  0
 12 13  2  0
 13 14  1  0
  2 15  1  0
 15 16  1  0
 16 17  2  0
 17 18  1  0
 18 19  2  0
 19 20  1  0
 20 21  2  0
 21 22  1  0
 22 23  1  0
 23 24  1  0
 23 25  1  0
 23 26  1  0
 22 27  2  0
 13  7  1  0
 27 18  1  0
  3 28  1  0
  3 29  1  0
  4 30  1  0
  4 31  1  0
  5 32  1  0
  5 33  1  0
  8 34  1  0
  9 35  1  0
 12 36  1  0
 15 37  1  0
 17 38  1  0
 19 39  1  0
 20 40  1  0
 21 41  1  0
 27 42  1  0
M  END
>  <smiles>  (78) 
O=C(CCCOc1ccc(Cl)cc1Cl)NN=Cc1cccc(C(F)(F)F)c1

>  <score_type>  (78) 
oracle

>  <origin>  (78) 
autodockgpu

>  <m_score__min__energy>  (78) 
-7.79

>  <m_primary>  (78) 
energy

>  <rmsd>  (78) 
9.738250152041674

>  <m_score__min__rmsd>  (78) 
9.738250152041674

>  <meeko>  (78) 
{"free_energy": -6.05, "intermolecular_energy": -8.74, "internal_energy": -1.79, "cluster_size": 13, "cluster_id": 6, "rank_in_cluster": 1}

>  <energy>  (78) 
-5.72

>  <cluster_rmsd>  (78) 
0.75

>  <cluster>  (78) 
4

$$$$

     RDKit          3D

 42 43  0  0  1  0  0  0  0  0999 V2000
  141.0160   74.9280  221.2940 O   0  0  0  0  0  0  0  0  0  0  0  0
  139.8200   74.6840  221.5990 C   0  0  0  0  0  0  0  0  0  0  0  0
  138.6820   75.5180  221.1380 C   0  0  0  0  0  0  0  0  0  0  0  0
  137.5190   75.4900  222.0630 C   0  0  0  0  0  0  0  0  0  0  0  0
  137.2670   76.9490  222.5210 C   0  0  0  0  0  0  0  0  0  0  0  0
  138.3250   77.6620  222.7580 O   0  0  0  0  0  0  0  0  0  0  0  0
  139.3660   78.3670  222.9890 C   0  0  0  0  0  0  0  0  0  0  0  0
  140.6640   77.8890  222.7580 C   0  0  0  0  0  0  0  0  0  0  0  0
  141.7840   78.6460  223.0060 C   0  0  0  0  0  0  0  0  0  0  0  0
  141.6000   79.9120  223.4990 C   0  0  0  0  0  0  0  0  0  0  0  0
  143.0070   80.8850  223.8210 Cl  0  0  0  0  0  0  0  0  0  0  0  0
  140.3650   80.4510  223.7520 C   0  0  0  0  0  0  0  0  0  0  0  0
  139.2660   79.6740  223.4940 C   0  0  0  0  0  0  0  0  0  0  0  0
  137.6700   80.3050  223.7950 Cl  0  0  0  0  0  0  0  0  0  0  0  0
  139.4670   73.5550  222.4320 N   0  0  0  0  0  0  0  0  0  0  0  0
  140.4860   72.7620  222.8760 N   0  0  0  0  0  0  0  0  0  0  0  0
  140.3300   71.5360  223.1330 C   0  0  0  0  0  0  0  0  0  0  0  0
  140.1670   70.8620  224.3870 C   0  0  0  0  0  0  0  0  0  0  0  0
  139.6040   69.6410  224.6150 C   0  0  0  0  0  0  0  0  0  0  0  0
  139.4790   69.0600  225.8700 C   0  0  0  0  0  0  0  0  0  0  0  0
  139.9360   69.7200  226.9740 C   0  0  0  0  0  0  0  0  0  0  0  0
  140.5110   70.9580  226.7720 C   0  0  0  0  0  0  0  0  0  0  0  0
  141.0110   71.6880  227.9540 C   0  0  0  0  0  0  0  0  0  0  0  0
  141.8000   70.8550  228.7220 F   0  0  0  0  0  0  0  0  0  0  0  0
  141.7920   72.7680  227.5410 F   0  0  0  0  0  0  0  0  0  0  0  0
  139.9840   72.2330  228.7050 F   0  0  0  0  0  0  0  0  0  0  0  0
  140.6320   71.5270  225.5270 C   0  0  0  0  0  0  0  0  0  0  0  0
  139.0275   76.5580  221.0431 H   0  0  0  0  0  0  0  0  0  0  0  0
  138.3434   75.1039  220.1768 H   0  0  0  0  0  0  0  0  0  0  0  0
  136.6321   75.0992  221.5427 H   0  0  0  0  0  0  0  0  0  0  0  0
  137.7199   74.8376  222.9256 H   0  0  0  0  0  0  0  0  0  0  0  0
  136.6904   77.4544  221.7323 H   0  0  0  0  0  0  0  0  0  0  0  0
  136.7406   76.8707  223.4837 H   0  0  0  0  0  0  0  0  0  0  0  0
  140.7905   76.8700  222.3635 H   0  0  0  0  0  0  0  0  0  0  0  0
  142.7925   78.2501  222.8156 H   0  0  0  0  0  0  0  0  0  0  0  0
  140.2599   81.4717  224.1483 H   0  0  0  0  0  0  0  0  0  0  0  0
  138.4500   73.3800  222.6930 H   0  0  0  0  0  0  0  0  0  0  0  0
  140.3171   70.8784  222.2513 H   0  0  0  0  0  0  0  0  0  0  0  0
  139.2242   69.0799  223.7484 H   0  0  0  0  0  0  0  0  0  0  0  0
  139.0124   68.0693  225.9743 H   0  0  0  0  0  0  0  0  0  0  0  0
  139.8497   69.2842  227.9803 H   0  0  0  0  0  0  0  0  0  0  0  0
  141.1001   72.5172  225.4253 H   0  0  0  0  0  0  0  0  0  0  0  0
  1  2  2  0
  2  3  1  0
  3  4  1  0
  4  5  1  0
  5  6  1  0
  6  7  1  0
  7  8  2  0
  8  9  1  0
  9 10  2  0
 10 11  1  0
 10 12  1  0
 12 13  2  0
 13 14  1  0
  2 15  1  0
 15 16  1  0
 16 17  2  0
 17 18  1  0
 18 19  2  0
 19 20  1  0
 20 21  2  0
 21 22  1  0
 22 23  1  0
 23 24  1  0
 23 25  1  0
 23 26  1  0
 22 27  2  0
 13  7  1  0
 27 18  1  0
  3 28  1  0
  3 29  1  0
  4 30  1  0
  4 31  1  0
  5 32  1  0
  5 33  1  0
  8 34  1  0
  9 35  1  0
 12 36  1  0
 15 37  1  0
 17 38  1  0
 19 39  1  0
 20 40  1  0
 21 41  1  0
 27 42  1  0
M  END
>  <smiles>  (79) 
O=C(CCCOc1ccc(Cl)cc1Cl)NN=Cc1cccc(C(F)(F)F)c1

>  <score_type>  (79) 
oracle

>  <origin>  (79) 
autodockgpu

>  <m_score__min__energy>  (79) 
-7.79

>  <m_primary>  (79) 
energy

>  <rmsd>  (79) 
5.866219065683093

>  <m_score__min__rmsd>  (79) 
5.866219065683093

>  <meeko>  (79) 
{"free_energy": -7.63, "intermolecular_energy": -10.31, "internal_energy": -0.95, "cluster_size": 13, "cluster_id": 1, "rank_in_cluster": 2}

>  <energy>  (79) 
-5.58

>  <cluster_rmsd>  (79) 
1.23

>  <cluster>  (79) 
4

$$$$

     RDKit          3D

 42 43  0  0  1  0  0  0  0  0999 V2000
  137.0730   70.3660  224.1370 O   0  0  0  0  0  0  0  0  0  0  0  0
  137.3170   71.5090  223.6720 C   0  0  0  0  0  0  0  0  0  0  0  0
  136.2710   72.5440  223.4760 C   0  0  0  0  0  0  0  0  0  0  0  0
  135.6600   72.5160  222.1220 C   0  0  0  0  0  0  0  0  0  0  0  0
  136.7900   72.8280  221.1080 C   0  0  0  0  0  0  0  0  0  0  0  0
  137.5810   73.8070  221.4210 O   0  0  0  0  0  0  0  0  0  0  0  0
  138.3610   74.7740  221.7260 C   0  0  0  0  0  0  0  0  0  0  0  0
  139.7390   74.7380  221.4700 C   0  0  0  0  0  0  0  0  0  0  0  0
  140.5770   75.7750  221.7980 C   0  0  0  0  0  0  0  0  0  0  0  0
  140.0240   76.8760  222.3990 C   0  0  0  0  0  0  0  0  0  0  0  0
  141.0720   78.2000  222.8220 Cl  0  0  0  0  0  0  0  0  0  0  0  0
  138.6870   76.9880  222.6830 C   0  0  0  0  0  0  0  0  0  0  0  0
  137.8740   75.9380  222.3450 C   0  0  0  0  0  0  0  0  0  0  0  0
  136.1660   76.0220  222.6810 Cl  0  0  0  0  0  0  0  0  0  0  0  0
  138.6570   71.9000  223.2900 N   0  0  0  0  0  0  0  0  0  0  0  0
  139.6490   70.9760  223.4540 N   0  0  0  0  0  0  0  0  0  0  0  0
  140.6780   71.2030  224.1500 C   0  0  0  0  0  0  0  0  0  0  0  0
  140.8580   71.2030  225.5720 C   0  0  0  0  0  0  0  0  0  0  0  0
  141.2830   72.2310  226.3610 C   0  0  0  0  0  0  0  0  0  0  0  0
  141.4380   72.1460  227.7380 C   0  0  0  0  0  0  0  0  0  0  0  0
  141.1560   70.9760  228.3840 C   0  0  0  0  0  0  0  0  0  0  0  0
  140.7230   69.9200  227.6090 C   0  0  0  0  0  0  0  0  0  0  0  0
  140.4140   68.6470  228.2880 C   0  0  0  0  0  0  0  0  0  0  0  0
  139.5650   68.8760  229.3520 F   0  0  0  0  0  0  0  0  0  0  0  0
  139.7730   67.7840  227.3970 F   0  0  0  0  0  0  0  0  0  0  0  0
  141.5570   67.9810  228.6970 F   0  0  0  0  0  0  0  0  0  0  0  0
  140.5720   70.0110  226.2460 C   0  0  0  0  0  0  0  0  0  0  0  0
  135.4772   72.3828  224.2202 H   0  0  0  0  0  0  0  0  0  0  0  0
  136.7574   73.5237  223.5927 H   0  0  0  0  0  0  0  0  0  0  0  0
  135.2351   71.5217  221.9199 H   0  0  0  0  0  0  0  0  0  0  0  0
  134.8473   73.2530  222.0429 H   0  0  0  0  0  0  0  0  0  0  0  0
  137.4035   71.9216  220.9985 H   0  0  0  0  0  0  0  0  0  0  0  0
  136.2812   73.1418  220.1846 H   0  0  0  0  0  0  0  0  0  0  0  0
  140.1648   73.8454  220.9883 H   0  0  0  0  0  0  0  0  0  0  0  0
  141.6551   75.7241  221.5858 H   0  0  0  0  0  0  0  0  0  0  0  0
  138.2813   77.8895  223.1654 H   0  0  0  0  0  0  0  0  0  0  0  0
  138.8360   72.8660  222.8800 H   0  0  0  0  0  0  0  0  0  0  0  0
  141.5830   71.4390  223.5710 H   0  0  0  0  0  0  0  0  0  0  0  0
  141.5182   73.1894  225.8750 H   0  0  0  0  0  0  0  0  0  0  0  0
  141.7874   73.0196  228.3080 H   0  0  0  0  0  0  0  0  0  0  0  0
  141.2691   70.8800  229.4740 H   0  0  0  0  0  0  0  0  0  0  0  0
  140.2221   69.1362  225.6783 H   0  0  0  0  0  0  0  0  0  0  0  0
  1  2  2  0
  2  3  1  0
  3  4  1  0
  4  5  1  0
  5  6  1  0
  6  7  1  0
  7  8  2  0
  8  9  1  0
  9 10  2  0
 10 11  1  0
 10 12  1  0
 12 13  2  0
 13 14  1  0
  2 15  1  0
 15 16  1  0
 16 17  2  0
 17 18  1  0
 18 19  2  0
 19 20  1  0
 20 21  2  0
 21 22  1  0
 22 23  1  0
 23 24  1  0
 23 25  1  0
 23 26  1  0
 22 27  2  0
 13  7  1  0
 27 18  1  0
  3 28  1  0
  3 29  1  0
  4 30  1  0
  4 31  1  0
  5 32  1  0
  5 33  1  0
  8 34  1  0
  9 35  1  0
 12 36  1  0
 15 37  1  0
 17 38  1  0
 19 39  1  0
 20 40  1  0
 21 41  1  0
 27 42  1  0
M  END
>  <smiles>  (80) 
O=C(CCCOc1ccc(Cl)cc1Cl)NN=Cc1cccc(C(F)(F)F)c1

>  <score_type>  (80) 
oracle

>  <origin>  (80) 
autodockgpu

>  <m_score__min__energy>  (80) 
-7.79

>  <m_primary>  (80) 
energy

>  <rmsd>  (80) 
8.584782713953523

>  <m_score__min__rmsd>  (80) 
8.584782713953523

>  <meeko>  (80) 
{"free_energy": -5.58, "intermolecular_energy": -8.26, "internal_energy": -2.0, "cluster_size": 3, "cluster_id": 4, "rank_in_cluster": 3}

>  <energy>  (80) 
-6.1

>  <cluster_rmsd>  (80) 
0.0

>  <cluster>  (80) 
5

$$$$

     RDKit          3D

 42 43  0  0  1  0  0  0  0  0999 V2000
  140.5010   73.3650  222.6020 O   0  0  0  0  0  0  0  0  0  0  0  0
  139.4360   73.0680  222.0020 C   0  0  0  0  0  0  0  0  0  0  0  0
  138.5370   74.0850  221.4000 C   0  0  0  0  0  0  0  0  0  0  0  0
  138.4910   74.0260  219.9160 C   0  0  0  0  0  0  0  0  0  0  0  0
  139.5840   74.9900  219.3900 C   0  0  0  0  0  0  0  0  0  0  0  0
  140.8080   74.6820  219.6910 O   0  0  0  0  0  0  0  0  0  0  0  0
  142.0150   74.3800  219.9850 C   0  0  0  0  0  0  0  0  0  0  0  0
  142.3840   73.1020  220.4290 C   0  0  0  0  0  0  0  0  0  0  0  0
  143.6800   72.7770  220.7460 C   0  0  0  0  0  0  0  0  0  0  0  0
  144.6320   73.7550  220.6170 C   0  0  0  0  0  0  0  0  0  0  0  0
  146.2810   73.3610  221.0140 Cl  0  0  0  0  0  0  0  0  0  0  0  0
  144.3520   75.0280  220.1910 C   0  0  0  0  0  0  0  0  0  0  0  0
  143.0510   75.3240  219.8810 C   0  0  0  0  0  0  0  0  0  0  0  0
  142.6340   76.9250  219.3340 Cl  0  0  0  0  0  0  0  0  0  0  0  0
  139.0080   71.6940  221.8550 N   0  0  0  0  0  0  0  0  0  0  0  0
  139.8080   70.7280  222.3940 N   0  0  0  0  0  0  0  0  0  0  0  0
  139.5690   70.1960  223.5140 C   0  0  0  0  0  0  0  0  0  0  0  0
  140.0580   70.5220  224.8220 C   0  0  0  0  0  0  0  0  0  0  0  0
  140.7020   71.6580  225.2160 C   0  0  0  0  0  0  0  0  0  0  0  0
  141.1520   71.8920  226.5080 C   0  0  0  0  0  0  0  0  0  0  0  0
  140.9580   70.9510  227.4780 C   0  0  0  0  0  0  0  0  0  0  0  0
  140.3090   69.7920  227.1060 C   0  0  0  0  0  0  0  0  0  0  0  0
  140.0900   68.7610  228.1400 C   0  0  0  0  0  0  0  0  0  0  0  0
  141.2900   68.4340  228.7390 F   0  0  0  0  0  0  0  0  0  0  0  0
  139.2340   69.2580  229.1230 F   0  0  0  0  0  0  0  0  0  0  0  0
  139.4640   67.6360  227.6320 F   0  0  0  0  0  0  0  0  0  0  0  0
  139.8660   69.5660  225.8250 C   0  0  0  0  0  0  0  0  0  0  0  0
  137.5200   73.9246  221.7872 H   0  0  0  0  0  0  0  0  0  0  0  0
  138.9345   75.0734  221.6740 H   0  0  0  0  0  0  0  0  0  0  0  0
  138.6941   73.0010  219.5722 H   0  0  0  0  0  0  0  0  0  0  0  0
  137.4982   74.3169  219.5422 H   0  0  0  0  0  0  0  0  0  0  0  0
  139.5051   75.0217  218.2933 H   0  0  0  0  0  0  0  0  0  0  0  0
  139.3912   75.9539  219.8837 H   0  0  0  0  0  0  0  0  0  0  0  0
  141.6059   72.3307  220.5271 H   0  0  0  0  0  0  0  0  0  0  0  0
  143.9451   71.7669  221.0915 H   0  0  0  0  0  0  0  0  0  0  0  0
  145.1448   75.7853  220.1013 H   0  0  0  0  0  0  0  0  0  0  0  0
  138.0920   71.4690  221.3610 H   0  0  0  0  0  0  0  0  0  0  0  0
  138.8731   69.3448  223.4809 H   0  0  0  0  0  0  0  0  0  0  0  0
  140.8759   72.4390  224.4612 H   0  0  0  0  0  0  0  0  0  0  0  0
  141.6645   72.8347  226.7502 H   0  0  0  0  0  0  0  0  0  0  0  0
  141.3038   71.1100  228.5101 H   0  0  0  0  0  0  0  0  0  0  0  0
  139.3543   68.6222  225.5854 H   0  0  0  0  0  0  0  0  0  0  0  0
  1  2  2  0
  2  3  1  0
  3  4  1  0
  4  5  1  0
  5  6  1  0
  6  7  1  0
  7  8  2  0
  8  9  1  0
  9 10  2  0
 10 11  1  0
 10 12  1  0
 12 13  2  0
 13 14  1  0
  2 15  1  0
 15 16  1  0
 16 17  2  0
 17 18  1  0
 18 19  2  0
 19 20  1  0
 20 21  2  0
 21 22  1  0
 22 23  1  0
 23 24  1  0
 23 25  1  0
 23 26  1  0
 22 27  2  0
 13  7  1  0
 27 18  1  0
  3 28  1  0
  3 29  1  0
  4 30  1  0
  4 31  1  0
  5 32  1  0
  5 33  1  0
  8 34  1  0
  9 35  1  0
 12 36  1  0
 15 37  1  0
 17 38  1  0
 19 39  1  0
 20 40  1  0
 21 41  1  0
 27 42  1  0
M  END
>  <smiles>  (81) 
O=C(CCCOc1ccc(Cl)cc1Cl)NN=Cc1cccc(C(F)(F)F)c1

>  <score_type>  (81) 
oracle

>  <origin>  (81) 
autodockgpu

>  <m_score__min__energy>  (81) 
-7.79

>  <m_primary>  (81) 
energy

>  <rmsd>  (81) 
8.847296641526208

>  <m_score__min__rmsd>  (81) 
8.847296641526208

>  <meeko>  (81) 
{"free_energy": -6.18, "intermolecular_energy": -8.87, "internal_energy": -1.28, "cluster_size": 8, "cluster_id": 3, "rank_in_cluster": 6}

>  <energy>  (81) 
-6.05

>  <cluster_rmsd>  (81) 
0.0

>  <cluster>  (81) 
6

$$$$

     RDKit          3D

 42 43  0  0  1  0  0  0  0  0999 V2000
  139.9320   75.6170  222.4170 O   0  0  0  0  0  0  0  0  0  0  0  0
  139.3530   74.8240  221.6300 C   0  0  0  0  0  0  0  0  0  0  0  0
  138.4610   75.2790  220.5340 C   0  0  0  0  0  0  0  0  0  0  0  0
  139.1650   75.4610  219.2370 C   0  0  0  0  0  0  0  0  0  0  0  0
  139.8700   74.1190  218.9120 C   0  0  0  0  0  0  0  0  0  0  0  0
  141.0670   73.9750  219.3900 O   0  0  0  0  0  0  0  0  0  0  0  0
  142.2480   73.8360  219.8590 C   0  0  0  0  0  0  0  0  0  0  0  0
  142.7310   72.6070  220.3300 C   0  0  0  0  0  0  0  0  0  0  0  0
  144.0000   72.4570  220.8350 C   0  0  0  0  0  0  0  0  0  0  0  0
  144.8060   73.5650  220.8710 C   0  0  0  0  0  0  0  0  0  0  0  0
  146.4170   73.3940  221.5090 Cl  0  0  0  0  0  0  0  0  0  0  0  0
  144.4090   74.8020  220.4310 C   0  0  0  0  0  0  0  0  0  0  0  0
  143.1380   74.9210  219.9320 C   0  0  0  0  0  0  0  0  0  0  0  0
  142.5770   76.4680  219.3570 Cl  0  0  0  0  0  0  0  0  0  0  0  0
  139.5210   73.3910  221.7400 N   0  0  0  0  0  0  0  0  0  0  0  0
  140.3350   72.9320  222.7360 N   0  0  0  0  0  0  0  0  0  0  0  0
  140.4420   71.7040  223.0130 C   0  0  0  0  0  0  0  0  0  0  0  0
  140.2270   71.0080  224.2470 C   0  0  0  0  0  0  0  0  0  0  0  0
  139.6170   69.8020  224.4320 C   0  0  0  0  0  0  0  0  0  0  0  0
  139.4420   69.1970  225.6700 C   0  0  0  0  0  0  0  0  0  0  0  0
  139.8960   69.8150  226.8000 C   0  0  0  0  0  0  0  0  0  0  0  0
  140.5170   71.0370  226.6410 C   0  0  0  0  0  0  0  0  0  0  0  0
  141.0140   71.7220  227.8500 C   0  0  0  0  0  0  0  0  0  0  0  0
  141.8240   72.7800  227.4910 F   0  0  0  0  0  0  0  0  0  0  0  0
  139.9370   72.2260  228.5790 F   0  0  0  0  0  0  0  0  0  0  0  0
  141.6730   70.8570  228.7070 F   0  0  0  0  0  0  0  0  0  0  0  0
  140.6870   71.6300  225.4130 C   0  0  0  0  0  0  0  0  0  0  0  0
  137.6665   74.5305  220.3975 H   0  0  0  0  0  0  0  0  0  0  0  0
  138.0611   76.2609  220.8271 H   0  0  0  0  0  0  0  0  0  0  0  0
  138.4418   75.7091  218.4461 H   0  0  0  0  0  0  0  0  0  0  0  0
  139.8937   76.2827  219.2977 H   0  0  0  0  0  0  0  0  0  0  0  0
  139.2473   73.3059  219.3134 H   0  0  0  0  0  0  0  0  0  0  0  0
  139.9835   74.1011  217.8180 H   0  0  0  0  0  0  0  0  0  0  0  0
  142.0688   71.7294  220.2939 H   0  0  0  0  0  0  0  0  0  0  0  0
  144.3566   71.4817  221.1978 H   0  0  0  0  0  0  0  0  0  0  0  0
  145.0864   75.6675  220.4770 H   0  0  0  0  0  0  0  0  0  0  0  0
  139.0050   72.7390  221.0760 H   0  0  0  0  0  0  0  0  0  0  0  0
  140.7498   71.0663  222.1712 H   0  0  0  0  0  0  0  0  0  0  0  0
  139.2394   69.2747  223.5436 H   0  0  0  0  0  0  0  0  0  0  0  0
  138.9385   68.2215  225.7401 H   0  0  0  0  0  0  0  0  0  0  0  0
  139.7721   69.3588  227.7932 H   0  0  0  0  0  0  0  0  0  0  0  0
  141.1908   72.6055  225.3458 H   0  0  0  0  0  0  0  0  0  0  0  0
  1  2  2  0
  2  3  1  0
  3  4  1  0
  4  5  1  0
  5  6  1  0
  6  7  1  0
  7  8  2  0
  8  9  1  0
  9 10  2  0
 10 11  1  0
 10 12  1  0
 12 13  2  0
 13 14  1  0
  2 15  1  0
 15 16  1  0
 16 17  2  0
 17 18  1  0
 18 19  2  0
 19 20  1  0
 20 21  2  0
 21 22  1  0
 22 23  1  0
 23 24  1  0
 23 25  1  0
 23 26  1  0
 22 27  2  0
 13  7  1  0
 27 18  1  0
  3 28  1  0
  3 29  1  0
  4 30  1  0
  4 31  1  0
  5 32  1  0
  5 33  1  0
  8 34  1  0
  9 35  1  0
 12 36  1  0
 15 37  1  0
 17 38  1  0
 19 39  1  0
 20 40  1  0
 21 41  1  0
 27 42  1  0
M  END
>  <smiles>  (82) 
O=C(CCCOc1ccc(Cl)cc1Cl)NN=Cc1cccc(C(F)(F)F)c1

>  <score_type>  (82) 
oracle

>  <origin>  (82) 
autodockgpu

>  <m_score__min__energy>  (82) 
-7.79

>  <m_primary>  (82) 
energy

>  <rmsd>  (82) 
9.585288357147562

>  <m_score__min__rmsd>  (82) 
9.585288357147562

>  <meeko>  (82) 
{"free_energy": -6.46, "intermolecular_energy": -9.15, "internal_energy": -1.49, "cluster_size": 8, "cluster_id": 3, "rank_in_cluster": 2}

>  <energy>  (82) 
-5.94

>  <cluster_rmsd>  (82) 
1.92

>  <cluster>  (82) 
6

$$$$

     RDKit          3D

 42 43  0  0  1  0  0  0  0  0999 V2000
  140.1660   72.8250  220.1080 O   0  0  0  0  0  0  0  0  0  0  0  0
  139.4270   73.5380  220.8350 C   0  0  0  0  0  0  0  0  0  0  0  0
  138.3720   74.4290  220.2900 C   0  0  0  0  0  0  0  0  0  0  0  0
  137.0260   74.1690  220.8650 C   0  0  0  0  0  0  0  0  0  0  0  0
  136.8980   75.0460  222.1360 C   0  0  0  0  0  0  0  0  0  0  0  0
  137.8190   75.9450  222.3030 O   0  0  0  0  0  0  0  0  0  0  0  0
  138.7280   76.8280  222.4680 C   0  0  0  0  0  0  0  0  0  0  0  0
  140.0950   76.5250  222.3860 C   0  0  0  0  0  0  0  0  0  0  0  0
  141.0730   77.4740  222.5640 C   0  0  0  0  0  0  0  0  0  0  0  0
  140.6730   78.7570  222.8320 C   0  0  0  0  0  0  0  0  0  0  0  0
  141.8990   79.9730  223.0620 Cl  0  0  0  0  0  0  0  0  0  0  0  0
  139.3580   79.1340  222.9300 C   0  0  0  0  0  0  0  0  0  0  0  0
  138.4040   78.1670  222.7470 C   0  0  0  0  0  0  0  0  0  0  0  0
  136.7160   78.5850  222.8580 Cl  0  0  0  0  0  0  0  0  0  0  0  0
  139.5560   73.5360  222.2770 N   0  0  0  0  0  0  0  0  0  0  0  0
  140.5150   72.7290  222.8180 N   0  0  0  0  0  0  0  0  0  0  0  0
  140.3040   71.5150  223.0920 C   0  0  0  0  0  0  0  0  0  0  0  0
  140.1520   70.8610  224.3580 C   0  0  0  0  0  0  0  0  0  0  0  0
  139.5720   69.6520  224.6110 C   0  0  0  0  0  0  0  0  0  0  0  0
  139.4590   69.0900  225.8760 C   0  0  0  0  0  0  0  0  0  0  0  0
  139.9470   69.7560  226.9640 C   0  0  0  0  0  0  0  0  0  0  0  0
  140.5380   70.9810  226.7350 C   0  0  0  0  0  0  0  0  0  0  0  0
  141.0710   71.7180  227.8980 C   0  0  0  0  0  0  0  0  0  0  0  0
  141.8070   72.8050  227.4690 F   0  0  0  0  0  0  0  0  0  0  0  0
  140.0160   72.1880  228.6800 F   0  0  0  0  0  0  0  0  0  0  0  0
  141.8220   70.9070  228.7310 F   0  0  0  0  0  0  0  0  0  0  0  0
  140.6480   71.5320  225.4810 C   0  0  0  0  0  0  0  0  0  0  0  0
  138.6489   75.4711  220.5074 H   0  0  0  0  0  0  0  0  0  0  0  0
  138.3073   74.2333  219.2095 H   0  0  0  0  0  0  0  0  0  0  0  0
  136.2461   74.4409  220.1385 H   0  0  0  0  0  0  0  0  0  0  0  0
  136.9033   73.1036  221.1097 H   0  0  0  0  0  0  0  0  0  0  0  0
  135.9278   75.5625  222.0919 H   0  0  0  0  0  0  0  0  0  0  0  0
  137.0021   74.3542  222.9849 H   0  0  0  0  0  0  0  0  0  0  0  0
  140.3956   75.4889  222.1712 H   0  0  0  0  0  0  0  0  0  0  0  0
  142.1393   77.2129  222.4938 H   0  0  0  0  0  0  0  0  0  0  0  0
  139.0788   80.1755  223.1477 H   0  0  0  0  0  0  0  0  0  0  0  0
  138.9330   74.1630  222.8700 H   0  0  0  0  0  0  0  0  0  0  0  0
  140.2239   70.8521  222.2179 H   0  0  0  0  0  0  0  0  0  0  0  0
  139.1681   69.0863  223.7584 H   0  0  0  0  0  0  0  0  0  0  0  0
  138.9769   68.1093  226.0016 H   0  0  0  0  0  0  0  0  0  0  0  0
  139.8721   69.3344  227.9772 H   0  0  0  0  0  0  0  0  0  0  0  0
  141.1318   72.5123  225.3587 H   0  0  0  0  0  0  0  0  0  0  0  0
  1  2  2  0
  2  3  1  0
  3  4  1  0
  4  5  1  0
  5  6  1  0
  6  7  1  0
  7  8  2  0
  8  9  1  0
  9 10  2  0
 10 11  1  0
 10 12  1  0
 12 13  2  0
 13 14  1  0
  2 15  1  0
 15 16  1  0
 16 17  2  0
 17 18  1  0
 18 19  2  0
 19 20  1  0
 20 21  2  0
 21 22  1  0
 22 23  1  0
 23 24  1  0
 23 25  1  0
 23 26  1  0
 22 27  2  0
 13  7  1  0
 27 18  1  0
  3 28  1  0
  3 29  1  0
  4 30  1  0
  4 31  1  0
  5 32  1  0
  5 33  1  0
  8 34  1  0
  9 35  1  0
 12 36  1  0
 15 37  1  0
 17 38  1  0
 19 39  1  0
 20 40  1  0
 21 41  1  0
 27 42  1  0
M  END
>  <smiles>  (83) 
O=C(CCCOc1ccc(Cl)cc1Cl)NN=Cc1cccc(C(F)(F)F)c1

>  <score_type>  (83) 
oracle

>  <origin>  (83) 
autodockgpu

>  <m_score__min__energy>  (83) 
-7.79

>  <m_primary>  (83) 
energy

>  <rmsd>  (83) 
6.970880158439834

>  <m_score__min__rmsd>  (83) 
6.970880158439834

>  <meeko>  (83) 
{"free_energy": -6.52, "intermolecular_energy": -9.21, "internal_energy": -1.65, "cluster_size": 13, "cluster_id": 1, "rank_in_cluster": 12}

>  <energy>  (83) 
-5.94

>  <cluster_rmsd>  (83) 
0.5

>  <cluster>  (83) 
6

$$$$

     RDKit          3D

 42 43  0  0  1  0  0  0  0  0999 V2000
  142.0100   73.8830  220.9130 O   0  0  0  0  0  0  0  0  0  0  0  0
  140.9120   74.3280  221.3360 C   0  0  0  0  0  0  0  0  0  0  0  0
  140.3100   75.5950  220.8480 C   0  0  0  0  0  0  0  0  0  0  0  0
  141.1430   76.2900  219.8330 C   0  0  0  0  0  0  0  0  0  0  0  0
  141.8160   77.4920  220.5440 C   0  0  0  0  0  0  0  0  0  0  0  0
  141.0620   78.1690  221.3530 O   0  0  0  0  0  0  0  0  0  0  0  0
  140.3170   78.8380  222.1490 C   0  0  0  0  0  0  0  0  0  0  0  0
  138.9360   78.6170  222.2500 C   0  0  0  0  0  0  0  0  0  0  0  0
  138.1350   79.3350  223.1040 C   0  0  0  0  0  0  0  0  0  0  0  0
  138.7300   80.3000  223.8750 C   0  0  0  0  0  0  0  0  0  0  0  0
  137.7290   81.2200  224.9630 Cl  0  0  0  0  0  0  0  0  0  0  0  0
  140.0720   80.5770  223.8340 C   0  0  0  0  0  0  0  0  0  0  0  0
  140.8470   79.8450  222.9730 C   0  0  0  0  0  0  0  0  0  0  0  0
  142.5600   80.1520  222.8770 Cl  0  0  0  0  0  0  0  0  0  0  0  0
  140.1470   73.6240  222.3440 N   0  0  0  0  0  0  0  0  0  0  0  0
  140.6670   72.4540  222.8180 N   0  0  0  0  0  0  0  0  0  0  0  0
  139.9400   71.4980  223.2080 C   0  0  0  0  0  0  0  0  0  0  0  0
  139.8660   70.8470  224.4830 C   0  0  0  0  0  0  0  0  0  0  0  0
  139.2850   69.6480  224.7780 C   0  0  0  0  0  0  0  0  0  0  0  0
  139.2520   69.0890  226.0480 C   0  0  0  0  0  0  0  0  0  0  0  0
  139.8250   69.7460  227.0980 C   0  0  0  0  0  0  0  0  0  0  0  0
  140.4200   70.9620  226.8270 C   0  0  0  0  0  0  0  0  0  0  0  0
  141.0460   71.6900  227.9480 C   0  0  0  0  0  0  0  0  0  0  0  0
  141.8140   72.7290  227.4630 F   0  0  0  0  0  0  0  0  0  0  0  0
  140.0540   72.2280  228.7700 F   0  0  0  0  0  0  0  0  0  0  0  0
  141.7930   70.8550  228.7610 F   0  0  0  0  0  0  0  0  0  0  0  0
  140.4500   71.5100  225.5670 C   0  0  0  0  0  0  0  0  0  0  0  0
  139.3319   75.3666  220.3996 H   0  0  0  0  0  0  0  0  0  0  0  0
  140.2228   76.2682  221.7135 H   0  0  0  0  0  0  0  0  0  0  0  0
  141.9097   75.6056  219.4408 H   0  0  0  0  0  0  0  0  0  0  0  0
  140.5281   76.6292  218.9863 H   0  0  0  0  0  0  0  0  0  0  0  0
  142.6688   77.1066  221.1221 H   0  0  0  0  0  0  0  0  0  0  0  0
  142.0948   78.1922  219.7428 H   0  0  0  0  0  0  0  0  0  0  0  0
  138.4770   77.8395  221.6217 H   0  0  0  0  0  0  0  0  0  0  0  0
  137.0538   79.1425  223.1672 H   0  0  0  0  0  0  0  0  0  0  0  0
  140.5114   81.3596  224.4701 H   0  0  0  0  0  0  0  0  0  0  0  0
  139.2300   74.0300  222.7000 H   0  0  0  0  0  0  0  0  0  0  0  0
  139.2527   71.1007  222.4466 H   0  0  0  0  0  0  0  0  0  0  0  0
  138.8127   69.0888  223.9569 H   0  0  0  0  0  0  0  0  0  0  0  0
  138.7639   68.1163  226.2082 H   0  0  0  0  0  0  0  0  0  0  0  0
  139.8133   69.3257  228.1145 H   0  0  0  0  0  0  0  0  0  0  0  0
  140.9395   72.4823  225.4092 H   0  0  0  0  0  0  0  0  0  0  0  0
  1  2  2  0
  2  3  1  0
  3  4  1  0
  4  5  1  0
  5  6  1  0
  6  7  1  0
  7  8  2  0
  8  9  1  0
  9 10  2  0
 10 11  1  0
 10 12  1  0
 12 13  2  0
 13 14  1  0
  2 15  1  0
 15 16  1  0
 16 17  2  0
 17 18  1  0
 18 19  2  0
 19 20  1  0
 20 21  2  0
 21 22  1  0
 22 23  1  0
 23 24  1  0
 23 25  1  0
 23 26  1  0
 22 27  2  0
 13  7  1  0
 27 18  1  0
  3 28  1  0
  3 29  1  0
  4 30  1  0
  4 31  1  0
  5 32  1  0
  5 33  1  0
  8 34  1  0
  9 35  1  0
 12 36  1  0
 15 37  1  0
 17 38  1  0
 19 39  1  0
 20 40  1  0
 21 41  1  0
 27 42  1  0
M  END
>  <smiles>  (84) 
O=C(CCCOc1ccc(Cl)cc1Cl)NN=Cc1cccc(C(F)(F)F)c1

>  <score_type>  (84) 
oracle

>  <origin>  (84) 
autodockgpu

>  <m_score__min__energy>  (84) 
-7.79

>  <m_primary>  (84) 
energy

>  <rmsd>  (84) 
5.458128615663435

>  <m_score__min__rmsd>  (84) 
5.458128615663435

>  <meeko>  (84) 
{"free_energy": -7.01, "intermolecular_energy": -9.69, "internal_energy": -0.77, "cluster_size": 5, "cluster_id": 2, "rank_in_cluster": 2}

>  <energy>  (84) 
-5.82

>  <cluster_rmsd>  (84) 
1.25

>  <cluster>  (84) 
6

$$$$

     RDKit          3D

 42 43  0  0  1  0  0  0  0  0999 V2000
  137.7280   69.7570  223.5680 O   0  0  0  0  0  0  0  0  0  0  0  0
  137.6220   71.0090  223.5000 C   0  0  0  0  0  0  0  0  0  0  0  0
  136.3180   71.7150  223.5690 C   0  0  0  0  0  0  0  0  0  0  0  0
  135.7290   71.9970  222.2330 C   0  0  0  0  0  0  0  0  0  0  0  0
  136.9040   72.3470  221.2840 C   0  0  0  0  0  0  0  0  0  0  0  0
  137.5360   73.4500  221.5450 O   0  0  0  0  0  0  0  0  0  0  0  0
  138.1620   74.5350  221.7990 C   0  0  0  0  0  0  0  0  0  0  0  0
  137.5250   75.6620  222.3370 C   0  0  0  0  0  0  0  0  0  0  0  0
  138.1980   76.8290  222.6110 C   0  0  0  0  0  0  0  0  0  0  0  0
  139.5400   76.8690  222.3380 C   0  0  0  0  0  0  0  0  0  0  0  0
  140.4080   78.3400  222.6780 Cl  0  0  0  0  0  0  0  0  0  0  0  0
  140.2350   75.8110  221.8120 C   0  0  0  0  0  0  0  0  0  0  0  0
  139.5390   74.6600  221.5490 C   0  0  0  0  0  0  0  0  0  0  0  0
  140.3690   73.2810  220.8800 Cl  0  0  0  0  0  0  0  0  0  0  0  0
  138.7830   71.8590  223.3490 N   0  0  0  0  0  0  0  0  0  0  0  0
  140.0020   71.2480  223.2830 N   0  0  0  0  0  0  0  0  0  0  0  0
  140.9070   71.4450  224.1400 C   0  0  0  0  0  0  0  0  0  0  0  0
  140.9160   71.2080  225.5540 C   0  0  0  0  0  0  0  0  0  0  0  0
  141.1110   72.1160  226.5540 C   0  0  0  0  0  0  0  0  0  0  0  0
  141.1110   71.8010  227.9050 C   0  0  0  0  0  0  0  0  0  0  0  0
  140.9070   70.5110  228.3040 C   0  0  0  0  0  0  0  0  0  0  0  0
  140.7070   69.5720  227.3130 C   0  0  0  0  0  0  0  0  0  0  0  0
  140.4850   68.1720  227.7230 C   0  0  0  0  0  0  0  0  0  0  0  0
  140.4490   68.0850  229.1000 F   0  0  0  0  0  0  0  0  0  0  0  0
  139.2600   67.7270  227.2260 F   0  0  0  0  0  0  0  0  0  0  0  0
  141.4360   67.3160  227.1950 F   0  0  0  0  0  0  0  0  0  0  0  0
  140.7080   69.8910  225.9760 C   0  0  0  0  0  0  0  0  0  0  0  0
  135.6126   71.0902  224.1365 H   0  0  0  0  0  0  0  0  0  0  0  0
  136.4985   72.6846  224.0561 H   0  0  0  0  0  0  0  0  0  0  0  0
  135.1944   71.1105  221.8612 H   0  0  0  0  0  0  0  0  0  0  0  0
  135.0090   72.8268  222.2888 H   0  0  0  0  0  0  0  0  0  0  0  0
  137.6313   71.5231  221.3306 H   0  0  0  0  0  0  0  0  0  0  0  0
  136.4514   72.4917  220.2919 H   0  0  0  0  0  0  0  0  0  0  0  0
  136.4466   75.6106  222.5477 H   0  0  0  0  0  0  0  0  0  0  0  0
  137.6772   77.7003  223.0347 H   0  0  0  0  0  0  0  0  0  0  0  0
  141.3135   75.8833  221.6081 H   0  0  0  0  0  0  0  0  0  0  0  0
  138.6670   72.9150  223.2730 H   0  0  0  0  0  0  0  0  0  0  0  0
  141.8397   71.8667  223.7371 H   0  0  0  0  0  0  0  0  0  0  0  0
  141.2790   73.1655  226.2704 H   0  0  0  0  0  0  0  0  0  0  0  0
  141.2752   72.5896  228.6542 H   0  0  0  0  0  0  0  0  0  0  0  0
  140.9023   70.2328  229.3682 H   0  0  0  0  0  0  0  0  0  0  0  0
  140.5432   69.1007  225.2288 H   0  0  0  0  0  0  0  0  0  0  0  0
  1  2  2  0
  2  3  1  0
  3  4  1  0
  4  5  1  0
  5  6  1  0
  6  7  1  0
  7  8  2  0
  8  9  1  0
  9 10  2  0
 10 11  1  0
 10 12  1  0
 12 13  2  0
 13 14  1  0
  2 15  1  0
 15 16  1  0
 16 17  2  0
 17 18  1  0
 18 19  2  0
 19 20  1  0
 20 21  2  0
 21 22  1  0
 22 23  1  0
 23 24  1  0
 23 25  1  0
 23 26  1  0
 22 27  2  0
 13  7  1  0
 27 18  1  0
  3 28  1  0
  3 29  1  0
  4 30  1  0
  4 31  1  0
  5 32  1  0
  5 33  1  0
  8 34  1  0
  9 35  1  0
 12 36  1  0
 15 37  1  0
 17 38  1  0
 19 39  1  0
 20 40  1  0
 21 41  1  0
 27 42  1  0
M  END
>  <smiles>  (85) 
O=C(CCCOc1ccc(Cl)cc1Cl)NN=Cc1cccc(C(F)(F)F)c1

>  <score_type>  (85) 
oracle

>  <origin>  (85) 
autodockgpu

>  <m_score__min__energy>  (85) 
-7.79

>  <m_primary>  (85) 
energy

>  <rmsd>  (85) 
8.640027987736651

>  <m_score__min__rmsd>  (85) 
8.640027987736651

>  <meeko>  (85) 
{"free_energy": -5.72, "intermolecular_energy": -8.4, "internal_energy": -1.98, "cluster_size": 3, "cluster_id": 4, "rank_in_cluster": 2}

>  <energy>  (85) 
-5.66

>  <cluster_rmsd>  (85) 
1.33

>  <cluster>  (85) 
6

$$$$

     RDKit          3D

 42 43  0  0  1  0  0  0  0  0999 V2000
  139.9160   73.4000  220.0690 O   0  0  0  0  0  0  0  0  0  0  0  0
  139.1710   73.9410  220.9260 C   0  0  0  0  0  0  0  0  0  0  0  0
  137.9790   74.7510  220.5670 C   0  0  0  0  0  0  0  0  0  0  0  0
  136.7780   74.4240  221.3790 C   0  0  0  0  0  0  0  0  0  0  0  0
  136.8100   75.3420  222.6270 C   0  0  0  0  0  0  0  0  0  0  0  0
  137.7710   76.2120  222.6690 O   0  0  0  0  0  0  0  0  0  0  0  0
  138.7170   77.0720  222.7120 C   0  0  0  0  0  0  0  0  0  0  0  0
  140.0670   76.7120  222.5900 C   0  0  0  0  0  0  0  0  0  0  0  0
  141.0840   77.6340  222.6380 C   0  0  0  0  0  0  0  0  0  0  0  0
  140.7410   78.9500  222.8130 C   0  0  0  0  0  0  0  0  0  0  0  0
  142.0170   80.1340  222.8760 Cl  0  0  0  0  0  0  0  0  0  0  0  0
  139.4470   79.3830  222.9410 C   0  0  0  0  0  0  0  0  0  0  0  0
  138.4530   78.4400  222.8890 C   0  0  0  0  0  0  0  0  0  0  0  0
  136.7880   78.9300  223.0460 Cl  0  0  0  0  0  0  0  0  0  0  0  0
  139.4280   73.8080  222.3440 N   0  0  0  0  0  0  0  0  0  0  0  0
  140.5150   73.0700  222.7160 N   0  0  0  0  0  0  0  0  0  0  0  0
  140.4410   71.8360  222.9730 C   0  0  0  0  0  0  0  0  0  0  0  0
  140.1120   71.1590  224.1930 C   0  0  0  0  0  0  0  0  0  0  0  0
  139.3590   70.0320  224.3480 C   0  0  0  0  0  0  0  0  0  0  0  0
  139.0820   69.4410  225.5730 C   0  0  0  0  0  0  0  0  0  0  0  0
  139.5760   69.9890  226.7220 C   0  0  0  0  0  0  0  0  0  0  0  0
  140.3410   71.1300  226.5930 C   0  0  0  0  0  0  0  0  0  0  0  0
  140.8840   71.7400  227.8230 C   0  0  0  0  0  0  0  0  0  0  0  0
  139.8550   72.2600  228.5830 F   0  0  0  0  0  0  0  0  0  0  0  0
  141.5370   70.7670  228.5800 F   0  0  0  0  0  0  0  0  0  0  0  0
  141.8380   72.7050  227.5500 F   0  0  0  0  0  0  0  0  0  0  0  0
  140.6120   71.7110  225.3770 C   0  0  0  0  0  0  0  0  0  0  0  0
  138.2217   75.8136  220.7154 H   0  0  0  0  0  0  0  0  0  0  0  0
  137.7348   74.5232  219.5189 H   0  0  0  0  0  0  0  0  0  0  0  0
  135.8649   74.6121  220.7952 H   0  0  0  0  0  0  0  0  0  0  0  0
  136.7795   73.3637  221.6719 H   0  0  0  0  0  0  0  0  0  0  0  0
  135.8574   75.8908  222.6655 H   0  0  0  0  0  0  0  0  0  0  0  0
  136.9790   74.6723  223.4831 H   0  0  0  0  0  0  0  0  0  0  0  0
  140.3211   75.6509  222.4505 H   0  0  0  0  0  0  0  0  0  0  0  0
  142.1359   77.3276  222.5396 H   0  0  0  0  0  0  0  0  0  0  0  0
  139.2142   80.4490  223.0804 H   0  0  0  0  0  0  0  0  0  0  0  0
  138.7950   74.2920  223.0500 H   0  0  0  0  0  0  0  0  0  0  0  0
  140.6651   71.1737  222.1238 H   0  0  0  0  0  0  0  0  0  0  0  0
  138.9448   69.5614  223.4441 H   0  0  0  0  0  0  0  0  0  0  0  0
  138.4648   68.5316  225.6182 H   0  0  0  0  0  0  0  0  0  0  0  0
  139.3732   69.5410  227.7060 H   0  0  0  0  0  0  0  0  0  0  0  0
  141.2292   72.6205  225.3346 H   0  0  0  0  0  0  0  0  0  0  0  0
  1  2  2  0
  2  3  1  0
  3  4  1  0
  4  5  1  0
  5  6  1  0
  6  7  1  0
  7  8  2  0
  8  9  1  0
  9 10  2  0
 10 11  1  0
 10 12  1  0
 12 13  2  0
 13 14  1  0
  2 15  1  0
 15 16  1  0
 16 17  2  0
 17 18  1  0
 18 19  2  0
 19 20  1  0
 20 21  2  0
 21 22  1  0
 22 23  1  0
 23 24  1  0
 23 25  1  0
 23 26  1  0
 22 27  2  0
 13  7  1  0
 27 18  1  0
  3 28  1  0
  3 29  1  0
  4 30  1  0
  4 31  1  0
  5 32  1  0
  5 33  1  0
  8 34  1  0
  9 35  1  0
 12 36  1  0
 15 37  1  0
 17 38  1  0
 19 39  1  0
 20 40  1  0
 21 41  1  0
 27 42  1  0
M  END
>  <smiles>  (86) 
O=C(CCCOc1ccc(Cl)cc1Cl)NN=Cc1cccc(C(F)(F)F)c1

>  <score_type>  (86) 
oracle

>  <origin>  (86) 
autodockgpu

>  <m_score__min__energy>  (86) 
-7.79

>  <m_primary>  (86) 
energy

>  <rmsd>  (86) 
6.855685646076741

>  <m_score__min__rmsd>  (86) 
6.855685646076741

>  <meeko>  (86) 
{"free_energy": -6.35, "intermolecular_energy": -9.04, "internal_energy": -1.67, "cluster_size": 13, "cluster_id": 1, "rank_in_cluster": 13}

>  <energy>  (86) 
-5.66

>  <cluster_rmsd>  (86) 
1.29

>  <cluster>  (86) 
6

$$$$

     RDKit          3D

 42 43  0  0  1  0  0  0  0  0999 V2000
  140.0250   75.3420  222.5980 O   0  0  0  0  0  0  0  0  0  0  0  0
  139.8560   74.6210  221.5810 C   0  0  0  0  0  0  0  0  0  0  0  0
  139.4240   75.1630  220.2690 C   0  0  0  0  0  0  0  0  0  0  0  0
  138.7910   74.1440  219.3900 C   0  0  0  0  0  0  0  0  0  0  0  0
  139.9250   73.5010  218.5520 C   0  0  0  0  0  0  0  0  0  0  0  0
  141.0980   73.4770  219.1050 O   0  0  0  0  0  0  0  0  0  0  0  0
  142.2530   73.4540  219.6530 C   0  0  0  0  0  0  0  0  0  0  0  0
  143.0470   74.6020  219.7830 C   0  0  0  0  0  0  0  0  0  0  0  0
  144.2880   74.5780  220.3710 C   0  0  0  0  0  0  0  0  0  0  0  0
  144.7470   73.3750  220.8410 C   0  0  0  0  0  0  0  0  0  0  0  0
  146.3190   73.3250  221.5890 Cl  0  0  0  0  0  0  0  0  0  0  0  0
  144.0330   72.2080  220.7510 C   0  0  0  0  0  0  0  0  0  0  0  0
  142.7980   72.2620  220.1600 C   0  0  0  0  0  0  0  0  0  0  0  0
  141.8420   70.8110  220.0180 Cl  0  0  0  0  0  0  0  0  0  0  0  0
  140.0760   73.1910  221.6220 N   0  0  0  0  0  0  0  0  0  0  0  0
  140.4750   72.6530  222.8120 N   0  0  0  0  0  0  0  0  0  0  0  0
  140.3190   71.4320  223.0910 C   0  0  0  0  0  0  0  0  0  0  0  0
  140.1750   70.7790  224.3590 C   0  0  0  0  0  0  0  0  0  0  0  0
  139.6460   69.5470  224.6110 C   0  0  0  0  0  0  0  0  0  0  0  0
  139.5360   68.9880  225.8770 C   0  0  0  0  0  0  0  0  0  0  0  0
  139.9740   69.6820  226.9680 C   0  0  0  0  0  0  0  0  0  0  0  0
  140.5130   70.9320  226.7420 C   0  0  0  0  0  0  0  0  0  0  0  0
  140.9910   71.6990  227.9080 C   0  0  0  0  0  0  0  0  0  0  0  0
  141.7750   70.8940  228.7110 F   0  0  0  0  0  0  0  0  0  0  0  0
  141.7700   72.7730  227.4760 F   0  0  0  0  0  0  0  0  0  0  0  0
  139.9500   72.2570  228.6290 F   0  0  0  0  0  0  0  0  0  0  0  0
  140.6190   71.4790  225.4860 C   0  0  0  0  0  0  0  0  0  0  0  0
  138.6979   75.9699  220.4468 H   0  0  0  0  0  0  0  0  0  0  0  0
  140.3262   75.5228  219.7526 H   0  0  0  0  0  0  0  0  0  0  0  0
  138.2908   73.3773  219.9999 H   0  0  0  0  0  0  0  0  0  0  0  0
  138.0337   74.6039  218.7381 H   0  0  0  0  0  0  0  0  0  0  0  0
  139.6347   72.4627  218.3338 H   0  0  0  0  0  0  0  0  0  0  0  0
  140.0309   74.1362  217.6602 H   0  0  0  0  0  0  0  0  0  0  0  0
  142.6615   75.5582  219.3996 H   0  0  0  0  0  0  0  0  0  0  0  0
  144.8926   75.4925  220.4616 H   0  0  0  0  0  0  0  0  0  0  0  0
  144.4374   71.2617  221.1396 H   0  0  0  0  0  0  0  0  0  0  0  0
  139.9060   72.5990  220.7540 H   0  0  0  0  0  0  0  0  0  0  0  0
  140.2886   70.7603  222.2204 H   0  0  0  0  0  0  0  0  0  0  0  0
  139.2831   68.9583  223.7556 H   0  0  0  0  0  0  0  0  0  0  0  0
  139.0965   67.9872  226.0009 H   0  0  0  0  0  0  0  0  0  0  0  0
  139.9005   69.2632  227.9825 H   0  0  0  0  0  0  0  0  0  0  0  0
  141.0586   72.4801  225.3651 H   0  0  0  0  0  0  0  0  0  0  0  0
  1  2  2  0
  2  3  1  0
  3  4  1  0
  4  5  1  0
  5  6  1  0
  6  7  1  0
  7  8  2  0
  8  9  1  0
  9 10  2  0
 10 11  1  0
 10 12  1  0
 12 13  2  0
 13 14  1  0
  2 15  1  0
 15 16  1  0
 16 17  2  0
 17 18  1  0
 18 19  2  0
 19 20  1  0
 20 21  2  0
 21 22  1  0
 22 23  1  0
 23 24  1  0
 23 25  1  0
 23 26  1  0
 22 27  2  0
 13  7  1  0
 27 18  1  0
  3 28  1  0
  3 29  1  0
  4 30  1  0
  4 31  1  0
  5 32  1  0
  5 33  1  0
  8 34  1  0
  9 35  1  0
 12 36  1  0
 15 37  1  0
 17 38  1  0
 19 39  1  0
 20 40  1  0
 21 41  1  0
 27 42  1  0
M  END
>  <smiles>  (87) 
O=C(CCCOc1ccc(Cl)cc1Cl)NN=Cc1cccc(C(F)(F)F)c1

>  <score_type>  (87) 
oracle

>  <origin>  (87) 
autodockgpu

>  <m_score__min__energy>  (87) 
-7.79

>  <m_primary>  (87) 
energy

>  <rmsd>  (87) 
9.794564315663317

>  <m_score__min__rmsd>  (87) 
9.794564315663317

>  <meeko>  (87) 
{"free_energy": -6.13, "intermolecular_energy": -8.82, "internal_energy": -2.03, "cluster_size": 8, "cluster_id": 3, "rank_in_cluster": 7}

>  <energy>  (87) 
-5.64

>  <cluster_rmsd>  (87) 
1.28

>  <cluster>  (87) 
6

$$$$

     RDKit          3D

 42 43  0  0  1  0  0  0  0  0999 V2000
  141.2010   73.3820  221.4590 O   0  0  0  0  0  0  0  0  0  0  0  0
  140.0550   73.5530  221.9500 C   0  0  0  0  0  0  0  0  0  0  0  0
  139.2640   74.7920  221.7460 C   0  0  0  0  0  0  0  0  0  0  0  0
  139.4190   75.3740  220.3870 C   0  0  0  0  0  0  0  0  0  0  0  0
  140.8740   75.8970  220.2800 C   0  0  0  0  0  0  0  0  0  0  0  0
  141.1610   76.9330  221.0070 O   0  0  0  0  0  0  0  0  0  0  0  0
  141.4410   77.9520  221.7260 C   0  0  0  0  0  0  0  0  0  0  0  0
  141.4210   77.9130  223.1270 C   0  0  0  0  0  0  0  0  0  0  0  0
  141.7210   79.0090  223.9000 C   0  0  0  0  0  0  0  0  0  0  0  0
  142.0490   80.1730  223.2550 C   0  0  0  0  0  0  0  0  0  0  0  0
  142.4320   81.5710  224.2190 Cl  0  0  0  0  0  0  0  0  0  0  0  0
  142.0910   80.2930  221.8900 C   0  0  0  0  0  0  0  0  0  0  0  0
  141.7870   79.1840  221.1440 C   0  0  0  0  0  0  0  0  0  0  0  0
  141.8240   79.2740  219.4040 Cl  0  0  0  0  0  0  0  0  0  0  0  0
  139.4190   72.5350  222.7590 N   0  0  0  0  0  0  0  0  0  0  0  0
  140.1140   71.3790  222.9700 N   0  0  0  0  0  0  0  0  0  0  0  0
  139.6600   70.4340  223.6750 C   0  0  0  0  0  0  0  0  0  0  0  0
  139.9850   70.0340  225.0120 C   0  0  0  0  0  0  0  0  0  0  0  0
  139.9880   68.7720  225.5310 C   0  0  0  0  0  0  0  0  0  0  0  0
  140.3090   68.4700  226.8470 C   0  0  0  0  0  0  0  0  0  0  0  0
  140.6510   69.4690  227.7120 C   0  0  0  0  0  0  0  0  0  0  0  0
  140.6560   70.7560  227.2130 C   0  0  0  0  0  0  0  0  0  0  0  0
  141.0220   71.8510  228.1320 C   0  0  0  0  0  0  0  0  0  0  0  0
  141.4800   72.9360  227.4110 F   0  0  0  0  0  0  0  0  0  0  0  0
  139.8980   72.2530  228.8540 F   0  0  0  0  0  0  0  0  0  0  0  0
  141.9510   71.4520  229.0770 F   0  0  0  0  0  0  0  0  0  0  0  0
  140.3370   71.0490  225.9090 C   0  0  0  0  0  0  0  0  0  0  0  0
  138.2012   74.5575  221.9058 H   0  0  0  0  0  0  0  0  0  0  0  0
  139.6376   75.5377  222.4633 H   0  0  0  0  0  0  0  0  0  0  0  0
  139.2377   74.6034  219.6233 H   0  0  0  0  0  0  0  0  0  0  0  0
  138.6969   76.1877  220.2242 H   0  0  0  0  0  0  0  0  0  0  0  0
  141.5480   75.0801  220.5773 H   0  0  0  0  0  0  0  0  0  0  0  0
  140.9957   76.2239  219.2368 H   0  0  0  0  0  0  0  0  0  0  0  0
  141.1552   76.9697  223.6265 H   0  0  0  0  0  0  0  0  0  0  0  0
  141.6986   78.9539  224.9984 H   0  0  0  0  0  0  0  0  0  0  0  0
  142.3593   81.2458  221.4103 H   0  0  0  0  0  0  0  0  0  0  0  0
  138.4570   72.7110  223.1810 H   0  0  0  0  0  0  0  0  0  0  0  0
  138.8916   69.8194  223.1833 H   0  0  0  0  0  0  0  0  0  0  0  0
  139.7186   67.9404  224.8633 H   0  0  0  0  0  0  0  0  0  0  0  0
  140.2878   67.4260  227.1928 H   0  0  0  0  0  0  0  0  0  0  0  0
  140.9110   69.2579  228.7598 H   0  0  0  0  0  0  0  0  0  0  0  0
  140.3586   72.0939  225.5660 H   0  0  0  0  0  0  0  0  0  0  0  0
  1  2  2  0
  2  3  1  0
  3  4  1  0
  4  5  1  0
  5  6  1  0
  6  7  1  0
  7  8  2  0
  8  9  1  0
  9 10  2  0
 10 11  1  0
 10 12  1  0
 12 13  2  0
 13 14  1  0
  2 15  1  0
 15 16  1  0
 16 17  2  0
 17 18  1  0
 18 19  2  0
 19 20  1  0
 20 21  2  0
 21 22  1  0
 22 23  1  0
 23 24  1  0
 23 25  1  0
 23 26  1  0
 22 27  2  0
 13  7  1  0
 27 18  1  0
  3 28  1  0
  3 29  1  0
  4 30  1  0
  4 31  1  0
  5 32  1  0
  5 33  1  0
  8 34  1  0
  9 35  1  0
 12 36  1  0
 15 37  1  0
 17 38  1  0
 19 39  1  0
 20 40  1  0
 21 41  1  0
 27 42  1  0
M  END
>  <smiles>  (88) 
O=C(CCCOc1ccc(Cl)cc1Cl)NN=Cc1cccc(C(F)(F)F)c1

>  <score_type>  (88) 
oracle

>  <origin>  (88) 
autodockgpu

>  <m_score__min__energy>  (88) 
-7.79

>  <m_primary>  (88) 
energy

>  <rmsd>  (88) 
6.079860683828699

>  <m_score__min__rmsd>  (88) 
6.079860683828699

>  <meeko>  (88) 
{"free_energy": -7.42, "intermolecular_energy": -10.1, "internal_energy": -0.77, "cluster_size": 5, "cluster_id": 2, "rank_in_cluster": 1}

>  <energy>  (88) 
-5.62

>  <cluster_rmsd>  (88) 
1.02

>  <cluster>  (88) 
6

$$$$

     RDKit          3D

 42 43  0  0  1  0  0  0  0  0999 V2000
  141.4080   74.7560  221.5310 O   0  0  0  0  0  0  0  0  0  0  0  0
  140.1660   74.7970  221.7250 C   0  0  0  0  0  0  0  0  0  0  0  0
  139.3180   75.9400  221.3000 C   0  0  0  0  0  0  0  0  0  0  0  0
  138.0720   75.5230  220.6060 C   0  0  0  0  0  0  0  0  0  0  0  0
  136.9000   75.7670  221.5900 C   0  0  0  0  0  0  0  0  0  0  0  0
  136.5080   74.7370  222.2740 O   0  0  0  0  0  0  0  0  0  0  0  0
  136.1240   73.7220  222.9500 C   0  0  0  0  0  0  0  0  0  0  0  0
  135.4820   73.8430  224.1910 C   0  0  0  0  0  0  0  0  0  0  0  0
  135.0690   72.7530  224.9180 C   0  0  0  0  0  0  0  0  0  0  0  0
  135.3070   71.5100  224.3920 C   0  0  0  0  0  0  0  0  0  0  0  0
  134.7910   70.1170  225.3000 Cl  0  0  0  0  0  0  0  0  0  0  0  0
  135.9290   71.3070  223.1870 C   0  0  0  0  0  0  0  0  0  0  0  0
  136.3290   72.4130  222.4830 C   0  0  0  0  0  0  0  0  0  0  0  0
  137.1240   72.2180  220.9450 Cl  0  0  0  0  0  0  0  0  0  0  0  0
  139.4660   73.7160  222.3860 N   0  0  0  0  0  0  0  0  0  0  0  0
  140.2110   72.6460  222.7920 N   0  0  0  0  0  0  0  0  0  0  0  0
  139.6880   71.5650  223.1820 C   0  0  0  0  0  0  0  0  0  0  0  0
  139.8560   70.8390  224.4060 C   0  0  0  0  0  0  0  0  0  0  0  0
  139.6010   69.5190  224.6390 C   0  0  0  0  0  0  0  0  0  0  0  0
  139.7860   68.8930  225.8640 C   0  0  0  0  0  0  0  0  0  0  0  0
  140.2520   69.6060  226.9310 C   0  0  0  0  0  0  0  0  0  0  0  0
  140.5190   70.9440  226.7220 C   0  0  0  0  0  0  0  0  0  0  0  0
  141.0240   71.7330  227.8630 C   0  0  0  0  0  0  0  0  0  0  0  0
  141.7370   72.8220  227.4020 F   0  0  0  0  0  0  0  0  0  0  0  0
  139.9500   72.2040  228.6190 F   0  0  0  0  0  0  0  0  0  0  0  0
  141.7860   70.9700  228.7300 F   0  0  0  0  0  0  0  0  0  0  0  0
  140.3340   71.5580  225.5070 C   0  0  0  0  0  0  0  0  0  0  0  0
  139.0425   76.5209  222.1926 H   0  0  0  0  0  0  0  0  0  0  0  0
  139.9062   76.5328  220.5841 H   0  0  0  0  0  0  0  0  0  0  0  0
  137.9298   76.1211  219.6938 H   0  0  0  0  0  0  0  0  0  0  0  0
  138.1228   74.4643  220.3119 H   0  0  0  0  0  0  0  0  0  0  0  0
  137.2147   76.5440  222.3022 H   0  0  0  0  0  0  0  0  0  0  0  0
  136.0414   76.0514  220.9639 H   0  0  0  0  0  0  0  0  0  0  0  0
  135.3023   74.8491  224.5978 H   0  0  0  0  0  0  0  0  0  0  0  0
  134.5650   72.8736  225.8883 H   0  0  0  0  0  0  0  0  0  0  0  0
  136.1010   70.2922  222.7989 H   0  0  0  0  0  0  0  0  0  0  0  0
  138.4180   73.7830  222.5570 H   0  0  0  0  0  0  0  0  0  0  0  0
  138.9902   71.1061  222.4661 H   0  0  0  0  0  0  0  0  0  0  0  0
  139.2247   68.9120  223.8024 H   0  0  0  0  0  0  0  0  0  0  0  0
  139.5572   67.8228  225.9751 H   0  0  0  0  0  0  0  0  0  0  0  0
  140.4077   69.1354  227.9130 H   0  0  0  0  0  0  0  0  0  0  0  0
  140.5645   72.6281  225.3984 H   0  0  0  0  0  0  0  0  0  0  0  0
  1  2  2  0
  2  3  1  0
  3  4  1  0
  4  5  1  0
  5  6  1  0
  6  7  1  0
  7  8  2  0
  8  9  1  0
  9 10  2  0
 10 11  1  0
 10 12  1  0
 12 13  2  0
 13 14  1  0
  2 15  1  0
 15 16  1  0
 16 17  2  0
 17 18  1  0
 18 19  2  0
 19 20  1  0
 20 21  2  0
 21 22  1  0
 22 23  1  0
 23 24  1  0
 23 25  1  0
 23 26  1  0
 22 27  2  0
 13  7  1  0
 27 18  1  0
  3 28  1  0
  3 29  1  0
  4 30  1  0
  4 31  1  0
  5 32  1  0
  5 33  1  0
  8 34  1  0
  9 35  1  0
 12 36  1  0
 15 37  1  0
 17 38  1  0
 19 39  1  0
 20 40  1  0
 21 41  1  0
 27 42  1  0
M  END
>  <smiles>  (89) 
O=C(CCCOc1ccc(Cl)cc1Cl)NN=Cc1cccc(C(F)(F)F)c1

>  <score_type>  (89) 
oracle

>  <origin>  (89) 
autodockgpu

>  <m_score__min__energy>  (89) 
-7.79

>  <m_primary>  (89) 
energy

>  <rmsd>  (89) 
10.050279874847174

>  <m_score__min__rmsd>  (89) 
10.050279874847174

>  <meeko>  (89) 
{"free_energy": -5.17, "intermolecular_energy": -7.85, "internal_energy": -2.41, "cluster_size": 13, "cluster_id": 6, "rank_in_cluster": 13}

>  <energy>  (89) 
-5.61

>  <cluster_rmsd>  (89) 
1.31

>  <cluster>  (89) 
6

$$$$

     RDKit          3D

 42 43  0  0  1  0  0  0  0  0999 V2000
  140.7550   74.1570  222.3260 O   0  0  0  0  0  0  0  0  0  0  0  0
  140.0960   73.5520  221.4420 C   0  0  0  0  0  0  0  0  0  0  0  0
  140.1530   73.9120  220.0030 C   0  0  0  0  0  0  0  0  0  0  0  0
  139.2500   75.0340  219.6390 C   0  0  0  0  0  0  0  0  0  0  0  0
  138.7150   75.6340  220.9650 C   0  0  0  0  0  0  0  0  0  0  0  0
  139.4190   76.5930  221.4800 O   0  0  0  0  0  0  0  0  0  0  0  0
  140.1110   77.5410  221.9880 C   0  0  0  0  0  0  0  0  0  0  0  0
  139.6630   78.2980  223.0800 C   0  0  0  0  0  0  0  0  0  0  0  0
  140.4050   79.3170  223.6260 C   0  0  0  0  0  0  0  0  0  0  0  0
  141.6260   79.5870  223.0640 C   0  0  0  0  0  0  0  0  0  0  0  0
  142.5810   80.8750  223.7430 Cl  0  0  0  0  0  0  0  0  0  0  0  0
  142.1350   78.8940  221.9960 C   0  0  0  0  0  0  0  0  0  0  0  0
  141.3720   77.8830  221.4720 C   0  0  0  0  0  0  0  0  0  0  0  0
  141.9660   76.9660  220.1140 Cl  0  0  0  0  0  0  0  0  0  0  0  0
  139.2240   72.4450  221.7730 N   0  0  0  0  0  0  0  0  0  0  0  0
  139.1440   72.0830  223.0870 N   0  0  0  0  0  0  0  0  0  0  0  0
  139.1690   70.8770  223.4600 C   0  0  0  0  0  0  0  0  0  0  0  0
  139.6320   70.2930  224.6840 C   0  0  0  0  0  0  0  0  0  0  0  0
  139.6840   68.9690  225.0130 C   0  0  0  0  0  0  0  0  0  0  0  0
  140.1430   68.4850  226.2300 C   0  0  0  0  0  0  0  0  0  0  0  0
  140.5820   69.3530  227.1880 C   0  0  0  0  0  0  0  0  0  0  0  0
  140.5410   70.6980  226.8810 C   0  0  0  0  0  0  0  0  0  0  0  0
  141.0100   71.6540  227.9030 C   0  0  0  0  0  0  0  0  0  0  0  0
  141.6490   72.7160  227.2950 F   0  0  0  0  0  0  0  0  0  0  0  0
  139.9190   72.1520  228.6150 F   0  0  0  0  0  0  0  0  0  0  0  0
  141.8290   71.0530  228.8440 F   0  0  0  0  0  0  0  0  0  0  0  0
  140.0850   71.1710  225.6740 C   0  0  0  0  0  0  0  0  0  0  0  0
  141.1853   74.2013  219.7567 H   0  0  0  0  0  0  0  0  0  0  0  0
  139.8211   73.0307  219.4345 H   0  0  0  0  0  0  0  0  0  0  0  0
  139.8053   75.7982  219.0755 H   0  0  0  0  0  0  0  0  0  0  0  0
  138.4225   74.6821  219.0054 H   0  0  0  0  0  0  0  0  0  0  0  0
  137.7041   76.0236  220.7743 H   0  0  0  0  0  0  0  0  0  0  0  0
  138.7508   74.8139  221.6972 H   0  0  0  0  0  0  0  0  0  0  0  0
  138.6799   78.0671  223.5161 H   0  0  0  0  0  0  0  0  0  0  0  0
  140.0326   79.8960  224.4840 H   0  0  0  0  0  0  0  0  0  0  0  0
  143.1207   79.1406  221.5746 H   0  0  0  0  0  0  0  0  0  0  0  0
  138.6610   71.9620  221.0100 H   0  0  0  0  0  0  0  0  0  0  0  0
  138.7714   70.1591  222.7276 H   0  0  0  0  0  0  0  0  0  0  0  0
  139.3400   68.2390  224.2655 H   0  0  0  0  0  0  0  0  0  0  0  0
  140.1531   67.4021  226.4227 H   0  0  0  0  0  0  0  0  0  0  0  0
  140.9517   68.9965  228.1607 H   0  0  0  0  0  0  0  0  0  0  0  0
  140.0762   72.2544  225.4840 H   0  0  0  0  0  0  0  0  0  0  0  0
  1  2  2  0
  2  3  1  0
  3  4  1  0
  4  5  1  0
  5  6  1  0
  6  7  1  0
  7  8  2  0
  8  9  1  0
  9 10  2  0
 10 11  1  0
 10 12  1  0
 12 13  2  0
 13 14  1  0
  2 15  1  0
 15 16  1  0
 16 17  2  0
 17 18  1  0
 18 19  2  0
 19 20  1  0
 20 21  2  0
 21 22  1  0
 22 23  1  0
 23 24  1  0
 23 25  1  0
 23 26  1  0
 22 27  2  0
 13  7  1  0
 27 18  1  0
  3 28  1  0
  3 29  1  0
  4 30  1  0
  4 31  1  0
  5 32  1  0
  5 33  1  0
  8 34  1  0
  9 35  1  0
 12 36  1  0
 15 37  1  0
 17 38  1  0
 19 39  1  0
 20 40  1  0
 21 41  1  0
 27 42  1  0
M  END
>  <smiles>  (90) 
O=C(CCCOc1ccc(Cl)cc1Cl)NN=Cc1cccc(C(F)(F)F)c1

>  <score_type>  (90) 
oracle

>  <origin>  (90) 
autodockgpu

>  <m_score__min__energy>  (90) 
-7.79

>  <m_primary>  (90) 
energy

>  <rmsd>  (90) 
6.009774590682749

>  <m_score__min__rmsd>  (90) 
6.009774590682749

>  <meeko>  (90) 
{"free_energy": -6.7, "intermolecular_energy": -9.38, "internal_energy": -0.99, "cluster_size": 5, "cluster_id": 2, "rank_in_cluster": 5}

>  <energy>  (90) 
-5.55

>  <cluster_rmsd>  (90) 
1.33

>  <cluster>  (90) 
6

$$$$

     RDKit          3D

 42 43  0  0  1  0  0  0  0  0999 V2000
  138.6620   68.8790  224.2490 O   0  0  0  0  0  0  0  0  0  0  0  0
  137.8260   69.8180  224.2050 C   0  0  0  0  0  0  0  0  0  0  0  0
  136.3820   69.6300  224.4890 C   0  0  0  0  0  0  0  0  0  0  0  0
  135.5360   69.6190  223.2670 C   0  0  0  0  0  0  0  0  0  0  0  0
  135.6260   71.0330  222.6400 C   0  0  0  0  0  0  0  0  0  0  0  0
  135.2970   72.0210  223.4150 O   0  0  0  0  0  0  0  0  0  0  0  0
  134.9750   72.9920  224.1810 C   0  0  0  0  0  0  0  0  0  0  0  0
  135.4400   74.2990  223.9750 C   0  0  0  0  0  0  0  0  0  0  0  0
  135.0950   75.3430  224.7980 C   0  0  0  0  0  0  0  0  0  0  0  0
  134.2640   75.0740  225.8540 C   0  0  0  0  0  0  0  0  0  0  0  0
  133.8160   76.3850  226.9080 Cl  0  0  0  0  0  0  0  0  0  0  0  0
  133.7670   73.8240  226.1240 C   0  0  0  0  0  0  0  0  0  0  0  0
  134.1280   72.8020  225.2860 C   0  0  0  0  0  0  0  0  0  0  0  0
  133.5280   71.1920  225.5770 Cl  0  0  0  0  0  0  0  0  0  0  0  0
  138.2230   71.1690  223.8680 N   0  0  0  0  0  0  0  0  0  0  0  0
  139.5440   71.3840  223.6000 N   0  0  0  0  0  0  0  0  0  0  0  0
  140.3340   71.8880  224.4460 C   0  0  0  0  0  0  0  0  0  0  0  0
  140.6520   71.4760  225.7810 C   0  0  0  0  0  0  0  0  0  0  0  0
  141.0640   72.2560  226.8230 C   0  0  0  0  0  0  0  0  0  0  0  0
  141.3590   71.7730  228.0900 C   0  0  0  0  0  0  0  0  0  0  0  0
  141.2440   70.4390  228.3560 C   0  0  0  0  0  0  0  0  0  0  0  0
  140.8290   69.6270  227.3200 C   0  0  0  0  0  0  0  0  0  0  0  0
  140.6980   68.1810  227.5850 C   0  0  0  0  0  0  0  0  0  0  0  0
  141.4620   67.4670  226.6840 F   0  0  0  0  0  0  0  0  0  0  0  0
  141.1610   67.8960  228.8700 F   0  0  0  0  0  0  0  0  0  0  0  0
  139.3780   67.7630  227.5610 F   0  0  0  0  0  0  0  0  0  0  0  0
  140.5380   70.1110  226.0670 C   0  0  0  0  0  0  0  0  0  0  0  0
  136.2516   68.6710  225.0119 H   0  0  0  0  0  0  0  0  0  0  0  0
  136.0576   70.4849  225.1005 H   0  0  0  0  0  0  0  0  0  0  0  0
  135.9086   68.8664  222.5565 H   0  0  0  0  0  0  0  0  0  0  0  0
  134.4945   69.3647  223.5133 H   0  0  0  0  0  0  0  0  0  0  0  0
  136.6649   71.1916  222.3151 H   0  0  0  0  0  0  0  0  0  0  0  0
  134.8920   71.0415  221.8208 H   0  0  0  0  0  0  0  0  0  0  0  0
  136.1062   74.4954  223.1220 H   0  0  0  0  0  0  0  0  0  0  0  0
  135.4727   76.3600  224.6158 H   0  0  0  0  0  0  0  0  0  0  0  0
  133.1023   73.6486  226.9827 H   0  0  0  0  0  0  0  0  0  0  0  0
  137.4940   71.9430  223.8170 H   0  0  0  0  0  0  0  0  0  0  0  0
  140.8637   72.7889  224.1028 H   0  0  0  0  0  0  0  0  0  0  0  0
  141.1688   73.3367  226.6469 H   0  0  0  0  0  0  0  0  0  0  0  0
  141.6855   72.4652  228.8801 H   0  0  0  0  0  0  0  0  0  0  0  0
  141.4719   70.0297  229.3513 H   0  0  0  0  0  0  0  0  0  0  0  0
  140.2113   69.4165  225.2790 H   0  0  0  0  0  0  0  0  0  0  0  0
  1  2  2  0
  2  3  1  0
  3  4  1  0
  4  5  1  0
  5  6  1  0
  6  7  1  0
  7  8  2  0
  8  9  1  0
  9 10  2  0
 10 11  1  0
 10 12  1  0
 12 13  2  0
 13 14  1  0
  2 15  1  0
 15 16  1  0
 16 17  2  0
 17 18  1  0
 18 19  2  0
 19 20  1  0
 20 21  2  0
 21 22  1  0
 22 23  1  0
 23 24  1  0
 23 25  1  0
 23 26  1  0
 22 27  2  0
 13  7  1  0
 27 18  1  0
  3 28  1  0
  3 29  1  0
  4 30  1  0
  4 31  1  0
  5 32  1  0
  5 33  1  0
  8 34  1  0
  9 35  1  0
 12 36  1  0
 15 37  1  0
 17 38  1  0
 19 39  1  0
 20 40  1  0
 21 41  1  0
 27 42  1  0
M  END
>  <smiles>  (91) 
O=C(CCCOc1ccc(Cl)cc1Cl)NN=Cc1cccc(C(F)(F)F)c1

>  <score_type>  (91) 
oracle

>  <origin>  (91) 
autodockgpu

>  <m_score__min__energy>  (91) 
-7.79

>  <m_primary>  (91) 
energy

>  <rmsd>  (91) 
11.552492899414405

>  <m_score__min__rmsd>  (91) 
11.552492899414405

>  <meeko>  (91) 
{"free_energy": -5.93, "intermolecular_energy": -8.61, "internal_energy": -1.83, "cluster_size": 1, "cluster_id": 7, "rank_in_cluster": 1}

>  <energy>  (91) 
-5.5

>  <cluster_rmsd>  (91) 
1.42

>  <cluster>  (91) 
6

$$$$

     RDKit          3D

 42 43  0  0  1  0  0  0  0  0999 V2000
  140.6220   74.8490  222.2340 O   0  0  0  0  0  0  0  0  0  0  0  0
  139.4700   74.4170  221.9720 C   0  0  0  0  0  0  0  0  0  0  0  0
  138.4310   75.2380  221.3020 C   0  0  0  0  0  0  0  0  0  0  0  0
  137.2860   75.5780  222.1870 C   0  0  0  0  0  0  0  0  0  0  0  0
  137.1470   77.1220  222.1770 C   0  0  0  0  0  0  0  0  0  0  0  0
  138.2140   77.7910  222.4860 O   0  0  0  0  0  0  0  0  0  0  0  0
  139.2640   78.4530  222.7920 C   0  0  0  0  0  0  0  0  0  0  0  0
  140.5570   77.9490  222.5920 C   0  0  0  0  0  0  0  0  0  0  0  0
  141.6850   78.6600  222.9210 C   0  0  0  0  0  0  0  0  0  0  0  0
  141.5160   79.9060  223.4670 C   0  0  0  0  0  0  0  0  0  0  0  0
  142.9350   80.8210  223.8910 Cl  0  0  0  0  0  0  0  0  0  0  0  0
  140.2870   80.4690  223.6950 C   0  0  0  0  0  0  0  0  0  0  0  0
  139.1790   79.7380  223.3560 C   0  0  0  0  0  0  0  0  0  0  0  0
  137.5890   80.4010  223.6230 Cl  0  0  0  0  0  0  0  0  0  0  0  0
  139.0720   73.0670  222.3120 N   0  0  0  0  0  0  0  0  0  0  0  0
  140.0000   72.2790  222.9300 N   0  0  0  0  0  0  0  0  0  0  0  0
  139.7290   71.1250  223.3630 C   0  0  0  0  0  0  0  0  0  0  0  0
  139.9430   70.5430  224.6560 C   0  0  0  0  0  0  0  0  0  0  0  0
  139.8220   69.2320  225.0140 C   0  0  0  0  0  0  0  0  0  0  0  0
  140.0420   68.7510  226.2980 C   0  0  0  0  0  0  0  0  0  0  0  0
  140.4050   69.6100  227.2950 C   0  0  0  0  0  0  0  0  0  0  0  0
  140.5340   70.9410  226.9590 C   0  0  0  0  0  0  0  0  0  0  0  0
  140.9260   71.8870  228.0230 C   0  0  0  0  0  0  0  0  0  0  0  0
  141.4820   73.0200  227.4640 F   0  0  0  0  0  0  0  0  0  0  0  0
  139.7970   72.2690  228.7500 F   0  0  0  0  0  0  0  0  0  0  0  0
  141.7860   71.3120  228.9430 F   0  0  0  0  0  0  0  0  0  0  0  0
  140.3160   71.4120  225.6870 C   0  0  0  0  0  0  0  0  0  0  0  0
  138.8949   76.1738  220.9569 H   0  0  0  0  0  0  0  0  0  0  0  0
  138.0317   74.6403  220.4694 H   0  0  0  0  0  0  0  0  0  0  0  0
  136.3641   75.1134  221.8070 H   0  0  0  0  0  0  0  0  0  0  0  0
  137.4558   75.2062  223.2082 H   0  0  0  0  0  0  0  0  0  0  0  0
  136.8406   77.4257  221.1651 H   0  0  0  0  0  0  0  0  0  0  0  0
  136.4116   77.3585  222.9601 H   0  0  0  0  0  0  0  0  0  0  0  0
  140.6723   76.9461  222.1550 H   0  0  0  0  0  0  0  0  0  0  0  0
  142.6893   78.2441  222.7523 H   0  0  0  0  0  0  0  0  0  0  0  0
  140.1937   81.4729  224.1349 H   0  0  0  0  0  0  0  0  0  0  0  0
  138.0850   72.7310  222.0990 H   0  0  0  0  0  0  0  0  0  0  0  0
  139.2515   70.4578  222.6303 H   0  0  0  0  0  0  0  0  0  0  0  0
  139.5318   68.5103  224.2362 H   0  0  0  0  0  0  0  0  0  0  0  0
  139.9239   67.6784  226.5116 H   0  0  0  0  0  0  0  0  0  0  0  0
  140.5865   69.2561  228.3206 H   0  0  0  0  0  0  0  0  0  0  0  0
  140.4361   72.4850  225.4767 H   0  0  0  0  0  0  0  0  0  0  0  0
  1  2  2  0
  2  3  1  0
  3  4  1  0
  4  5  1  0
  5  6  1  0
  6  7  1  0
  7  8  2  0
  8  9  1  0
  9 10  2  0
 10 11  1  0
 10 12  1  0
 12 13  2  0
 13 14  1  0
  2 15  1  0
 15 16  1  0
 16 17  2  0
 17 18  1  0
 18 19  2  0
 19 20  1  0
 20 21  2  0
 21 22  1  0
 22 23  1  0
 23 24  1  0
 23 25  1  0
 23 26  1  0
 22 27  2  0
 13  7  1  0
 27 18  1  0
  3 28  1  0
  3 29  1  0
  4 30  1  0
  4 31  1  0
  5 32  1  0
  5 33  1  0
  8 34  1  0
  9 35  1  0
 12 36  1  0
 15 37  1  0
 17 38  1  0
 19 39  1  0
 20 40  1  0
 21 41  1  0
 27 42  1  0
M  END
>  <smiles>  (92) 
O=C(CCCOc1ccc(Cl)cc1Cl)NN=Cc1cccc(C(F)(F)F)c1

>  <score_type>  (92) 
oracle

>  <origin>  (92) 
autodockgpu

>  <m_score__min__energy>  (92) 
-7.79

>  <m_primary>  (92) 
energy

>  <rmsd>  (92) 
5.683374437856367

>  <m_score__min__rmsd>  (92) 
5.683374437856367

>  <meeko>  (92) 
{"free_energy": -7.37, "intermolecular_energy": -10.06, "internal_energy": -0.93, "cluster_size": 13, "cluster_id": 1, "rank_in_cluster": 4}

>  <energy>  (92) 
-5.46

>  <cluster_rmsd>  (92) 
1.31

>  <cluster>  (92) 
6

$$$$

     RDKit          3D

 42 43  0  0  1  0  0  0  0  0999 V2000
  141.4630   74.4670  220.9390 O   0  0  0  0  0  0  0  0  0  0  0  0
  140.3030   74.6470  221.3900 C   0  0  0  0  0  0  0  0  0  0  0  0
  139.4480   75.7940  220.9900 C   0  0  0  0  0  0  0  0  0  0  0  0
  138.3390   76.0620  221.9410 C   0  0  0  0  0  0  0  0  0  0  0  0
  137.0980   75.2920  221.4210 C   0  0  0  0  0  0  0  0  0  0  0  0
  136.7890   74.2100  222.0660 O   0  0  0  0  0  0  0  0  0  0  0  0
  136.4810   73.1420  222.6980 C   0  0  0  0  0  0  0  0  0  0  0  0
  136.8180   71.8650  222.2280 C   0  0  0  0  0  0  0  0  0  0  0  0
  136.4870   70.7180  222.9070 C   0  0  0  0  0  0  0  0  0  0  0  0
  135.8010   70.8510  224.0860 C   0  0  0  0  0  0  0  0  0  0  0  0
  135.3730   69.4080  224.9610 Cl  0  0  0  0  0  0  0  0  0  0  0  0
  135.4340   72.0630  224.6130 C   0  0  0  0  0  0  0  0  0  0  0  0
  135.7780   73.1910  223.9140 C   0  0  0  0  0  0  0  0  0  0  0  0
  135.3400   74.7600  224.5340 Cl  0  0  0  0  0  0  0  0  0  0  0  0
  139.7110   73.7340  222.3450 N   0  0  0  0  0  0  0  0  0  0  0  0
  140.4650   72.6660  222.7380 N   0  0  0  0  0  0  0  0  0  0  0  0
  139.9560   71.5490  223.0340 C   0  0  0  0  0  0  0  0  0  0  0  0
  139.8920   70.8600  224.2890 C   0  0  0  0  0  0  0  0  0  0  0  0
  139.3780   69.6210  224.5390 C   0  0  0  0  0  0  0  0  0  0  0  0
  139.3480   69.0270  225.7930 C   0  0  0  0  0  0  0  0  0  0  0  0
  139.8550   69.6890  226.8740 C   0  0  0  0  0  0  0  0  0  0  0  0
  140.3810   70.9450  226.6490 C   0  0  0  0  0  0  0  0  0  0  0  0
  140.9340   71.6790  227.8040 C   0  0  0  0  0  0  0  0  0  0  0  0
  139.9070   72.2050  228.5620 F   0  0  0  0  0  0  0  0  0  0  0  0
  141.6650   70.8050  228.6090 F   0  0  0  0  0  0  0  0  0  0  0  0
  141.8240   72.6660  227.4190 F   0  0  0  0  0  0  0  0  0  0  0  0
  140.4080   71.5280  225.4050 C   0  0  0  0  0  0  0  0  0  0  0  0
  140.0782   76.6934  220.9266 H   0  0  0  0  0  0  0  0  0  0  0  0
  138.9917   75.5375  220.0225 H   0  0  0  0  0  0  0  0  0  0  0  0
  138.6097   75.7069  222.9463 H   0  0  0  0  0  0  0  0  0  0  0  0
  138.1317   77.1402  222.0076 H   0  0  0  0  0  0  0  0  0  0  0  0
  136.2347   75.9719  221.4711 H   0  0  0  0  0  0  0  0  0  0  0  0
  137.3561   74.9667  220.4024 H   0  0  0  0  0  0  0  0  0  0  0  0
  137.3683   71.7784  221.2795 H   0  0  0  0  0  0  0  0  0  0  0  0
  136.7630   69.7268  222.5180 H   0  0  0  0  0  0  0  0  0  0  0  0
  134.8831   72.1276  225.5629 H   0  0  0  0  0  0  0  0  0  0  0  0
  138.7360   73.9190  222.7280 H   0  0  0  0  0  0  0  0  0  0  0  0
  139.4857   71.0191  222.1926 H   0  0  0  0  0  0  0  0  0  0  0  0
  138.9605   69.0566  223.6921 H   0  0  0  0  0  0  0  0  0  0  0  0
  138.9158   68.0230  225.9159 H   0  0  0  0  0  0  0  0  0  0  0  0
  139.8447   69.2416  227.8788 H   0  0  0  0  0  0  0  0  0  0  0  0
  140.8406   72.5322  225.2850 H   0  0  0  0  0  0  0  0  0  0  0  0
  1  2  2  0
  2  3  1  0
  3  4  1  0
  4  5  1  0
  5  6  1  0
  6  7  1  0
  7  8  2  0
  8  9  1  0
  9 10  2  0
 10 11  1  0
 10 12  1  0
 12 13  2  0
 13 14  1  0
  2 15  1  0
 15 16  1  0
 16 17  2  0
 17 18  1  0
 18 19  2  0
 19 20  1  0
 20 21  2  0
 21 22  1  0
 22 23  1  0
 23 24  1  0
 23 25  1  0
 23 26  1  0
 22 27  2  0
 13  7  1  0
 27 18  1  0
  3 28  1  0
  3 29  1  0
  4 30  1  0
  4 31  1  0
  5 32  1  0
  5 33  1  0
  8 34  1  0
  9 35  1  0
 12 36  1  0
 15 37  1  0
 17 38  1  0
 19 39  1  0
 20 40  1  0
 21 41  1  0
 27 42  1  0
M  END
>  <smiles>  (93) 
O=C(CCCOc1ccc(Cl)cc1Cl)NN=Cc1cccc(C(F)(F)F)c1

>  <score_type>  (93) 
oracle

>  <origin>  (93) 
autodockgpu

>  <m_score__min__energy>  (93) 
-7.79

>  <m_primary>  (93) 
energy

>  <rmsd>  (93) 
10.61232898618357

>  <m_score__min__rmsd>  (93) 
10.61232898618357

>  <meeko>  (93) 
{"free_energy": -5.5, "intermolecular_energy": -8.18, "internal_energy": -2.55, "cluster_size": 13, "cluster_id": 6, "rank_in_cluster": 11}

>  <energy>  (93) 
-5.17

>  <cluster_rmsd>  (93) 
1.11

>  <cluster>  (93) 
6

$$$$

     RDKit          3D

 42 43  0  0  1  0  0  0  0  0999 V2000
  140.6950   74.3750  222.3110 O   0  0  0  0  0  0  0  0  0  0  0  0
  139.5180   74.1040  221.9620 C   0  0  0  0  0  0  0  0  0  0  0  0
  138.5710   75.1260  221.4490 C   0  0  0  0  0  0  0  0  0  0  0  0
  137.4160   75.3660  222.3540 C   0  0  0  0  0  0  0  0  0  0  0  0
  137.2030   76.9000  222.4200 C   0  0  0  0  0  0  0  0  0  0  0  0
  138.2560   77.6100  222.6840 O   0  0  0  0  0  0  0  0  0  0  0  0
  139.2960   78.3090  222.9400 C   0  0  0  0  0  0  0  0  0  0  0  0
  140.5960   77.8330  222.7200 C   0  0  0  0  0  0  0  0  0  0  0  0
  141.7130   78.5830  222.9960 C   0  0  0  0  0  0  0  0  0  0  0  0
  141.5250   79.8410  223.5060 C   0  0  0  0  0  0  0  0  0  0  0  0
  142.9300   80.8070  223.8630 Cl  0  0  0  0  0  0  0  0  0  0  0  0
  140.2880   80.3790  223.7500 C   0  0  0  0  0  0  0  0  0  0  0  0
  139.1910   79.6080  223.4650 C   0  0  0  0  0  0  0  0  0  0  0  0
  137.5920   80.2380  223.7540 Cl  0  0  0  0  0  0  0  0  0  0  0  0
  138.9980   72.7550  222.0360 N   0  0  0  0  0  0  0  0  0  0  0  0
  139.8380   71.7860  222.5020 N   0  0  0  0  0  0  0  0  0  0  0  0
  139.5260   71.0180  223.4540 C   0  0  0  0  0  0  0  0  0  0  0  0
  140.0610   70.9170  224.7800 C   0  0  0  0  0  0  0  0  0  0  0  0
  140.6830   71.8890  225.5090 C   0  0  0  0  0  0  0  0  0  0  0  0
  141.1810   71.7050  226.7910 C   0  0  0  0  0  0  0  0  0  0  0  0
  141.0630   70.4890  227.4000 C   0  0  0  0  0  0  0  0  0  0  0  0
  140.4380   69.4870  226.6850 C   0  0  0  0  0  0  0  0  0  0  0  0
  140.3000   68.1650  227.3260 C   0  0  0  0  0  0  0  0  0  0  0  0
  141.4600   67.4360  227.1540 F   0  0  0  0  0  0  0  0  0  0  0  0
  140.0860   68.3260  228.6950 F   0  0  0  0  0  0  0  0  0  0  0  0
  139.2000   67.4680  226.8540 F   0  0  0  0  0  0  0  0  0  0  0  0
  139.9460   69.6760  225.4160 C   0  0  0  0  0  0  0  0  0  0  0  0
  139.1157   76.0729  221.3199 H   0  0  0  0  0  0  0  0  0  0  0  0
  138.1665   74.7469  220.4989 H   0  0  0  0  0  0  0  0  0  0  0  0
  136.5154   74.8764  221.9551 H   0  0  0  0  0  0  0  0  0  0  0  0
  137.6093   74.9531  223.3551 H   0  0  0  0  0  0  0  0  0  0  0  0
  136.8120   77.2276  221.4454 H   0  0  0  0  0  0  0  0  0  0  0  0
  136.5142   77.0676  223.2611 H   0  0  0  0  0  0  0  0  0  0  0  0
  140.7265   76.8203  222.3108 H   0  0  0  0  0  0  0  0  0  0  0  0
  142.7233   78.1877  222.8140 H   0  0  0  0  0  0  0  0  0  0  0  0
  140.1795   81.3939  224.1602 H   0  0  0  0  0  0  0  0  0  0  0  0
  137.9910   72.5540  221.7530 H   0  0  0  0  0  0  0  0  0  0  0  0
  138.7124   70.3125  223.2299 H   0  0  0  0  0  0  0  0  0  0  0  0
  140.7968   72.8824  225.0506 H   0  0  0  0  0  0  0  0  0  0  0  0
  141.6705   72.5384  227.3162 H   0  0  0  0  0  0  0  0  0  0  0  0
  141.4488   70.3152  228.4154 H   0  0  0  0  0  0  0  0  0  0  0  0
  139.4556   68.8413  224.8936 H   0  0  0  0  0  0  0  0  0  0  0  0
  1  2  2  0
  2  3  1  0
  3  4  1  0
  4  5  1  0
  5  6  1  0
  6  7  1  0
  7  8  2  0
  8  9  1  0
  9 10  2  0
 10 11  1  0
 10 12  1  0
 12 13  2  0
 13 14  1  0
  2 15  1  0
 15 16  1  0
 16 17  2  0
 17 18  1  0
 18 19  2  0
 19 20  1  0
 20 21  2  0
 21 22  1  0
 22 23  1  0
 23 24  1  0
 23 25  1  0
 23 26  1  0
 22 27  2  0
 13  7  1  0
 27 18  1  0
  3 28  1  0
  3 29  1  0
  4 30  1  0
  4 31  1  0
  5 32  1  0
  5 33  1  0
  8 34  1  0
  9 35  1  0
 12 36  1  0
 15 37  1  0
 17 38  1  0
 19 39  1  0
 20 40  1  0
 21 41  1  0
 27 42  1  0
M  END
>  <smiles>  (94) 
O=C(CCCOc1ccc(Cl)cc1Cl)NN=Cc1cccc(C(F)(F)F)c1

>  <score_type>  (94) 
oracle

>  <origin>  (94) 
autodockgpu

>  <m_score__min__energy>  (94) 
-7.79

>  <m_primary>  (94) 
energy

>  <rmsd>  (94) 
5.8634502095020755

>  <m_score__min__rmsd>  (94) 
5.8634502095020755

>  <meeko>  (94) 
{"free_energy": -7.3, "intermolecular_energy": -9.98, "internal_energy": -0.97, "cluster_size": 13, "cluster_id": 1, "rank_in_cluster": 5}

>  <energy>  (94) 
-5.93

>  <cluster_rmsd>  (94) 
0.0

>  <cluster>  (94) 
7

$$$$

     RDKit          3D

 42 43  0  0  1  0  0  0  0  0999 V2000
  141.2770   73.5990  221.6510 O   0  0  0  0  0  0  0  0  0  0  0  0
  140.0940   73.8840  221.9710 C   0  0  0  0  0  0  0  0  0  0  0  0
  139.5480   75.2630  221.9070 C   0  0  0  0  0  0  0  0  0  0  0  0
  138.0620   75.3080  221.8900 C   0  0  0  0  0  0  0  0  0  0  0  0
  137.6520   76.7960  222.0370 C   0  0  0  0  0  0  0  0  0  0  0  0
  138.5880   77.6100  222.4150 O   0  0  0  0  0  0  0  0  0  0  0  0
  139.5100   78.4120  222.7910 C   0  0  0  0  0  0  0  0  0  0  0  0
  140.8710   78.0900  222.7020 C   0  0  0  0  0  0  0  0  0  0  0  0
  141.8620   78.9510  223.1060 C   0  0  0  0  0  0  0  0  0  0  0  0
  141.4810   80.1660  223.6140 C   0  0  0  0  0  0  0  0  0  0  0  0
  142.7230   81.2710  224.1320 Cl  0  0  0  0  0  0  0  0  0  0  0  0
  140.1720   80.5560  223.7350 C   0  0  0  0  0  0  0  0  0  0  0  0
  139.2050   79.6760  223.3240 C   0  0  0  0  0  0  0  0  0  0  0  0
  137.5240   80.1160  223.4530 Cl  0  0  0  0  0  0  0  0  0  0  0  0
  139.1690   72.8690  222.4310 N   0  0  0  0  0  0  0  0  0  0  0  0
  139.6340   71.5870  222.5040 N   0  0  0  0  0  0  0  0  0  0  0  0
  139.3990   70.8370  223.4910 C   0  0  0  0  0  0  0  0  0  0  0  0
  139.9790   70.8160  224.8020 C   0  0  0  0  0  0  0  0  0  0  0  0
  140.6330   71.8270  225.4440 C   0  0  0  0  0  0  0  0  0  0  0  0
  141.1740   71.7220  226.7180 C   0  0  0  0  0  0  0  0  0  0  0  0
  141.0670   70.5490  227.4090 C   0  0  0  0  0  0  0  0  0  0  0  0
  140.4100   69.5100  226.7830 C   0  0  0  0  0  0  0  0  0  0  0  0
  140.2830   68.2340  227.5130 C   0  0  0  0  0  0  0  0  0  0  0  0
  139.2300   67.5020  227.0020 F   0  0  0  0  0  0  0  0  0  0  0  0
  141.4500   67.4850  227.3540 F   0  0  0  0  0  0  0  0  0  0  0  0
  140.1430   68.4230  228.8770 F   0  0  0  0  0  0  0  0  0  0  0  0
  139.8760   69.6210  225.5210 C   0  0  0  0  0  0  0  0  0  0  0  0
  139.9040   75.8204  222.7860 H   0  0  0  0  0  0  0  0  0  0  0  0
  139.8978   75.7080  220.9638 H   0  0  0  0  0  0  0  0  0  0  0  0
  137.6826   74.9037  220.9399 H   0  0  0  0  0  0  0  0  0  0  0  0
  137.6415   74.7024  222.7063 H   0  0  0  0  0  0  0  0  0  0  0  0
  137.2807   77.1406  221.0606 H   0  0  0  0  0  0  0  0  0  0  0  0
  136.8992   76.8178  222.8388 H   0  0  0  0  0  0  0  0  0  0  0  0
  141.1567   77.1098  222.2927 H   0  0  0  0  0  0  0  0  0  0  0  0
  142.9238   78.6754  223.0248 H   0  0  0  0  0  0  0  0  0  0  0  0
  139.9073   81.5408  224.1475 H   0  0  0  0  0  0  0  0  0  0  0  0
  138.1800   73.1380  222.7160 H   0  0  0  0  0  0  0  0  0  0  0  0
  138.6237   70.0762  223.3176 H   0  0  0  0  0  0  0  0  0  0  0  0
  140.7383   72.7873  224.9179 H   0  0  0  0  0  0  0  0  0  0  0  0
  141.6883   72.5827  227.1705 H   0  0  0  0  0  0  0  0  0  0  0  0
  141.4861   70.4376  228.4199 H   0  0  0  0  0  0  0  0  0  0  0  0
  139.3613   68.7591  225.0712 H   0  0  0  0  0  0  0  0  0  0  0  0
  1  2  2  0
  2  3  1  0
  3  4  1  0
  4  5  1  0
  5  6  1  0
  6  7  1  0
  7  8  2  0
  8  9  1  0
  9 10  2  0
 10 11  1  0
 10 12  1  0
 12 13  2  0
 13 14  1  0
  2 15  1  0
 15 16  1  0
 16 17  2  0
 17 18  1  0
 18 19  2  0
 19 20  1  0
 20 21  2  0
 21 22  1  0
 22 23  1  0
 23 24  1  0
 23 25  1  0
 23 26  1  0
 22 27  2  0
 13  7  1  0
 27 18  1  0
  3 28  1  0
  3 29  1  0
  4 30  1  0
  4 31  1  0
  5 32  1  0
  5 33  1  0
  8 34  1  0
  9 35  1  0
 12 36  1  0
 15 37  1  0
 17 38  1  0
 19 39  1  0
 20 40  1  0
 21 41  1  0
 27 42  1  0
M  END
>  <smiles>  (95) 
O=C(CCCOc1ccc(Cl)cc1Cl)NN=Cc1cccc(C(F)(F)F)c1

>  <score_type>  (95) 
oracle

>  <origin>  (95) 
autodockgpu

>  <m_score__min__energy>  (95) 
-7.79

>  <m_primary>  (95) 
energy

>  <rmsd>  (95) 
5.795750356156081

>  <m_score__min__rmsd>  (95) 
5.795750356156081

>  <meeko>  (95) 
{"free_energy": -7.21, "intermolecular_energy": -9.89, "internal_energy": -0.81, "cluster_size": 13, "cluster_id": 1, "rank_in_cluster": 6}

>  <energy>  (95) 
-5.54

>  <cluster_rmsd>  (95) 
0.0

>  <cluster>  (95) 
8

$$$$

     RDKit          3D

 42 43  0  0  1  0  0  0  0  0999 V2000
  139.8560   75.3590  222.6760 O   0  0  0  0  0  0  0  0  0  0  0  0
  139.5910   74.6220  221.6930 C   0  0  0  0  0  0  0  0  0  0  0  0
  138.8400   75.0980  220.5040 C   0  0  0  0  0  0  0  0  0  0  0  0
  138.4510   74.0040  219.5750 C   0  0  0  0  0  0  0  0  0  0  0  0
  139.6170   73.8260  218.5710 C   0  0  0  0  0  0  0  0  0  0  0  0
  140.8030   73.7250  219.0870 O   0  0  0  0  0  0  0  0  0  0  0  0
  141.9710   73.6290  219.5970 C   0  0  0  0  0  0  0  0  0  0  0  0
  142.5480   72.3950  219.9300 C   0  0  0  0  0  0  0  0  0  0  0  0
  143.8030   72.2910  220.4790 C   0  0  0  0  0  0  0  0  0  0  0  0
  144.4990   73.4510  220.7010 C   0  0  0  0  0  0  0  0  0  0  0  0
  146.0910   73.3380  221.3960 Cl  0  0  0  0  0  0  0  0  0  0  0  0
  144.0060   74.6950  220.4040 C   0  0  0  0  0  0  0  0  0  0  0  0
  142.7510   74.7680  219.8570 C   0  0  0  0  0  0  0  0  0  0  0  0
  142.0710   76.3220  219.4570 Cl  0  0  0  0  0  0  0  0  0  0  0  0
  140.0070   73.2360  221.6510 N   0  0  0  0  0  0  0  0  0  0  0  0
  140.7010   72.7600  222.7260 N   0  0  0  0  0  0  0  0  0  0  0  0
  140.6810   71.5430  223.0610 C   0  0  0  0  0  0  0  0  0  0  0  0
  140.3220   70.9260  224.3040 C   0  0  0  0  0  0  0  0  0  0  0  0
  139.5730   69.8020  224.4950 C   0  0  0  0  0  0  0  0  0  0  0  0
  139.2630   69.2720  225.7410 C   0  0  0  0  0  0  0  0  0  0  0  0
  139.7170   69.8850  226.8730 C   0  0  0  0  0  0  0  0  0  0  0  0
  140.4770   71.0250  226.7080 C   0  0  0  0  0  0  0  0  0  0  0  0
  140.9760   71.7030  227.9210 C   0  0  0  0  0  0  0  0  0  0  0  0
  139.9140   72.1500  228.6810 F   0  0  0  0  0  0  0  0  0  0  0  0
  141.7150   70.8040  228.6900 F   0  0  0  0  0  0  0  0  0  0  0  0
  141.8440   72.7390  227.6200 F   0  0  0  0  0  0  0  0  0  0  0  0
  140.7800   71.5440  225.4730 C   0  0  0  0  0  0  0  0  0  0  0  0
  137.9263   75.6045  220.8484 H   0  0  0  0  0  0  0  0  0  0  0  0
  139.5059   75.7747  219.9485 H   0  0  0  0  0  0  0  0  0  0  0  0
  138.2899   73.0716  220.1359 H   0  0  0  0  0  0  0  0  0  0  0  0
  137.5155   74.2485  219.0506 H   0  0  0  0  0  0  0  0  0  0  0  0
  139.4240   72.9120  217.9902 H   0  0  0  0  0  0  0  0  0  0  0  0
  139.6332   74.7472  217.9700 H   0  0  0  0  0  0  0  0  0  0  0  0
  141.9738   71.4753  219.7445 H   0  0  0  0  0  0  0  0  0  0  0  0
  144.2344   71.3112  220.7317 H   0  0  0  0  0  0  0  0  0  0  0  0
  144.5964   75.6027  220.5977 H   0  0  0  0  0  0  0  0  0  0  0  0
  139.7530   72.6260  220.8170 H   0  0  0  0  0  0  0  0  0  0  0  0
  140.9890   70.8424  222.2709 H   0  0  0  0  0  0  0  0  0  0  0  0
  139.1897   69.2817  223.6048 H   0  0  0  0  0  0  0  0  0  0  0  0
  138.6527   68.3599  225.8154 H   0  0  0  0  0  0  0  0  0  0  0  0
  139.4872   69.4878  227.8727 H   0  0  0  0  0  0  0  0  0  0  0  0
  141.3901   72.4565  225.4020 H   0  0  0  0  0  0  0  0  0  0  0  0
  1  2  2  0
  2  3  1  0
  3  4  1  0
  4  5  1  0
  5  6  1  0
  6  7  1  0
  7  8  2  0
  8  9  1  0
  9 10  2  0
 10 11  1  0
 10 12  1  0
 12 13  2  0
 13 14  1  0
  2 15  1  0
 15 16  1  0
 16 17  2  0
 17 18  1  0
 18 19  2  0
 19 20  1  0
 20 21  2  0
 21 22  1  0
 22 23  1  0
 23 24  1  0
 23 25  1  0
 23 26  1  0
 22 27  2  0
 13  7  1  0
 27 18  1  0
  3 28  1  0
  3 29  1  0
  4 30  1  0
  4 31  1  0
  5 32  1  0
  5 33  1  0
  8 34  1  0
  9 35  1  0
 12 36  1  0
 15 37  1  0
 17 38  1  0
 19 39  1  0
 20 40  1  0
 21 41  1  0
 27 42  1  0
M  END
>  <smiles>  (96) 
O=C(CCCOc1ccc(Cl)cc1Cl)NN=Cc1cccc(C(F)(F)F)c1

>  <score_type>  (96) 
oracle

>  <origin>  (96) 
autodockgpu

>  <m_score__min__energy>  (96) 
-7.79

>  <m_primary>  (96) 
energy

>  <rmsd>  (96) 
9.672728359720303

>  <m_score__min__rmsd>  (96) 
9.672728359720303

>  <meeko>  (96) 
{"free_energy": -6.01, "intermolecular_energy": -8.69, "internal_energy": -1.95, "cluster_size": 8, "cluster_id": 3, "rank_in_cluster": 8}

>  <energy>  (96) 
-5.46

>  <cluster_rmsd>  (96) 
0.0

>  <cluster>  (96) 
9

$$$$

     RDKit          3D

 42 43  0  0  1  0  0  0  0  0999 V2000
  141.1700   73.4840  220.7660 O   0  0  0  0  0  0  0  0  0  0  0  0
  140.3450   74.1420  221.4520 C   0  0  0  0  0  0  0  0  0  0  0  0
  140.2540   75.6230  221.4050 C   0  0  0  0  0  0  0  0  0  0  0  0
  139.2670   76.1830  222.3650 C   0  0  0  0  0  0  0  0  0  0  0  0
  137.8580   75.8550  221.8100 C   0  0  0  0  0  0  0  0  0  0  0  0
  137.0100   75.3650  222.6610 O   0  0  0  0  0  0  0  0  0  0  0  0
  136.1730   74.8860  223.5000 C   0  0  0  0  0  0  0  0  0  0  0  0
  135.6550   75.6410  224.5620 C   0  0  0  0  0  0  0  0  0  0  0  0
  134.7560   75.1260  225.4630 C   0  0  0  0  0  0  0  0  0  0  0  0
  134.3660   73.8220  225.3000 C   0  0  0  0  0  0  0  0  0  0  0  0
  133.2270   73.1530  226.4340 Cl  0  0  0  0  0  0  0  0  0  0  0  0
  134.8260   73.0180  224.2890 C   0  0  0  0  0  0  0  0  0  0  0  0
  135.7220   73.5590  223.4040 C   0  0  0  0  0  0  0  0  0  0  0  0
  136.3420   72.5850  222.0980 Cl  0  0  0  0  0  0  0  0  0  0  0  0
  139.4140   73.4890  222.3470 N   0  0  0  0  0  0  0  0  0  0  0  0
  139.4650   72.1260  222.4180 N   0  0  0  0  0  0  0  0  0  0  0  0
  140.3160   71.5160  223.1230 C   0  0  0  0  0  0  0  0  0  0  0  0
  140.1790   70.8730  224.3960 C   0  0  0  0  0  0  0  0  0  0  0  0
  139.6580   69.6390  224.6590 C   0  0  0  0  0  0  0  0  0  0  0  0
  139.5550   69.0910  225.9300 C   0  0  0  0  0  0  0  0  0  0  0  0
  139.9910   69.7960  227.0150 C   0  0  0  0  0  0  0  0  0  0  0  0
  140.5220   71.0470  226.7770 C   0  0  0  0  0  0  0  0  0  0  0  0
  140.9990   71.8270  227.9360 C   0  0  0  0  0  0  0  0  0  0  0  0
  139.9230   72.2560  228.6880 F   0  0  0  0  0  0  0  0  0  0  0  0
  141.8020   71.0220  228.7440 F   0  0  0  0  0  0  0  0  0  0  0  0
  141.7980   72.8920  227.5560 F   0  0  0  0  0  0  0  0  0  0  0  0
  140.6220   71.5850  225.5160 C   0  0  0  0  0  0  0  0  0  0  0  0
  141.2442   76.0411  221.6389 H   0  0  0  0  0  0  0  0  0  0  0  0
  139.9163   75.8964  220.3945 H   0  0  0  0  0  0  0  0  0  0  0  0
  139.3997   75.7222  223.3550 H   0  0  0  0  0  0  0  0  0  0  0  0
  139.4014   77.2690  222.4772 H   0  0  0  0  0  0  0  0  0  0  0  0
  137.4306   76.7849  221.4068 H   0  0  0  0  0  0  0  0  0  0  0  0
  138.0122   75.0666  221.0585 H   0  0  0  0  0  0  0  0  0  0  0  0
  135.9811   76.6852  224.6776 H   0  0  0  0  0  0  0  0  0  0  0  0
  134.3622   75.7388  226.2873 H   0  0  0  0  0  0  0  0  0  0  0  0
  134.4879   71.9758  224.1916 H   0  0  0  0  0  0  0  0  0  0  0  0
  138.7390   74.0680  222.9320 H   0  0  0  0  0  0  0  0  0  0  0  0
  141.3262   71.4708  222.6900 H   0  0  0  0  0  0  0  0  0  0  0  0
  139.2968   69.0408  223.8095 H   0  0  0  0  0  0  0  0  0  0  0  0
  139.1220   68.0886  226.0632 H   0  0  0  0  0  0  0  0  0  0  0  0
  139.9220   69.3851  228.0330 H   0  0  0  0  0  0  0  0  0  0  0  0
  141.0556   72.5875  225.3859 H   0  0  0  0  0  0  0  0  0  0  0  0
  1  2  2  0
  2  3  1  0
  3  4  1  0
  4  5  1  0
  5  6  1  0
  6  7  1  0
  7  8  2  0
  8  9  1  0
  9 10  2  0
 10 11  1  0
 10 12  1  0
 12 13  2  0
 13 14  1  0
  2 15  1  0
 15 16  1  0
 16 17  2  0
 17 18  1  0
 18 19  2  0
 19 20  1  0
 20 21  2  0
 21 22  1  0
 22 23  1  0
 23 24  1  0
 23 25  1  0
 23 26  1  0
 22 27  2  0
 13  7  1  0
 27 18  1  0
  3 28  1  0
  3 29  1  0
  4 30  1  0
  4 31  1  0
  5 32  1  0
  5 33  1  0
  8 34  1  0
  9 35  1  0
 12 36  1  0
 15 37  1  0
 17 38  1  0
 19 39  1  0
 20 40  1  0
 21 41  1  0
 27 42  1  0
M  END
>  <smiles>  (97) 
O=C(CCCOc1ccc(Cl)cc1Cl)NN=Cc1cccc(C(F)(F)F)c1

>  <score_type>  (97) 
oracle

>  <origin>  (97) 
autodockgpu

>  <m_score__min__energy>  (97) 
-7.79

>  <m_primary>  (97) 
energy

>  <rmsd>  (97) 
9.358951122654492

>  <m_score__min__rmsd>  (97) 
9.358951122654492

>  <meeko>  (97) 
{"free_energy": -5.94, "intermolecular_energy": -8.62, "internal_energy": -1.76, "cluster_size": 13, "cluster_id": 6, "rank_in_cluster": 3}

>  <energy>  (97) 
-5.4

>  <cluster_rmsd>  (97) 
1.12

>  <cluster>  (97) 
9

$$$$

     RDKit          3D

 42 43  0  0  1  0  0  0  0  0999 V2000
  140.1670   75.1520  222.3230 O   0  0  0  0  0  0  0  0  0  0  0  0
  139.9550   74.3240  221.4000 C   0  0  0  0  0  0  0  0  0  0  0  0
  139.4370   74.7150  220.0650 C   0  0  0  0  0  0  0  0  0  0  0  0
  139.2130   73.5600  219.1570 C   0  0  0  0  0  0  0  0  0  0  0  0
  140.4950   73.4000  218.3010 C   0  0  0  0  0  0  0  0  0  0  0  0
  141.6170   73.3870  218.9520 O   0  0  0  0  0  0  0  0  0  0  0  0
  142.7240   73.3740  219.5910 C   0  0  0  0  0  0  0  0  0  0  0  0
  143.2750   72.1960  220.1170 C   0  0  0  0  0  0  0  0  0  0  0  0
  144.4640   72.1810  220.8050 C   0  0  0  0  0  0  0  0  0  0  0  0
  145.1190   73.3740  220.9710 C   0  0  0  0  0  0  0  0  0  0  0  0
  146.6280   73.3740  221.8400 Cl  0  0  0  0  0  0  0  0  0  0  0  0
  144.6470   74.5680  220.4880 C   0  0  0  0  0  0  0  0  0  0  0  0
  143.4580   74.5520  219.8060 C   0  0  0  0  0  0  0  0  0  0  0  0
  142.8080   76.0380  219.1680 Cl  0  0  0  0  0  0  0  0  0  0  0  0
  140.2070   72.9090  221.5790 N   0  0  0  0  0  0  0  0  0  0  0  0
  140.6850   72.5080  222.7930 N   0  0  0  0  0  0  0  0  0  0  0  0
  140.0800   71.6700  223.5170 C   0  0  0  0  0  0  0  0  0  0  0  0
  140.3710   71.2020  224.8400 C   0  0  0  0  0  0  0  0  0  0  0  0
  140.8800   71.9140  225.8870 C   0  0  0  0  0  0  0  0  0  0  0  0
  141.1410   71.3790  227.1410 C   0  0  0  0  0  0  0  0  0  0  0  0
  140.8870   70.0610  227.3860 C   0  0  0  0  0  0  0  0  0  0  0  0
  140.3720   69.3170  226.3440 C   0  0  0  0  0  0  0  0  0  0  0  0
  140.0900   67.8890  226.5880 C   0  0  0  0  0  0  0  0  0  0  0  0
  139.4290   67.7390  227.7910 F   0  0  0  0  0  0  0  0  0  0  0  0
  139.2680   67.3930  225.5750 F   0  0  0  0  0  0  0  0  0  0  0  0
  141.2380   67.1160  226.5510 F   0  0  0  0  0  0  0  0  0  0  0  0
  140.1150   69.8520  225.1050 C   0  0  0  0  0  0  0  0  0  0  0  0
  138.4807   75.2409  220.2025 H   0  0  0  0  0  0  0  0  0  0  0  0
  140.1994   75.3539  219.5954 H   0  0  0  0  0  0  0  0  0  0  0  0
  139.0347   72.6471  219.7442 H   0  0  0  0  0  0  0  0  0  0  0  0
  138.3334   73.7282  218.5182 H   0  0  0  0  0  0  0  0  0  0  0  0
  140.4151   72.4514  217.7498 H   0  0  0  0  0  0  0  0  0  0  0  0
  140.5356   74.2925  217.6592 H   0  0  0  0  0  0  0  0  0  0  0  0
  142.7347   71.2487  219.9732 H   0  0  0  0  0  0  0  0  0  0  0  0
  144.8762   71.2444  221.2086 H   0  0  0  0  0  0  0  0  0  0  0  0
  145.2027   75.5047  220.6424 H   0  0  0  0  0  0  0  0  0  0  0  0
  140.0010   72.2250  220.7900 H   0  0  0  0  0  0  0  0  0  0  0  0
  139.1839   71.2268  223.0582 H   0  0  0  0  0  0  0  0  0  0  0  0
  141.0974   72.9804  225.7270 H   0  0  0  0  0  0  0  0  0  0  0  0
  141.5524   72.0173  227.9368 H   0  0  0  0  0  0  0  0  0  0  0  0
  141.0840   69.6114  228.3704 H   0  0  0  0  0  0  0  0  0  0  0  0
  139.7029   69.2113  224.3115 H   0  0  0  0  0  0  0  0  0  0  0  0
  1  2  2  0
  2  3  1  0
  3  4  1  0
  4  5  1  0
  5  6  1  0
  6  7  1  0
  7  8  2  0
  8  9  1  0
  9 10  2  0
 10 11  1  0
 10 12  1  0
 12 13  2  0
 13 14  1  0
  2 15  1  0
 15 16  1  0
 16 17  2  0
 17 18  1  0
 18 19  2  0
 19 20  1  0
 20 21  2  0
 21 22  1  0
 22 23  1  0
 23 24  1  0
 23 25  1  0
 23 26  1  0
 22 27  2  0
 13  7  1  0
 27 18  1  0
  3 28  1  0
  3 29  1  0
  4 30  1  0
  4 31  1  0
  5 32  1  0
  5 33  1  0
  8 34  1  0
  9 35  1  0
 12 36  1  0
 15 37  1  0
 17 38  1  0
 19 39  1  0
 20 40  1  0
 21 41  1  0
 27 42  1  0
M  END
>  <smiles>  (98) 
O=C(CCCOc1ccc(Cl)cc1Cl)NN=Cc1cccc(C(F)(F)F)c1

>  <score_type>  (98) 
oracle

>  <origin>  (98) 
autodockgpu

>  <m_score__min__energy>  (98) 
-7.79

>  <m_primary>  (98) 
energy

>  <rmsd>  (98) 
10.115811130415855

>  <m_score__min__rmsd>  (98) 
10.115811130415855

>  <meeko>  (98) 
{"free_energy": -6.42, "intermolecular_energy": -9.1, "internal_energy": -1.53, "cluster_size": 8, "cluster_id": 3, "rank_in_cluster": 3}

>  <energy>  (98) 
-5.08

>  <cluster_rmsd>  (98) 
0.55

>  <cluster>  (98) 
9

$$$$

     RDKit          3D

 42 43  0  0  1  0  0  0  0  0999 V2000
  141.0370   74.6860  221.5560 O   0  0  0  0  0  0  0  0  0  0  0  0
  139.8420   74.4030  221.8260 C   0  0  0  0  0  0  0  0  0  0  0  0
  138.6880   75.1630  221.2830 C   0  0  0  0  0  0  0  0  0  0  0  0
  137.5690   75.3080  222.2500 C   0  0  0  0  0  0  0  0  0  0  0  0
  137.3050   76.8260  222.4140 C   0  0  0  0  0  0  0  0  0  0  0  0
  138.3430   77.5600  222.6710 O   0  0  0  0  0  0  0  0  0  0  0  0
  139.3640   78.2860  222.9270 C   0  0  0  0  0  0  0  0  0  0  0  0
  140.6760   77.8400  222.7140 C   0  0  0  0  0  0  0  0  0  0  0  0
  141.7740   78.6180  222.9890 C   0  0  0  0  0  0  0  0  0  0  0  0
  141.5540   79.8750  223.4910 C   0  0  0  0  0  0  0  0  0  0  0  0
  142.9340   80.8760  223.8450 Cl  0  0  0  0  0  0  0  0  0  0  0  0
  140.3030   80.3840  223.7270 C   0  0  0  0  0  0  0  0  0  0  0  0
  139.2260   79.5850  223.4440 C   0  0  0  0  0  0  0  0  0  0  0  0
  137.6110   80.1780  223.7230 Cl  0  0  0  0  0  0  0  0  0  0  0  0
  139.5030   73.2980  222.6980 N   0  0  0  0  0  0  0  0  0  0  0  0
  140.5370   72.5730  223.2180 N   0  0  0  0  0  0  0  0  0  0  0  0
  140.3550   71.5240  223.8970 C   0  0  0  0  0  0  0  0  0  0  0  0
  140.5910   71.2650  225.2870 C   0  0  0  0  0  0  0  0  0  0  0  0
  140.9860   72.1490  226.2480 C   0  0  0  0  0  0  0  0  0  0  0  0
  141.2000   71.8120  227.5780 C   0  0  0  0  0  0  0  0  0  0  0  0
  141.0150   70.5250  227.9930 C   0  0  0  0  0  0  0  0  0  0  0  0
  140.6150   69.6100  227.0410 C   0  0  0  0  0  0  0  0  0  0  0  0
  140.4100   68.2120  227.4690 C   0  0  0  0  0  0  0  0  0  0  0  0
  140.3140   68.1510  228.8450 F   0  0  0  0  0  0  0  0  0  0  0  0
  139.2190   67.7260  226.9280 F   0  0  0  0  0  0  0  0  0  0  0  0
  141.4040   67.3710  227.0010 F   0  0  0  0  0  0  0  0  0  0  0  0
  140.4040   69.9500  225.7260 C   0  0  0  0  0  0  0  0  0  0  0  0
  139.0349   76.1672  220.9981 H   0  0  0  0  0  0  0  0  0  0  0  0
  138.3022   74.5966  220.4226 H   0  0  0  0  0  0  0  0  0  0  0  0
  136.6688   74.8077  221.8636 H   0  0  0  0  0  0  0  0  0  0  0  0
  137.8232   74.8474  223.2160 H   0  0  0  0  0  0  0  0  0  0  0  0
  136.8572   77.1925  221.4785 H   0  0  0  0  0  0  0  0  0  0  0  0
  136.6511   76.9195  223.2936 H   0  0  0  0  0  0  0  0  0  0  0  0
  140.8320   76.8283  222.3113 H   0  0  0  0  0  0  0  0  0  0  0  0
  142.7940   78.2458  222.8127 H   0  0  0  0  0  0  0  0  0  0  0  0
  140.1683   81.3988  224.1296 H   0  0  0  0  0  0  0  0  0  0  0  0
  138.4850   73.0900  222.9270 H   0  0  0  0  0  0  0  0  0  0  0  0
  139.9503   70.6721  223.3309 H   0  0  0  0  0  0  0  0  0  0  0  0
  141.1452   73.1959  225.9502 H   0  0  0  0  0  0  0  0  0  0  0  0
  141.5184   72.5817  228.2965 H   0  0  0  0  0  0  0  0  0  0  0  0
  141.1776   70.2303  229.0402 H   0  0  0  0  0  0  0  0  0  0  0  0
  140.0842   69.1786  225.0100 H   0  0  0  0  0  0  0  0  0  0  0  0
  1  2  2  0
  2  3  1  0
  3  4  1  0
  4  5  1  0
  5  6  1  0
  6  7  1  0
  7  8  2  0
  8  9  1  0
  9 10  2  0
 10 11  1  0
 10 12  1  0
 12 13  2  0
 13 14  1  0
  2 15  1  0
 15 16  1  0
 16 17  2  0
 17 18  1  0
 18 19  2  0
 19 20  1  0
 20 21  2  0
 21 22  1  0
 22 23  1  0
 23 24  1  0
 23 25  1  0
 23 26  1  0
 22 27  2  0
 13  7  1  0
 27 18  1  0
  3 28  1  0
  3 29  1  0
  4 30  1  0
  4 31  1  0
  5 32  1  0
  5 33  1  0
  8 34  1  0
  9 35  1  0
 12 36  1  0
 15 37  1  0
 17 38  1  0
 19 39  1  0
 20 40  1  0
 21 41  1  0
 27 42  1  0
M  END
>  <smiles>  (99) 
O=C(CCCOc1ccc(Cl)cc1Cl)NN=Cc1cccc(C(F)(F)F)c1

>  <score_type>  (99) 
oracle

>  <origin>  (99) 
autodockgpu

>  <m_score__min__energy>  (99) 
-7.79

>  <m_primary>  (99) 
energy

>  <rmsd>  (99) 
5.8927607271316464

>  <m_score__min__rmsd>  (99) 
5.8927607271316464

>  <meeko>  (99) 
{"free_energy": -7.79, "intermolecular_energy": -10.47, "internal_energy": -0.93, "cluster_size": 13, "cluster_id": 1, "rank_in_cluster": 1}

>  <energy>  (99) 
-5.35

>  <cluster_rmsd>  (99) 
0.0

>  <cluster>  (99) 
10

$$$$

     RDKit          3D

 42 43  0  0  1  0  0  0  0  0999 V2000
  141.3380   74.6870  221.2610 O   0  0  0  0  0  0  0  0  0  0  0  0
  140.1280   74.7350  221.6030 C   0  0  0  0  0  0  0  0  0  0  0  0
  139.2220   75.8460  221.2150 C   0  0  0  0  0  0  0  0  0  0  0  0
  138.3300   76.2910  222.3180 C   0  0  0  0  0  0  0  0  0  0  0  0
  136.9050   75.7810  221.9830 C   0  0  0  0  0  0  0  0  0  0  0  0
  136.5460   74.6760  222.5610 O   0  0  0  0  0  0  0  0  0  0  0  0
  136.1880   73.5890  223.1300 C   0  0  0  0  0  0  0  0  0  0  0  0
  136.5540   72.3270  222.6390 C   0  0  0  0  0  0  0  0  0  0  0  0
  136.1700   71.1580  223.2490 C   0  0  0  0  0  0  0  0  0  0  0  0
  135.3990   71.2530  224.3790 C   0  0  0  0  0  0  0  0  0  0  0  0
  134.9020   69.7810  225.1660 Cl  0  0  0  0  0  0  0  0  0  0  0  0
  134.9990   72.4470  224.9210 C   0  0  0  0  0  0  0  0  0  0  0  0
  135.3980   73.5970  224.2910 C   0  0  0  0  0  0  0  0  0  0  0  0
  134.9210   75.1450  224.9340 Cl  0  0  0  0  0  0  0  0  0  0  0  0
  139.5270   73.6950  222.4100 N   0  0  0  0  0  0  0  0  0  0  0  0
  140.3280   72.6550  222.7870 N   0  0  0  0  0  0  0  0  0  0  0  0
  139.8670   71.5190  223.0890 C   0  0  0  0  0  0  0  0  0  0  0  0
  139.8140   70.8440  224.3520 C   0  0  0  0  0  0  0  0  0  0  0  0
  139.2770   69.6190  224.6240 C   0  0  0  0  0  0  0  0  0  0  0  0
  139.2610   69.0370  225.8840 C   0  0  0  0  0  0  0  0  0  0  0  0
  139.8070   69.6970  226.9470 C   0  0  0  0  0  0  0  0  0  0  0  0
  140.3580   70.9370  226.6990 C   0  0  0  0  0  0  0  0  0  0  0  0
  140.9530   71.6680  227.8350 C   0  0  0  0  0  0  0  0  0  0  0  0
  141.7630   72.6850  227.3670 F   0  0  0  0  0  0  0  0  0  0  0  0
  139.9420   72.2380  228.6080 F   0  0  0  0  0  0  0  0  0  0  0  0
  141.6500   70.8300  228.6880 F   0  0  0  0  0  0  0  0  0  0  0  0
  140.3710   71.5090  225.4490 C   0  0  0  0  0  0  0  0  0  0  0  0
  139.8355   76.7013  220.8957 H   0  0  0  0  0  0  0  0  0  0  0  0
  138.5773   75.4727  220.4056 H   0  0  0  0  0  0  0  0  0  0  0  0
  138.6690   75.8641  223.2734 H   0  0  0  0  0  0  0  0  0  0  0  0
  138.3420   77.3867  222.4144 H   0  0  0  0  0  0  0  0  0  0  0  0
  136.1897   76.5629  222.2779 H   0  0  0  0  0  0  0  0  0  0  0  0
  136.9139   75.5626  220.9049 H   0  0  0  0  0  0  0  0  0  0  0  0
  137.1721   72.2716  221.7308 H   0  0  0  0  0  0  0  0  0  0  0  0
  136.4704   70.1798  222.8453 H   0  0  0  0  0  0  0  0  0  0  0  0
  134.3797   72.4809  225.8295 H   0  0  0  0  0  0  0  0  0  0  0  0
  138.5070   73.7690  222.7040 H   0  0  0  0  0  0  0  0  0  0  0  0
  139.4368   70.9569  222.2470 H   0  0  0  0  0  0  0  0  0  0  0  0
  138.8283   69.0572  223.7915 H   0  0  0  0  0  0  0  0  0  0  0  0
  138.8086   68.0444  226.0260 H   0  0  0  0  0  0  0  0  0  0  0  0
  139.8075   69.2595  227.9563 H   0  0  0  0  0  0  0  0  0  0  0  0
  140.8248   72.5013  225.3100 H   0  0  0  0  0  0  0  0  0  0  0  0
  1  2  2  0
  2  3  1  0
  3  4  1  0
  4  5  1  0
  5  6  1  0
  6  7  1  0
  7  8  2  0
  8  9  1  0
  9 10  2  0
 10 11  1  0
 10 12  1  0
 12 13  2  0
 13 14  1  0
  2 15  1  0
 15 16  1  0
 16 17  2  0
 17 18  1  0
 18 19  2  0
 19 20  1  0
 20 21  2  0
 21 22  1  0
 22 23  1  0
 23 24  1  0
 23 25  1  0
 23 26  1  0
 22 27  2  0
 13  7  1  0
 27 18  1  0
  3 28  1  0
  3 29  1  0
  4 30  1  0
  4 31  1  0
  5 32  1  0
  5 33  1  0
  8 34  1  0
  9 35  1  0
 12 36  1  0
 15 37  1  0
 17 38  1  0
 19 39  1  0
 20 40  1  0
 21 41  1  0
 27 42  1  0
M  END
>  <smiles>  (100) 
O=C(CCCOc1ccc(Cl)cc1Cl)NN=Cc1cccc(C(F)(F)F)c1

>  <score_type>  (100) 
oracle

>  <origin>  (100) 
autodockgpu

>  <m_score__min__energy>  (100) 
-7.79

>  <m_primary>  (100) 
energy

>  <rmsd>  (100) 
10.406985656364645

>  <m_score__min__rmsd>  (100) 
10.406985656364645

>  <meeko>  (100) 
{"free_energy": -5.82, "intermolecular_energy": -8.5, "internal_energy": -2.4, "cluster_size": 13, "cluster_id": 6, "rank_in_cluster": 4}

>  <energy>  (100) 
-4.45

>  <cluster_rmsd>  (100) 
0.0

>  <cluster>  (100) 
11

$$$$
