
 61 66  0  0  1  0  0  0  0  0999 V2000
  136.8700   78.4460  223.1380 O   0  0  0  0  0  0  0  0  0  0  0  0
  137.7680   79.3610  223.1800 C   0  0  0  0  0  0  0  0  0  0  0  0
  137.4500   80.5290  223.9530 C   0  0  0  0  0  0  0  0  0  0  0  0
  137.5070   80.6750  225.3360 C   0  0  0  0  0  0  0  0  0  0  0  0
  137.1220   81.9630  225.6710 C   0  0  0  0  0  0  0  0  0  0  0  0
  136.9970   82.6380  226.8730 C   0  0  0  0  0  0  0  0  0  0  0  0
  136.5800   83.9470  226.8810 C   0  0  0  0  0  0  0  0  0  0  0  0
  136.2910   84.5750  225.6810 C   0  0  0  0  0  0  0  0  0  0  0  0
  136.4160   83.8980  224.4680 C   0  0  0  0  0  0  0  0  0  0  0  0
  136.8320   82.5940  224.4660 C   0  0  0  0  0  0  0  0  0  0  0  0
  137.0320   81.7230  223.4450 N   0  0  0  0  0  0  0  0  0  0  0  0
  138.9790   79.1530  222.4730 N   0  0  0  0  0  0  0  0  0  0  0  0
  139.1310   78.4080  221.2410 C   0  0  0  0  0  0  0  0  0  0  0  0
  140.5270   77.8060  221.4450 C   0  0  1  0  0  0  0  0  0  0  0  0
  140.3740   76.5260  222.1790 C   0  0  0  0  0  0  0  0  0  0  0  0
  140.5760   75.4650  221.1380 C   0  0  0  0  0  0  0  0  0  0  0  0
  141.0720   76.0670  219.9520 N   0  0  0  0  0  0  0  0  0  0  0  0
  142.1740   75.4250  219.3200 C   0  0  0  0  0  0  0  0  0  0  0  0
  143.4570   75.4940  220.0750 C   0  0  0  0  0  0  0  0  0  0  0  0
  144.1470   74.1530  220.0490 C   0  0  2  0  0  0  0  0  0  0  0  0
  145.4370   74.1460  220.8460 C   0  0  0  0  0  0  0  0  0  0  0  0
  146.0390   72.8290  220.3290 C   0  0  0  0  0  0  0  0  0  0  0  0
  145.9230   73.0810  218.8860 N   0  0  0  0  0  0  0  0  0  0  0  0
  144.6450   73.7510  218.6890 C   0  0  0  0  0  0  0  0  0  0  0  0
  141.1800   77.4730  220.1530 C   0  0  0  0  0  0  0  0  0  0  0  0
  141.2500   78.8460  222.2170 C   0  0  0  0  0  0  0  0  0  0  0  0
  142.6060   79.0550  222.3620 C   0  0  0  0  0  0  0  0  0  0  0  0
  143.0230   80.1110  223.1540 C   0  0  0  0  0  0  0  0  0  0  0  0
  142.0730   80.9050  223.7620 C   0  0  0  0  0  0  0  0  0  0  0  0
  140.7120   80.6660  223.5960 C   0  0  0  0  0  0  0  0  0  0  0  0
  140.2910   79.6290  222.8170 C   0  0  0  0  0  0  0  0  0  0  0  0
  137.8092   79.8933  226.0485 H   0  0  0  0  0  0  0  0  0  0  0  0
  137.2309   82.1278  227.8190 H   0  0  0  0  0  0  0  0  0  0  0  0
  136.4767   84.4911  227.8314 H   0  0  0  0  0  0  0  0  0  0  0  0
  135.9579   85.6233  225.6846 H   0  0  0  0  0  0  0  0  0  0  0  0
  136.1824   84.4074  223.5215 H   0  0  0  0  0  0  0  0  0  0  0  0
  136.8750   81.9810  222.4460 H   0  0  0  0  0  0  0  0  0  0  0  0
  138.3629   77.6268  221.1420 H   0  0  0  0  0  0  0  0  0  0  0  0
  139.0217   79.0095  220.3265 H   0  0  0  0  0  0  0  0  0  0  0  0
  141.1312   76.4406  222.9723 H   0  0  0  0  0  0  0  0  0  0  0  0
  139.3948   76.4436  222.6734 H   0  0  0  0  0  0  0  0  0  0  0  0
  141.2998   74.7222  221.5046 H   0  0  0  0  0  0  0  0  0  0  0  0
  139.6191   74.9649  220.9277 H   0  0  0  0  0  0  0  0  0  0  0  0
  141.9170   74.3648  219.1790 H   0  0  0  0  0  0  0  0  0  0  0  0
  142.3429   75.9612  218.3745 H   0  0  0  0  0  0  0  0  0  0  0  0
  144.1108   76.2485  219.6131 H   0  0  0  0  0  0  0  0  0  0  0  0
  143.2459   75.7699  221.1187 H   0  0  0  0  0  0  0  0  0  0  0  0
  143.3642   73.4864  220.4401 H   0  0  0  0  0  0  0  0  0  0  0  0
  146.0731   75.0110  220.6070 H   0  0  0  0  0  0  0  0  0  0  0  0
  145.3166   74.2123  221.9374 H   0  0  0  0  0  0  0  0  0  0  0  0
  147.0853   72.7011  220.6436 H   0  0  0  0  0  0  0  0  0  0  0  0
  145.5547   71.9103  220.6915 H   0  0  0  0  0  0  0  0  0  0  0  0
  146.7190   73.7490  218.6700 H   0  0  0  0  0  0  0  0  0  0  0  0
  144.7784   74.6413  218.0569 H   0  0  0  0  0  0  0  0  0  0  0  0
  143.9259   73.0865  218.1876 H   0  0  0  0  0  0  0  0  0  0  0  0
  142.2401   77.7647  220.1849 H   0  0  0  0  0  0  0  0  0  0  0  0
  140.6923   78.0143  219.3289 H   0  0  0  0  0  0  0  0  0  0  0  0
  143.3355   78.4007  221.8622 H   0  0  0  0  0  0  0  0  0  0  0  0
  144.0948   80.3137  223.2962 H   0  0  0  0  0  0  0  0  0  0  0  0
  142.3983   81.7459  224.3921 H   0  0  0  0  0  0  0  0  0  0  0  0
  139.9755   81.3141  224.0935 H   0  0  0  0  0  0  0  0  0  0  0  0
  1  2  2  0
  2  3  1  0
  3  4  2  0
  4  5  1  0
  5  6  2  0
  6  7  1  0
  7  8  2  0
  8  9  1  0
  9 10  2  0
 10 11  1  0
  2 12  1  0
 12 13  1  0
 14 13  1  6
 14 15  1  0
 15 16  1  0
 16 17  1  0
 17 18  1  0
 18 19  1  0
 19 20  1  0
 20 21  1  0
 21 22  1  0
 22 23  1  0
 23 24  1  0
 17 25  1  0
 14 26  1  0
 26 27  2  0
 27 28  1  0
 28 29  2  0
 29 30  1  0
 30 31  2  0
 11  3  1  0
 31 12  1  0
 10  5  1  0
 25 14  1  0
 31 26  1  0
 24 20  1  0
  4 32  1  0
  6 33  1  0
  7 34  1  0
  8 35  1  0
  9 36  1  0
 11 37  1  0
 13 38  1  0
 13 39  1  0
 15 40  1  0
 15 41  1  0
 16 42  1  0
 16 43  1  0
 18 44  1  0
 18 45  1  0
 19 46  1  0
 19 47  1  0
 20 48  1  1
 21 49  1  0
 21 50  1  0
 22 51  1  0
 22 52  1  0
 23 53  1  0
 24 54  1  0
 24 55  1  0
 25 56  1  0
 25 57  1  0
 27 58  1  0
 28 59  1  0
 29 60  1  0
 30 61  1  0
M  END
