
 70 75  0  0  1  0  0  0  0  0999 V2000
  140.5220   71.6330  224.4630 N   0  0  0  0  0  0  0  0  0  0  0  0
  139.7200   70.5580  223.9410 C   0  0  2  0  0  0  0  0  0  0  0  0
  138.9420   71.0160  222.7330 C   0  0  0  0  0  0  0  0  0  0  0  0
  138.7810   72.4530  222.7080 N   0  0  0  0  0  0  0  0  0  0  0  0
  139.8000   73.2520  222.1230 C   0  0  0  0  0  0  0  0  0  0  0  0
  139.6850   74.6080  222.0150 N   0  0  0  0  0  0  0  0  0  0  0  0
  140.6440   75.3560  221.4650 C   0  0  0  0  0  0  0  0  0  0  0  0
  140.4480   76.7630  221.3900 N   0  0  0  0  0  0  0  0  0  0  0  0
  140.6590   77.4720  220.1420 C   0  0  0  0  0  0  0  0  0  0  0  0
  141.7380   78.5230  220.2920 C   0  0  0  0  0  0  0  0  0  0  0  0
  141.7350   79.1350  221.6370 C   0  0  0  0  0  0  0  0  0  0  0  0
  142.5710   80.2090  221.8490 C   0  0  0  0  0  0  0  0  0  0  0  0
  142.6380   80.8420  223.0650 C   0  0  0  0  0  0  0  0  0  0  0  0
  141.8470   80.4050  224.1280 C   0  0  0  0  0  0  0  0  0  0  0  0
  141.0070   79.3280  223.9220 C   0  0  0  0  0  0  0  0  0  0  0  0
  140.9580   78.7050  222.6840 C   0  0  0  0  0  0  0  0  0  0  0  0
  140.0350   77.5570  222.5320 C   0  0  0  0  0  0  0  0  0  0  0  0
  141.7750   74.8150  220.9870 N   0  0  0  0  0  0  0  0  0  0  0  0
  141.9190   73.4650  221.0810 C   0  0  0  0  0  0  0  0  0  0  0  0
  143.0960   72.8080  220.5950 N   0  0  0  0  0  0  0  0  0  0  0  0
  143.9530   73.4730  219.6130 C   0  0  0  0  0  0  0  0  0  0  0  0
  145.3400   72.8400  219.7880 C   0  0  0  0  0  0  0  0  0  0  0  0
  145.1270   71.4080  219.3690 C   0  0  0  0  0  0  0  0  0  0  0  0
  145.8790   70.8270  218.3690 C   0  0  0  0  0  0  0  0  0  0  0  0
  145.6110   69.5140  218.0560 C   0  0  0  0  0  0  0  0  0  0  0  0
  144.6270   68.8120  218.7200 C   0  0  0  0  0  0  0  0  0  0  0  0
  143.8930   69.4270  219.7170 C   0  0  0  0  0  0  0  0  0  0  0  0
  144.1330   70.7350  220.0550 C   0  0  0  0  0  0  0  0  0  0  0  0
  143.4030   71.4760  221.1030 C   0  0  0  0  0  0  0  0  0  0  0  0
  140.9410   72.7310  221.6380 N   0  0  0  0  0  0  0  0  0  0  0  0
  138.7410   70.0360  224.9730 C   0  0  0  0  0  0  0  0  0  0  0  0
  139.5730   69.4000  226.0390 C   0  0  0  0  0  0  0  0  0  0  0  0
  139.8910   68.0650  225.8570 C   0  0  0  0  0  0  0  0  0  0  0  0
  140.6590   67.3920  226.7950 C   0  0  0  0  0  0  0  0  0  0  0  0
  141.0840   68.1180  227.9070 C   0  0  0  0  0  0  0  0  0  0  0  0
  140.7770   69.4380  228.0990 C   0  0  0  0  0  0  0  0  0  0  0  0
  140.0090   70.0800  227.1440 C   0  0  0  0  0  0  0  0  0  0  0  0
  141.0650   72.1090  223.7030 H   0  0  0  0  0  0  0  0  0  0  0  0
  140.0210   72.2890  225.0910 H   0  0  0  0  0  0  0  0  0  0  0  0
  140.4123   69.7496  223.6631 H   0  0  0  0  0  0  0  0  0  0  0  0
  139.4779   70.7024  221.8250 H   0  0  0  0  0  0  0  0  0  0  0  0
  137.9413   70.5617  222.7798 H   0  0  0  0  0  0  0  0  0  0  0  0
  137.9510   72.9530  223.0970 H   0  0  0  0  0  0  0  0  0  0  0  0
  140.9621   76.7532  219.3665 H   0  0  0  0  0  0  0  0  0  0  0  0
  139.7204   77.9707  219.8588 H   0  0  0  0  0  0  0  0  0  0  0  0
  142.7173   78.0532  220.1183 H   0  0  0  0  0  0  0  0  0  0  0  0
  141.5408   79.3180  219.5578 H   0  0  0  0  0  0  0  0  0  0  0  0
  143.2013   80.5687  221.0223 H   0  0  0  0  0  0  0  0  0  0  0  0
  143.3173   81.6963  223.2019 H   0  0  0  0  0  0  0  0  0  0  0  0
  141.8912   80.9059  225.1063 H   0  0  0  0  0  0  0  0  0  0  0  0
  140.3738   78.9627  224.7440 H   0  0  0  0  0  0  0  0  0  0  0  0
  140.0644   76.9380  223.4408 H   0  0  0  0  0  0  0  0  0  0  0  0
  139.0098   77.9241  222.3765 H   0  0  0  0  0  0  0  0  0  0  0  0
  143.5767   73.3000  218.5939 H   0  0  0  0  0  0  0  0  0  0  0  0
  143.9785   74.5624  219.7633 H   0  0  0  0  0  0  0  0  0  0  0  0
  146.0817   73.3327  219.1421 H   0  0  0  0  0  0  0  0  0  0  0  0
  145.7282   72.9339  220.8129 H   0  0  0  0  0  0  0  0  0  0  0  0
  146.6625   71.3914  217.8422 H   0  0  0  0  0  0  0  0  0  0  0  0
  146.1904   69.0168  217.2641 H   0  0  0  0  0  0  0  0  0  0  0  0
  144.4263   67.7631  218.4564 H   0  0  0  0  0  0  0  0  0  0  0  0
  143.1096   68.8627  220.2441 H   0  0  0  0  0  0  0  0  0  0  0  0
  142.4700   70.9482  221.3498 H   0  0  0  0  0  0  0  0  0  0  0  0
  144.0182   71.5503  222.0118 H   0  0  0  0  0  0  0  0  0  0  0  0
  138.1488   70.8630  225.3918 H   0  0  0  0  0  0  0  0  0  0  0  0
  138.0317   69.3201  224.5322 H   0  0  0  0  0  0  0  0  0  0  0  0
  139.5321   67.5348  224.9625 H   0  0  0  0  0  0  0  0  0  0  0  0
  140.9216   66.3314  226.6674 H   0  0  0  0  0  0  0  0  0  0  0  0
  141.6945   67.6060  228.6654 H   0  0  0  0  0  0  0  0  0  0  0  0
  141.1322   69.9752  228.9908 H   0  0  0  0  0  0  0  0  0  0  0  0
  139.7478   71.1407  227.2732 H   0  0  0  0  0  0  0  0  0  0  0  0
  1  2  1  0
  2  3  1  0
  3  4  1  0
  4  5  1  0
  5  6  2  0
  6  7  1  0
  7  8  1  0
  8  9  1  0
  9 10  1  0
 10 11  1  0
 11 12  2  0
 12 13  1  0
 13 14  2  0
 14 15  1  0
 15 16  2  0
 16 17  1  0
  7 18  2  0
 18 19  1  0
 19 20  1  0
 20 21  1  0
 21 22  1  0
 22 23  1  0
 23 24  2  0
 24 25  1  0
 25 26  2  0
 26 27  1  0
 27 28  2  0
 28 29  1  0
 19 30  2  0
  2 31  1  0
 31 32  1  0
 32 33  2  0
 33 34  1  0
 34 35  2  0
 35 36  1  0
 36 37  2  0
 30  5  1  0
 37 32  1  0
 17  8  1  0
 29 20  1  0
 16 11  1  0
 28 23  1  0
  1 38  1  0
  1 39  1  0
  2 40  1  6
  3 41  1  0
  3 42  1  0
  4 43  1  0
  9 44  1  0
  9 45  1  0
 10 46  1  0
 10 47  1  0
 12 48  1  0
 13 49  1  0
 14 50  1  0
 15 51  1  0
 17 52  1  0
 17 53  1  0
 21 54  1  0
 21 55  1  0
 22 56  1  0
 22 57  1  0
 24 58  1  0
 25 59  1  0
 26 60  1  0
 27 61  1  0
 29 62  1  0
 29 63  1  0
 31 64  1  0
 31 65  1  0
 33 66  1  0
 34 67  1  0
 35 68  1  0
 36 69  1  0
 37 70  1  0
M  END
