@<TRIPOS>MOLECULE
*****
 44 47 0 0 0
SMALL
GASTEIGER

@<TRIPOS>ATOM
      1 C         138.6660   78.7070  223.0690 C.3     1  UNL1       -0.0424
      2 C         139.9880   78.4790  222.2830 C.3     1  UNL1        0.0458
      3 N         140.2930   77.0610  222.2290 N.am    1  UNL1       -0.3047
      4 C         141.1820   76.5220  221.2840 C.2     1  UNL1        0.2481
      5 O         141.7050   77.3670  220.4510 O.2     1  UNL1       -0.2701
      6 C         141.5850   75.1530  221.1310 C.ar    1  UNL1        0.0792
      7 C         142.7400   74.7570  220.4890 C.ar    1  UNL1       -0.0302
      8 C         143.1000   73.4400  220.3550 C.ar    1  UNL1        0.0830
      9 C         140.7900   74.1230  221.6460 C.ar    1  UNL1        0.2675
     10 O         145.0000   73.8740  219.2040 O.2     1  UNL1       -0.2665
     11 N         144.5160   71.6730  219.5720 N.ar    1  UNL1       -0.2676
     12 C         145.6020   71.2440  218.9080 C.ar    1  UNL1        0.0146
     13 C         145.8900   69.9060  218.7600 C.ar    1  UNL1       -0.0450
     14 C         145.0700   68.9390  219.2930 C.ar    1  UNL1       -0.0569
     15 C         143.9480   69.3750  219.9770 C.ar    1  UNL1       -0.0186
     16 C         143.6960   70.7350  220.1010 C.ar    1  UNL1        0.1425
     17 N         142.5660   71.1390  220.7650 N.ar    1  UNL1       -0.2115
     18 C         142.2780   72.4470  220.8860 C.ar    1  UNL1        0.1472
     19 N         141.1480   72.8170  221.5160 N.ar    1  UNL1       -0.3241
     20 C         144.2390   73.0110  219.6900 C.ar    1  UNL1        0.1371
     21 N         139.6710   74.3140  222.2480 N.2     1  UNL1       -0.2829
     22 C         141.0140   79.3450  222.8140 C.ar    1  UNL1       -0.0275
     23 C         140.6370   80.4510  223.5810 C.ar    1  UNL1       -0.0568
     24 C         141.5510   81.3310  224.0800 C.ar    1  UNL1       -0.0614
     25 C         142.9310   81.2060  223.8710 C.ar    1  UNL1       -0.0617
     26 C         143.3060   80.0950  223.1020 C.ar    1  UNL1       -0.0614
     27 C         142.3730   79.2100  222.6020 C.ar    1  UNL1       -0.0568
     28 H         138.8709   78.6717  224.1492 H       1  UNL1        0.0251
     29 H         138.2486   79.6904  222.8070 H       1  UNL1        0.0251
     30 H         137.9433   77.9202  222.8070 H       1  UNL1        0.0251
     31 H         139.8989   78.7704  221.2261 H       1  UNL1        0.0545
     32 H         139.8410   76.3920  222.9130 H       1  UNL1        0.1496
     33 H         143.3998   75.5294  220.0670 H       1  UNL1        0.0635
     34 H         146.2839   71.9865  218.4679 H       1  UNL1        0.0814
     35 H         146.7914   69.6051  218.2059 H       1  UNL1        0.0632
     36 H         145.2953   67.8682  219.1810 H       1  UNL1        0.0619
     37 H         143.2565   68.6444  220.4220 H       1  UNL1        0.0654
     38 H         140.5270   72.0610  221.9270 H       1  UNL1        0.1688
     39 H         139.3620   73.7620  223.0460 H       1  UNL1        0.1883
     40 H         139.5695   80.6166  223.7885 H       1  UNL1        0.0621
     41 H         141.1873   82.1810  224.6760 H       1  UNL1        0.0618
     42 H         143.6610   81.9215  224.2773 H       1  UNL1        0.0618
     43 H         144.3722   79.9245  222.8918 H       1  UNL1        0.0618
     44 H         142.7278   78.3561  222.0062 H       1  UNL1        0.0621
@<TRIPOS>BOND
     1     1     2    1
     2     2     3    1
     3     3     4   am
     4     4     5    2
     5     4     6    1
     6     6     7   ar
     7     7     8   ar
     8     8     9   ar
     9     9    10    2
    10     9    11   ar
    11    11    12   ar
    12    12    13   ar
    13    13    14   ar
    14    14    15   ar
    15    15    16   ar
    16    16    17   ar
    17    17    18   ar
    18    18    19   ar
    19    19    20   ar
    20    20    21    2
    21     2    22    1
    22    22    23   ar
    23    23    24   ar
    24    24    25   ar
    25    25    26   ar
    26    26    27   ar
    27    20     6   ar
    28    27    22   ar
    29    18     8   ar
    30    16    11   ar
    31     1    28    1
    32     1    29    1
    33     1    30    1
    34     2    31    1
    35     3    32    1
    36     7    33    1
    37    12    34    1
    38    13    35    1
    39    14    36    1
    40    15    37    1
    41    19    38    1
    42    21    39    1
    43    23    40    1
    44    24    41    1
    45    25    42    1
    46    26    43    1
    47    27    44    1
