
 64 68  0  0  0  0  0  0  0  0999 V2000
  140.5330   71.8090  221.1600 O   0  0  0  0  0  0  0  0  0  0  0  0
  140.0580   72.2700  222.2370 C   0  0  0  0  0  0  0  0  0  0  0  0
  139.6000   73.6230  222.2870 N   0  0  0  0  0  0  0  0  0  0  0  0
  139.7160   74.3960  221.0670 C   0  0  0  0  0  0  0  0  0  0  0  0
  140.7850   75.4110  221.2360 C   0  0  0  0  0  0  0  0  0  0  0  0
  141.0250   76.0020  222.3180 O   0  0  0  0  0  0  0  0  0  0  0  0
  141.6020   75.7510  220.1240 N   0  0  0  0  0  0  0  0  0  0  0  0
  141.8500   74.9640  218.9200 C   0  0  0  0  0  0  0  0  0  0  0  0
  143.2440   75.3750  218.5260 C   0  0  2  0  0  0  0  0  0  0  0  0
  144.0420   74.2330  218.5600 O   0  0  0  0  0  0  0  0  0  0  0  0
  143.6930   76.3780  219.5850 C   0  0  0  0  0  0  0  0  0  0  0  0
  142.3830   77.0230  219.9730 C   0  0  1  0  0  0  0  0  0  0  0  0
  141.7670   77.7610  218.8480 C   0  0  0  0  0  0  0  0  0  0  0  0
  140.9940   78.9230  219.1030 N   0  0  0  0  0  0  0  0  0  0  0  0
  141.9230   80.0120  219.3820 C   0  0  0  0  0  0  0  0  0  0  0  0
  141.4360   80.7260  220.5990 C   0  0  0  0  0  0  0  0  0  0  0  0
  139.9760   80.3400  220.6110 C   0  0  2  0  0  0  0  0  0  0  0  0
  139.3370   80.5310  221.9120 C   0  0  0  0  0  0  0  0  0  0  0  0
  139.6940   79.6720  222.9490 C   0  0  0  0  0  0  0  0  0  0  0  0
  139.1230   79.8020  224.2010 C   0  0  0  0  0  0  0  0  0  0  0  0
  138.1940   80.8050  224.3860 C   0  0  0  0  0  0  0  0  0  0  0  0
  137.8430   81.6520  223.3670 C   0  0  0  0  0  0  0  0  0  0  0  0
  138.4180   81.5150  222.1190 C   0  0  0  0  0  0  0  0  0  0  0  0
  140.0860   78.8610  220.2040 C   0  0  0  0  0  0  0  0  0  0  0  0
  139.9720   71.4220  223.4390 C   0  0  0  0  0  0  0  0  0  0  0  0
  139.4370   70.1580  223.3160 C   0  0  0  0  0  0  0  0  0  0  0  0
  139.3440   69.3430  224.4240 C   0  0  0  0  0  0  0  0  0  0  0  0
  139.7950   69.8240  225.6400 C   0  0  0  0  0  0  0  0  0  0  0  0
  139.6920   68.9880  226.7390 C   0  0  0  0  0  0  0  0  0  0  0  0
  140.1570   69.5110  227.9450 C   0  0  0  0  0  0  0  0  0  0  0  0
  140.1070   68.7870  229.0840 F   0  0  0  0  0  0  0  0  0  0  0  0
  140.6820   70.7850  228.0050 C   0  0  0  0  0  0  0  0  0  0  0  0
  140.7660   71.5870  226.8750 C   0  0  0  0  0  0  0  0  0  0  0  0
  140.3130   71.0860  225.6900 C   0  0  0  0  0  0  0  0  0  0  0  0
  140.4080   71.8940  224.6030 N   0  0  0  0  0  0  0  0  0  0  0  0
  139.2100   73.9910  223.1770 H   0  0  0  0  0  0  0  0  0  0  0  0
  139.9706   73.7284  220.2306 H   0  0  0  0  0  0  0  0  0  0  0  0
  138.7601   74.8963  220.8526 H   0  0  0  0  0  0  0  0  0  0  0  0
  141.8019   73.8864  219.1355 H   0  0  0  0  0  0  0  0  0  0  0  0
  141.1070   75.1388  218.1279 H   0  0  0  0  0  0  0  0  0  0  0  0
  143.3044   75.8208  217.5222 H   0  0  0  0  0  0  0  0  0  0  0  0
  144.9670   74.5240  218.3340 H   0  0  0  0  0  0  0  0  0  0  0  0
  144.1605   75.8726  220.4430 H   0  0  0  0  0  0  0  0  0  0  0  0
  144.4531   77.0900  219.2311 H   0  0  0  0  0  0  0  0  0  0  0  0
  142.4468   77.7327  220.8110 H   0  0  0  0  0  0  0  0  0  0  0  0
  142.5866   78.0646  218.1801 H   0  0  0  0  0  0  0  0  0  0  0  0
  141.0299   77.0481  218.4501 H   0  0  0  0  0  0  0  0  0  0  0  0
  142.9299   79.6079  219.5630 H   0  0  0  0  0  0  0  0  0  0  0  0
  141.9749   80.7017  218.5266 H   0  0  0  0  0  0  0  0  0  0  0  0
  141.9520   80.3743  221.5046 H   0  0  0  0  0  0  0  0  0  0  0  0
  141.6126   81.8116  220.5826 H   0  0  0  0  0  0  0  0  0  0  0  0
  139.3378   80.9509  219.9557 H   0  0  0  0  0  0  0  0  0  0  0  0
  140.4381   78.8820  222.7696 H   0  0  0  0  0  0  0  0  0  0  0  0
  139.4006   79.1270  225.0240 H   0  0  0  0  0  0  0  0  0  0  0  0
  137.7245   80.9278  225.3732 H   0  0  0  0  0  0  0  0  0  0  0  0
  137.1004   82.4439  223.5441 H   0  0  0  0  0  0  0  0  0  0  0  0
  138.1368   82.1936  221.3002 H   0  0  0  0  0  0  0  0  0  0  0  0
  140.4925   78.2501  221.0235 H   0  0  0  0  0  0  0  0  0  0  0  0
  139.1203   78.3959  219.9569 H   0  0  0  0  0  0  0  0  0  0  0  0
  139.0853   69.8005  222.3370 H   0  0  0  0  0  0  0  0  0  0  0  0
  138.9200   68.3313  224.3428 H   0  0  0  0  0  0  0  0  0  0  0  0
  139.2699   67.9749  226.6653 H   0  0  0  0  0  0  0  0  0  0  0  0
  141.0419   71.1739  228.9690 H   0  0  0  0  0  0  0  0  0  0  0  0
  141.1874   72.6014  226.9338 H   0  0  0  0  0  0  0  0  0  0  0  0
  1  2  2  0
  2  3  1  0
  3  4  1  0
  4  5  1  0
  5  6  2  0
  5  7  1  0
  7  8  1  0
  8  9  1  0
  9 10  1  0
  9 11  1  0
 11 12  1  0
 12 13  1  0
 13 14  1  0
 14 15  1  0
 15 16  1  0
 16 17  1  0
 17 18  1  0
 18 19  2  0
 19 20  1  0
 20 21  2  0
 21 22  1  0
 22 23  2  0
 17 24  1  0
  2 25  1  0
 25 26  2  0
 26 27  1  0
 27 28  2  0
 28 29  1  0
 29 30  2  0
 30 31  1  0
 30 32  1  0
 32 33  2  0
 33 34  1  0
 34 35  2  0
 12  7  1  0
 24 14  1  0
 35 25  1  0
 23 18  1  0
 34 28  1  0
  3 36  1  0
  4 37  1  0
  4 38  1  0
  8 39  1  0
  8 40  1  0
  9 41  1  6
 10 42  1  0
 11 43  1  0
 11 44  1  0
 12 45  1  1
 13 46  1  0
 13 47  1  0
 15 48  1  0
 15 49  1  0
 16 50  1  0
 16 51  1  0
 17 52  1  6
 19 53  1  0
 20 54  1  0
 21 55  1  0
 22 56  1  0
 23 57  1  0
 24 58  1  0
 24 59  1  0
 26 60  1  0
 27 61  1  0
 29 62  1  0
 32 63  1  0
 33 64  1  0
M  END
