
 67 73  0  0  0  0  0  0  0  0999 V2000
  146.6780   70.3100  218.9090 O   0  0  0  0  0  0  0  0  0  0  0  0
  145.5870   71.0080  219.4080 C   0  0  0  0  0  0  0  0  0  0  0  0
  145.6840   72.3780  219.5830 C   0  0  0  0  0  0  0  0  0  0  0  0
  144.6220   73.0820  220.0730 C   0  0  0  0  0  0  0  0  0  0  0  0
  143.4710   72.4150  220.3840 C   0  0  0  0  0  0  0  0  0  0  0  0
  142.3340   73.1550  220.9050 C   0  0  0  0  0  0  0  0  0  0  0  0
  141.3240   72.4880  221.5200 N   0  0  0  0  0  0  0  0  0  0  0  0
  140.2710   73.1700  222.0040 C   0  0  0  0  0  0  0  0  0  0  0  0
  139.2430   72.4180  222.6390 N   0  0  0  0  0  0  0  0  0  0  0  0
  139.6090   71.5020  223.6940 C   0  0  0  0  0  0  0  0  0  0  0  0
  138.7190   70.2940  223.8050 C   0  0  0  0  0  0  0  0  0  0  0  0
  137.3900   70.5320  223.2670 N   0  0  0  0  0  0  0  0  0  0  0  0
  136.1960   70.1740  223.9470 C   0  0  0  0  0  0  0  0  0  0  0  0
  135.6970   68.8890  223.9210 C   0  0  0  0  0  0  0  0  0  0  0  0
  134.5220   68.5400  224.6020 C   0  0  0  0  0  0  0  0  0  0  0  0
  133.8170   69.4740  225.3280 C   0  0  0  0  0  0  0  0  0  0  0  0
  132.6590   69.4430  226.0850 C   0  0  0  0  0  0  0  0  0  0  0  0
  132.5070   70.7390  226.5460 C   0  0  0  0  0  0  0  0  0  0  0  0
  133.4850   71.4940  226.1080 O   0  0  0  0  0  0  0  0  0  0  0  0
  134.3090   70.7620  225.3600 C   0  0  0  0  0  0  0  0  0  0  0  0
  135.4840   71.1030  224.6770 C   0  0  0  0  0  0  0  0  0  0  0  0
  137.3660   71.1730  221.9440 C   0  0  0  0  0  0  0  0  0  0  0  0
  137.8420   72.5850  222.2150 C   0  0  0  0  0  0  0  0  0  0  0  0
  140.2180   74.5080  221.8790 N   0  0  0  0  0  0  0  0  0  0  0  0
  141.2210   75.2000  221.2640 C   0  0  0  0  0  0  0  0  0  0  0  0
  141.1640   76.6260  221.1310 N   0  0  0  0  0  0  0  0  0  0  0  0
  141.9340   77.2510  220.0980 C   0  0  0  0  0  0  0  0  0  0  0  0
  141.7890   78.7630  220.1970 C   0  0  0  0  0  0  0  0  0  0  0  0
  141.8630   79.2050  221.6020 C   0  0  0  0  0  0  0  0  0  0  0  0
  142.6450   80.2930  221.9820 C   0  0  0  0  0  0  0  0  0  0  0  0
  142.6930   80.6850  223.3060 C   0  0  0  0  0  0  0  0  0  0  0  0
  141.9510   79.9650  224.2040 C   0  0  0  0  0  0  0  0  0  0  0  0
  141.1680   78.8890  223.8720 C   0  0  0  0  0  0  0  0  0  0  0  0
  141.1330   78.5140  222.5460 C   0  0  0  0  0  0  0  0  0  0  0  0
  140.3240   77.3650  222.0560 C   0  0  0  0  0  0  0  0  0  0  0  0
  142.2570   74.4950  220.7920 N   0  0  0  0  0  0  0  0  0  0  0  0
  143.3280   71.0480  220.2250 C   0  0  0  0  0  0  0  0  0  0  0  0
  144.4030   70.3410  219.7300 C   0  0  0  0  0  0  0  0  0  0  0  0
  144.3600   68.9560  219.5330 O   0  0  0  0  0  0  0  0  0  0  0  0
  146.6350   69.3220  218.6670 H   0  0  0  0  0  0  0  0  0  0  0  0
  146.6179   72.8998  219.3269 H   0  0  0  0  0  0  0  0  0  0  0  0
  144.6920   74.1705  220.2154 H   0  0  0  0  0  0  0  0  0  0  0  0
  140.6366   71.1563  223.5083 H   0  0  0  0  0  0  0  0  0  0  0  0
  139.5068   72.0551  224.6393 H   0  0  0  0  0  0  0  0  0  0  0  0
  139.1806   69.4634  223.2509 H   0  0  0  0  0  0  0  0  0  0  0  0
  138.6099   70.0555  224.8733 H   0  0  0  0  0  0  0  0  0  0  0  0
  136.2349   68.1172  223.3510 H   0  0  0  0  0  0  0  0  0  0  0  0
  134.1574   67.5032  224.5556 H   0  0  0  0  0  0  0  0  0  0  0  0
  132.0047   68.5800  226.2775 H   0  0  0  0  0  0  0  0  0  0  0  0
  131.6837   71.0858  227.1878 H   0  0  0  0  0  0  0  0  0  0  0  0
  135.8486   72.1397  224.7242 H   0  0  0  0  0  0  0  0  0  0  0  0
  138.0440   70.6583  221.2473 H   0  0  0  0  0  0  0  0  0  0  0  0
  136.3710   71.1431  221.4760 H   0  0  0  0  0  0  0  0  0  0  0  0
  137.7804   73.1991  221.3045 H   0  0  0  0  0  0  0  0  0  0  0  0
  137.2306   73.0981  222.9719 H   0  0  0  0  0  0  0  0  0  0  0  0
  142.9929   76.9764  220.2137 H   0  0  0  0  0  0  0  0  0  0  0  0
  141.5710   76.9127  219.1163 H   0  0  0  0  0  0  0  0  0  0  0  0
  142.5981   79.2411  219.6254 H   0  0  0  0  0  0  0  0  0  0  0  0
  140.8094   79.0509  219.7878 H   0  0  0  0  0  0  0  0  0  0  0  0
  143.2260   80.8417  221.2260 H   0  0  0  0  0  0  0  0  0  0  0  0
  143.3035   81.5421  223.6263 H   0  0  0  0  0  0  0  0  0  0  0  0
  141.9852   80.2695  225.2605 H   0  0  0  0  0  0  0  0  0  0  0  0
  140.5902   78.3462  224.6345 H   0  0  0  0  0  0  0  0  0  0  0  0
  140.0308   76.7214  222.8985 H   0  0  0  0  0  0  0  0  0  0  0  0
  139.4035   77.7115  221.5634 H   0  0  0  0  0  0  0  0  0  0  0  0
  142.3868   70.5416  220.4852 H   0  0  0  0  0  0  0  0  0  0  0  0
  145.1920   68.5190  219.1270 H   0  0  0  0  0  0  0  0  0  0  0  0
  1  2  1  0
  2  3  2  0
  3  4  1  0
  4  5  2  0
  5  6  1  0
  6  7  2  0
  7  8  1  0
  8  9  1  0
  9 10  1  0
 10 11  1  0
 11 12  1  0
 12 13  1  0
 13 14  2  0
 14 15  1  0
 15 16  2  0
 16 17  1  0
 17 18  2  0
 18 19  1  0
 19 20  1  0
 20 21  2  0
 12 22  1  0
 22 23  1  0
  8 24  2  0
 24 25  1  0
 25 26  1  0
 26 27  1  0
 27 28  1  0
 28 29  1  0
 29 30  2  0
 30 31  1  0
 31 32  2  0
 32 33  1  0
 33 34  2  0
 34 35  1  0
 25 36  2  0
  5 37  1  0
 37 38  2  0
 38 39  1  0
 38  2  1  0
 36  6  1  0
 23  9  1  0
 35 26  1  0
 21 13  1  0
 34 29  1  0
 20 16  1  0
  1 40  1  0
  3 41  1  0
  4 42  1  0
 10 43  1  0
 10 44  1  0
 11 45  1  0
 11 46  1  0
 14 47  1  0
 15 48  1  0
 17 49  1  0
 18 50  1  0
 21 51  1  0
 22 52  1  0
 22 53  1  0
 23 54  1  0
 23 55  1  0
 27 56  1  0
 27 57  1  0
 28 58  1  0
 28 59  1  0
 30 60  1  0
 31 61  1  0
 32 62  1  0
 33 63  1  0
 35 64  1  0
 35 65  1  0
 37 66  1  0
 39 67  1  0
M  END
