
     RDKit          3D

 65 70  0  0  0  0  0  0  0  0999 V2000
  146.1880   70.2750  217.9810 N   0  0  0  0  0  0  0  0  0  0  0  0
  145.5950   70.7290  219.2220 C   0  0  1  0  0  0  0  0  0  0  0  0
  145.5790   72.2440  219.2900 C   0  0  0  0  0  0  0  0  0  0  0  0
  144.6450   72.5860  220.4480 C   0  0  0  0  0  0  0  0  0  0  0  0
  143.2380   72.3840  219.8870 C   0  0  2  0  0  0  0  0  0  0  0  0
  142.1850   72.6930  220.8690 C   0  0  0  0  0  0  0  0  0  0  0  0
  141.6950   73.9380  220.9320 N   0  0  0  0  0  0  0  0  0  0  0  0
  140.7410   74.3300  221.7790 C   0  0  0  0  0  0  0  0  0  0  0  0
  140.2380   75.6620  221.8230 N   0  0  0  0  0  0  0  0  0  0  0  0
  138.9780   76.0530  221.2290 C   0  0  0  0  0  0  0  0  0  0  0  0
  138.3010   77.1080  222.0860 C   0  0  0  0  0  0  0  0  0  0  0  0
  139.1980   78.2890  222.1280 C   0  0  0  0  0  0  0  0  0  0  0  0
  138.7800   79.5810  221.9780 C   0  0  0  0  0  0  0  0  0  0  0  0
  139.6850   80.6400  222.0300 C   0  0  0  0  0  0  0  0  0  0  0  0
  141.0300   80.4000  222.2360 C   0  0  0  0  0  0  0  0  0  0  0  0
  141.4520   79.0920  222.3880 C   0  0  0  0  0  0  0  0  0  0  0  0
  140.5540   78.0250  222.3370 C   0  0  0  0  0  0  0  0  0  0  0  0
  141.0520   76.6550  222.5050 C   0  0  0  0  0  0  0  0  0  0  0  0
  140.2430   73.3890  222.6320 N   0  0  0  0  0  0  0  0  0  0  0  0
  140.7240   72.1270  222.5850 C   0  0  0  0  0  0  0  0  0  0  0  0
  140.1880   71.1630  223.4870 N   0  0  0  0  0  0  0  0  0  0  0  0
  139.4960   70.0330  222.8980 C   0  0  0  0  0  0  0  0  0  0  0  0
  138.8640   69.1080  223.8650 C   0  0  0  0  0  0  0  0  0  0  0  0
  139.4640   69.0320  225.1930 C   0  0  0  0  0  0  0  0  0  0  0  0
  139.3190   67.8800  225.9500 C   0  0  0  0  0  0  0  0  0  0  0  0
  139.8790   67.7800  227.2170 C   0  0  0  0  0  0  0  0  0  0  0  0
  140.5910   68.8570  227.7150 C   0  0  0  0  0  0  0  0  0  0  0  0
  140.7250   69.9980  226.9440 C   0  0  0  0  0  0  0  0  0  0  0  0
  140.1710   70.1030  225.6860 C   0  0  0  0  0  0  0  0  0  0  0  0
  140.3480   71.3390  224.9190 C   0  0  0  0  0  0  0  0  0  0  0  0
  141.6840   71.7850  221.7130 N   0  0  0  0  0  0  0  0  0  0  0  0
  143.0930   71.0510  219.2150 C   0  0  0  0  0  0  0  0  0  0  0  0
  144.2510   70.1230  219.4860 C   0  0  0  0  0  0  0  0  0  0  0  0
  146.9900   69.6200  218.2230 H   0  0  0  0  0  0  0  0  0  0  0  0
  145.4970   69.6790  217.4750 H   0  0  0  0  0  0  0  0  0  0  0  0
  146.2361   70.3677  220.0396 H   0  0  0  0  0  0  0  0  0  0  0  0
  145.1975   72.6678  218.3493 H   0  0  0  0  0  0  0  0  0  0  0  0
  146.5869   72.6582  219.4403 H   0  0  0  0  0  0  0  0  0  0  0  0
  144.7890   73.6288  220.7670 H   0  0  0  0  0  0  0  0  0  0  0  0
  144.8334   71.9597  221.3324 H   0  0  0  0  0  0  0  0  0  0  0  0
  143.0898   73.1276  219.0901 H   0  0  0  0  0  0  0  0  0  0  0  0
  139.1611   76.4629  220.2248 H   0  0  0  0  0  0  0  0  0  0  0  0
  138.3238   75.1713  221.1605 H   0  0  0  0  0  0  0  0  0  0  0  0
  137.3330   77.3868  221.6441 H   0  0  0  0  0  0  0  0  0  0  0  0
  138.1166   76.7244  223.1003 H   0  0  0  0  0  0  0  0  0  0  0  0
  137.7124   79.7889  221.8136 H   0  0  0  0  0  0  0  0  0  0  0  0
  139.3263   81.6725  221.9063 H   0  0  0  0  0  0  0  0  0  0  0  0
  141.7493   81.2312  222.2781 H   0  0  0  0  0  0  0  0  0  0  0  0
  142.5202   78.8878  222.5529 H   0  0  0  0  0  0  0  0  0  0  0  0
  142.0751   76.6033  222.1043 H   0  0  0  0  0  0  0  0  0  0  0  0
  141.0170   76.4240  223.5799 H   0  0  0  0  0  0  0  0  0  0  0  0
  138.7090   70.4232  222.2360 H   0  0  0  0  0  0  0  0  0  0  0  0
  140.2626   69.4465  222.3705 H   0  0  0  0  0  0  0  0  0  0  0  0
  137.8173   69.4222  223.9905 H   0  0  0  0  0  0  0  0  0  0  0  0
  138.9963   68.1054  223.4322 H   0  0  0  0  0  0  0  0  0  0  0  0
  138.7513   67.0314  225.5407 H   0  0  0  0  0  0  0  0  0  0  0  0
  139.7590   66.8631  227.8127 H   0  0  0  0  0  0  0  0  0  0  0  0
  141.0464   68.8064  228.7150 H   0  0  0  0  0  0  0  0  0  0  0  0
  141.2923   70.8494  227.3481 H   0  0  0  0  0  0  0  0  0  0  0  0
  139.6041   72.0720  225.2644 H   0  0  0  0  0  0  0  0  0  0  0  0
  141.3805   71.6785  225.0886 H   0  0  0  0  0  0  0  0  0  0  0  0
  143.0202   71.2123  218.1293 H   0  0  0  0  0  0  0  0  0  0  0  0
  142.1888   70.5749  219.6221 H   0  0  0  0  0  0  0  0  0  0  0  0
  144.1401   69.2359  218.8450 H   0  0  0  0  0  0  0  0  0  0  0  0
  144.2180   69.8793  220.5581 H   0  0  0  0  0  0  0  0  0  0  0  0
  1  2  1  0
  2  3  1  0
  3  4  1  0
  4  5  1  0
  5  6  1  0
  6  7  2  0
  7  8  1  0
  8  9  1  0
  9 10  1  0
 10 11  1  0
 11 12  1  0
 12 13  2  0
 13 14  1  0
 14 15  2  0
 15 16  1  0
 16 17  2  0
 17 18  1  0
  8 19  2  0
 19 20  1  0
 20 21  1  0
 21 22  1  0
 22 23  1  0
 23 24  1  0
 24 25  2  0
 25 26  1  0
 26 27  2  0
 27 28  1  0
 28 29  2  0
 29 30  1  0
 20 31  2  0
  5 32  1  0
 32 33  1  0
 33  2  1  0
 31  6  1  0
 18  9  1  0
 30 21  1  0
 17 12  1  0
 29 24  1  0
  1 34  1  0
  1 35  1  0
  2 36  1  1
  3 37  1  0
  3 38  1  0
  4 39  1  0
  4 40  1  0
  5 41  1  6
 10 42  1  0
 10 43  1  0
 11 44  1  0
 11 45  1  0
 13 46  1  0
 14 47  1  0
 15 48  1  0
 16 49  1  0
 18 50  1  0
 18 51  1  0
 22 52  1  0
 22 53  1  0
 23 54  1  0
 23 55  1  0
 25 56  1  0
 26 57  1  0
 27 58  1  0
 28 59  1  0
 30 60  1  0
 30 61  1  0
 32 62  1  0
 32 63  1  0
 33 64  1  0
 33 65  1  0
M  END
>  <smiles>  (1) 
N[C@H]1CC[C@H](c2nc(N3CCc4ccccc4C3)nc(N3CCc4ccccc4C3)n2)CC1

>  <score_type>  (1) 
oracle

>  <origin>  (1) 
autodockgpu

>  <m_score__min__energy>  (1) 
-9.5800000000000001

>  <m_primary>  (1) 
energy

>  <rmsd>  (1) 
4.533177511539306

>  <m_score__min__rmsd>  (1) 
4.533177511539306

>  <meeko>  (1) 
{"free_energy": -9.44, "intermolecular_energy": -10.63, "internal_energy": -0.92, "cluster_size": 50, "cluster_id": 1, "rank_in_cluster": 34}

>  <energy>  (1) 
-9.58

>  <cluster_rmsd>  (1) 
0.0

>  <cluster>  (1) 
1

$$$$

     RDKit          3D

 65 70  0  0  0  0  0  0  0  0999 V2000
  146.2470   73.0640  217.6120 N   0  0  0  0  0  0  0  0  0  0  0  0
  145.1790   73.7300  218.3280 C   0  0  1  0  0  0  0  0  0  0  0  0
  143.8390   73.4630  217.6700 C   0  0  0  0  0  0  0  0  0  0  0  0
  142.7930   73.9160  218.6870 C   0  0  0  0  0  0  0  0  0  0  0  0
  142.7470   72.7960  219.7250 C   0  0  2  0  0  0  0  0  0  0  0  0
  141.7630   73.0480  220.7900 C   0  0  0  0  0  0  0  0  0  0  0  0
  141.2820   74.2870  220.9570 N   0  0  0  0  0  0  0  0  0  0  0  0
  140.3890   74.6300  221.8870 C   0  0  0  0  0  0  0  0  0  0  0  0
  139.8940   75.9570  222.0390 N   0  0  0  0  0  0  0  0  0  0  0  0
  138.5870   76.3730  221.5770 C   0  0  0  0  0  0  0  0  0  0  0  0
  137.9880   77.3830  222.5390 C   0  0  0  0  0  0  0  0  0  0  0  0
  138.8880   78.5630  222.5620 C   0  0  0  0  0  0  0  0  0  0  0  0
  138.4610   79.8590  222.5120 C   0  0  0  0  0  0  0  0  0  0  0  0
  139.3690   80.9180  222.5380 C   0  0  0  0  0  0  0  0  0  0  0  0
  140.7260   80.6710  222.6150 C   0  0  0  0  0  0  0  0  0  0  0  0
  141.1580   79.3580  222.6650 C   0  0  0  0  0  0  0  0  0  0  0  0
  140.2560   78.2920  222.6400 C   0  0  0  0  0  0  0  0  0  0  0  0
  140.7650   76.9180  222.6960 C   0  0  0  0  0  0  0  0  0  0  0  0
  139.9460   73.6430  222.7180 N   0  0  0  0  0  0  0  0  0  0  0  0
  140.4200   72.3850  222.5670 C   0  0  0  0  0  0  0  0  0  0  0  0
  139.9430   71.3710  223.4470 N   0  0  0  0  0  0  0  0  0  0  0  0
  139.1830   70.2910  222.8480 C   0  0  0  0  0  0  0  0  0  0  0  0
  138.6160   69.3140  223.8040 C   0  0  0  0  0  0  0  0  0  0  0  0
  139.3240   69.1430  225.0680 C   0  0  0  0  0  0  0  0  0  0  0  0
  139.2210   67.9460  225.7590 C   0  0  0  0  0  0  0  0  0  0  0  0
  139.8830   67.7550  226.9660 C   0  0  0  0  0  0  0  0  0  0  0  0
  140.6550   68.7880  227.4700 C   0  0  0  0  0  0  0  0  0  0  0  0
  140.7460   69.9750  226.7650 C   0  0  0  0  0  0  0  0  0  0  0  0
  140.0900   70.1700  225.5670 C   0  0  0  0  0  0  0  0  0  0  0  0
  140.2260   71.4510  224.8690 C   0  0  0  0  0  0  0  0  0  0  0  0
  141.3170   72.0940  221.6150 N   0  0  0  0  0  0  0  0  0  0  0  0
  144.1190   72.4340  220.2150 C   0  0  0  0  0  0  0  0  0  0  0  0
  145.1760   73.4240  219.7950 C   0  0  0  0  0  0  0  0  0  0  0  0
  145.8610   72.7440  216.6740 H   0  0  0  0  0  0  0  0  0  0  0  0
  146.9830   73.7650  217.3750 H   0  0  0  0  0  0  0  0  0  0  0  0
  145.3696   74.8114  218.2629 H   0  0  0  0  0  0  0  0  0  0  0  0
  143.7242   72.3912  217.4507 H   0  0  0  0  0  0  0  0  0  0  0  0
  143.7385   73.9963  216.7132 H   0  0  0  0  0  0  0  0  0  0  0  0
  141.8117   74.0383  218.2052 H   0  0  0  0  0  0  0  0  0  0  0  0
  143.0444   74.8882  219.1361 H   0  0  0  0  0  0  0  0  0  0  0  0
  142.3720   71.8933  219.2206 H   0  0  0  0  0  0  0  0  0  0  0  0
  138.6824   76.8315  220.5817 H   0  0  0  0  0  0  0  0  0  0  0  0
  137.9284   75.4936  221.5238 H   0  0  0  0  0  0  0  0  0  0  0  0
  136.9863   77.6809  222.1956 H   0  0  0  0  0  0  0  0  0  0  0  0
  137.8903   76.9498  223.5454 H   0  0  0  0  0  0  0  0  0  0  0  0
  137.3835   80.0716  222.4502 H   0  0  0  0  0  0  0  0  0  0  0  0
  139.0027   81.9544  222.4970 H   0  0  0  0  0  0  0  0  0  0  0  0
  141.4477   81.5009  222.6361 H   0  0  0  0  0  0  0  0  0  0  0  0
  142.2362   79.1487  222.7258 H   0  0  0  0  0  0  0  0  0  0  0  0
  141.7494   76.8897  222.2059 H   0  0  0  0  0  0  0  0  0  0  0  0
  140.8232   76.6341  223.7571 H   0  0  0  0  0  0  0  0  0  0  0  0
  138.3512   70.7340  222.2806 H   0  0  0  0  0  0  0  0  0  0  0  0
  139.8920   69.7294  222.2219 H   0  0  0  0  0  0  0  0  0  0  0  0
  137.5901   69.6345  224.0380 H   0  0  0  0  0  0  0  0  0  0  0  0
  138.6909   68.3400  223.2983 H   0  0  0  0  0  0  0  0  0  0  0  0
  138.6052   67.1338  225.3453 H   0  0  0  0  0  0  0  0  0  0  0  0
  139.7954   66.8028  227.5097 H   0  0  0  0  0  0  0  0  0  0  0  0
  141.1913   68.6660  228.4226 H   0  0  0  0  0  0  0  0  0  0  0  0
  141.3617   70.7901  227.1731 H   0  0  0  0  0  0  0  0  0  0  0  0
  139.5280   72.1700  225.3226 H   0  0  0  0  0  0  0  0  0  0  0  0
  141.2753   71.7647  224.9720 H   0  0  0  0  0  0  0  0  0  0  0  0
  144.3852   71.4455  219.8126 H   0  0  0  0  0  0  0  0  0  0  0  0
  144.0861   72.4351  221.3145 H   0  0  0  0  0  0  0  0  0  0  0  0
  146.1604   73.0135  220.0643 H   0  0  0  0  0  0  0  0  0  0  0  0
  144.9522   74.3670  220.3154 H   0  0  0  0  0  0  0  0  0  0  0  0
  1  2  1  0
  2  3  1  0
  3  4  1  0
  4  5  1  0
  5  6  1  0
  6  7  2  0
  7  8  1  0
  8  9  1  0
  9 10  1  0
 10 11  1  0
 11 12  1  0
 12 13  2  0
 13 14  1  0
 14 15  2  0
 15 16  1  0
 16 17  2  0
 17 18  1  0
  8 19  2  0
 19 20  1  0
 20 21  1  0
 21 22  1  0
 22 23  1  0
 23 24  1  0
 24 25  2  0
 25 26  1  0
 26 27  2  0
 27 28  1  0
 28 29  2  0
 29 30  1  0
 20 31  2  0
  5 32  1  0
 32 33  1  0
 33  2  1  0
 31  6  1  0
 18  9  1  0
 30 21  1  0
 17 12  1  0
 29 24  1  0
  1 34  1  0
  1 35  1  0
  2 36  1  1
  3 37  1  0
  3 38  1  0
  4 39  1  0
  4 40  1  0
  5 41  1  6
 10 42  1  0
 10 43  1  0
 11 44  1  0
 11 45  1  0
 13 46  1  0
 14 47  1  0
 15 48  1  0
 16 49  1  0
 18 50  1  0
 18 51  1  0
 22 52  1  0
 22 53  1  0
 23 54  1  0
 23 55  1  0
 25 56  1  0
 26 57  1  0
 27 58  1  0
 28 59  1  0
 30 60  1  0
 30 61  1  0
 32 62  1  0
 32 63  1  0
 33 64  1  0
 33 65  1  0
M  END
>  <smiles>  (2) 
N[C@H]1CC[C@H](c2nc(N3CCc4ccccc4C3)nc(N3CCc4ccccc4C3)n2)CC1

>  <score_type>  (2) 
oracle

>  <origin>  (2) 
autodockgpu

>  <m_score__min__energy>  (2) 
-9.5800000000000001

>  <m_primary>  (2) 
energy

>  <rmsd>  (2) 
4.8475152340163445

>  <m_score__min__rmsd>  (2) 
4.8475152340163445

>  <meeko>  (2) 
{"free_energy": -9.54, "intermolecular_energy": -10.73, "internal_energy": -0.93, "cluster_size": 50, "cluster_id": 1, "rank_in_cluster": 9}

>  <energy>  (2) 
-9.58

>  <cluster_rmsd>  (2) 
1.17

>  <cluster>  (2) 
1

$$$$

     RDKit          3D

 65 70  0  0  0  0  0  0  0  0999 V2000
  146.3300   70.0790  217.9310 N   0  0  0  0  0  0  0  0  0  0  0  0
  145.6960   70.5250  219.1540 C   0  0  1  0  0  0  0  0  0  0  0  0
  145.8810   72.0180  219.3450 C   0  0  0  0  0  0  0  0  0  0  0  0
  144.9020   72.4080  220.4500 C   0  0  0  0  0  0  0  0  0  0  0  0
  143.5370   72.4480  219.7670 C   0  0  2  0  0  0  0  0  0  0  0  0
  142.4520   72.8340  220.6850 C   0  0  0  0  0  0  0  0  0  0  0  0
  142.0360   74.1060  220.7060 N   0  0  0  0  0  0  0  0  0  0  0  0
  141.0630   74.5680  221.4940 C   0  0  0  0  0  0  0  0  0  0  0  0
  140.6400   75.9290  221.4950 N   0  0  0  0  0  0  0  0  0  0  0  0
  139.8100   76.5000  220.4570 C   0  0  0  0  0  0  0  0  0  0  0  0
  138.8490   77.5120  221.0530 C   0  0  0  0  0  0  0  0  0  0  0  0
  139.6620   78.5920  221.6660 C   0  0  0  0  0  0  0  0  0  0  0  0
  139.4040   79.9250  221.5290 C   0  0  0  0  0  0  0  0  0  0  0  0
  140.2160   80.8820  222.1370 C   0  0  0  0  0  0  0  0  0  0  0  0
  141.3050   80.4940  222.8940 C   0  0  0  0  0  0  0  0  0  0  0  0
  141.5660   79.1430  223.0330 C   0  0  0  0  0  0  0  0  0  0  0  0
  140.7590   78.1780  222.4280 C   0  0  0  0  0  0  0  0  0  0  0  0
  141.0790   76.7580  222.6060 C   0  0  0  0  0  0  0  0  0  0  0  0
  140.4620   73.6720  222.3300 N   0  0  0  0  0  0  0  0  0  0  0  0
  140.8680   72.3820  222.3240 C   0  0  0  0  0  0  0  0  0  0  0  0
  140.2250   71.4650  223.2050 N   0  0  0  0  0  0  0  0  0  0  0  0
  139.2850   70.5370  222.6090 C   0  0  0  0  0  0  0  0  0  0  0  0
  138.5610   69.6710  223.5670 C   0  0  0  0  0  0  0  0  0  0  0  0
  139.2350   69.3760  224.8270 C   0  0  0  0  0  0  0  0  0  0  0  0
  138.9270   68.2150  225.5170 C   0  0  0  0  0  0  0  0  0  0  0  0
  139.5530   67.9080  226.7190 C   0  0  0  0  0  0  0  0  0  0  0  0
  140.4960   68.7880  227.2200 C   0  0  0  0  0  0  0  0  0  0  0  0
  140.7890   69.9430  226.5160 C   0  0  0  0  0  0  0  0  0  0  0  0
  140.1720   70.2520  225.3230 C   0  0  0  0  0  0  0  0  0  0  0  0
  140.5260   71.4910  224.6250 C   0  0  0  0  0  0  0  0  0  0  0  0
  141.8510   71.9700  221.5100 N   0  0  0  0  0  0  0  0  0  0  0  0
  143.2720   71.1990  218.9780 C   0  0  0  0  0  0  0  0  0  0  0  0
  144.2630   70.0990  219.2620 C   0  0  0  0  0  0  0  0  0  0  0  0
  147.0890   69.3810  218.1920 H   0  0  0  0  0  0  0  0  0  0  0  0
  145.6390   69.5300  217.3740 H   0  0  0  0  0  0  0  0  0  0  0  0
  146.2064   70.0196  219.9871 H   0  0  0  0  0  0  0  0  0  0  0  0
  145.6470   72.5572  218.4152 H   0  0  0  0  0  0  0  0  0  0  0  0
  146.9184   72.2720  219.6082 H   0  0  0  0  0  0  0  0  0  0  0  0
  145.1574   73.3949  220.8632 H   0  0  0  0  0  0  0  0  0  0  0  0
  144.9238   71.7007  221.2922 H   0  0  0  0  0  0  0  0  0  0  0  0
  143.5633   73.2597  219.0251 H   0  0  0  0  0  0  0  0  0  0  0  0
  140.4492   76.9994  219.7141 H   0  0  0  0  0  0  0  0  0  0  0  0
  139.2329   75.6966  219.9758 H   0  0  0  0  0  0  0  0  0  0  0  0
  138.2051   77.9282  220.2642 H   0  0  0  0  0  0  0  0  0  0  0  0
  138.2044   77.0368  221.8071 H   0  0  0  0  0  0  0  0  0  0  0  0
  138.5412   80.2501  220.9290 H   0  0  0  0  0  0  0  0  0  0  0  0
  139.9885   81.9511  222.0133 H   0  0  0  0  0  0  0  0  0  0  0  0
  141.9503   81.2434  223.3756 H   0  0  0  0  0  0  0  0  0  0  0  0
  142.4293   78.8215  223.6341 H   0  0  0  0  0  0  0  0  0  0  0  0
  142.1693   76.6555  222.7094 H   0  0  0  0  0  0  0  0  0  0  0  0
  140.5449   76.4122  223.5033 H   0  0  0  0  0  0  0  0  0  0  0  0
  138.5403   71.1204  222.0476 H   0  0  0  0  0  0  0  0  0  0  0  0
  139.8812   69.8619  221.9774 H   0  0  0  0  0  0  0  0  0  0  0  0
  137.6079   70.1648  223.8072 H   0  0  0  0  0  0  0  0  0  0  0  0
  138.4624   68.7001  223.0594 H   0  0  0  0  0  0  0  0  0  0  0  0
  138.1748   67.5250  225.1068 H   0  0  0  0  0  0  0  0  0  0  0  0
  139.3039   66.9840  227.2613 H   0  0  0  0  0  0  0  0  0  0  0  0
  141.0081   68.5716  228.1692 H   0  0  0  0  0  0  0  0  0  0  0  0
  141.5392   70.6374  226.9221 H   0  0  0  0  0  0  0  0  0  0  0  0
  139.9674   72.3202  225.0837 H   0  0  0  0  0  0  0  0  0  0  0  0
  141.6146   71.6156  224.7215 H   0  0  0  0  0  0  0  0  0  0  0  0
  143.3192   71.4449  217.9069 H   0  0  0  0  0  0  0  0  0  0  0  0
  142.2785   70.8296  219.2722 H   0  0  0  0  0  0  0  0  0  0  0  0
  144.0897   69.2838  218.5441 H   0  0  0  0  0  0  0  0  0  0  0  0
  144.1018   69.7875  220.3046 H   0  0  0  0  0  0  0  0  0  0  0  0
  1  2  1  0
  2  3  1  0
  3  4  1  0
  4  5  1  0
  5  6  1  0
  6  7  2  0
  7  8  1  0
  8  9  1  0
  9 10  1  0
 10 11  1  0
 11 12  1  0
 12 13  2  0
 13 14  1  0
 14 15  2  0
 15 16  1  0
 16 17  2  0
 17 18  1  0
  8 19  2  0
 19 20  1  0
 20 21  1  0
 21 22  1  0
 22 23  1  0
 23 24  1  0
 24 25  2  0
 25 26  1  0
 26 27  2  0
 27 28  1  0
 28 29  2  0
 29 30  1  0
 20 31  2  0
  5 32  1  0
 32 33  1  0
 33  2  1  0
 31  6  1  0
 18  9  1  0
 30 21  1  0
 17 12  1  0
 29 24  1  0
  1 34  1  0
  1 35  1  0
  2 36  1  1
  3 37  1  0
  3 38  1  0
  4 39  1  0
  4 40  1  0
  5 41  1  6
 10 42  1  0
 10 43  1  0
 11 44  1  0
 11 45  1  0
 13 46  1  0
 14 47  1  0
 15 48  1  0
 16 49  1  0
 18 50  1  0
 18 51  1  0
 22 52  1  0
 22 53  1  0
 23 54  1  0
 23 55  1  0
 25 56  1  0
 26 57  1  0
 27 58  1  0
 28 59  1  0
 30 60  1  0
 30 61  1  0
 32 62  1  0
 32 63  1  0
 33 64  1  0
 33 65  1  0
M  END
>  <smiles>  (3) 
N[C@H]1CC[C@H](c2nc(N3CCc4ccccc4C3)nc(N3CCc4ccccc4C3)n2)CC1

>  <score_type>  (3) 
oracle

>  <origin>  (3) 
autodockgpu

>  <m_score__min__energy>  (3) 
-9.5800000000000001

>  <m_primary>  (3) 
energy

>  <rmsd>  (3) 
4.5149328418475205

>  <m_score__min__rmsd>  (3) 
4.5149328418475205

>  <meeko>  (3) 
{"free_energy": -9.39, "intermolecular_energy": -10.58, "internal_energy": -0.92, "cluster_size": 50, "cluster_id": 1, "rank_in_cluster": 40}

>  <energy>  (3) 
-9.57

>  <cluster_rmsd>  (3) 
1.18

>  <cluster>  (3) 
1

$$$$

     RDKit          3D

 65 70  0  0  0  0  0  0  0  0999 V2000
  146.2240   69.8890  217.8890 N   0  0  0  0  0  0  0  0  0  0  0  0
  145.7200   70.6060  219.0410 C   0  0  1  0  0  0  0  0  0  0  0  0
  145.5620   72.0830  218.7320 C   0  0  0  0  0  0  0  0  0  0  0  0
  144.7220   72.6470  219.8750 C   0  0  0  0  0  0  0  0  0  0  0  0
  143.2920   72.2100  219.5620 C   0  0  2  0  0  0  0  0  0  0  0  0
  142.3190   72.6890  220.5580 C   0  0  0  0  0  0  0  0  0  0  0  0
  142.0020   73.9890  220.5900 N   0  0  0  0  0  0  0  0  0  0  0  0
  141.1350   74.5330  221.4460 C   0  0  0  0  0  0  0  0  0  0  0  0
  140.8160   75.9210  221.4560 N   0  0  0  0  0  0  0  0  0  0  0  0
  140.2800   76.6180  220.3060 C   0  0  0  0  0  0  0  0  0  0  0  0
  139.2790   77.6690  220.7510 C   0  0  0  0  0  0  0  0  0  0  0  0
  140.0050   78.6410  221.6060 C   0  0  0  0  0  0  0  0  0  0  0  0
  139.8740   79.9970  221.5140 C   0  0  0  0  0  0  0  0  0  0  0  0
  140.5920   80.8480  222.3550 C   0  0  0  0  0  0  0  0  0  0  0  0
  141.4550   80.3290  223.3020 C   0  0  0  0  0  0  0  0  0  0  0  0
  141.5870   78.9550  223.3930 C   0  0  0  0  0  0  0  0  0  0  0  0
  140.8730   78.0960  222.5560 C   0  0  0  0  0  0  0  0  0  0  0  0
  141.0480   76.6460  222.6940 C   0  0  0  0  0  0  0  0  0  0  0  0
  140.5420   73.6960  222.3460 N   0  0  0  0  0  0  0  0  0  0  0  0
  140.8500   72.3790  222.3310 C   0  0  0  0  0  0  0  0  0  0  0  0
  140.2180   71.5250  223.2810 N   0  0  0  0  0  0  0  0  0  0  0  0
  139.1150   70.7170  222.7990 C   0  0  0  0  0  0  0  0  0  0  0  0
  138.4170   69.9210  223.8340 C   0  0  0  0  0  0  0  0  0  0  0  0
  139.1990   69.5320  225.0030 C   0  0  0  0  0  0  0  0  0  0  0  0
  138.8470   68.4010  225.7220 C   0  0  0  0  0  0  0  0  0  0  0  0
  139.5730   68.0060  226.8390 C   0  0  0  0  0  0  0  0  0  0  0  0
  140.6610   68.7680  227.2260 C   0  0  0  0  0  0  0  0  0  0  0  0
  140.9970   69.8940  226.4960 C   0  0  0  0  0  0  0  0  0  0  0  0
  140.2800   70.2900  225.3860 C   0  0  0  0  0  0  0  0  0  0  0  0
  140.6860   71.4930  224.6550 C   0  0  0  0  0  0  0  0  0  0  0  0
  141.7280   71.8840  221.4480 N   0  0  0  0  0  0  0  0  0  0  0  0
  143.2110   70.7410  219.2660 C   0  0  0  0  0  0  0  0  0  0  0  0
  144.4760   69.9980  219.6130 C   0  0  0  0  0  0  0  0  0  0  0  0
  147.0680   69.3220  218.2010 H   0  0  0  0  0  0  0  0  0  0  0  0
  145.5160   69.1790  217.5970 H   0  0  0  0  0  0  0  0  0  0  0  0
  146.4746   70.5130  219.8360 H   0  0  0  0  0  0  0  0  0  0  0  0
  145.0467   72.2223  217.7702 H   0  0  0  0  0  0  0  0  0  0  0  0
  146.5344   72.5905  218.6490 H   0  0  0  0  0  0  0  0  0  0  0  0
  144.7942   73.7443  219.9039 H   0  0  0  0  0  0  0  0  0  0  0  0
  145.0610   72.2850  220.8568 H   0  0  0  0  0  0  0  0  0  0  0  0
  142.9906   72.7107  218.6301 H   0  0  0  0  0  0  0  0  0  0  0  0
  141.1016   77.1060  219.7612 H   0  0  0  0  0  0  0  0  0  0  0  0
  139.7736   75.8940  219.6508 H   0  0  0  0  0  0  0  0  0  0  0  0
  138.8574   78.1817  219.8738 H   0  0  0  0  0  0  0  0  0  0  0  0
  138.4512   77.2053  221.3076 H   0  0  0  0  0  0  0  0  0  0  0  0
  139.1916   80.4253  220.7651 H   0  0  0  0  0  0  0  0  0  0  0  0
  140.4707   81.9375  222.2639 H   0  0  0  0  0  0  0  0  0  0  0  0
  142.0241   80.9938  223.9684 H   0  0  0  0  0  0  0  0  0  0  0  0
  142.2706   78.5295  224.1424 H   0  0  0  0  0  0  0  0  0  0  0  0
  142.0775   76.4483  223.0273 H   0  0  0  0  0  0  0  0  0  0  0  0
  140.3030   76.2947  223.4231 H   0  0  0  0  0  0  0  0  0  0  0  0
  138.3793   71.3889  222.3328 H   0  0  0  0  0  0  0  0  0  0  0  0
  139.5523   69.9903  222.0985 H   0  0  0  0  0  0  0  0  0  0  0  0
  137.5608   70.5137  224.1885 H   0  0  0  0  0  0  0  0  0  0  0  0
  138.1498   68.9758  223.3388 H   0  0  0  0  0  0  0  0  0  0  0  0
  137.9785   67.8060  225.4032 H   0  0  0  0  0  0  0  0  0  0  0  0
  139.2886   67.1060  227.4039 H   0  0  0  0  0  0  0  0  0  0  0  0
  141.2540   68.4809  228.1069 H   0  0  0  0  0  0  0  0  0  0  0  0
  141.8641   70.4931  226.8109 H   0  0  0  0  0  0  0  0  0  0  0  0
  140.2828   72.3714  225.1801 H   0  0  0  0  0  0  0  0  0  0  0  0
  141.7855   71.4936  224.6209 H   0  0  0  0  0  0  0  0  0  0  0  0
  143.0116   70.6106  218.1921 H   0  0  0  0  0  0  0  0  0  0  0  0
  142.4047   70.3247  219.8877 H   0  0  0  0  0  0  0  0  0  0  0  0
  144.3878   68.9697  219.2325 H   0  0  0  0  0  0  0  0  0  0  0  0
  144.5776   70.0393  220.7075 H   0  0  0  0  0  0  0  0  0  0  0  0
  1  2  1  0
  2  3  1  0
  3  4  1  0
  4  5  1  0
  5  6  1  0
  6  7  2  0
  7  8  1  0
  8  9  1  0
  9 10  1  0
 10 11  1  0
 11 12  1  0
 12 13  2  0
 13 14  1  0
 14 15  2  0
 15 16  1  0
 16 17  2  0
 17 18  1  0
  8 19  2  0
 19 20  1  0
 20 21  1  0
 21 22  1  0
 22 23  1  0
 23 24  1  0
 24 25  2  0
 25 26  1  0
 26 27  2  0
 27 28  1  0
 28 29  2  0
 29 30  1  0
 20 31  2  0
  5 32  1  0
 32 33  1  0
 33  2  1  0
 31  6  1  0
 18  9  1  0
 30 21  1  0
 17 12  1  0
 29 24  1  0
  1 34  1  0
  1 35  1  0
  2 36  1  1
  3 37  1  0
  3 38  1  0
  4 39  1  0
  4 40  1  0
  5 41  1  6
 10 42  1  0
 10 43  1  0
 11 44  1  0
 11 45  1  0
 13 46  1  0
 14 47  1  0
 15 48  1  0
 16 49  1  0
 18 50  1  0
 18 51  1  0
 22 52  1  0
 22 53  1  0
 23 54  1  0
 23 55  1  0
 25 56  1  0
 26 57  1  0
 27 58  1  0
 28 59  1  0
 30 60  1  0
 30 61  1  0
 32 62  1  0
 32 63  1  0
 33 64  1  0
 33 65  1  0
M  END
>  <smiles>  (4) 
N[C@H]1CC[C@H](c2nc(N3CCc4ccccc4C3)nc(N3CCc4ccccc4C3)n2)CC1

>  <score_type>  (4) 
oracle

>  <origin>  (4) 
autodockgpu

>  <m_score__min__energy>  (4) 
-9.5800000000000001

>  <m_primary>  (4) 
energy

>  <rmsd>  (4) 
4.625390630246804

>  <m_score__min__rmsd>  (4) 
4.625390630246804

>  <meeko>  (4) 
{"free_energy": -9.48, "intermolecular_energy": -10.68, "internal_energy": -0.92, "cluster_size": 50, "cluster_id": 1, "rank_in_cluster": 26}

>  <energy>  (4) 
-9.57

>  <cluster_rmsd>  (4) 
1.17

>  <cluster>  (4) 
1

$$$$

     RDKit          3D

 65 70  0  0  0  0  0  0  0  0999 V2000
  146.1540   72.7780  217.4180 N   0  0  0  0  0  0  0  0  0  0  0  0
  145.0540   73.4590  218.0680 C   0  0  1  0  0  0  0  0  0  0  0  0
  143.7230   72.9900  217.5110 C   0  0  0  0  0  0  0  0  0  0  0  0
  142.6720   73.5090  218.4890 C   0  0  0  0  0  0  0  0  0  0  0  0
  142.7480   72.5600  219.6830 C   0  0  2  0  0  0  0  0  0  0  0  0
  141.7750   72.8930  220.7380 C   0  0  0  0  0  0  0  0  0  0  0  0
  141.4150   71.9490  221.6170 N   0  0  0  0  0  0  0  0  0  0  0  0
  140.5450   72.1370  222.6110 C   0  0  0  0  0  0  0  0  0  0  0  0
  140.1820   71.1130  223.5320 N   0  0  0  0  0  0  0  0  0  0  0  0
  138.9690   70.3340  223.4110 C   0  0  0  0  0  0  0  0  0  0  0  0
  139.2200   68.9040  223.8570 C   0  0  0  0  0  0  0  0  0  0  0  0
  139.6220   68.9470  225.2850 C   0  0  0  0  0  0  0  0  0  0  0  0
  139.1460   68.1030  226.2470 C   0  0  0  0  0  0  0  0  0  0  0  0
  139.5730   68.2060  227.5700 C   0  0  0  0  0  0  0  0  0  0  0  0
  140.4920   69.1720  227.9340 C   0  0  0  0  0  0  0  0  0  0  0  0
  140.9740   70.0260  226.9600 C   0  0  0  0  0  0  0  0  0  0  0  0
  140.5520   69.9310  225.6320 C   0  0  0  0  0  0  0  0  0  0  0  0
  141.0940   70.8620  224.6360 C   0  0  0  0  0  0  0  0  0  0  0  0
  139.9930   73.3800  222.7260 N   0  0  0  0  0  0  0  0  0  0  0  0
  140.3420   74.3470  221.8490 C   0  0  0  0  0  0  0  0  0  0  0  0
  139.7510   75.6360  221.9890 N   0  0  0  0  0  0  0  0  0  0  0  0
  138.3210   75.6750  222.2240 C   0  0  0  0  0  0  0  0  0  0  0  0
  137.7260   77.0300  222.2610 C   0  0  0  0  0  0  0  0  0  0  0  0
  138.6010   78.1230  222.6740 C   0  0  0  0  0  0  0  0  0  0  0  0
  138.0570   79.2620  223.2440 C   0  0  0  0  0  0  0  0  0  0  0  0
  138.8650   80.3180  223.6470 C   0  0  0  0  0  0  0  0  0  0  0  0
  140.2330   80.2120  223.4690 C   0  0  0  0  0  0  0  0  0  0  0  0
  140.7580   79.0650  222.8980 C   0  0  0  0  0  0  0  0  0  0  0  0
  139.9600   78.0140  222.4960 C   0  0  0  0  0  0  0  0  0  0  0  0
  140.5750   76.8270  221.8980 C   0  0  0  0  0  0  0  0  0  0  0  0
  141.2230   74.1050  220.8670 N   0  0  0  0  0  0  0  0  0  0  0  0
  144.1570   72.3860  220.1680 C   0  0  0  0  0  0  0  0  0  0  0  0
  145.1170   73.3800  219.5630 C   0  0  0  0  0  0  0  0  0  0  0  0
  145.7540   72.1950  216.6230 H   0  0  0  0  0  0  0  0  0  0  0  0
  146.7620   73.4870  216.9520 H   0  0  0  0  0  0  0  0  0  0  0  0
  145.1511   74.5295  217.8343 H   0  0  0  0  0  0  0  0  0  0  0  0
  143.6924   71.8916  217.4595 H   0  0  0  0  0  0  0  0  0  0  0  0
  143.5519   73.3613  216.4898 H   0  0  0  0  0  0  0  0  0  0  0  0
  141.6710   73.4797  218.0338 H   0  0  0  0  0  0  0  0  0  0  0  0
  142.8537   74.5548  218.7775 H   0  0  0  0  0  0  0  0  0  0  0  0
  142.4365   71.5649  219.3327 H   0  0  0  0  0  0  0  0  0  0  0  0
  138.1860   70.7797  224.0420 H   0  0  0  0  0  0  0  0  0  0  0  0
  138.6462   70.3316  222.3594 H   0  0  0  0  0  0  0  0  0  0  0  0
  138.3024   68.3083  223.7428 H   0  0  0  0  0  0  0  0  0  0  0  0
  140.0083   68.4400  223.2460 H   0  0  0  0  0  0  0  0  0  0  0  0
  138.4136   67.3291  225.9736 H   0  0  0  0  0  0  0  0  0  0  0  0
  139.1764   67.5148  228.3283 H   0  0  0  0  0  0  0  0  0  0  0  0
  140.8325   69.2593  228.9763 H   0  0  0  0  0  0  0  0  0  0  0  0
  141.7068   70.7982  227.2371 H   0  0  0  0  0  0  0  0  0  0  0  0
  141.3124   71.8184  225.1336 H   0  0  0  0  0  0  0  0  0  0  0  0
  141.9989   70.4000  224.2144 H   0  0  0  0  0  0  0  0  0  0  0  0
  137.8283   75.1086  221.4200 H   0  0  0  0  0  0  0  0  0  0  0  0
  138.1637   75.2447  223.2240 H   0  0  0  0  0  0  0  0  0  0  0  0
  137.3606   77.2605  221.2494 H   0  0  0  0  0  0  0  0  0  0  0  0
  136.9446   76.9798  223.0336 H   0  0  0  0  0  0  0  0  0  0  0  0
  136.9677   79.3317  223.3799 H   0  0  0  0  0  0  0  0  0  0  0  0
  138.4260   81.2200  224.0984 H   0  0  0  0  0  0  0  0  0  0  0  0
  140.8978   81.0319  223.7784 H   0  0  0  0  0  0  0  0  0  0  0  0
  141.8467   78.9894  222.7605 H   0  0  0  0  0  0  0  0  0  0  0  0
  140.7698   77.0345  220.8354 H   0  0  0  0  0  0  0  0  0  0  0  0
  141.4977   76.6240  222.4613 H   0  0  0  0  0  0  0  0  0  0  0  0
  144.4938   71.3714  219.9089 H   0  0  0  0  0  0  0  0  0  0  0  0
  144.1531   72.5530  221.2552 H   0  0  0  0  0  0  0  0  0  0  0  0
  146.1390   73.0926  219.8510 H   0  0  0  0  0  0  0  0  0  0  0  0
  144.8307   74.3708  219.9455 H   0  0  0  0  0  0  0  0  0  0  0  0
  1  2  1  0
  2  3  1  0
  3  4  1  0
  4  5  1  0
  5  6  1  0
  6  7  2  0
  7  8  1  0
  8  9  1  0
  9 10  1  0
 10 11  1  0
 11 12  1  0
 12 13  2  0
 13 14  1  0
 14 15  2  0
 15 16  1  0
 16 17  2  0
 17 18  1  0
  8 19  2  0
 19 20  1  0
 20 21  1  0
 21 22  1  0
 22 23  1  0
 23 24  1  0
 24 25  2  0
 25 26  1  0
 26 27  2  0
 27 28  1  0
 28 29  2  0
 29 30  1  0
 20 31  2  0
  5 32  1  0
 32 33  1  0
 33  2  1  0
 31  6  1  0
 18  9  1  0
 30 21  1  0
 17 12  1  0
 29 24  1  0
  1 34  1  0
  1 35  1  0
  2 36  1  1
  3 37  1  0
  3 38  1  0
  4 39  1  0
  4 40  1  0
  5 41  1  6
 10 42  1  0
 10 43  1  0
 11 44  1  0
 11 45  1  0
 13 46  1  0
 14 47  1  0
 15 48  1  0
 16 49  1  0
 18 50  1  0
 18 51  1  0
 22 52  1  0
 22 53  1  0
 23 54  1  0
 23 55  1  0
 25 56  1  0
 26 57  1  0
 27 58  1  0
 28 59  1  0
 30 60  1  0
 30 61  1  0
 32 62  1  0
 32 63  1  0
 33 64  1  0
 33 65  1  0
M  END
>  <smiles>  (5) 
N[C@H]1CC[C@H](c2nc(N3CCc4ccccc4C3)nc(N3CCc4ccccc4C3)n2)CC1

>  <score_type>  (5) 
oracle

>  <origin>  (5) 
autodockgpu

>  <m_score__min__energy>  (5) 
-9.5800000000000001

>  <m_primary>  (5) 
energy

>  <rmsd>  (5) 
11.363955867460861

>  <m_score__min__rmsd>  (5) 
11.363955867460861

>  <meeko>  (5) 
{"free_energy": -9.38, "intermolecular_energy": -10.57, "internal_energy": -0.93, "cluster_size": 50, "cluster_id": 1, "rank_in_cluster": 41}

>  <energy>  (5) 
-9.57

>  <cluster_rmsd>  (5) 
1.19

>  <cluster>  (5) 
1

$$$$

     RDKit          3D

 65 70  0  0  0  0  0  0  0  0999 V2000
  146.2950   73.0350  217.6510 N   0  0  0  0  0  0  0  0  0  0  0  0
  145.2010   73.6800  218.3460 C   0  0  1  0  0  0  0  0  0  0  0  0
  143.8740   73.3510  217.6880 C   0  0  0  0  0  0  0  0  0  0  0  0
  142.8080   73.7900  218.6880 C   0  0  0  0  0  0  0  0  0  0  0  0
  142.7950   72.6950  219.7520 C   0  0  2  0  0  0  0  0  0  0  0  0
  141.7970   72.9370  220.8070 C   0  0  0  0  0  0  0  0  0  0  0  0
  141.3170   74.1750  220.9810 N   0  0  0  0  0  0  0  0  0  0  0  0
  140.4110   74.5100  221.9020 C   0  0  0  0  0  0  0  0  0  0  0  0
  139.9180   75.8370  222.0630 N   0  0  0  0  0  0  0  0  0  0  0  0
  138.5760   76.2330  221.6920 C   0  0  0  0  0  0  0  0  0  0  0  0
  138.0430   77.2590  222.6760 C   0  0  0  0  0  0  0  0  0  0  0  0
  138.9320   78.4470  222.6040 C   0  0  0  0  0  0  0  0  0  0  0  0
  138.4900   79.7380  222.5580 C   0  0  0  0  0  0  0  0  0  0  0  0
  139.3890   80.8030  222.4920 C   0  0  0  0  0  0  0  0  0  0  0  0
  140.7500   80.5670  222.4710 C   0  0  0  0  0  0  0  0  0  0  0  0
  141.1960   79.2600  222.5160 C   0  0  0  0  0  0  0  0  0  0  0  0
  140.3040   78.1870  222.5830 C   0  0  0  0  0  0  0  0  0  0  0  0
  140.8280   76.8170  222.6300 C   0  0  0  0  0  0  0  0  0  0  0  0
  139.9540   73.5140  222.7150 N   0  0  0  0  0  0  0  0  0  0  0  0
  140.4260   72.2570  222.5560 C   0  0  0  0  0  0  0  0  0  0  0  0
  139.9340   71.2340  223.4180 N   0  0  0  0  0  0  0  0  0  0  0  0
  139.2510   70.1220  222.7870 C   0  0  0  0  0  0  0  0  0  0  0  0
  138.6630   69.1330  223.7180 C   0  0  0  0  0  0  0  0  0  0  0  0
  139.3000   68.9990  225.0240 C   0  0  0  0  0  0  0  0  0  0  0  0
  139.1980   67.8060  225.7210 C   0  0  0  0  0  0  0  0  0  0  0  0
  139.7940   67.6500  226.9660 C   0  0  0  0  0  0  0  0  0  0  0  0
  140.4960   68.7140  227.5040 C   0  0  0  0  0  0  0  0  0  0  0  0
  140.5860   69.8980  226.7930 C   0  0  0  0  0  0  0  0  0  0  0  0
  139.9970   70.0580  225.5560 C   0  0  0  0  0  0  0  0  0  0  0  0
  140.1290   71.3370  224.8530 C   0  0  0  0  0  0  0  0  0  0  0  0
  141.3370   71.9740  221.6130 N   0  0  0  0  0  0  0  0  0  0  0  0
  144.1760   72.3930  220.2580 C   0  0  0  0  0  0  0  0  0  0  0  0
  145.2000   73.4090  219.8200 C   0  0  0  0  0  0  0  0  0  0  0  0
  145.9630   72.7950  216.6690 H   0  0  0  0  0  0  0  0  0  0  0  0
  147.0630   73.7290  217.5140 H   0  0  0  0  0  0  0  0  0  0  0  0
  145.3550   74.7655  218.2562 H   0  0  0  0  0  0  0  0  0  0  0  0
  143.7979   72.2711  217.4932 H   0  0  0  0  0  0  0  0  0  0  0  0
  143.7603   73.8584  216.7187 H   0  0  0  0  0  0  0  0  0  0  0  0
  141.8258   73.8661  218.1986 H   0  0  0  0  0  0  0  0  0  0  0  0
  143.0229   74.7807  219.1151 H   0  0  0  0  0  0  0  0  0  0  0  0
  142.4541   71.7687  219.2664 H   0  0  0  0  0  0  0  0  0  0  0  0
  138.5919   76.6708  220.6830 H   0  0  0  0  0  0  0  0  0  0  0  0
  137.9230   75.3479  221.7062 H   0  0  0  0  0  0  0  0  0  0  0  0
  137.0151   77.5416  222.4047 H   0  0  0  0  0  0  0  0  0  0  0  0
  138.0267   76.8472  223.6959 H   0  0  0  0  0  0  0  0  0  0  0  0
  137.4091   79.9415  222.5732 H   0  0  0  0  0  0  0  0  0  0  0  0
  139.0121   81.8358  222.4565 H   0  0  0  0  0  0  0  0  0  0  0  0
  141.4639   81.4023  222.4195 H   0  0  0  0  0  0  0  0  0  0  0  0
  142.2775   79.0600  222.4987 H   0  0  0  0  0  0  0  0  0  0  0  0
  141.7723   76.7843  222.0668 H   0  0  0  0  0  0  0  0  0  0  0  0
  140.9698   76.5572  223.6894 H   0  0  0  0  0  0  0  0  0  0  0  0
  138.4394   70.5293  222.1661 H   0  0  0  0  0  0  0  0  0  0  0  0
  140.0162   69.5812  222.2108 H   0  0  0  0  0  0  0  0  0  0  0  0
  137.6140   69.4178  223.8870 H   0  0  0  0  0  0  0  0  0  0  0  0
  138.8028   68.1581  223.2282 H   0  0  0  0  0  0  0  0  0  0  0  0
  138.6360   66.9688  225.2814 H   0  0  0  0  0  0  0  0  0  0  0  0
  139.7095   66.6995  227.5132 H   0  0  0  0  0  0  0  0  0  0  0  0
  140.9783   68.6197  228.4881 H   0  0  0  0  0  0  0  0  0  0  0  0
  141.1455   70.7389  227.2286 H   0  0  0  0  0  0  0  0  0  0  0  0
  139.3803   72.0346  225.2566 H   0  0  0  0  0  0  0  0  0  0  0  0
  141.1585   71.6892  225.0143 H   0  0  0  0  0  0  0  0  0  0  0  0
  144.4791   71.4051  219.8809 H   0  0  0  0  0  0  0  0  0  0  0  0
  144.1364   72.4190  221.3570 H   0  0  0  0  0  0  0  0  0  0  0  0
  146.1965   73.0398  220.1041 H   0  0  0  0  0  0  0  0  0  0  0  0
  144.9404   74.3556  220.3165 H   0  0  0  0  0  0  0  0  0  0  0  0
  1  2  1  0
  2  3  1  0
  3  4  1  0
  4  5  1  0
  5  6  1  0
  6  7  2  0
  7  8  1  0
  8  9  1  0
  9 10  1  0
 10 11  1  0
 11 12  1  0
 12 13  2  0
 13 14  1  0
 14 15  2  0
 15 16  1  0
 16 17  2  0
 17 18  1  0
  8 19  2  0
 19 20  1  0
 20 21  1  0
 21 22  1  0
 22 23  1  0
 23 24  1  0
 24 25  2  0
 25 26  1  0
 26 27  2  0
 27 28  1  0
 28 29  2  0
 29 30  1  0
 20 31  2  0
  5 32  1  0
 32 33  1  0
 33  2  1  0
 31  6  1  0
 18  9  1  0
 30 21  1  0
 17 12  1  0
 29 24  1  0
  1 34  1  0
  1 35  1  0
  2 36  1  1
  3 37  1  0
  3 38  1  0
  4 39  1  0
  4 40  1  0
  5 41  1  6
 10 42  1  0
 10 43  1  0
 11 44  1  0
 11 45  1  0
 13 46  1  0
 14 47  1  0
 15 48  1  0
 16 49  1  0
 18 50  1  0
 18 51  1  0
 22 52  1  0
 22 53  1  0
 23 54  1  0
 23 55  1  0
 25 56  1  0
 26 57  1  0
 27 58  1  0
 28 59  1  0
 30 60  1  0
 30 61  1  0
 32 62  1  0
 32 63  1  0
 33 64  1  0
 33 65  1  0
M  END
>  <smiles>  (6) 
N[C@H]1CC[C@H](c2nc(N3CCc4ccccc4C3)nc(N3CCc4ccccc4C3)n2)CC1

>  <score_type>  (6) 
oracle

>  <origin>  (6) 
autodockgpu

>  <m_score__min__energy>  (6) 
-9.5800000000000001

>  <m_primary>  (6) 
energy

>  <rmsd>  (6) 
4.82341669732788

>  <m_score__min__rmsd>  (6) 
4.82341669732788

>  <meeko>  (6) 
{"free_energy": -9.5, "intermolecular_energy": -10.69, "internal_energy": -0.94, "cluster_size": 50, "cluster_id": 1, "rank_in_cluster": 22}

>  <energy>  (6) 
-9.57

>  <cluster_rmsd>  (6) 
1.17

>  <cluster>  (6) 
1

$$$$

     RDKit          3D

 65 70  0  0  0  0  0  0  0  0999 V2000
  146.3150   73.4050  217.7570 N   0  0  0  0  0  0  0  0  0  0  0  0
  145.3230   73.0210  218.7380 C   0  0  1  0  0  0  0  0  0  0  0  0
  145.6040   73.6770  220.0770 C   0  0  0  0  0  0  0  0  0  0  0  0
  144.3340   73.4760  220.8990 C   0  0  0  0  0  0  0  0  0  0  0  0
  143.3510   74.5120  220.3580 C   0  0  2  0  0  0  0  0  0  0  0  0
  142.0540   74.4850  221.0560 C   0  0  0  0  0  0  0  0  0  0  0  0
  141.6190   73.3330  221.5830 N   0  0  0  0  0  0  0  0  0  0  0  0
  140.4640   73.1920  222.2360 C   0  0  0  0  0  0  0  0  0  0  0  0
  140.0280   71.9530  222.7870 N   0  0  0  0  0  0  0  0  0  0  0  0
  138.9570   71.1650  222.2160 C   0  0  0  0  0  0  0  0  0  0  0  0
  139.2600   69.6850  222.3640 C   0  0  0  0  0  0  0  0  0  0  0  0
  139.3490   69.3920  223.8170 C   0  0  0  0  0  0  0  0  0  0  0  0
  138.7740   68.3110  224.4220 C   0  0  0  0  0  0  0  0  0  0  0  0
  138.9030   68.1040  225.7960 C   0  0  0  0  0  0  0  0  0  0  0  0
  139.6180   68.9960  226.5720 C   0  0  0  0  0  0  0  0  0  0  0  0
  140.1980   70.0900  225.9580 C   0  0  0  0  0  0  0  0  0  0  0  0
  140.0760   70.3060  224.5850 C   0  0  0  0  0  0  0  0  0  0  0  0
  140.7110   71.4830  223.9810 C   0  0  0  0  0  0  0  0  0  0  0  0
  139.6830   74.3030  222.3650 N   0  0  0  0  0  0  0  0  0  0  0  0
  140.1040   75.4760  221.8390 C   0  0  0  0  0  0  0  0  0  0  0  0
  139.2710   76.6230  221.9870 N   0  0  0  0  0  0  0  0  0  0  0  0
  137.8470   76.4230  221.7990 C   0  0  0  0  0  0  0  0  0  0  0  0
  137.0250   77.6530  221.8570 C   0  0  0  0  0  0  0  0  0  0  0  0
  137.5450   78.7550  222.6600 C   0  0  0  0  0  0  0  0  0  0  0  0
  136.6720   79.6810  223.2060 C   0  0  0  0  0  0  0  0  0  0  0  0
  137.1380   80.7410  223.9740 C   0  0  0  0  0  0  0  0  0  0  0  0
  138.5010   80.8570  224.1860 C   0  0  0  0  0  0  0  0  0  0  0  0
  139.3570   79.9220  223.6330 C   0  0  0  0  0  0  0  0  0  0  0  0
  138.8990   78.8680  222.8700 C   0  0  0  0  0  0  0  0  0  0  0  0
  139.8570   77.9100  222.3110 C   0  0  0  0  0  0  0  0  0  0  0  0
  141.2750   75.5640  221.1920 N   0  0  0  0  0  0  0  0  0  0  0  0
  143.2550   74.4600  218.8610 C   0  0  0  0  0  0  0  0  0  0  0  0
  143.9170   73.2420  218.2690 C   0  0  0  0  0  0  0  0  0  0  0  0
  145.9190   74.2130  217.1900 H   0  0  0  0  0  0  0  0  0  0  0  0
  147.1430   73.8030  218.2520 H   0  0  0  0  0  0  0  0  0  0  0  0
  145.4099   71.9334  218.8776 H   0  0  0  0  0  0  0  0  0  0  0  0
  145.8115   74.7491  219.9447 H   0  0  0  0  0  0  0  0  0  0  0  0
  146.4849   73.2405  220.5704 H   0  0  0  0  0  0  0  0  0  0  0  0
  144.5320   73.6503  221.9669 H   0  0  0  0  0  0  0  0  0  0  0  0
  143.9439   72.4508  220.8165 H   0  0  0  0  0  0  0  0  0  0  0  0
  143.7600   75.5068  220.5883 H   0  0  0  0  0  0  0  0  0  0  0  0
  138.0168   71.3975  222.7375 H   0  0  0  0  0  0  0  0  0  0  0  0
  138.8630   71.4074  221.1472 H   0  0  0  0  0  0  0  0  0  0  0  0
  138.4549   69.0893  221.9091 H   0  0  0  0  0  0  0  0  0  0  0  0
  140.2029   69.4296  221.8583 H   0  0  0  0  0  0  0  0  0  0  0  0
  138.2007   67.5929  223.8173 H   0  0  0  0  0  0  0  0  0  0  0  0
  138.4331   67.2262  226.2637 H   0  0  0  0  0  0  0  0  0  0  0  0
  139.7234   68.8388  227.6556 H   0  0  0  0  0  0  0  0  0  0  0  0
  140.7691   70.8071  226.5659 H   0  0  0  0  0  0  0  0  0  0  0  0
  140.7179   72.2955  224.7224 H   0  0  0  0  0  0  0  0  0  0  0  0
  141.7275   71.1882  223.6813 H   0  0  0  0  0  0  0  0  0  0  0  0
  137.6957   75.9587  220.8133 H   0  0  0  0  0  0  0  0  0  0  0  0
  137.5138   75.7932  222.6370 H   0  0  0  0  0  0  0  0  0  0  0  0
  136.9028   78.0203  220.8274 H   0  0  0  0  0  0  0  0  0  0  0  0
  136.0906   77.3515  222.3530 H   0  0  0  0  0  0  0  0  0  0  0  0
  135.5915   79.5756  223.0287 H   0  0  0  0  0  0  0  0  0  0  0  0
  136.4385   81.4727  224.4045 H   0  0  0  0  0  0  0  0  0  0  0  0
  138.8999   81.6859  224.7892 H   0  0  0  0  0  0  0  0  0  0  0  0
  140.4385   80.0221  223.8073 H   0  0  0  0  0  0  0  0  0  0  0  0
  140.2820   78.3396  221.3919 H   0  0  0  0  0  0  0  0  0  0  0  0
  140.6209   77.7312  223.0821 H   0  0  0  0  0  0  0  0  0  0  0  0
  143.7387   75.3573  218.4476 H   0  0  0  0  0  0  0  0  0  0  0  0
  142.1871   74.4120  218.6018 H   0  0  0  0  0  0  0  0  0  0  0  0
  143.9315   73.3541  217.1748 H   0  0  0  0  0  0  0  0  0  0  0  0
  143.3319   72.3710  218.5991 H   0  0  0  0  0  0  0  0  0  0  0  0
  1  2  1  0
  2  3  1  0
  3  4  1  0
  4  5  1  0
  5  6  1  0
  6  7  2  0
  7  8  1  0
  8  9  1  0
  9 10  1  0
 10 11  1  0
 11 12  1  0
 12 13  2  0
 13 14  1  0
 14 15  2  0
 15 16  1  0
 16 17  2  0
 17 18  1  0
  8 19  2  0
 19 20  1  0
 20 21  1  0
 21 22  1  0
 22 23  1  0
 23 24  1  0
 24 25  2  0
 25 26  1  0
 26 27  2  0
 27 28  1  0
 28 29  2  0
 29 30  1  0
 20 31  2  0
  5 32  1  0
 32 33  1  0
 33  2  1  0
 31  6  1  0
 18  9  1  0
 30 21  1  0
 17 12  1  0
 29 24  1  0
  1 34  1  0
  1 35  1  0
  2 36  1  1
  3 37  1  0
  3 38  1  0
  4 39  1  0
  4 40  1  0
  5 41  1  6
 10 42  1  0
 10 43  1  0
 11 44  1  0
 11 45  1  0
 13 46  1  0
 14 47  1  0
 15 48  1  0
 16 49  1  0
 18 50  1  0
 18 51  1  0
 22 52  1  0
 22 53  1  0
 23 54  1  0
 23 55  1  0
 25 56  1  0
 26 57  1  0
 27 58  1  0
 28 59  1  0
 30 60  1  0
 30 61  1  0
 32 62  1  0
 32 63  1  0
 33 64  1  0
 33 65  1  0
M  END
>  <smiles>  (7) 
N[C@H]1CC[C@H](c2nc(N3CCc4ccccc4C3)nc(N3CCc4ccccc4C3)n2)CC1

>  <score_type>  (7) 
oracle

>  <origin>  (7) 
autodockgpu

>  <m_score__min__energy>  (7) 
-9.5800000000000001

>  <m_primary>  (7) 
energy

>  <rmsd>  (7) 
10.473930835808096

>  <m_score__min__rmsd>  (7) 
10.473930835808096

>  <meeko>  (7) 
{"free_energy": -9.56, "intermolecular_energy": -10.75, "internal_energy": -0.94, "cluster_size": 50, "cluster_id": 1, "rank_in_cluster": 8}

>  <energy>  (7) 
-9.56

>  <cluster_rmsd>  (7) 
0.06

>  <cluster>  (7) 
1

$$$$

     RDKit          3D

 65 70  0  0  0  0  0  0  0  0999 V2000
  146.2930   73.4420  217.7570 N   0  0  0  0  0  0  0  0  0  0  0  0
  145.2910   73.0500  218.7260 C   0  0  1  0  0  0  0  0  0  0  0  0
  145.5800   73.6650  220.0820 C   0  0  0  0  0  0  0  0  0  0  0  0
  144.3040   73.4660  220.8950 C   0  0  0  0  0  0  0  0  0  0  0  0
  143.3410   74.5330  220.3790 C   0  0  2  0  0  0  0  0  0  0  0  0
  142.0420   74.5110  221.0730 C   0  0  0  0  0  0  0  0  0  0  0  0
  141.6030   73.3620  221.6030 N   0  0  0  0  0  0  0  0  0  0  0  0
  140.4460   73.2250  222.2530 C   0  0  0  0  0  0  0  0  0  0  0  0
  140.0060   71.9890  222.8080 N   0  0  0  0  0  0  0  0  0  0  0  0
  138.9230   71.2100  222.2470 C   0  0  0  0  0  0  0  0  0  0  0  0
  139.2160   69.7270  222.3920 C   0  0  0  0  0  0  0  0  0  0  0  0
  139.3180   69.4330  223.8430 C   0  0  0  0  0  0  0  0  0  0  0  0
  138.7430   68.3550  224.4530 C   0  0  0  0  0  0  0  0  0  0  0  0
  138.8840   68.1460  225.8250 C   0  0  0  0  0  0  0  0  0  0  0  0
  139.6140   69.0320  226.5950 C   0  0  0  0  0  0  0  0  0  0  0  0
  140.1960   70.1220  225.9760 C   0  0  0  0  0  0  0  0  0  0  0  0
  140.0600   70.3400  224.6040 C   0  0  0  0  0  0  0  0  0  0  0  0
  140.6980   71.5130  223.9950 C   0  0  0  0  0  0  0  0  0  0  0  0
  139.6660   74.3380  222.3740 N   0  0  0  0  0  0  0  0  0  0  0  0
  140.0900   75.5080  221.8450 C   0  0  0  0  0  0  0  0  0  0  0  0
  139.2580   76.6560  221.9850 N   0  0  0  0  0  0  0  0  0  0  0  0
  137.8380   76.4640  221.7630 C   0  0  0  0  0  0  0  0  0  0  0  0
  137.0200   77.6960  221.8150 C   0  0  0  0  0  0  0  0  0  0  0  0
  137.5250   78.7880  222.6400 C   0  0  0  0  0  0  0  0  0  0  0  0
  136.6430   79.7120  223.1750 C   0  0  0  0  0  0  0  0  0  0  0  0
  137.0960   80.7630  223.9640 C   0  0  0  0  0  0  0  0  0  0  0  0
  138.4530   80.8710  224.2080 C   0  0  0  0  0  0  0  0  0  0  0  0
  139.3190   79.9380  223.6650 C   0  0  0  0  0  0  0  0  0  0  0  0
  138.8750   78.8940  222.8820 C   0  0  0  0  0  0  0  0  0  0  0  0
  139.8410   77.9380  222.3350 C   0  0  0  0  0  0  0  0  0  0  0  0
  141.2640   75.5910  221.2020 N   0  0  0  0  0  0  0  0  0  0  0  0
  143.2480   74.5220  218.8820 C   0  0  0  0  0  0  0  0  0  0  0  0
  143.8910   73.3090  218.2590 C   0  0  0  0  0  0  0  0  0  0  0  0
  145.8990   74.2500  217.1870 H   0  0  0  0  0  0  0  0  0  0  0  0
  147.1130   73.8450  218.2630 H   0  0  0  0  0  0  0  0  0  0  0  0
  145.3576   71.9577  218.8377 H   0  0  0  0  0  0  0  0  0  0  0  0
  145.8077   74.7362  219.9785 H   0  0  0  0  0  0  0  0  0  0  0  0
  146.4513   73.1995  220.5660 H   0  0  0  0  0  0  0  0  0  0  0  0
  144.5019   73.6090  221.9676 H   0  0  0  0  0  0  0  0  0  0  0  0
  143.8959   72.4505  220.7845 H   0  0  0  0  0  0  0  0  0  0  0  0
  143.7673   75.5139  220.6361 H   0  0  0  0  0  0  0  0  0  0  0  0
  137.9897   71.4499  222.7775 H   0  0  0  0  0  0  0  0  0  0  0  0
  138.8203   71.4536  221.1792 H   0  0  0  0  0  0  0  0  0  0  0  0
  138.4015   69.1377  221.9456 H   0  0  0  0  0  0  0  0  0  0  0  0
  140.1516   69.4644  221.8765 H   0  0  0  0  0  0  0  0  0  0  0  0
  138.1598   67.6406  223.8534 H   0  0  0  0  0  0  0  0  0  0  0  0
  138.4118   67.2716  226.2966 H   0  0  0  0  0  0  0  0  0  0  0  0
  139.7292   68.8729  227.6773 H   0  0  0  0  0  0  0  0  0  0  0  0
  140.7796   70.8339  226.5782 H   0  0  0  0  0  0  0  0  0  0  0  0
  140.7184   72.3247  224.7371 H   0  0  0  0  0  0  0  0  0  0  0  0
  141.7094   71.2114  223.6852 H   0  0  0  0  0  0  0  0  0  0  0  0
  137.7072   76.0103  220.7695 H   0  0  0  0  0  0  0  0  0  0  0  0
  137.4835   75.8272  222.5869 H   0  0  0  0  0  0  0  0  0  0  0  0
  136.9223   78.0739  220.7866 H   0  0  0  0  0  0  0  0  0  0  0  0
  136.0740   77.3929  222.2874 H   0  0  0  0  0  0  0  0  0  0  0  0
  135.5664   79.6126  222.9723 H   0  0  0  0  0  0  0  0  0  0  0  0
  136.3898   81.4935  224.3855 H   0  0  0  0  0  0  0  0  0  0  0  0
  138.8410   81.6920  224.8288 H   0  0  0  0  0  0  0  0  0  0  0  0
  140.3966   80.0326  223.8647 H   0  0  0  0  0  0  0  0  0  0  0  0
  140.2879   78.3751  221.4299 H   0  0  0  0  0  0  0  0  0  0  0  0
  140.5865   77.7485  223.1213 H   0  0  0  0  0  0  0  0  0  0  0  0
  143.7476   75.4217  218.4935 H   0  0  0  0  0  0  0  0  0  0  0  0
  142.1800   74.4986  218.6196 H   0  0  0  0  0  0  0  0  0  0  0  0
  143.9115   73.4508  217.1684 H   0  0  0  0  0  0  0  0  0  0  0  0
  143.2895   72.4399  218.5636 H   0  0  0  0  0  0  0  0  0  0  0  0
  1  2  1  0
  2  3  1  0
  3  4  1  0
  4  5  1  0
  5  6  1  0
  6  7  2  0
  7  8  1  0
  8  9  1  0
  9 10  1  0
 10 11  1  0
 11 12  1  0
 12 13  2  0
 13 14  1  0
 14 15  2  0
 15 16  1  0
 16 17  2  0
 17 18  1  0
  8 19  2  0
 19 20  1  0
 20 21  1  0
 21 22  1  0
 22 23  1  0
 23 24  1  0
 24 25  2  0
 25 26  1  0
 26 27  2  0
 27 28  1  0
 28 29  2  0
 29 30  1  0
 20 31  2  0
  5 32  1  0
 32 33  1  0
 33  2  1  0
 31  6  1  0
 18  9  1  0
 30 21  1  0
 17 12  1  0
 29 24  1  0
  1 34  1  0
  1 35  1  0
  2 36  1  1
  3 37  1  0
  3 38  1  0
  4 39  1  0
  4 40  1  0
  5 41  1  6
 10 42  1  0
 10 43  1  0
 11 44  1  0
 11 45  1  0
 13 46  1  0
 14 47  1  0
 15 48  1  0
 16 49  1  0
 18 50  1  0
 18 51  1  0
 22 52  1  0
 22 53  1  0
 23 54  1  0
 23 55  1  0
 25 56  1  0
 26 57  1  0
 27 58  1  0
 28 59  1  0
 30 60  1  0
 30 61  1  0
 32 62  1  0
 32 63  1  0
 33 64  1  0
 33 65  1  0
M  END
>  <smiles>  (8) 
N[C@H]1CC[C@H](c2nc(N3CCc4ccccc4C3)nc(N3CCc4ccccc4C3)n2)CC1

>  <score_type>  (8) 
oracle

>  <origin>  (8) 
autodockgpu

>  <m_score__min__energy>  (8) 
-9.5800000000000001

>  <m_primary>  (8) 
energy

>  <rmsd>  (8) 
10.457638780234435

>  <m_score__min__rmsd>  (8) 
10.457638780234435

>  <meeko>  (8) 
{"free_energy": -9.57, "intermolecular_energy": -10.76, "internal_energy": -0.94, "cluster_size": 50, "cluster_id": 1, "rank_in_cluster": 5}

>  <energy>  (8) 
-9.56

>  <cluster_rmsd>  (8) 
1.18

>  <cluster>  (8) 
1

$$$$

     RDKit          3D

 65 70  0  0  0  0  0  0  0  0999 V2000
  146.0780   73.1700  217.4080 N   0  0  0  0  0  0  0  0  0  0  0  0
  144.9130   73.7460  218.0460 C   0  0  1  0  0  0  0  0  0  0  0  0
  143.6420   73.0890  217.5450 C   0  0  0  0  0  0  0  0  0  0  0  0
  142.5500   73.5290  218.5170 C   0  0  0  0  0  0  0  0  0  0  0  0
  142.7610   72.6640  219.7580 C   0  0  2  0  0  0  0  0  0  0  0  0
  141.7710   72.9340  220.8140 C   0  0  0  0  0  0  0  0  0  0  0  0
  141.2900   74.1750  220.9580 N   0  0  0  0  0  0  0  0  0  0  0  0
  140.3920   74.5340  221.8770 C   0  0  0  0  0  0  0  0  0  0  0  0
  139.8970   75.8640  222.0050 N   0  0  0  0  0  0  0  0  0  0  0  0
  138.6150   76.2850  221.4820 C   0  0  0  0  0  0  0  0  0  0  0  0
  137.9770   77.2990  222.4150 C   0  0  0  0  0  0  0  0  0  0  0  0
  138.8800   78.4750  222.4780 C   0  0  0  0  0  0  0  0  0  0  0  0
  138.4620   79.7730  222.4070 C   0  0  0  0  0  0  0  0  0  0  0  0
  139.3730   80.8270  222.4740 C   0  0  0  0  0  0  0  0  0  0  0  0
  140.7240   80.5740  222.6140 C   0  0  0  0  0  0  0  0  0  0  0  0
  141.1470   79.2600  222.6860 C   0  0  0  0  0  0  0  0  0  0  0  0
  140.2420   78.1980  222.6200 C   0  0  0  0  0  0  0  0  0  0  0  0
  140.7420   76.8210  222.7010 C   0  0  0  0  0  0  0  0  0  0  0  0
  139.9450   73.5610  222.7220 N   0  0  0  0  0  0  0  0  0  0  0  0
  140.4190   72.3010  222.5950 C   0  0  0  0  0  0  0  0  0  0  0  0
  139.9370   71.3020  223.4890 N   0  0  0  0  0  0  0  0  0  0  0  0
  139.2220   70.1870  222.8990 C   0  0  0  0  0  0  0  0  0  0  0  0
  138.6470   69.2250  223.8650 C   0  0  0  0  0  0  0  0  0  0  0  0
  139.3180   69.1070  225.1560 C   0  0  0  0  0  0  0  0  0  0  0  0
  139.2190   67.9290  225.8780 C   0  0  0  0  0  0  0  0  0  0  0  0
  139.8470   67.7890  227.1100 C   0  0  0  0  0  0  0  0  0  0  0  0
  140.5780   68.8530  227.6070 C   0  0  0  0  0  0  0  0  0  0  0  0
  140.6640   70.0220  226.8710 C   0  0  0  0  0  0  0  0  0  0  0  0
  140.0430   70.1660  225.6470 C   0  0  0  0  0  0  0  0  0  0  0  0
  140.1720   71.4290  224.9160 C   0  0  0  0  0  0  0  0  0  0  0  0
  141.3210   71.9930  221.6520 N   0  0  0  0  0  0  0  0  0  0  0  0
  144.1890   72.6910  220.2190 C   0  0  0  0  0  0  0  0  0  0  0  0
  145.0080   73.7590  219.5410 C   0  0  0  0  0  0  0  0  0  0  0  0
  146.9230   73.7570  217.6780 H   0  0  0  0  0  0  0  0  0  0  0  0
  146.2600   72.2300  217.8240 H   0  0  0  0  0  0  0  0  0  0  0  0
  144.8747   74.8058  217.7538 H   0  0  0  0  0  0  0  0  0  0  0  0
  143.7458   71.9939  217.5523 H   0  0  0  0  0  0  0  0  0  0  0  0
  143.4108   73.3802  216.5097 H   0  0  0  0  0  0  0  0  0  0  0  0
  141.5534   73.3521  218.0862 H   0  0  0  0  0  0  0  0  0  0  0  0
  142.6056   74.6036  218.7454 H   0  0  0  0  0  0  0  0  0  0  0  0
  142.5692   71.6199  219.4699 H   0  0  0  0  0  0  0  0  0  0  0  0
  138.7586   76.7420  220.4918 H   0  0  0  0  0  0  0  0  0  0  0  0
  137.9555   75.4086  221.3983 H   0  0  0  0  0  0  0  0  0  0  0  0
  136.9934   77.6009  222.0260 H   0  0  0  0  0  0  0  0  0  0  0  0
  137.8316   76.8673  223.4163 H   0  0  0  0  0  0  0  0  0  0  0  0
  137.3896   79.9909  222.2952 H   0  0  0  0  0  0  0  0  0  0  0  0
  139.0140   81.8651  222.4151 H   0  0  0  0  0  0  0  0  0  0  0  0
  141.4477   81.4007  222.6670 H   0  0  0  0  0  0  0  0  0  0  0  0
  142.2202   79.0459  222.7978 H   0  0  0  0  0  0  0  0  0  0  0  0
  141.7478   76.7874  222.2569 H   0  0  0  0  0  0  0  0  0  0  0  0
  140.7506   76.5378  223.7639 H   0  0  0  0  0  0  0  0  0  0  0  0
  138.3991   70.5931  222.2925 H   0  0  0  0  0  0  0  0  0  0  0  0
  139.9638   69.6245  222.3130 H   0  0  0  0  0  0  0  0  0  0  0  0
  137.6071   69.5278  224.0571 H   0  0  0  0  0  0  0  0  0  0  0  0
  138.7604   68.2389  223.3909 H   0  0  0  0  0  0  0  0  0  0  0  0
  138.6343   67.0914  225.4700 H   0  0  0  0  0  0  0  0  0  0  0  0
  139.7644   66.8509  227.6784 H   0  0  0  0  0  0  0  0  0  0  0  0
  141.0866   68.7707  228.5789 H   0  0  0  0  0  0  0  0  0  0  0  0
  141.2461   70.8635  227.2747 H   0  0  0  0  0  0  0  0  0  0  0  0
  139.4435   72.1439  225.3260 H   0  0  0  0  0  0  0  0  0  0  0  0
  141.2101   71.7700  225.0426 H   0  0  0  0  0  0  0  0  0  0  0  0
  144.6443   71.7125  220.0062 H   0  0  0  0  0  0  0  0  0  0  0  0
  144.1823   72.9162  221.2957 H   0  0  0  0  0  0  0  0  0  0  0  0
  146.0620   73.6161  219.8214 H   0  0  0  0  0  0  0  0  0  0  0  0
  144.6067   74.7269  219.8759 H   0  0  0  0  0  0  0  0  0  0  0  0
  1  2  1  0
  2  3  1  0
  3  4  1  0
  4  5  1  0
  5  6  1  0
  6  7  2  0
  7  8  1  0
  8  9  1  0
  9 10  1  0
 10 11  1  0
 11 12  1  0
 12 13  2  0
 13 14  1  0
 14 15  2  0
 15 16  1  0
 16 17  2  0
 17 18  1  0
  8 19  2  0
 19 20  1  0
 20 21  1  0
 21 22  1  0
 22 23  1  0
 23 24  1  0
 24 25  2  0
 25 26  1  0
 26 27  2  0
 27 28  1  0
 28 29  2  0
 29 30  1  0
 20 31  2  0
  5 32  1  0
 32 33  1  0
 33  2  1  0
 31  6  1  0
 18  9  1  0
 30 21  1  0
 17 12  1  0
 29 24  1  0
  1 34  1  0
  1 35  1  0
  2 36  1  6
  3 37  1  0
  3 38  1  0
  4 39  1  0
  4 40  1  0
  5 41  1  6
 10 42  1  0
 10 43  1  0
 11 44  1  0
 11 45  1  0
 13 46  1  0
 14 47  1  0
 15 48  1  0
 16 49  1  0
 18 50  1  0
 18 51  1  0
 22 52  1  0
 22 53  1  0
 23 54  1  0
 23 55  1  0
 25 56  1  0
 26 57  1  0
 27 58  1  0
 28 59  1  0
 30 60  1  0
 30 61  1  0
 32 62  1  0
 32 63  1  0
 33 64  1  0
 33 65  1  0
M  END
>  <smiles>  (9) 
N[C@H]1CC[C@H](c2nc(N3CCc4ccccc4C3)nc(N3CCc4ccccc4C3)n2)CC1

>  <score_type>  (9) 
oracle

>  <origin>  (9) 
autodockgpu

>  <m_score__min__energy>  (9) 
-9.5800000000000001

>  <m_primary>  (9) 
energy

>  <rmsd>  (9) 
4.803850173292476

>  <m_score__min__rmsd>  (9) 
4.803850173292476

>  <meeko>  (9) 
{"free_energy": -9.26, "intermolecular_energy": -10.45, "internal_energy": -0.93, "cluster_size": 50, "cluster_id": 1, "rank_in_cluster": 46}

>  <energy>  (9) 
-9.54

>  <cluster_rmsd>  (9) 
0.35

>  <cluster>  (9) 
1

$$$$

     RDKit          3D

 65 70  0  0  0  0  0  0  0  0999 V2000
  146.0860   72.6100  217.4650 N   0  0  0  0  0  0  0  0  0  0  0  0
  145.1600   73.3990  218.2500 C   0  0  1  0  0  0  0  0  0  0  0  0
  143.8020   73.4680  217.5780 C   0  0  0  0  0  0  0  0  0  0  0  0
  142.8530   74.0150  218.6410 C   0  0  0  0  0  0  0  0  0  0  0  0
  142.5740   72.8300  219.5630 C   0  0  2  0  0  0  0  0  0  0  0  0
  141.6440   73.1640  220.6540 C   0  0  0  0  0  0  0  0  0  0  0  0
  141.3060   72.2160  221.5380 N   0  0  0  0  0  0  0  0  0  0  0  0
  140.4750   72.4050  222.5650 C   0  0  0  0  0  0  0  0  0  0  0  0
  140.1340   71.3780  223.4910 N   0  0  0  0  0  0  0  0  0  0  0  0
  138.9290   70.5840  223.3850 C   0  0  0  0  0  0  0  0  0  0  0  0
  139.2010   69.1580  223.8280 C   0  0  0  0  0  0  0  0  0  0  0  0
  139.6210   69.2060  225.2510 C   0  0  0  0  0  0  0  0  0  0  0  0
  139.1650   68.3570  226.2190 C   0  0  0  0  0  0  0  0  0  0  0  0
  139.6080   68.4650  227.5370 C   0  0  0  0  0  0  0  0  0  0  0  0
  140.5210   69.4410  227.8890 C   0  0  0  0  0  0  0  0  0  0  0  0
  140.9810   70.3010  226.9090 C   0  0  0  0  0  0  0  0  0  0  0  0
  140.5440   70.2000  225.5860 C   0  0  0  0  0  0  0  0  0  0  0  0
  141.0630   71.1370  224.5840 C   0  0  0  0  0  0  0  0  0  0  0  0
  139.9400   73.6520  222.7100 N   0  0  0  0  0  0  0  0  0  0  0  0
  140.2680   74.6230  221.8280 C   0  0  0  0  0  0  0  0  0  0  0  0
  139.6960   75.9170  222.0000 N   0  0  0  0  0  0  0  0  0  0  0  0
  138.2730   75.9700  222.2740 C   0  0  0  0  0  0  0  0  0  0  0  0
  137.6950   77.3310  222.3430 C   0  0  0  0  0  0  0  0  0  0  0  0
  138.5940   78.4080  222.7460 C   0  0  0  0  0  0  0  0  0  0  0  0
  138.0790   79.5470  223.3440 C   0  0  0  0  0  0  0  0  0  0  0  0
  138.9100   80.5880  223.7380 C   0  0  0  0  0  0  0  0  0  0  0  0
  140.2720   80.4680  223.5210 C   0  0  0  0  0  0  0  0  0  0  0  0
  140.7670   79.3230  222.9220 C   0  0  0  0  0  0  0  0  0  0  0  0
  139.9460   78.2860  222.5300 C   0  0  0  0  0  0  0  0  0  0  0  0
  140.5310   77.1000  221.9000 C   0  0  0  0  0  0  0  0  0  0  0  0
  141.1090   74.3800  220.8130 N   0  0  0  0  0  0  0  0  0  0  0  0
  143.8400   72.1580  220.0060 C   0  0  0  0  0  0  0  0  0  0  0  0
  145.0770   72.9570  219.6800 C   0  0  0  0  0  0  0  0  0  0  0  0
  145.5180   72.0200  216.7860 H   0  0  0  0  0  0  0  0  0  0  0  0
  146.6480   73.2500  216.8620 H   0  0  0  0  0  0  0  0  0  0  0  0
  145.5609   74.4225  218.2903 H   0  0  0  0  0  0  0  0  0  0  0  0
  143.4814   72.4669  217.2538 H   0  0  0  0  0  0  0  0  0  0  0  0
  143.8210   74.1029  216.6799 H   0  0  0  0  0  0  0  0  0  0  0  0
  141.9213   74.3750  218.1802 H   0  0  0  0  0  0  0  0  0  0  0  0
  143.2849   74.8694  219.1827 H   0  0  0  0  0  0  0  0  0  0  0  0
  142.0358   72.0735  218.9731 H   0  0  0  0  0  0  0  0  0  0  0  0
  138.1484   71.0208  224.0252 H   0  0  0  0  0  0  0  0  0  0  0  0
  138.5945   70.5770  222.3371 H   0  0  0  0  0  0  0  0  0  0  0  0
  138.2885   68.5523  223.7258 H   0  0  0  0  0  0  0  0  0  0  0  0
  139.9864   68.7022  223.2071 H   0  0  0  0  0  0  0  0  0  0  0  0
  138.4369   67.5759  225.9548 H   0  0  0  0  0  0  0  0  0  0  0  0
  139.2288   67.7697  228.3004 H   0  0  0  0  0  0  0  0  0  0  0  0
  140.8742   69.5317  228.9268 H   0  0  0  0  0  0  0  0  0  0  0  0
  141.7074   71.0823  227.1771 H   0  0  0  0  0  0  0  0  0  0  0  0
  141.2768   72.0957  225.0792 H   0  0  0  0  0  0  0  0  0  0  0  0
  141.9678   70.6854  224.1511 H   0  0  0  0  0  0  0  0  0  0  0  0
  137.7522   75.4190  221.4770 H   0  0  0  0  0  0  0  0  0  0  0  0
  138.1377   75.5298  223.2730 H   0  0  0  0  0  0  0  0  0  0  0  0
  137.3060   77.5784  221.3443 H   0  0  0  0  0  0  0  0  0  0  0  0
  136.9332   77.2804  223.1349 H   0  0  0  0  0  0  0  0  0  0  0  0
  136.9945   79.6281  223.5094 H   0  0  0  0  0  0  0  0  0  0  0  0
  138.4944   81.4891  224.2127 H   0  0  0  0  0  0  0  0  0  0  0  0
  140.9550   81.2760  223.8222 H   0  0  0  0  0  0  0  0  0  0  0  0
  141.8505   79.2369  222.7529 H   0  0  0  0  0  0  0  0  0  0  0  0
  140.6980   77.3187  220.8350 H   0  0  0  0  0  0  0  0  0  0  0  0
  141.4672   76.8799  222.4339 H   0  0  0  0  0  0  0  0  0  0  0  0
  143.9118   71.1811  219.5056 H   0  0  0  0  0  0  0  0  0  0  0  0
  143.7929   72.0566  221.1003 H   0  0  0  0  0  0  0  0  0  0  0  0
  145.9577   72.3363  219.9015 H   0  0  0  0  0  0  0  0  0  0  0  0
  145.0361   73.8697  220.2926 H   0  0  0  0  0  0  0  0  0  0  0  0
  1  2  1  0
  2  3  1  0
  3  4  1  0
  4  5  1  0
  5  6  1  0
  6  7  2  0
  7  8  1  0
  8  9  1  0
  9 10  1  0
 10 11  1  0
 11 12  1  0
 12 13  2  0
 13 14  1  0
 14 15  2  0
 15 16  1  0
 16 17  2  0
 17 18  1  0
  8 19  2  0
 19 20  1  0
 20 21  1  0
 21 22  1  0
 22 23  1  0
 23 24  1  0
 24 25  2  0
 25 26  1  0
 26 27  2  0
 27 28  1  0
 28 29  2  0
 29 30  1  0
 20 31  2  0
  5 32  1  0
 32 33  1  0
 33  2  1  0
 31  6  1  0
 18  9  1  0
 30 21  1  0
 17 12  1  0
 29 24  1  0
  1 34  1  0
  1 35  1  0
  2 36  1  1
  3 37  1  0
  3 38  1  0
  4 39  1  0
  4 40  1  0
  5 41  1  6
 10 42  1  0
 10 43  1  0
 11 44  1  0
 11 45  1  0
 13 46  1  0
 14 47  1  0
 15 48  1  0
 16 49  1  0
 18 50  1  0
 18 51  1  0
 22 52  1  0
 22 53  1  0
 23 54  1  0
 23 55  1  0
 25 56  1  0
 26 57  1  0
 27 58  1  0
 28 59  1  0
 30 60  1  0
 30 61  1  0
 32 62  1  0
 32 63  1  0
 33 64  1  0
 33 65  1  0
M  END
>  <smiles>  (10) 
N[C@H]1CC[C@H](c2nc(N3CCc4ccccc4C3)nc(N3CCc4ccccc4C3)n2)CC1

>  <score_type>  (10) 
oracle

>  <origin>  (10) 
autodockgpu

>  <m_score__min__energy>  (10) 
-9.5800000000000001

>  <m_primary>  (10) 
energy

>  <rmsd>  (10) 
11.139105710103054

>  <m_score__min__rmsd>  (10) 
11.139105710103054

>  <meeko>  (10) 
{"free_energy": -9.49, "intermolecular_energy": -10.69, "internal_energy": -0.93, "cluster_size": 50, "cluster_id": 1, "rank_in_cluster": 24}

>  <energy>  (10) 
-9.53

>  <cluster_rmsd>  (10) 
0.57

>  <cluster>  (10) 
1

$$$$

     RDKit          3D

 65 70  0  0  0  0  0  0  0  0999 V2000
  145.2460   73.9500  216.5710 N   0  0  0  0  0  0  0  0  0  0  0  0
  143.9300   73.8920  217.1730 C   0  0  1  0  0  0  0  0  0  0  0  0
  143.6000   72.4790  217.6150 C   0  0  0  0  0  0  0  0  0  0  0  0
  142.3760   72.6140  218.5170 C   0  0  0  0  0  0  0  0  0  0  0  0
  142.9250   73.1300  219.8460 C   0  0  2  0  0  0  0  0  0  0  0  0
  141.8770   73.3040  220.8660 C   0  0  0  0  0  0  0  0  0  0  0  0
  141.3390   74.5160  221.0500 N   0  0  0  0  0  0  0  0  0  0  0  0
  140.3860   74.7900  221.9420 C   0  0  0  0  0  0  0  0  0  0  0  0
  139.8310   76.0910  222.1150 N   0  0  0  0  0  0  0  0  0  0  0  0
  138.4770   76.4310  221.7350 C   0  0  0  0  0  0  0  0  0  0  0  0
  137.8880   77.4190  222.7250 C   0  0  0  0  0  0  0  0  0  0  0  0
  138.7220   78.6460  222.6800 C   0  0  0  0  0  0  0  0  0  0  0  0
  138.2240   79.9170  222.6470 C   0  0  0  0  0  0  0  0  0  0  0  0
  139.0740   81.0220  222.6060 C   0  0  0  0  0  0  0  0  0  0  0  0
  140.4450   80.8480  222.5970 C   0  0  0  0  0  0  0  0  0  0  0  0
  140.9480   79.5610  222.6300 C   0  0  0  0  0  0  0  0  0  0  0  0
  140.1060   78.4490  222.6720 C   0  0  0  0  0  0  0  0  0  0  0  0
  140.6900   77.1040  222.7070 C   0  0  0  0  0  0  0  0  0  0  0  0
  139.9400   73.7560  222.7120 N   0  0  0  0  0  0  0  0  0  0  0  0
  140.4700   72.5240  222.5430 C   0  0  0  0  0  0  0  0  0  0  0  0
  139.9890   71.4600  223.3590 N   0  0  0  0  0  0  0  0  0  0  0  0
  139.2990   70.3790  222.6830 C   0  0  0  0  0  0  0  0  0  0  0  0
  138.7230   69.3460  223.5720 C   0  0  0  0  0  0  0  0  0  0  0  0
  139.3750   69.1490  224.8630 C   0  0  0  0  0  0  0  0  0  0  0  0
  139.2820   67.9240  225.5020 C   0  0  0  0  0  0  0  0  0  0  0  0
  139.8930   67.7080  226.7310 C   0  0  0  0  0  0  0  0  0  0  0  0
  140.6010   68.7450  227.3110 C   0  0  0  0  0  0  0  0  0  0  0  0
  140.6820   69.9620  226.6570 C   0  0  0  0  0  0  0  0  0  0  0  0
  140.0780   70.1820  225.4370 C   0  0  0  0  0  0  0  0  0  0  0  0
  140.2010   71.4930  224.7950 C   0  0  0  0  0  0  0  0  0  0  0  0
  141.4280   72.3030  221.6300 N   0  0  0  0  0  0  0  0  0  0  0  0
  143.8140   74.3230  219.6550 C   0  0  0  0  0  0  0  0  0  0  0  0
  143.7390   74.9000  218.2640 C   0  0  0  0  0  0  0  0  0  0  0  0
  145.8270   74.6500  217.1220 H   0  0  0  0  0  0  0  0  0  0  0  0
  145.7230   73.0330  216.7130 H   0  0  0  0  0  0  0  0  0  0  0  0
  143.2046   74.1731  216.3953 H   0  0  0  0  0  0  0  0  0  0  0  0
  144.4425   72.0429  218.1717 H   0  0  0  0  0  0  0  0  0  0  0  0
  143.4069   71.8162  216.7586 H   0  0  0  0  0  0  0  0  0  0  0  0
  141.8855   71.6389  218.6529 H   0  0  0  0  0  0  0  0  0  0  0  0
  141.6188   73.2885  218.0908 H   0  0  0  0  0  0  0  0  0  0  0  0
  143.5761   72.3463  220.2607 H   0  0  0  0  0  0  0  0  0  0  0  0
  138.4834   76.8819  220.7317 H   0  0  0  0  0  0  0  0  0  0  0  0
  137.8646   75.5173  221.7318 H   0  0  0  0  0  0  0  0  0  0  0  0
  136.8516   77.6588  222.4450 H   0  0  0  0  0  0  0  0  0  0  0  0
  137.8795   76.9931  223.7392 H   0  0  0  0  0  0  0  0  0  0  0  0
  137.1350   80.0719  222.6529 H   0  0  0  0  0  0  0  0  0  0  0  0
  138.6510   82.0371  222.5807 H   0  0  0  0  0  0  0  0  0  0  0  0
  141.1213   81.7149  222.5643 H   0  0  0  0  0  0  0  0  0  0  0  0
  142.0375   79.4098  222.6230 H   0  0  0  0  0  0  0  0  0  0  0  0
  141.6415   77.1215  222.1552 H   0  0  0  0  0  0  0  0  0  0  0  0
  140.8306   76.8360  223.7646 H   0  0  0  0  0  0  0  0  0  0  0  0
  138.4798   70.8149  222.0923 H   0  0  0  0  0  0  0  0  0  0  0  0
  140.0574   69.8676  222.0720 H   0  0  0  0  0  0  0  0  0  0  0  0
  137.6760   69.6212  223.7668 H   0  0  0  0  0  0  0  0  0  0  0  0
  138.8583   68.3961  223.0340 H   0  0  0  0  0  0  0  0  0  0  0  0
  138.7151   67.1086  225.0289 H   0  0  0  0  0  0  0  0  0  0  0  0
  139.8153   66.7321  227.2325 H   0  0  0  0  0  0  0  0  0  0  0  0
  141.0953   68.6037  228.2835 H   0  0  0  0  0  0  0  0  0  0  0  0
  141.2470   70.7811  227.1260 H   0  0  0  0  0  0  0  0  0  0  0  0
  139.4570   72.1695  225.2408 H   0  0  0  0  0  0  0  0  0  0  0  0
  141.2325   71.8374  224.9606 H   0  0  0  0  0  0  0  0  0  0  0  0
  144.8529   74.0207  219.8530 H   0  0  0  0  0  0  0  0  0  0  0  0
  143.4717   75.1020  220.3521 H   0  0  0  0  0  0  0  0  0  0  0  0
  144.5207   75.6677  218.1658 H   0  0  0  0  0  0  0  0  0  0  0  0
  142.7248   75.3088  218.1443 H   0  0  0  0  0  0  0  0  0  0  0  0
  1  2  1  0
  2  3  1  0
  3  4  1  0
  4  5  1  0
  5  6  1  0
  6  7  2  0
  7  8  1  0
  8  9  1  0
  9 10  1  0
 10 11  1  0
 11 12  1  0
 12 13  2  0
 13 14  1  0
 14 15  2  0
 15 16  1  0
 16 17  2  0
 17 18  1  0
  8 19  2  0
 19 20  1  0
 20 21  1  0
 21 22  1  0
 22 23  1  0
 23 24  1  0
 24 25  2  0
 25 26  1  0
 26 27  2  0
 27 28  1  0
 28 29  2  0
 29 30  1  0
 20 31  2  0
  5 32  1  0
 32 33  1  0
 33  2  1  0
 31  6  1  0
 18  9  1  0
 30 21  1  0
 17 12  1  0
 29 24  1  0
  1 34  1  0
  1 35  1  0
  2 36  1  6
  3 37  1  0
  3 38  1  0
  4 39  1  0
  4 40  1  0
  5 41  1  1
 10 42  1  0
 10 43  1  0
 11 44  1  0
 11 45  1  0
 13 46  1  0
 14 47  1  0
 15 48  1  0
 16 49  1  0
 18 50  1  0
 18 51  1  0
 22 52  1  0
 22 53  1  0
 23 54  1  0
 23 55  1  0
 25 56  1  0
 26 57  1  0
 27 58  1  0
 28 59  1  0
 30 60  1  0
 30 61  1  0
 32 62  1  0
 32 63  1  0
 33 64  1  0
 33 65  1  0
M  END
>  <smiles>  (11) 
N[C@H]1CC[C@H](c2nc(N3CCc4ccccc4C3)nc(N3CCc4ccccc4C3)n2)CC1

>  <score_type>  (11) 
oracle

>  <origin>  (11) 
autodockgpu

>  <m_score__min__energy>  (11) 
-9.5800000000000001

>  <m_primary>  (11) 
energy

>  <rmsd>  (11) 
4.909337555569594

>  <m_score__min__rmsd>  (11) 
4.909337555569594

>  <meeko>  (11) 
{"free_energy": -9.05, "intermolecular_energy": -10.24, "internal_energy": -0.94, "cluster_size": 50, "cluster_id": 1, "rank_in_cluster": 50}

>  <energy>  (11) 
-9.53

>  <cluster_rmsd>  (11) 
1.14

>  <cluster>  (11) 
1

$$$$

     RDKit          3D

 65 70  0  0  0  0  0  0  0  0999 V2000
  145.9150   72.1030  217.3710 N   0  0  0  0  0  0  0  0  0  0  0  0
  145.2500   72.8410  218.4240 C   0  0  1  0  0  0  0  0  0  0  0  0
  144.1200   73.6830  217.8620 C   0  0  0  0  0  0  0  0  0  0  0  0
  143.3050   74.1250  219.0750 C   0  0  0  0  0  0  0  0  0  0  0  0
  142.4830   72.8970  219.4610 C   0  0  2  0  0  0  0  0  0  0  0  0
  141.6030   73.1420  220.6160 C   0  0  0  0  0  0  0  0  0  0  0  0
  141.1690   74.3860  220.8560 N   0  0  0  0  0  0  0  0  0  0  0  0
  140.3700   74.7240  221.8700 C   0  0  0  0  0  0  0  0  0  0  0  0
  139.9240   76.0570  222.1000 N   0  0  0  0  0  0  0  0  0  0  0  0
  138.5990   76.5200  221.7480 C   0  0  0  0  0  0  0  0  0  0  0  0
  138.1000   77.5120  222.7830 C   0  0  0  0  0  0  0  0  0  0  0  0
  139.0300   78.6690  222.7760 C   0  0  0  0  0  0  0  0  0  0  0  0
  138.6360   79.9760  222.7970 C   0  0  0  0  0  0  0  0  0  0  0  0
  139.5720   81.0100  222.7890 C   0  0  0  0  0  0  0  0  0  0  0  0
  140.9240   80.7270  222.7580 C   0  0  0  0  0  0  0  0  0  0  0  0
  141.3220   79.4030  222.7360 C   0  0  0  0  0  0  0  0  0  0  0  0
  140.3930   78.3610  222.7440 C   0  0  0  0  0  0  0  0  0  0  0  0
  140.8670   76.9730  222.7200 C   0  0  0  0  0  0  0  0  0  0  0  0
  139.9780   73.7240  222.7120 N   0  0  0  0  0  0  0  0  0  0  0  0
  140.4050   72.4600  222.4880 C   0  0  0  0  0  0  0  0  0  0  0  0
  139.9820   71.4340  223.3810 N   0  0  0  0  0  0  0  0  0  0  0  0
  139.2330   70.3350  222.8040 C   0  0  0  0  0  0  0  0  0  0  0  0
  138.7220   69.3420  223.7750 C   0  0  0  0  0  0  0  0  0  0  0  0
  139.4730   69.1890  225.0170 C   0  0  0  0  0  0  0  0  0  0  0  0
  139.4220   67.9890  225.7080 C   0  0  0  0  0  0  0  0  0  0  0  0
  140.1270   67.8140  226.8930 C   0  0  0  0  0  0  0  0  0  0  0  0
  140.8870   68.8660  227.3750 C   0  0  0  0  0  0  0  0  0  0  0  0
  140.9240   70.0560  226.6690 C   0  0  0  0  0  0  0  0  0  0  0  0
  140.2270   70.2350  225.4930 C   0  0  0  0  0  0  0  0  0  0  0  0
  140.3080   71.5190  224.7930 C   0  0  0  0  0  0  0  0  0  0  0  0
  141.2080   72.1750  221.4520 N   0  0  0  0  0  0  0  0  0  0  0  0
  143.3370   71.6690  219.5770 C   0  0  0  0  0  0  0  0  0  0  0  0
  144.8140   71.9730  219.5650 C   0  0  0  0  0  0  0  0  0  0  0  0
  146.7420   72.6830  217.0370 H   0  0  0  0  0  0  0  0  0  0  0  0
  146.3390   71.2410  217.7790 H   0  0  0  0  0  0  0  0  0  0  0  0
  145.9918   73.5283  218.8569 H   0  0  0  0  0  0  0  0  0  0  0  0
  143.4991   73.0868  217.1771 H   0  0  0  0  0  0  0  0  0  0  0  0
  144.4957   74.5413  217.2856 H   0  0  0  0  0  0  0  0  0  0  0  0
  142.6459   74.9660  218.8135 H   0  0  0  0  0  0  0  0  0  0  0  0
  143.9438   74.4732  219.9000 H   0  0  0  0  0  0  0  0  0  0  0  0
  141.7894   72.6904  218.6326 H   0  0  0  0  0  0  0  0  0  0  0  0
  138.6343   77.0088  220.7632 H   0  0  0  0  0  0  0  0  0  0  0  0
  137.9144   75.6597  221.7150 H   0  0  0  0  0  0  0  0  0  0  0  0
  137.0840   77.8451  222.5248 H   0  0  0  0  0  0  0  0  0  0  0  0
  138.0659   77.0481  223.7798 H   0  0  0  0  0  0  0  0  0  0  0  0
  137.5631   80.2175  222.8206 H   0  0  0  0  0  0  0  0  0  0  0  0
  139.2321   82.0560  222.8075 H   0  0  0  0  0  0  0  0  0  0  0  0
  141.6677   81.5375  222.7510 H   0  0  0  0  0  0  0  0  0  0  0  0
  142.3957   79.1652  222.7116 H   0  0  0  0  0  0  0  0  0  0  0  0
  141.8118   76.9358  222.1578 H   0  0  0  0  0  0  0  0  0  0  0  0
  140.9952   76.6530  223.7646 H   0  0  0  0  0  0  0  0  0  0  0  0
  138.3726   70.7563  222.2635 H   0  0  0  0  0  0  0  0  0  0  0  0
  139.9371   69.7932  222.1554 H   0  0  0  0  0  0  0  0  0  0  0  0
  137.6954   69.6343  224.0408 H   0  0  0  0  0  0  0  0  0  0  0  0
  138.8077   68.3709  223.2655 H   0  0  0  0  0  0  0  0  0  0  0  0
  138.8141   67.1620  225.3125 H   0  0  0  0  0  0  0  0  0  0  0  0
  140.0820   66.8589  227.4369 H   0  0  0  0  0  0  0  0  0  0  0  0
  141.4560   68.7572  228.3101 H   0  0  0  0  0  0  0  0  0  0  0  0
  141.5299   70.8869  227.0594 H   0  0  0  0  0  0  0  0  0  0  0  0
  139.6069   72.2197  225.2700 H   0  0  0  0  0  0  0  0  0  0  0  0
  141.3520   71.8584  224.8626 H   0  0  0  0  0  0  0  0  0  0  0  0
  143.1096   71.0032  218.7314 H   0  0  0  0  0  0  0  0  0  0  0  0
  143.1065   71.1990  220.5445 H   0  0  0  0  0  0  0  0  0  0  0  0
  145.3622   71.0213  219.5043 H   0  0  0  0  0  0  0  0  0  0  0  0
  145.0311   72.5298  220.4885 H   0  0  0  0  0  0  0  0  0  0  0  0
  1  2  1  0
  2  3  1  0
  3  4  1  0
  4  5  1  0
  5  6  1  0
  6  7  2  0
  7  8  1  0
  8  9  1  0
  9 10  1  0
 10 11  1  0
 11 12  1  0
 12 13  2  0
 13 14  1  0
 14 15  2  0
 15 16  1  0
 16 17  2  0
 17 18  1  0
  8 19  2  0
 19 20  1  0
 20 21  1  0
 21 22  1  0
 22 23  1  0
 23 24  1  0
 24 25  2  0
 25 26  1  0
 26 27  2  0
 27 28  1  0
 28 29  2  0
 29 30  1  0
 20 31  2  0
  5 32  1  0
 32 33  1  0
 33  2  1  0
 31  6  1  0
 18  9  1  0
 30 21  1  0
 17 12  1  0
 29 24  1  0
  1 34  1  0
  1 35  1  0
  2 36  1  1
  3 37  1  0
  3 38  1  0
  4 39  1  0
  4 40  1  0
  5 41  1  6
 10 42  1  0
 10 43  1  0
 11 44  1  0
 11 45  1  0
 13 46  1  0
 14 47  1  0
 15 48  1  0
 16 49  1  0
 18 50  1  0
 18 51  1  0
 22 52  1  0
 22 53  1  0
 23 54  1  0
 23 55  1  0
 25 56  1  0
 26 57  1  0
 27 58  1  0
 28 59  1  0
 30 60  1  0
 30 61  1  0
 32 62  1  0
 32 63  1  0
 33 64  1  0
 33 65  1  0
M  END
>  <smiles>  (12) 
N[C@H]1CC[C@H](c2nc(N3CCc4ccccc4C3)nc(N3CCc4ccccc4C3)n2)CC1

>  <score_type>  (12) 
oracle

>  <origin>  (12) 
autodockgpu

>  <m_score__min__energy>  (12) 
-9.5800000000000001

>  <m_primary>  (12) 
energy

>  <rmsd>  (12) 
4.976252778448127

>  <m_score__min__rmsd>  (12) 
4.976252778448127

>  <meeko>  (12) 
{"free_energy": -9.15, "intermolecular_energy": -10.34, "internal_energy": -0.93, "cluster_size": 50, "cluster_id": 1, "rank_in_cluster": 49}

>  <energy>  (12) 
-9.53

>  <cluster_rmsd>  (12) 
1.18

>  <cluster>  (12) 
1

$$$$

     RDKit          3D

 65 70  0  0  0  0  0  0  0  0999 V2000
  145.9310   71.6690  217.6600 N   0  0  0  0  0  0  0  0  0  0  0  0
  145.3310   72.4250  218.7390 C   0  0  1  0  0  0  0  0  0  0  0  0
  144.4730   73.5530  218.1980 C   0  0  0  0  0  0  0  0  0  0  0  0
  143.6470   74.0390  219.3860 C   0  0  0  0  0  0  0  0  0  0  0  0
  142.5460   72.9940  219.5500 C   0  0  2  0  0  0  0  0  0  0  0  0
  141.6210   73.3090  220.6510 C   0  0  0  0  0  0  0  0  0  0  0  0
  141.2830   72.3440  221.5170 N   0  0  0  0  0  0  0  0  0  0  0  0
  140.4570   72.5150  222.5510 C   0  0  0  0  0  0  0  0  0  0  0  0
  140.1160   71.4700  223.4570 N   0  0  0  0  0  0  0  0  0  0  0  0
  138.9070   70.6830  223.3400 C   0  0  0  0  0  0  0  0  0  0  0  0
  139.1750   69.2470  223.7520 C   0  0  0  0  0  0  0  0  0  0  0  0
  139.6020   69.2640  225.1740 C   0  0  0  0  0  0  0  0  0  0  0  0
  139.1480   68.3960  226.1260 C   0  0  0  0  0  0  0  0  0  0  0  0
  139.5970   68.4750  227.4440 C   0  0  0  0  0  0  0  0  0  0  0  0
  140.5160   69.4400  227.8120 C   0  0  0  0  0  0  0  0  0  0  0  0
  140.9740   70.3180  226.8470 C   0  0  0  0  0  0  0  0  0  0  0  0
  140.5310   70.2470  225.5250 C   0  0  0  0  0  0  0  0  0  0  0  0
  141.0490   71.2020  224.5400 C   0  0  0  0  0  0  0  0  0  0  0  0
  139.9270   73.7600  222.7230 N   0  0  0  0  0  0  0  0  0  0  0  0
  140.2540   74.7480  221.8600 C   0  0  0  0  0  0  0  0  0  0  0  0
  139.6870   76.0390  222.0610 N   0  0  0  0  0  0  0  0  0  0  0  0
  138.2570   76.0950  222.2910 C   0  0  0  0  0  0  0  0  0  0  0  0
  137.6880   77.4580  222.3910 C   0  0  0  0  0  0  0  0  0  0  0  0
  138.5810   78.5120  222.8610 C   0  0  0  0  0  0  0  0  0  0  0  0
  138.0570   79.6330  223.4830 C   0  0  0  0  0  0  0  0  0  0  0  0
  138.8830   80.6520  223.9410 C   0  0  0  0  0  0  0  0  0  0  0  0
  140.2500   80.5280  223.7630 C   0  0  0  0  0  0  0  0  0  0  0  0
  140.7550   79.4010  223.1390 C   0  0  0  0  0  0  0  0  0  0  0  0
  139.9390   78.3860  222.6830 C   0  0  0  0  0  0  0  0  0  0  0  0
  140.5340   77.2180  222.0300 C   0  0  0  0  0  0  0  0  0  0  0  0
  141.0910   74.5220  220.8370 N   0  0  0  0  0  0  0  0  0  0  0  0
  143.1010   71.6000  219.5800 C   0  0  0  0  0  0  0  0  0  0  0  0
  144.6010   71.5640  219.7250 C   0  0  0  0  0  0  0  0  0  0  0  0
  145.3770   70.7690  217.5450 H   0  0  0  0  0  0  0  0  0  0  0  0
  145.7910   72.1880  216.7660 H   0  0  0  0  0  0  0  0  0  0  0  0
  146.1531   72.8798  219.3111 H   0  0  0  0  0  0  0  0  0  0  0  0
  143.8153   73.1859  217.3963 H   0  0  0  0  0  0  0  0  0  0  0  0
  145.0829   74.3601  217.7660 H   0  0  0  0  0  0  0  0  0  0  0  0
  143.2140   75.0285  219.1778 H   0  0  0  0  0  0  0  0  0  0  0  0
  144.2543   74.1483  220.2966 H   0  0  0  0  0  0  0  0  0  0  0  0
  141.9154   73.0355  218.6496 H   0  0  0  0  0  0  0  0  0  0  0  0
  138.1311   71.1096  223.9927 H   0  0  0  0  0  0  0  0  0  0  0  0
  138.5678   70.6991  222.2937 H   0  0  0  0  0  0  0  0  0  0  0  0
  138.2594   68.6473  223.6417 H   0  0  0  0  0  0  0  0  0  0  0  0
  139.9554   68.8008  223.1180 H   0  0  0  0  0  0  0  0  0  0  0  0
  138.4167   67.6225  225.8487 H   0  0  0  0  0  0  0  0  0  0  0  0
  139.2180   67.7658  228.1946 H   0  0  0  0  0  0  0  0  0  0  0  0
  140.8750   69.5078  228.8496 H   0  0  0  0  0  0  0  0  0  0  0  0
  141.7048   71.0908  227.1276 H   0  0  0  0  0  0  0  0  0  0  0  0
  141.2698   72.1492  225.0538 H   0  0  0  0  0  0  0  0  0  0  0  0
  141.9493   70.7551  224.0931 H   0  0  0  0  0  0  0  0  0  0  0  0
  137.7578   75.5780  221.4582 H   0  0  0  0  0  0  0  0  0  0  0  0
  138.0860   75.6202  223.2684 H   0  0  0  0  0  0  0  0  0  0  0  0
  137.3332   77.7445  221.3900 H   0  0  0  0  0  0  0  0  0  0  0  0
  136.9013   77.3855  223.1564 H   0  0  0  0  0  0  0  0  0  0  0  0
  136.9685   79.7180  223.6167 H   0  0  0  0  0  0  0  0  0  0  0  0
  138.4593   81.5389  224.4348 H   0  0  0  0  0  0  0  0  0  0  0  0
  140.9291   81.3187  224.1146 H   0  0  0  0  0  0  0  0  0  0  0  0
  141.8427   79.3112  223.0020 H   0  0  0  0  0  0  0  0  0  0  0  0
  140.7366   77.4729  220.9793 H   0  0  0  0  0  0  0  0  0  0  0  0
  141.4507   76.9707  222.5854 H   0  0  0  0  0  0  0  0  0  0  0  0
  142.8276   71.0940  218.6423 H   0  0  0  0  0  0  0  0  0  0  0  0
  142.6741   71.0957  220.4595 H   0  0  0  0  0  0  0  0  0  0  0  0
  144.9363   70.5249  219.5913 H   0  0  0  0  0  0  0  0  0  0  0  0
  144.8330   71.9594  220.7249 H   0  0  0  0  0  0  0  0  0  0  0  0
  1  2  1  0
  2  3  1  0
  3  4  1  0
  4  5  1  0
  5  6  1  0
  6  7  2  0
  7  8  1  0
  8  9  1  0
  9 10  1  0
 10 11  1  0
 11 12  1  0
 12 13  2  0
 13 14  1  0
 14 15  2  0
 15 16  1  0
 16 17  2  0
 17 18  1  0
  8 19  2  0
 19 20  1  0
 20 21  1  0
 21 22  1  0
 22 23  1  0
 23 24  1  0
 24 25  2  0
 25 26  1  0
 26 27  2  0
 27 28  1  0
 28 29  2  0
 29 30  1  0
 20 31  2  0
  5 32  1  0
 32 33  1  0
 33  2  1  0
 31  6  1  0
 18  9  1  0
 30 21  1  0
 17 12  1  0
 29 24  1  0
  1 34  1  0
  1 35  1  0
  2 36  1  1
  3 37  1  0
  3 38  1  0
  4 39  1  0
  4 40  1  0
  5 41  1  6
 10 42  1  0
 10 43  1  0
 11 44  1  0
 11 45  1  0
 13 46  1  0
 14 47  1  0
 15 48  1  0
 16 49  1  0
 18 50  1  0
 18 51  1  0
 22 52  1  0
 22 53  1  0
 23 54  1  0
 23 55  1  0
 25 56  1  0
 26 57  1  0
 27 58  1  0
 28 59  1  0
 30 60  1  0
 30 61  1  0
 32 62  1  0
 32 63  1  0
 33 64  1  0
 33 65  1  0
M  END
>  <smiles>  (13) 
N[C@H]1CC[C@H](c2nc(N3CCc4ccccc4C3)nc(N3CCc4ccccc4C3)n2)CC1

>  <score_type>  (13) 
oracle

>  <origin>  (13) 
autodockgpu

>  <m_score__min__energy>  (13) 
-9.5800000000000001

>  <m_primary>  (13) 
energy

>  <rmsd>  (13) 
11.06935016310344

>  <m_score__min__rmsd>  (13) 
11.06935016310344

>  <meeko>  (13) 
{"free_energy": -9.35, "intermolecular_energy": -10.55, "internal_energy": -0.94, "cluster_size": 50, "cluster_id": 1, "rank_in_cluster": 42}

>  <energy>  (13) 
-9.53

>  <cluster_rmsd>  (13) 
1.15

>  <cluster>  (13) 
1

$$$$

     RDKit          3D

 65 70  0  0  0  0  0  0  0  0999 V2000
  146.2900   73.4380  217.7270 N   0  0  0  0  0  0  0  0  0  0  0  0
  145.2610   73.0190  218.6560 C   0  0  1  0  0  0  0  0  0  0  0  0
  145.5630   73.5160  220.0570 C   0  0  0  0  0  0  0  0  0  0  0  0
  144.2710   73.3130  220.8440 C   0  0  0  0  0  0  0  0  0  0  0  0
  143.3620   74.4590  220.4040 C   0  0  2  0  0  0  0  0  0  0  0  0
  142.0560   74.4430  221.0840 C   0  0  0  0  0  0  0  0  0  0  0  0
  141.6120   73.2980  221.6190 N   0  0  0  0  0  0  0  0  0  0  0  0
  140.4470   73.1670  222.2580 C   0  0  0  0  0  0  0  0  0  0  0  0
  140.0010   71.9360  222.8180 N   0  0  0  0  0  0  0  0  0  0  0  0
  138.9110   71.1620  222.2640 C   0  0  0  0  0  0  0  0  0  0  0  0
  139.1950   69.6780  222.4110 C   0  0  0  0  0  0  0  0  0  0  0  0
  139.3000   69.3870  223.8630 C   0  0  0  0  0  0  0  0  0  0  0  0
  138.7190   68.3160  224.4790 C   0  0  0  0  0  0  0  0  0  0  0  0
  138.8640   68.1090  225.8510 C   0  0  0  0  0  0  0  0  0  0  0  0
  139.6020   68.9920  226.6150 C   0  0  0  0  0  0  0  0  0  0  0  0
  140.1900   70.0760  225.9910 C   0  0  0  0  0  0  0  0  0  0  0  0
  140.0510   70.2920  224.6180 C   0  0  0  0  0  0  0  0  0  0  0  0
  140.6940   71.4580  224.0040 C   0  0  0  0  0  0  0  0  0  0  0  0
  139.6670   74.2810  222.3630 N   0  0  0  0  0  0  0  0  0  0  0  0
  140.0970   75.4470  221.8290 C   0  0  0  0  0  0  0  0  0  0  0  0
  139.2640   76.5960  221.9520 N   0  0  0  0  0  0  0  0  0  0  0  0
  137.8480   76.4050  221.7080 C   0  0  0  0  0  0  0  0  0  0  0  0
  137.0310   77.6390  221.7420 C   0  0  0  0  0  0  0  0  0  0  0  0
  137.5250   78.7330  222.5720 C   0  0  0  0  0  0  0  0  0  0  0  0
  136.6350   79.6610  223.0890 C   0  0  0  0  0  0  0  0  0  0  0  0
  137.0760   80.7130  223.8810 C   0  0  0  0  0  0  0  0  0  0  0  0
  138.4300   80.8210  224.1470 C   0  0  0  0  0  0  0  0  0  0  0  0
  139.3030   79.8850  223.6210 C   0  0  0  0  0  0  0  0  0  0  0  0
  138.8700   78.8380  222.8340 C   0  0  0  0  0  0  0  0  0  0  0  0
  139.8440   77.8790  222.3070 C   0  0  0  0  0  0  0  0  0  0  0  0
  141.2770   75.5240  221.1970 N   0  0  0  0  0  0  0  0  0  0  0  0
  143.2850   74.5660  218.9090 C   0  0  0  0  0  0  0  0  0  0  0  0
  143.8790   73.3750  218.2000 C   0  0  0  0  0  0  0  0  0  0  0  0
  145.9090   74.2560  217.1640 H   0  0  0  0  0  0  0  0  0  0  0  0
  147.0920   73.8330  218.2670 H   0  0  0  0  0  0  0  0  0  0  0  0
  145.2775   71.9195  218.6846 H   0  0  0  0  0  0  0  0  0  0  0  0
  145.8386   74.5807  220.0370 H   0  0  0  0  0  0  0  0  0  0  0  0
  146.4080   72.9768  220.5100 H   0  0  0  0  0  0  0  0  0  0  0  0
  144.4639   73.3649  221.9257 H   0  0  0  0  0  0  0  0  0  0  0  0
  143.8193   72.3282  220.6538 H   0  0  0  0  0  0  0  0  0  0  0  0
  143.8286   75.3971  220.7390 H   0  0  0  0  0  0  0  0  0  0  0  0
  137.9816   71.4089  222.7982 H   0  0  0  0  0  0  0  0  0  0  0  0
  138.8054   71.4035  221.1961 H   0  0  0  0  0  0  0  0  0  0  0  0
  138.3753   69.0928  221.9687 H   0  0  0  0  0  0  0  0  0  0  0  0
  140.1269   69.4080  221.8927 H   0  0  0  0  0  0  0  0  0  0  0  0
  138.1271   67.6050  223.8840 H   0  0  0  0  0  0  0  0  0  0  0  0
  138.3884   67.2386  226.3266 H   0  0  0  0  0  0  0  0  0  0  0  0
  139.7193   68.8357  227.6975 H   0  0  0  0  0  0  0  0  0  0  0  0
  140.7811   70.7850  226.5894 H   0  0  0  0  0  0  0  0  0  0  0  0
  140.7226   72.2715  224.7439 H   0  0  0  0  0  0  0  0  0  0  0  0
  141.7021   71.1484  223.6911 H   0  0  0  0  0  0  0  0  0  0  0  0
  137.7325   75.9476  220.7143 H   0  0  0  0  0  0  0  0  0  0  0  0
  137.4793   75.7718  222.5285 H   0  0  0  0  0  0  0  0  0  0  0  0
  136.9511   78.0136  220.7108 H   0  0  0  0  0  0  0  0  0  0  0  0
  136.0764   77.3395  222.1992 H   0  0  0  0  0  0  0  0  0  0  0  0
  135.5618   79.5627  222.8684 H   0  0  0  0  0  0  0  0  0  0  0  0
  136.3638   81.4455  224.2886 H   0  0  0  0  0  0  0  0  0  0  0  0
  138.8088   81.6438  224.7711 H   0  0  0  0  0  0  0  0  0  0  0  0
  140.3774   79.9789  223.8375 H   0  0  0  0  0  0  0  0  0  0  0  0
  140.3067   78.3120  221.4079 H   0  0  0  0  0  0  0  0  0  0  0  0
  140.5764   77.6915  223.1060 H   0  0  0  0  0  0  0  0  0  0  0  0
  143.8294   75.4684  218.5940 H   0  0  0  0  0  0  0  0  0  0  0  0
  142.2200   74.6121  218.6376 H   0  0  0  0  0  0  0  0  0  0  0  0
  143.9169   73.5973  217.1234 H   0  0  0  0  0  0  0  0  0  0  0  0
  143.2360   72.5135  218.4332 H   0  0  0  0  0  0  0  0  0  0  0  0
  1  2  1  0
  2  3  1  0
  3  4  1  0
  4  5  1  0
  5  6  1  0
  6  7  2  0
  7  8  1  0
  8  9  1  0
  9 10  1  0
 10 11  1  0
 11 12  1  0
 12 13  2  0
 13 14  1  0
 14 15  2  0
 15 16  1  0
 16 17  2  0
 17 18  1  0
  8 19  2  0
 19 20  1  0
 20 21  1  0
 21 22  1  0
 22 23  1  0
 23 24  1  0
 24 25  2  0
 25 26  1  0
 26 27  2  0
 27 28  1  0
 28 29  2  0
 29 30  1  0
 20 31  2  0
  5 32  1  0
 32 33  1  0
 33  2  1  0
 31  6  1  0
 18  9  1  0
 30 21  1  0
 17 12  1  0
 29 24  1  0
  1 34  1  0
  1 35  1  0
  2 36  1  1
  3 37  1  0
  3 38  1  0
  4 39  1  0
  4 40  1  0
  5 41  1  1
 10 42  1  0
 10 43  1  0
 11 44  1  0
 11 45  1  0
 13 46  1  0
 14 47  1  0
 15 48  1  0
 16 49  1  0
 18 50  1  0
 18 51  1  0
 22 52  1  0
 22 53  1  0
 23 54  1  0
 23 55  1  0
 25 56  1  0
 26 57  1  0
 27 58  1  0
 28 59  1  0
 30 60  1  0
 30 61  1  0
 32 62  1  0
 32 63  1  0
 33 64  1  0
 33 65  1  0
M  END
>  <smiles>  (14) 
N[C@H]1CC[C@H](c2nc(N3CCc4ccccc4C3)nc(N3CCc4ccccc4C3)n2)CC1

>  <score_type>  (14) 
oracle

>  <origin>  (14) 
autodockgpu

>  <m_score__min__energy>  (14) 
-9.5800000000000001

>  <m_primary>  (14) 
energy

>  <rmsd>  (14) 
10.505197783378037

>  <m_score__min__rmsd>  (14) 
10.505197783378037

>  <meeko>  (14) 
{"free_energy": -9.57, "intermolecular_energy": -10.76, "internal_energy": -0.94, "cluster_size": 50, "cluster_id": 1, "rank_in_cluster": 6}

>  <energy>  (14) 
-9.53

>  <cluster_rmsd>  (14) 
0.22

>  <cluster>  (14) 
1

$$$$

     RDKit          3D

 65 70  0  0  0  0  0  0  0  0999 V2000
  146.1160   69.6820  217.8470 N   0  0  0  0  0  0  0  0  0  0  0  0
  145.6480   70.4110  219.0080 C   0  0  1  0  0  0  0  0  0  0  0  0
  145.5680   71.8970  218.7170 C   0  0  0  0  0  0  0  0  0  0  0  0
  144.7570   72.4910  219.8660 C   0  0  0  0  0  0  0  0  0  0  0  0
  143.3070   72.1330  219.5460 C   0  0  2  0  0  0  0  0  0  0  0  0
  142.3590   72.6500  220.5480 C   0  0  0  0  0  0  0  0  0  0  0  0
  142.0870   73.9610  220.5750 N   0  0  0  0  0  0  0  0  0  0  0  0
  141.2460   74.5380  221.4360 C   0  0  0  0  0  0  0  0  0  0  0  0
  140.9750   75.9360  221.4410 N   0  0  0  0  0  0  0  0  0  0  0  0
  140.6160   76.6770  220.2510 C   0  0  0  0  0  0  0  0  0  0  0  0
  139.6020   77.7550  220.5910 C   0  0  0  0  0  0  0  0  0  0  0  0
  140.2440   78.6800  221.5580 C   0  0  0  0  0  0  0  0  0  0  0  0
  140.1720   80.0420  221.4860 C   0  0  0  0  0  0  0  0  0  0  0  0
  140.8030   80.8470  222.4350 C   0  0  0  0  0  0  0  0  0  0  0  0
  141.5180   80.2750  223.4710 C   0  0  0  0  0  0  0  0  0  0  0  0
  141.5910   78.8970  223.5420 C   0  0  0  0  0  0  0  0  0  0  0  0
  140.9620   78.0830  222.5970 C   0  0  0  0  0  0  0  0  0  0  0  0
  141.0700   76.6250  222.7180 C   0  0  0  0  0  0  0  0  0  0  0  0
  140.6320   73.7250  222.3440 N   0  0  0  0  0  0  0  0  0  0  0  0
  140.8930   72.3990  222.3330 C   0  0  0  0  0  0  0  0  0  0  0  0
  140.2390   71.5720  223.2910 N   0  0  0  0  0  0  0  0  0  0  0  0
  139.1260   70.7750  222.8140 C   0  0  0  0  0  0  0  0  0  0  0  0
  138.4070   70.0090  223.8560 C   0  0  0  0  0  0  0  0  0  0  0  0
  139.1730   69.6250  225.0370 C   0  0  0  0  0  0  0  0  0  0  0  0
  138.7960   68.5120  225.7710 C   0  0  0  0  0  0  0  0  0  0  0  0
  139.5060   68.1220  226.9000 C   0  0  0  0  0  0  0  0  0  0  0  0
  140.6050   68.8710  227.2830 C   0  0  0  0  0  0  0  0  0  0  0  0
  140.9660   69.9800  226.5370 C   0  0  0  0  0  0  0  0  0  0  0  0
  140.2640   70.3700  225.4160 C   0  0  0  0  0  0  0  0  0  0  0  0
  140.6970   71.5540  224.6690 C   0  0  0  0  0  0  0  0  0  0  0  0
  141.7470   71.8700  221.4450 N   0  0  0  0  0  0  0  0  0  0  0  0
  143.1490   70.6750  219.2310 C   0  0  0  0  0  0  0  0  0  0  0  0
  144.3730   69.8610  219.5710 C   0  0  0  0  0  0  0  0  0  0  0  0
  147.0730   69.2800  218.0780 H   0  0  0  0  0  0  0  0  0  0  0  0
  145.5020   68.8510  217.7010 H   0  0  0  0  0  0  0  0  0  0  0  0
  146.3952   70.2699  219.8028 H   0  0  0  0  0  0  0  0  0  0  0  0
  145.0621   72.0746  217.7565 H   0  0  0  0  0  0  0  0  0  0  0  0
  146.5658   72.3537  218.6411 H   0  0  0  0  0  0  0  0  0  0  0  0
  144.8864   73.5825  219.9079 H   0  0  0  0  0  0  0  0  0  0  0  0
  145.0750   72.1006  220.8440 H   0  0  0  0  0  0  0  0  0  0  0  0
  143.0339   72.6599  218.6198 H   0  0  0  0  0  0  0  0  0  0  0  0
  141.5172   77.1458  219.8291 H   0  0  0  0  0  0  0  0  0  0  0  0
  140.1738   75.9865  219.5177 H   0  0  0  0  0  0  0  0  0  0  0  0
  139.3157   78.3022  219.6807 H   0  0  0  0  0  0  0  0  0  0  0  0
  138.6934   77.3107  221.0235 H   0  0  0  0  0  0  0  0  0  0  0  0
  139.6076   80.5117  220.6669 H   0  0  0  0  0  0  0  0  0  0  0  0
  140.7313   81.9420  222.3586 H   0  0  0  0  0  0  0  0  0  0  0  0
  142.0181   80.9035  224.2226 H   0  0  0  0  0  0  0  0  0  0  0  0
  142.1574   78.4303  224.3614 H   0  0  0  0  0  0  0  0  0  0  0  0
  142.0411   76.3830  223.1745 H   0  0  0  0  0  0  0  0  0  0  0  0
  140.2265   76.2848  223.3367 H   0  0  0  0  0  0  0  0  0  0  0  0
  138.4055   71.4514  222.3309 H   0  0  0  0  0  0  0  0  0  0  0  0
  139.5561   70.0292  222.1293 H   0  0  0  0  0  0  0  0  0  0  0  0
  137.5591   70.6226  224.1944 H   0  0  0  0  0  0  0  0  0  0  0  0
  138.1268   69.0608  223.3740 H   0  0  0  0  0  0  0  0  0  0  0  0
  137.9197   67.9271  225.4546 H   0  0  0  0  0  0  0  0  0  0  0  0
  139.2010   67.2366  227.4772 H   0  0  0  0  0  0  0  0  0  0  0  0
  141.1867   68.5876  228.1726 H   0  0  0  0  0  0  0  0  0  0  0  0
  141.8411   70.5691  226.8486 H   0  0  0  0  0  0  0  0  0  0  0  0
  140.3060   72.4479  225.1771 H   0  0  0  0  0  0  0  0  0  0  0  0
  141.7965   71.5346  224.6431 H   0  0  0  0  0  0  0  0  0  0  0  0
  142.9457   70.5691  218.1552 H   0  0  0  0  0  0  0  0  0  0  0  0
  142.3201   70.2941  219.8457 H   0  0  0  0  0  0  0  0  0  0  0  0
  144.2318   68.8436  219.1773 H   0  0  0  0  0  0  0  0  0  0  0  0
  144.4743   69.8819  220.6661 H   0  0  0  0  0  0  0  0  0  0  0  0
  1  2  1  0
  2  3  1  0
  3  4  1  0
  4  5  1  0
  5  6  1  0
  6  7  2  0
  7  8  1  0
  8  9  1  0
  9 10  1  0
 10 11  1  0
 11 12  1  0
 12 13  2  0
 13 14  1  0
 14 15  2  0
 15 16  1  0
 16 17  2  0
 17 18  1  0
  8 19  2  0
 19 20  1  0
 20 21  1  0
 21 22  1  0
 22 23  1  0
 23 24  1  0
 24 25  2  0
 25 26  1  0
 26 27  2  0
 27 28  1  0
 28 29  2  0
 29 30  1  0
 20 31  2  0
  5 32  1  0
 32 33  1  0
 33  2  1  0
 31  6  1  0
 18  9  1  0
 30 21  1  0
 17 12  1  0
 29 24  1  0
  1 34  1  0
  1 35  1  0
  2 36  1  1
  3 37  1  0
  3 38  1  0
  4 39  1  0
  4 40  1  0
  5 41  1  6
 10 42  1  0
 10 43  1  0
 11 44  1  0
 11 45  1  0
 13 46  1  0
 14 47  1  0
 15 48  1  0
 16 49  1  0
 18 50  1  0
 18 51  1  0
 22 52  1  0
 22 53  1  0
 23 54  1  0
 23 55  1  0
 25 56  1  0
 26 57  1  0
 27 58  1  0
 28 59  1  0
 30 60  1  0
 30 61  1  0
 32 62  1  0
 32 63  1  0
 33 64  1  0
 33 65  1  0
M  END
>  <smiles>  (15) 
N[C@H]1CC[C@H](c2nc(N3CCc4ccccc4C3)nc(N3CCc4ccccc4C3)n2)CC1

>  <score_type>  (15) 
oracle

>  <origin>  (15) 
autodockgpu

>  <m_score__min__energy>  (15) 
-9.5800000000000001

>  <m_primary>  (15) 
energy

>  <rmsd>  (15) 
4.672123236104226

>  <m_score__min__rmsd>  (15) 
4.672123236104226

>  <meeko>  (15) 
{"free_energy": -9.49, "intermolecular_energy": -10.68, "internal_energy": -0.92, "cluster_size": 50, "cluster_id": 1, "rank_in_cluster": 25}

>  <energy>  (15) 
-9.53

>  <cluster_rmsd>  (15) 
0.09

>  <cluster>  (15) 
1

$$$$

     RDKit          3D

 65 70  0  0  0  0  0  0  0  0999 V2000
  146.1350   73.3070  217.5360 N   0  0  0  0  0  0  0  0  0  0  0  0
  144.8210   73.6700  218.0250 C   0  0  1  0  0  0  0  0  0  0  0  0
  143.8270   72.5490  217.7860 C   0  0  0  0  0  0  0  0  0  0  0  0
  142.6070   72.9050  218.6320 C   0  0  0  0  0  0  0  0  0  0  0  0
  143.0020   72.5370  220.0610 C   0  0  2  0  0  0  0  0  0  0  0  0
  141.9260   72.7920  221.0330 C   0  0  0  0  0  0  0  0  0  0  0  0
  141.3880   74.0170  221.1050 N   0  0  0  0  0  0  0  0  0  0  0  0
  140.4100   74.3620  221.9450 C   0  0  0  0  0  0  0  0  0  0  0  0
  139.8550   75.6730  221.9990 N   0  0  0  0  0  0  0  0  0  0  0  0
  138.5040   75.9790  221.5810 C   0  0  0  0  0  0  0  0  0  0  0  0
  137.9090   77.0510  222.4760 C   0  0  0  0  0  0  0  0  0  0  0  0
  138.7450   78.2680  222.3290 C   0  0  0  0  0  0  0  0  0  0  0  0
  138.2480   79.5320  222.1800 C   0  0  0  0  0  0  0  0  0  0  0  0
  139.1000   80.6280  222.0470 C   0  0  0  0  0  0  0  0  0  0  0  0
  140.4710   80.4540  222.0630 C   0  0  0  0  0  0  0  0  0  0  0  0
  140.9730   79.1740  222.2130 C   0  0  0  0  0  0  0  0  0  0  0  0
  140.1290   78.0700  222.3470 C   0  0  0  0  0  0  0  0  0  0  0  0
  140.7110   76.7330  222.5040 C   0  0  0  0  0  0  0  0  0  0  0  0
  139.9380   73.3920  222.7810 N   0  0  0  0  0  0  0  0  0  0  0  0
  140.4680   72.1490  222.7240 C   0  0  0  0  0  0  0  0  0  0  0  0
  139.9590   71.1540  223.6080 N   0  0  0  0  0  0  0  0  0  0  0  0
  139.3560   69.9860  222.9970 C   0  0  0  0  0  0  0  0  0  0  0  0
  138.7460   69.0240  223.9420 C   0  0  0  0  0  0  0  0  0  0  0  0
  139.3040   68.9820  225.2900 C   0  0  0  0  0  0  0  0  0  0  0  0
  139.2000   67.8230  226.0410 C   0  0  0  0  0  0  0  0  0  0  0  0
  139.7220   67.7530  227.3280 C   0  0  0  0  0  0  0  0  0  0  0  0
  140.3520   68.8700  227.8490 C   0  0  0  0  0  0  0  0  0  0  0  0
  140.4450   70.0180  227.0820 C   0  0  0  0  0  0  0  0  0  0  0  0
  139.9290   70.0920  225.8050 C   0  0  0  0  0  0  0  0  0  0  0  0
  140.0600   71.3370  225.0440 C   0  0  0  0  0  0  0  0  0  0  0  0
  141.4500   71.8560  221.8600 N   0  0  0  0  0  0  0  0  0  0  0  0
  144.3330   73.1180  220.4380 C   0  0  0  0  0  0  0  0  0  0  0  0
  144.8340   74.1400  219.4480 C   0  0  0  0  0  0  0  0  0  0  0  0
  146.0560   73.1280  216.4900 H   0  0  0  0  0  0  0  0  0  0  0  0
  146.7660   74.1340  217.6200 H   0  0  0  0  0  0  0  0  0  0  0  0
  144.4855   74.5394  217.4406 H   0  0  0  0  0  0  0  0  0  0  0  0
  144.2494   71.5849  218.1055 H   0  0  0  0  0  0  0  0  0  0  0  0
  143.5718   72.4474  216.7208 H   0  0  0  0  0  0  0  0  0  0  0  0
  141.7298   72.3242  218.3107 H   0  0  0  0  0  0  0  0  0  0  0  0
  142.3315   73.9657  218.5375 H   0  0  0  0  0  0  0  0  0  0  0  0
  143.1413   71.4463  220.0937 H   0  0  0  0  0  0  0  0  0  0  0  0
  138.5179   76.3396  220.5419 H   0  0  0  0  0  0  0  0  0  0  0  0
  137.8906   75.0689  221.6542 H   0  0  0  0  0  0  0  0  0  0  0  0
  136.8750   77.2660  222.1683 H   0  0  0  0  0  0  0  0  0  0  0  0
  137.8923   76.7162  223.5237 H   0  0  0  0  0  0  0  0  0  0  0  0
  137.1592   79.6875  222.1647 H   0  0  0  0  0  0  0  0  0  0  0  0
  138.6783   81.6371  221.9286 H   0  0  0  0  0  0  0  0  0  0  0  0
  141.1480   81.3147  221.9587 H   0  0  0  0  0  0  0  0  0  0  0  0
  142.0624   79.0223  222.2270 H   0  0  0  0  0  0  0  0  0  0  0  0
  141.6657   76.7011  221.9586 H   0  0  0  0  0  0  0  0  0  0  0  0
  140.8448   76.5594  223.5819 H   0  0  0  0  0  0  0  0  0  0  0  0
  138.5710   70.3298  222.3074 H   0  0  0  0  0  0  0  0  0  0  0  0
  140.1742   69.4462  222.4978 H   0  0  0  0  0  0  0  0  0  0  0  0
  137.6790   69.2762  224.0312 H   0  0  0  0  0  0  0  0  0  0  0  0
  138.9509   68.0314  223.5146 H   0  0  0  0  0  0  0  0  0  0  0  0
  138.6965   66.9438  225.6126 H   0  0  0  0  0  0  0  0  0  0  0  0
  139.6361   66.8295  227.9195 H   0  0  0  0  0  0  0  0  0  0  0  0
  140.7751   68.8453  228.8641 H   0  0  0  0  0  0  0  0  0  0  0  0
  140.9471   70.9008  227.5047 H   0  0  0  0  0  0  0  0  0  0  0  0
  139.2637   72.0253  225.3636 H   0  0  0  0  0  0  0  0  0  0  0  0
  141.0647   71.7355  225.2483 H   0  0  0  0  0  0  0  0  0  0  0  0
  145.0669   72.3010  220.4995 H   0  0  0  0  0  0  0  0  0  0  0  0
  144.2058   73.6307  221.4029 H   0  0  0  0  0  0  0  0  0  0  0  0
  145.8681   74.4026  219.7158 H   0  0  0  0  0  0  0  0  0  0  0  0
  144.1496   74.9993  219.5049 H   0  0  0  0  0  0  0  0  0  0  0  0
  1  2  1  0
  2  3  1  0
  3  4  1  0
  4  5  1  0
  5  6  1  0
  6  7  2  0
  7  8  1  0
  8  9  1  0
  9 10  1  0
 10 11  1  0
 11 12  1  0
 12 13  2  0
 13 14  1  0
 14 15  2  0
 15 16  1  0
 16 17  2  0
 17 18  1  0
  8 19  2  0
 19 20  1  0
 20 21  1  0
 21 22  1  0
 22 23  1  0
 23 24  1  0
 24 25  2  0
 25 26  1  0
 26 27  2  0
 27 28  1  0
 28 29  2  0
 29 30  1  0
 20 31  2  0
  5 32  1  0
 32 33  1  0
 33  2  1  0
 31  6  1  0
 18  9  1  0
 30 21  1  0
 17 12  1  0
 29 24  1  0
  1 34  1  0
  1 35  1  0
  2 36  1  6
  3 37  1  0
  3 38  1  0
  4 39  1  0
  4 40  1  0
  5 41  1  6
 10 42  1  0
 10 43  1  0
 11 44  1  0
 11 45  1  0
 13 46  1  0
 14 47  1  0
 15 48  1  0
 16 49  1  0
 18 50  1  0
 18 51  1  0
 22 52  1  0
 22 53  1  0
 23 54  1  0
 23 55  1  0
 25 56  1  0
 26 57  1  0
 27 58  1  0
 28 59  1  0
 30 60  1  0
 30 61  1  0
 32 62  1  0
 32 63  1  0
 33 64  1  0
 33 65  1  0
M  END
>  <smiles>  (16) 
N[C@H]1CC[C@H](c2nc(N3CCc4ccccc4C3)nc(N3CCc4ccccc4C3)n2)CC1

>  <score_type>  (16) 
oracle

>  <origin>  (16) 
autodockgpu

>  <m_score__min__energy>  (16) 
-9.5800000000000001

>  <m_primary>  (16) 
energy

>  <rmsd>  (16) 
4.63752772102487

>  <m_score__min__rmsd>  (16) 
4.63752772102487

>  <meeko>  (16) 
{"free_energy": -9.35, "intermolecular_energy": -10.54, "internal_energy": -0.94, "cluster_size": 50, "cluster_id": 1, "rank_in_cluster": 44}

>  <energy>  (16) 
-9.53

>  <cluster_rmsd>  (16) 
1.18

>  <cluster>  (16) 
1

$$$$

     RDKit          3D

 65 70  0  0  0  0  0  0  0  0999 V2000
  146.2900   73.0470  217.7210 N   0  0  0  0  0  0  0  0  0  0  0  0
  145.0570   73.5960  218.2460 C   0  0  1  0  0  0  0  0  0  0  0  0
  143.8630   72.7850  217.7800 C   0  0  0  0  0  0  0  0  0  0  0  0
  142.6990   73.2420  218.6560 C   0  0  0  0  0  0  0  0  0  0  0  0
  142.9210   72.5430  219.9960 C   0  0  2  0  0  0  0  0  0  0  0  0
  141.8680   72.8500  220.9790 C   0  0  0  0  0  0  0  0  0  0  0  0
  141.5050   71.9110  221.8630 N   0  0  0  0  0  0  0  0  0  0  0  0
  140.5660   72.0770  222.7960 C   0  0  0  0  0  0  0  0  0  0  0  0
  140.2020   71.0600  223.7240 N   0  0  0  0  0  0  0  0  0  0  0  0
  138.9750   70.2990  223.6240 C   0  0  0  0  0  0  0  0  0  0  0  0
  139.2100   68.8660  224.0670 C   0  0  0  0  0  0  0  0  0  0  0  0
  139.6370   68.9040  225.4880 C   0  0  0  0  0  0  0  0  0  0  0  0
  139.1630   68.0680  226.4580 C   0  0  0  0  0  0  0  0  0  0  0  0
  139.6150   68.1650  227.7740 C   0  0  0  0  0  0  0  0  0  0  0  0
  140.5560   69.1150  228.1220 C   0  0  0  0  0  0  0  0  0  0  0  0
  141.0340   69.9620  227.1390 C   0  0  0  0  0  0  0  0  0  0  0  0
  140.5890   69.8720  225.8180 C   0  0  0  0  0  0  0  0  0  0  0  0
  141.1280   70.7940  224.8130 C   0  0  0  0  0  0  0  0  0  0  0  0
  139.9410   73.2890  222.8400 N   0  0  0  0  0  0  0  0  0  0  0  0
  140.2920   74.2510  221.9560 C   0  0  0  0  0  0  0  0  0  0  0  0
  139.6250   75.5080  222.0220 N   0  0  0  0  0  0  0  0  0  0  0  0
  138.1760   75.4760  222.0560 C   0  0  0  0  0  0  0  0  0  0  0  0
  137.5160   76.8000  222.0190 C   0  0  0  0  0  0  0  0  0  0  0  0
  138.2700   77.9280  222.5560 C   0  0  0  0  0  0  0  0  0  0  0  0
  137.5980   79.0330  223.0530 C   0  0  0  0  0  0  0  0  0  0  0  0
  138.2900   80.1210  223.5700 C   0  0  0  0  0  0  0  0  0  0  0  0
  139.6730   80.0820  223.5820 C   0  0  0  0  0  0  0  0  0  0  0  0
  140.3270   78.9700  223.0820 C   0  0  0  0  0  0  0  0  0  0  0  0
  139.6440   77.8870  222.5670 C   0  0  0  0  0  0  0  0  0  0  0  0
  140.3940   76.7380  222.0520 C   0  0  0  0  0  0  0  0  0  0  0  0
  141.2440   74.0310  221.0370 N   0  0  0  0  0  0  0  0  0  0  0  0
  144.3200   72.7380  220.5000 C   0  0  0  0  0  0  0  0  0  0  0  0
  145.0850   73.7860  219.7320 C   0  0  0  0  0  0  0  0  0  0  0  0
  146.1460   72.8520  216.6850 H   0  0  0  0  0  0  0  0  0  0  0  0
  147.0290   73.7820  217.7570 H   0  0  0  0  0  0  0  0  0  0  0  0
  144.9503   74.6093  217.8314 H   0  0  0  0  0  0  0  0  0  0  0  0
  144.0500   71.7098  217.9179 H   0  0  0  0  0  0  0  0  0  0  0  0
  143.6559   72.9374  216.7105 H   0  0  0  0  0  0  0  0  0  0  0  0
  141.7388   72.9372  218.2144 H   0  0  0  0  0  0  0  0  0  0  0  0
  142.6622   74.3365  218.7598 H   0  0  0  0  0  0  0  0  0  0  0  0
  142.8224   71.4610  219.8244 H   0  0  0  0  0  0  0  0  0  0  0  0
  138.2095   70.7574  224.2673 H   0  0  0  0  0  0  0  0  0  0  0  0
  138.6357   70.3004  222.5776 H   0  0  0  0  0  0  0  0  0  0  0  0
  138.2809   68.2853  223.9692 H   0  0  0  0  0  0  0  0  0  0  0  0
  139.9799   68.3884  223.4432 H   0  0  0  0  0  0  0  0  0  0  0  0
  138.4132   67.3064  226.1976 H   0  0  0  0  0  0  0  0  0  0  0  0
  139.2199   67.4810  228.5395 H   0  0  0  0  0  0  0  0  0  0  0  0
  140.9169   69.1957  229.1580 H   0  0  0  0  0  0  0  0  0  0  0  0
  141.7818   70.7241  227.4034 H   0  0  0  0  0  0  0  0  0  0  0  0
  141.3699   71.7467  225.3067 H   0  0  0  0  0  0  0  0  0  0  0  0
  142.0178   70.3172  224.3761 H   0  0  0  0  0  0  0  0  0  0  0  0
  137.8278   74.8977  221.1875 H   0  0  0  0  0  0  0  0  0  0  0  0
  137.9029   75.0254  223.0216 H   0  0  0  0  0  0  0  0  0  0  0  0
  137.2830   77.0261  220.9680 H   0  0  0  0  0  0  0  0  0  0  0  0
  136.6391   76.7021  222.6758 H   0  0  0  0  0  0  0  0  0  0  0  0
  136.4982   79.0491  223.0379 H   0  0  0  0  0  0  0  0  0  0  0  0
  137.7496   80.9954  223.9617 H   0  0  0  0  0  0  0  0  0  0  0  0
  140.2480   80.9283  223.9858 H   0  0  0  0  0  0  0  0  0  0  0  0
  141.4267   78.9484  223.0954 H   0  0  0  0  0  0  0  0  0  0  0  0
  140.7222   76.9679  221.0276 H   0  0  0  0  0  0  0  0  0  0  0  0
  141.2399   76.5727  222.7354 H   0  0  0  0  0  0  0  0  0  0  0  0
  144.8579   71.7820  220.4184 H   0  0  0  0  0  0  0  0  0  0  0  0
  144.2480   73.0826  221.5421 H   0  0  0  0  0  0  0  0  0  0  0  0
  146.1334   73.7613  220.0639 H   0  0  0  0  0  0  0  0  0  0  0  0
  144.5974   74.7502  219.9382 H   0  0  0  0  0  0  0  0  0  0  0  0
  1  2  1  0
  2  3  1  0
  3  4  1  0
  4  5  1  0
  5  6  1  0
  6  7  2  0
  7  8  1  0
  8  9  1  0
  9 10  1  0
 10 11  1  0
 11 12  1  0
 12 13  2  0
 13 14  1  0
 14 15  2  0
 15 16  1  0
 16 17  2  0
 17 18  1  0
  8 19  2  0
 19 20  1  0
 20 21  1  0
 21 22  1  0
 22 23  1  0
 23 24  1  0
 24 25  2  0
 25 26  1  0
 26 27  2  0
 27 28  1  0
 28 29  2  0
 29 30  1  0
 20 31  2  0
  5 32  1  0
 32 33  1  0
 33  2  1  0
 31  6  1  0
 18  9  1  0
 30 21  1  0
 17 12  1  0
 29 24  1  0
  1 34  1  0
  1 35  1  0
  2 36  1  6
  3 37  1  0
  3 38  1  0
  4 39  1  0
  4 40  1  0
  5 41  1  6
 10 42  1  0
 10 43  1  0
 11 44  1  0
 11 45  1  0
 13 46  1  0
 14 47  1  0
 15 48  1  0
 16 49  1  0
 18 50  1  0
 18 51  1  0
 22 52  1  0
 22 53  1  0
 23 54  1  0
 23 55  1  0
 25 56  1  0
 26 57  1  0
 27 58  1  0
 28 59  1  0
 30 60  1  0
 30 61  1  0
 32 62  1  0
 32 63  1  0
 33 64  1  0
 33 65  1  0
M  END
>  <smiles>  (17) 
N[C@H]1CC[C@H](c2nc(N3CCc4ccccc4C3)nc(N3CCc4ccccc4C3)n2)CC1

>  <score_type>  (17) 
oracle

>  <origin>  (17) 
autodockgpu

>  <m_score__min__energy>  (17) 
-9.5800000000000001

>  <m_primary>  (17) 
energy

>  <rmsd>  (17) 
11.509449042096245

>  <m_score__min__rmsd>  (17) 
11.509449042096245

>  <meeko>  (17) 
{"free_energy": -9.48, "intermolecular_energy": -10.67, "internal_energy": -0.92, "cluster_size": 50, "cluster_id": 1, "rank_in_cluster": 28}

>  <energy>  (17) 
-9.52

>  <cluster_rmsd>  (17) 
1.17

>  <cluster>  (17) 
1

$$$$

     RDKit          3D

 65 70  0  0  0  0  0  0  0  0999 V2000
  146.0490   72.5480  217.4580 N   0  0  0  0  0  0  0  0  0  0  0  0
  145.2020   73.3540  218.3120 C   0  0  1  0  0  0  0  0  0  0  0  0
  143.8790   73.6530  217.6330 C   0  0  0  0  0  0  0  0  0  0  0  0
  142.9720   74.1930  218.7360 C   0  0  0  0  0  0  0  0  0  0  0  0
  142.5340   72.9580  219.5210 C   0  0  2  0  0  0  0  0  0  0  0  0
  141.6210   73.2830  220.6300 C   0  0  0  0  0  0  0  0  0  0  0  0
  141.2820   72.3220  221.4990 N   0  0  0  0  0  0  0  0  0  0  0  0
  140.4650   72.5010  222.5400 C   0  0  0  0  0  0  0  0  0  0  0  0
  140.1230   71.4600  223.4490 N   0  0  0  0  0  0  0  0  0  0  0  0
  138.9060   70.6840  223.3420 C   0  0  0  0  0  0  0  0  0  0  0  0
  139.1650   69.2460  223.7540 C   0  0  0  0  0  0  0  0  0  0  0  0
  139.6020   69.2600  225.1720 C   0  0  0  0  0  0  0  0  0  0  0  0
  139.1470   68.3980  226.1280 C   0  0  0  0  0  0  0  0  0  0  0  0
  139.6070   68.4750  227.4430 C   0  0  0  0  0  0  0  0  0  0  0  0
  140.5350   69.4320  227.8030 C   0  0  0  0  0  0  0  0  0  0  0  0
  140.9950   70.3050  226.8350 C   0  0  0  0  0  0  0  0  0  0  0  0
  140.5410   70.2360  225.5160 C   0  0  0  0  0  0  0  0  0  0  0  0
  141.0600   71.1860  224.5260 C   0  0  0  0  0  0  0  0  0  0  0  0
  139.9490   73.7520  222.7150 N   0  0  0  0  0  0  0  0  0  0  0  0
  140.2780   74.7360  221.8490 C   0  0  0  0  0  0  0  0  0  0  0  0
  139.7250   76.0330  222.0530 N   0  0  0  0  0  0  0  0  0  0  0  0
  138.3150   76.0960  222.3810 C   0  0  0  0  0  0  0  0  0  0  0  0
  137.7520   77.4620  222.4840 C   0  0  0  0  0  0  0  0  0  0  0  0
  138.6750   78.5270  222.8610 C   0  0  0  0  0  0  0  0  0  0  0  0
  138.1940   79.6650  223.4880 C   0  0  0  0  0  0  0  0  0  0  0  0
  139.0490   80.6960  223.8580 C   0  0  0  0  0  0  0  0  0  0  0  0
  140.4000   80.5660  223.5880 C   0  0  0  0  0  0  0  0  0  0  0  0
  140.8620   79.4220  222.9620 C   0  0  0  0  0  0  0  0  0  0  0  0
  140.0170   78.3960  222.5930 C   0  0  0  0  0  0  0  0  0  0  0  0
  140.5670   77.2090  221.9320 C   0  0  0  0  0  0  0  0  0  0  0  0
  141.1040   74.5020  220.8190 N   0  0  0  0  0  0  0  0  0  0  0  0
  143.7020   72.0990  219.9050 C   0  0  0  0  0  0  0  0  0  0  0  0
  145.0310   72.7750  219.6840 C   0  0  0  0  0  0  0  0  0  0  0  0
  145.4210   71.9210  216.8720 H   0  0  0  0  0  0  0  0  0  0  0  0
  146.5250   73.1720  216.7690 H   0  0  0  0  0  0  0  0  0  0  0  0
  145.7179   74.3128  218.4690 H   0  0  0  0  0  0  0  0  0  0  0  0
  143.4533   72.7365  217.1985 H   0  0  0  0  0  0  0  0  0  0  0  0
  143.9948   74.3723  216.8089 H   0  0  0  0  0  0  0  0  0  0  0  0
  142.1005   74.7068  218.3041 H   0  0  0  0  0  0  0  0  0  0  0  0
  143.4853   74.9289  219.3724 H   0  0  0  0  0  0  0  0  0  0  0  0
  141.9270   72.3362  218.8465 H   0  0  0  0  0  0  0  0  0  0  0  0
  138.1388   71.1182  223.9999 H   0  0  0  0  0  0  0  0  0  0  0  0
  138.5587   70.7020  222.2984 H   0  0  0  0  0  0  0  0  0  0  0  0
  138.2436   68.6540  223.6508 H   0  0  0  0  0  0  0  0  0  0  0  0
  139.9374   68.7931  223.1150 H   0  0  0  0  0  0  0  0  0  0  0  0
  138.4064   67.6310  225.8574 H   0  0  0  0  0  0  0  0  0  0  0  0
  139.2283   67.7694  228.1971 H   0  0  0  0  0  0  0  0  0  0  0  0
  140.9006   69.4983  228.8384 H   0  0  0  0  0  0  0  0  0  0  0  0
  141.7351   71.0711  227.1096 H   0  0  0  0  0  0  0  0  0  0  0  0
  141.2914   72.1321  225.0372 H   0  0  0  0  0  0  0  0  0  0  0  0
  141.9537   70.7312  224.0739 H   0  0  0  0  0  0  0  0  0  0  0  0
  137.7594   75.5570  221.5995 H   0  0  0  0  0  0  0  0  0  0  0  0
  138.2138   75.6479  223.3805 H   0  0  0  0  0  0  0  0  0  0  0  0
  137.3270   77.7216  221.5032 H   0  0  0  0  0  0  0  0  0  0  0  0
  137.0208   77.4110  223.3042 H   0  0  0  0  0  0  0  0  0  0  0  0
  137.1176   79.7538  223.6964 H   0  0  0  0  0  0  0  0  0  0  0  0
  138.6600   81.5968  224.3552 H   0  0  0  0  0  0  0  0  0  0  0  0
  141.1010   81.3659  223.8688 H   0  0  0  0  0  0  0  0  0  0  0  0
  141.9376   79.3275  222.7518 H   0  0  0  0  0  0  0  0  0  0  0  0
  140.6969   77.4351  220.8633 H   0  0  0  0  0  0  0  0  0  0  0  0
  141.5199   76.9756  222.4295 H   0  0  0  0  0  0  0  0  0  0  0  0
  143.6728   71.1789  219.3029 H   0  0  0  0  0  0  0  0  0  0  0  0
  143.6154   71.8897  220.9814 H   0  0  0  0  0  0  0  0  0  0  0  0
  145.8271   72.0339  219.8480 H   0  0  0  0  0  0  0  0  0  0  0  0
  145.0811   73.6156  220.3917 H   0  0  0  0  0  0  0  0  0  0  0  0
  1  2  1  0
  2  3  1  0
  3  4  1  0
  4  5  1  0
  5  6  1  0
  6  7  2  0
  7  8  1  0
  8  9  1  0
  9 10  1  0
 10 11  1  0
 11 12  1  0
 12 13  2  0
 13 14  1  0
 14 15  2  0
 15 16  1  0
 16 17  2  0
 17 18  1  0
  8 19  2  0
 19 20  1  0
 20 21  1  0
 21 22  1  0
 22 23  1  0
 23 24  1  0
 24 25  2  0
 25 26  1  0
 26 27  2  0
 27 28  1  0
 28 29  2  0
 29 30  1  0
 20 31  2  0
  5 32  1  0
 32 33  1  0
 33  2  1  0
 31  6  1  0
 18  9  1  0
 30 21  1  0
 17 12  1  0
 29 24  1  0
  1 34  1  0
  1 35  1  0
  2 36  1  1
  3 37  1  0
  3 38  1  0
  4 39  1  0
  4 40  1  0
  5 41  1  6
 10 42  1  0
 10 43  1  0
 11 44  1  0
 11 45  1  0
 13 46  1  0
 14 47  1  0
 15 48  1  0
 16 49  1  0
 18 50  1  0
 18 51  1  0
 22 52  1  0
 22 53  1  0
 23 54  1  0
 23 55  1  0
 25 56  1  0
 26 57  1  0
 27 58  1  0
 28 59  1  0
 30 60  1  0
 30 61  1  0
 32 62  1  0
 32 63  1  0
 33 64  1  0
 33 65  1  0
M  END
>  <smiles>  (18) 
N[C@H]1CC[C@H](c2nc(N3CCc4ccccc4C3)nc(N3CCc4ccccc4C3)n2)CC1

>  <score_type>  (18) 
oracle

>  <origin>  (18) 
autodockgpu

>  <m_score__min__energy>  (18) 
-9.5800000000000001

>  <m_primary>  (18) 
energy

>  <rmsd>  (18) 
11.072883221275573

>  <m_score__min__rmsd>  (18) 
11.072883221275573

>  <meeko>  (18) 
{"free_energy": -9.5, "intermolecular_energy": -10.7, "internal_energy": -0.94, "cluster_size": 50, "cluster_id": 1, "rank_in_cluster": 21}

>  <energy>  (18) 
-9.51

>  <cluster_rmsd>  (18) 
0.23

>  <cluster>  (18) 
1

$$$$

     RDKit          3D

 65 70  0  0  0  0  0  0  0  0999 V2000
  146.2390   70.1240  217.9780 N   0  0  0  0  0  0  0  0  0  0  0  0
  145.6710   70.6820  219.1870 C   0  0  1  0  0  0  0  0  0  0  0  0
  145.5490   72.1900  219.0810 C   0  0  0  0  0  0  0  0  0  0  0  0
  144.6450   72.6040  220.2390 C   0  0  0  0  0  0  0  0  0  0  0  0
  143.2330   72.2450  219.7820 C   0  0  2  0  0  0  0  0  0  0  0  0
  142.2050   72.5970  220.7750 C   0  0  0  0  0  0  0  0  0  0  0  0
  141.7500   73.8560  220.8270 N   0  0  0  0  0  0  0  0  0  0  0  0
  140.8220   74.2870  221.6830 C   0  0  0  0  0  0  0  0  0  0  0  0
  140.3570   75.6330  221.7140 N   0  0  0  0  0  0  0  0  0  0  0  0
  139.2200   76.0950  220.9480 C   0  0  0  0  0  0  0  0  0  0  0  0
  138.4430   77.1330  221.7380 C   0  0  0  0  0  0  0  0  0  0  0  0
  139.3550   78.2790  221.9830 C   0  0  0  0  0  0  0  0  0  0  0  0
  139.0030   79.5900  221.8340 C   0  0  0  0  0  0  0  0  0  0  0  0
  139.9170   80.6130  222.0850 C   0  0  0  0  0  0  0  0  0  0  0  0
  141.2040   80.3150  222.4900 C   0  0  0  0  0  0  0  0  0  0  0  0
  141.5590   78.9870  222.6410 C   0  0  0  0  0  0  0  0  0  0  0  0
  140.6510   77.9560  222.3930 C   0  0  0  0  0  0  0  0  0  0  0  0
  141.0780   76.5640  222.5670 C   0  0  0  0  0  0  0  0  0  0  0  0
  140.3130   73.3740  222.5600 N   0  0  0  0  0  0  0  0  0  0  0  0
  140.7590   72.0980  222.5240 C   0  0  0  0  0  0  0  0  0  0  0  0
  140.2130   71.1630  223.4500 N   0  0  0  0  0  0  0  0  0  0  0  0
  139.4300   70.0760  222.8950 C   0  0  0  0  0  0  0  0  0  0  0  0
  138.7920   69.1860  223.8910 C   0  0  0  0  0  0  0  0  0  0  0  0
  139.4510   69.0700  225.1880 C   0  0  0  0  0  0  0  0  0  0  0  0
  139.2760   67.9270  225.9500 C   0  0  0  0  0  0  0  0  0  0  0  0
  139.8900   67.7890  227.1890 C   0  0  0  0  0  0  0  0  0  0  0  0
  140.6860   68.8220  227.6530 C   0  0  0  0  0  0  0  0  0  0  0  0
  140.8480   69.9570  226.8770 C   0  0  0  0  0  0  0  0  0  0  0  0
  140.2410   70.0980  225.6460 C   0  0  0  0  0  0  0  0  0  0  0  0
  140.4520   71.3240  224.8730 C   0  0  0  0  0  0  0  0  0  0  0  0
  141.6940   71.7160  221.6420 N   0  0  0  0  0  0  0  0  0  0  0  0
  143.1550   70.8340  219.2760 C   0  0  0  0  0  0  0  0  0  0  0  0
  144.3870   70.0240  219.5910 C   0  0  0  0  0  0  0  0  0  0  0  0
  147.0350   69.4770  218.2590 H   0  0  0  0  0  0  0  0  0  0  0  0
  145.5310   69.5020  217.5280 H   0  0  0  0  0  0  0  0  0  0  0  0
  146.3729   70.4635  220.0052 H   0  0  0  0  0  0  0  0  0  0  0  0
  145.0968   72.4732  218.1191 H   0  0  0  0  0  0  0  0  0  0  0  0
  146.5301   72.6850  219.1298 H   0  0  0  0  0  0  0  0  0  0  0  0
  144.7279   73.6845  220.4276 H   0  0  0  0  0  0  0  0  0  0  0  0
  144.9174   72.0999  221.1780 H   0  0  0  0  0  0  0  0  0  0  0  0
  142.9956   72.8791  218.9151 H   0  0  0  0  0  0  0  0  0  0  0  0
  139.5733   76.5434  220.0077 H   0  0  0  0  0  0  0  0  0  0  0  0
  138.5613   75.2408  220.7322 H   0  0  0  0  0  0  0  0  0  0  0  0
  137.5672   77.4660  221.1617 H   0  0  0  0  0  0  0  0  0  0  0  0
  138.0864   76.7104  222.6889 H   0  0  0  0  0  0  0  0  0  0  0  0
  137.9825   79.8431  221.5109 H   0  0  0  0  0  0  0  0  0  0  0  0
  139.6118   81.6624  221.9599 H   0  0  0  0  0  0  0  0  0  0  0  0
  141.9305   81.1168  222.6881 H   0  0  0  0  0  0  0  0  0  0  0  0
  142.5804   78.7373  222.9640 H   0  0  0  0  0  0  0  0  0  0  0  0
  142.1503   76.4952  222.3317 H   0  0  0  0  0  0  0  0  0  0  0  0
  140.8651   76.2845  223.6094 H   0  0  0  0  0  0  0  0  0  0  0  0
  138.6363   70.5125  222.2709 H   0  0  0  0  0  0  0  0  0  0  0  0
  140.1360   69.4476  222.3323 H   0  0  0  0  0  0  0  0  0  0  0  0
  137.7731   69.5610  224.0679 H   0  0  0  0  0  0  0  0  0  0  0  0
  138.8430   68.1790  223.4513 H   0  0  0  0  0  0  0  0  0  0  0  0
  138.6403   67.1146  225.5681 H   0  0  0  0  0  0  0  0  0  0  0  0
  139.7464   66.8779  227.7885 H   0  0  0  0  0  0  0  0  0  0  0  0
  141.1855   68.7418  228.6298 H   0  0  0  0  0  0  0  0  0  0  0  0
  141.4815   70.7733  227.2543 H   0  0  0  0  0  0  0  0  0  0  0  0
  139.7694   72.0975  225.2548 H   0  0  0  0  0  0  0  0  0  0  0  0
  141.5094   71.6025  224.9927 H   0  0  0  0  0  0  0  0  0  0  0  0
  143.0230   70.8603  218.1843 H   0  0  0  0  0  0  0  0  0  0  0  0
  142.3063   70.3505  219.7818 H   0  0  0  0  0  0  0  0  0  0  0  0
  144.3115   69.0612  219.0644 H   0  0  0  0  0  0  0  0  0  0  0  0
  144.4199   69.9085  220.6844 H   0  0  0  0  0  0  0  0  0  0  0  0
  1  2  1  0
  2  3  1  0
  3  4  1  0
  4  5  1  0
  5  6  1  0
  6  7  2  0
  7  8  1  0
  8  9  1  0
  9 10  1  0
 10 11  1  0
 11 12  1  0
 12 13  2  0
 13 14  1  0
 14 15  2  0
 15 16  1  0
 16 17  2  0
 17 18  1  0
  8 19  2  0
 19 20  1  0
 20 21  1  0
 21 22  1  0
 22 23  1  0
 23 24  1  0
 24 25  2  0
 25 26  1  0
 26 27  2  0
 27 28  1  0
 28 29  2  0
 29 30  1  0
 20 31  2  0
  5 32  1  0
 32 33  1  0
 33  2  1  0
 31  6  1  0
 18  9  1  0
 30 21  1  0
 17 12  1  0
 29 24  1  0
  1 34  1  0
  1 35  1  0
  2 36  1  1
  3 37  1  0
  3 38  1  0
  4 39  1  0
  4 40  1  0
  5 41  1  6
 10 42  1  0
 10 43  1  0
 11 44  1  0
 11 45  1  0
 13 46  1  0
 14 47  1  0
 15 48  1  0
 16 49  1  0
 18 50  1  0
 18 51  1  0
 22 52  1  0
 22 53  1  0
 23 54  1  0
 23 55  1  0
 25 56  1  0
 26 57  1  0
 27 58  1  0
 28 59  1  0
 30 60  1  0
 30 61  1  0
 32 62  1  0
 32 63  1  0
 33 64  1  0
 33 65  1  0
M  END
>  <smiles>  (19) 
N[C@H]1CC[C@H](c2nc(N3CCc4ccccc4C3)nc(N3CCc4ccccc4C3)n2)CC1

>  <score_type>  (19) 
oracle

>  <origin>  (19) 
autodockgpu

>  <m_score__min__energy>  (19) 
-9.5800000000000001

>  <m_primary>  (19) 
energy

>  <rmsd>  (19) 
4.52298399670835

>  <m_score__min__rmsd>  (19) 
4.52298399670835

>  <meeko>  (19) 
{"free_energy": -9.43, "intermolecular_energy": -10.63, "internal_energy": -0.92, "cluster_size": 50, "cluster_id": 1, "rank_in_cluster": 35}

>  <energy>  (19) 
-9.51

>  <cluster_rmsd>  (19) 
0.51

>  <cluster>  (19) 
1

$$$$

     RDKit          3D

 65 70  0  0  0  0  0  0  0  0999 V2000
  146.1320   69.6790  217.8980 N   0  0  0  0  0  0  0  0  0  0  0  0
  145.5910   70.2560  219.1110 C   0  0  1  0  0  0  0  0  0  0  0  0
  145.7690   71.7620  219.1200 C   0  0  0  0  0  0  0  0  0  0  0  0
  144.8760   72.2680  220.2500 C   0  0  0  0  0  0  0  0  0  0  0  0
  143.4610   72.2250  219.6780 C   0  0  2  0  0  0  0  0  0  0  0  0
  142.4470   72.7060  220.6310 C   0  0  0  0  0  0  0  0  0  0  0  0
  142.1140   74.0040  220.6320 N   0  0  0  0  0  0  0  0  0  0  0  0
  141.2110   74.5490  221.4490 C   0  0  0  0  0  0  0  0  0  0  0  0
  140.8770   75.9340  221.4270 N   0  0  0  0  0  0  0  0  0  0  0  0
  140.3500   76.6030  220.2570 C   0  0  0  0  0  0  0  0  0  0  0  0
  139.3320   77.6520  220.6680 C   0  0  0  0  0  0  0  0  0  0  0  0
  140.0360   78.6480  221.5140 C   0  0  0  0  0  0  0  0  0  0  0  0
  139.8930   80.0000  221.3940 C   0  0  0  0  0  0  0  0  0  0  0  0
  140.5900   80.8740  222.2280 C   0  0  0  0  0  0  0  0  0  0  0  0
  141.4450   80.3820  223.1960 C   0  0  0  0  0  0  0  0  0  0  0  0
  141.5900   79.0130  223.3160 C   0  0  0  0  0  0  0  0  0  0  0  0
  140.8960   78.1300  222.4860 C   0  0  0  0  0  0  0  0  0  0  0  0
  141.0850   76.6850  222.6540 C   0  0  0  0  0  0  0  0  0  0  0  0
  140.5940   73.7180  222.3370 N   0  0  0  0  0  0  0  0  0  0  0  0
  140.9150   72.4040  222.3520 C   0  0  0  0  0  0  0  0  0  0  0  0
  140.2570   71.5560  223.2890 N   0  0  0  0  0  0  0  0  0  0  0  0
  139.1680   70.7450  222.7820 C   0  0  0  0  0  0  0  0  0  0  0  0
  138.4420   69.9560  223.8030 C   0  0  0  0  0  0  0  0  0  0  0  0
  139.1910   69.5740  224.9950 C   0  0  0  0  0  0  0  0  0  0  0  0
  138.8190   68.4470  225.7110 C   0  0  0  0  0  0  0  0  0  0  0  0
  139.5130   68.0600  226.8500 C   0  0  0  0  0  0  0  0  0  0  0  0
  140.5910   68.8240  227.2620 C   0  0  0  0  0  0  0  0  0  0  0  0
  140.9470   69.9460  226.5340 C   0  0  0  0  0  0  0  0  0  0  0  0
  140.2610   70.3350  225.4020 C   0  0  0  0  0  0  0  0  0  0  0  0
  140.6870   71.5330  224.6750 C   0  0  0  0  0  0  0  0  0  0  0  0
  141.8310   71.9070  221.5090 N   0  0  0  0  0  0  0  0  0  0  0  0
  143.1510   70.8950  219.0560 C   0  0  0  0  0  0  0  0  0  0  0  0
  144.1770   69.8380  219.3800 C   0  0  0  0  0  0  0  0  0  0  0  0
  146.3180   70.4710  217.2140 H   0  0  0  0  0  0  0  0  0  0  0  0
  147.0720   69.2750  218.1070 H   0  0  0  0  0  0  0  0  0  0  0  0
  146.1736   69.8494  219.9508 H   0  0  0  0  0  0  0  0  0  0  0  0
  145.4540   72.1927  218.1581 H   0  0  0  0  0  0  0  0  0  0  0  0
  146.8203   72.0492  219.2691 H   0  0  0  0  0  0  0  0  0  0  0  0
  145.1499   73.2960  220.5296 H   0  0  0  0  0  0  0  0  0  0  0  0
  144.9742   71.6594  221.1610 H   0  0  0  0  0  0  0  0  0  0  0  0
  143.4181   72.9488  218.8508 H   0  0  0  0  0  0  0  0  0  0  0  0
  141.1740   77.0891  219.7142 H   0  0  0  0  0  0  0  0  0  0  0  0
  139.8601   75.8613  219.6091 H   0  0  0  0  0  0  0  0  0  0  0  0
  138.9174   78.1433  219.7754 H   0  0  0  0  0  0  0  0  0  0  0  0
  138.5014   77.1903  221.2221 H   0  0  0  0  0  0  0  0  0  0  0  0
  139.2173   80.4068  220.6273 H   0  0  0  0  0  0  0  0  0  0  0  0
  140.4586   81.9602  222.1148 H   0  0  0  0  0  0  0  0  0  0  0  0
  141.9983   81.0656  223.8568 H   0  0  0  0  0  0  0  0  0  0  0  0
  142.2676   78.6095  224.0829 H   0  0  0  0  0  0  0  0  0  0  0  0
  142.1121   76.5051  223.0042 H   0  0  0  0  0  0  0  0  0  0  0  0
  140.3345   76.3393  223.3801 H   0  0  0  0  0  0  0  0  0  0  0  0
  138.4454   71.4137  222.2913 H   0  0  0  0  0  0  0  0  0  0  0  0
  139.6242   70.0139  222.0983 H   0  0  0  0  0  0  0  0  0  0  0  0
  137.5769   70.5514  224.1303 H   0  0  0  0  0  0  0  0  0  0  0  0
  138.1882   69.0077  223.3067 H   0  0  0  0  0  0  0  0  0  0  0  0
  137.9601   67.8494  225.3716 H   0  0  0  0  0  0  0  0  0  0  0  0
  139.2120   67.1644  227.4133 H   0  0  0  0  0  0  0  0  0  0  0  0
  141.1599   68.5419  228.1602 H   0  0  0  0  0  0  0  0  0  0  0  0
  141.8051   70.5473  226.8690 H   0  0  0  0  0  0  0  0  0  0  0  0
  140.2696   72.4148  225.1831 H   0  0  0  0  0  0  0  0  0  0  0  0
  141.7870   71.5335  224.6712 H   0  0  0  0  0  0  0  0  0  0  0  0
  143.1098   71.0201  217.9639 H   0  0  0  0  0  0  0  0  0  0  0  0
  142.1889   70.5561  219.4677 H   0  0  0  0  0  0  0  0  0  0  0  0
  143.9586   68.9469  218.7732 H   0  0  0  0  0  0  0  0  0  0  0  0
  144.1032   69.6443  220.4603 H   0  0  0  0  0  0  0  0  0  0  0  0
  1  2  1  0
  2  3  1  0
  3  4  1  0
  4  5  1  0
  5  6  1  0
  6  7  2  0
  7  8  1  0
  8  9  1  0
  9 10  1  0
 10 11  1  0
 11 12  1  0
 12 13  2  0
 13 14  1  0
 14 15  2  0
 15 16  1  0
 16 17  2  0
 17 18  1  0
  8 19  2  0
 19 20  1  0
 20 21  1  0
 21 22  1  0
 22 23  1  0
 23 24  1  0
 24 25  2  0
 25 26  1  0
 26 27  2  0
 27 28  1  0
 28 29  2  0
 29 30  1  0
 20 31  2  0
  5 32  1  0
 32 33  1  0
 33  2  1  0
 31  6  1  0
 18  9  1  0
 30 21  1  0
 17 12  1  0
 29 24  1  0
  1 34  1  0
  1 35  1  0
  2 36  1  1
  3 37  1  0
  3 38  1  0
  4 39  1  0
  4 40  1  0
  5 41  1  6
 10 42  1  0
 10 43  1  0
 11 44  1  0
 11 45  1  0
 13 46  1  0
 14 47  1  0
 15 48  1  0
 16 49  1  0
 18 50  1  0
 18 51  1  0
 22 52  1  0
 22 53  1  0
 23 54  1  0
 23 55  1  0
 25 56  1  0
 26 57  1  0
 27 58  1  0
 28 59  1  0
 30 60  1  0
 30 61  1  0
 32 62  1  0
 32 63  1  0
 33 64  1  0
 33 65  1  0
M  END
>  <smiles>  (20) 
N[C@H]1CC[C@H](c2nc(N3CCc4ccccc4C3)nc(N3CCc4ccccc4C3)n2)CC1

>  <score_type>  (20) 
oracle

>  <origin>  (20) 
autodockgpu

>  <m_score__min__energy>  (20) 
-9.5800000000000001

>  <m_primary>  (20) 
energy

>  <rmsd>  (20) 
4.5599433449969045

>  <m_score__min__rmsd>  (20) 
4.5599433449969045

>  <meeko>  (20) 
{"free_energy": -9.25, "intermolecular_energy": -10.44, "internal_energy": -0.92, "cluster_size": 50, "cluster_id": 1, "rank_in_cluster": 47}

>  <energy>  (20) 
-9.5

>  <cluster_rmsd>  (20) 
0.85

>  <cluster>  (20) 
1

$$$$

     RDKit          3D

 65 70  0  0  0  0  0  0  0  0999 V2000
  146.2800   73.3970  217.6820 N   0  0  0  0  0  0  0  0  0  0  0  0
  145.2310   72.9660  218.5830 C   0  0  1  0  0  0  0  0  0  0  0  0
  145.5460   73.3690  220.0110 C   0  0  0  0  0  0  0  0  0  0  0  0
  144.2440   73.1730  220.7830 C   0  0  0  0  0  0  0  0  0  0  0  0
  143.3820   74.3760  220.4070 C   0  0  2  0  0  0  0  0  0  0  0  0
  142.0740   74.3720  221.0830 C   0  0  0  0  0  0  0  0  0  0  0  0
  141.6190   73.2330  221.6220 N   0  0  0  0  0  0  0  0  0  0  0  0
  140.4520   73.1130  222.2570 C   0  0  0  0  0  0  0  0  0  0  0  0
  139.9950   71.8870  222.8210 N   0  0  0  0  0  0  0  0  0  0  0  0
  138.8980   71.1220  222.2690 C   0  0  0  0  0  0  0  0  0  0  0  0
  139.1680   69.6360  222.4200 C   0  0  0  0  0  0  0  0  0  0  0  0
  139.2720   69.3480  223.8730 C   0  0  0  0  0  0  0  0  0  0  0  0
  138.6810   68.2830  224.4920 C   0  0  0  0  0  0  0  0  0  0  0  0
  138.8250   68.0790  225.8640 C   0  0  0  0  0  0  0  0  0  0  0  0
  139.5720   68.9570  226.6260 C   0  0  0  0  0  0  0  0  0  0  0  0
  140.1690   70.0350  225.9980 C   0  0  0  0  0  0  0  0  0  0  0  0
  140.0310   70.2480  224.6250 C   0  0  0  0  0  0  0  0  0  0  0  0
  140.6840   71.4070  224.0070 C   0  0  0  0  0  0  0  0  0  0  0  0
  139.6800   74.2330  222.3550 N   0  0  0  0  0  0  0  0  0  0  0  0
  140.1200   75.3930  221.8170 C   0  0  0  0  0  0  0  0  0  0  0  0
  139.2950   76.5490  221.9320 N   0  0  0  0  0  0  0  0  0  0  0  0
  137.8830   76.3740  221.6520 C   0  0  0  0  0  0  0  0  0  0  0  0
  137.0760   77.6150  221.6800 C   0  0  0  0  0  0  0  0  0  0  0  0
  137.5600   78.6960  222.5330 C   0  0  0  0  0  0  0  0  0  0  0  0
  136.6660   79.6260  223.0380 C   0  0  0  0  0  0  0  0  0  0  0  0
  137.0980   80.6660  223.8520 C   0  0  0  0  0  0  0  0  0  0  0  0
  138.4460   80.7580  224.1520 C   0  0  0  0  0  0  0  0  0  0  0  0
  139.3230   79.8190  223.6370 C   0  0  0  0  0  0  0  0  0  0  0  0
  138.8990   78.7850  222.8290 C   0  0  0  0  0  0  0  0  0  0  0  0
  139.8770   77.8230  222.3150 C   0  0  0  0  0  0  0  0  0  0  0  0
  141.3020   75.4600  221.1890 N   0  0  0  0  0  0  0  0  0  0  0  0
  143.3160   74.5720  218.9210 C   0  0  0  0  0  0  0  0  0  0  0  0
  143.8660   73.4010  218.1460 C   0  0  0  0  0  0  0  0  0  0  0  0
  145.8380   74.0170  216.9390 H   0  0  0  0  0  0  0  0  0  0  0  0
  146.9350   74.0220  218.2010 H   0  0  0  0  0  0  0  0  0  0  0  0
  145.2045   71.8669  218.5474 H   0  0  0  0  0  0  0  0  0  0  0  0
  145.8638   74.4213  220.0529 H   0  0  0  0  0  0  0  0  0  0  0  0
  146.3667   72.7709  220.4337 H   0  0  0  0  0  0  0  0  0  0  0  0
  144.4346   73.1564  221.8662 H   0  0  0  0  0  0  0  0  0  0  0  0
  143.7551   72.2189  220.5366 H   0  0  0  0  0  0  0  0  0  0  0  0
  143.8831   75.2749  220.7953 H   0  0  0  0  0  0  0  0  0  0  0  0
  137.9709   71.3790  222.8024 H   0  0  0  0  0  0  0  0  0  0  0  0
  138.7948   71.3616  221.2004 H   0  0  0  0  0  0  0  0  0  0  0  0
  138.3422   69.0574  221.9804 H   0  0  0  0  0  0  0  0  0  0  0  0
  140.0968   69.3558  221.9015 H   0  0  0  0  0  0  0  0  0  0  0  0
  138.0825   67.5757  223.8991 H   0  0  0  0  0  0  0  0  0  0  0  0
  138.3413   67.2145  226.3422 H   0  0  0  0  0  0  0  0  0  0  0  0
  139.6893   68.8019  227.7087 H   0  0  0  0  0  0  0  0  0  0  0  0
  140.7663   70.7408  226.5939 H   0  0  0  0  0  0  0  0  0  0  0  0
  140.7201   72.2224  224.7445 H   0  0  0  0  0  0  0  0  0  0  0  0
  141.6892   71.0879  223.6945 H   0  0  0  0  0  0  0  0  0  0  0  0
  137.7873   75.9284  220.6508 H   0  0  0  0  0  0  0  0  0  0  0  0
  137.4892   75.7357  222.4566 H   0  0  0  0  0  0  0  0  0  0  0  0
  137.0235   78.0010  220.6513 H   0  0  0  0  0  0  0  0  0  0  0  0
  136.1084   77.3193  222.1115 H   0  0  0  0  0  0  0  0  0  0  0  0
  135.5976   79.5398  222.7908 H   0  0  0  0  0  0  0  0  0  0  0  0
  136.3831   81.4013  224.2499 H   0  0  0  0  0  0  0  0  0  0  0  0
  138.8172   81.5703  224.7941 H   0  0  0  0  0  0  0  0  0  0  0  0
  140.3927   79.9002  223.8801 H   0  0  0  0  0  0  0  0  0  0  0  0
  140.3650   78.2616  221.4321 H   0  0  0  0  0  0  0  0  0  0  0  0
  140.5881   77.6204  223.1294 H   0  0  0  0  0  0  0  0  0  0  0  0
  143.8969   75.4689  218.6598 H   0  0  0  0  0  0  0  0  0  0  0  0
  142.2549   74.6760  218.6502 H   0  0  0  0  0  0  0  0  0  0  0  0
  143.9166   73.6827  217.0839 H   0  0  0  0  0  0  0  0  0  0  0  0
  143.1891   72.5534  218.3286 H   0  0  0  0  0  0  0  0  0  0  0  0
  1  2  1  0
  2  3  1  0
  3  4  1  0
  4  5  1  0
  5  6  1  0
  6  7  2  0
  7  8  1  0
  8  9  1  0
  9 10  1  0
 10 11  1  0
 11 12  1  0
 12 13  2  0
 13 14  1  0
 14 15  2  0
 15 16  1  0
 16 17  2  0
 17 18  1  0
  8 19  2  0
 19 20  1  0
 20 21  1  0
 21 22  1  0
 22 23  1  0
 23 24  1  0
 24 25  2  0
 25 26  1  0
 26 27  2  0
 27 28  1  0
 28 29  2  0
 29 30  1  0
 20 31  2  0
  5 32  1  0
 32 33  1  0
 33  2  1  0
 31  6  1  0
 18  9  1  0
 30 21  1  0
 17 12  1  0
 29 24  1  0
  1 34  1  0
  1 35  1  0
  2 36  1  1
  3 37  1  0
  3 38  1  0
  4 39  1  0
  4 40  1  0
  5 41  1  1
 10 42  1  0
 10 43  1  0
 11 44  1  0
 11 45  1  0
 13 46  1  0
 14 47  1  0
 15 48  1  0
 16 49  1  0
 18 50  1  0
 18 51  1  0
 22 52  1  0
 22 53  1  0
 23 54  1  0
 23 55  1  0
 25 56  1  0
 26 57  1  0
 27 58  1  0
 28 59  1  0
 30 60  1  0
 30 61  1  0
 32 62  1  0
 32 63  1  0
 33 64  1  0
 33 65  1  0
M  END
>  <smiles>  (21) 
N[C@H]1CC[C@H](c2nc(N3CCc4ccccc4C3)nc(N3CCc4ccccc4C3)n2)CC1

>  <score_type>  (21) 
oracle

>  <origin>  (21) 
autodockgpu

>  <m_score__min__energy>  (21) 
-9.5800000000000001

>  <m_primary>  (21) 
energy

>  <rmsd>  (21) 
10.544600811187005

>  <m_score__min__rmsd>  (21) 
10.544600811187005

>  <meeko>  (21) 
{"free_energy": -9.46, "intermolecular_energy": -10.65, "internal_energy": -0.94, "cluster_size": 50, "cluster_id": 1, "rank_in_cluster": 32}

>  <energy>  (21) 
-9.5

>  <cluster_rmsd>  (21) 
0.55

>  <cluster>  (21) 
1

$$$$

     RDKit          3D

 65 70  0  0  0  0  0  0  0  0999 V2000
  146.0730   72.6510  217.4540 N   0  0  0  0  0  0  0  0  0  0  0  0
  145.2170   73.3970  218.3520 C   0  0  1  0  0  0  0  0  0  0  0  0
  143.8910   73.7200  217.6910 C   0  0  0  0  0  0  0  0  0  0  0  0
  142.9790   74.1860  218.8230 C   0  0  0  0  0  0  0  0  0  0  0  0
  142.5540   72.9040  219.5360 C   0  0  2  0  0  0  0  0  0  0  0  0
  141.6390   73.1550  220.6620 C   0  0  0  0  0  0  0  0  0  0  0  0
  141.2070   74.4030  220.8880 N   0  0  0  0  0  0  0  0  0  0  0  0
  140.3780   74.7460  221.8750 C   0  0  0  0  0  0  0  0  0  0  0  0
  139.9350   76.0830  222.0910 N   0  0  0  0  0  0  0  0  0  0  0  0
  138.6150   76.5490  221.7220 C   0  0  0  0  0  0  0  0  0  0  0  0
  138.1090   77.5500  222.7440 C   0  0  0  0  0  0  0  0  0  0  0  0
  139.0440   78.7030  222.7390 C   0  0  0  0  0  0  0  0  0  0  0  0
  138.6550   80.0120  222.7470 C   0  0  0  0  0  0  0  0  0  0  0  0
  139.5960   81.0420  222.7410 C   0  0  0  0  0  0  0  0  0  0  0  0
  140.9470   80.7530  222.7260 C   0  0  0  0  0  0  0  0  0  0  0  0
  141.3400   79.4280  222.7170 C   0  0  0  0  0  0  0  0  0  0  0  0
  140.4060   78.3900  222.7230 C   0  0  0  0  0  0  0  0  0  0  0  0
  140.8750   77.0000  222.7140 C   0  0  0  0  0  0  0  0  0  0  0  0
  139.9510   73.7490  222.7030 N   0  0  0  0  0  0  0  0  0  0  0  0
  140.3750   72.4830  222.4920 C   0  0  0  0  0  0  0  0  0  0  0  0
  139.9150   71.4590  223.3700 N   0  0  0  0  0  0  0  0  0  0  0  0
  139.1220   70.3990  222.7790 C   0  0  0  0  0  0  0  0  0  0  0  0
  138.5760   69.4120  223.7360 C   0  0  0  0  0  0  0  0  0  0  0  0
  139.3230   69.2100  224.9730 C   0  0  0  0  0  0  0  0  0  0  0  0
  139.2280   68.0030  225.6460 C   0  0  0  0  0  0  0  0  0  0  0  0
  139.9280   67.7820  226.8260 C   0  0  0  0  0  0  0  0  0  0  0  0
  140.7290   68.7970  227.3210 C   0  0  0  0  0  0  0  0  0  0  0  0
  140.8110   69.9950  226.6350 C   0  0  0  0  0  0  0  0  0  0  0  0
  140.1180   70.2190  225.4630 C   0  0  0  0  0  0  0  0  0  0  0  0
  140.2460   71.5100  224.7830 C   0  0  0  0  0  0  0  0  0  0  0  0
  141.2090   72.1920  221.4840 N   0  0  0  0  0  0  0  0  0  0  0  0
  143.7320   72.0370  219.8720 C   0  0  0  0  0  0  0  0  0  0  0  0
  145.0540   72.7400  219.6890 C   0  0  0  0  0  0  0  0  0  0  0  0
  145.4930   71.8710  217.0220 H   0  0  0  0  0  0  0  0  0  0  0  0
  146.3400   73.2650  216.6540 H   0  0  0  0  0  0  0  0  0  0  0  0
  145.7218   74.3512  218.5633 H   0  0  0  0  0  0  0  0  0  0  0  0
  143.4750   72.8254  217.2046 H   0  0  0  0  0  0  0  0  0  0  0  0
  143.9986   74.4865  216.9094 H   0  0  0  0  0  0  0  0  0  0  0  0
  142.1020   74.7146  218.4211 H   0  0  0  0  0  0  0  0  0  0  0  0
  143.4852   74.8892  219.5007 H   0  0  0  0  0  0  0  0  0  0  0  0
  141.9531   72.3163  218.8264 H   0  0  0  0  0  0  0  0  0  0  0  0
  138.6625   77.0305  220.7341 H   0  0  0  0  0  0  0  0  0  0  0  0
  137.9274   75.6910  221.6884 H   0  0  0  0  0  0  0  0  0  0  0  0
  137.0973   77.8855  222.4723 H   0  0  0  0  0  0  0  0  0  0  0  0
  138.0618   77.0934  223.7436 H   0  0  0  0  0  0  0  0  0  0  0  0
  137.5830   80.2582  222.7583 H   0  0  0  0  0  0  0  0  0  0  0  0
  139.2606   82.0896  222.7482 H   0  0  0  0  0  0  0  0  0  0  0  0
  141.6940   81.5604  222.7213 H   0  0  0  0  0  0  0  0  0  0  0  0
  142.4129   79.1856  222.7048 H   0  0  0  0  0  0  0  0  0  0  0  0
  141.8254   76.9552  222.1619 H   0  0  0  0  0  0  0  0  0  0  0  0
  140.9912   76.6872  223.7622 H   0  0  0  0  0  0  0  0  0  0  0  0
  138.2769   70.8618  222.2483 H   0  0  0  0  0  0  0  0  0  0  0  0
  139.8025   69.8404  222.1195 H   0  0  0  0  0  0  0  0  0  0  0  0
  137.5622   69.7398  224.0095 H   0  0  0  0  0  0  0  0  0  0  0  0
  138.6234   68.4465  223.2110 H   0  0  0  0  0  0  0  0  0  0  0  0
  138.5878   67.2061  225.2396 H   0  0  0  0  0  0  0  0  0  0  0  0
  139.8474   66.8212  227.3554 H   0  0  0  0  0  0  0  0  0  0  0  0
  141.2957   68.6517  228.2525 H   0  0  0  0  0  0  0  0  0  0  0  0
  141.4496   70.7955  227.0368 H   0  0  0  0  0  0  0  0  0  0  0  0
  139.5722   72.2288  225.2721 H   0  0  0  0  0  0  0  0  0  0  0  0
  141.3020   71.8093  224.8560 H   0  0  0  0  0  0  0  0  0  0  0  0
  143.7128   71.1516  219.2195 H   0  0  0  0  0  0  0  0  0  0  0  0
  143.6482   71.7664  220.9349 H   0  0  0  0  0  0  0  0  0  0  0  0
  145.8587   72.0000  219.8108 H   0  0  0  0  0  0  0  0  0  0  0  0
  145.0952   73.5399  220.4429 H   0  0  0  0  0  0  0  0  0  0  0  0
  1  2  1  0
  2  3  1  0
  3  4  1  0
  4  5  1  0
  5  6  1  0
  6  7  2  0
  7  8  1  0
  8  9  1  0
  9 10  1  0
 10 11  1  0
 11 12  1  0
 12 13  2  0
 13 14  1  0
 14 15  2  0
 15 16  1  0
 16 17  2  0
 17 18  1  0
  8 19  2  0
 19 20  1  0
 20 21  1  0
 21 22  1  0
 22 23  1  0
 23 24  1  0
 24 25  2  0
 25 26  1  0
 26 27  2  0
 27 28  1  0
 28 29  2  0
 29 30  1  0
 20 31  2  0
  5 32  1  0
 32 33  1  0
 33  2  1  0
 31  6  1  0
 18  9  1  0
 30 21  1  0
 17 12  1  0
 29 24  1  0
  1 34  1  0
  1 35  1  0
  2 36  1  1
  3 37  1  0
  3 38  1  0
  4 39  1  0
  4 40  1  0
  5 41  1  6
 10 42  1  0
 10 43  1  0
 11 44  1  0
 11 45  1  0
 13 46  1  0
 14 47  1  0
 15 48  1  0
 16 49  1  0
 18 50  1  0
 18 51  1  0
 22 52  1  0
 22 53  1  0
 23 54  1  0
 23 55  1  0
 25 56  1  0
 26 57  1  0
 27 58  1  0
 28 59  1  0
 30 60  1  0
 30 61  1  0
 32 62  1  0
 32 63  1  0
 33 64  1  0
 33 65  1  0
M  END
>  <smiles>  (22) 
N[C@H]1CC[C@H](c2nc(N3CCc4ccccc4C3)nc(N3CCc4ccccc4C3)n2)CC1

>  <score_type>  (22) 
oracle

>  <origin>  (22) 
autodockgpu

>  <m_score__min__energy>  (22) 
-9.5800000000000001

>  <m_primary>  (22) 
energy

>  <rmsd>  (22) 
4.95825736667744

>  <m_score__min__rmsd>  (22) 
4.95825736667744

>  <meeko>  (22) 
{"free_energy": -9.58, "intermolecular_energy": -10.78, "internal_energy": -0.93, "cluster_size": 50, "cluster_id": 1, "rank_in_cluster": 1}

>  <energy>  (22) 
-9.5

>  <cluster_rmsd>  (22) 
0.4

>  <cluster>  (22) 
1

$$$$

     RDKit          3D

 65 70  0  0  0  0  0  0  0  0999 V2000
  146.0360   69.0470  217.7630 N   0  0  0  0  0  0  0  0  0  0  0  0
  145.6750   69.9600  218.8270 C   0  0  1  0  0  0  0  0  0  0  0  0
  145.4660   71.3620  218.2890 C   0  0  0  0  0  0  0  0  0  0  0  0
  144.7730   72.1270  219.4130 C   0  0  0  0  0  0  0  0  0  0  0  0
  143.3190   71.6630  219.3640 C   0  0  2  0  0  0  0  0  0  0  0  0
  142.4760   72.3190  220.3770 C   0  0  0  0  0  0  0  0  0  0  0  0
  142.3400   73.6520  220.3500 N   0  0  0  0  0  0  0  0  0  0  0  0
  141.6040   74.3520  221.2150 C   0  0  0  0  0  0  0  0  0  0  0  0
  141.4760   75.7690  221.1610 N   0  0  0  0  0  0  0  0  0  0  0  0
  141.7970   76.5490  219.9850 C   0  0  0  0  0  0  0  0  0  0  0  0
  140.8350   77.7150  219.8510 C   0  0  0  0  0  0  0  0  0  0  0  0
  141.0010   78.5690  221.0540 C   0  0  0  0  0  0  0  0  0  0  0  0
  141.0810   79.9320  221.0260 C   0  0  0  0  0  0  0  0  0  0  0  0
  141.2380   80.6670  222.2020 C   0  0  0  0  0  0  0  0  0  0  0  0
  141.3160   80.0240  223.4220 C   0  0  0  0  0  0  0  0  0  0  0  0
  141.2350   78.6440  223.4480 C   0  0  0  0  0  0  0  0  0  0  0  0
  141.0780   77.9000  222.2780 C   0  0  0  0  0  0  0  0  0  0  0  0
  140.9980   76.4370  222.3600 C   0  0  0  0  0  0  0  0  0  0  0  0
  140.9530   73.6490  222.1870 N   0  0  0  0  0  0  0  0  0  0  0  0
  141.0770   72.3040  222.2320 C   0  0  0  0  0  0  0  0  0  0  0  0
  140.3880   71.5930  223.2570 N   0  0  0  0  0  0  0  0  0  0  0  0
  139.3880   70.6360  222.8280 C   0  0  0  0  0  0  0  0  0  0  0  0
  138.6210   69.9930  223.9190 C   0  0  0  0  0  0  0  0  0  0  0  0
  139.2880   69.8780  225.2120 C   0  0  0  0  0  0  0  0  0  0  0  0
  138.9160   68.8730  226.0910 C   0  0  0  0  0  0  0  0  0  0  0  0
  139.5320   68.7390  227.3290 C   0  0  0  0  0  0  0  0  0  0  0  0
  140.5310   69.6330  227.6730 C   0  0  0  0  0  0  0  0  0  0  0  0
  140.8880   70.6300  226.7820 C   0  0  0  0  0  0  0  0  0  0  0  0
  140.2800   70.7670  225.5510 C   0  0  0  0  0  0  0  0  0  0  0  0
  140.7020   71.8430  224.6520 C   0  0  0  0  0  0  0  0  0  0  0  0
  141.8310   71.6490  221.3370 N   0  0  0  0  0  0  0  0  0  0  0  0
  143.2130   70.1660  219.3390 C   0  0  0  0  0  0  0  0  0  0  0  0
  144.5180   69.4770  219.6480 C   0  0  0  0  0  0  0  0  0  0  0  0
  145.7650   69.4990  216.8390 H   0  0  0  0  0  0  0  0  0  0  0  0
  147.0750   68.9640  217.7280 H   0  0  0  0  0  0  0  0  0  0  0  0
  146.5249   69.9963  219.5243 H   0  0  0  0  0  0  0  0  0  0  0  0
  144.8316   71.3391  217.3907 H   0  0  0  0  0  0  0  0  0  0  0  0
  146.4155   71.8343  217.9969 H   0  0  0  0  0  0  0  0  0  0  0  0
  144.8394   73.2115  219.2415 H   0  0  0  0  0  0  0  0  0  0  0  0
  145.2365   71.9356  220.3920 H   0  0  0  0  0  0  0  0  0  0  0  0
  142.8981   72.0007  218.4055 H   0  0  0  0  0  0  0  0  0  0  0  0
  142.8239   76.9334  220.0731 H   0  0  0  0  0  0  0  0  0  0  0  0
  141.7109   75.9085  219.0949 H   0  0  0  0  0  0  0  0  0  0  0  0
  141.0688   78.2929  218.9447 H   0  0  0  0  0  0  0  0  0  0  0  0
  139.7985   77.3556  219.7702 H   0  0  0  0  0  0  0  0  0  0  0  0
  141.0208   80.4585  220.0621 H   0  0  0  0  0  0  0  0  0  0  0  0
  141.3000   81.7643  222.1571 H   0  0  0  0  0  0  0  0  0  0  0  0
  141.4398   80.5973  224.3526 H   0  0  0  0  0  0  0  0  0  0  0  0
  141.2957   78.1204  224.4135 H   0  0  0  0  0  0  0  0  0  0  0  0
  141.6057   76.1010  223.2131 H   0  0  0  0  0  0  0  0  0  0  0  0
  139.9366   76.1740  222.4794 H   0  0  0  0  0  0  0  0  0  0  0  0
  138.6752   71.1591  222.1735 H   0  0  0  0  0  0  0  0  0  0  0  0
  139.9366   69.8272  222.3232 H   0  0  0  0  0  0  0  0  0  0  0  0
  137.7018   70.5781  224.0694 H   0  0  0  0  0  0  0  0  0  0  0  0
  138.4583   68.9575  223.5855 H   0  0  0  0  0  0  0  0  0  0  0  0
  138.1201   68.1701  225.8037 H   0  0  0  0  0  0  0  0  0  0  0  0
  139.2319   67.9388  228.0216 H   0  0  0  0  0  0  0  0  0  0  0  0
  141.0370   69.5518  228.6464 H   0  0  0  0  0  0  0  0  0  0  0  0
  141.6825   71.3364  227.0645 H   0  0  0  0  0  0  0  0  0  0  0  0
  140.1987   72.7711  224.9606 H   0  0  0  0  0  0  0  0  0  0  0  0
  141.7970   71.9151  224.7277 H   0  0  0  0  0  0  0  0  0  0  0  0
  142.8811   69.8549  218.3375 H   0  0  0  0  0  0  0  0  0  0  0  0
  142.4945   69.8743  220.1192 H   0  0  0  0  0  0  0  0  0  0  0  0
  144.3913   68.3996  219.4659 H   0  0  0  0  0  0  0  0  0  0  0  0
  144.7565   69.7057  220.6972 H   0  0  0  0  0  0  0  0  0  0  0  0
  1  2  1  0
  2  3  1  0
  3  4  1  0
  4  5  1  0
  5  6  1  0
  6  7  2  0
  7  8  1  0
  8  9  1  0
  9 10  1  0
 10 11  1  0
 11 12  1  0
 12 13  2  0
 13 14  1  0
 14 15  2  0
 15 16  1  0
 16 17  2  0
 17 18  1  0
  8 19  2  0
 19 20  1  0
 20 21  1  0
 21 22  1  0
 22 23  1  0
 23 24  1  0
 24 25  2  0
 25 26  1  0
 26 27  2  0
 27 28  1  0
 28 29  2  0
 29 30  1  0
 20 31  2  0
  5 32  1  0
 32 33  1  0
 33  2  1  0
 31  6  1  0
 18  9  1  0
 30 21  1  0
 17 12  1  0
 29 24  1  0
  1 34  1  0
  1 35  1  0
  2 36  1  1
  3 37  1  0
  3 38  1  0
  4 39  1  0
  4 40  1  0
  5 41  1  6
 10 42  1  0
 10 43  1  0
 11 44  1  0
 11 45  1  0
 13 46  1  0
 14 47  1  0
 15 48  1  0
 16 49  1  0
 18 50  1  0
 18 51  1  0
 22 52  1  0
 22 53  1  0
 23 54  1  0
 23 55  1  0
 25 56  1  0
 26 57  1  0
 27 58  1  0
 28 59  1  0
 30 60  1  0
 30 61  1  0
 32 62  1  0
 32 63  1  0
 33 64  1  0
 33 65  1  0
M  END
>  <smiles>  (23) 
N[C@H]1CC[C@H](c2nc(N3CCc4ccccc4C3)nc(N3CCc4ccccc4C3)n2)CC1

>  <score_type>  (23) 
oracle

>  <origin>  (23) 
autodockgpu

>  <m_score__min__energy>  (23) 
-9.5800000000000001

>  <m_primary>  (23) 
energy

>  <rmsd>  (23) 
4.585863283565216

>  <m_score__min__rmsd>  (23) 
4.585863283565216

>  <meeko>  (23) 
{"free_energy": -9.35, "intermolecular_energy": -10.54, "internal_energy": -0.94, "cluster_size": 50, "cluster_id": 1, "rank_in_cluster": 43}

>  <energy>  (23) 
-9.5

>  <cluster_rmsd>  (23) 
0.58

>  <cluster>  (23) 
1

$$$$

     RDKit          3D

 65 70  0  0  0  0  0  0  0  0999 V2000
  146.1250   72.6420  217.4640 N   0  0  0  0  0  0  0  0  0  0  0  0
  145.2970   73.3770  218.3970 C   0  0  1  0  0  0  0  0  0  0  0  0
  144.0070   73.8270  217.7380 C   0  0  0  0  0  0  0  0  0  0  0  0
  143.1020   74.2710  218.8840 C   0  0  0  0  0  0  0  0  0  0  0  0
  142.5850   72.9730  219.5000 C   0  0  2  0  0  0  0  0  0  0  0  0
  141.6630   73.2040  220.6250 C   0  0  0  0  0  0  0  0  0  0  0  0
  141.2130   74.4440  220.8570 N   0  0  0  0  0  0  0  0  0  0  0  0
  140.3770   74.7690  221.8450 C   0  0  0  0  0  0  0  0  0  0  0  0
  139.9140   76.0980  222.0670 N   0  0  0  0  0  0  0  0  0  0  0  0
  138.5870   76.5450  221.7040 C   0  0  0  0  0  0  0  0  0  0  0  0
  138.0680   77.5350  222.7320 C   0  0  0  0  0  0  0  0  0  0  0  0
  138.9850   78.7010  222.7290 C   0  0  0  0  0  0  0  0  0  0  0  0
  138.5760   80.0040  222.7440 C   0  0  0  0  0  0  0  0  0  0  0  0
  139.5010   81.0480  222.7400 C   0  0  0  0  0  0  0  0  0  0  0  0
  140.8560   80.7810  222.7200 C   0  0  0  0  0  0  0  0  0  0  0  0
  141.2690   79.4610  222.7050 C   0  0  0  0  0  0  0  0  0  0  0  0
  140.3520   78.4090  222.7090 C   0  0  0  0  0  0  0  0  0  0  0  0
  140.8420   77.0270  222.6920 C   0  0  0  0  0  0  0  0  0  0  0  0
  139.9620   73.7610  222.6650 N   0  0  0  0  0  0  0  0  0  0  0  0
  140.4050   72.5020  222.4480 C   0  0  0  0  0  0  0  0  0  0  0  0
  139.9580   71.4670  223.3190 N   0  0  0  0  0  0  0  0  0  0  0  0
  139.1770   70.4020  222.7190 C   0  0  0  0  0  0  0  0  0  0  0  0
  138.6430   69.4010  223.6700 C   0  0  0  0  0  0  0  0  0  0  0  0
  139.3940   69.1990  224.9040 C   0  0  0  0  0  0  0  0  0  0  0  0
  139.3130   67.9850  225.5680 C   0  0  0  0  0  0  0  0  0  0  0  0
  140.0170   67.7640  226.7460 C   0  0  0  0  0  0  0  0  0  0  0  0
  140.8060   68.7840  227.2490 C   0  0  0  0  0  0  0  0  0  0  0  0
  140.8730   69.9890  226.5710 C   0  0  0  0  0  0  0  0  0  0  0  0
  140.1770   70.2130  225.4020 C   0  0  0  0  0  0  0  0  0  0  0  0
  140.2900   71.5110  224.7310 C   0  0  0  0  0  0  0  0  0  0  0  0
  141.2450   72.2290  221.4400 N   0  0  0  0  0  0  0  0  0  0  0  0
  143.7000   72.0130  219.7940 C   0  0  0  0  0  0  0  0  0  0  0  0
  145.0660   72.6430  219.6830 C   0  0  0  0  0  0  0  0  0  0  0  0
  145.4940   71.9820  216.9180 H   0  0  0  0  0  0  0  0  0  0  0  0
  146.5020   73.3050  216.7520 H   0  0  0  0  0  0  0  0  0  0  0  0
  145.8552   74.2810  218.6818 H   0  0  0  0  0  0  0  0  0  0  0  0
  143.5470   72.9954  217.1840 H   0  0  0  0  0  0  0  0  0  0  0  0
  144.1778   74.6368  217.0134 H   0  0  0  0  0  0  0  0  0  0  0  0
  142.2674   74.8791  218.5050 H   0  0  0  0  0  0  0  0  0  0  0  0
  143.6361   74.8938  219.6167 H   0  0  0  0  0  0  0  0  0  0  0  0
  141.9642   72.4729  218.7420 H   0  0  0  0  0  0  0  0  0  0  0  0
  138.6243   77.0310  220.7179 H   0  0  0  0  0  0  0  0  0  0  0  0
  137.9126   75.6767  221.6692 H   0  0  0  0  0  0  0  0  0  0  0  0
  137.0507   77.8563  222.4641 H   0  0  0  0  0  0  0  0  0  0  0  0
  138.0300   77.0739  223.7300 H   0  0  0  0  0  0  0  0  0  0  0  0
  137.5004   80.2337  222.7595 H   0  0  0  0  0  0  0  0  0  0  0  0
  139.1493   82.0902  222.7529 H   0  0  0  0  0  0  0  0  0  0  0  0
  141.5904   81.5999  222.7161 H   0  0  0  0  0  0  0  0  0  0  0  0
  142.3455   79.2352  222.6896 H   0  0  0  0  0  0  0  0  0  0  0  0
  141.7913   76.9994  222.1370 H   0  0  0  0  0  0  0  0  0  0  0  0
  140.9659   76.7111  223.7384 H   0  0  0  0  0  0  0  0  0  0  0  0
  138.3263   70.8588  222.1921 H   0  0  0  0  0  0  0  0  0  0  0  0
  139.8632   69.8567  222.0543 H   0  0  0  0  0  0  0  0  0  0  0  0
  137.6259   69.7151  223.9472 H   0  0  0  0  0  0  0  0  0  0  0  0
  138.7003   68.4399  223.1380 H   0  0  0  0  0  0  0  0  0  0  0  0
  138.6817   67.1838  225.1562 H   0  0  0  0  0  0  0  0  0  0  0  0
  139.9485   66.7981  227.2679 H   0  0  0  0  0  0  0  0  0  0  0  0
  141.3747   68.6383  228.1792 H   0  0  0  0  0  0  0  0  0  0  0  0
  141.5021   70.7942  226.9782 H   0  0  0  0  0  0  0  0  0  0  0  0
  139.6090   72.2187  225.2263 H   0  0  0  0  0  0  0  0  0  0  0  0
  141.3427   71.8213  224.8049 H   0  0  0  0  0  0  0  0  0  0  0  0
  143.6404   71.1777  219.0807 H   0  0  0  0  0  0  0  0  0  0  0  0
  143.5773   71.6753  220.8337 H   0  0  0  0  0  0  0  0  0  0  0  0
  145.8214   71.8479  219.7677 H   0  0  0  0  0  0  0  0  0  0  0  0
  145.1400   73.3860  220.4908 H   0  0  0  0  0  0  0  0  0  0  0  0
  1  2  1  0
  2  3  1  0
  3  4  1  0
  4  5  1  0
  5  6  1  0
  6  7  2  0
  7  8  1  0
  8  9  1  0
  9 10  1  0
 10 11  1  0
 11 12  1  0
 12 13  2  0
 13 14  1  0
 14 15  2  0
 15 16  1  0
 16 17  2  0
 17 18  1  0
  8 19  2  0
 19 20  1  0
 20 21  1  0
 21 22  1  0
 22 23  1  0
 23 24  1  0
 24 25  2  0
 25 26  1  0
 26 27  2  0
 27 28  1  0
 28 29  2  0
 29 30  1  0
 20 31  2  0
  5 32  1  0
 32 33  1  0
 33  2  1  0
 31  6  1  0
 18  9  1  0
 30 21  1  0
 17 12  1  0
 29 24  1  0
  1 34  1  0
  1 35  1  0
  2 36  1  1
  3 37  1  0
  3 38  1  0
  4 39  1  0
  4 40  1  0
  5 41  1  6
 10 42  1  0
 10 43  1  0
 11 44  1  0
 11 45  1  0
 13 46  1  0
 14 47  1  0
 15 48  1  0
 16 49  1  0
 18 50  1  0
 18 51  1  0
 22 52  1  0
 22 53  1  0
 23 54  1  0
 23 55  1  0
 25 56  1  0
 26 57  1  0
 27 58  1  0
 28 59  1  0
 30 60  1  0
 30 61  1  0
 32 62  1  0
 32 63  1  0
 33 64  1  0
 33 65  1  0
M  END
>  <smiles>  (24) 
N[C@H]1CC[C@H](c2nc(N3CCc4ccccc4C3)nc(N3CCc4ccccc4C3)n2)CC1

>  <score_type>  (24) 
oracle

>  <origin>  (24) 
autodockgpu

>  <m_score__min__energy>  (24) 
-9.5800000000000001

>  <m_primary>  (24) 
energy

>  <rmsd>  (24) 
4.95499604900375

>  <m_score__min__rmsd>  (24) 
4.95499604900375

>  <meeko>  (24) 
{"free_energy": -9.53, "intermolecular_energy": -10.72, "internal_energy": -0.93, "cluster_size": 50, "cluster_id": 1, "rank_in_cluster": 15}

>  <energy>  (24) 
-9.49

>  <cluster_rmsd>  (24) 
0.58

>  <cluster>  (24) 
1

$$$$

     RDKit          3D

 65 70  0  0  0  0  0  0  0  0999 V2000
  146.3010   73.4200  217.7410 N   0  0  0  0  0  0  0  0  0  0  0  0
  145.2880   73.0200  218.6950 C   0  0  1  0  0  0  0  0  0  0  0  0
  145.5830   73.5910  220.0690 C   0  0  0  0  0  0  0  0  0  0  0  0
  144.3000   73.3930  220.8730 C   0  0  0  0  0  0  0  0  0  0  0  0
  143.3590   74.4920  220.3840 C   0  0  2  0  0  0  0  0  0  0  0  0
  142.0580   74.4750  221.0720 C   0  0  0  0  0  0  0  0  0  0  0  0
  141.6140   73.3290  221.6030 N   0  0  0  0  0  0  0  0  0  0  0  0
  140.4540   73.1960  222.2480 C   0  0  0  0  0  0  0  0  0  0  0  0
  140.0080   71.9630  222.8050 N   0  0  0  0  0  0  0  0  0  0  0  0
  138.9210   71.1890  222.2450 C   0  0  0  0  0  0  0  0  0  0  0  0
  139.2060   69.7050  222.3890 C   0  0  0  0  0  0  0  0  0  0  0  0
  139.3080   69.4110  223.8410 C   0  0  0  0  0  0  0  0  0  0  0  0
  138.7270   68.3370  224.4520 C   0  0  0  0  0  0  0  0  0  0  0  0
  138.8690   68.1270  225.8240 C   0  0  0  0  0  0  0  0  0  0  0  0
  139.6040   69.0090  226.5930 C   0  0  0  0  0  0  0  0  0  0  0  0
  140.1910   70.0960  225.9730 C   0  0  0  0  0  0  0  0  0  0  0  0
  140.0550   70.3150  224.6000 C   0  0  0  0  0  0  0  0  0  0  0  0
  140.6990   71.4830  223.9910 C   0  0  0  0  0  0  0  0  0  0  0  0
  139.6770   74.3120  222.3650 N   0  0  0  0  0  0  0  0  0  0  0  0
  140.1060   75.4800  221.8350 C   0  0  0  0  0  0  0  0  0  0  0  0
  139.2770   76.6300  221.9690 N   0  0  0  0  0  0  0  0  0  0  0  0
  137.8570   76.4410  221.7480 C   0  0  0  0  0  0  0  0  0  0  0  0
  137.0420   77.6760  221.7940 C   0  0  0  0  0  0  0  0  0  0  0  0
  137.5500   78.7700  222.6140 C   0  0  0  0  0  0  0  0  0  0  0  0
  136.6700   79.6990  223.1440 C   0  0  0  0  0  0  0  0  0  0  0  0
  137.1250   80.7520  223.9280 C   0  0  0  0  0  0  0  0  0  0  0  0
  138.4830   80.8590  224.1730 C   0  0  0  0  0  0  0  0  0  0  0  0
  139.3460   79.9210  223.6340 C   0  0  0  0  0  0  0  0  0  0  0  0
  138.8990   78.8730  222.8550 C   0  0  0  0  0  0  0  0  0  0  0  0
  139.8640   77.9130  222.3140 C   0  0  0  0  0  0  0  0  0  0  0  0
  141.2820   75.5580  221.1960 N   0  0  0  0  0  0  0  0  0  0  0  0
  143.2730   74.5250  218.8860 C   0  0  0  0  0  0  0  0  0  0  0  0
  143.8940   73.3170  218.2310 C   0  0  0  0  0  0  0  0  0  0  0  0
  145.9160   74.2360  217.1780 H   0  0  0  0  0  0  0  0  0  0  0  0
  147.1170   73.8110  218.2600 H   0  0  0  0  0  0  0  0  0  0  0  0
  145.3342   71.9239  218.7757 H   0  0  0  0  0  0  0  0  0  0  0  0
  145.8309   74.6603  219.9965 H   0  0  0  0  0  0  0  0  0  0  0  0
  146.4435   73.0956  220.5423 H   0  0  0  0  0  0  0  0  0  0  0  0
  144.4968   73.5022  221.9497 H   0  0  0  0  0  0  0  0  0  0  0  0
  143.8734   72.3888  220.7331 H   0  0  0  0  0  0  0  0  0  0  0  0
  143.8016   75.4574  220.6705 H   0  0  0  0  0  0  0  0  0  0  0  0
  137.9894   71.4334  222.7764 H   0  0  0  0  0  0  0  0  0  0  0  0
  138.8192   71.4331  221.1773 H   0  0  0  0  0  0  0  0  0  0  0  0
  138.3878   69.1201  221.9436 H   0  0  0  0  0  0  0  0  0  0  0  0
  140.1392   69.4369  221.8721 H   0  0  0  0  0  0  0  0  0  0  0  0
  138.1380   67.6265  223.8534 H   0  0  0  0  0  0  0  0  0  0  0  0
  138.3933   67.2547  226.2961 H   0  0  0  0  0  0  0  0  0  0  0  0
  139.7195   68.8495  227.6752 H   0  0  0  0  0  0  0  0  0  0  0  0
  140.7788   70.8050  226.5746 H   0  0  0  0  0  0  0  0  0  0  0  0
  140.7254   72.2946  224.7331 H   0  0  0  0  0  0  0  0  0  0  0  0
  141.7083   71.1755  223.6800 H   0  0  0  0  0  0  0  0  0  0  0  0
  137.7249   75.9829  220.7567 H   0  0  0  0  0  0  0  0  0  0  0  0
  137.5008   75.8093  222.5751 H   0  0  0  0  0  0  0  0  0  0  0  0
  136.9457   78.0495  220.7638 H   0  0  0  0  0  0  0  0  0  0  0  0
  136.0949   77.3779  222.2673 H   0  0  0  0  0  0  0  0  0  0  0  0
  135.5933   79.6016  222.9409 H   0  0  0  0  0  0  0  0  0  0  0  0
  136.4200   81.4859  224.3456 H   0  0  0  0  0  0  0  0  0  0  0  0
  138.8726   81.6819  224.7903 H   0  0  0  0  0  0  0  0  0  0  0  0
  140.4239   80.0137  223.8330 H   0  0  0  0  0  0  0  0  0  0  0  0
  140.3133   78.3449  221.4075 H   0  0  0  0  0  0  0  0  0  0  0  0
  140.6087   77.7256  223.1016 H   0  0  0  0  0  0  0  0  0  0  0  0
  143.7928   75.4248  218.5253 H   0  0  0  0  0  0  0  0  0  0  0  0
  142.2060   74.5307  218.6188 H   0  0  0  0  0  0  0  0  0  0  0  0
  143.9202   73.4879  217.1447 H   0  0  0  0  0  0  0  0  0  0  0  0
  143.2751   72.4512  218.5092 H   0  0  0  0  0  0  0  0  0  0  0  0
  1  2  1  0
  2  3  1  0
  3  4  1  0
  4  5  1  0
  5  6  1  0
  6  7  2  0
  7  8  1  0
  8  9  1  0
  9 10  1  0
 10 11  1  0
 11 12  1  0
 12 13  2  0
 13 14  1  0
 14 15  2  0
 15 16  1  0
 16 17  2  0
 17 18  1  0
  8 19  2  0
 19 20  1  0
 20 21  1  0
 21 22  1  0
 22 23  1  0
 23 24  1  0
 24 25  2  0
 25 26  1  0
 26 27  2  0
 27 28  1  0
 28 29  2  0
 29 30  1  0
 20 31  2  0
  5 32  1  0
 32 33  1  0
 33  2  1  0
 31  6  1  0
 18  9  1  0
 30 21  1  0
 17 12  1  0
 29 24  1  0
  1 34  1  0
  1 35  1  0
  2 36  1  1
  3 37  1  0
  3 38  1  0
  4 39  1  0
  4 40  1  0
  5 41  1  1
 10 42  1  0
 10 43  1  0
 11 44  1  0
 11 45  1  0
 13 46  1  0
 14 47  1  0
 15 48  1  0
 16 49  1  0
 18 50  1  0
 18 51  1  0
 22 52  1  0
 22 53  1  0
 23 54  1  0
 23 55  1  0
 25 56  1  0
 26 57  1  0
 27 58  1  0
 28 59  1  0
 30 60  1  0
 30 61  1  0
 32 62  1  0
 32 63  1  0
 33 64  1  0
 33 65  1  0
M  END
>  <smiles>  (25) 
N[C@H]1CC[C@H](c2nc(N3CCc4ccccc4C3)nc(N3CCc4ccccc4C3)n2)CC1

>  <score_type>  (25) 
oracle

>  <origin>  (25) 
autodockgpu

>  <m_score__min__energy>  (25) 
-9.5800000000000001

>  <m_primary>  (25) 
energy

>  <rmsd>  (25) 
10.476698458522181

>  <m_score__min__rmsd>  (25) 
10.476698458522181

>  <meeko>  (25) 
{"free_energy": -9.58, "intermolecular_energy": -10.77, "internal_energy": -0.94, "cluster_size": 50, "cluster_id": 1, "rank_in_cluster": 2}

>  <energy>  (25) 
-9.49

>  <cluster_rmsd>  (25) 
1.41

>  <cluster>  (25) 
1

$$$$

     RDKit          3D

 65 70  0  0  0  0  0  0  0  0999 V2000
  146.2390   73.3830  217.6720 N   0  0  0  0  0  0  0  0  0  0  0  0
  145.2650   73.0160  218.6780 C   0  0  1  0  0  0  0  0  0  0  0  0
  145.5610   73.7070  219.9950 C   0  0  0  0  0  0  0  0  0  0  0  0
  144.3050   73.5170  220.8420 C   0  0  0  0  0  0  0  0  0  0  0  0
  143.3050   74.5310  220.2900 C   0  0  2  0  0  0  0  0  0  0  0  0
  142.0190   74.5110  221.0070 C   0  0  0  0  0  0  0  0  0  0  0  0
  141.5880   73.3620  221.5440 N   0  0  0  0  0  0  0  0  0  0  0  0
  140.4420   73.2270  222.2150 C   0  0  0  0  0  0  0  0  0  0  0  0
  140.0100   71.9910  222.7770 N   0  0  0  0  0  0  0  0  0  0  0  0
  138.9370   71.1990  222.2150 C   0  0  0  0  0  0  0  0  0  0  0  0
  139.2420   69.7200  222.3710 C   0  0  0  0  0  0  0  0  0  0  0  0
  139.3380   69.4360  223.8250 C   0  0  0  0  0  0  0  0  0  0  0  0
  138.7670   68.3590  224.4390 C   0  0  0  0  0  0  0  0  0  0  0  0
  138.9020   68.1600  225.8130 C   0  0  0  0  0  0  0  0  0  0  0  0
  139.6190   69.0570  226.5810 C   0  0  0  0  0  0  0  0  0  0  0  0
  140.1960   70.1480  225.9580 C   0  0  0  0  0  0  0  0  0  0  0  0
  140.0670   70.3550  224.5840 C   0  0  0  0  0  0  0  0  0  0  0  0
  140.6980   71.5290  223.9700 C   0  0  0  0  0  0  0  0  0  0  0  0
  139.6680   74.3420  222.3540 N   0  0  0  0  0  0  0  0  0  0  0  0
  140.0850   75.5120  221.8190 C   0  0  0  0  0  0  0  0  0  0  0  0
  139.2590   76.6620  221.9770 N   0  0  0  0  0  0  0  0  0  0  0  0
  137.8350   76.4730  221.7870 C   0  0  0  0  0  0  0  0  0  0  0  0
  137.0210   77.7080  221.8560 C   0  0  0  0  0  0  0  0  0  0  0  0
  137.5470   78.7990  222.6690 C   0  0  0  0  0  0  0  0  0  0  0  0
  136.6790   79.7250  223.2230 C   0  0  0  0  0  0  0  0  0  0  0  0
  137.1510   80.7750  224.0020 C   0  0  0  0  0  0  0  0  0  0  0  0
  138.5140   80.8800  224.2160 C   0  0  0  0  0  0  0  0  0  0  0  0
  139.3650   79.9450  223.6540 C   0  0  0  0  0  0  0  0  0  0  0  0
  138.9010   78.9010  222.8810 C   0  0  0  0  0  0  0  0  0  0  0  0
  139.8530   77.9430  222.3140 C   0  0  0  0  0  0  0  0  0  0  0  0
  141.2470   75.5930  221.1540 N   0  0  0  0  0  0  0  0  0  0  0  0
  143.1870   74.4400  218.7960 C   0  0  0  0  0  0  0  0  0  0  0  0
  143.8500   73.2130  218.2250 C   0  0  0  0  0  0  0  0  0  0  0  0
  145.7130   73.7800  216.8360 H   0  0  0  0  0  0  0  0  0  0  0  0
  146.8120   74.1780  218.0310 H   0  0  0  0  0  0  0  0  0  0  0  0
  145.3630   71.9330  218.8438 H   0  0  0  0  0  0  0  0  0  0  0  0
  145.7579   74.7770  219.8328 H   0  0  0  0  0  0  0  0  0  0  0  0
  146.4528   73.2896  220.4853 H   0  0  0  0  0  0  0  0  0  0  0  0
  144.5179   73.7203  221.9019 H   0  0  0  0  0  0  0  0  0  0  0  0
  143.9223   72.4869  220.7919 H   0  0  0  0  0  0  0  0  0  0  0  0
  143.7091   75.5345  220.4895 H   0  0  0  0  0  0  0  0  0  0  0  0
  137.9987   71.4340  222.7388 H   0  0  0  0  0  0  0  0  0  0  0  0
  138.8382   71.4349  221.1451 H   0  0  0  0  0  0  0  0  0  0  0  0
  138.4353   69.1208  221.9236 H   0  0  0  0  0  0  0  0  0  0  0  0
  140.1828   69.4623  221.8626 H   0  0  0  0  0  0  0  0  0  0  0  0
  138.1916   67.6369  223.8411 H   0  0  0  0  0  0  0  0  0  0  0  0
  138.4351   67.2843  226.2875 H   0  0  0  0  0  0  0  0  0  0  0  0
  139.7285   68.9064  227.6651 H   0  0  0  0  0  0  0  0  0  0  0  0
  140.7696   70.8691  226.5588 H   0  0  0  0  0  0  0  0  0  0  0  0
  140.7073   72.3460  224.7065 H   0  0  0  0  0  0  0  0  0  0  0  0
  141.7134   71.2332  223.6675 H   0  0  0  0  0  0  0  0  0  0  0  0
  137.6810   76.0186  220.7971 H   0  0  0  0  0  0  0  0  0  0  0  0
  137.4974   75.8376  222.6191 H   0  0  0  0  0  0  0  0  0  0  0  0
  136.9018   78.0855  220.8297 H   0  0  0  0  0  0  0  0  0  0  0  0
  136.0846   77.4078  222.3490 H   0  0  0  0  0  0  0  0  0  0  0  0
  135.5981   79.6280  223.0436 H   0  0  0  0  0  0  0  0  0  0  0  0
  136.4558   81.5069  224.4390 H   0  0  0  0  0  0  0  0  0  0  0  0
  138.9177   81.7001  224.8279 H   0  0  0  0  0  0  0  0  0  0  0  0
  140.4470   80.0372  223.8294 H   0  0  0  0  0  0  0  0  0  0  0  0
  140.2815   78.3788  221.3994 H   0  0  0  0  0  0  0  0  0  0  0  0
  140.6150   77.7521  223.0840 H   0  0  0  0  0  0  0  0  0  0  0  0
  143.6569   75.3303  218.3527 H   0  0  0  0  0  0  0  0  0  0  0  0
  142.1157   74.3768  218.5545 H   0  0  0  0  0  0  0  0  0  0  0  0
  143.8468   73.2972  217.1282 H   0  0  0  0  0  0  0  0  0  0  0  0
  143.2775   72.3458  218.5858 H   0  0  0  0  0  0  0  0  0  0  0  0
  1  2  1  0
  2  3  1  0
  3  4  1  0
  4  5  1  0
  5  6  1  0
  6  7  2  0
  7  8  1  0
  8  9  1  0
  9 10  1  0
 10 11  1  0
 11 12  1  0
 12 13  2  0
 13 14  1  0
 14 15  2  0
 15 16  1  0
 16 17  2  0
 17 18  1  0
  8 19  2  0
 19 20  1  0
 20 21  1  0
 21 22  1  0
 22 23  1  0
 23 24  1  0
 24 25  2  0
 25 26  1  0
 26 27  2  0
 27 28  1  0
 28 29  2  0
 29 30  1  0
 20 31  2  0
  5 32  1  0
 32 33  1  0
 33  2  1  0
 31  6  1  0
 18  9  1  0
 30 21  1  0
 17 12  1  0
 29 24  1  0
  1 34  1  0
  1 35  1  0
  2 36  1  1
  3 37  1  0
  3 38  1  0
  4 39  1  0
  4 40  1  0
  5 41  1  6
 10 42  1  0
 10 43  1  0
 11 44  1  0
 11 45  1  0
 13 46  1  0
 14 47  1  0
 15 48  1  0
 16 49  1  0
 18 50  1  0
 18 51  1  0
 22 52  1  0
 22 53  1  0
 23 54  1  0
 23 55  1  0
 25 56  1  0
 26 57  1  0
 27 58  1  0
 28 59  1  0
 30 60  1  0
 30 61  1  0
 32 62  1  0
 32 63  1  0
 33 64  1  0
 33 65  1  0
M  END
>  <smiles>  (26) 
N[C@H]1CC[C@H](c2nc(N3CCc4ccccc4C3)nc(N3CCc4ccccc4C3)n2)CC1

>  <score_type>  (26) 
oracle

>  <origin>  (26) 
autodockgpu

>  <m_score__min__energy>  (26) 
-9.5800000000000001

>  <m_primary>  (26) 
energy

>  <rmsd>  (26) 
10.437570831746063

>  <m_score__min__rmsd>  (26) 
10.437570831746063

>  <meeko>  (26) 
{"free_energy": -9.48, "intermolecular_energy": -10.67, "internal_energy": -0.94, "cluster_size": 50, "cluster_id": 1, "rank_in_cluster": 30}

>  <energy>  (26) 
-9.48

>  <cluster_rmsd>  (26) 
1.31

>  <cluster>  (26) 
1

$$$$

     RDKit          3D

 65 70  0  0  0  0  0  0  0  0999 V2000
  146.3160   73.0930  217.7700 N   0  0  0  0  0  0  0  0  0  0  0  0
  145.1090   73.6770  218.3170 C   0  0  1  0  0  0  0  0  0  0  0  0
  143.8780   72.9680  217.7850 C   0  0  0  0  0  0  0  0  0  0  0  0
  142.7290   73.4330  218.6760 C   0  0  0  0  0  0  0  0  0  0  0  0
  142.8900   72.6370  219.9700 C   0  0  2  0  0  0  0  0  0  0  0  0
  141.8420   72.9390  220.9590 C   0  0  0  0  0  0  0  0  0  0  0  0
  141.4820   71.9950  221.8380 N   0  0  0  0  0  0  0  0  0  0  0  0
  140.5470   72.1570  222.7770 C   0  0  0  0  0  0  0  0  0  0  0  0
  140.1860   71.1340  223.7010 N   0  0  0  0  0  0  0  0  0  0  0  0
  138.9750   70.3510  223.5810 C   0  0  0  0  0  0  0  0  0  0  0  0
  139.2290   68.9240  224.0300 C   0  0  0  0  0  0  0  0  0  0  0  0
  139.6310   68.9710  225.4580 C   0  0  0  0  0  0  0  0  0  0  0  0
  139.1560   68.1280  226.4220 C   0  0  0  0  0  0  0  0  0  0  0  0
  139.5830   68.2350  227.7460 C   0  0  0  0  0  0  0  0  0  0  0  0
  140.5000   69.2040  228.1070 C   0  0  0  0  0  0  0  0  0  0  0  0
  140.9790   70.0570  227.1310 C   0  0  0  0  0  0  0  0  0  0  0  0
  140.5580   69.9580  225.8030 C   0  0  0  0  0  0  0  0  0  0  0  0
  141.0980   70.8880  224.8050 C   0  0  0  0  0  0  0  0  0  0  0  0
  139.9240   73.3690  222.8300 N   0  0  0  0  0  0  0  0  0  0  0  0
  140.2720   74.3360  221.9510 C   0  0  0  0  0  0  0  0  0  0  0  0
  139.6060   75.5930  222.0270 N   0  0  0  0  0  0  0  0  0  0  0  0
  138.1570   75.5630  222.0530 C   0  0  0  0  0  0  0  0  0  0  0  0
  137.4990   76.8890  222.0260 C   0  0  0  0  0  0  0  0  0  0  0  0
  138.2530   78.0090  222.5810 C   0  0  0  0  0  0  0  0  0  0  0  0
  137.5790   79.1090  223.0850 C   0  0  0  0  0  0  0  0  0  0  0  0
  138.2700   80.1910  223.6190 C   0  0  0  0  0  0  0  0  0  0  0  0
  139.6530   80.1500  223.6380 C   0  0  0  0  0  0  0  0  0  0  0  0
  140.3080   79.0420  223.1290 C   0  0  0  0  0  0  0  0  0  0  0  0
  139.6270   77.9660  222.5990 C   0  0  0  0  0  0  0  0  0  0  0  0
  140.3770   76.8220  222.0750 C   0  0  0  0  0  0  0  0  0  0  0  0
  141.2200   74.1210  221.0270 N   0  0  0  0  0  0  0  0  0  0  0  0
  144.2910   72.7170  220.5010 C   0  0  0  0  0  0  0  0  0  0  0  0
  145.1260   73.7670  219.8120 C   0  0  0  0  0  0  0  0  0  0  0  0
  146.1520   72.9110  216.7350 H   0  0  0  0  0  0  0  0  0  0  0  0
  147.0790   73.8050  217.8010 H   0  0  0  0  0  0  0  0  0  0  0  0
  145.0661   74.7200  217.9700 H   0  0  0  0  0  0  0  0  0  0  0  0
  144.0018   71.8771  217.8537 H   0  0  0  0  0  0  0  0  0  0  0  0
  143.6959   73.2015  216.7256 H   0  0  0  0  0  0  0  0  0  0  0  0
  141.7598   73.2134  218.2043 H   0  0  0  0  0  0  0  0  0  0  0  0
  142.7533   74.5187  218.8512 H   0  0  0  0  0  0  0  0  0  0  0  0
  142.7313   71.5760  219.7268 H   0  0  0  0  0  0  0  0  0  0  0  0
  138.1903   70.7961  224.2104 H   0  0  0  0  0  0  0  0  0  0  0  0
  138.6533   70.3452  222.5291 H   0  0  0  0  0  0  0  0  0  0  0  0
  138.3127   68.3260  223.9172 H   0  0  0  0  0  0  0  0  0  0  0  0
  140.0184   68.4604  223.4201 H   0  0  0  0  0  0  0  0  0  0  0  0
  138.4251   67.3522  226.1502 H   0  0  0  0  0  0  0  0  0  0  0  0
  139.1879   67.5449  228.5061 H   0  0  0  0  0  0  0  0  0  0  0  0
  140.8412   69.2943  229.1488 H   0  0  0  0  0  0  0  0  0  0  0  0
  141.7091   70.8323  227.4065 H   0  0  0  0  0  0  0  0  0  0  0  0
  141.3141   71.8461  225.3004 H   0  0  0  0  0  0  0  0  0  0  0  0
  142.0041   70.4273  224.3847 H   0  0  0  0  0  0  0  0  0  0  0  0
  137.8125   74.9941  221.1768 H   0  0  0  0  0  0  0  0  0  0  0  0
  137.8781   75.1030  223.0125 H   0  0  0  0  0  0  0  0  0  0  0  0
  137.2734   77.1273  220.9761 H   0  0  0  0  0  0  0  0  0  0  0  0
  136.6168   76.7860  222.6750 H   0  0  0  0  0  0  0  0  0  0  0  0
  136.4794   79.1269  223.0625 H   0  0  0  0  0  0  0  0  0  0  0  0
  137.7286   81.0614  224.0180 H   0  0  0  0  0  0  0  0  0  0  0  0
  140.2271   80.9910  224.0542 H   0  0  0  0  0  0  0  0  0  0  0  0
  141.4076   79.0188  223.1478 H   0  0  0  0  0  0  0  0  0  0  0  0
  140.7107   77.0630  221.0549 H   0  0  0  0  0  0  0  0  0  0  0  0
  141.2190   76.6474  222.7610 H   0  0  0  0  0  0  0  0  0  0  0  0
  144.7744   71.7387  220.3621 H   0  0  0  0  0  0  0  0  0  0  0  0
  144.2238   72.9963  221.5628 H   0  0  0  0  0  0  0  0  0  0  0  0
  146.1663   73.6597  220.1528 H   0  0  0  0  0  0  0  0  0  0  0  0
  144.6912   74.7422  220.0763 H   0  0  0  0  0  0  0  0  0  0  0  0
  1  2  1  0
  2  3  1  0
  3  4  1  0
  4  5  1  0
  5  6  1  0
  6  7  2  0
  7  8  1  0
  8  9  1  0
  9 10  1  0
 10 11  1  0
 11 12  1  0
 12 13  2  0
 13 14  1  0
 14 15  2  0
 15 16  1  0
 16 17  2  0
 17 18  1  0
  8 19  2  0
 19 20  1  0
 20 21  1  0
 21 22  1  0
 22 23  1  0
 23 24  1  0
 24 25  2  0
 25 26  1  0
 26 27  2  0
 27 28  1  0
 28 29  2  0
 29 30  1  0
 20 31  2  0
  5 32  1  0
 32 33  1  0
 33  2  1  0
 31  6  1  0
 18  9  1  0
 30 21  1  0
 17 12  1  0
 29 24  1  0
  1 34  1  0
  1 35  1  0
  2 36  1  6
  3 37  1  0
  3 38  1  0
  4 39  1  0
  4 40  1  0
  5 41  1  6
 10 42  1  0
 10 43  1  0
 11 44  1  0
 11 45  1  0
 13 46  1  0
 14 47  1  0
 15 48  1  0
 16 49  1  0
 18 50  1  0
 18 51  1  0
 22 52  1  0
 22 53  1  0
 23 54  1  0
 23 55  1  0
 25 56  1  0
 26 57  1  0
 27 58  1  0
 28 59  1  0
 30 60  1  0
 30 61  1  0
 32 62  1  0
 32 63  1  0
 33 64  1  0
 33 65  1  0
M  END
>  <smiles>  (27) 
N[C@H]1CC[C@H](c2nc(N3CCc4ccccc4C3)nc(N3CCc4ccccc4C3)n2)CC1

>  <score_type>  (27) 
oracle

>  <origin>  (27) 
autodockgpu

>  <m_score__min__energy>  (27) 
-9.5800000000000001

>  <m_primary>  (27) 
energy

>  <rmsd>  (27) 
11.434630266737921

>  <m_score__min__rmsd>  (27) 
11.434630266737921

>  <meeko>  (27) 
{"free_energy": -9.5, "intermolecular_energy": -10.7, "internal_energy": -0.92, "cluster_size": 50, "cluster_id": 1, "rank_in_cluster": 20}

>  <energy>  (27) 
-9.48

>  <cluster_rmsd>  (27) 
0.6

>  <cluster>  (27) 
1

$$$$

     RDKit          3D

 65 70  0  0  0  0  0  0  0  0999 V2000
  145.9840   72.5650  217.3630 N   0  0  0  0  0  0  0  0  0  0  0  0
  145.0650   73.3580  218.1520 C   0  0  1  0  0  0  0  0  0  0  0  0
  143.6910   73.3920  217.5090 C   0  0  0  0  0  0  0  0  0  0  0  0
  142.7570   73.9480  218.5800 C   0  0  0  0  0  0  0  0  0  0  0  0
  142.5170   72.7800  219.5340 C   0  0  2  0  0  0  0  0  0  0  0  0
  141.6060   73.1250  220.6390 C   0  0  0  0  0  0  0  0  0  0  0  0
  141.2690   72.1810  221.5270 N   0  0  0  0  0  0  0  0  0  0  0  0
  140.4550   72.3800  222.5660 C   0  0  0  0  0  0  0  0  0  0  0  0
  140.1150   71.3560  223.4960 N   0  0  0  0  0  0  0  0  0  0  0  0
  138.9170   70.5510  223.3840 C   0  0  0  0  0  0  0  0  0  0  0  0
  139.1980   69.1300  223.8390 C   0  0  0  0  0  0  0  0  0  0  0  0
  139.6030   69.1920  225.2660 C   0  0  0  0  0  0  0  0  0  0  0  0
  139.1460   68.3460  226.2350 C   0  0  0  0  0  0  0  0  0  0  0  0
  139.5750   68.4680  227.5570 C   0  0  0  0  0  0  0  0  0  0  0  0
  140.4750   69.4540  227.9110 C   0  0  0  0  0  0  0  0  0  0  0  0
  140.9370   70.3110  226.9290 C   0  0  0  0  0  0  0  0  0  0  0  0
  140.5140   70.1970  225.6030 C   0  0  0  0  0  0  0  0  0  0  0  0
  141.0340   71.1310  224.5990 C   0  0  0  0  0  0  0  0  0  0  0  0
  139.9380   73.6330  222.7190 N   0  0  0  0  0  0  0  0  0  0  0  0
  140.2650   74.6010  221.8330 C   0  0  0  0  0  0  0  0  0  0  0  0
  139.7120   75.9010  222.0140 N   0  0  0  0  0  0  0  0  0  0  0  0
  138.2880   75.9740  222.2730 C   0  0  0  0  0  0  0  0  0  0  0  0
  137.7310   77.3430  222.3520 C   0  0  0  0  0  0  0  0  0  0  0  0
  138.6420   78.4010  222.7770 C   0  0  0  0  0  0  0  0  0  0  0  0
  138.1390   79.5410  223.3820 C   0  0  0  0  0  0  0  0  0  0  0  0
  138.9820   80.5650  223.7960 C   0  0  0  0  0  0  0  0  0  0  0  0
  140.3440   80.4260  223.5920 C   0  0  0  0  0  0  0  0  0  0  0  0
  140.8270   79.2790  222.9860 C   0  0  0  0  0  0  0  0  0  0  0  0
  139.9940   78.2600  222.5730 C   0  0  0  0  0  0  0  0  0  0  0  0
  140.5670   77.0720  221.9360 C   0  0  0  0  0  0  0  0  0  0  0  0
  141.0890   74.3470  220.8060 N   0  0  0  0  0  0  0  0  0  0  0  0
  143.8030   72.1380  219.9640 C   0  0  0  0  0  0  0  0  0  0  0  0
  145.0200   72.9470  219.5920 C   0  0  0  0  0  0  0  0  0  0  0  0
  145.4480   71.7340  216.9730 H   0  0  0  0  0  0  0  0  0  0  0  0
  146.2740   73.1170  216.5260 H   0  0  0  0  0  0  0  0  0  0  0  0
  145.4522   74.3876  218.1617 H   0  0  0  0  0  0  0  0  0  0  0  0
  143.3788   72.3793  217.2139 H   0  0  0  0  0  0  0  0  0  0  0  0
  143.6807   74.0073  216.5973 H   0  0  0  0  0  0  0  0  0  0  0  0
  141.8099   74.2831  218.1320 H   0  0  0  0  0  0  0  0  0  0  0  0
  143.1869   74.8210  219.0929 H   0  0  0  0  0  0  0  0  0  0  0  0
  141.9780   72.0024  218.9730 H   0  0  0  0  0  0  0  0  0  0  0  0
  138.1269   70.9852  224.0142 H   0  0  0  0  0  0  0  0  0  0  0  0
  138.5915   70.5346  222.3334 H   0  0  0  0  0  0  0  0  0  0  0  0
  138.2923   68.5149  223.7317 H   0  0  0  0  0  0  0  0  0  0  0  0
  139.9936   68.6773  223.2290 H   0  0  0  0  0  0  0  0  0  0  0  0
  138.4283   67.5558  225.9694 H   0  0  0  0  0  0  0  0  0  0  0  0
  139.1943   67.7750  228.3217 H   0  0  0  0  0  0  0  0  0  0  0  0
  140.8169   69.5554  228.9516 H   0  0  0  0  0  0  0  0  0  0  0  0
  141.6540   71.1005  227.1985 H   0  0  0  0  0  0  0  0  0  0  0  0
  141.2346   72.0951  225.0891 H   0  0  0  0  0  0  0  0  0  0  0  0
  141.9465   70.6837  224.1781 H   0  0  0  0  0  0  0  0  0  0  0  0
  137.7672   75.4410  221.4639 H   0  0  0  0  0  0  0  0  0  0  0  0
  138.1349   75.5245  223.2652 H   0  0  0  0  0  0  0  0  0  0  0  0
  137.3566   77.6081  221.3522 H   0  0  0  0  0  0  0  0  0  0  0  0
  136.9603   77.2952  223.1354 H   0  0  0  0  0  0  0  0  0  0  0  0
  137.0543   79.6372  223.5373 H   0  0  0  0  0  0  0  0  0  0  0  0
  138.5754   81.4674  224.2759 H   0  0  0  0  0  0  0  0  0  0  0  0
  141.0364   81.2199  223.9086 H   0  0  0  0  0  0  0  0  0  0  0  0
  141.9109   79.1767  222.8286 H   0  0  0  0  0  0  0  0  0  0  0  0
  140.7489   77.2997  220.8753 H   0  0  0  0  0  0  0  0  0  0  0  0
  141.4939   76.8312  222.4772 H   0  0  0  0  0  0  0  0  0  0  0  0
  143.8789   71.1506  219.4851 H   0  0  0  0  0  0  0  0  0  0  0  0
  143.7816   72.0623  221.0612 H   0  0  0  0  0  0  0  0  0  0  0  0
  145.9145   72.3441  219.8072 H   0  0  0  0  0  0  0  0  0  0  0  0
  144.9787   73.8727  220.1848 H   0  0  0  0  0  0  0  0  0  0  0  0
  1  2  1  0
  2  3  1  0
  3  4  1  0
  4  5  1  0
  5  6  1  0
  6  7  2  0
  7  8  1  0
  8  9  1  0
  9 10  1  0
 10 11  1  0
 11 12  1  0
 12 13  2  0
 13 14  1  0
 14 15  2  0
 15 16  1  0
 16 17  2  0
 17 18  1  0
  8 19  2  0
 19 20  1  0
 20 21  1  0
 21 22  1  0
 22 23  1  0
 23 24  1  0
 24 25  2  0
 25 26  1  0
 26 27  2  0
 27 28  1  0
 28 29  2  0
 29 30  1  0
 20 31  2  0
  5 32  1  0
 32 33  1  0
 33  2  1  0
 31  6  1  0
 18  9  1  0
 30 21  1  0
 17 12  1  0
 29 24  1  0
  1 34  1  0
  1 35  1  0
  2 36  1  1
  3 37  1  0
  3 38  1  0
  4 39  1  0
  4 40  1  0
  5 41  1  6
 10 42  1  0
 10 43  1  0
 11 44  1  0
 11 45  1  0
 13 46  1  0
 14 47  1  0
 15 48  1  0
 16 49  1  0
 18 50  1  0
 18 51  1  0
 22 52  1  0
 22 53  1  0
 23 54  1  0
 23 55  1  0
 25 56  1  0
 26 57  1  0
 27 58  1  0
 28 59  1  0
 30 60  1  0
 30 61  1  0
 32 62  1  0
 32 63  1  0
 33 64  1  0
 33 65  1  0
M  END
>  <smiles>  (28) 
N[C@H]1CC[C@H](c2nc(N3CCc4ccccc4C3)nc(N3CCc4ccccc4C3)n2)CC1

>  <score_type>  (28) 
oracle

>  <origin>  (28) 
autodockgpu

>  <m_score__min__energy>  (28) 
-9.5800000000000001

>  <m_primary>  (28) 
energy

>  <rmsd>  (28) 
11.151446742543413

>  <m_score__min__rmsd>  (28) 
11.151446742543413

>  <meeko>  (28) 
{"free_energy": -9.5, "intermolecular_energy": -10.69, "internal_energy": -0.93, "cluster_size": 50, "cluster_id": 1, "rank_in_cluster": 23}

>  <energy>  (28) 
-9.48

>  <cluster_rmsd>  (28) 
0.87

>  <cluster>  (28) 
1

$$$$

     RDKit          3D

 65 70  0  0  0  0  0  0  0  0999 V2000
  146.2930   73.4350  217.7150 N   0  0  0  0  0  0  0  0  0  0  0  0
  145.2870   73.0370  218.6780 C   0  0  1  0  0  0  0  0  0  0  0  0
  145.5810   73.6310  220.0420 C   0  0  0  0  0  0  0  0  0  0  0  0
  144.3030   73.4300  220.8530 C   0  0  0  0  0  0  0  0  0  0  0  0
  143.3480   74.5120  220.3520 C   0  0  2  0  0  0  0  0  0  0  0  0
  142.0490   74.4900  221.0450 C   0  0  0  0  0  0  0  0  0  0  0  0
  141.6110   73.3410  221.5770 N   0  0  0  0  0  0  0  0  0  0  0  0
  140.4530   73.2040  222.2260 C   0  0  0  0  0  0  0  0  0  0  0  0
  140.0140   71.9690  222.7830 N   0  0  0  0  0  0  0  0  0  0  0  0
  138.9350   71.1860  222.2200 C   0  0  0  0  0  0  0  0  0  0  0  0
  139.2300   69.7050  222.3690 C   0  0  0  0  0  0  0  0  0  0  0  0
  139.3270   69.4140  223.8210 C   0  0  0  0  0  0  0  0  0  0  0  0
  138.7510   68.3370  224.4320 C   0  0  0  0  0  0  0  0  0  0  0  0
  138.8880   68.1310  225.8050 C   0  0  0  0  0  0  0  0  0  0  0  0
  139.6130   69.0200  226.5750 C   0  0  0  0  0  0  0  0  0  0  0  0
  140.1950   70.1100  225.9560 C   0  0  0  0  0  0  0  0  0  0  0  0
  140.0640   70.3250  224.5820 C   0  0  0  0  0  0  0  0  0  0  0  0
  140.7020   71.4970  223.9730 C   0  0  0  0  0  0  0  0  0  0  0  0
  139.6730   74.3170  222.3460 N   0  0  0  0  0  0  0  0  0  0  0  0
  140.0970   75.4870  221.8160 C   0  0  0  0  0  0  0  0  0  0  0  0
  139.2640   76.6350  221.9540 N   0  0  0  0  0  0  0  0  0  0  0  0
  137.8420   76.4370  221.7550 C   0  0  0  0  0  0  0  0  0  0  0  0
  137.0220   77.6680  221.8040 C   0  0  0  0  0  0  0  0  0  0  0  0
  137.5370   78.7710  222.6080 C   0  0  0  0  0  0  0  0  0  0  0  0
  136.6600   79.7000  223.1450 C   0  0  0  0  0  0  0  0  0  0  0  0
  137.1220   80.7610  223.9140 C   0  0  0  0  0  0  0  0  0  0  0  0
  138.4820   80.8750  224.1380 C   0  0  0  0  0  0  0  0  0  0  0  0
  139.3420   79.9370  223.5940 C   0  0  0  0  0  0  0  0  0  0  0  0
  138.8890   78.8820  222.8290 C   0  0  0  0  0  0  0  0  0  0  0  0
  139.8500   77.9220  222.2800 C   0  0  0  0  0  0  0  0  0  0  0  0
  141.2700   75.5700  221.1730 N   0  0  0  0  0  0  0  0  0  0  0  0
  143.2560   74.5220  218.8540 C   0  0  0  0  0  0  0  0  0  0  0  0
  143.8890   73.3120  218.2150 C   0  0  0  0  0  0  0  0  0  0  0  0
  145.8980   74.2420  217.1450 H   0  0  0  0  0  0  0  0  0  0  0  0
  147.1080   73.8380  218.2250 H   0  0  0  0  0  0  0  0  0  0  0  0
  145.3446   71.9427  218.7739 H   0  0  0  0  0  0  0  0  0  0  0  0
  145.8166   74.7018  219.9533 H   0  0  0  0  0  0  0  0  0  0  0  0
  146.4490   73.1526  220.5192 H   0  0  0  0  0  0  0  0  0  0  0  0
  144.5021   73.5563  221.9274 H   0  0  0  0  0  0  0  0  0  0  0  0
  143.8871   72.4193  220.7284 H   0  0  0  0  0  0  0  0  0  0  0  0
  143.7809   75.4862  220.6233 H   0  0  0  0  0  0  0  0  0  0  0  0
  137.9993   71.4250  222.7466 H   0  0  0  0  0  0  0  0  0  0  0  0
  138.8361   71.4268  221.1512 H   0  0  0  0  0  0  0  0  0  0  0  0
  138.4183   69.1133  221.9207 H   0  0  0  0  0  0  0  0  0  0  0  0
  140.1680   69.4432  221.8576 H   0  0  0  0  0  0  0  0  0  0  0  0
  138.1701   67.6209  223.8323 H   0  0  0  0  0  0  0  0  0  0  0  0
  138.4164   67.2564  226.2769 H   0  0  0  0  0  0  0  0  0  0  0  0
  139.7247   68.8635  227.6581 H   0  0  0  0  0  0  0  0  0  0  0  0
  140.7746   70.8245  226.5590 H   0  0  0  0  0  0  0  0  0  0  0  0
  140.7184   72.3104  224.7133 H   0  0  0  0  0  0  0  0  0  0  0  0
  141.7150   71.1963  223.6676 H   0  0  0  0  0  0  0  0  0  0  0  0
  137.6979   75.9710  220.7691 H   0  0  0  0  0  0  0  0  0  0  0  0
  137.5010   75.8093  222.5915 H   0  0  0  0  0  0  0  0  0  0  0  0
  136.9082   78.0331  220.7726 H   0  0  0  0  0  0  0  0  0  0  0  0
  136.0837   77.3689  222.2940 H   0  0  0  0  0  0  0  0  0  0  0  0
  135.5808   79.5957  222.9595 H   0  0  0  0  0  0  0  0  0  0  0  0
  136.4203   81.4954  224.3361 H   0  0  0  0  0  0  0  0  0  0  0  0
  138.8768   81.7042  224.7434 H   0  0  0  0  0  0  0  0  0  0  0  0
  140.4221   80.0358  223.7776 H   0  0  0  0  0  0  0  0  0  0  0  0
  140.2832   78.3490  221.3635 H   0  0  0  0  0  0  0  0  0  0  0  0
  140.6077   77.7438  223.0573 H   0  0  0  0  0  0  0  0  0  0  0  0
  143.7637   75.4225  218.4780 H   0  0  0  0  0  0  0  0  0  0  0  0
  142.1880   74.5113  218.5907 H   0  0  0  0  0  0  0  0  0  0  0  0
  143.9099   73.4674  217.1262 H   0  0  0  0  0  0  0  0  0  0  0  0
  143.2810   72.4436  218.5084 H   0  0  0  0  0  0  0  0  0  0  0  0
  1  2  1  0
  2  3  1  0
  3  4  1  0
  4  5  1  0
  5  6  1  0
  6  7  2  0
  7  8  1  0
  8  9  1  0
  9 10  1  0
 10 11  1  0
 11 12  1  0
 12 13  2  0
 13 14  1  0
 14 15  2  0
 15 16  1  0
 16 17  2  0
 17 18  1  0
  8 19  2  0
 19 20  1  0
 20 21  1  0
 21 22  1  0
 22 23  1  0
 23 24  1  0
 24 25  2  0
 25 26  1  0
 26 27  2  0
 27 28  1  0
 28 29  2  0
 29 30  1  0
 20 31  2  0
  5 32  1  0
 32 33  1  0
 33  2  1  0
 31  6  1  0
 18  9  1  0
 30 21  1  0
 17 12  1  0
 29 24  1  0
  1 34  1  0
  1 35  1  0
  2 36  1  1
  3 37  1  0
  3 38  1  0
  4 39  1  0
  4 40  1  0
  5 41  1  1
 10 42  1  0
 10 43  1  0
 11 44  1  0
 11 45  1  0
 13 46  1  0
 14 47  1  0
 15 48  1  0
 16 49  1  0
 18 50  1  0
 18 51  1  0
 22 52  1  0
 22 53  1  0
 23 54  1  0
 23 55  1  0
 25 56  1  0
 26 57  1  0
 27 58  1  0
 28 59  1  0
 30 60  1  0
 30 61  1  0
 32 62  1  0
 32 63  1  0
 33 64  1  0
 33 65  1  0
M  END
>  <smiles>  (29) 
N[C@H]1CC[C@H](c2nc(N3CCc4ccccc4C3)nc(N3CCc4ccccc4C3)n2)CC1

>  <score_type>  (29) 
oracle

>  <origin>  (29) 
autodockgpu

>  <m_score__min__energy>  (29) 
-9.5800000000000001

>  <m_primary>  (29) 
energy

>  <rmsd>  (29) 
10.460290063180787

>  <m_score__min__rmsd>  (29) 
10.460290063180787

>  <meeko>  (29) 
{"free_energy": -9.57, "intermolecular_energy": -10.77, "internal_energy": -0.94, "cluster_size": 50, "cluster_id": 1, "rank_in_cluster": 3}

>  <energy>  (29) 
-9.48

>  <cluster_rmsd>  (29) 
1.13

>  <cluster>  (29) 
1

$$$$

     RDKit          3D

 65 70  0  0  0  0  0  0  0  0999 V2000
  145.9930   73.1340  217.6220 N   0  0  0  0  0  0  0  0  0  0  0  0
  145.0940   72.8330  218.7170 C   0  0  1  0  0  0  0  0  0  0  0  0
  145.3960   73.7050  219.9200 C   0  0  0  0  0  0  0  0  0  0  0  0
  144.1970   73.5390  220.8500 C   0  0  0  0  0  0  0  0  0  0  0  0
  143.1000   74.4040  220.2310 C   0  0  2  0  0  0  0  0  0  0  0  0
  141.8530   74.3880  221.0140 C   0  0  0  0  0  0  0  0  0  0  0  0
  141.4610   73.2470  221.5960 N   0  0  0  0  0  0  0  0  0  0  0  0
  140.3520   73.1160  222.3270 C   0  0  0  0  0  0  0  0  0  0  0  0
  139.9610   71.8890  222.9360 N   0  0  0  0  0  0  0  0  0  0  0  0
  138.8740   71.0720  222.4420 C   0  0  0  0  0  0  0  0  0  0  0  0
  139.2040   69.6000  222.6170 C   0  0  0  0  0  0  0  0  0  0  0  0
  139.3700   69.3510  224.0710 C   0  0  0  0  0  0  0  0  0  0  0  0
  138.8410   68.2820  224.7360 C   0  0  0  0  0  0  0  0  0  0  0  0
  139.0420   68.1160  226.1060 C   0  0  0  0  0  0  0  0  0  0  0  0
  139.7820   69.0390  226.8200 C   0  0  0  0  0  0  0  0  0  0  0  0
  140.3160   70.1210  226.1460 C   0  0  0  0  0  0  0  0  0  0  0  0
  140.1220   70.2960  224.7750 C   0  0  0  0  0  0  0  0  0  0  0  0
  140.7100   71.4620  224.1070 C   0  0  0  0  0  0  0  0  0  0  0  0
  139.5750   74.2270  222.4820 N   0  0  0  0  0  0  0  0  0  0  0  0
  139.9530   75.3880  221.9020 C   0  0  0  0  0  0  0  0  0  0  0  0
  139.1250   76.5340  222.0780 N   0  0  0  0  0  0  0  0  0  0  0  0
  137.6930   76.3220  221.9980 C   0  0  0  0  0  0  0  0  0  0  0  0
  136.8690   77.5490  222.0810 C   0  0  0  0  0  0  0  0  0  0  0  0
  137.4370   78.6760  222.8140 C   0  0  0  0  0  0  0  0  0  0  0  0
  136.5980   79.6120  223.3960 C   0  0  0  0  0  0  0  0  0  0  0  0
  137.1110   80.6950  224.0990 C   0  0  0  0  0  0  0  0  0  0  0  0
  138.4840   80.8240  224.2110 C   0  0  0  0  0  0  0  0  0  0  0  0
  139.3050   79.8780  223.6230 C   0  0  0  0  0  0  0  0  0  0  0  0
  138.8010   78.8010  222.9240 C   0  0  0  0  0  0  0  0  0  0  0  0
  139.7240   77.8330  222.3240 C   0  0  0  0  0  0  0  0  0  0  0  0
  141.0780   75.4650  221.1770 N   0  0  0  0  0  0  0  0  0  0  0  0
  142.9230   74.1160  218.7700 C   0  0  0  0  0  0  0  0  0  0  0  0
  143.6500   72.8740  218.3200 C   0  0  0  0  0  0  0  0  0  0  0  0
  145.4690   72.9630  216.7130 H   0  0  0  0  0  0  0  0  0  0  0  0
  146.1980   74.1580  217.6270 H   0  0  0  0  0  0  0  0  0  0  0  0
  145.2795   71.7891  219.0101 H   0  0  0  0  0  0  0  0  0  0  0  0
  145.5049   74.7565  219.6159 H   0  0  0  0  0  0  0  0  0  0  0  0
  146.3376   73.4158  220.4097 H   0  0  0  0  0  0  0  0  0  0  0  0
  144.4413   73.8897  221.8636 H   0  0  0  0  0  0  0  0  0  0  0  0
  143.8904   72.4872  220.9484 H   0  0  0  0  0  0  0  0  0  0  0  0
  143.4360   75.4502  220.2819 H   0  0  0  0  0  0  0  0  0  0  0  0
  137.9577   71.3083  223.0028 H   0  0  0  0  0  0  0  0  0  0  0  0
  138.7239   71.2819  221.3727 H   0  0  0  0  0  0  0  0  0  0  0  0
  138.3850   68.9816  222.2209 H   0  0  0  0  0  0  0  0  0  0  0  0
  140.1235   69.3411  222.0716 H   0  0  0  0  0  0  0  0  0  0  0  0
  138.2469   67.5401  224.1823 H   0  0  0  0  0  0  0  0  0  0  0  0
  138.6092   67.2457  226.6209 H   0  0  0  0  0  0  0  0  0  0  0  0
  139.9426   68.9153  227.9012 H   0  0  0  0  0  0  0  0  0  0  0  0
  140.9080   70.8619  226.7034 H   0  0  0  0  0  0  0  0  0  0  0  0
  140.7435   72.2957  224.8238 H   0  0  0  0  0  0  0  0  0  0  0  0
  141.7141   71.1710  223.7648 H   0  0  0  0  0  0  0  0  0  0  0  0
  137.4748   75.8297  221.0388 H   0  0  0  0  0  0  0  0  0  0  0  0
  137.4248   75.7141  222.8746 H   0  0  0  0  0  0  0  0  0  0  0  0
  136.6709   77.8867  221.0530 H   0  0  0  0  0  0  0  0  0  0  0  0
  135.9749   77.2567  222.6512 H   0  0  0  0  0  0  0  0  0  0  0  0
  135.5084   79.4960  223.3001 H   0  0  0  0  0  0  0  0  0  0  0  0
  136.4388   81.4353  224.5575 H   0  0  0  0  0  0  0  0  0  0  0  0
  138.9189   81.6707  224.7623 H   0  0  0  0  0  0  0  0  0  0  0  0
  140.3955   79.9885  223.7161 H   0  0  0  0  0  0  0  0  0  0  0  0
  140.0792   78.2392  221.3655 H   0  0  0  0  0  0  0  0  0  0  0  0
  140.5426   77.6798  223.0427 H   0  0  0  0  0  0  0  0  0  0  0  0
  143.3049   74.9728  218.1954 H   0  0  0  0  0  0  0  0  0  0  0  0
  141.8497   73.9492  218.5961 H   0  0  0  0  0  0  0  0  0  0  0  0
  143.5916   72.8178  217.2230 H   0  0  0  0  0  0  0  0  0  0  0  0
  143.1604   72.0227  218.8156 H   0  0  0  0  0  0  0  0  0  0  0  0
  1  2  1  0
  2  3  1  0
  3  4  1  0
  4  5  1  0
  5  6  1  0
  6  7  2  0
  7  8  1  0
  8  9  1  0
  9 10  1  0
 10 11  1  0
 11 12  1  0
 12 13  2  0
 13 14  1  0
 14 15  2  0
 15 16  1  0
 16 17  2  0
 17 18  1  0
  8 19  2  0
 19 20  1  0
 20 21  1  0
 21 22  1  0
 22 23  1  0
 23 24  1  0
 24 25  2  0
 25 26  1  0
 26 27  2  0
 27 28  1  0
 28 29  2  0
 29 30  1  0
 20 31  2  0
  5 32  1  0
 32 33  1  0
 33  2  1  0
 31  6  1  0
 18  9  1  0
 30 21  1  0
 17 12  1  0
 29 24  1  0
  1 34  1  0
  1 35  1  0
  2 36  1  1
  3 37  1  0
  3 38  1  0
  4 39  1  0
  4 40  1  0
  5 41  1  6
 10 42  1  0
 10 43  1  0
 11 44  1  0
 11 45  1  0
 13 46  1  0
 14 47  1  0
 15 48  1  0
 16 49  1  0
 18 50  1  0
 18 51  1  0
 22 52  1  0
 22 53  1  0
 23 54  1  0
 23 55  1  0
 25 56  1  0
 26 57  1  0
 27 58  1  0
 28 59  1  0
 30 60  1  0
 30 61  1  0
 32 62  1  0
 32 63  1  0
 33 64  1  0
 33 65  1  0
M  END
>  <smiles>  (30) 
N[C@H]1CC[C@H](c2nc(N3CCc4ccccc4C3)nc(N3CCc4ccccc4C3)n2)CC1

>  <score_type>  (30) 
oracle

>  <origin>  (30) 
autodockgpu

>  <m_score__min__energy>  (30) 
-9.5800000000000001

>  <m_primary>  (30) 
energy

>  <rmsd>  (30) 
10.595204961845042

>  <m_score__min__rmsd>  (30) 
10.595204961845042

>  <meeko>  (30) 
{"free_energy": -9.48, "intermolecular_energy": -10.67, "internal_energy": -0.94, "cluster_size": 50, "cluster_id": 1, "rank_in_cluster": 29}

>  <energy>  (30) 
-9.48

>  <cluster_rmsd>  (30) 
1.17

>  <cluster>  (30) 
1

$$$$

     RDKit          3D

 65 70  0  0  0  0  0  0  0  0999 V2000
  145.9540   72.2880  217.3970 N   0  0  0  0  0  0  0  0  0  0  0  0
  145.2180   73.0440  218.3890 C   0  0  1  0  0  0  0  0  0  0  0  0
  143.9940   73.6950  217.7740 C   0  0  0  0  0  0  0  0  0  0  0  0
  143.1440   74.1550  218.9550 C   0  0  0  0  0  0  0  0  0  0  0  0
  142.4730   72.8850  219.4720 C   0  0  2  0  0  0  0  0  0  0  0  0
  141.5810   73.1370  220.6170 C   0  0  0  0  0  0  0  0  0  0  0  0
  141.1630   74.3870  220.8560 N   0  0  0  0  0  0  0  0  0  0  0  0
  140.3550   74.7320  221.8610 C   0  0  0  0  0  0  0  0  0  0  0  0
  139.9250   76.0710  222.0900 N   0  0  0  0  0  0  0  0  0  0  0  0
  138.6090   76.5520  221.7300 C   0  0  0  0  0  0  0  0  0  0  0  0
  138.1160   77.5490  222.7630 C   0  0  0  0  0  0  0  0  0  0  0  0
  139.0620   78.6930  222.7650 C   0  0  0  0  0  0  0  0  0  0  0  0
  138.6850   80.0050  222.7870 C   0  0  0  0  0  0  0  0  0  0  0  0
  139.6350   81.0260  222.7880 C   0  0  0  0  0  0  0  0  0  0  0  0
  140.9830   80.7250  222.7660 C   0  0  0  0  0  0  0  0  0  0  0  0
  141.3640   79.3960  222.7430 C   0  0  0  0  0  0  0  0  0  0  0  0
  140.4200   78.3670  222.7430 C   0  0  0  0  0  0  0  0  0  0  0  0
  140.8760   76.9730  222.7190 C   0  0  0  0  0  0  0  0  0  0  0  0
  139.9380   73.7350  222.6930 N   0  0  0  0  0  0  0  0  0  0  0  0
  140.3490   72.4660  222.4690 C   0  0  0  0  0  0  0  0  0  0  0  0
  139.8990   71.4420  223.3520 N   0  0  0  0  0  0  0  0  0  0  0  0
  139.1380   70.3590  222.7610 C   0  0  0  0  0  0  0  0  0  0  0  0
  138.6000   69.3700  223.7220 C   0  0  0  0  0  0  0  0  0  0  0  0
  139.3350   69.1970  224.9710 C   0  0  0  0  0  0  0  0  0  0  0  0
  139.2570   67.9960  225.6560 C   0  0  0  0  0  0  0  0  0  0  0  0
  139.9460   67.8030  226.8470 C   0  0  0  0  0  0  0  0  0  0  0  0
  140.7170   68.8400  227.3420 C   0  0  0  0  0  0  0  0  0  0  0  0
  140.7820   70.0330  226.6440 C   0  0  0  0  0  0  0  0  0  0  0  0
  140.1010   70.2290  225.4600 C   0  0  0  0  0  0  0  0  0  0  0  0
  140.2110   71.5150  224.7680 C   0  0  0  0  0  0  0  0  0  0  0  0
  141.1610   72.1730  221.4430 N   0  0  0  0  0  0  0  0  0  0  0  0
  143.4630   71.7780  219.6860 C   0  0  0  0  0  0  0  0  0  0  0  0
  144.8950   72.2450  219.6150 C   0  0  0  0  0  0  0  0  0  0  0  0
  145.4950   71.3330  217.3070 H   0  0  0  0  0  0  0  0  0  0  0  0
  145.8250   72.7390  216.4650 H   0  0  0  0  0  0  0  0  0  0  0  0
  145.8800   73.8496  218.7396 H   0  0  0  0  0  0  0  0  0  0  0  0
  143.4397   72.9698  217.1601 H   0  0  0  0  0  0  0  0  0  0  0  0
  144.2639   74.5320  217.1133 H   0  0  0  0  0  0  0  0  0  0  0  0
  142.3898   74.8859  218.6280 H   0  0  0  0  0  0  0  0  0  0  0  0
  143.7456   74.6515  219.7306 H   0  0  0  0  0  0  0  0  0  0  0  0
  141.8003   72.5237  218.6802 H   0  0  0  0  0  0  0  0  0  0  0  0
  138.6574   77.0417  220.7462 H   0  0  0  0  0  0  0  0  0  0  0  0
  137.9133   75.7008  221.6913 H   0  0  0  0  0  0  0  0  0  0  0  0
  137.1066   77.8966  222.4978 H   0  0  0  0  0  0  0  0  0  0  0  0
  138.0679   77.0839  223.7587 H   0  0  0  0  0  0  0  0  0  0  0  0
  137.6153   80.2607  222.8042 H   0  0  0  0  0  0  0  0  0  0  0  0
  139.3092   82.0765  222.8064 H   0  0  0  0  0  0  0  0  0  0  0  0
  141.7373   81.5256  222.7668 H   0  0  0  0  0  0  0  0  0  0  0  0
  142.4345   79.1437  222.7243 H   0  0  0  0  0  0  0  0  0  0  0  0
  141.8241   76.9246  222.1633 H   0  0  0  0  0  0  0  0  0  0  0  0
  140.9929   76.6488  223.7636 H   0  0  0  0  0  0  0  0  0  0  0  0
  138.2907   70.7975  222.2135 H   0  0  0  0  0  0  0  0  0  0  0  0
  139.8394   69.8087  222.1167 H   0  0  0  0  0  0  0  0  0  0  0  0
  137.5760   69.6789  223.9788 H   0  0  0  0  0  0  0  0  0  0  0  0
  138.6746   68.4003  223.2082 H   0  0  0  0  0  0  0  0  0  0  0  0
  138.6392   67.1812  225.2504 H   0  0  0  0  0  0  0  0  0  0  0  0
  139.8800   66.8459  227.3852 H   0  0  0  0  0  0  0  0  0  0  0  0
  141.2737   68.7169  228.2827 H   0  0  0  0  0  0  0  0  0  0  0  0
  141.3966   70.8519  227.0461 H   0  0  0  0  0  0  0  0  0  0  0  0
  139.5164   72.2248  225.2409 H   0  0  0  0  0  0  0  0  0  0  0  0
  141.2595   71.8371  224.8509 H   0  0  0  0  0  0  0  0  0  0  0  0
  143.3053   71.0125  218.9119 H   0  0  0  0  0  0  0  0  0  0  0  0
  143.2970   71.3798  220.6979 H   0  0  0  0  0  0  0  0  0  0  0  0
  145.5482   71.3601  219.6326 H   0  0  0  0  0  0  0  0  0  0  0  0
  145.0553   72.9087  220.4775 H   0  0  0  0  0  0  0  0  0  0  0  0
  1  2  1  0
  2  3  1  0
  3  4  1  0
  4  5  1  0
  5  6  1  0
  6  7  2  0
  7  8  1  0
  8  9  1  0
  9 10  1  0
 10 11  1  0
 11 12  1  0
 12 13  2  0
 13 14  1  0
 14 15  2  0
 15 16  1  0
 16 17  2  0
 17 18  1  0
  8 19  2  0
 19 20  1  0
 20 21  1  0
 21 22  1  0
 22 23  1  0
 23 24  1  0
 24 25  2  0
 25 26  1  0
 26 27  2  0
 27 28  1  0
 28 29  2  0
 29 30  1  0
 20 31  2  0
  5 32  1  0
 32 33  1  0
 33  2  1  0
 31  6  1  0
 18  9  1  0
 30 21  1  0
 17 12  1  0
 29 24  1  0
  1 34  1  0
  1 35  1  0
  2 36  1  1
  3 37  1  0
  3 38  1  0
  4 39  1  0
  4 40  1  0
  5 41  1  6
 10 42  1  0
 10 43  1  0
 11 44  1  0
 11 45  1  0
 13 46  1  0
 14 47  1  0
 15 48  1  0
 16 49  1  0
 18 50  1  0
 18 51  1  0
 22 52  1  0
 22 53  1  0
 23 54  1  0
 23 55  1  0
 25 56  1  0
 26 57  1  0
 27 58  1  0
 28 59  1  0
 30 60  1  0
 30 61  1  0
 32 62  1  0
 32 63  1  0
 33 64  1  0
 33 65  1  0
M  END
>  <smiles>  (31) 
N[C@H]1CC[C@H](c2nc(N3CCc4ccccc4C3)nc(N3CCc4ccccc4C3)n2)CC1

>  <score_type>  (31) 
oracle

>  <origin>  (31) 
autodockgpu

>  <m_score__min__energy>  (31) 
-9.5800000000000001

>  <m_primary>  (31) 
energy

>  <rmsd>  (31) 
4.979461264078619

>  <m_score__min__rmsd>  (31) 
4.979461264078619

>  <meeko>  (31) 
{"free_energy": -9.51, "intermolecular_energy": -10.71, "internal_energy": -0.93, "cluster_size": 50, "cluster_id": 1, "rank_in_cluster": 18}

>  <energy>  (31) 
-9.47

>  <cluster_rmsd>  (31) 
1.41

>  <cluster>  (31) 
1

$$$$

     RDKit          3D

 65 70  0  0  0  0  0  0  0  0999 V2000
  146.2130   73.4380  217.7280 N   0  0  0  0  0  0  0  0  0  0  0  0
  145.1800   72.9880  218.6380 C   0  0  1  0  0  0  0  0  0  0  0  0
  145.4990   73.3990  220.0630 C   0  0  0  0  0  0  0  0  0  0  0  0
  144.2070   73.1780  220.8460 C   0  0  0  0  0  0  0  0  0  0  0  0
  143.3190   74.3650  220.4760 C   0  0  2  0  0  0  0  0  0  0  0  0
  142.0170   74.3370  221.1620 C   0  0  0  0  0  0  0  0  0  0  0  0
  141.5880   73.1900  221.7040 N   0  0  0  0  0  0  0  0  0  0  0  0
  140.4280   73.0480  222.3490 C   0  0  0  0  0  0  0  0  0  0  0  0
  139.9980   71.8140  222.9160 N   0  0  0  0  0  0  0  0  0  0  0  0
  138.9110   71.0290  222.3720 C   0  0  0  0  0  0  0  0  0  0  0  0
  139.2100   69.5480  222.5220 C   0  0  0  0  0  0  0  0  0  0  0  0
  139.3300   69.2620  223.9730 C   0  0  0  0  0  0  0  0  0  0  0  0
  138.7640   68.1870  224.5970 C   0  0  0  0  0  0  0  0  0  0  0  0
  138.9220   67.9860  225.9680 C   0  0  0  0  0  0  0  0  0  0  0  0
  139.6570   68.8780  226.7240 C   0  0  0  0  0  0  0  0  0  0  0  0
  140.2290   69.9660  226.0920 C   0  0  0  0  0  0  0  0  0  0  0  0
  140.0780   70.1760  224.7200 C   0  0  0  0  0  0  0  0  0  0  0  0
  140.7050   71.3470  224.0970 C   0  0  0  0  0  0  0  0  0  0  0  0
  139.6360   74.1540  222.4530 N   0  0  0  0  0  0  0  0  0  0  0  0
  140.0500   75.3220  221.9130 C   0  0  0  0  0  0  0  0  0  0  0  0
  139.2050   76.4630  222.0340 N   0  0  0  0  0  0  0  0  0  0  0  0
  137.7820   76.2420  221.8680 C   0  0  0  0  0  0  0  0  0  0  0  0
  136.9470   77.4630  221.8970 C   0  0  0  0  0  0  0  0  0  0  0  0
  137.4620   78.5950  222.6610 C   0  0  0  0  0  0  0  0  0  0  0  0
  136.5830   79.5270  223.1880 C   0  0  0  0  0  0  0  0  0  0  0  0
  137.0450   80.6150  223.9190 C   0  0  0  0  0  0  0  0  0  0  0  0
  138.4080   80.7530  224.1140 C   0  0  0  0  0  0  0  0  0  0  0  0
  139.2700   79.8110  223.5800 C   0  0  0  0  0  0  0  0  0  0  0  0
  138.8170   78.7290  222.8540 C   0  0  0  0  0  0  0  0  0  0  0  0
  139.7800   77.7670  222.3140 C   0  0  0  0  0  0  0  0  0  0  0  0
  141.2260   75.4100  221.2750 N   0  0  0  0  0  0  0  0  0  0  0  0
  143.2370   74.5580  218.9900 C   0  0  0  0  0  0  0  0  0  0  0  0
  143.8030   73.3970  218.2120 C   0  0  0  0  0  0  0  0  0  0  0  0
  145.8450   74.2920  217.2120 H   0  0  0  0  0  0  0  0  0  0  0  0
  147.0240   73.7880  218.2850 H   0  0  0  0  0  0  0  0  0  0  0  0
  145.1742   71.8886  218.6036 H   0  0  0  0  0  0  0  0  0  0  0  0
  145.7962   74.4574  220.1012 H   0  0  0  0  0  0  0  0  0  0  0  0
  146.3350   72.8180  220.4796 H   0  0  0  0  0  0  0  0  0  0  0  0
  144.4066   73.1656  221.9277 H   0  0  0  0  0  0  0  0  0  0  0  0
  143.7345   72.2145  220.6043 H   0  0  0  0  0  0  0  0  0  0  0  0
  143.8063   75.2734  220.8598 H   0  0  0  0  0  0  0  0  0  0  0  0
  137.9832   71.2692  222.9119 H   0  0  0  0  0  0  0  0  0  0  0  0
  138.7952   71.2663  221.3041 H   0  0  0  0  0  0  0  0  0  0  0  0
  138.3920   68.9539  222.0885 H   0  0  0  0  0  0  0  0  0  0  0  0
  140.1404   69.2855  221.9971 H   0  0  0  0  0  0  0  0  0  0  0  0
  138.1743   67.4684  224.0089 H   0  0  0  0  0  0  0  0  0  0  0  0
  138.4587   67.1124  226.4498 H   0  0  0  0  0  0  0  0  0  0  0  0
  139.7844   68.7258  227.8059 H   0  0  0  0  0  0  0  0  0  0  0  0
  140.8169   70.6831  226.6837 H   0  0  0  0  0  0  0  0  0  0  0  0
  140.7317   72.1630  224.8341 H   0  0  0  0  0  0  0  0  0  0  0  0
  141.7136   71.0465  223.7770 H   0  0  0  0  0  0  0  0  0  0  0  0
  137.6255   75.7457  220.8989 H   0  0  0  0  0  0  0  0  0  0  0  0
  137.4650   75.6350  222.7289 H   0  0  0  0  0  0  0  0  0  0  0  0
  136.8104   77.7974  220.8580 H   0  0  0  0  0  0  0  0  0  0  0  0
  136.0212   77.1661  222.4115 H   0  0  0  0  0  0  0  0  0  0  0  0
  135.5021   79.4040  223.0253 H   0  0  0  0  0  0  0  0  0  0  0  0
  136.3414   81.3516  224.3342 H   0  0  0  0  0  0  0  0  0  0  0  0
  138.8029   81.6039  224.6884 H   0  0  0  0  0  0  0  0  0  0  0  0
  140.3519   79.9290  223.7398 H   0  0  0  0  0  0  0  0  0  0  0  0
  140.1907   78.1741  221.3782 H   0  0  0  0  0  0  0  0  0  0  0  0
  140.5539   77.6200  223.0817 H   0  0  0  0  0  0  0  0  0  0  0  0
  143.7984   75.4655  218.7231 H   0  0  0  0  0  0  0  0  0  0  0  0
  142.1720   74.6413  218.7277 H   0  0  0  0  0  0  0  0  0  0  0  0
  143.8396   73.6784  217.1492 H   0  0  0  0  0  0  0  0  0  0  0  0
  143.1439   72.5369  218.4015 H   0  0  0  0  0  0  0  0  0  0  0  0
  1  2  1  0
  2  3  1  0
  3  4  1  0
  4  5  1  0
  5  6  1  0
  6  7  2  0
  7  8  1  0
  8  9  1  0
  9 10  1  0
 10 11  1  0
 11 12  1  0
 12 13  2  0
 13 14  1  0
 14 15  2  0
 15 16  1  0
 16 17  2  0
 17 18  1  0
  8 19  2  0
 19 20  1  0
 20 21  1  0
 21 22  1  0
 22 23  1  0
 23 24  1  0
 24 25  2  0
 25 26  1  0
 26 27  2  0
 27 28  1  0
 28 29  2  0
 29 30  1  0
 20 31  2  0
  5 32  1  0
 32 33  1  0
 33  2  1  0
 31  6  1  0
 18  9  1  0
 30 21  1  0
 17 12  1  0
 29 24  1  0
  1 34  1  0
  1 35  1  0
  2 36  1  1
  3 37  1  0
  3 38  1  0
  4 39  1  0
  4 40  1  0
  5 41  1  1
 10 42  1  0
 10 43  1  0
 11 44  1  0
 11 45  1  0
 13 46  1  0
 14 47  1  0
 15 48  1  0
 16 49  1  0
 18 50  1  0
 18 51  1  0
 22 52  1  0
 22 53  1  0
 23 54  1  0
 23 55  1  0
 25 56  1  0
 26 57  1  0
 27 58  1  0
 28 59  1  0
 30 60  1  0
 30 61  1  0
 32 62  1  0
 32 63  1  0
 33 64  1  0
 33 65  1  0
M  END
>  <smiles>  (32) 
N[C@H]1CC[C@H](c2nc(N3CCc4ccccc4C3)nc(N3CCc4ccccc4C3)n2)CC1

>  <score_type>  (32) 
oracle

>  <origin>  (32) 
autodockgpu

>  <m_score__min__energy>  (32) 
-9.5800000000000001

>  <m_primary>  (32) 
energy

>  <rmsd>  (32) 
10.64961931848122

>  <m_score__min__rmsd>  (32) 
10.64961931848122

>  <meeko>  (32) 
{"free_energy": -9.53, "intermolecular_energy": -10.72, "internal_energy": -0.94, "cluster_size": 50, "cluster_id": 1, "rank_in_cluster": 11}

>  <energy>  (32) 
-9.46

>  <cluster_rmsd>  (32) 
1.13

>  <cluster>  (32) 
1

$$$$

     RDKit          3D

 65 70  0  0  0  0  0  0  0  0999 V2000
  146.3140   69.9740  217.9410 N   0  0  0  0  0  0  0  0  0  0  0  0
  145.6970   70.4420  219.1640 C   0  0  1  0  0  0  0  0  0  0  0  0
  145.9290   71.9290  219.3520 C   0  0  0  0  0  0  0  0  0  0  0  0
  144.9650   72.3510  220.4580 C   0  0  0  0  0  0  0  0  0  0  0  0
  143.6000   72.4330  219.7770 C   0  0  2  0  0  0  0  0  0  0  0  0
  142.5300   72.8550  220.6960 C   0  0  0  0  0  0  0  0  0  0  0  0
  142.1460   74.1380  220.7070 N   0  0  0  0  0  0  0  0  0  0  0  0
  141.1890   74.6320  221.4960 C   0  0  0  0  0  0  0  0  0  0  0  0
  140.8010   76.0020  221.4850 N   0  0  0  0  0  0  0  0  0  0  0  0
  140.1820   76.6410  220.3440 C   0  0  0  0  0  0  0  0  0  0  0  0
  139.1500   77.6540  220.8080 C   0  0  0  0  0  0  0  0  0  0  0  0
  139.8630   78.6820  221.6060 C   0  0  0  0  0  0  0  0  0  0  0  0
  139.6600   80.0280  221.4870 C   0  0  0  0  0  0  0  0  0  0  0  0
  140.3710   80.9340  222.2740 C   0  0  0  0  0  0  0  0  0  0  0  0
  141.2990   80.4830  223.1930 C   0  0  0  0  0  0  0  0  0  0  0  0
  141.5040   79.1210  223.3120 C   0  0  0  0  0  0  0  0  0  0  0  0
  140.7970   78.2060  222.5290 C   0  0  0  0  0  0  0  0  0  0  0  0
  141.0510   76.7700  222.6940 C   0  0  0  0  0  0  0  0  0  0  0  0
  140.5700   73.7590  222.3420 N   0  0  0  0  0  0  0  0  0  0  0  0
  140.9420   72.4590  222.3460 C   0  0  0  0  0  0  0  0  0  0  0  0
  140.2810   71.5670  223.2390 N   0  0  0  0  0  0  0  0  0  0  0  0
  139.2370   70.7350  222.6760 C   0  0  0  0  0  0  0  0  0  0  0  0
  138.5030   69.8980  223.6520 C   0  0  0  0  0  0  0  0  0  0  0  0
  139.2230   69.5100  224.8600 C   0  0  0  0  0  0  0  0  0  0  0  0
  138.8640   68.3540  225.5340 C   0  0  0  0  0  0  0  0  0  0  0  0
  139.5320   67.9600  226.6870 C   0  0  0  0  0  0  0  0  0  0  0  0
  140.5700   68.7470  227.1540 C   0  0  0  0  0  0  0  0  0  0  0  0
  140.9140   69.8980  226.4660 C   0  0  0  0  0  0  0  0  0  0  0  0
  140.2540   70.2930  225.3210 C   0  0  0  0  0  0  0  0  0  0  0  0
  140.6650   71.5230  224.6390 C   0  0  0  0  0  0  0  0  0  0  0  0
  141.9110   72.0150  221.5320 N   0  0  0  0  0  0  0  0  0  0  0  0
  143.2950   71.1920  218.9910 C   0  0  0  0  0  0  0  0  0  0  0  0
  144.2510   70.0620  219.2750 C   0  0  0  0  0  0  0  0  0  0  0  0
  147.1040   69.3130  218.2050 H   0  0  0  0  0  0  0  0  0  0  0  0
  145.6280   69.3810  217.4220 H   0  0  0  0  0  0  0  0  0  0  0  0
  146.1931   69.9223  219.9969 H   0  0  0  0  0  0  0  0  0  0  0  0
  145.7101   72.4737  218.4217 H   0  0  0  0  0  0  0  0  0  0  0  0
  146.9744   72.1510  219.6127 H   0  0  0  0  0  0  0  0  0  0  0  0
  145.2521   73.3300  220.8693 H   0  0  0  0  0  0  0  0  0  0  0  0
  144.9662   71.6445  221.3011 H   0  0  0  0  0  0  0  0  0  0  0  0
  143.6498   73.2421  219.0334 H   0  0  0  0  0  0  0  0  0  0  0  0
  140.9539   77.1537  219.7513 H   0  0  0  0  0  0  0  0  0  0  0  0
  139.6842   75.8762  219.7298 H   0  0  0  0  0  0  0  0  0  0  0  0
  138.6658   78.1224  219.9384 H   0  0  0  0  0  0  0  0  0  0  0  0
  138.3712   77.1654  221.4120 H   0  0  0  0  0  0  0  0  0  0  0  0
  138.9248   80.4027  220.7596 H   0  0  0  0  0  0  0  0  0  0  0  0
  140.1919   82.0136  222.1624 H   0  0  0  0  0  0  0  0  0  0  0  0
  141.8626   81.1925  223.8166 H   0  0  0  0  0  0  0  0  0  0  0  0
  142.2405   78.7497  224.0398 H   0  0  0  0  0  0  0  0  0  0  0  0
  142.1029   76.6321  222.9847 H   0  0  0  0  0  0  0  0  0  0  0  0
  140.3579   76.4017  223.4647 H   0  0  0  0  0  0  0  0  0  0  0  0
  138.5100   71.3925  222.1768 H   0  0  0  0  0  0  0  0  0  0  0  0
  139.7396   70.0359  221.9914 H   0  0  0  0  0  0  0  0  0  0  0  0
  137.6083   70.4572  223.9632 H   0  0  0  0  0  0  0  0  0  0  0  0
  138.2975   68.9548  223.1245 H   0  0  0  0  0  0  0  0  0  0  0  0
  138.0371   67.7383  225.1503 H   0  0  0  0  0  0  0  0  0  0  0  0
  139.2416   67.0413  227.2177 H   0  0  0  0  0  0  0  0  0  0  0  0
  141.1172   68.4604  228.0642 H   0  0  0  0  0  0  0  0  0  0  0  0
  141.7403   70.5176  226.8446 H   0  0  0  0  0  0  0  0  0  0  0  0
  140.2017   72.3776  225.1538 H   0  0  0  0  0  0  0  0  0  0  0  0
  141.7638   71.5597  224.6737 H   0  0  0  0  0  0  0  0  0  0  0  0
  143.3482   71.4345  217.9194 H   0  0  0  0  0  0  0  0  0  0  0  0
  142.2910   70.8545  219.2878 H   0  0  0  0  0  0  0  0  0  0  0  0
  144.0507   69.2516  218.5587 H   0  0  0  0  0  0  0  0  0  0  0  0
  144.0819   69.7577  220.3184 H   0  0  0  0  0  0  0  0  0  0  0  0
  1  2  1  0
  2  3  1  0
  3  4  1  0
  4  5  1  0
  5  6  1  0
  6  7  2  0
  7  8  1  0
  8  9  1  0
  9 10  1  0
 10 11  1  0
 11 12  1  0
 12 13  2  0
 13 14  1  0
 14 15  2  0
 15 16  1  0
 16 17  2  0
 17 18  1  0
  8 19  2  0
 19 20  1  0
 20 21  1  0
 21 22  1  0
 22 23  1  0
 23 24  1  0
 24 25  2  0
 25 26  1  0
 26 27  2  0
 27 28  1  0
 28 29  2  0
 29 30  1  0
 20 31  2  0
  5 32  1  0
 32 33  1  0
 33  2  1  0
 31  6  1  0
 18  9  1  0
 30 21  1  0
 17 12  1  0
 29 24  1  0
  1 34  1  0
  1 35  1  0
  2 36  1  1
  3 37  1  0
  3 38  1  0
  4 39  1  0
  4 40  1  0
  5 41  1  6
 10 42  1  0
 10 43  1  0
 11 44  1  0
 11 45  1  0
 13 46  1  0
 14 47  1  0
 15 48  1  0
 16 49  1  0
 18 50  1  0
 18 51  1  0
 22 52  1  0
 22 53  1  0
 23 54  1  0
 23 55  1  0
 25 56  1  0
 26 57  1  0
 27 58  1  0
 28 59  1  0
 30 60  1  0
 30 61  1  0
 32 62  1  0
 32 63  1  0
 33 64  1  0
 33 65  1  0
M  END
>  <smiles>  (33) 
N[C@H]1CC[C@H](c2nc(N3CCc4ccccc4C3)nc(N3CCc4ccccc4C3)n2)CC1

>  <score_type>  (33) 
oracle

>  <origin>  (33) 
autodockgpu

>  <m_score__min__energy>  (33) 
-9.5800000000000001

>  <m_primary>  (33) 
energy

>  <rmsd>  (33) 
4.572326610108574

>  <m_score__min__rmsd>  (33) 
4.572326610108574

>  <meeko>  (33) 
{"free_energy": -9.42, "intermolecular_energy": -10.61, "internal_energy": -0.92, "cluster_size": 50, "cluster_id": 1, "rank_in_cluster": 36}

>  <energy>  (33) 
-9.45

>  <cluster_rmsd>  (33) 
1.42

>  <cluster>  (33) 
1

$$$$

     RDKit          3D

 65 70  0  0  0  0  0  0  0  0999 V2000
  146.1440   69.7420  217.8410 N   0  0  0  0  0  0  0  0  0  0  0  0
  145.6850   70.5030  218.9840 C   0  0  1  0  0  0  0  0  0  0  0  0
  145.5450   71.9720  218.6350 C   0  0  0  0  0  0  0  0  0  0  0  0
  144.7470   72.5850  219.7830 C   0  0  0  0  0  0  0  0  0  0  0  0
  143.3020   72.1670  219.5230 C   0  0  2  0  0  0  0  0  0  0  0  0
  142.3660   72.6920  220.5310 C   0  0  0  0  0  0  0  0  0  0  0  0
  142.1060   74.0060  220.5590 N   0  0  0  0  0  0  0  0  0  0  0  0
  141.2770   74.5910  221.4250 C   0  0  0  0  0  0  0  0  0  0  0  0
  141.0180   75.9920  221.4310 N   0  0  0  0  0  0  0  0  0  0  0  0
  140.7170   76.7460  220.2330 C   0  0  0  0  0  0  0  0  0  0  0  0
  139.6990   77.8300  220.5380 C   0  0  0  0  0  0  0  0  0  0  0  0
  140.3070   78.7420  221.5400 C   0  0  0  0  0  0  0  0  0  0  0  0
  140.2490   80.1050  221.4770 C   0  0  0  0  0  0  0  0  0  0  0  0
  140.8460   80.8950  222.4590 C   0  0  0  0  0  0  0  0  0  0  0  0
  141.5110   80.3090  223.5190 C   0  0  0  0  0  0  0  0  0  0  0  0
  141.5680   78.9290  223.5810 C   0  0  0  0  0  0  0  0  0  0  0  0
  140.9740   78.1290  222.6040 C   0  0  0  0  0  0  0  0  0  0  0  0
  141.0640   76.6690  222.7160 C   0  0  0  0  0  0  0  0  0  0  0  0
  140.6620   73.7850  222.3390 N   0  0  0  0  0  0  0  0  0  0  0  0
  140.9120   72.4570  222.3280 C   0  0  0  0  0  0  0  0  0  0  0  0
  140.2580   71.6360  223.2920 N   0  0  0  0  0  0  0  0  0  0  0  0
  139.1660   70.8120  222.8140 C   0  0  0  0  0  0  0  0  0  0  0  0
  138.4440   70.0530  223.8600 C   0  0  0  0  0  0  0  0  0  0  0  0
  139.1990   69.7040  225.0590 C   0  0  0  0  0  0  0  0  0  0  0  0
  138.8300   68.5980  225.8080 C   0  0  0  0  0  0  0  0  0  0  0  0
  139.5300   68.2430  226.9540 C   0  0  0  0  0  0  0  0  0  0  0  0
  140.6110   69.0170  227.3390 C   0  0  0  0  0  0  0  0  0  0  0  0
  140.9640   70.1180  226.5780 C   0  0  0  0  0  0  0  0  0  0  0  0
  140.2730   70.4750  225.4390 C   0  0  0  0  0  0  0  0  0  0  0  0
  140.6960   71.6520  224.6760 C   0  0  0  0  0  0  0  0  0  0  0  0
  141.7540   71.9190  221.4340 N   0  0  0  0  0  0  0  0  0  0  0  0
  143.1860   70.6920  219.2730 C   0  0  0  0  0  0  0  0  0  0  0  0
  144.4460   69.9350  219.6080 C   0  0  0  0  0  0  0  0  0  0  0  0
  147.0810   69.3070  218.0920 H   0  0  0  0  0  0  0  0  0  0  0  0
  145.5020   68.9320  217.6940 H   0  0  0  0  0  0  0  0  0  0  0  0
  146.4596   70.4203  219.7606 H   0  0  0  0  0  0  0  0  0  0  0  0
  145.0058   72.0923  217.6838 H   0  0  0  0  0  0  0  0  0  0  0  0
  146.5235   72.4587  218.5102 H   0  0  0  0  0  0  0  0  0  0  0  0
  144.8400   73.6810  219.7772 H   0  0  0  0  0  0  0  0  0  0  0  0
  145.1064   72.2450  220.7655 H   0  0  0  0  0  0  0  0  0  0  0  0
  142.9840   72.6471  218.5858 H   0  0  0  0  0  0  0  0  0  0  0  0
  141.6396   77.2101  219.8543 H   0  0  0  0  0  0  0  0  0  0  0  0
  140.3008   76.0655  219.4756 H   0  0  0  0  0  0  0  0  0  0  0  0
  139.4569   78.3870  219.6209 H   0  0  0  0  0  0  0  0  0  0  0  0
  138.7689   77.3904  220.9273 H   0  0  0  0  0  0  0  0  0  0  0  0
  139.7236   80.5868  220.6393 H   0  0  0  0  0  0  0  0  0  0  0  0
  140.7871   81.9912  222.3893 H   0  0  0  0  0  0  0  0  0  0  0  0
  141.9846   80.9267  224.2963 H   0  0  0  0  0  0  0  0  0  0  0  0
  142.0940   78.4504  224.4202 H   0  0  0  0  0  0  0  0  0  0  0  0
  142.0124   76.4143  223.2115 H   0  0  0  0  0  0  0  0  0  0  0  0
  140.1915   76.3313  223.2946 H   0  0  0  0  0  0  0  0  0  0  0  0
  138.4417   71.4671  222.3079 H   0  0  0  0  0  0  0  0  0  0  0  0
  139.6186   70.0611  222.1497 H   0  0  0  0  0  0  0  0  0  0  0  0
  137.5811   70.6583  224.1746 H   0  0  0  0  0  0  0  0  0  0  0  0
  138.1865   69.0914  223.3919 H   0  0  0  0  0  0  0  0  0  0  0  0
  137.9691   67.9916  225.4899 H   0  0  0  0  0  0  0  0  0  0  0  0
  139.2311   67.3640  227.5440 H   0  0  0  0  0  0  0  0  0  0  0  0
  141.1844   68.7594  228.2417 H   0  0  0  0  0  0  0  0  0  0  0  0
  141.8237   70.7282  226.8919 H   0  0  0  0  0  0  0  0  0  0  0  0
  140.2821   72.5482  225.1613 H   0  0  0  0  0  0  0  0  0  0  0  0
  141.7960   71.6516  224.6661 H   0  0  0  0  0  0  0  0  0  0  0  0
  142.9551   70.5342  218.2091 H   0  0  0  0  0  0  0  0  0  0  0  0
  142.3894   70.3097  219.9282 H   0  0  0  0  0  0  0  0  0  0  0  0
  144.3286   68.8978  219.2609 H   0  0  0  0  0  0  0  0  0  0  0  0
  144.5785   70.0056  220.6977 H   0  0  0  0  0  0  0  0  0  0  0  0
  1  2  1  0
  2  3  1  0
  3  4  1  0
  4  5  1  0
  5  6  1  0
  6  7  2  0
  7  8  1  0
  8  9  1  0
  9 10  1  0
 10 11  1  0
 11 12  1  0
 12 13  2  0
 13 14  1  0
 14 15  2  0
 15 16  1  0
 16 17  2  0
 17 18  1  0
  8 19  2  0
 19 20  1  0
 20 21  1  0
 21 22  1  0
 22 23  1  0
 23 24  1  0
 24 25  2  0
 25 26  1  0
 26 27  2  0
 27 28  1  0
 28 29  2  0
 29 30  1  0
 20 31  2  0
  5 32  1  0
 32 33  1  0
 33  2  1  0
 31  6  1  0
 18  9  1  0
 30 21  1  0
 17 12  1  0
 29 24  1  0
  1 34  1  0
  1 35  1  0
  2 36  1  1
  3 37  1  0
  3 38  1  0
  4 39  1  0
  4 40  1  0
  5 41  1  6
 10 42  1  0
 10 43  1  0
 11 44  1  0
 11 45  1  0
 13 46  1  0
 14 47  1  0
 15 48  1  0
 16 49  1  0
 18 50  1  0
 18 51  1  0
 22 52  1  0
 22 53  1  0
 23 54  1  0
 23 55  1  0
 25 56  1  0
 26 57  1  0
 27 58  1  0
 28 59  1  0
 30 60  1  0
 30 61  1  0
 32 62  1  0
 32 63  1  0
 33 64  1  0
 33 65  1  0
M  END
>  <smiles>  (34) 
N[C@H]1CC[C@H](c2nc(N3CCc4ccccc4C3)nc(N3CCc4ccccc4C3)n2)CC1

>  <score_type>  (34) 
oracle

>  <origin>  (34) 
autodockgpu

>  <m_score__min__energy>  (34) 
-9.5800000000000001

>  <m_primary>  (34) 
energy

>  <rmsd>  (34) 
4.690283380690055

>  <m_score__min__rmsd>  (34) 
4.690283380690055

>  <meeko>  (34) 
{"free_energy": -9.47, "intermolecular_energy": -10.67, "internal_energy": -0.93, "cluster_size": 50, "cluster_id": 1, "rank_in_cluster": 31}

>  <energy>  (34) 
-9.44

>  <cluster_rmsd>  (34) 
1.07

>  <cluster>  (34) 
1

$$$$

     RDKit          3D

 65 70  0  0  0  0  0  0  0  0999 V2000
  146.0830   72.6320  217.4600 N   0  0  0  0  0  0  0  0  0  0  0  0
  145.2400   73.3770  218.3720 C   0  0  1  0  0  0  0  0  0  0  0  0
  143.9290   73.7560  217.7100 C   0  0  0  0  0  0  0  0  0  0  0  0
  143.0210   74.2160  218.8470 C   0  0  0  0  0  0  0  0  0  0  0  0
  142.5540   72.9270  219.5200 C   0  0  2  0  0  0  0  0  0  0  0  0
  141.6360   73.1730  220.6450 C   0  0  0  0  0  0  0  0  0  0  0  0
  141.2020   74.4190  220.8750 N   0  0  0  0  0  0  0  0  0  0  0  0
  140.3700   74.7580  221.8620 C   0  0  0  0  0  0  0  0  0  0  0  0
  139.9240   76.0930  222.0810 N   0  0  0  0  0  0  0  0  0  0  0  0
  138.6060   76.5580  221.7070 C   0  0  0  0  0  0  0  0  0  0  0  0
  138.0940   77.5550  222.7320 C   0  0  0  0  0  0  0  0  0  0  0  0
  139.0270   78.7090  222.7360 C   0  0  0  0  0  0  0  0  0  0  0  0
  138.6360   80.0170  222.7480 C   0  0  0  0  0  0  0  0  0  0  0  0
  139.5760   81.0480  222.7520 C   0  0  0  0  0  0  0  0  0  0  0  0
  140.9270   80.7610  222.7430 C   0  0  0  0  0  0  0  0  0  0  0  0
  141.3220   79.4370  222.7300 C   0  0  0  0  0  0  0  0  0  0  0  0
  140.3900   78.3970  222.7270 C   0  0  0  0  0  0  0  0  0  0  0  0
  140.8600   77.0080  222.7130 C   0  0  0  0  0  0  0  0  0  0  0  0
  139.9430   73.7570  222.6850 N   0  0  0  0  0  0  0  0  0  0  0  0
  140.3700   72.4920  222.4710 C   0  0  0  0  0  0  0  0  0  0  0  0
  139.9110   71.4650  223.3450 N   0  0  0  0  0  0  0  0  0  0  0  0
  139.1140   70.4100  222.7490 C   0  0  0  0  0  0  0  0  0  0  0  0
  138.5680   69.4180  223.7030 C   0  0  0  0  0  0  0  0  0  0  0  0
  139.3190   69.2080  224.9360 C   0  0  0  0  0  0  0  0  0  0  0  0
  139.2230   67.9970  225.6030 C   0  0  0  0  0  0  0  0  0  0  0  0
  139.9260   67.7690  226.7800 C   0  0  0  0  0  0  0  0  0  0  0  0
  140.7300   68.7790  227.2790 C   0  0  0  0  0  0  0  0  0  0  0  0
  140.8120   69.9810  226.5980 C   0  0  0  0  0  0  0  0  0  0  0  0
  140.1170   70.2120  225.4300 C   0  0  0  0  0  0  0  0  0  0  0  0
  140.2460   71.5070  224.7560 C   0  0  0  0  0  0  0  0  0  0  0  0
  141.2070   72.2060  221.4630 N   0  0  0  0  0  0  0  0  0  0  0  0
  143.7040   72.0180  219.8410 C   0  0  0  0  0  0  0  0  0  0  0  0
  145.0470   72.6880  219.6890 C   0  0  0  0  0  0  0  0  0  0  0  0
  145.4550   72.0100  216.8690 H   0  0  0  0  0  0  0  0  0  0  0  0
  146.5180   73.2970  216.7840 H   0  0  0  0  0  0  0  0  0  0  0  0
  145.7697   74.3103  218.6136 H   0  0  0  0  0  0  0  0  0  0  0  0
  143.4921   72.8874  217.1955 H   0  0  0  0  0  0  0  0  0  0  0  0
  144.0649   74.5406  216.9511 H   0  0  0  0  0  0  0  0  0  0  0  0
  142.1628   74.7803  218.4533 H   0  0  0  0  0  0  0  0  0  0  0  0
  143.5407   74.8855  219.5482 H   0  0  0  0  0  0  0  0  0  0  0  0
  141.9437   72.3758  218.7895 H   0  0  0  0  0  0  0  0  0  0  0  0
  138.6576   77.0436  220.7213 H   0  0  0  0  0  0  0  0  0  0  0  0
  137.9196   75.6994  221.6657 H   0  0  0  0  0  0  0  0  0  0  0  0
  137.0830   77.8903  222.4574 H   0  0  0  0  0  0  0  0  0  0  0  0
  138.0434   77.0940  223.7295 H   0  0  0  0  0  0  0  0  0  0  0  0
  137.5636   80.2617  222.7546 H   0  0  0  0  0  0  0  0  0  0  0  0
  139.2393   82.0951  222.7624 H   0  0  0  0  0  0  0  0  0  0  0  0
  141.6729   81.5695  222.7461 H   0  0  0  0  0  0  0  0  0  0  0  0
  142.3954   79.1966  222.7218 H   0  0  0  0  0  0  0  0  0  0  0  0
  141.8130   76.9669  222.1651 H   0  0  0  0  0  0  0  0  0  0  0  0
  140.9713   76.6901  223.7601 H   0  0  0  0  0  0  0  0  0  0  0  0
  138.2686   70.8777  222.2231 H   0  0  0  0  0  0  0  0  0  0  0  0
  139.7912   69.8539  222.0840 H   0  0  0  0  0  0  0  0  0  0  0  0
  137.5559   69.7466  223.9818 H   0  0  0  0  0  0  0  0  0  0  0  0
  138.6107   68.4552  223.1727 H   0  0  0  0  0  0  0  0  0  0  0  0
  138.5801   67.2035  225.1943 H   0  0  0  0  0  0  0  0  0  0  0  0
  139.8450   66.8054  227.3043 H   0  0  0  0  0  0  0  0  0  0  0  0
  141.2986   68.6277  228.2084 H   0  0  0  0  0  0  0  0  0  0  0  0
  141.4529   70.7785  227.0021 H   0  0  0  0  0  0  0  0  0  0  0  0
  139.5754   72.2247  225.2511 H   0  0  0  0  0  0  0  0  0  0  0  0
  141.3030   71.8031  224.8272 H   0  0  0  0  0  0  0  0  0  0  0  0
  143.6658   71.1522  219.1635 H   0  0  0  0  0  0  0  0  0  0  0  0
  143.6030   71.7203  220.8951 H   0  0  0  0  0  0  0  0  0  0  0  0
  145.8295   71.9224  219.7966 H   0  0  0  0  0  0  0  0  0  0  0  0
  145.1043   73.4650  220.4656 H   0  0  0  0  0  0  0  0  0  0  0  0
  1  2  1  0
  2  3  1  0
  3  4  1  0
  4  5  1  0
  5  6  1  0
  6  7  2  0
  7  8  1  0
  8  9  1  0
  9 10  1  0
 10 11  1  0
 11 12  1  0
 12 13  2  0
 13 14  1  0
 14 15  2  0
 15 16  1  0
 16 17  2  0
 17 18  1  0
  8 19  2  0
 19 20  1  0
 20 21  1  0
 21 22  1  0
 22 23  1  0
 23 24  1  0
 24 25  2  0
 25 26  1  0
 26 27  2  0
 27 28  1  0
 28 29  2  0
 29 30  1  0
 20 31  2  0
  5 32  1  0
 32 33  1  0
 33  2  1  0
 31  6  1  0
 18  9  1  0
 30 21  1  0
 17 12  1  0
 29 24  1  0
  1 34  1  0
  1 35  1  0
  2 36  1  1
  3 37  1  0
  3 38  1  0
  4 39  1  0
  4 40  1  0
  5 41  1  6
 10 42  1  0
 10 43  1  0
 11 44  1  0
 11 45  1  0
 13 46  1  0
 14 47  1  0
 15 48  1  0
 16 49  1  0
 18 50  1  0
 18 51  1  0
 22 52  1  0
 22 53  1  0
 23 54  1  0
 23 55  1  0
 25 56  1  0
 26 57  1  0
 27 58  1  0
 28 59  1  0
 30 60  1  0
 30 61  1  0
 32 62  1  0
 32 63  1  0
 33 64  1  0
 33 65  1  0
M  END
>  <smiles>  (35) 
N[C@H]1CC[C@H](c2nc(N3CCc4ccccc4C3)nc(N3CCc4ccccc4C3)n2)CC1

>  <score_type>  (35) 
oracle

>  <origin>  (35) 
autodockgpu

>  <m_score__min__energy>  (35) 
-9.5800000000000001

>  <m_primary>  (35) 
energy

>  <rmsd>  (35) 
4.96287095291722

>  <m_score__min__rmsd>  (35) 
4.96287095291722

>  <meeko>  (35) 
{"free_energy": -9.56, "intermolecular_energy": -10.76, "internal_energy": -0.93, "cluster_size": 50, "cluster_id": 1, "rank_in_cluster": 7}

>  <energy>  (35) 
-9.43

>  <cluster_rmsd>  (35) 
1.14

>  <cluster>  (35) 
1

$$$$

     RDKit          3D

 65 70  0  0  0  0  0  0  0  0999 V2000
  146.2890   73.4150  217.7320 N   0  0  0  0  0  0  0  0  0  0  0  0
  145.2810   73.0180  218.6920 C   0  0  1  0  0  0  0  0  0  0  0  0
  145.5760   73.6030  220.0600 C   0  0  0  0  0  0  0  0  0  0  0  0
  144.2960   73.4050  220.8690 C   0  0  0  0  0  0  0  0  0  0  0  0
  143.3470   74.4940  220.3720 C   0  0  2  0  0  0  0  0  0  0  0  0
  142.0470   74.4750  221.0630 C   0  0  0  0  0  0  0  0  0  0  0  0
  141.6070   73.3280  221.5970 N   0  0  0  0  0  0  0  0  0  0  0  0
  140.4490   73.1940  222.2450 C   0  0  0  0  0  0  0  0  0  0  0  0
  140.0070   71.9600  222.8040 N   0  0  0  0  0  0  0  0  0  0  0  0
  138.9180   71.1850  222.2500 C   0  0  0  0  0  0  0  0  0  0  0  0
  139.2060   69.7020  222.3930 C   0  0  0  0  0  0  0  0  0  0  0  0
  139.3150   69.4080  223.8440 C   0  0  0  0  0  0  0  0  0  0  0  0
  138.7380   68.3330  224.4590 C   0  0  0  0  0  0  0  0  0  0  0  0
  138.8860   68.1240  225.8300 C   0  0  0  0  0  0  0  0  0  0  0  0
  139.6230   69.0070  226.5950 C   0  0  0  0  0  0  0  0  0  0  0  0
  140.2070   70.0950  225.9720 C   0  0  0  0  0  0  0  0  0  0  0  0
  140.0640   70.3130  224.6000 C   0  0  0  0  0  0  0  0  0  0  0  0
  140.7030   71.4820  223.9870 C   0  0  0  0  0  0  0  0  0  0  0  0
  139.6700   74.3080  222.3620 N   0  0  0  0  0  0  0  0  0  0  0  0
  140.0960   75.4760  221.8300 C   0  0  0  0  0  0  0  0  0  0  0  0
  139.2650   76.6250  221.9660 N   0  0  0  0  0  0  0  0  0  0  0  0
  137.8430   76.4310  221.7600 C   0  0  0  0  0  0  0  0  0  0  0  0
  137.0250   77.6630  221.8050 C   0  0  0  0  0  0  0  0  0  0  0  0
  137.5380   78.7640  222.6140 C   0  0  0  0  0  0  0  0  0  0  0  0
  136.6600   79.6940  223.1460 C   0  0  0  0  0  0  0  0  0  0  0  0
  137.1200   80.7540  223.9190 C   0  0  0  0  0  0  0  0  0  0  0  0
  138.4800   80.8650  224.1500 C   0  0  0  0  0  0  0  0  0  0  0  0
  139.3410   79.9260  223.6080 C   0  0  0  0  0  0  0  0  0  0  0  0
  138.8890   78.8730  222.8410 C   0  0  0  0  0  0  0  0  0  0  0  0
  139.8510   77.9120  222.2960 C   0  0  0  0  0  0  0  0  0  0  0  0
  141.2700   75.5560  221.1890 N   0  0  0  0  0  0  0  0  0  0  0  0
  143.2570   74.5120  218.8740 C   0  0  0  0  0  0  0  0  0  0  0  0
  143.8840   73.3020  218.2290 C   0  0  0  0  0  0  0  0  0  0  0  0
  145.9000   74.2290  217.1680 H   0  0  0  0  0  0  0  0  0  0  0  0
  147.1070   73.8100  218.2460 H   0  0  0  0  0  0  0  0  0  0  0  0
  145.3341   71.9230  218.7825 H   0  0  0  0  0  0  0  0  0  0  0  0
  145.8176   74.6729  219.9773 H   0  0  0  0  0  0  0  0  0  0  0  0
  146.4405   73.1167  220.5356 H   0  0  0  0  0  0  0  0  0  0  0  0
  144.4948   73.5255  221.9442 H   0  0  0  0  0  0  0  0  0  0  0  0
  143.8750   72.3970  220.7395 H   0  0  0  0  0  0  0  0  0  0  0  0
  143.7844   75.4646  220.6487 H   0  0  0  0  0  0  0  0  0  0  0  0
  137.9889   71.4283  222.7863 H   0  0  0  0  0  0  0  0  0  0  0  0
  138.8098   71.4289  221.1828 H   0  0  0  0  0  0  0  0  0  0  0  0
  138.3867   69.1157  221.9513 H   0  0  0  0  0  0  0  0  0  0  0  0
  140.1375   69.4356  221.8721 H   0  0  0  0  0  0  0  0  0  0  0  0
  138.1475   67.6212  223.8635 H   0  0  0  0  0  0  0  0  0  0  0  0
  138.4134   67.2514  226.3046 H   0  0  0  0  0  0  0  0  0  0  0  0
  139.7429   68.8482  227.6769 H   0  0  0  0  0  0  0  0  0  0  0  0
  140.7973   70.8044  226.5705 H   0  0  0  0  0  0  0  0  0  0  0  0
  140.7309   72.2942  224.7284 H   0  0  0  0  0  0  0  0  0  0  0  0
  141.7114   71.1757  223.6718 H   0  0  0  0  0  0  0  0  0  0  0  0
  137.7027   75.9655  220.7733 H   0  0  0  0  0  0  0  0  0  0  0  0
  137.4967   75.8046  222.5953 H   0  0  0  0  0  0  0  0  0  0  0  0
  136.9183   78.0296  220.7734 H   0  0  0  0  0  0  0  0  0  0  0  0
  136.0826   77.3654  222.2881 H   0  0  0  0  0  0  0  0  0  0  0  0
  135.5817   79.5922  222.9538 H   0  0  0  0  0  0  0  0  0  0  0  0
  136.4175   81.4893  224.3384 H   0  0  0  0  0  0  0  0  0  0  0  0
  138.8735   81.6922  224.7590 H   0  0  0  0  0  0  0  0  0  0  0  0
  140.4206   80.0231  223.7953 H   0  0  0  0  0  0  0  0  0  0  0  0
  140.2891   78.3391  221.3818 H   0  0  0  0  0  0  0  0  0  0  0  0
  140.6044   77.7322  223.0770 H   0  0  0  0  0  0  0  0  0  0  0  0
  143.7701   75.4116  218.5033 H   0  0  0  0  0  0  0  0  0  0  0  0
  142.1893   74.5082  218.6096 H   0  0  0  0  0  0  0  0  0  0  0  0
  143.9064   73.4628  217.1411 H   0  0  0  0  0  0  0  0  0  0  0  0
  143.2714   72.4350  218.5172 H   0  0  0  0  0  0  0  0  0  0  0  0
  1  2  1  0
  2  3  1  0
  3  4  1  0
  4  5  1  0
  5  6  1  0
  6  7  2  0
  7  8  1  0
  8  9  1  0
  9 10  1  0
 10 11  1  0
 11 12  1  0
 12 13  2  0
 13 14  1  0
 14 15  2  0
 15 16  1  0
 16 17  2  0
 17 18  1  0
  8 19  2  0
 19 20  1  0
 20 21  1  0
 21 22  1  0
 22 23  1  0
 23 24  1  0
 24 25  2  0
 25 26  1  0
 26 27  2  0
 27 28  1  0
 28 29  2  0
 29 30  1  0
 20 31  2  0
  5 32  1  0
 32 33  1  0
 33  2  1  0
 31  6  1  0
 18  9  1  0
 30 21  1  0
 17 12  1  0
 29 24  1  0
  1 34  1  0
  1 35  1  0
  2 36  1  1
  3 37  1  0
  3 38  1  0
  4 39  1  0
  4 40  1  0
  5 41  1  1
 10 42  1  0
 10 43  1  0
 11 44  1  0
 11 45  1  0
 13 46  1  0
 14 47  1  0
 15 48  1  0
 16 49  1  0
 18 50  1  0
 18 51  1  0
 22 52  1  0
 22 53  1  0
 23 54  1  0
 23 55  1  0
 25 56  1  0
 26 57  1  0
 27 58  1  0
 28 59  1  0
 30 60  1  0
 30 61  1  0
 32 62  1  0
 32 63  1  0
 33 64  1  0
 33 65  1  0
M  END
>  <smiles>  (36) 
N[C@H]1CC[C@H](c2nc(N3CCc4ccccc4C3)nc(N3CCc4ccccc4C3)n2)CC1

>  <score_type>  (36) 
oracle

>  <origin>  (36) 
autodockgpu

>  <m_score__min__energy>  (36) 
-9.5800000000000001

>  <m_primary>  (36) 
energy

>  <rmsd>  (36) 
10.479438685150672

>  <m_score__min__rmsd>  (36) 
10.479438685150672

>  <meeko>  (36) 
{"free_energy": -9.57, "intermolecular_energy": -10.77, "internal_energy": -0.94, "cluster_size": 50, "cluster_id": 1, "rank_in_cluster": 4}

>  <energy>  (36) 
-9.42

>  <cluster_rmsd>  (36) 
1.29

>  <cluster>  (36) 
1

$$$$

     RDKit          3D

 65 70  0  0  0  0  0  0  0  0999 V2000
  146.3000   73.6300  217.6350 N   0  0  0  0  0  0  0  0  0  0  0  0
  145.2470   73.1730  218.5190 C   0  0  1  0  0  0  0  0  0  0  0  0
  145.5670   73.5140  219.9620 C   0  0  0  0  0  0  0  0  0  0  0  0
  144.2630   73.2990  220.7250 C   0  0  0  0  0  0  0  0  0  0  0  0
  143.4130   74.5260  220.4010 C   0  0  2  0  0  0  0  0  0  0  0  0
  142.1050   74.5080  221.0770 C   0  0  0  0  0  0  0  0  0  0  0  0
  141.6580   73.3610  221.6050 N   0  0  0  0  0  0  0  0  0  0  0  0
  140.4920   73.2270  222.2400 C   0  0  0  0  0  0  0  0  0  0  0  0
  140.0430   71.9940  222.7930 N   0  0  0  0  0  0  0  0  0  0  0  0
  138.9520   71.2250  222.2340 C   0  0  0  0  0  0  0  0  0  0  0  0
  139.2330   69.7400  222.3730 C   0  0  0  0  0  0  0  0  0  0  0  0
  139.3370   69.4410  223.8230 C   0  0  0  0  0  0  0  0  0  0  0  0
  138.7530   68.3670  224.4330 C   0  0  0  0  0  0  0  0  0  0  0  0
  138.8970   68.1530  225.8040 C   0  0  0  0  0  0  0  0  0  0  0  0
  139.6370   69.0300  226.5740 C   0  0  0  0  0  0  0  0  0  0  0  0
  140.2260   70.1170  225.9560 C   0  0  0  0  0  0  0  0  0  0  0  0
  140.0890   70.3400  224.5840 C   0  0  0  0  0  0  0  0  0  0  0  0
  140.7340   71.5080  223.9760 C   0  0  0  0  0  0  0  0  0  0  0  0
  139.7120   74.3420  222.3470 N   0  0  0  0  0  0  0  0  0  0  0  0
  140.1440   75.5090  221.8200 C   0  0  0  0  0  0  0  0  0  0  0  0
  139.3120   76.6590  221.9450 N   0  0  0  0  0  0  0  0  0  0  0  0
  137.8960   76.4690  221.7010 C   0  0  0  0  0  0  0  0  0  0  0  0
  137.0790   77.7020  221.7370 C   0  0  0  0  0  0  0  0  0  0  0  0
  137.5720   78.7950  222.5690 C   0  0  0  0  0  0  0  0  0  0  0  0
  136.6830   79.7210  223.0890 C   0  0  0  0  0  0  0  0  0  0  0  0
  137.1240   80.7720  223.8840 C   0  0  0  0  0  0  0  0  0  0  0  0
  138.4780   80.8780  224.1500 C   0  0  0  0  0  0  0  0  0  0  0  0
  139.3510   79.9430  223.6220 C   0  0  0  0  0  0  0  0  0  0  0  0
  138.9180   78.8980  222.8330 C   0  0  0  0  0  0  0  0  0  0  0  0
  139.8920   77.9410  222.3030 C   0  0  0  0  0  0  0  0  0  0  0  0
  141.3260   75.5890  221.1920 N   0  0  0  0  0  0  0  0  0  0  0  0
  143.3480   74.7830  218.9240 C   0  0  0  0  0  0  0  0  0  0  0  0
  143.8860   73.6400  218.1010 C   0  0  0  0  0  0  0  0  0  0  0  0
  145.9330   74.4710  217.0980 H   0  0  0  0  0  0  0  0  0  0  0  0
  147.0870   74.0000  218.2110 H   0  0  0  0  0  0  0  0  0  0  0  0
  145.2091   72.0766  218.4390 H   0  0  0  0  0  0  0  0  0  0  0  0
  145.8952   74.5605  220.0470 H   0  0  0  0  0  0  0  0  0  0  0  0
  146.3823   72.8916  220.3595 H   0  0  0  0  0  0  0  0  0  0  0  0
  144.4533   73.2343  221.8065 H   0  0  0  0  0  0  0  0  0  0  0  0
  143.7643   72.3615  220.4380 H   0  0  0  0  0  0  0  0  0  0  0  0
  143.9233   75.4025  220.8269 H   0  0  0  0  0  0  0  0  0  0  0  0
  138.0227   71.4707  222.7688 H   0  0  0  0  0  0  0  0  0  0  0  0
  138.8477   71.4725  221.1673 H   0  0  0  0  0  0  0  0  0  0  0  0
  138.4122   69.1588  221.9273 H   0  0  0  0  0  0  0  0  0  0  0  0
  140.1646   69.4710  221.8535 H   0  0  0  0  0  0  0  0  0  0  0  0
  138.1602   67.6602  223.8339 H   0  0  0  0  0  0  0  0  0  0  0  0
  138.4189   67.2813  226.2747 H   0  0  0  0  0  0  0  0  0  0  0  0
  139.7547   68.8666  227.6554 H   0  0  0  0  0  0  0  0  0  0  0  0
  140.8164   70.8229  226.5587 H   0  0  0  0  0  0  0  0  0  0  0  0
  140.7641   72.3174  224.7203 H   0  0  0  0  0  0  0  0  0  0  0  0
  141.7413   71.1976  223.6612 H   0  0  0  0  0  0  0  0  0  0  0  0
  137.7803   76.0132  220.7066 H   0  0  0  0  0  0  0  0  0  0  0  0
  137.5276   75.8350  222.5209 H   0  0  0  0  0  0  0  0  0  0  0  0
  136.9992   78.0783  220.7065 H   0  0  0  0  0  0  0  0  0  0  0  0
  136.1245   77.4011  222.1936 H   0  0  0  0  0  0  0  0  0  0  0  0
  135.6097   79.6229  222.8690 H   0  0  0  0  0  0  0  0  0  0  0  0
  136.4121   81.5040  224.2931 H   0  0  0  0  0  0  0  0  0  0  0  0
  138.8573   81.6990  224.7762 H   0  0  0  0  0  0  0  0  0  0  0  0
  140.4254   80.0363  223.8387 H   0  0  0  0  0  0  0  0  0  0  0  0
  140.3541   78.3766  221.4048 H   0  0  0  0  0  0  0  0  0  0  0  0
  140.6252   77.7517  223.1009 H   0  0  0  0  0  0  0  0  0  0  0  0
  143.9373   75.6842  218.6991 H   0  0  0  0  0  0  0  0  0  0  0  0
  142.2877   74.9077  218.6589 H   0  0  0  0  0  0  0  0  0  0  0  0
  143.9395   73.9651  217.0515 H   0  0  0  0  0  0  0  0  0  0  0  0
  143.2005   72.7925  218.2486 H   0  0  0  0  0  0  0  0  0  0  0  0
  1  2  1  0
  2  3  1  0
  3  4  1  0
  4  5  1  0
  5  6  1  0
  6  7  2  0
  7  8  1  0
  8  9  1  0
  9 10  1  0
 10 11  1  0
 11 12  1  0
 12 13  2  0
 13 14  1  0
 14 15  2  0
 15 16  1  0
 16 17  2  0
 17 18  1  0
  8 19  2  0
 19 20  1  0
 20 21  1  0
 21 22  1  0
 22 23  1  0
 23 24  1  0
 24 25  2  0
 25 26  1  0
 26 27  2  0
 27 28  1  0
 28 29  2  0
 29 30  1  0
 20 31  2  0
  5 32  1  0
 32 33  1  0
 33  2  1  0
 31  6  1  0
 18  9  1  0
 30 21  1  0
 17 12  1  0
 29 24  1  0
  1 34  1  0
  1 35  1  0
  2 36  1  1
  3 37  1  0
  3 38  1  0
  4 39  1  0
  4 40  1  0
  5 41  1  1
 10 42  1  0
 10 43  1  0
 11 44  1  0
 11 45  1  0
 13 46  1  0
 14 47  1  0
 15 48  1  0
 16 49  1  0
 18 50  1  0
 18 51  1  0
 22 52  1  0
 22 53  1  0
 23 54  1  0
 23 55  1  0
 25 56  1  0
 26 57  1  0
 27 58  1  0
 28 59  1  0
 30 60  1  0
 30 61  1  0
 32 62  1  0
 32 63  1  0
 33 64  1  0
 33 65  1  0
M  END
>  <smiles>  (37) 
N[C@H]1CC[C@H](c2nc(N3CCc4ccccc4C3)nc(N3CCc4ccccc4C3)n2)CC1

>  <score_type>  (37) 
oracle

>  <origin>  (37) 
autodockgpu

>  <m_score__min__energy>  (37) 
-9.5800000000000001

>  <m_primary>  (37) 
energy

>  <rmsd>  (37) 
10.444169010575964

>  <m_score__min__rmsd>  (37) 
10.444169010575964

>  <meeko>  (37) 
{"free_energy": -9.53, "intermolecular_energy": -10.72, "internal_energy": -0.94, "cluster_size": 50, "cluster_id": 1, "rank_in_cluster": 16}

>  <energy>  (37) 
-9.4

>  <cluster_rmsd>  (37) 
0.48

>  <cluster>  (37) 
1

$$$$

     RDKit          3D

 65 70  0  0  0  0  0  0  0  0999 V2000
  146.0080   73.1990  217.5900 N   0  0  0  0  0  0  0  0  0  0  0  0
  145.0560   72.8220  218.6140 C   0  0  1  0  0  0  0  0  0  0  0  0
  145.4040   73.4690  219.9410 C   0  0  0  0  0  0  0  0  0  0  0  0
  144.1700   73.2800  220.8180 C   0  0  0  0  0  0  0  0  0  0  0  0
  143.1750   74.3290  220.3250 C   0  0  2  0  0  0  0  0  0  0  0  0
  141.9110   74.3140  221.0800 C   0  0  0  0  0  0  0  0  0  0  0  0
  141.5060   73.1740  221.6550 N   0  0  0  0  0  0  0  0  0  0  0  0
  140.3810   73.0440  222.3610 C   0  0  0  0  0  0  0  0  0  0  0  0
  139.9760   71.8180  222.9620 N   0  0  0  0  0  0  0  0  0  0  0  0
  138.8530   71.0380  222.4900 C   0  0  0  0  0  0  0  0  0  0  0  0
  139.1480   69.5560  222.6320 C   0  0  0  0  0  0  0  0  0  0  0  0
  139.3520   69.2790  224.0760 C   0  0  0  0  0  0  0  0  0  0  0  0
  138.8160   68.2130  224.7400 C   0  0  0  0  0  0  0  0  0  0  0  0
  139.0550   68.0190  226.1010 C   0  0  0  0  0  0  0  0  0  0  0  0
  139.8410   68.9100  226.8050 C   0  0  0  0  0  0  0  0  0  0  0  0
  140.3830   69.9890  226.1320 C   0  0  0  0  0  0  0  0  0  0  0  0
  140.1510   70.1910  224.7700 C   0  0  0  0  0  0  0  0  0  0  0  0
  140.7490   71.3530  224.1020 C   0  0  0  0  0  0  0  0  0  0  0  0
  139.6010   74.1560  222.4970 N   0  0  0  0  0  0  0  0  0  0  0  0
  139.9920   75.3170  221.9240 C   0  0  0  0  0  0  0  0  0  0  0  0
  139.1600   76.4630  222.0800 N   0  0  0  0  0  0  0  0  0  0  0  0
  137.7310   76.2530  221.9600 C   0  0  0  0  0  0  0  0  0  0  0  0
  136.9060   77.4800  222.0230 C   0  0  0  0  0  0  0  0  0  0  0  0
  137.4540   78.6040  222.7760 C   0  0  0  0  0  0  0  0  0  0  0  0
  136.6000   79.5400  223.3360 C   0  0  0  0  0  0  0  0  0  0  0  0
  137.0940   80.6200  224.0570 C   0  0  0  0  0  0  0  0  0  0  0  0
  138.4640   80.7470  224.2080 C   0  0  0  0  0  0  0  0  0  0  0  0
  139.3010   79.8010  223.6400 C   0  0  0  0  0  0  0  0  0  0  0  0
  138.8160   78.7270  222.9240 C   0  0  0  0  0  0  0  0  0  0  0  0
  139.7530   77.7610  222.3470 C   0  0  0  0  0  0  0  0  0  0  0  0
  141.1330   75.3930  221.2250 N   0  0  0  0  0  0  0  0  0  0  0  0
  143.0120   74.2850  218.8340 C   0  0  0  0  0  0  0  0  0  0  0  0
  143.6330   73.0610  218.2090 C   0  0  0  0  0  0  0  0  0  0  0  0
  145.6170   72.8890  216.6500 H   0  0  0  0  0  0  0  0  0  0  0  0
  146.0490   74.2400  217.5350 H   0  0  0  0  0  0  0  0  0  0  0  0
  145.1366   71.7329  218.7459 H   0  0  0  0  0  0  0  0  0  0  0  0
  145.6184   74.5391  219.8033 H   0  0  0  0  0  0  0  0  0  0  0  0
  146.3007   73.0200  220.3931 H   0  0  0  0  0  0  0  0  0  0  0  0
  144.4176   73.4484  221.8765 H   0  0  0  0  0  0  0  0  0  0  0  0
  143.7649   72.2596  220.7495 H   0  0  0  0  0  0  0  0  0  0  0  0
  143.6051   75.3182  220.5404 H   0  0  0  0  0  0  0  0  0  0  0  0
  137.9611   71.2894  223.0828 H   0  0  0  0  0  0  0  0  0  0  0  0
  138.6760   71.2689  221.4292 H   0  0  0  0  0  0  0  0  0  0  0  0
  138.3007   68.9662  222.2523 H   0  0  0  0  0  0  0  0  0  0  0  0
  140.0429   69.2816  222.0542 H   0  0  0  0  0  0  0  0  0  0  0  0
  138.1859   67.4959  224.1934 H   0  0  0  0  0  0  0  0  0  0  0  0
  138.6152   67.1521  226.6157 H   0  0  0  0  0  0  0  0  0  0  0  0
  140.0317   68.7642  227.8785 H   0  0  0  0  0  0  0  0  0  0  0  0
  141.0115   70.7049  226.6821 H   0  0  0  0  0  0  0  0  0  0  0  0
  140.8262   72.1737  224.8304 H   0  0  0  0  0  0  0  0  0  0  0  0
  141.7342   71.0421  223.7243 H   0  0  0  0  0  0  0  0  0  0  0  0
  137.5390   75.7632  220.9940 H   0  0  0  0  0  0  0  0  0  0  0  0
  137.4382   75.6436  222.8277 H   0  0  0  0  0  0  0  0  0  0  0  0
  136.7380   77.8213  220.9909 H   0  0  0  0  0  0  0  0  0  0  0  0
  135.9953   77.1868  222.5658 H   0  0  0  0  0  0  0  0  0  0  0  0
  135.5134   79.4264  223.2078 H   0  0  0  0  0  0  0  0  0  0  0  0
  136.4100   81.3594  224.4991 H   0  0  0  0  0  0  0  0  0  0  0  0
  138.8841   81.5915  224.7739 H   0  0  0  0  0  0  0  0  0  0  0  0
  140.3885   79.9100  223.7641 H   0  0  0  0  0  0  0  0  0  0  0  0
  140.1348   78.1701  221.4000 H   0  0  0  0  0  0  0  0  0  0  0  0
  140.5511   77.6044  223.0876 H   0  0  0  0  0  0  0  0  0  0  0  0
  143.4876   75.1783  218.4029 H   0  0  0  0  0  0  0  0  0  0  0  0
  141.9332   74.2513  218.6219 H   0  0  0  0  0  0  0  0  0  0  0  0
  143.5999   73.1769  217.1156 H   0  0  0  0  0  0  0  0  0  0  0  0
  143.0531   72.1956  218.5624 H   0  0  0  0  0  0  0  0  0  0  0  0
  1  2  1  0
  2  3  1  0
  3  4  1  0
  4  5  1  0
  5  6  1  0
  6  7  2  0
  7  8  1  0
  8  9  1  0
  9 10  1  0
 10 11  1  0
 11 12  1  0
 12 13  2  0
 13 14  1  0
 14 15  2  0
 15 16  1  0
 16 17  2  0
 17 18  1  0
  8 19  2  0
 19 20  1  0
 20 21  1  0
 21 22  1  0
 22 23  1  0
 23 24  1  0
 24 25  2  0
 25 26  1  0
 26 27  2  0
 27 28  1  0
 28 29  2  0
 29 30  1  0
 20 31  2  0
  5 32  1  0
 32 33  1  0
 33  2  1  0
 31  6  1  0
 18  9  1  0
 30 21  1  0
 17 12  1  0
 29 24  1  0
  1 34  1  0
  1 35  1  0
  2 36  1  1
  3 37  1  0
  3 38  1  0
  4 39  1  0
  4 40  1  0
  5 41  1  6
 10 42  1  0
 10 43  1  0
 11 44  1  0
 11 45  1  0
 13 46  1  0
 14 47  1  0
 15 48  1  0
 16 49  1  0
 18 50  1  0
 18 51  1  0
 22 52  1  0
 22 53  1  0
 23 54  1  0
 23 55  1  0
 25 56  1  0
 26 57  1  0
 27 58  1  0
 28 59  1  0
 30 60  1  0
 30 61  1  0
 32 62  1  0
 32 63  1  0
 33 64  1  0
 33 65  1  0
M  END
>  <smiles>  (38) 
N[C@H]1CC[C@H](c2nc(N3CCc4ccccc4C3)nc(N3CCc4ccccc4C3)n2)CC1

>  <score_type>  (38) 
oracle

>  <origin>  (38) 
autodockgpu

>  <m_score__min__energy>  (38) 
-9.5800000000000001

>  <m_primary>  (38) 
energy

>  <rmsd>  (38) 
10.675282071827295

>  <m_score__min__rmsd>  (38) 
10.675282071827295

>  <meeko>  (38) 
{"free_energy": -9.4, "intermolecular_energy": -10.6, "internal_energy": -0.94, "cluster_size": 50, "cluster_id": 1, "rank_in_cluster": 38}

>  <energy>  (38) 
-9.4

>  <cluster_rmsd>  (38) 
1.1

>  <cluster>  (38) 
1

$$$$

     RDKit          3D

 65 70  0  0  0  0  0  0  0  0999 V2000
  145.9160   71.6670  217.5610 N   0  0  0  0  0  0  0  0  0  0  0  0
  145.3340   72.3480  218.6990 C   0  0  1  0  0  0  0  0  0  0  0  0
  144.5080   73.5390  218.2520 C   0  0  0  0  0  0  0  0  0  0  0  0
  143.6920   73.9470  219.4760 C   0  0  0  0  0  0  0  0  0  0  0  0
  142.5630   72.9220  219.5530 C   0  0  2  0  0  0  0  0  0  0  0  0
  141.6440   73.1700  220.6760 C   0  0  0  0  0  0  0  0  0  0  0  0
  141.2040   74.4150  220.8990 N   0  0  0  0  0  0  0  0  0  0  0  0
  140.3710   74.7560  221.8840 C   0  0  0  0  0  0  0  0  0  0  0  0
  139.9200   76.0900  222.0960 N   0  0  0  0  0  0  0  0  0  0  0  0
  138.6010   76.5490  221.7150 C   0  0  0  0  0  0  0  0  0  0  0  0
  138.0810   77.5480  222.7330 C   0  0  0  0  0  0  0  0  0  0  0  0
  139.0100   78.7060  222.7360 C   0  0  0  0  0  0  0  0  0  0  0  0
  138.6130   80.0120  222.7400 C   0  0  0  0  0  0  0  0  0  0  0  0
  139.5490   81.0470  222.7430 C   0  0  0  0  0  0  0  0  0  0  0  0
  140.9020   80.7660  222.7400 C   0  0  0  0  0  0  0  0  0  0  0  0
  141.3010   79.4420  222.7350 C   0  0  0  0  0  0  0  0  0  0  0  0
  140.3730   78.4000  222.7330 C   0  0  0  0  0  0  0  0  0  0  0  0
  140.8490   77.0120  222.7270 C   0  0  0  0  0  0  0  0  0  0  0  0
  139.9500   73.7580  222.7130 N   0  0  0  0  0  0  0  0  0  0  0  0
  140.3820   72.4940  222.5070 C   0  0  0  0  0  0  0  0  0  0  0  0
  139.9270   71.4700  223.3870 N   0  0  0  0  0  0  0  0  0  0  0  0
  139.1390   70.4050  222.7970 C   0  0  0  0  0  0  0  0  0  0  0  0
  138.5980   69.4170  223.7570 C   0  0  0  0  0  0  0  0  0  0  0  0
  139.3480   69.2200  224.9930 C   0  0  0  0  0  0  0  0  0  0  0  0
  139.2580   68.0130  225.6680 C   0  0  0  0  0  0  0  0  0  0  0  0
  139.9600   67.7980  226.8470 C   0  0  0  0  0  0  0  0  0  0  0  0
  140.7570   68.8160  227.3410 C   0  0  0  0  0  0  0  0  0  0  0  0
  140.8330   70.0140  226.6520 C   0  0  0  0  0  0  0  0  0  0  0  0
  140.1380   70.2330  225.4810 C   0  0  0  0  0  0  0  0  0  0  0  0
  140.2600   71.5240  224.7990 C   0  0  0  0  0  0  0  0  0  0  0  0
  141.2190   72.2060  221.5000 N   0  0  0  0  0  0  0  0  0  0  0  0
  143.0800   71.5160  219.4680 C   0  0  0  0  0  0  0  0  0  0  0  0
  144.5790   71.4280  219.6100 C   0  0  0  0  0  0  0  0  0  0  0  0
  145.8100   70.6200  217.7170 H   0  0  0  0  0  0  0  0  0  0  0  0
  145.3420   71.8730  216.7150 H   0  0  0  0  0  0  0  0  0  0  0  0
  146.1660   72.7326  219.3073 H   0  0  0  0  0  0  0  0  0  0  0  0
  143.8430   73.2569  217.4224 H   0  0  0  0  0  0  0  0  0  0  0  0
  145.1401   74.3624  217.8880 H   0  0  0  0  0  0  0  0  0  0  0  0
  143.2860   74.9616  219.3502 H   0  0  0  0  0  0  0  0  0  0  0  0
  144.2998   73.9642  220.3927 H   0  0  0  0  0  0  0  0  0  0  0  0
  141.9361   73.0546  218.6589 H   0  0  0  0  0  0  0  0  0  0  0  0
  138.6547   77.0306  220.7275 H   0  0  0  0  0  0  0  0  0  0  0  0
  137.9181   75.6876  221.6751 H   0  0  0  0  0  0  0  0  0  0  0  0
  137.0699   77.8783  222.4526 H   0  0  0  0  0  0  0  0  0  0  0  0
  138.0278   77.0911  223.7322 H   0  0  0  0  0  0  0  0  0  0  0  0
  137.5395   80.2521  222.7409 H   0  0  0  0  0  0  0  0  0  0  0  0
  139.2078   82.0927  222.7478 H   0  0  0  0  0  0  0  0  0  0  0  0
  141.6449   81.5772  222.7416 H   0  0  0  0  0  0  0  0  0  0  0  0
  142.3751   79.2047  222.7325 H   0  0  0  0  0  0  0  0  0  0  0  0
  141.8042   76.9725  222.1830 H   0  0  0  0  0  0  0  0  0  0  0  0
  140.9572   76.6995  223.7761 H   0  0  0  0  0  0  0  0  0  0  0  0
  138.2916   70.8627  222.2655 H   0  0  0  0  0  0  0  0  0  0  0  0
  139.8216   69.8487  222.1377 H   0  0  0  0  0  0  0  0  0  0  0  0
  137.5835   69.7414  224.0318 H   0  0  0  0  0  0  0  0  0  0  0  0
  138.6479   68.4508  223.2336 H   0  0  0  0  0  0  0  0  0  0  0  0
  138.6206   67.2128  225.2637 H   0  0  0  0  0  0  0  0  0  0  0  0
  139.8840   66.8375  227.3777 H   0  0  0  0  0  0  0  0  0  0  0  0
  141.3247   68.6743  228.2725 H   0  0  0  0  0  0  0  0  0  0  0  0
  141.4686   70.8179  227.0515 H   0  0  0  0  0  0  0  0  0  0  0  0
  139.5842   72.2409  225.2883 H   0  0  0  0  0  0  0  0  0  0  0  0
  141.3149   71.8275  224.8699 H   0  0  0  0  0  0  0  0  0  0  0  0
  142.7955   71.0966  218.4917 H   0  0  0  0  0  0  0  0  0  0  0  0
  142.6375   70.9524  220.3026 H   0  0  0  0  0  0  0  0  0  0  0  0
  144.8869   70.3950  219.3906 H   0  0  0  0  0  0  0  0  0  0  0  0
  144.8190   71.7328  220.6393 H   0  0  0  0  0  0  0  0  0  0  0  0
  1  2  1  0
  2  3  1  0
  3  4  1  0
  4  5  1  0
  5  6  1  0
  6  7  2  0
  7  8  1  0
  8  9  1  0
  9 10  1  0
 10 11  1  0
 11 12  1  0
 12 13  2  0
 13 14  1  0
 14 15  2  0
 15 16  1  0
 16 17  2  0
 17 18  1  0
  8 19  2  0
 19 20  1  0
 20 21  1  0
 21 22  1  0
 22 23  1  0
 23 24  1  0
 24 25  2  0
 25 26  1  0
 26 27  2  0
 27 28  1  0
 28 29  2  0
 29 30  1  0
 20 31  2  0
  5 32  1  0
 32 33  1  0
 33  2  1  0
 31  6  1  0
 18  9  1  0
 30 21  1  0
 17 12  1  0
 29 24  1  0
  1 34  1  0
  1 35  1  0
  2 36  1  1
  3 37  1  0
  3 38  1  0
  4 39  1  0
  4 40  1  0
  5 41  1  6
 10 42  1  0
 10 43  1  0
 11 44  1  0
 11 45  1  0
 13 46  1  0
 14 47  1  0
 15 48  1  0
 16 49  1  0
 18 50  1  0
 18 51  1  0
 22 52  1  0
 22 53  1  0
 23 54  1  0
 23 55  1  0
 25 56  1  0
 26 57  1  0
 27 58  1  0
 28 59  1  0
 30 60  1  0
 30 61  1  0
 32 62  1  0
 32 63  1  0
 33 64  1  0
 33 65  1  0
M  END
>  <smiles>  (39) 
N[C@H]1CC[C@H](c2nc(N3CCc4ccccc4C3)nc(N3CCc4ccccc4C3)n2)CC1

>  <score_type>  (39) 
oracle

>  <origin>  (39) 
autodockgpu

>  <m_score__min__energy>  (39) 
-9.5800000000000001

>  <m_primary>  (39) 
energy

>  <rmsd>  (39) 
4.960167919155531

>  <m_score__min__rmsd>  (39) 
4.960167919155531

>  <meeko>  (39) 
{"free_energy": -9.4, "intermolecular_energy": -10.6, "internal_energy": -0.93, "cluster_size": 50, "cluster_id": 1, "rank_in_cluster": 37}

>  <energy>  (39) 
-9.39

>  <cluster_rmsd>  (39) 
1.45

>  <cluster>  (39) 
1

$$$$

     RDKit          3D

 65 70  0  0  0  0  0  0  0  0999 V2000
  146.2770   73.6350  217.6170 N   0  0  0  0  0  0  0  0  0  0  0  0
  145.2040   73.1680  218.4700 C   0  0  1  0  0  0  0  0  0  0  0  0
  145.5280   73.4180  219.9310 C   0  0  0  0  0  0  0  0  0  0  0  0
  144.2130   73.2080  220.6770 C   0  0  0  0  0  0  0  0  0  0  0  0
  143.4090   74.4800  220.4170 C   0  0  2  0  0  0  0  0  0  0  0  0
  142.0970   74.4710  221.0870 C   0  0  0  0  0  0  0  0  0  0  0  0
  141.6420   73.3290  221.6190 N   0  0  0  0  0  0  0  0  0  0  0  0
  140.4720   73.2040  222.2480 C   0  0  0  0  0  0  0  0  0  0  0  0
  140.0150   71.9760  222.8060 N   0  0  0  0  0  0  0  0  0  0  0  0
  138.9170   71.2150  222.2500 C   0  0  0  0  0  0  0  0  0  0  0  0
  139.1860   69.7270  222.3930 C   0  0  0  0  0  0  0  0  0  0  0  0
  139.2910   69.4310  223.8430 C   0  0  0  0  0  0  0  0  0  0  0  0
  138.7000   68.3630  224.4570 C   0  0  0  0  0  0  0  0  0  0  0  0
  138.8450   68.1510  225.8280 C   0  0  0  0  0  0  0  0  0  0  0  0
  139.5930   69.0240  226.5940 C   0  0  0  0  0  0  0  0  0  0  0  0
  140.1900   70.1050  225.9720 C   0  0  0  0  0  0  0  0  0  0  0  0
  140.0510   70.3260  224.6010 C   0  0  0  0  0  0  0  0  0  0  0  0
  140.7050   71.4880  223.9890 C   0  0  0  0  0  0  0  0  0  0  0  0
  139.6970   74.3230  222.3470 N   0  0  0  0  0  0  0  0  0  0  0  0
  140.1380   75.4860  221.8160 C   0  0  0  0  0  0  0  0  0  0  0  0
  139.3100   76.6400  221.9310 N   0  0  0  0  0  0  0  0  0  0  0  0
  137.8960   76.4580  221.6680 C   0  0  0  0  0  0  0  0  0  0  0  0
  137.0860   77.6960  221.6950 C   0  0  0  0  0  0  0  0  0  0  0  0
  137.5750   78.7850  222.5340 C   0  0  0  0  0  0  0  0  0  0  0  0
  136.6830   79.7160  223.0430 C   0  0  0  0  0  0  0  0  0  0  0  0
  137.1200   80.7630  223.8440 C   0  0  0  0  0  0  0  0  0  0  0  0
  138.4710   80.8620  224.1290 C   0  0  0  0  0  0  0  0  0  0  0  0
  139.3450   79.9230  223.6110 C   0  0  0  0  0  0  0  0  0  0  0  0
  138.9170   78.8810  222.8160 C   0  0  0  0  0  0  0  0  0  0  0  0
  139.8920   77.9180  222.2980 C   0  0  0  0  0  0  0  0  0  0  0  0
  141.3230   75.5570  221.1940 N   0  0  0  0  0  0  0  0  0  0  0  0
  143.3610   74.8200  218.9570 C   0  0  0  0  0  0  0  0  0  0  0  0
  143.8620   73.7050  218.0740 C   0  0  0  0  0  0  0  0  0  0  0  0
  145.9200   74.4770  217.0740 H   0  0  0  0  0  0  0  0  0  0  0  0
  147.0470   74.0060  218.2150 H   0  0  0  0  0  0  0  0  0  0  0  0
  145.1280   72.0797  218.3289 H   0  0  0  0  0  0  0  0  0  0  0  0
  145.8924   74.4459  220.0744 H   0  0  0  0  0  0  0  0  0  0  0  0
  146.3186   72.7461  220.2965 H   0  0  0  0  0  0  0  0  0  0  0  0
  144.3951   73.0781  221.7540 H   0  0  0  0  0  0  0  0  0  0  0  0
  143.6831   72.3056  220.3381 H   0  0  0  0  0  0  0  0  0  0  0  0
  143.9481   75.3134  220.8912 H   0  0  0  0  0  0  0  0  0  0  0  0
  137.9903   71.4700  222.7850 H   0  0  0  0  0  0  0  0  0  0  0  0
  138.8136   71.4606  221.1828 H   0  0  0  0  0  0  0  0  0  0  0  0
  138.3593   69.1515  221.9510 H   0  0  0  0  0  0  0  0  0  0  0  0
  140.1142   69.4489  221.8723 H   0  0  0  0  0  0  0  0  0  0  0  0
  138.1005   67.6594  223.8608 H   0  0  0  0  0  0  0  0  0  0  0  0
  138.3612   67.2841  226.3017 H   0  0  0  0  0  0  0  0  0  0  0  0
  139.7111   68.8626  227.6757 H   0  0  0  0  0  0  0  0  0  0  0  0
  140.7882   70.8069  226.5715 H   0  0  0  0  0  0  0  0  0  0  0  0
  140.7429   72.2990  224.7312 H   0  0  0  0  0  0  0  0  0  0  0  0
  141.7095   71.1694  223.6736 H   0  0  0  0  0  0  0  0  0  0  0  0
  137.7908   76.0041  220.6715 H   0  0  0  0  0  0  0  0  0  0  0  0
  137.5130   75.8247  222.4818 H   0  0  0  0  0  0  0  0  0  0  0  0
  137.0214   78.0738  220.6639 H   0  0  0  0  0  0  0  0  0  0  0  0
  136.1241   77.4005  222.1394 H   0  0  0  0  0  0  0  0  0  0  0  0
  135.6122   79.6241  222.8088 H   0  0  0  0  0  0  0  0  0  0  0  0
  136.4069   81.4989  224.2439 H   0  0  0  0  0  0  0  0  0  0  0  0
  138.8462   81.6799  224.7616 H   0  0  0  0  0  0  0  0  0  0  0  0
  140.4171   80.0106  223.8410 H   0  0  0  0  0  0  0  0  0  0  0  0
  140.3687   78.3516  221.4065 H   0  0  0  0  0  0  0  0  0  0  0  0
  140.6127   77.7234  223.1059 H   0  0  0  0  0  0  0  0  0  0  0  0
  143.9835   75.7103  218.7841 H   0  0  0  0  0  0  0  0  0  0  0  0
  142.3073   74.9976  218.6957 H   0  0  0  0  0  0  0  0  0  0  0  0
  143.9319   74.0847  217.0440 H   0  0  0  0  0  0  0  0  0  0  0  0
  143.1463   72.8756  218.1729 H   0  0  0  0  0  0  0  0  0  0  0  0
  1  2  1  0
  2  3  1  0
  3  4  1  0
  4  5  1  0
  5  6  1  0
  6  7  2  0
  7  8  1  0
  8  9  1  0
  9 10  1  0
 10 11  1  0
 11 12  1  0
 12 13  2  0
 13 14  1  0
 14 15  2  0
 15 16  1  0
 16 17  2  0
 17 18  1  0
  8 19  2  0
 19 20  1  0
 20 21  1  0
 21 22  1  0
 22 23  1  0
 23 24  1  0
 24 25  2  0
 25 26  1  0
 26 27  2  0
 27 28  1  0
 28 29  2  0
 29 30  1  0
 20 31  2  0
  5 32  1  0
 32 33  1  0
 33  2  1  0
 31  6  1  0
 18  9  1  0
 30 21  1  0
 17 12  1  0
 29 24  1  0
  1 34  1  0
  1 35  1  0
  2 36  1  1
  3 37  1  0
  3 38  1  0
  4 39  1  0
  4 40  1  0
  5 41  1  1
 10 42  1  0
 10 43  1  0
 11 44  1  0
 11 45  1  0
 13 46  1  0
 14 47  1  0
 15 48  1  0
 16 49  1  0
 18 50  1  0
 18 51  1  0
 22 52  1  0
 22 53  1  0
 23 54  1  0
 23 55  1  0
 25 56  1  0
 26 57  1  0
 27 58  1  0
 28 59  1  0
 30 60  1  0
 30 61  1  0
 32 62  1  0
 32 63  1  0
 33 64  1  0
 33 65  1  0
M  END
>  <smiles>  (40) 
N[C@H]1CC[C@H](c2nc(N3CCc4ccccc4C3)nc(N3CCc4ccccc4C3)n2)CC1

>  <score_type>  (40) 
oracle

>  <origin>  (40) 
autodockgpu

>  <m_score__min__energy>  (40) 
-9.5800000000000001

>  <m_primary>  (40) 
energy

>  <rmsd>  (40) 
10.466002313074984

>  <m_score__min__rmsd>  (40) 
10.466002313074984

>  <meeko>  (40) 
{"free_energy": -9.52, "intermolecular_energy": -10.72, "internal_energy": -0.94, "cluster_size": 50, "cluster_id": 1, "rank_in_cluster": 17}

>  <energy>  (40) 
-9.39

>  <cluster_rmsd>  (40) 
1.21

>  <cluster>  (40) 
1

$$$$

     RDKit          3D

 65 70  0  0  0  0  0  0  0  0999 V2000
  145.9500   72.5900  217.3240 N   0  0  0  0  0  0  0  0  0  0  0  0
  145.0690   73.3940  218.1450 C   0  0  1  0  0  0  0  0  0  0  0  0
  143.7010   73.5260  217.5030 C   0  0  0  0  0  0  0  0  0  0  0  0
  142.7940   74.0830  218.5970 C   0  0  0  0  0  0  0  0  0  0  0  0
  142.4910   72.8890  219.5000 C   0  0  2  0  0  0  0  0  0  0  0  0
  141.5970   73.2330  220.6180 C   0  0  0  0  0  0  0  0  0  0  0  0
  141.2600   72.2840  221.5010 N   0  0  0  0  0  0  0  0  0  0  0  0
  140.4590   72.4810  222.5500 C   0  0  0  0  0  0  0  0  0  0  0  0
  140.1190   71.4510  223.4740 N   0  0  0  0  0  0  0  0  0  0  0  0
  138.9130   70.6590  223.3680 C   0  0  0  0  0  0  0  0  0  0  0  0
  139.1840   69.2320  223.8070 C   0  0  0  0  0  0  0  0  0  0  0  0
  139.6060   69.2760  225.2300 C   0  0  0  0  0  0  0  0  0  0  0  0
  139.1510   68.4250  226.1960 C   0  0  0  0  0  0  0  0  0  0  0  0
  139.5960   68.5300  227.5140 C   0  0  0  0  0  0  0  0  0  0  0  0
  140.5100   69.5040  227.8670 C   0  0  0  0  0  0  0  0  0  0  0  0
  140.9690   70.3660  226.8880 C   0  0  0  0  0  0  0  0  0  0  0  0
  140.5300   70.2680  225.5660 C   0  0  0  0  0  0  0  0  0  0  0  0
  141.0490   71.2070  224.5650 C   0  0  0  0  0  0  0  0  0  0  0  0
  139.9560   73.7370  222.7200 N   0  0  0  0  0  0  0  0  0  0  0  0
  140.2840   74.7100  221.8400 C   0  0  0  0  0  0  0  0  0  0  0  0
  139.7460   76.0140  222.0390 N   0  0  0  0  0  0  0  0  0  0  0  0
  138.3380   76.0940  222.3760 C   0  0  0  0  0  0  0  0  0  0  0  0
  137.7900   77.4660  222.4730 C   0  0  0  0  0  0  0  0  0  0  0  0
  138.7270   78.5250  222.8370 C   0  0  0  0  0  0  0  0  0  0  0  0
  138.2620   79.6720  223.4590 C   0  0  0  0  0  0  0  0  0  0  0  0
  139.1300   80.6960  223.8160 C   0  0  0  0  0  0  0  0  0  0  0  0
  140.4780   80.5500  223.5380 C   0  0  0  0  0  0  0  0  0  0  0  0
  140.9230   79.3970  222.9170 C   0  0  0  0  0  0  0  0  0  0  0  0
  140.0650   78.3770  222.5600 C   0  0  0  0  0  0  0  0  0  0  0  0
  140.5980   77.1810  221.9040 C   0  0  0  0  0  0  0  0  0  0  0  0
  141.0940   74.4580  220.8020 N   0  0  0  0  0  0  0  0  0  0  0  0
  143.7420   72.1640  219.9020 C   0  0  0  0  0  0  0  0  0  0  0  0
  145.0000   72.9240  219.5660 C   0  0  0  0  0  0  0  0  0  0  0  0
  146.8600   73.1250  217.1990 H   0  0  0  0  0  0  0  0  0  0  0  0
  146.2130   71.7300  217.8540 H   0  0  0  0  0  0  0  0  0  0  0  0
  145.5065   74.4018  218.1989 H   0  0  0  0  0  0  0  0  0  0  0  0
  143.3380   72.5443  217.1645 H   0  0  0  0  0  0  0  0  0  0  0  0
  143.7248   74.1793  216.6183 H   0  0  0  0  0  0  0  0  0  0  0  0
  141.8668   74.4858  218.1635 H   0  0  0  0  0  0  0  0  0  0  0  0
  143.2675   74.9095  219.1473 H   0  0  0  0  0  0  0  0  0  0  0  0
  141.9132   72.1649  218.9068 H   0  0  0  0  0  0  0  0  0  0  0  0
  138.1340   71.0952  224.0105 H   0  0  0  0  0  0  0  0  0  0  0  0
  138.5767   70.6550  222.3207 H   0  0  0  0  0  0  0  0  0  0  0  0
  138.2707   68.6275  223.7045 H   0  0  0  0  0  0  0  0  0  0  0  0
  139.9681   68.7770  223.1840 H   0  0  0  0  0  0  0  0  0  0  0  0
  138.4224   67.6447  225.9309 H   0  0  0  0  0  0  0  0  0  0  0  0
  139.2170   67.8335  228.2764 H   0  0  0  0  0  0  0  0  0  0  0  0
  140.8649   69.5919  228.9044 H   0  0  0  0  0  0  0  0  0  0  0  0
  141.6962   71.1464  227.1566 H   0  0  0  0  0  0  0  0  0  0  0  0
  141.2643   72.1644  225.0619 H   0  0  0  0  0  0  0  0  0  0  0  0
  141.9529   70.7556  224.1301 H   0  0  0  0  0  0  0  0  0  0  0  0
  137.7717   75.5553  221.6020 H   0  0  0  0  0  0  0  0  0  0  0  0
  138.2388   75.6540  223.3793 H   0  0  0  0  0  0  0  0  0  0  0  0
  137.3614   77.7232  221.4931 H   0  0  0  0  0  0  0  0  0  0  0  0
  137.0637   77.4282  223.2983 H   0  0  0  0  0  0  0  0  0  0  0  0
  137.1879   79.7736  223.6737 H   0  0  0  0  0  0  0  0  0  0  0  0
  138.7538   81.6043  224.3095 H   0  0  0  0  0  0  0  0  0  0  0  0
  141.1894   81.3442  223.8086 H   0  0  0  0  0  0  0  0  0  0  0  0
  141.9962   79.2896  222.7006 H   0  0  0  0  0  0  0  0  0  0  0  0
  140.7223   77.3984  220.8329 H   0  0  0  0  0  0  0  0  0  0  0  0
  141.5520   76.9418  222.3967 H   0  0  0  0  0  0  0  0  0  0  0  0
  143.7683   71.1957  219.3808 H   0  0  0  0  0  0  0  0  0  0  0  0
  143.7140   72.0429  220.9949 H   0  0  0  0  0  0  0  0  0  0  0  0
  145.8616   72.2668  219.7548 H   0  0  0  0  0  0  0  0  0  0  0  0
  145.0058   73.8239  220.1986 H   0  0  0  0  0  0  0  0  0  0  0  0
  1  2  1  0
  2  3  1  0
  3  4  1  0
  4  5  1  0
  5  6  1  0
  6  7  2  0
  7  8  1  0
  8  9  1  0
  9 10  1  0
 10 11  1  0
 11 12  1  0
 12 13  2  0
 13 14  1  0
 14 15  2  0
 15 16  1  0
 16 17  2  0
 17 18  1  0
  8 19  2  0
 19 20  1  0
 20 21  1  0
 21 22  1  0
 22 23  1  0
 23 24  1  0
 24 25  2  0
 25 26  1  0
 26 27  2  0
 27 28  1  0
 28 29  2  0
 29 30  1  0
 20 31  2  0
  5 32  1  0
 32 33  1  0
 33  2  1  0
 31  6  1  0
 18  9  1  0
 30 21  1  0
 17 12  1  0
 29 24  1  0
  1 34  1  0
  1 35  1  0
  2 36  1  1
  3 37  1  0
  3 38  1  0
  4 39  1  0
  4 40  1  0
  5 41  1  6
 10 42  1  0
 10 43  1  0
 11 44  1  0
 11 45  1  0
 13 46  1  0
 14 47  1  0
 15 48  1  0
 16 49  1  0
 18 50  1  0
 18 51  1  0
 22 52  1  0
 22 53  1  0
 23 54  1  0
 23 55  1  0
 25 56  1  0
 26 57  1  0
 27 58  1  0
 28 59  1  0
 30 60  1  0
 30 61  1  0
 32 62  1  0
 32 63  1  0
 33 64  1  0
 33 65  1  0
M  END
>  <smiles>  (41) 
N[C@H]1CC[C@H](c2nc(N3CCc4ccccc4C3)nc(N3CCc4ccccc4C3)n2)CC1

>  <score_type>  (41) 
oracle

>  <origin>  (41) 
autodockgpu

>  <m_score__min__energy>  (41) 
-9.5800000000000001

>  <m_primary>  (41) 
energy

>  <rmsd>  (41) 
11.076143965457458

>  <m_score__min__rmsd>  (41) 
11.076143965457458

>  <meeko>  (41) 
{"free_energy": -9.23, "intermolecular_energy": -10.42, "internal_energy": -0.93, "cluster_size": 50, "cluster_id": 1, "rank_in_cluster": 48}

>  <energy>  (41) 
-9.38

>  <cluster_rmsd>  (41) 
0.69

>  <cluster>  (41) 
1

$$$$

     RDKit          3D

 65 70  0  0  0  0  0  0  0  0999 V2000
  146.0390   73.0260  217.3670 N   0  0  0  0  0  0  0  0  0  0  0  0
  145.0100   73.7000  218.1310 C   0  0  1  0  0  0  0  0  0  0  0  0
  143.6410   73.4620  217.5210 C   0  0  0  0  0  0  0  0  0  0  0  0
  142.6420   73.9180  218.5820 C   0  0  0  0  0  0  0  0  0  0  0  0
  142.6180   72.7870  219.6080 C   0  0  2  0  0  0  0  0  0  0  0  0
  141.6780   73.0410  220.7130 C   0  0  0  0  0  0  0  0  0  0  0  0
  141.2380   74.2890  220.9230 N   0  0  0  0  0  0  0  0  0  0  0  0
  140.3870   74.6350  221.8910 C   0  0  0  0  0  0  0  0  0  0  0  0
  139.9350   75.9710  222.0890 N   0  0  0  0  0  0  0  0  0  0  0  0
  138.6220   76.4300  221.6900 C   0  0  0  0  0  0  0  0  0  0  0  0
  138.0910   77.4350  222.6960 C   0  0  0  0  0  0  0  0  0  0  0  0
  139.0220   78.5920  222.7040 C   0  0  0  0  0  0  0  0  0  0  0  0
  138.6280   79.8990  222.6960 C   0  0  0  0  0  0  0  0  0  0  0  0
  139.5650   80.9320  222.7040 C   0  0  0  0  0  0  0  0  0  0  0  0
  140.9180   80.6490  222.7190 C   0  0  0  0  0  0  0  0  0  0  0  0
  141.3150   79.3250  222.7260 C   0  0  0  0  0  0  0  0  0  0  0  0
  140.3850   78.2830  222.7190 C   0  0  0  0  0  0  0  0  0  0  0  0
  140.8590   76.8950  222.7270 C   0  0  0  0  0  0  0  0  0  0  0  0
  139.9470   73.6410  222.7150 N   0  0  0  0  0  0  0  0  0  0  0  0
  140.3800   72.3750  222.5210 C   0  0  0  0  0  0  0  0  0  0  0  0
  139.9060   71.3550  223.3950 N   0  0  0  0  0  0  0  0  0  0  0  0
  139.1500   70.2760  222.7900 C   0  0  0  0  0  0  0  0  0  0  0  0
  138.5860   69.2910  223.7400 C   0  0  0  0  0  0  0  0  0  0  0  0
  139.2940   69.1160  225.0040 C   0  0  0  0  0  0  0  0  0  0  0  0
  139.1940   67.9150  225.6890 C   0  0  0  0  0  0  0  0  0  0  0  0
  139.8560   67.7200  226.8950 C   0  0  0  0  0  0  0  0  0  0  0  0
  140.6240   68.7520  227.4050 C   0  0  0  0  0  0  0  0  0  0  0  0
  140.7110   69.9440  226.7060 C   0  0  0  0  0  0  0  0  0  0  0  0
  140.0560   70.1430  225.5090 C   0  0  0  0  0  0  0  0  0  0  0  0
  140.1880   71.4280  224.8170 C   0  0  0  0  0  0  0  0  0  0  0  0
  141.2350   72.0810  221.5310 N   0  0  0  0  0  0  0  0  0  0  0  0
  144.0000   72.3980  220.0410 C   0  0  0  0  0  0  0  0  0  0  0  0
  145.0570   73.3760  219.5930 C   0  0  0  0  0  0  0  0  0  0  0  0
  146.9590   73.5310  217.5410 H   0  0  0  0  0  0  0  0  0  0  0  0
  146.1780   72.0690  217.7590 H   0  0  0  0  0  0  0  0  0  0  0  0
  145.2160   74.7789  218.0715 H   0  0  0  0  0  0  0  0  0  0  0  0
  143.5009   72.3950  217.2933 H   0  0  0  0  0  0  0  0  0  0  0  0
  143.5129   74.0089  216.5752 H   0  0  0  0  0  0  0  0  0  0  0  0
  141.6451   74.0608  218.1395 H   0  0  0  0  0  0  0  0  0  0  0  0
  142.9255   74.8808  219.0323 H   0  0  0  0  0  0  0  0  0  0  0  0
  142.2104   71.8962  219.1076 H   0  0  0  0  0  0  0  0  0  0  0  0
  138.6885   76.9063  220.7007 H   0  0  0  0  0  0  0  0  0  0  0  0
  137.9383   75.5694  221.6467 H   0  0  0  0  0  0  0  0  0  0  0  0
  137.0839   77.7652  222.4015 H   0  0  0  0  0  0  0  0  0  0  0  0
  138.0248   76.9837  223.6970 H   0  0  0  0  0  0  0  0  0  0  0  0
  137.5551   80.1411  222.6831 H   0  0  0  0  0  0  0  0  0  0  0  0
  139.2253   81.9782  222.6983 H   0  0  0  0  0  0  0  0  0  0  0  0
  141.6620   81.4592  222.7252 H   0  0  0  0  0  0  0  0  0  0  0  0
  142.3887   79.0864  222.7374 H   0  0  0  0  0  0  0  0  0  0  0  0
  141.8208   76.8508  222.1951 H   0  0  0  0  0  0  0  0  0  0  0  0
  140.9545   76.5880  223.7790 H   0  0  0  0  0  0  0  0  0  0  0  0
  138.3168   70.7195  222.2251 H   0  0  0  0  0  0  0  0  0  0  0  0
  139.8612   69.7205  222.1611 H   0  0  0  0  0  0  0  0  0  0  0  0
  137.5585   69.6058  223.9749 H   0  0  0  0  0  0  0  0  0  0  0  0
  138.6652   68.3202  223.2289 H   0  0  0  0  0  0  0  0  0  0  0  0
  138.5806   67.1032  225.2710 H   0  0  0  0  0  0  0  0  0  0  0  0
  139.7713   66.7646  227.4335 H   0  0  0  0  0  0  0  0  0  0  0  0
  141.1605   68.6265  228.3571 H   0  0  0  0  0  0  0  0  0  0  0  0
  141.3229   70.7593  227.1192 H   0  0  0  0  0  0  0  0  0  0  0  0
  139.4875   72.1424  225.2740 H   0  0  0  0  0  0  0  0  0  0  0  0
  141.2364   71.7440  224.9217 H   0  0  0  0  0  0  0  0  0  0  0  0
  144.2347   71.4103  219.6174 H   0  0  0  0  0  0  0  0  0  0  0  0
  144.0084   72.3867  221.1409 H   0  0  0  0  0  0  0  0  0  0  0  0
  146.0438   72.9463  219.8201 H   0  0  0  0  0  0  0  0  0  0  0  0
  144.8687   74.3159  220.1325 H   0  0  0  0  0  0  0  0  0  0  0  0
  1  2  1  0
  2  3  1  0
  3  4  1  0
  4  5  1  0
  5  6  1  0
  6  7  2  0
  7  8  1  0
  8  9  1  0
  9 10  1  0
 10 11  1  0
 11 12  1  0
 12 13  2  0
 13 14  1  0
 14 15  2  0
 15 16  1  0
 16 17  2  0
 17 18  1  0
  8 19  2  0
 19 20  1  0
 20 21  1  0
 21 22  1  0
 22 23  1  0
 23 24  1  0
 24 25  2  0
 25 26  1  0
 26 27  2  0
 27 28  1  0
 28 29  2  0
 29 30  1  0
 20 31  2  0
  5 32  1  0
 32 33  1  0
 33  2  1  0
 31  6  1  0
 18  9  1  0
 30 21  1  0
 17 12  1  0
 29 24  1  0
  1 34  1  0
  1 35  1  0
  2 36  1  1
  3 37  1  0
  3 38  1  0
  4 39  1  0
  4 40  1  0
  5 41  1  6
 10 42  1  0
 10 43  1  0
 11 44  1  0
 11 45  1  0
 13 46  1  0
 14 47  1  0
 15 48  1  0
 16 49  1  0
 18 50  1  0
 18 51  1  0
 22 52  1  0
 22 53  1  0
 23 54  1  0
 23 55  1  0
 25 56  1  0
 26 57  1  0
 27 58  1  0
 28 59  1  0
 30 60  1  0
 30 61  1  0
 32 62  1  0
 32 63  1  0
 33 64  1  0
 33 65  1  0
M  END
>  <smiles>  (42) 
N[C@H]1CC[C@H](c2nc(N3CCc4ccccc4C3)nc(N3CCc4ccccc4C3)n2)CC1

>  <score_type>  (42) 
oracle

>  <origin>  (42) 
autodockgpu

>  <m_score__min__energy>  (42) 
-9.5800000000000001

>  <m_primary>  (42) 
energy

>  <rmsd>  (42) 
4.926094548620938

>  <m_score__min__rmsd>  (42) 
4.926094548620938

>  <meeko>  (42) 
{"free_energy": -9.28, "intermolecular_energy": -10.47, "internal_energy": -0.93, "cluster_size": 50, "cluster_id": 1, "rank_in_cluster": 45}

>  <energy>  (42) 
-9.35

>  <cluster_rmsd>  (42) 
0.73

>  <cluster>  (42) 
1

$$$$

     RDKit          3D

 65 70  0  0  0  0  0  0  0  0999 V2000
  146.0660   69.5060  217.8350 N   0  0  0  0  0  0  0  0  0  0  0  0
  145.6480   70.3080  218.9660 C   0  0  1  0  0  0  0  0  0  0  0  0
  145.5390   71.7710  218.5820 C   0  0  0  0  0  0  0  0  0  0  0  0
  144.7800   72.4340  219.7280 C   0  0  0  0  0  0  0  0  0  0  0  0
  143.3200   72.0460  219.5060 C   0  0  2  0  0  0  0  0  0  0  0  0
  142.4170   72.6210  220.5170 C   0  0  0  0  0  0  0  0  0  0  0  0
  142.1950   73.9420  220.5190 N   0  0  0  0  0  0  0  0  0  0  0  0
  141.3980   74.5710  221.3850 C   0  0  0  0  0  0  0  0  0  0  0  0
  141.1800   75.9780  221.3630 N   0  0  0  0  0  0  0  0  0  0  0  0
  141.0630   76.7420  220.1390 C   0  0  0  0  0  0  0  0  0  0  0  0
  140.0440   77.8540  220.3110 C   0  0  0  0  0  0  0  0  0  0  0  0
  140.5370   78.7470  221.3890 C   0  0  0  0  0  0  0  0  0  0  0  0
  140.5270   80.1110  221.3260 C   0  0  0  0  0  0  0  0  0  0  0  0
  141.0080   80.8840  222.3830 C   0  0  0  0  0  0  0  0  0  0  0  0
  141.5090   80.2780  223.5190 C   0  0  0  0  0  0  0  0  0  0  0  0
  141.5190   78.8970  223.5820 C   0  0  0  0  0  0  0  0  0  0  0  0
  141.0390   78.1150  222.5300 C   0  0  0  0  0  0  0  0  0  0  0  0
  141.0720   76.6530  222.6460 C   0  0  0  0  0  0  0  0  0  0  0  0
  140.7770   73.8040  222.3270 N   0  0  0  0  0  0  0  0  0  0  0  0
  140.9880   72.4690  222.3430 C   0  0  0  0  0  0  0  0  0  0  0  0
  140.3280   71.6890  223.3360 N   0  0  0  0  0  0  0  0  0  0  0  0
  139.3130   70.7640  222.8720 C   0  0  0  0  0  0  0  0  0  0  0  0
  138.5770   70.0480  223.9390 C   0  0  0  0  0  0  0  0  0  0  0  0
  139.2810   69.8440  225.2010 C   0  0  0  0  0  0  0  0  0  0  0  0
  138.9330   68.7810  226.0190 C   0  0  0  0  0  0  0  0  0  0  0  0
  139.5850   68.5630  227.2260 C   0  0  0  0  0  0  0  0  0  0  0  0
  140.5960   69.4300  227.6010 C   0  0  0  0  0  0  0  0  0  0  0  0
  140.9290   70.4860  226.7700 C   0  0  0  0  0  0  0  0  0  0  0  0
  140.2850   70.7070  225.5710 C   0  0  0  0  0  0  0  0  0  0  0  0
  140.6830   71.8430  224.7350 C   0  0  0  0  0  0  0  0  0  0  0  0
  141.7990   71.8860  221.4480 N   0  0  0  0  0  0  0  0  0  0  0  0
  143.1610   70.5690  219.2960 C   0  0  0  0  0  0  0  0  0  0  0  0
  144.4080   69.7880  219.6280 C   0  0  0  0  0  0  0  0  0  0  0  0
  146.0220   70.1190  216.9660 H   0  0  0  0  0  0  0  0  0  0  0  0
  147.0760   69.2680  217.9450 H   0  0  0  0  0  0  0  0  0  0  0  0
  146.4352   70.2255  219.7299 H   0  0  0  0  0  0  0  0  0  0  0  0
  144.9846   71.8812  217.6383 H   0  0  0  0  0  0  0  0  0  0  0  0
  146.5272   72.2284  218.4265 H   0  0  0  0  0  0  0  0  0  0  0  0
  144.9003   73.5268  219.6913 H   0  0  0  0  0  0  0  0  0  0  0  0
  145.1500   72.1112  220.7123 H   0  0  0  0  0  0  0  0  0  0  0  0
  142.9969   72.5095  218.5622 H   0  0  0  0  0  0  0  0  0  0  0  0
  142.0405   77.1803  219.8893 H   0  0  0  0  0  0  0  0  0  0  0  0
  140.7330   76.0746  219.3293 H   0  0  0  0  0  0  0  0  0  0  0  0
  139.9422   78.4187  219.3725 H   0  0  0  0  0  0  0  0  0  0  0  0
  139.0585   77.4401  220.5708 H   0  0  0  0  0  0  0  0  0  0  0  0
  140.1333   80.6083  220.4273 H   0  0  0  0  0  0  0  0  0  0  0  0
  140.9883   81.9815  222.3116 H   0  0  0  0  0  0  0  0  0  0  0  0
  141.8917   80.8814  224.3554 H   0  0  0  0  0  0  0  0  0  0  0  0
  141.9143   78.4030  224.4818 H   0  0  0  0  0  0  0  0  0  0  0  0
  141.9378   76.3709  223.2632 H   0  0  0  0  0  0  0  0  0  0  0  0
  140.1204   76.3400  223.1004 H   0  0  0  0  0  0  0  0  0  0  0  0
  138.5825   71.3311  222.2764 H   0  0  0  0  0  0  0  0  0  0  0  0
  139.8442   69.9915  222.2966 H   0  0  0  0  0  0  0  0  0  0  0  0
  137.6641   70.6219  224.1562 H   0  0  0  0  0  0  0  0  0  0  0  0
  138.4025   69.0378  223.5402 H   0  0  0  0  0  0  0  0  0  0  0  0
  138.1279   68.0992  225.7077 H   0  0  0  0  0  0  0  0  0  0  0  0
  139.3031   67.7177  227.8710 H   0  0  0  0  0  0  0  0  0  0  0  0
  141.1304   69.2815  228.5509 H   0  0  0  0  0  0  0  0  0  0  0  0
  141.7334   71.1709  227.0762 H   0  0  0  0  0  0  0  0  0  0  0  0
  140.1907   72.7478  225.1209 H   0  0  0  0  0  0  0  0  0  0  0  0
  141.7799   71.9098  224.7834 H   0  0  0  0  0  0  0  0  0  0  0  0
  142.9063   70.3905  218.2409 H   0  0  0  0  0  0  0  0  0  0  0  0
  142.3668   70.2242  219.9746 H   0  0  0  0  0  0  0  0  0  0  0  0
  144.2578   68.7455  219.3107 H   0  0  0  0  0  0  0  0  0  0  0  0
  144.5631   69.8827  220.7129 H   0  0  0  0  0  0  0  0  0  0  0  0
  1  2  1  0
  2  3  1  0
  3  4  1  0
  4  5  1  0
  5  6  1  0
  6  7  2  0
  7  8  1  0
  8  9  1  0
  9 10  1  0
 10 11  1  0
 11 12  1  0
 12 13  2  0
 13 14  1  0
 14 15  2  0
 15 16  1  0
 16 17  2  0
 17 18  1  0
  8 19  2  0
 19 20  1  0
 20 21  1  0
 21 22  1  0
 22 23  1  0
 23 24  1  0
 24 25  2  0
 25 26  1  0
 26 27  2  0
 27 28  1  0
 28 29  2  0
 29 30  1  0
 20 31  2  0
  5 32  1  0
 32 33  1  0
 33  2  1  0
 31  6  1  0
 18  9  1  0
 30 21  1  0
 17 12  1  0
 29 24  1  0
  1 34  1  0
  1 35  1  0
  2 36  1  1
  3 37  1  0
  3 38  1  0
  4 39  1  0
  4 40  1  0
  5 41  1  6
 10 42  1  0
 10 43  1  0
 11 44  1  0
 11 45  1  0
 13 46  1  0
 14 47  1  0
 15 48  1  0
 16 49  1  0
 18 50  1  0
 18 51  1  0
 22 52  1  0
 22 53  1  0
 23 54  1  0
 23 55  1  0
 25 56  1  0
 26 57  1  0
 27 58  1  0
 28 59  1  0
 30 60  1  0
 30 61  1  0
 32 62  1  0
 32 63  1  0
 33 64  1  0
 33 65  1  0
M  END
>  <smiles>  (43) 
N[C@H]1CC[C@H](c2nc(N3CCc4ccccc4C3)nc(N3CCc4ccccc4C3)n2)CC1

>  <score_type>  (43) 
oracle

>  <origin>  (43) 
autodockgpu

>  <m_score__min__energy>  (43) 
-9.5800000000000001

>  <m_primary>  (43) 
energy

>  <rmsd>  (43) 
4.661573300756448

>  <m_score__min__rmsd>  (43) 
4.661573300756448

>  <meeko>  (43) 
{"free_energy": -9.39, "intermolecular_energy": -10.58, "internal_energy": -0.93, "cluster_size": 50, "cluster_id": 1, "rank_in_cluster": 39}

>  <energy>  (43) 
-9.35

>  <cluster_rmsd>  (43) 
1.69

>  <cluster>  (43) 
1

$$$$

     RDKit          3D

 65 70  0  0  0  0  0  0  0  0999 V2000
  146.1560   69.7090  217.8240 N   0  0  0  0  0  0  0  0  0  0  0  0
  145.6970   70.4720  218.9660 C   0  0  1  0  0  0  0  0  0  0  0  0
  145.5490   71.9390  218.6110 C   0  0  0  0  0  0  0  0  0  0  0  0
  144.7530   72.5540  219.7600 C   0  0  0  0  0  0  0  0  0  0  0  0
  143.3080   72.1270  219.5060 C   0  0  2  0  0  0  0  0  0  0  0  0
  142.3740   72.6520  220.5150 C   0  0  0  0  0  0  0  0  0  0  0  0
  142.1120   73.9660  220.5430 N   0  0  0  0  0  0  0  0  0  0  0  0
  141.2840   74.5510  221.4100 C   0  0  0  0  0  0  0  0  0  0  0  0
  141.0250   75.9520  221.4160 N   0  0  0  0  0  0  0  0  0  0  0  0
  140.7190   76.7050  220.2180 C   0  0  0  0  0  0  0  0  0  0  0  0
  139.7010   77.7880  220.5270 C   0  0  0  0  0  0  0  0  0  0  0  0
  140.3120   78.7010  221.5250 C   0  0  0  0  0  0  0  0  0  0  0  0
  140.2540   80.0640  221.4610 C   0  0  0  0  0  0  0  0  0  0  0  0
  140.8540   80.8560  222.4400 C   0  0  0  0  0  0  0  0  0  0  0  0
  141.5230   80.2710  223.4980 C   0  0  0  0  0  0  0  0  0  0  0  0
  141.5820   78.8920  223.5610 C   0  0  0  0  0  0  0  0  0  0  0  0
  140.9840   78.0900  222.5870 C   0  0  0  0  0  0  0  0  0  0  0  0
  141.0750   76.6300  222.7000 C   0  0  0  0  0  0  0  0  0  0  0  0
  140.6720   73.7450  222.3250 N   0  0  0  0  0  0  0  0  0  0  0  0
  140.9220   72.4170  222.3140 C   0  0  0  0  0  0  0  0  0  0  0  0
  140.2710   71.5960  223.2800 N   0  0  0  0  0  0  0  0  0  0  0  0
  139.1380   70.8190  222.8180 C   0  0  0  0  0  0  0  0  0  0  0  0
  138.4230   70.0600  223.8690 C   0  0  0  0  0  0  0  0  0  0  0  0
  139.2010   69.6600  225.0360 C   0  0  0  0  0  0  0  0  0  0  0  0
  138.8180   68.5510  225.7720 C   0  0  0  0  0  0  0  0  0  0  0  0
  139.5400   68.1470  226.8890 C   0  0  0  0  0  0  0  0  0  0  0  0
  140.6560   68.8770  227.2570 C   0  0  0  0  0  0  0  0  0  0  0  0
  141.0220   69.9820  226.5100 C   0  0  0  0  0  0  0  0  0  0  0  0
  140.3100   70.3870  225.4000 C   0  0  0  0  0  0  0  0  0  0  0  0
  140.7490   71.5670  224.6500 C   0  0  0  0  0  0  0  0  0  0  0  0
  141.7640   71.8790  221.4200 N   0  0  0  0  0  0  0  0  0  0  0  0
  143.1980   70.6500  219.2630 C   0  0  0  0  0  0  0  0  0  0  0  0
  144.4640   69.9010  219.5970 C   0  0  0  0  0  0  0  0  0  0  0  0
  147.0880   69.2660  218.0800 H   0  0  0  0  0  0  0  0  0  0  0  0
  145.5080   68.9040  217.6740 H   0  0  0  0  0  0  0  0  0  0  0  0
  146.4743   70.3957  219.7406 H   0  0  0  0  0  0  0  0  0  0  0  0
  145.0052   72.0526  217.6616 H   0  0  0  0  0  0  0  0  0  0  0  0
  146.5249   72.4294  218.4798 H   0  0  0  0  0  0  0  0  0  0  0  0
  144.8407   73.6504  219.7490 H   0  0  0  0  0  0  0  0  0  0  0  0
  145.1178   72.2210  220.7429 H   0  0  0  0  0  0  0  0  0  0  0  0
  142.9845   72.6004  218.5673 H   0  0  0  0  0  0  0  0  0  0  0  0
  141.6397   77.1698  219.8356 H   0  0  0  0  0  0  0  0  0  0  0  0
  140.3011   76.0238  219.4621 H   0  0  0  0  0  0  0  0  0  0  0  0
  139.4540   78.3441  219.6106 H   0  0  0  0  0  0  0  0  0  0  0  0
  138.7733   77.3474  220.9210 H   0  0  0  0  0  0  0  0  0  0  0  0
  139.7259   80.5447  220.6244 H   0  0  0  0  0  0  0  0  0  0  0  0
  140.7943   81.9521  222.3694 H   0  0  0  0  0  0  0  0  0  0  0  0
  141.9983   80.8898  224.2734 H   0  0  0  0  0  0  0  0  0  0  0  0
  142.1125   78.4148  224.3981 H   0  0  0  0  0  0  0  0  0  0  0  0
  142.0252   76.3761  223.1926 H   0  0  0  0  0  0  0  0  0  0  0  0
  140.2046   76.2924  223.2818 H   0  0  0  0  0  0  0  0  0  0  0  0
  138.4209   71.5088  222.3491 H   0  0  0  0  0  0  0  0  0  0  0  0
  139.5451   70.0692  222.1237 H   0  0  0  0  0  0  0  0  0  0  0  0
  137.5901   70.6854  224.2228 H   0  0  0  0  0  0  0  0  0  0  0  0
  138.1204   69.1180  223.3882 H   0  0  0  0  0  0  0  0  0  0  0  0
  137.9280   67.9807  225.4677 H   0  0  0  0  0  0  0  0  0  0  0  0
  139.2303   67.2648  227.4685 H   0  0  0  0  0  0  0  0  0  0  0  0
  141.2472   68.5812  228.1362 H   0  0  0  0  0  0  0  0  0  0  0  0
  141.9102   70.5569  226.8109 H   0  0  0  0  0  0  0  0  0  0  0  0
  140.3787   72.4648  225.1665 H   0  0  0  0  0  0  0  0  0  0  0  0
  141.8476   71.5317  224.6075 H   0  0  0  0  0  0  0  0  0  0  0  0
  142.9638   70.4862  218.2008 H   0  0  0  0  0  0  0  0  0  0  0  0
  142.4055   70.2665  219.9225 H   0  0  0  0  0  0  0  0  0  0  0  0
  144.3508   68.8616  219.2553 H   0  0  0  0  0  0  0  0  0  0  0  0
  144.6002   69.9778  220.6858 H   0  0  0  0  0  0  0  0  0  0  0  0
  1  2  1  0
  2  3  1  0
  3  4  1  0
  4  5  1  0
  5  6  1  0
  6  7  2  0
  7  8  1  0
  8  9  1  0
  9 10  1  0
 10 11  1  0
 11 12  1  0
 12 13  2  0
 13 14  1  0
 14 15  2  0
 15 16  1  0
 16 17  2  0
 17 18  1  0
  8 19  2  0
 19 20  1  0
 20 21  1  0
 21 22  1  0
 22 23  1  0
 23 24  1  0
 24 25  2  0
 25 26  1  0
 26 27  2  0
 27 28  1  0
 28 29  2  0
 29 30  1  0
 20 31  2  0
  5 32  1  0
 32 33  1  0
 33  2  1  0
 31  6  1  0
 18  9  1  0
 30 21  1  0
 17 12  1  0
 29 24  1  0
  1 34  1  0
  1 35  1  0
  2 36  1  1
  3 37  1  0
  3 38  1  0
  4 39  1  0
  4 40  1  0
  5 41  1  6
 10 42  1  0
 10 43  1  0
 11 44  1  0
 11 45  1  0
 13 46  1  0
 14 47  1  0
 15 48  1  0
 16 49  1  0
 18 50  1  0
 18 51  1  0
 22 52  1  0
 22 53  1  0
 23 54  1  0
 23 55  1  0
 25 56  1  0
 26 57  1  0
 27 58  1  0
 28 59  1  0
 30 60  1  0
 30 61  1  0
 32 62  1  0
 32 63  1  0
 33 64  1  0
 33 65  1  0
M  END
>  <smiles>  (44) 
N[C@H]1CC[C@H](c2nc(N3CCc4ccccc4C3)nc(N3CCc4ccccc4C3)n2)CC1

>  <score_type>  (44) 
oracle

>  <origin>  (44) 
autodockgpu

>  <m_score__min__energy>  (44) 
-9.5800000000000001

>  <m_primary>  (44) 
energy

>  <rmsd>  (44) 
4.677558939503803

>  <m_score__min__rmsd>  (44) 
4.677558939503803

>  <meeko>  (44) 
{"free_energy": -9.45, "intermolecular_energy": -10.65, "internal_energy": -0.93, "cluster_size": 50, "cluster_id": 1, "rank_in_cluster": 33}

>  <energy>  (44) 
-9.35

>  <cluster_rmsd>  (44) 
0.7

>  <cluster>  (44) 
1

$$$$

     RDKit          3D

 65 70  0  0  0  0  0  0  0  0999 V2000
  145.9640   72.2990  217.4160 N   0  0  0  0  0  0  0  0  0  0  0  0
  145.2110   73.0620  218.3900 C   0  0  1  0  0  0  0  0  0  0  0  0
  143.9670   73.6620  217.7640 C   0  0  0  0  0  0  0  0  0  0  0  0
  143.1110   74.1320  218.9360 C   0  0  0  0  0  0  0  0  0  0  0  0
  142.4760   72.8580  219.4910 C   0  0  2  0  0  0  0  0  0  0  0  0
  141.5830   73.1180  220.6330 C   0  0  0  0  0  0  0  0  0  0  0  0
  141.1630   74.3690  220.8630 N   0  0  0  0  0  0  0  0  0  0  0  0
  140.3540   74.7200  221.8640 C   0  0  0  0  0  0  0  0  0  0  0  0
  139.9230   76.0600  222.0840 N   0  0  0  0  0  0  0  0  0  0  0  0
  138.6100   76.5400  221.7110 C   0  0  0  0  0  0  0  0  0  0  0  0
  138.1080   77.5410  222.7350 C   0  0  0  0  0  0  0  0  0  0  0  0
  139.0540   78.6850  222.7400 C   0  0  0  0  0  0  0  0  0  0  0  0
  138.6770   79.9980  222.7520 C   0  0  0  0  0  0  0  0  0  0  0  0
  139.6280   81.0190  222.7560 C   0  0  0  0  0  0  0  0  0  0  0  0
  140.9760   80.7170  222.7460 C   0  0  0  0  0  0  0  0  0  0  0  0
  141.3570   79.3880  222.7330 C   0  0  0  0  0  0  0  0  0  0  0  0
  140.4130   78.3590  222.7300 C   0  0  0  0  0  0  0  0  0  0  0  0
  140.8680   76.9650  222.7160 C   0  0  0  0  0  0  0  0  0  0  0  0
  139.9360   73.7280  222.7020 N   0  0  0  0  0  0  0  0  0  0  0  0
  140.3490   72.4580  222.4880 C   0  0  0  0  0  0  0  0  0  0  0  0
  139.8990   71.4400  223.3770 N   0  0  0  0  0  0  0  0  0  0  0  0
  139.0940   70.3800  222.8020 C   0  0  0  0  0  0  0  0  0  0  0  0
  138.5590   69.3980  223.7720 C   0  0  0  0  0  0  0  0  0  0  0  0
  139.3250   69.1990  224.9980 C   0  0  0  0  0  0  0  0  0  0  0  0
  139.2370   67.9950  225.6780 C   0  0  0  0  0  0  0  0  0  0  0  0
  139.9540   67.7780  226.8480 C   0  0  0  0  0  0  0  0  0  0  0  0
  140.7650   68.7920  227.3270 C   0  0  0  0  0  0  0  0  0  0  0  0
  140.8400   69.9870  226.6340 C   0  0  0  0  0  0  0  0  0  0  0  0
  140.1300   70.2080  225.4720 C   0  0  0  0  0  0  0  0  0  0  0  0
  140.2520   71.4960  224.7840 C   0  0  0  0  0  0  0  0  0  0  0  0
  141.1620   72.1590  221.4650 N   0  0  0  0  0  0  0  0  0  0  0  0
  143.4970   71.7850  219.7300 C   0  0  0  0  0  0  0  0  0  0  0  0
  144.9160   72.2890  219.6400 C   0  0  0  0  0  0  0  0  0  0  0  0
  145.5170   71.3370  217.3380 H   0  0  0  0  0  0  0  0  0  0  0  0
  145.8360   72.7330  216.4760 H   0  0  0  0  0  0  0  0  0  0  0  0
  145.8517   73.8954  218.7139 H   0  0  0  0  0  0  0  0  0  0  0  0
  143.4296   72.9051  217.1739 H   0  0  0  0  0  0  0  0  0  0  0  0
  144.2109   74.4870  217.0785 H   0  0  0  0  0  0  0  0  0  0  0  0
  142.3362   74.8336  218.5932 H   0  0  0  0  0  0  0  0  0  0  0  0
  143.7025   74.6656  219.6945 H   0  0  0  0  0  0  0  0  0  0  0  0
  141.8095   72.4564  218.7135 H   0  0  0  0  0  0  0  0  0  0  0  0
  138.6670   77.0256  220.7257 H   0  0  0  0  0  0  0  0  0  0  0  0
  137.9146   75.6886  221.6702 H   0  0  0  0  0  0  0  0  0  0  0  0
  137.1009   77.8874  222.4596 H   0  0  0  0  0  0  0  0  0  0  0  0
  138.0511   77.0803  223.7323 H   0  0  0  0  0  0  0  0  0  0  0  0
  137.6073   80.2543  222.7586 H   0  0  0  0  0  0  0  0  0  0  0  0
  139.3027   82.0697  222.7672 H   0  0  0  0  0  0  0  0  0  0  0  0
  141.7306   81.5173  222.7483 H   0  0  0  0  0  0  0  0  0  0  0  0
  142.4276   79.1356  222.7248 H   0  0  0  0  0  0  0  0  0  0  0  0
  141.8206   76.9138  222.1684 H   0  0  0  0  0  0  0  0  0  0  0  0
  140.9753   76.6460  223.7632 H   0  0  0  0  0  0  0  0  0  0  0  0
  138.2425   70.8432  222.2820 H   0  0  0  0  0  0  0  0  0  0  0  0
  139.7627   69.8166  222.1346 H   0  0  0  0  0  0  0  0  0  0  0  0
  137.5507   69.7303  224.0600 H   0  0  0  0  0  0  0  0  0  0  0  0
  138.5944   68.4301  223.2505 H   0  0  0  0  0  0  0  0  0  0  0  0
  138.5888   67.1979  225.2850 H   0  0  0  0  0  0  0  0  0  0  0  0
  139.8786   66.8197  227.3828 H   0  0  0  0  0  0  0  0  0  0  0  0
  141.3449   68.6490  228.2507 H   0  0  0  0  0  0  0  0  0  0  0  0
  141.4871   70.7873  227.0223 H   0  0  0  0  0  0  0  0  0  0  0  0
  139.5884   72.2194  225.2803 H   0  0  0  0  0  0  0  0  0  0  0  0
  141.3100   71.7918  224.8392 H   0  0  0  0  0  0  0  0  0  0  0  0
  143.3575   70.9949  218.9774 H   0  0  0  0  0  0  0  0  0  0  0  0
  143.3460   71.4100  220.7530 H   0  0  0  0  0  0  0  0  0  0  0  0
  145.5935   71.4233  219.6792 H   0  0  0  0  0  0  0  0  0  0  0  0
  145.0620   72.9802  220.4832 H   0  0  0  0  0  0  0  0  0  0  0  0
  1  2  1  0
  2  3  1  0
  3  4  1  0
  4  5  1  0
  5  6  1  0
  6  7  2  0
  7  8  1  0
  8  9  1  0
  9 10  1  0
 10 11  1  0
 11 12  1  0
 12 13  2  0
 13 14  1  0
 14 15  2  0
 15 16  1  0
 16 17  2  0
 17 18  1  0
  8 19  2  0
 19 20  1  0
 20 21  1  0
 21 22  1  0
 22 23  1  0
 23 24  1  0
 24 25  2  0
 25 26  1  0
 26 27  2  0
 27 28  1  0
 28 29  2  0
 29 30  1  0
 20 31  2  0
  5 32  1  0
 32 33  1  0
 33  2  1  0
 31  6  1  0
 18  9  1  0
 30 21  1  0
 17 12  1  0
 29 24  1  0
  1 34  1  0
  1 35  1  0
  2 36  1  1
  3 37  1  0
  3 38  1  0
  4 39  1  0
  4 40  1  0
  5 41  1  6
 10 42  1  0
 10 43  1  0
 11 44  1  0
 11 45  1  0
 13 46  1  0
 14 47  1  0
 15 48  1  0
 16 49  1  0
 18 50  1  0
 18 51  1  0
 22 52  1  0
 22 53  1  0
 23 54  1  0
 23 55  1  0
 25 56  1  0
 26 57  1  0
 27 58  1  0
 28 59  1  0
 30 60  1  0
 30 61  1  0
 32 62  1  0
 32 63  1  0
 33 64  1  0
 33 65  1  0
M  END
>  <smiles>  (45) 
N[C@H]1CC[C@H](c2nc(N3CCc4ccccc4C3)nc(N3CCc4ccccc4C3)n2)CC1

>  <score_type>  (45) 
oracle

>  <origin>  (45) 
autodockgpu

>  <m_score__min__energy>  (45) 
-9.5800000000000001

>  <m_primary>  (45) 
energy

>  <rmsd>  (45) 
4.964400961403416

>  <m_score__min__rmsd>  (45) 
4.964400961403416

>  <meeko>  (45) 
{"free_energy": -9.53, "intermolecular_energy": -10.72, "internal_energy": -0.93, "cluster_size": 50, "cluster_id": 1, "rank_in_cluster": 14}

>  <energy>  (45) 
-9.28

>  <cluster_rmsd>  (45) 
0.34

>  <cluster>  (45) 
1

$$$$

     RDKit          3D

 65 70  0  0  0  0  0  0  0  0999 V2000
  146.3020   73.2020  217.6550 N   0  0  0  0  0  0  0  0  0  0  0  0
  145.1070   73.7590  218.2550 C   0  0  1  0  0  0  0  0  0  0  0  0
  143.8620   73.1020  217.6910 C   0  0  0  0  0  0  0  0  0  0  0  0
  142.7280   73.5160  218.6250 C   0  0  0  0  0  0  0  0  0  0  0  0
  142.8950   72.6310  219.8580 C   0  0  2  0  0  0  0  0  0  0  0  0
  141.8620   72.8750  220.8780 C   0  0  0  0  0  0  0  0  0  0  0  0
  141.3340   74.1000  220.9950 N   0  0  0  0  0  0  0  0  0  0  0  0
  140.3940   74.4350  221.8800 C   0  0  0  0  0  0  0  0  0  0  0  0
  139.8500   75.7480  221.9800 N   0  0  0  0  0  0  0  0  0  0  0  0
  138.4940   76.0740  221.5950 C   0  0  0  0  0  0  0  0  0  0  0  0
  137.9230   77.1250  222.5300 C   0  0  0  0  0  0  0  0  0  0  0  0
  138.7640   78.3410  222.4000 C   0  0  0  0  0  0  0  0  0  0  0  0
  138.2740   79.6110  222.2950 C   0  0  0  0  0  0  0  0  0  0  0  0
  139.1310   80.7050  222.1760 C   0  0  0  0  0  0  0  0  0  0  0  0
  140.5000   80.5210  222.1620 C   0  0  0  0  0  0  0  0  0  0  0  0
  140.9950   79.2350  222.2690 C   0  0  0  0  0  0  0  0  0  0  0  0
  140.1460   78.1330  222.3880 C   0  0  0  0  0  0  0  0  0  0  0  0
  140.7220   76.7890  222.4980 C   0  0  0  0  0  0  0  0  0  0  0  0
  139.9520   73.4530  222.7180 N   0  0  0  0  0  0  0  0  0  0  0  0
  140.4720   72.2090  222.6180 C   0  0  0  0  0  0  0  0  0  0  0  0
  139.9940   71.2010  223.5040 N   0  0  0  0  0  0  0  0  0  0  0  0
  139.3940   70.0290  222.8970 C   0  0  0  0  0  0  0  0  0  0  0  0
  138.8160   69.0530  223.8480 C   0  0  0  0  0  0  0  0  0  0  0  0
  139.4030   69.0080  225.1830 C   0  0  0  0  0  0  0  0  0  0  0  0
  139.3300   67.8430  225.9280 C   0  0  0  0  0  0  0  0  0  0  0  0
  139.8790   67.7710  227.2030 C   0  0  0  0  0  0  0  0  0  0  0  0
  140.5040   68.8920  227.7200 C   0  0  0  0  0  0  0  0  0  0  0  0
  140.5670   70.0470  226.9600 C   0  0  0  0  0  0  0  0  0  0  0  0
  140.0240   70.1230  225.6940 C   0  0  0  0  0  0  0  0  0  0  0  0
  140.1220   71.3750  224.9390 C   0  0  0  0  0  0  0  0  0  0  0  0
  141.4160   71.9260  221.7090 N   0  0  0  0  0  0  0  0  0  0  0  0
  144.3030   72.6590  220.3770 C   0  0  0  0  0  0  0  0  0  0  0  0
  145.1420   73.7450  219.7530 C   0  0  0  0  0  0  0  0  0  0  0  0
  146.0840   72.9820  216.6370 H   0  0  0  0  0  0  0  0  0  0  0  0
  147.0380   73.9410  217.6190 H   0  0  0  0  0  0  0  0  0  0  0  0
  145.0718   74.8235  217.9801 H   0  0  0  0  0  0  0  0  0  0  0  0
  143.9741   72.0078  217.6829 H   0  0  0  0  0  0  0  0  0  0  0  0
  143.6707   73.4107  216.6527 H   0  0  0  0  0  0  0  0  0  0  0  0
  141.7514   73.3393  218.1507 H   0  0  0  0  0  0  0  0  0  0  0  0
  142.7656   74.5867  218.8744 H   0  0  0  0  0  0  0  0  0  0  0  0
  142.7221   71.5912  219.5434 H   0  0  0  0  0  0  0  0  0  0  0  0
  138.4918   76.4630  220.5661 H   0  0  0  0  0  0  0  0  0  0  0  0
  137.8755   75.1663  221.6541 H   0  0  0  0  0  0  0  0  0  0  0  0
  136.8848   77.3544  222.2481 H   0  0  0  0  0  0  0  0  0  0  0  0
  137.9242   76.7620  223.5684 H   0  0  0  0  0  0  0  0  0  0  0  0
  137.1862   79.7740  222.3044 H   0  0  0  0  0  0  0  0  0  0  0  0
  138.7145   81.7197  222.0928 H   0  0  0  0  0  0  0  0  0  0  0  0
  141.1814   81.3794  222.0677 H   0  0  0  0  0  0  0  0  0  0  0  0
  142.0834   79.0760  222.2602 H   0  0  0  0  0  0  0  0  0  0  0  0
  141.6665   76.7663  221.9346 H   0  0  0  0  0  0  0  0  0  0  0  0
  140.8742   76.5853  223.5682 H   0  0  0  0  0  0  0  0  0  0  0  0
  138.5907   70.3669  222.2258 H   0  0  0  0  0  0  0  0  0  0  0  0
  140.2086   69.5033  222.3774 H   0  0  0  0  0  0  0  0  0  0  0  0
  137.7483   69.2917  223.9619 H   0  0  0  0  0  0  0  0  0  0  0  0
  139.0236   68.0660  223.4090 H   0  0  0  0  0  0  0  0  0  0  0  0
  138.8294   66.9601  225.5039 H   0  0  0  0  0  0  0  0  0  0  0  0
  139.8178   66.8420  227.7889 H   0  0  0  0  0  0  0  0  0  0  0  0
  140.9470   68.8654  228.7265 H   0  0  0  0  0  0  0  0  0  0  0  0
  141.0662   70.9331  227.3790 H   0  0  0  0  0  0  0  0  0  0  0  0
  139.3230   72.0498  225.2799 H   0  0  0  0  0  0  0  0  0  0  0  0
  141.1253   71.7857  225.1254 H   0  0  0  0  0  0  0  0  0  0  0  0
  144.7736   71.6876  220.1649 H   0  0  0  0  0  0  0  0  0  0  0  0
  144.2506   72.8645  221.4564 H   0  0  0  0  0  0  0  0  0  0  0  0
  146.1848   73.6031  220.0731 H   0  0  0  0  0  0  0  0  0  0  0  0
  144.7217   74.7042  220.0896 H   0  0  0  0  0  0  0  0  0  0  0  0
  1  2  1  0
  2  3  1  0
  3  4  1  0
  4  5  1  0
  5  6  1  0
  6  7  2  0
  7  8  1  0
  8  9  1  0
  9 10  1  0
 10 11  1  0
 11 12  1  0
 12 13  2  0
 13 14  1  0
 14 15  2  0
 15 16  1  0
 16 17  2  0
 17 18  1  0
  8 19  2  0
 19 20  1  0
 20 21  1  0
 21 22  1  0
 22 23  1  0
 23 24  1  0
 24 25  2  0
 25 26  1  0
 26 27  2  0
 27 28  1  0
 28 29  2  0
 29 30  1  0
 20 31  2  0
  5 32  1  0
 32 33  1  0
 33  2  1  0
 31  6  1  0
 18  9  1  0
 30 21  1  0
 17 12  1  0
 29 24  1  0
  1 34  1  0
  1 35  1  0
  2 36  1  6
  3 37  1  0
  3 38  1  0
  4 39  1  0
  4 40  1  0
  5 41  1  6
 10 42  1  0
 10 43  1  0
 11 44  1  0
 11 45  1  0
 13 46  1  0
 14 47  1  0
 15 48  1  0
 16 49  1  0
 18 50  1  0
 18 51  1  0
 22 52  1  0
 22 53  1  0
 23 54  1  0
 23 55  1  0
 25 56  1  0
 26 57  1  0
 27 58  1  0
 28 59  1  0
 30 60  1  0
 30 61  1  0
 32 62  1  0
 32 63  1  0
 33 64  1  0
 33 65  1  0
M  END
>  <smiles>  (46) 
N[C@H]1CC[C@H](c2nc(N3CCc4ccccc4C3)nc(N3CCc4ccccc4C3)n2)CC1

>  <score_type>  (46) 
oracle

>  <origin>  (46) 
autodockgpu

>  <m_score__min__energy>  (46) 
-9.5800000000000001

>  <m_primary>  (46) 
energy

>  <rmsd>  (46) 
4.69290912626093

>  <m_score__min__rmsd>  (46) 
4.69290912626093

>  <meeko>  (46) 
{"free_energy": -9.53, "intermolecular_energy": -10.72, "internal_energy": -0.94, "cluster_size": 50, "cluster_id": 1, "rank_in_cluster": 10}

>  <energy>  (46) 
-9.26

>  <cluster_rmsd>  (46) 
0.5

>  <cluster>  (46) 
1

$$$$

     RDKit          3D

 65 70  0  0  0  0  0  0  0  0999 V2000
  146.2370   73.4100  217.7420 N   0  0  0  0  0  0  0  0  0  0  0  0
  145.1920   72.9970  218.6550 C   0  0  1  0  0  0  0  0  0  0  0  0
  145.5000   73.4480  220.0700 C   0  0  0  0  0  0  0  0  0  0  0  0
  144.1980   73.2620  220.8450 C   0  0  0  0  0  0  0  0  0  0  0  0
  143.3250   74.4450  220.4310 C   0  0  2  0  0  0  0  0  0  0  0  0
  142.0160   74.4500  221.1050 C   0  0  0  0  0  0  0  0  0  0  0  0
  141.5540   73.3140  221.6440 N   0  0  0  0  0  0  0  0  0  0  0  0
  140.3850   73.2010  222.2770 C   0  0  0  0  0  0  0  0  0  0  0  0
  139.9200   71.9790  222.8430 N   0  0  0  0  0  0  0  0  0  0  0  0
  138.7480   71.2790  222.3620 C   0  0  0  0  0  0  0  0  0  0  0  0
  138.9620   69.7790  222.4490 C   0  0  0  0  0  0  0  0  0  0  0  0
  139.1700   69.4410  223.8790 C   0  0  0  0  0  0  0  0  0  0  0  0
  138.5850   68.3830  224.5150 C   0  0  0  0  0  0  0  0  0  0  0  0
  138.8310   68.1300  225.8640 C   0  0  0  0  0  0  0  0  0  0  0  0
  139.6760   68.9510  226.5860 C   0  0  0  0  0  0  0  0  0  0  0  0
  140.2680   70.0210  225.9420 C   0  0  0  0  0  0  0  0  0  0  0  0
  140.0280   70.2830  224.5910 C   0  0  0  0  0  0  0  0  0  0  0  0
  140.6810   71.4320  223.9540 C   0  0  0  0  0  0  0  0  0  0  0  0
  139.6190   74.3260  222.3720 N   0  0  0  0  0  0  0  0  0  0  0  0
  140.0660   75.4830  221.8330 C   0  0  0  0  0  0  0  0  0  0  0  0
  139.2470   76.6430  221.9450 N   0  0  0  0  0  0  0  0  0  0  0  0
  137.8400   76.4810  221.6380 C   0  0  0  0  0  0  0  0  0  0  0  0
  137.0410   77.7270  221.6630 C   0  0  0  0  0  0  0  0  0  0  0  0
  137.5170   78.7960  222.5350 C   0  0  0  0  0  0  0  0  0  0  0  0
  136.6210   79.7270  223.0340 C   0  0  0  0  0  0  0  0  0  0  0  0
  137.0450   80.7560  223.8660 C   0  0  0  0  0  0  0  0  0  0  0  0
  138.3870   80.8360  224.1910 C   0  0  0  0  0  0  0  0  0  0  0  0
  139.2670   79.8960  223.6830 C   0  0  0  0  0  0  0  0  0  0  0  0
  138.8510   78.8730  222.8570 C   0  0  0  0  0  0  0  0  0  0  0  0
  139.8310   77.9090  222.3510 C   0  0  0  0  0  0  0  0  0  0  0  0
  141.2500   75.5410  221.2070 N   0  0  0  0  0  0  0  0  0  0  0  0
  143.2600   74.5940  218.9390 C   0  0  0  0  0  0  0  0  0  0  0  0
  143.8230   73.4050  218.2020 C   0  0  0  0  0  0  0  0  0  0  0  0
  145.8760   74.2410  217.1850 H   0  0  0  0  0  0  0  0  0  0  0  0
  147.0400   73.7840  218.2950 H   0  0  0  0  0  0  0  0  0  0  0  0
  145.1774   71.8971  218.6549 H   0  0  0  0  0  0  0  0  0  0  0  0
  145.8064   74.5044  220.0795 H   0  0  0  0  0  0  0  0  0  0  0  0
  146.3264   72.8727  220.5129 H   0  0  0  0  0  0  0  0  0  0  0  0
  144.3862   73.2798  221.9286 H   0  0  0  0  0  0  0  0  0  0  0  0
  143.7191   72.2961  220.6265 H   0  0  0  0  0  0  0  0  0  0  0  0
  143.8166   75.3603  220.7924 H   0  0  0  0  0  0  0  0  0  0  0  0
  137.8798   71.5586  222.9768 H   0  0  0  0  0  0  0  0  0  0  0  0
  138.5694   71.5562  221.3126 H   0  0  0  0  0  0  0  0  0  0  0  0
  138.0781   69.2504  222.0627 H   0  0  0  0  0  0  0  0  0  0  0  0
  139.8324   69.4760  221.8484 H   0  0  0  0  0  0  0  0  0  0  0  0
  137.9094   67.7204  223.9542 H   0  0  0  0  0  0  0  0  0  0  0  0
  138.3497   67.2720  226.3562 H   0  0  0  0  0  0  0  0  0  0  0  0
  139.8733   68.7571  227.6506 H   0  0  0  0  0  0  0  0  0  0  0  0
  140.9434   70.6812  226.5060 H   0  0  0  0  0  0  0  0  0  0  0  0
  140.8144   72.2211  224.7087 H   0  0  0  0  0  0  0  0  0  0  0  0
  141.6418   71.0799  223.5505 H   0  0  0  0  0  0  0  0  0  0  0  0
  137.7595   76.0455  220.6311 H   0  0  0  0  0  0  0  0  0  0  0  0
  137.4273   75.8383  222.4296 H   0  0  0  0  0  0  0  0  0  0  0  0
  137.0099   78.1231  220.6373 H   0  0  0  0  0  0  0  0  0  0  0  0
  136.0634   77.4341  222.0736 H   0  0  0  0  0  0  0  0  0  0  0  0
  135.5566   79.6505  222.7673 H   0  0  0  0  0  0  0  0  0  0  0  0
  136.3278   81.4921  224.2582 H   0  0  0  0  0  0  0  0  0  0  0  0
  138.7518   81.6397  224.8475 H   0  0  0  0  0  0  0  0  0  0  0  0
  140.3325   79.9673  223.9467 H   0  0  0  0  0  0  0  0  0  0  0  0
  140.3378   78.3527  221.4813 H   0  0  0  0  0  0  0  0  0  0  0  0
  140.5259   77.6932  223.1760 H   0  0  0  0  0  0  0  0  0  0  0  0
  143.8326   75.4880  218.6509 H   0  0  0  0  0  0  0  0  0  0  0  0
  142.1985   74.6790  218.6632 H   0  0  0  0  0  0  0  0  0  0  0  0
  143.8731   73.6539  217.1317 H   0  0  0  0  0  0  0  0  0  0  0  0
  143.1540   72.5569  218.4098 H   0  0  0  0  0  0  0  0  0  0  0  0
  1  2  1  0
  2  3  1  0
  3  4  1  0
  4  5  1  0
  5  6  1  0
  6  7  2  0
  7  8  1  0
  8  9  1  0
  9 10  1  0
 10 11  1  0
 11 12  1  0
 12 13  2  0
 13 14  1  0
 14 15  2  0
 15 16  1  0
 16 17  2  0
 17 18  1  0
  8 19  2  0
 19 20  1  0
 20 21  1  0
 21 22  1  0
 22 23  1  0
 23 24  1  0
 24 25  2  0
 25 26  1  0
 26 27  2  0
 27 28  1  0
 28 29  2  0
 29 30  1  0
 20 31  2  0
  5 32  1  0
 32 33  1  0
 33  2  1  0
 31  6  1  0
 18  9  1  0
 30 21  1  0
 17 12  1  0
 29 24  1  0
  1 34  1  0
  1 35  1  0
  2 36  1  1
  3 37  1  0
  3 38  1  0
  4 39  1  0
  4 40  1  0
  5 41  1  1
 10 42  1  0
 10 43  1  0
 11 44  1  0
 11 45  1  0
 13 46  1  0
 14 47  1  0
 15 48  1  0
 16 49  1  0
 18 50  1  0
 18 51  1  0
 22 52  1  0
 22 53  1  0
 23 54  1  0
 23 55  1  0
 25 56  1  0
 26 57  1  0
 27 58  1  0
 28 59  1  0
 30 60  1  0
 30 61  1  0
 32 62  1  0
 32 63  1  0
 33 64  1  0
 33 65  1  0
M  END
>  <smiles>  (47) 
N[C@H]1CC[C@H](c2nc(N3CCc4ccccc4C3)nc(N3CCc4ccccc4C3)n2)CC1

>  <score_type>  (47) 
oracle

>  <origin>  (47) 
autodockgpu

>  <m_score__min__energy>  (47) 
-9.5800000000000001

>  <m_primary>  (47) 
energy

>  <rmsd>  (47) 
10.51267566740809

>  <m_score__min__rmsd>  (47) 
10.51267566740809

>  <meeko>  (47) 
{"free_energy": -9.53, "intermolecular_energy": -10.72, "internal_energy": -0.94, "cluster_size": 50, "cluster_id": 1, "rank_in_cluster": 12}

>  <energy>  (47) 
-9.25

>  <cluster_rmsd>  (47) 
1.32

>  <cluster>  (47) 
1

$$$$

     RDKit          3D

 65 70  0  0  0  0  0  0  0  0999 V2000
  145.9530   72.1530  217.4460 N   0  0  0  0  0  0  0  0  0  0  0  0
  145.2210   72.9760  218.3850 C   0  0  1  0  0  0  0  0  0  0  0  0
  143.9990   73.5900  217.7290 C   0  0  0  0  0  0  0  0  0  0  0  0
  143.1530   74.1320  218.8780 C   0  0  0  0  0  0  0  0  0  0  0  0
  142.4760   72.9020  219.4790 C   0  0  2  0  0  0  0  0  0  0  0  0
  141.5860   73.2340  220.6040 C   0  0  0  0  0  0  0  0  0  0  0  0
  141.2570   72.2780  221.4820 N   0  0  0  0  0  0  0  0  0  0  0  0
  140.4620   72.4640  222.5370 C   0  0  0  0  0  0  0  0  0  0  0  0
  140.1300   71.4260  223.4550 N   0  0  0  0  0  0  0  0  0  0  0  0
  138.9230   70.6340  223.3520 C   0  0  0  0  0  0  0  0  0  0  0  0
  139.1990   69.2030  223.7770 C   0  0  0  0  0  0  0  0  0  0  0  0
  139.6320   69.2360  225.1960 C   0  0  0  0  0  0  0  0  0  0  0  0
  139.1850   68.3760  226.1580 C   0  0  0  0  0  0  0  0  0  0  0  0
  139.6410   68.4700  227.4740 C   0  0  0  0  0  0  0  0  0  0  0  0
  140.5570   69.4420  227.8280 C   0  0  0  0  0  0  0  0  0  0  0  0
  141.0080   70.3120  226.8520 C   0  0  0  0  0  0  0  0  0  0  0  0
  140.5580   70.2260  225.5330 C   0  0  0  0  0  0  0  0  0  0  0  0
  141.0680   71.1730  224.5360 C   0  0  0  0  0  0  0  0  0  0  0  0
  139.9560   73.7180  222.7200 N   0  0  0  0  0  0  0  0  0  0  0  0
  140.2760   74.6980  221.8450 C   0  0  0  0  0  0  0  0  0  0  0  0
  139.7350   75.9990  222.0570 N   0  0  0  0  0  0  0  0  0  0  0  0
  138.3280   76.0720  222.4020 C   0  0  0  0  0  0  0  0  0  0  0  0
  137.7780   77.4420  222.5130 C   0  0  0  0  0  0  0  0  0  0  0  0
  138.7130   78.5000  222.8800 C   0  0  0  0  0  0  0  0  0  0  0  0
  138.2480   79.6410  223.5130 C   0  0  0  0  0  0  0  0  0  0  0  0
  139.1150   80.6650  223.8740 C   0  0  0  0  0  0  0  0  0  0  0  0
  140.4610   80.5260  223.5880 C   0  0  0  0  0  0  0  0  0  0  0  0
  140.9070   79.3780  222.9550 C   0  0  0  0  0  0  0  0  0  0  0  0
  140.0500   78.3590  222.5950 C   0  0  0  0  0  0  0  0  0  0  0  0
  140.5830   77.1690  221.9260 C   0  0  0  0  0  0  0  0  0  0  0  0
  141.0810   74.4570  220.8000 N   0  0  0  0  0  0  0  0  0  0  0  0
  143.4620   71.8080  219.7650 C   0  0  0  0  0  0  0  0  0  0  0  0
  144.8960   72.2630  219.6630 C   0  0  0  0  0  0  0  0  0  0  0  0
  145.5340   71.1760  217.4730 H   0  0  0  0  0  0  0  0  0  0  0  0
  145.7680   72.4990  216.4790 H   0  0  0  0  0  0  0  0  0  0  0  0
  145.8871   73.8003  218.6798 H   0  0  0  0  0  0  0  0  0  0  0  0
  143.4405   72.8279  217.1657 H   0  0  0  0  0  0  0  0  0  0  0  0
  144.2716   74.3795  217.0132 H   0  0  0  0  0  0  0  0  0  0  0  0
  142.4021   74.8436  218.5041 H   0  0  0  0  0  0  0  0  0  0  0  0
  143.7582   74.6758  219.6183 H   0  0  0  0  0  0  0  0  0  0  0  0
  141.8002   72.4910  218.7145 H   0  0  0  0  0  0  0  0  0  0  0  0
  138.1490   71.0643  224.0045 H   0  0  0  0  0  0  0  0  0  0  0  0
  138.5778   70.6387  222.3076 H   0  0  0  0  0  0  0  0  0  0  0  0
  138.2855   68.5984  223.6768 H   0  0  0  0  0  0  0  0  0  0  0  0
  139.9784   68.7538  223.1439 H   0  0  0  0  0  0  0  0  0  0  0  0
  138.4547   67.5976  225.8919 H   0  0  0  0  0  0  0  0  0  0  0  0
  139.2691   67.7664  228.2333 H   0  0  0  0  0  0  0  0  0  0  0  0
  140.9196   69.5221  228.8634 H   0  0  0  0  0  0  0  0  0  0  0  0
  141.7380   71.0896  227.1211 H   0  0  0  0  0  0  0  0  0  0  0  0
  141.2871   72.1263  225.0392 H   0  0  0  0  0  0  0  0  0  0  0  0
  141.9682   70.7251  224.0899 H   0  0  0  0  0  0  0  0  0  0  0  0
  137.7590   75.5384  221.6264 H   0  0  0  0  0  0  0  0  0  0  0  0
  138.2344   75.6228  223.4017 H   0  0  0  0  0  0  0  0  0  0  0  0
  137.3435   77.7059  221.5375 H   0  0  0  0  0  0  0  0  0  0  0  0
  137.0569   77.3956  223.3424 H   0  0  0  0  0  0  0  0  0  0  0  0
  137.1747   79.7380  223.7335 H   0  0  0  0  0  0  0  0  0  0  0  0
  138.7385   81.5679  224.3770 H   0  0  0  0  0  0  0  0  0  0  0  0
  141.1711   81.3205  223.8610 H   0  0  0  0  0  0  0  0  0  0  0  0
  141.9793   79.2754  222.7321 H   0  0  0  0  0  0  0  0  0  0  0  0
  140.7003   77.3951  220.8559 H   0  0  0  0  0  0  0  0  0  0  0  0
  141.5407   76.9286  222.4109 H   0  0  0  0  0  0  0  0  0  0  0  0
  143.3008   70.9938  219.0431 H   0  0  0  0  0  0  0  0  0  0  0  0
  143.2952   71.4785  220.8012 H   0  0  0  0  0  0  0  0  0  0  0  0
  145.5456   71.3787  219.7404 H   0  0  0  0  0  0  0  0  0  0  0  0
  145.0600   72.9824  220.4788 H   0  0  0  0  0  0  0  0  0  0  0  0
  1  2  1  0
  2  3  1  0
  3  4  1  0
  4  5  1  0
  5  6  1  0
  6  7  2  0
  7  8  1  0
  8  9  1  0
  9 10  1  0
 10 11  1  0
 11 12  1  0
 12 13  2  0
 13 14  1  0
 14 15  2  0
 15 16  1  0
 16 17  2  0
 17 18  1  0
  8 19  2  0
 19 20  1  0
 20 21  1  0
 21 22  1  0
 22 23  1  0
 23 24  1  0
 24 25  2  0
 25 26  1  0
 26 27  2  0
 27 28  1  0
 28 29  2  0
 29 30  1  0
 20 31  2  0
  5 32  1  0
 32 33  1  0
 33  2  1  0
 31  6  1  0
 18  9  1  0
 30 21  1  0
 17 12  1  0
 29 24  1  0
  1 34  1  0
  1 35  1  0
  2 36  1  1
  3 37  1  0
  3 38  1  0
  4 39  1  0
  4 40  1  0
  5 41  1  6
 10 42  1  0
 10 43  1  0
 11 44  1  0
 11 45  1  0
 13 46  1  0
 14 47  1  0
 15 48  1  0
 16 49  1  0
 18 50  1  0
 18 51  1  0
 22 52  1  0
 22 53  1  0
 23 54  1  0
 23 55  1  0
 25 56  1  0
 26 57  1  0
 27 58  1  0
 28 59  1  0
 30 60  1  0
 30 61  1  0
 32 62  1  0
 32 63  1  0
 33 64  1  0
 33 65  1  0
M  END
>  <smiles>  (48) 
N[C@H]1CC[C@H](c2nc(N3CCc4ccccc4C3)nc(N3CCc4ccccc4C3)n2)CC1

>  <score_type>  (48) 
oracle

>  <origin>  (48) 
autodockgpu

>  <m_score__min__energy>  (48) 
-9.5800000000000001

>  <m_primary>  (48) 
energy

>  <rmsd>  (48) 
11.092551239929717

>  <m_score__min__rmsd>  (48) 
11.092551239929717

>  <meeko>  (48) 
{"free_energy": -9.48, "intermolecular_energy": -10.68, "internal_energy": -0.94, "cluster_size": 50, "cluster_id": 1, "rank_in_cluster": 27}

>  <energy>  (48) 
-9.23

>  <cluster_rmsd>  (48) 
0.6

>  <cluster>  (48) 
1

$$$$

     RDKit          3D

 65 70  0  0  0  0  0  0  0  0999 V2000
  146.3280   73.4110  217.7200 N   0  0  0  0  0  0  0  0  0  0  0  0
  145.3090   73.0020  218.6630 C   0  0  1  0  0  0  0  0  0  0  0  0
  145.6080   73.5410  220.0490 C   0  0  0  0  0  0  0  0  0  0  0  0
  144.3220   73.3410  220.8460 C   0  0  0  0  0  0  0  0  0  0  0  0
  143.3940   74.4610  220.3790 C   0  0  2  0  0  0  0  0  0  0  0  0
  142.0910   74.4440  221.0650 C   0  0  0  0  0  0  0  0  0  0  0  0
  141.6470   73.2980  221.5970 N   0  0  0  0  0  0  0  0  0  0  0  0
  140.4850   73.1660  222.2390 C   0  0  0  0  0  0  0  0  0  0  0  0
  140.0390   71.9330  222.7970 N   0  0  0  0  0  0  0  0  0  0  0  0
  138.9570   71.1550  222.2330 C   0  0  0  0  0  0  0  0  0  0  0  0
  139.2460   69.6720  222.3830 C   0  0  0  0  0  0  0  0  0  0  0  0
  139.3390   69.3820  223.8360 C   0  0  0  0  0  0  0  0  0  0  0  0
  138.7570   68.3090  224.4470 C   0  0  0  0  0  0  0  0  0  0  0  0
  138.8910   68.1030  225.8210 C   0  0  0  0  0  0  0  0  0  0  0  0
  139.6180   68.9890  226.5910 C   0  0  0  0  0  0  0  0  0  0  0  0
  140.2070   70.0760  225.9720 C   0  0  0  0  0  0  0  0  0  0  0  0
  140.0790   70.2900  224.5980 C   0  0  0  0  0  0  0  0  0  0  0  0
  140.7230   71.4590  223.9880 C   0  0  0  0  0  0  0  0  0  0  0  0
  139.7070   74.2810  222.3520 N   0  0  0  0  0  0  0  0  0  0  0  0
  140.1370   75.4480  221.8220 C   0  0  0  0  0  0  0  0  0  0  0  0
  139.3070   76.5990  221.9520 N   0  0  0  0  0  0  0  0  0  0  0  0
  137.8880   76.4080  221.7280 C   0  0  0  0  0  0  0  0  0  0  0  0
  137.0720   77.6420  221.7700 C   0  0  0  0  0  0  0  0  0  0  0  0
  137.5770   78.7380  222.5900 C   0  0  0  0  0  0  0  0  0  0  0  0
  136.6950   79.6680  223.1170 C   0  0  0  0  0  0  0  0  0  0  0  0
  137.1480   80.7220  223.9000 C   0  0  0  0  0  0  0  0  0  0  0  0
  138.5050   80.8300  224.1480 C   0  0  0  0  0  0  0  0  0  0  0  0
  139.3700   79.8910  223.6130 C   0  0  0  0  0  0  0  0  0  0  0  0
  138.9260   78.8430  222.8340 C   0  0  0  0  0  0  0  0  0  0  0  0
  139.8920   77.8820  222.2960 C   0  0  0  0  0  0  0  0  0  0  0  0
  141.3150   75.5260  221.1860 N   0  0  0  0  0  0  0  0  0  0  0  0
  143.3110   74.5270  218.8820 C   0  0  0  0  0  0  0  0  0  0  0  0
  143.9200   73.3260  218.2030 C   0  0  0  0  0  0  0  0  0  0  0  0
  145.8680   74.0310  216.9880 H   0  0  0  0  0  0  0  0  0  0  0  0
  147.0110   74.0320  218.2080 H   0  0  0  0  0  0  0  0  0  0  0  0
  145.3420   71.9040  218.7205 H   0  0  0  0  0  0  0  0  0  0  0  0
  145.8681   74.6086  219.9992 H   0  0  0  0  0  0  0  0  0  0  0  0
  146.4620   73.0262  220.5133 H   0  0  0  0  0  0  0  0  0  0  0  0
  144.5181   73.4251  221.9251 H   0  0  0  0  0  0  0  0  0  0  0  0
  143.8842   72.3450  220.6839 H   0  0  0  0  0  0  0  0  0  0  0  0
  143.8469   75.4151  220.6867 H   0  0  0  0  0  0  0  0  0  0  0  0
  138.0218   71.3982  222.7586 H   0  0  0  0  0  0  0  0  0  0  0  0
  138.8598   71.3961  221.1642 H   0  0  0  0  0  0  0  0  0  0  0  0
  138.4328   69.0832  221.9335 H   0  0  0  0  0  0  0  0  0  0  0  0
  140.1837   69.4058  221.8732 H   0  0  0  0  0  0  0  0  0  0  0  0
  138.1732   67.5954  223.8471 H   0  0  0  0  0  0  0  0  0  0  0  0
  138.4151   67.2306  226.2926 H   0  0  0  0  0  0  0  0  0  0  0  0
  139.7263   68.8333  227.6745 H   0  0  0  0  0  0  0  0  0  0  0  0
  140.7894   70.7880  226.5752 H   0  0  0  0  0  0  0  0  0  0  0  0
  140.7422   72.2731  224.7275 H   0  0  0  0  0  0  0  0  0  0  0  0
  141.7349   71.1531  223.6838 H   0  0  0  0  0  0  0  0  0  0  0  0
  137.7587   75.9480  220.7372 H   0  0  0  0  0  0  0  0  0  0  0  0
  137.5305   75.7771  222.5552 H   0  0  0  0  0  0  0  0  0  0  0  0
  136.9781   78.0139  220.7390 H   0  0  0  0  0  0  0  0  0  0  0  0
  136.1239   77.3437  222.2412 H   0  0  0  0  0  0  0  0  0  0  0  0
  135.6188   79.5699  222.9119 H   0  0  0  0  0  0  0  0  0  0  0  0
  136.4419   81.4564  224.3148 H   0  0  0  0  0  0  0  0  0  0  0  0
  138.8928   81.6543  224.7645 H   0  0  0  0  0  0  0  0  0  0  0  0
  140.4471   79.9837  223.8159 H   0  0  0  0  0  0  0  0  0  0  0  0
  140.3427   78.3127  221.3897 H   0  0  0  0  0  0  0  0  0  0  0  0
  140.6349   77.6959  223.0856 H   0  0  0  0  0  0  0  0  0  0  0  0
  143.8414   75.4284  218.5412 H   0  0  0  0  0  0  0  0  0  0  0  0
  142.2447   74.5507  218.6130 H   0  0  0  0  0  0  0  0  0  0  0  0
  143.9509   73.5198  217.1207 H   0  0  0  0  0  0  0  0  0  0  0  0
  143.2904   72.4620  218.4620 H   0  0  0  0  0  0  0  0  0  0  0  0
  1  2  1  0
  2  3  1  0
  3  4  1  0
  4  5  1  0
  5  6  1  0
  6  7  2  0
  7  8  1  0
  8  9  1  0
  9 10  1  0
 10 11  1  0
 11 12  1  0
 12 13  2  0
 13 14  1  0
 14 15  2  0
 15 16  1  0
 16 17  2  0
 17 18  1  0
  8 19  2  0
 19 20  1  0
 20 21  1  0
 21 22  1  0
 22 23  1  0
 23 24  1  0
 24 25  2  0
 25 26  1  0
 26 27  2  0
 27 28  1  0
 28 29  2  0
 29 30  1  0
 20 31  2  0
  5 32  1  0
 32 33  1  0
 33  2  1  0
 31  6  1  0
 18  9  1  0
 30 21  1  0
 17 12  1  0
 29 24  1  0
  1 34  1  0
  1 35  1  0
  2 36  1  1
  3 37  1  0
  3 38  1  0
  4 39  1  0
  4 40  1  0
  5 41  1  1
 10 42  1  0
 10 43  1  0
 11 44  1  0
 11 45  1  0
 13 46  1  0
 14 47  1  0
 15 48  1  0
 16 49  1  0
 18 50  1  0
 18 51  1  0
 22 52  1  0
 22 53  1  0
 23 54  1  0
 23 55  1  0
 25 56  1  0
 26 57  1  0
 27 58  1  0
 28 59  1  0
 30 60  1  0
 30 61  1  0
 32 62  1  0
 32 63  1  0
 33 64  1  0
 33 65  1  0
M  END
>  <smiles>  (49) 
N[C@H]1CC[C@H](c2nc(N3CCc4ccccc4C3)nc(N3CCc4ccccc4C3)n2)CC1

>  <score_type>  (49) 
oracle

>  <origin>  (49) 
autodockgpu

>  <m_score__min__energy>  (49) 
-9.5800000000000001

>  <m_primary>  (49) 
energy

>  <rmsd>  (49) 
10.49219198761518

>  <m_score__min__rmsd>  (49) 
10.49219198761518

>  <meeko>  (49) 
{"free_energy": -9.53, "intermolecular_energy": -10.72, "internal_energy": -0.94, "cluster_size": 50, "cluster_id": 1, "rank_in_cluster": 13}

>  <energy>  (49) 
-9.15

>  <cluster_rmsd>  (49) 
0.36

>  <cluster>  (49) 
1

$$$$

     RDKit          3D

 65 70  0  0  0  0  0  0  0  0999 V2000
  146.3070   73.1970  217.6410 N   0  0  0  0  0  0  0  0  0  0  0  0
  145.1170   73.7600  218.2430 C   0  0  1  0  0  0  0  0  0  0  0  0
  143.8670   73.1100  217.6790 C   0  0  0  0  0  0  0  0  0  0  0  0
  142.7370   73.5290  218.6160 C   0  0  0  0  0  0  0  0  0  0  0  0
  142.9010   72.6410  219.8480 C   0  0  2  0  0  0  0  0  0  0  0  0
  141.8700   72.8890  220.8700 C   0  0  0  0  0  0  0  0  0  0  0  0
  141.3650   74.1220  221.0030 N   0  0  0  0  0  0  0  0  0  0  0  0
  140.4300   74.4620  221.8920 C   0  0  0  0  0  0  0  0  0  0  0  0
  139.9100   75.7830  222.0110 N   0  0  0  0  0  0  0  0  0  0  0  0
  138.6020   76.1650  221.5260 C   0  0  0  0  0  0  0  0  0  0  0  0
  137.9750   77.1850  222.4600 C   0  0  0  0  0  0  0  0  0  0  0  0
  138.8540   78.3820  222.4660 C   0  0  0  0  0  0  0  0  0  0  0  0
  138.4050   79.6690  222.3830 C   0  0  0  0  0  0  0  0  0  0  0  0
  139.2940   80.7430  222.3950 C   0  0  0  0  0  0  0  0  0  0  0  0
  140.6550   80.5220  222.4910 C   0  0  0  0  0  0  0  0  0  0  0  0
  141.1080   79.2180  222.5740 C   0  0  0  0  0  0  0  0  0  0  0  0
  140.2260   78.1360  222.5630 C   0  0  0  0  0  0  0  0  0  0  0  0
  140.7580   76.7720  222.6550 C   0  0  0  0  0  0  0  0  0  0  0  0
  139.9670   73.4760  222.7140 N   0  0  0  0  0  0  0  0  0  0  0  0
  140.4640   72.2240  222.5960 C   0  0  0  0  0  0  0  0  0  0  0  0
  139.9650   71.2120  223.4660 N   0  0  0  0  0  0  0  0  0  0  0  0
  139.3530   70.0570  222.8400 C   0  0  0  0  0  0  0  0  0  0  0  0
  138.7540   69.0770  223.7750 C   0  0  0  0  0  0  0  0  0  0  0  0
  139.3300   69.0070  225.1140 C   0  0  0  0  0  0  0  0  0  0  0  0
  139.2350   67.8340  225.8440 C   0  0  0  0  0  0  0  0  0  0  0  0
  139.7740   67.7380  227.1210 C   0  0  0  0  0  0  0  0  0  0  0  0
  140.4120   68.8440  227.6560 C   0  0  0  0  0  0  0  0  0  0  0  0
  140.4960   70.0070  226.9110 C   0  0  0  0  0  0  0  0  0  0  0  0
  139.9640   70.1070  225.6430 C   0  0  0  0  0  0  0  0  0  0  0  0
  140.0860   71.3660  224.9050 C   0  0  0  0  0  0  0  0  0  0  0  0
  141.4040   71.9360  221.6850 N   0  0  0  0  0  0  0  0  0  0  0  0
  144.3090   72.6610  220.3650 C   0  0  0  0  0  0  0  0  0  0  0  0
  145.1530   73.7440  219.7410 C   0  0  0  0  0  0  0  0  0  0  0  0
  146.0280   72.7570  216.7140 H   0  0  0  0  0  0  0  0  0  0  0  0
  146.9550   73.9740  217.3850 H   0  0  0  0  0  0  0  0  0  0  0  0
  145.0882   74.8252  217.9700 H   0  0  0  0  0  0  0  0  0  0  0  0
  143.9731   72.0152  217.6689 H   0  0  0  0  0  0  0  0  0  0  0  0
  143.6757   73.4209  216.6413 H   0  0  0  0  0  0  0  0  0  0  0  0
  141.7585   73.3586  218.1432 H   0  0  0  0  0  0  0  0  0  0  0  0
  142.7814   74.5991  218.8670 H   0  0  0  0  0  0  0  0  0  0  0  0
  142.7224   71.6025  219.5322 H   0  0  0  0  0  0  0  0  0  0  0  0
  138.7003   76.6035  220.5220 H   0  0  0  0  0  0  0  0  0  0  0  0
  137.9595   75.2731  221.4843 H   0  0  0  0  0  0  0  0  0  0  0  0
  136.9717   77.4572  222.1003 H   0  0  0  0  0  0  0  0  0  0  0  0
  137.8747   76.7721  223.4746 H   0  0  0  0  0  0  0  0  0  0  0  0
  137.3247   79.8614  222.3054 H   0  0  0  0  0  0  0  0  0  0  0  0
  138.9102   81.7717  222.3277 H   0  0  0  0  0  0  0  0  0  0  0  0
  141.3621   81.3646  222.5011 H   0  0  0  0  0  0  0  0  0  0  0  0
  142.1889   79.0289  222.6505 H   0  0  0  0  0  0  0  0  0  0  0  0
  141.7477   76.7495  222.1755 H   0  0  0  0  0  0  0  0  0  0  0  0
  140.8106   76.5126  223.7227 H   0  0  0  0  0  0  0  0  0  0  0  0
  138.5595   70.4148  222.1675 H   0  0  0  0  0  0  0  0  0  0  0  0
  140.1637   69.5263  222.3193 H   0  0  0  0  0  0  0  0  0  0  0  0
  137.6889   69.3292  223.8839 H   0  0  0  0  0  0  0  0  0  0  0  0
  138.9515   68.0928  223.3253 H   0  0  0  0  0  0  0  0  0  0  0  0
  138.7244   66.9639  225.4056 H   0  0  0  0  0  0  0  0  0  0  0  0
  139.6954   66.8028  227.6948 H   0  0  0  0  0  0  0  0  0  0  0  0
  140.8484   68.7987  228.6647 H   0  0  0  0  0  0  0  0  0  0  0  0
  141.0041   70.8808  227.3448 H   0  0  0  0  0  0  0  0  0  0  0  0
  139.2950   72.0486  225.2492 H   0  0  0  0  0  0  0  0  0  0  0  0
  141.0941   71.7589  225.1031 H   0  0  0  0  0  0  0  0  0  0  0  0
  144.7744   71.6875  220.1511 H   0  0  0  0  0  0  0  0  0  0  0  0
  144.2591   72.8652  221.4447 H   0  0  0  0  0  0  0  0  0  0  0  0
  146.1954   73.5968  220.0601 H   0  0  0  0  0  0  0  0  0  0  0  0
  144.7373   74.7048  220.0789 H   0  0  0  0  0  0  0  0  0  0  0  0
  1  2  1  0
  2  3  1  0
  3  4  1  0
  4  5  1  0
  5  6  1  0
  6  7  2  0
  7  8  1  0
  8  9  1  0
  9 10  1  0
 10 11  1  0
 11 12  1  0
 12 13  2  0
 13 14  1  0
 14 15  2  0
 15 16  1  0
 16 17  2  0
 17 18  1  0
  8 19  2  0
 19 20  1  0
 20 21  1  0
 21 22  1  0
 22 23  1  0
 23 24  1  0
 24 25  2  0
 25 26  1  0
 26 27  2  0
 27 28  1  0
 28 29  2  0
 29 30  1  0
 20 31  2  0
  5 32  1  0
 32 33  1  0
 33  2  1  0
 31  6  1  0
 18  9  1  0
 30 21  1  0
 17 12  1  0
 29 24  1  0
  1 34  1  0
  1 35  1  0
  2 36  1  6
  3 37  1  0
  3 38  1  0
  4 39  1  0
  4 40  1  0
  5 41  1  6
 10 42  1  0
 10 43  1  0
 11 44  1  0
 11 45  1  0
 13 46  1  0
 14 47  1  0
 15 48  1  0
 16 49  1  0
 18 50  1  0
 18 51  1  0
 22 52  1  0
 22 53  1  0
 23 54  1  0
 23 55  1  0
 25 56  1  0
 26 57  1  0
 27 58  1  0
 28 59  1  0
 30 60  1  0
 30 61  1  0
 32 62  1  0
 32 63  1  0
 33 64  1  0
 33 65  1  0
M  END
>  <smiles>  (50) 
N[C@H]1CC[C@H](c2nc(N3CCc4ccccc4C3)nc(N3CCc4ccccc4C3)n2)CC1

>  <score_type>  (50) 
oracle

>  <origin>  (50) 
autodockgpu

>  <m_score__min__energy>  (50) 
-9.5800000000000001

>  <m_primary>  (50) 
energy

>  <rmsd>  (50) 
4.762844890552371

>  <m_score__min__rmsd>  (50) 
4.762844890552371

>  <meeko>  (50) 
{"free_energy": -9.51, "intermolecular_energy": -10.7, "internal_energy": -0.93, "cluster_size": 50, "cluster_id": 1, "rank_in_cluster": 19}

>  <energy>  (50) 
-9.05

>  <cluster_rmsd>  (50) 
0.63

>  <cluster>  (50) 
1

$$$$
