
     RDKit          3D

 67 73  0  0  0  0  0  0  0  0999 V2000
  145.6170   72.0130  215.8250 C   0  0  0  0  0  0  0  0  0  0  0  0
  146.1630   73.0970  216.4710 C   0  0  0  0  0  0  0  0  0  0  0  0
  145.7800   73.3890  217.7700 C   0  0  0  0  0  0  0  0  0  0  0  0
  144.8550   72.6060  218.4290 C   0  0  0  0  0  0  0  0  0  0  0  0
  144.3040   71.5260  217.8010 C   0  0  0  0  0  0  0  0  0  0  0  0
  144.6920   71.2350  216.4930 C   0  0  0  0  0  0  0  0  0  0  0  0
  143.3020   70.6170  218.4130 C   0  0  0  0  0  0  0  0  0  0  0  0
  143.3420   70.7730  219.9050 C   0  0  0  0  0  0  0  0  0  0  0  0
  143.3260   72.1810  220.2630 N   0  0  0  0  0  0  0  0  0  0  0  0
  142.2870   72.8040  220.9790 C   0  0  0  0  0  0  0  0  0  0  0  0
  141.3920   72.1210  221.7740 C   0  0  0  0  0  0  0  0  0  0  0  0
  140.3740   72.7420  222.4730 C   0  0  0  0  0  0  0  0  0  0  0  0
  139.4750   71.9780  223.2830 N   0  0  0  0  0  0  0  0  0  0  0  0
  139.9860   70.7410  223.8270 C   0  0  2  0  0  0  0  0  0  0  0  0
  139.0290   69.6040  223.7680 C   0  0  0  0  0  0  0  0  0  0  0  0
  138.8540   69.0480  225.1570 C   0  0  0  0  0  0  0  0  0  0  0  0
  139.6350   69.9560  226.0240 C   0  0  0  0  0  0  0  0  0  0  0  0
  139.7950   69.9690  227.3920 C   0  0  0  0  0  0  0  0  0  0  0  0
  140.5780   70.9250  227.9560 C   0  0  0  0  0  0  0  0  0  0  0  0
  141.2380   71.9040  227.2350 C   0  0  0  0  0  0  0  0  0  0  0  0
  141.0760   71.8900  225.8640 C   0  0  0  0  0  0  0  0  0  0  0  0
  140.2740   70.9140  225.2640 C   0  0  0  0  0  0  0  0  0  0  0  0
  140.2820   74.0780  222.3450 N   0  0  0  0  0  0  0  0  0  0  0  0
  141.1520   74.7820  221.5670 C   0  0  0  0  0  0  0  0  0  0  0  0
  140.9780   76.1910  221.4920 N   0  0  0  0  0  0  0  0  0  0  0  0
  140.7710   76.8190  220.2030 C   0  0  0  0  0  0  0  0  0  0  0  0
  141.8690   77.8870  220.1070 C   0  0  0  0  0  0  0  0  0  0  0  0
  141.5130   78.8730  221.1850 C   0  0  0  0  0  0  0  0  0  0  0  0
  141.5970   80.2160  220.9160 C   0  0  0  0  0  0  0  0  0  0  0  0
  141.2740   81.1390  221.8920 C   0  0  0  0  0  0  0  0  0  0  0  0
  140.8740   80.6790  223.1180 C   0  0  0  0  0  0  0  0  0  0  0  0
  140.7940   79.3240  223.3760 C   0  0  0  0  0  0  0  0  0  0  0  0
  141.1160   78.3830  222.4010 C   0  0  0  0  0  0  0  0  0  0  0  0
  141.0160   76.9380  222.7240 C   0  0  0  0  0  0  0  0  0  0  0  0
  142.1290   74.1380  220.9040 N   0  0  0  0  0  0  0  0  0  0  0  0
  144.4740   72.9630  219.8290 C   0  0  0  0  0  0  0  0  0  0  0  0
  145.9120   71.7696  214.7936 H   0  0  0  0  0  0  0  0  0  0  0  0
  146.9016   73.7304  215.9580 H   0  0  0  0  0  0  0  0  0  0  0  0
  146.2195   74.2571  218.2830 H   0  0  0  0  0  0  0  0  0  0  0  0
  144.2512   70.3662  215.9822 H   0  0  0  0  0  0  0  0  0  0  0  0
  142.2983   70.8730  218.0429 H   0  0  0  0  0  0  0  0  0  0  0  0
  143.5335   69.5760  218.1435 H   0  0  0  0  0  0  0  0  0  0  0  0
  142.4653   70.2760  220.3459 H   0  0  0  0  0  0  0  0  0  0  0  0
  144.2657   70.3155  220.2890 H   0  0  0  0  0  0  0  0  0  0  0  0
  141.4927   71.0287  221.8562 H   0  0  0  0  0  0  0  0  0  0  0  0
  138.4960   72.2790  223.4850 H   0  0  0  0  0  0  0  0  0  0  0  0
  140.8692   70.5108  223.2130 H   0  0  0  0  0  0  0  0  0  0  0  0
  138.0596   69.9555  223.3851 H   0  0  0  0  0  0  0  0  0  0  0  0
  139.4159   68.8226  223.0974 H   0  0  0  0  0  0  0  0  0  0  0  0
  137.7927   69.0526  225.4461 H   0  0  0  0  0  0  0  0  0  0  0  0
  139.1927   68.0043  225.2340 H   0  0  0  0  0  0  0  0  0  0  0  0
  139.2957   69.2157  228.0190 H   0  0  0  0  0  0  0  0  0  0  0  0
  140.6941   70.9205  229.0498 H   0  0  0  0  0  0  0  0  0  0  0  0
  141.8639   72.6599  227.7319 H   0  0  0  0  0  0  0  0  0  0  0  0
  141.5780   72.6468  225.2433 H   0  0  0  0  0  0  0  0  0  0  0  0
  140.8743   76.0829  219.3922 H   0  0  0  0  0  0  0  0  0  0  0  0
  139.7632   77.2495  220.1077 H   0  0  0  0  0  0  0  0  0  0  0  0
  142.8599   77.4466  220.2917 H   0  0  0  0  0  0  0  0  0  0  0  0
  141.9230   78.3502  219.1107 H   0  0  0  0  0  0  0  0  0  0  0  0
  141.9218   80.5580  219.9223 H   0  0  0  0  0  0  0  0  0  0  0  0
  141.3367   82.2183  221.6888 H   0  0  0  0  0  0  0  0  0  0  0  0
  140.6127   81.3981  223.9084 H   0  0  0  0  0  0  0  0  0  0  0  0
  140.4700   78.9820  224.3700 H   0  0  0  0  0  0  0  0  0  0  0  0
  141.8898   76.6299  223.3170 H   0  0  0  0  0  0  0  0  0  0  0  0
  140.1031   76.7464  223.3069 H   0  0  0  0  0  0  0  0  0  0  0  0
  144.2203   74.0324  219.8730 H   0  0  0  0  0  0  0  0  0  0  0  0
  145.3229   72.7454  220.4938 H   0  0  0  0  0  0  0  0  0  0  0  0
  1  2  2  0
  2  3  1  0
  3  4  2  0
  4  5  1  0
  5  6  2  0
  5  7  1  0
  7  8  1  0
  8  9  1  0
  9 10  1  0
 10 11  2  0
 11 12  1  0
 12 13  1  0
 13 14  1  0
 14 15  1  0
 15 16  1  0
 16 17  1  0
 17 18  2  0
 18 19  1  0
 19 20  2  0
 20 21  1  0
 21 22  2  0
 12 23  2  0
 23 24  1  0
 24 25  1  0
 25 26  1  0
 26 27  1  0
 27 28  1  0
 28 29  2  0
 29 30  1  0
 30 31  2  0
 31 32  1  0
 32 33  2  0
 33 34  1  0
 24 35  2  0
  9 36  1  0
  6  1  1  0
 35 10  1  0
 36  4  1  0
 22 14  1  0
 34 25  1  0
 22 17  1  0
 33 28  1  0
  1 37  1  0
  2 38  1  0
  3 39  1  0
  6 40  1  0
  7 41  1  0
  7 42  1  0
  8 43  1  0
  8 44  1  0
 11 45  1  0
 13 46  1  0
 14 47  1  6
 15 48  1  0
 15 49  1  0
 16 50  1  0
 16 51  1  0
 18 52  1  0
 19 53  1  0
 20 54  1  0
 21 55  1  0
 26 56  1  0
 26 57  1  0
 27 58  1  0
 27 59  1  0
 29 60  1  0
 30 61  1  0
 31 62  1  0
 32 63  1  0
 34 64  1  0
 34 65  1  0
 36 66  1  0
 36 67  1  0
M  END
>  <smiles>  (1) 
c1ccc2c(c1)CCN(c1cc(N[C@@H]3CCc4ccccc43)nc(N3CCc4ccccc4C3)n1)C2

>  <score_type>  (1) 
oracle

>  <origin>  (1) 
autodockgpu

>  <m_score__min__energy>  (1) 
-11.73

>  <m_primary>  (1) 
energy

>  <rmsd>  (1) 
10.315405537608667

>  <m_score__min__rmsd>  (1) 
10.315405537608667

>  <meeko>  (1) 
{"free_energy": -10.39, "intermolecular_energy": -11.59, "internal_energy": -1.2, "cluster_size": 49, "cluster_id": 1, "rank_in_cluster": 36}

>  <energy>  (1) 
-11.73

>  <cluster_rmsd>  (1) 
0.0

>  <cluster>  (1) 
1

$$$$

     RDKit          3D

 67 73  0  0  0  0  0  0  0  0999 V2000
  146.2710   68.4320  219.3170 C   0  0  0  0  0  0  0  0  0  0  0  0
  145.1030   67.7190  219.4450 C   0  0  0  0  0  0  0  0  0  0  0  0
  143.8910   68.3890  219.5060 C   0  0  0  0  0  0  0  0  0  0  0  0
  143.8380   69.7650  219.4410 C   0  0  0  0  0  0  0  0  0  0  0  0
  144.9900   70.4870  219.3140 C   0  0  0  0  0  0  0  0  0  0  0  0
  146.2080   69.8110  219.2520 C   0  0  0  0  0  0  0  0  0  0  0  0
  145.0510   71.9690  219.2340 C   0  0  0  0  0  0  0  0  0  0  0  0
  143.6990   72.4980  218.8550 C   0  0  0  0  0  0  0  0  0  0  0  0
  142.6700   71.8780  219.6720 N   0  0  0  0  0  0  0  0  0  0  0  0
  141.8560   72.5760  220.5840 C   0  0  0  0  0  0  0  0  0  0  0  0
  141.0770   71.9590  221.5390 C   0  0  0  0  0  0  0  0  0  0  0  0
  140.2790   72.6540  222.4290 C   0  0  0  0  0  0  0  0  0  0  0  0
  139.4910   71.9570  223.3990 N   0  0  0  0  0  0  0  0  0  0  0  0
  140.0560   70.7420  223.9400 C   0  0  2  0  0  0  0  0  0  0  0  0
  139.1550   69.5620  223.8690 C   0  0  0  0  0  0  0  0  0  0  0  0
  138.9970   68.9910  225.2530 C   0  0  0  0  0  0  0  0  0  0  0  0
  139.7280   69.9300  226.1300 C   0  0  0  0  0  0  0  0  0  0  0  0
  139.8790   69.9430  227.4990 C   0  0  0  0  0  0  0  0  0  0  0  0
  140.6130   70.9320  228.0730 C   0  0  0  0  0  0  0  0  0  0  0  0
  141.2300   71.9450  227.3620 C   0  0  0  0  0  0  0  0  0  0  0  0
  141.0780   71.9310  225.9900 C   0  0  0  0  0  0  0  0  0  0  0  0
  140.3260   70.9210  225.3800 C   0  0  0  0  0  0  0  0  0  0  0  0
  140.2890   73.9950  222.3270 N   0  0  0  0  0  0  0  0  0  0  0  0
  141.0490   74.6350  221.3930 C   0  0  0  0  0  0  0  0  0  0  0  0
  140.9960   76.0550  221.3600 N   0  0  0  0  0  0  0  0  0  0  0  0
  141.0090   76.7430  220.0850 C   0  0  0  0  0  0  0  0  0  0  0  0
  142.1890   77.7190  220.1770 C   0  0  0  0  0  0  0  0  0  0  0  0
  141.7730   78.6940  221.2440 C   0  0  0  0  0  0  0  0  0  0  0  0
  141.9940   80.0330  221.0490 C   0  0  0  0  0  0  0  0  0  0  0  0
  141.6190   80.9460  222.0160 C   0  0  0  0  0  0  0  0  0  0  0  0
  141.0280   80.4790  223.1590 C   0  0  0  0  0  0  0  0  0  0  0  0
  140.8100   79.1260  223.3430 C   0  0  0  0  0  0  0  0  0  0  0  0
  141.1830   78.1960  222.3770 C   0  0  0  0  0  0  0  0  0  0  0  0
  140.9300   76.7540  222.6190 C   0  0  0  0  0  0  0  0  0  0  0  0
  141.8110   73.9210  220.5460 N   0  0  0  0  0  0  0  0  0  0  0  0
  142.5080   70.4410  219.5130 C   0  0  0  0  0  0  0  0  0  0  0  0
  147.2399   67.9136  219.2671 H   0  0  0  0  0  0  0  0  0  0  0  0
  145.1299   66.6206  219.4989 H   0  0  0  0  0  0  0  0  0  0  0  0
  142.9584   67.8146  219.6077 H   0  0  0  0  0  0  0  0  0  0  0  0
  147.1389   70.3879  219.1491 H   0  0  0  0  0  0  0  0  0  0  0  0
  145.3457   72.3785  220.2115 H   0  0  0  0  0  0  0  0  0  0  0  0
  145.7908   72.2684  218.4770 H   0  0  0  0  0  0  0  0  0  0  0  0
  143.6786   73.5869  219.0096 H   0  0  0  0  0  0  0  0  0  0  0  0
  143.5062   72.2649  217.7974 H   0  0  0  0  0  0  0  0  0  0  0  0
  141.0908   70.8606  221.5959 H   0  0  0  0  0  0  0  0  0  0  0  0
  138.5530   72.2890  223.7150 H   0  0  0  0  0  0  0  0  0  0  0  0
  140.9527   70.5568  223.3305 H   0  0  0  0  0  0  0  0  0  0  0  0
  138.1726   69.8693  223.4810 H   0  0  0  0  0  0  0  0  0  0  0  0
  139.5833   68.8034  223.1974 H   0  0  0  0  0  0  0  0  0  0  0  0
  137.9347   68.9438  225.5346 H   0  0  0  0  0  0  0  0  0  0  0  0
  139.3841   67.9640  225.3271 H   0  0  0  0  0  0  0  0  0  0  0  0
  139.4119   69.1636  228.1190 H   0  0  0  0  0  0  0  0  0  0  0  0
  140.7229   70.9265  229.1675 H   0  0  0  0  0  0  0  0  0  0  0  0
  141.8158   72.7271  227.8672 H   0  0  0  0  0  0  0  0  0  0  0  0
  141.5480   72.7137  225.3764 H   0  0  0  0  0  0  0  0  0  0  0  0
  141.1598   76.0295  219.2615 H   0  0  0  0  0  0  0  0  0  0  0  0
  140.0589   77.2589  219.8824 H   0  0  0  0  0  0  0  0  0  0  0  0
  143.1103   77.1923  220.4664 H   0  0  0  0  0  0  0  0  0  0  0  0
  142.4080   78.2099  219.2173 H   0  0  0  0  0  0  0  0  0  0  0  0
  142.4708   80.3812  220.1209 H   0  0  0  0  0  0  0  0  0  0  0  0
  141.7913   82.0227  221.8708 H   0  0  0  0  0  0  0  0  0  0  0  0
  140.7225   81.1894  223.9413 H   0  0  0  0  0  0  0  0  0  0  0  0
  140.3325   78.7779  224.2708 H   0  0  0  0  0  0  0  0  0  0  0  0
  141.6920   76.3545  223.3044 H   0  0  0  0  0  0  0  0  0  0  0  0
  139.9363   76.6187  223.0709 H   0  0  0  0  0  0  0  0  0  0  0  0
  141.9469   70.0436  220.3716 H   0  0  0  0  0  0  0  0  0  0  0  0
  141.9618   70.2478  218.5780 H   0  0  0  0  0  0  0  0  0  0  0  0
  1  2  2  0
  2  3  1  0
  3  4  2  0
  4  5  1  0
  5  6  2  0
  5  7  1  0
  7  8  1  0
  8  9  1  0
  9 10  1  0
 10 11  2  0
 11 12  1  0
 12 13  1  0
 13 14  1  0
 14 15  1  0
 15 16  1  0
 16 17  1  0
 17 18  2  0
 18 19  1  0
 19 20  2  0
 20 21  1  0
 21 22  2  0
 12 23  2  0
 23 24  1  0
 24 25  1  0
 25 26  1  0
 26 27  1  0
 27 28  1  0
 28 29  2  0
 29 30  1  0
 30 31  2  0
 31 32  1  0
 32 33  2  0
 33 34  1  0
 24 35  2  0
  9 36  1  0
  6  1  1  0
 35 10  1  0
 36  4  1  0
 22 14  1  0
 34 25  1  0
 22 17  1  0
 33 28  1  0
  1 37  1  0
  2 38  1  0
  3 39  1  0
  6 40  1  0
  7 41  1  0
  7 42  1  0
  8 43  1  0
  8 44  1  0
 11 45  1  0
 13 46  1  0
 14 47  1  6
 15 48  1  0
 15 49  1  0
 16 50  1  0
 16 51  1  0
 18 52  1  0
 19 53  1  0
 20 54  1  0
 21 55  1  0
 26 56  1  0
 26 57  1  0
 27 58  1  0
 27 59  1  0
 29 60  1  0
 30 61  1  0
 31 62  1  0
 32 63  1  0
 34 64  1  0
 34 65  1  0
 36 66  1  0
 36 67  1  0
M  END
>  <smiles>  (2) 
c1ccc2c(c1)CCN(c1cc(N[C@@H]3CCc4ccccc43)nc(N3CCc4ccccc4C3)n1)C2

>  <score_type>  (2) 
oracle

>  <origin>  (2) 
autodockgpu

>  <m_score__min__energy>  (2) 
-11.73

>  <m_primary>  (2) 
energy

>  <rmsd>  (2) 
10.349440751269913

>  <m_score__min__rmsd>  (2) 
10.349440751269913

>  <meeko>  (2) 
{"free_energy": -11.63, "intermolecular_energy": -12.83, "internal_energy": -1.2, "cluster_size": 49, "cluster_id": 1, "rank_in_cluster": 30}

>  <energy>  (2) 
-11.73

>  <cluster_rmsd>  (2) 
0.02

>  <cluster>  (2) 
1

$$$$

     RDKit          3D

 67 73  0  0  0  0  0  0  0  0999 V2000
  140.3940   67.8620  226.0410 C   0  0  0  0  0  0  0  0  0  0  0  0
  141.2440   68.8170  226.5480 C   0  0  0  0  0  0  0  0  0  0  0  0
  141.2150   70.1050  226.0380 C   0  0  0  0  0  0  0  0  0  0  0  0
  140.3420   70.4470  225.0270 C   0  0  0  0  0  0  0  0  0  0  0  0
  139.4910   69.5100  224.5140 C   0  0  0  0  0  0  0  0  0  0  0  0
  139.5230   68.2150  225.0280 C   0  0  0  0  0  0  0  0  0  0  0  0
  138.5130   69.7680  223.4260 C   0  0  0  0  0  0  0  0  0  0  0  0
  138.2790   71.2460  223.3120 C   0  0  0  0  0  0  0  0  0  0  0  0
  139.5480   71.9540  223.3010 N   0  0  0  0  0  0  0  0  0  0  0  0
  140.0240   72.7070  222.2100 C   0  0  0  0  0  0  0  0  0  0  0  0
  140.3820   72.1530  221.0000 C   0  0  0  0  0  0  0  0  0  0  0  0
  140.8500   72.9000  219.9350 C   0  0  0  0  0  0  0  0  0  0  0  0
  141.2050   72.2680  218.7020 N   0  0  0  0  0  0  0  0  0  0  0  0
  142.5770   71.8360  218.5670 C   0  0  2  0  0  0  0  0  0  0  0  0
  142.8580   70.4960  219.1460 C   0  0  0  0  0  0  0  0  0  0  0  0
  143.9830   70.6260  220.1390 C   0  0  0  0  0  0  0  0  0  0  0  0
  144.2620   72.0760  220.2010 C   0  0  0  0  0  0  0  0  0  0  0  0
  145.1510   72.7850  220.9780 C   0  0  0  0  0  0  0  0  0  0  0  0
  145.2160   74.1350  220.8430 C   0  0  0  0  0  0  0  0  0  0  0  0
  144.4340   74.8590  219.9620 C   0  0  0  0  0  0  0  0  0  0  0  0
  143.5420   74.1480  219.1840 C   0  0  0  0  0  0  0  0  0  0  0  0
  143.4610   72.7570  219.3070 C   0  0  0  0  0  0  0  0  0  0  0  0
  140.9470   74.2280  220.1270 N   0  0  0  0  0  0  0  0  0  0  0  0
  140.6010   74.8050  221.3120 C   0  0  0  0  0  0  0  0  0  0  0  0
  140.7380   76.2160  221.4230 N   0  0  0  0  0  0  0  0  0  0  0  0
  140.5670   77.0470  220.2480 C   0  0  0  0  0  0  0  0  0  0  0  0
  141.8630   77.8640  220.1540 C   0  0  0  0  0  0  0  0  0  0  0  0
  141.8270   78.7440  221.3730 C   0  0  0  0  0  0  0  0  0  0  0  0
  142.1830   80.0630  221.2560 C   0  0  0  0  0  0  0  0  0  0  0  0
  142.1580   80.8890  222.3630 C   0  0  0  0  0  0  0  0  0  0  0  0
  141.7720   80.3570  223.5640 C   0  0  0  0  0  0  0  0  0  0  0  0
  141.4150   79.0260  223.6690 C   0  0  0  0  0  0  0  0  0  0  0  0
  141.4370   78.1830  222.5610 C   0  0  0  0  0  0  0  0  0  0  0  0
  141.0460   76.7610  222.7210 C   0  0  0  0  0  0  0  0  0  0  0  0
  140.1510   74.0420  222.3230 N   0  0  0  0  0  0  0  0  0  0  0  0
  140.3490   71.8490  224.5100 C   0  0  0  0  0  0  0  0  0  0  0  0
  140.4073   66.8351  226.4350 H   0  0  0  0  0  0  0  0  0  0  0  0
  141.9446   68.5591  227.3558 H   0  0  0  0  0  0  0  0  0  0  0  0
  141.8978   70.8652  226.4453 H   0  0  0  0  0  0  0  0  0  0  0  0
  138.8395   67.4568  224.6181 H   0  0  0  0  0  0  0  0  0  0  0  0
  138.9111   69.3842  222.4751 H   0  0  0  0  0  0  0  0  0  0  0  0
  137.5642   69.2605  223.6544 H   0  0  0  0  0  0  0  0  0  0  0  0
  137.7365   71.4574  222.3787 H   0  0  0  0  0  0  0  0  0  0  0  0
  137.6862   71.5839  224.1748 H   0  0  0  0  0  0  0  0  0  0  0  0
  140.2910   71.0639  220.8756 H   0  0  0  0  0  0  0  0  0  0  0  0
  140.5250   72.1160  217.9240 H   0  0  0  0  0  0  0  0  0  0  0  0
  142.7551   71.8120  217.4818 H   0  0  0  0  0  0  0  0  0  0  0  0
  141.9589   70.1157  219.6528 H   0  0  0  0  0  0  0  0  0  0  0  0
  143.1416   69.7944  218.3476 H   0  0  0  0  0  0  0  0  0  0  0  0
  143.6759   70.2474  221.1251 H   0  0  0  0  0  0  0  0  0  0  0  0
  144.8684   70.0438  219.8439 H   0  0  0  0  0  0  0  0  0  0  0  0
  145.7997   72.2650  221.6982 H   0  0  0  0  0  0  0  0  0  0  0  0
  145.9326   74.6844  221.4712 H   0  0  0  0  0  0  0  0  0  0  0  0
  144.5188   75.9530  219.8844 H   0  0  0  0  0  0  0  0  0  0  0  0
  142.8951   74.6754  218.4675 H   0  0  0  0  0  0  0  0  0  0  0  0
  140.4345   76.4258  219.3499 H   0  0  0  0  0  0  0  0  0  0  0  0
  139.6760   77.6882  220.3188 H   0  0  0  0  0  0  0  0  0  0  0  0
  142.7433   77.2046  220.1735 H   0  0  0  0  0  0  0  0  0  0  0  0
  141.9346   78.4386  219.2188 H   0  0  0  0  0  0  0  0  0  0  0  0
  142.4891   80.4642  220.2786 H   0  0  0  0  0  0  0  0  0  0  0  0
  142.4414   81.9487  222.2815 H   0  0  0  0  0  0  0  0  0  0  0  0
  141.7457   80.9978  224.4577 H   0  0  0  0  0  0  0  0  0  0  0  0
  141.1077   78.6251  224.6462 H   0  0  0  0  0  0  0  0  0  0  0  0
  141.8765   76.1975  223.1711 H   0  0  0  0  0  0  0  0  0  0  0  0
  140.1658   76.6865  223.3765 H   0  0  0  0  0  0  0  0  0  0  0  0
  141.3840   72.1458  224.2846 H   0  0  0  0  0  0  0  0  0  0  0  0
  139.9210   72.5113  225.2769 H   0  0  0  0  0  0  0  0  0  0  0  0
  1  2  2  0
  2  3  1  0
  3  4  2  0
  4  5  1  0
  5  6  2  0
  5  7  1  0
  7  8  1  0
  8  9  1  0
  9 10  1  0
 10 11  2  0
 11 12  1  0
 12 13  1  0
 13 14  1  0
 14 15  1  0
 15 16  1  0
 16 17  1  0
 17 18  2  0
 18 19  1  0
 19 20  2  0
 20 21  1  0
 21 22  2  0
 12 23  2  0
 23 24  1  0
 24 25  1  0
 25 26  1  0
 26 27  1  0
 27 28  1  0
 28 29  2  0
 29 30  1  0
 30 31  2  0
 31 32  1  0
 32 33  2  0
 33 34  1  0
 24 35  2  0
  9 36  1  0
  6  1  1  0
 35 10  1  0
 36  4  1  0
 22 14  1  0
 34 25  1  0
 22 17  1  0
 33 28  1  0
  1 37  1  0
  2 38  1  0
  3 39  1  0
  6 40  1  0
  7 41  1  0
  7 42  1  0
  8 43  1  0
  8 44  1  0
 11 45  1  0
 13 46  1  0
 14 47  1  6
 15 48  1  0
 15 49  1  0
 16 50  1  0
 16 51  1  0
 18 52  1  0
 19 53  1  0
 20 54  1  0
 21 55  1  0
 26 56  1  0
 26 57  1  0
 27 58  1  0
 27 59  1  0
 29 60  1  0
 30 61  1  0
 31 62  1  0
 32 63  1  0
 34 64  1  0
 34 65  1  0
 36 66  1  0
 36 67  1  0
M  END
>  <smiles>  (3) 
c1ccc2c(c1)CCN(c1cc(N[C@@H]3CCc4ccccc43)nc(N3CCc4ccccc4C3)n1)C2

>  <score_type>  (3) 
oracle

>  <origin>  (3) 
autodockgpu

>  <m_score__min__energy>  (3) 
-11.73

>  <m_primary>  (3) 
energy

>  <rmsd>  (3) 
8.820031192925457

>  <m_score__min__rmsd>  (3) 
8.820031192925457

>  <meeko>  (3) 
{"free_energy": -10.27, "intermolecular_energy": -11.46, "internal_energy": -1.77, "cluster_size": 49, "cluster_id": 1, "rank_in_cluster": 40}

>  <energy>  (3) 
-11.73

>  <cluster_rmsd>  (3) 
0.04

>  <cluster>  (3) 
1

$$$$

     RDKit          3D

 67 73  0  0  0  0  0  0  0  0999 V2000
  146.3290   68.5100  219.3400 C   0  0  0  0  0  0  0  0  0  0  0  0
  145.1490   67.8060  219.4010 C   0  0  0  0  0  0  0  0  0  0  0  0
  143.9430   68.4880  219.4460 C   0  0  0  0  0  0  0  0  0  0  0  0
  143.9070   69.8660  219.4300 C   0  0  0  0  0  0  0  0  0  0  0  0
  145.0710   70.5790  219.3690 C   0  0  0  0  0  0  0  0  0  0  0  0
  146.2830   69.8910  219.3240 C   0  0  0  0  0  0  0  0  0  0  0  0
  145.1490   72.0620  219.3470 C   0  0  0  0  0  0  0  0  0  0  0  0
  143.8170   72.6200  218.9410 C   0  0  0  0  0  0  0  0  0  0  0  0
  142.7540   71.9830  219.6990 N   0  0  0  0  0  0  0  0  0  0  0  0
  141.9150   72.6570  220.6070 C   0  0  0  0  0  0  0  0  0  0  0  0
  141.1140   72.0150  221.5260 C   0  0  0  0  0  0  0  0  0  0  0  0
  140.2930   72.6860  222.4130 C   0  0  0  0  0  0  0  0  0  0  0  0
  139.4830   71.9630  223.3450 N   0  0  0  0  0  0  0  0  0  0  0  0
  140.0370   70.7380  223.8710 C   0  0  2  0  0  0  0  0  0  0  0  0
  139.1250   69.5660  223.7880 C   0  0  0  0  0  0  0  0  0  0  0  0
  138.9630   68.9810  225.1660 C   0  0  0  0  0  0  0  0  0  0  0  0
  139.7040   69.9030  226.0530 C   0  0  0  0  0  0  0  0  0  0  0  0
  139.8570   69.8990  227.4210 C   0  0  0  0  0  0  0  0  0  0  0  0
  140.6000   70.8740  228.0060 C   0  0  0  0  0  0  0  0  0  0  0  0
  141.2260   71.8890  227.3060 C   0  0  0  0  0  0  0  0  0  0  0  0
  141.0720   71.8930  225.9330 C   0  0  0  0  0  0  0  0  0  0  0  0
  140.3110   70.8970  225.3130 C   0  0  0  0  0  0  0  0  0  0  0  0
  140.3030   74.0290  222.3460 N   0  0  0  0  0  0  0  0  0  0  0  0
  141.0850   74.6930  221.4480 C   0  0  0  0  0  0  0  0  0  0  0  0
  141.0300   76.1140  221.4500 N   0  0  0  0  0  0  0  0  0  0  0  0
  140.9470   76.8280  220.1920 C   0  0  0  0  0  0  0  0  0  0  0  0
  142.1310   77.8040  220.2160 C   0  0  0  0  0  0  0  0  0  0  0  0
  141.7970   78.7550  221.3320 C   0  0  0  0  0  0  0  0  0  0  0  0
  142.0040   80.0980  221.1490 C   0  0  0  0  0  0  0  0  0  0  0  0
  141.7040   80.9900  222.1620 C   0  0  0  0  0  0  0  0  0  0  0  0
  141.2000   80.4980  223.3360 C   0  0  0  0  0  0  0  0  0  0  0  0
  140.9960   79.1410  223.5070 C   0  0  0  0  0  0  0  0  0  0  0  0
  141.2950   78.2330  222.4950 C   0  0  0  0  0  0  0  0  0  0  0  0
  141.0600   76.7850  222.7240 C   0  0  0  0  0  0  0  0  0  0  0  0
  141.8690   74.0020  220.6030 N   0  0  0  0  0  0  0  0  0  0  0  0
  142.5820   70.5550  219.4810 C   0  0  0  0  0  0  0  0  0  0  0  0
  147.2935   67.9824  219.3045 H   0  0  0  0  0  0  0  0  0  0  0  0
  145.1622   66.7062  219.4140 H   0  0  0  0  0  0  0  0  0  0  0  0
  143.0013   67.9216  219.4952 H   0  0  0  0  0  0  0  0  0  0  0  0
  147.2231   70.4600  219.2747 H   0  0  0  0  0  0  0  0  0  0  0  0
  145.4127   72.4315  220.3490 H   0  0  0  0  0  0  0  0  0  0  0  0
  145.9180   72.3810  218.6281 H   0  0  0  0  0  0  0  0  0  0  0  0
  143.8025   73.7028  219.1343 H   0  0  0  0  0  0  0  0  0  0  0  0
  143.6588   72.4276  217.8696 H   0  0  0  0  0  0  0  0  0  0  0  0
  141.1285   70.9155  221.5553 H   0  0  0  0  0  0  0  0  0  0  0  0
  138.5350   72.2860  223.6440 H   0  0  0  0  0  0  0  0  0  0  0  0
  140.9311   70.5526  223.2577 H   0  0  0  0  0  0  0  0  0  0  0  0
  138.1450   69.8861  223.4043 H   0  0  0  0  0  0  0  0  0  0  0  0
  139.5462   68.8111  223.1078 H   0  0  0  0  0  0  0  0  0  0  0  0
  137.9006   68.9409  225.4482 H   0  0  0  0  0  0  0  0  0  0  0  0
  139.3405   67.9497  225.2280 H   0  0  0  0  0  0  0  0  0  0  0  0
  139.3838   69.1165  228.0324 H   0  0  0  0  0  0  0  0  0  0  0  0
  140.7102   70.8551  229.1003 H   0  0  0  0  0  0  0  0  0  0  0  0
  141.8203   72.6591  227.8196 H   0  0  0  0  0  0  0  0  0  0  0  0
  141.5476   72.6790  225.3280 H   0  0  0  0  0  0  0  0  0  0  0  0
  141.0358   76.1320  219.3449 H   0  0  0  0  0  0  0  0  0  0  0  0
  139.9842   77.3462  220.0716 H   0  0  0  0  0  0  0  0  0  0  0  0
  143.0715   77.2726  220.4236 H   0  0  0  0  0  0  0  0  0  0  0  0
  142.2768   78.3159  219.2534 H   0  0  0  0  0  0  0  0  0  0  0  0
  142.4093   80.4663  220.1950 H   0  0  0  0  0  0  0  0  0  0  0  0
  141.8665   82.0696  222.0278 H   0  0  0  0  0  0  0  0  0  0  0  0
  140.9541   81.1912  224.1539 H   0  0  0  0  0  0  0  0  0  0  0  0
  140.5899   78.7722  224.4604 H   0  0  0  0  0  0  0  0  0  0  0  0
  141.8714   76.3715  223.3409 H   0  0  0  0  0  0  0  0  0  0  0  0
  140.1031   76.6391  223.2466 H   0  0  0  0  0  0  0  0  0  0  0  0
  141.9868   70.1330  220.3042 H   0  0  0  0  0  0  0  0  0  0  0  0
  142.0667   70.4029  218.5211 H   0  0  0  0  0  0  0  0  0  0  0  0
  1  2  2  0
  2  3  1  0
  3  4  2  0
  4  5  1  0
  5  6  2  0
  5  7  1  0
  7  8  1  0
  8  9  1  0
  9 10  1  0
 10 11  2  0
 11 12  1  0
 12 13  1  0
 13 14  1  0
 14 15  1  0
 15 16  1  0
 16 17  1  0
 17 18  2  0
 18 19  1  0
 19 20  2  0
 20 21  1  0
 21 22  2  0
 12 23  2  0
 23 24  1  0
 24 25  1  0
 25 26  1  0
 26 27  1  0
 27 28  1  0
 28 29  2  0
 29 30  1  0
 30 31  2  0
 31 32  1  0
 32 33  2  0
 33 34  1  0
 24 35  2  0
  9 36  1  0
  6  1  1  0
 35 10  1  0
 36  4  1  0
 22 14  1  0
 34 25  1  0
 22 17  1  0
 33 28  1  0
  1 37  1  0
  2 38  1  0
  3 39  1  0
  6 40  1  0
  7 41  1  0
  7 42  1  0
  8 43  1  0
  8 44  1  0
 11 45  1  0
 13 46  1  0
 14 47  1  6
 15 48  1  0
 15 49  1  0
 16 50  1  0
 16 51  1  0
 18 52  1  0
 19 53  1  0
 20 54  1  0
 21 55  1  0
 26 56  1  0
 26 57  1  0
 27 58  1  0
 27 59  1  0
 29 60  1  0
 30 61  1  0
 31 62  1  0
 32 63  1  0
 34 64  1  0
 34 65  1  0
 36 66  1  0
 36 67  1  0
M  END
>  <smiles>  (4) 
c1ccc2c(c1)CCN(c1cc(N[C@@H]3CCc4ccccc43)nc(N3CCc4ccccc4C3)n1)C2

>  <score_type>  (4) 
oracle

>  <origin>  (4) 
autodockgpu

>  <m_score__min__energy>  (4) 
-11.73

>  <m_primary>  (4) 
energy

>  <rmsd>  (4) 
10.346947538039489

>  <m_score__min__rmsd>  (4) 
10.346947538039489

>  <meeko>  (4) 
{"free_energy": -11.73, "intermolecular_energy": -12.92, "internal_energy": -1.21, "cluster_size": 49, "cluster_id": 1, "rank_in_cluster": 2}

>  <energy>  (4) 
-11.72

>  <cluster_rmsd>  (4) 
0.03

>  <cluster>  (4) 
1

$$$$

     RDKit          3D

 67 73  0  0  0  0  0  0  0  0999 V2000
  146.2980   68.5390  219.3770 C   0  0  0  0  0  0  0  0  0  0  0  0
  145.1380   67.8090  219.4860 C   0  0  0  0  0  0  0  0  0  0  0  0
  143.9160   68.4610  219.5360 C   0  0  0  0  0  0  0  0  0  0  0  0
  143.8450   69.8370  219.4770 C   0  0  0  0  0  0  0  0  0  0  0  0
  144.9880   70.5760  219.3680 C   0  0  0  0  0  0  0  0  0  0  0  0
  146.2160   69.9170  219.3180 C   0  0  0  0  0  0  0  0  0  0  0  0
  145.0280   72.0590  219.2980 C   0  0  0  0  0  0  0  0  0  0  0  0
  143.6740   72.5710  218.9040 C   0  0  0  0  0  0  0  0  0  0  0  0
  142.6440   71.9320  219.7050 N   0  0  0  0  0  0  0  0  0  0  0  0
  141.8080   72.6140  220.6100 C   0  0  0  0  0  0  0  0  0  0  0  0
  141.0030   71.9790  221.5310 C   0  0  0  0  0  0  0  0  0  0  0  0
  140.1850   72.6580  222.4150 C   0  0  0  0  0  0  0  0  0  0  0  0
  139.3710   71.9430  223.3500 N   0  0  0  0  0  0  0  0  0  0  0  0
  139.9200   70.7180  223.8830 C   0  0  2  0  0  0  0  0  0  0  0  0
  138.9790   69.5660  223.8670 C   0  0  0  0  0  0  0  0  0  0  0  0
  138.8640   69.0190  225.2650 C   0  0  0  0  0  0  0  0  0  0  0  0
  139.6630   69.9440  226.0970 C   0  0  0  0  0  0  0  0  0  0  0  0
  139.8740   69.9700  227.4570 C   0  0  0  0  0  0  0  0  0  0  0  0
  140.6640   70.9410  227.9850 C   0  0  0  0  0  0  0  0  0  0  0  0
  141.2810   71.9250  227.2330 C   0  0  0  0  0  0  0  0  0  0  0  0
  141.0680   71.8980  225.8690 C   0  0  0  0  0  0  0  0  0  0  0  0
  140.2590   70.9060  225.3070 C   0  0  0  0  0  0  0  0  0  0  0  0
  140.2020   74.0010  222.3420 N   0  0  0  0  0  0  0  0  0  0  0  0
  140.9870   74.6570  221.4420 C   0  0  0  0  0  0  0  0  0  0  0  0
  140.9390   76.0780  221.4380 N   0  0  0  0  0  0  0  0  0  0  0  0
  140.7830   76.7850  220.1830 C   0  0  0  0  0  0  0  0  0  0  0  0
  141.9710   77.7550  220.1280 C   0  0  0  0  0  0  0  0  0  0  0  0
  141.7100   78.7150  221.2570 C   0  0  0  0  0  0  0  0  0  0  0  0
  141.9110   80.0560  221.0530 C   0  0  0  0  0  0  0  0  0  0  0  0
  141.6770   80.9550  222.0760 C   0  0  0  0  0  0  0  0  0  0  0  0
  141.2440   80.4730  223.2820 C   0  0  0  0  0  0  0  0  0  0  0  0
  141.0450   79.1190  223.4730 C   0  0  0  0  0  0  0  0  0  0  0  0
  141.2770   78.2020  222.4510 C   0  0  0  0  0  0  0  0  0  0  0  0
  141.0500   76.7580  222.7040 C   0  0  0  0  0  0  0  0  0  0  0  0
  141.7690   73.9580  220.6000 N   0  0  0  0  0  0  0  0  0  0  0  0
  142.5040   70.4940  219.5360 C   0  0  0  0  0  0  0  0  0  0  0  0
  147.2747   68.0346  219.3374 H   0  0  0  0  0  0  0  0  0  0  0  0
  145.1797   66.7108  219.5334 H   0  0  0  0  0  0  0  0  0  0  0  0
  142.9904   67.8731  219.6239 H   0  0  0  0  0  0  0  0  0  0  0  0
  147.1399   70.5074  219.2296 H   0  0  0  0  0  0  0  0  0  0  0  0
  145.3034   72.4665  220.2819 H   0  0  0  0  0  0  0  0  0  0  0  0
  145.7733   72.3738  218.5528 H   0  0  0  0  0  0  0  0  0  0  0  0
  143.6361   73.6587  219.0637 H   0  0  0  0  0  0  0  0  0  0  0  0
  143.4979   72.3412  217.8428 H   0  0  0  0  0  0  0  0  0  0  0  0
  141.0117   70.8795  221.5644 H   0  0  0  0  0  0  0  0  0  0  0  0
  138.4240   72.2700  223.6460 H   0  0  0  0  0  0  0  0  0  0  0  0
  140.7831   70.4963  223.2380 H   0  0  0  0  0  0  0  0  0  0  0  0
  137.9909   69.8997  223.5174 H   0  0  0  0  0  0  0  0  0  0  0  0
  139.3528   68.7854  223.1881 H   0  0  0  0  0  0  0  0  0  0  0  0
  137.8141   69.0107  225.5931 H   0  0  0  0  0  0  0  0  0  0  0  0
  139.2212   67.9810  225.3364 H   0  0  0  0  0  0  0  0  0  0  0  0
  139.4091   69.2146  228.1076 H   0  0  0  0  0  0  0  0  0  0  0  0
  140.8223   70.9451  229.0735 H   0  0  0  0  0  0  0  0  0  0  0  0
  141.9129   72.6943  227.7008 H   0  0  0  0  0  0  0  0  0  0  0  0
  141.5350   72.6572  225.2244 H   0  0  0  0  0  0  0  0  0  0  0  0
  140.8163   76.0834  219.3365 H   0  0  0  0  0  0  0  0  0  0  0  0
  139.8173   77.3078  220.1186 H   0  0  0  0  0  0  0  0  0  0  0  0
  142.9199   77.2201  220.2811 H   0  0  0  0  0  0  0  0  0  0  0  0
  142.0603   78.2602  219.1549 H   0  0  0  0  0  0  0  0  0  0  0  0
  142.2589   80.4166  220.0737 H   0  0  0  0  0  0  0  0  0  0  0  0
  141.8350   82.0330  221.9248 H   0  0  0  0  0  0  0  0  0  0  0  0
  141.0521   81.1722  224.1092 H   0  0  0  0  0  0  0  0  0  0  0  0
  140.6963   78.7583  224.4519 H   0  0  0  0  0  0  0  0  0  0  0  0
  141.8958   76.3447  223.2731 H   0  0  0  0  0  0  0  0  0  0  0  0
  140.1263   76.6204  223.2852 H   0  0  0  0  0  0  0  0  0  0  0  0
  141.9378   70.0839  220.3852 H   0  0  0  0  0  0  0  0  0  0  0  0
  141.9721   70.2984  218.5932 H   0  0  0  0  0  0  0  0  0  0  0  0
  1  2  2  0
  2  3  1  0
  3  4  2  0
  4  5  1  0
  5  6  2  0
  5  7  1  0
  7  8  1  0
  8  9  1  0
  9 10  1  0
 10 11  2  0
 11 12  1  0
 12 13  1  0
 13 14  1  0
 14 15  1  0
 15 16  1  0
 16 17  1  0
 17 18  2  0
 18 19  1  0
 19 20  2  0
 20 21  1  0
 21 22  2  0
 12 23  2  0
 23 24  1  0
 24 25  1  0
 25 26  1  0
 26 27  1  0
 27 28  1  0
 28 29  2  0
 29 30  1  0
 30 31  2  0
 31 32  1  0
 32 33  2  0
 33 34  1  0
 24 35  2  0
  9 36  1  0
  6  1  1  0
 35 10  1  0
 36  4  1  0
 22 14  1  0
 34 25  1  0
 22 17  1  0
 33 28  1  0
  1 37  1  0
  2 38  1  0
  3 39  1  0
  6 40  1  0
  7 41  1  0
  7 42  1  0
  8 43  1  0
  8 44  1  0
 11 45  1  0
 13 46  1  0
 14 47  1  6
 15 48  1  0
 15 49  1  0
 16 50  1  0
 16 51  1  0
 18 52  1  0
 19 53  1  0
 20 54  1  0
 21 55  1  0
 26 56  1  0
 26 57  1  0
 27 58  1  0
 27 59  1  0
 29 60  1  0
 30 61  1  0
 31 62  1  0
 32 63  1  0
 34 64  1  0
 34 65  1  0
 36 66  1  0
 36 67  1  0
M  END
>  <smiles>  (5) 
c1ccc2c(c1)CCN(c1cc(N[C@@H]3CCc4ccccc43)nc(N3CCc4ccccc4C3)n1)C2

>  <score_type>  (5) 
oracle

>  <origin>  (5) 
autodockgpu

>  <m_score__min__energy>  (5) 
-11.73

>  <m_primary>  (5) 
energy

>  <rmsd>  (5) 
10.340744610795975

>  <m_score__min__rmsd>  (5) 
10.340744610795975

>  <meeko>  (5) 
{"free_energy": -11.69, "intermolecular_energy": -12.88, "internal_energy": -1.22, "cluster_size": 49, "cluster_id": 1, "rank_in_cluster": 26}

>  <energy>  (5) 
-11.72

>  <cluster_rmsd>  (5) 
0.05

>  <cluster>  (5) 
1

$$$$

     RDKit          3D

 67 73  0  0  0  0  0  0  0  0999 V2000
  146.3050   68.5900  219.3270 C   0  0  0  0  0  0  0  0  0  0  0  0
  145.1340   67.8720  219.3840 C   0  0  0  0  0  0  0  0  0  0  0  0
  143.9190   68.5380  219.4270 C   0  0  0  0  0  0  0  0  0  0  0  0
  143.8660   69.9160  219.4120 C   0  0  0  0  0  0  0  0  0  0  0  0
  145.0210   70.6430  219.3540 C   0  0  0  0  0  0  0  0  0  0  0  0
  146.2420   69.9700  219.3120 C   0  0  0  0  0  0  0  0  0  0  0  0
  145.0810   72.1270  219.3330 C   0  0  0  0  0  0  0  0  0  0  0  0
  143.7430   72.6690  218.9240 C   0  0  0  0  0  0  0  0  0  0  0  0
  142.6860   72.0180  219.6800 N   0  0  0  0  0  0  0  0  0  0  0  0
  141.8380   72.6810  220.5860 C   0  0  0  0  0  0  0  0  0  0  0  0
  141.0390   72.0280  221.5000 C   0  0  0  0  0  0  0  0  0  0  0  0
  140.2070   72.6880  222.3850 C   0  0  0  0  0  0  0  0  0  0  0  0
  139.4000   71.9550  223.3120 N   0  0  0  0  0  0  0  0  0  0  0  0
  139.9610   70.7290  223.8310 C   0  0  2  0  0  0  0  0  0  0  0  0
  139.0460   69.5590  223.7650 C   0  0  0  0  0  0  0  0  0  0  0  0
  138.9070   68.9770  225.1470 C   0  0  0  0  0  0  0  0  0  0  0  0
  139.6640   69.9000  226.0200 C   0  0  0  0  0  0  0  0  0  0  0  0
  139.8410   69.8980  227.3850 C   0  0  0  0  0  0  0  0  0  0  0  0
  140.5960   70.8730  227.9550 C   0  0  0  0  0  0  0  0  0  0  0  0
  141.2110   71.8860  227.2420 C   0  0  0  0  0  0  0  0  0  0  0  0
  141.0330   71.8870  225.8720 C   0  0  0  0  0  0  0  0  0  0  0  0
  140.2600   70.8920  225.2680 C   0  0  0  0  0  0  0  0  0  0  0  0
  140.2050   74.0320  222.3220 N   0  0  0  0  0  0  0  0  0  0  0  0
  140.9840   74.7060  221.4300 C   0  0  0  0  0  0  0  0  0  0  0  0
  140.9150   76.1260  221.4360 N   0  0  0  0  0  0  0  0  0  0  0  0
  140.7390   76.8400  220.1870 C   0  0  0  0  0  0  0  0  0  0  0  0
  141.9130   77.8270  220.1310 C   0  0  0  0  0  0  0  0  0  0  0  0
  141.6460   78.7750  221.2670 C   0  0  0  0  0  0  0  0  0  0  0  0
  141.8270   80.1200  221.0710 C   0  0  0  0  0  0  0  0  0  0  0  0
  141.5870   81.0090  222.1020 C   0  0  0  0  0  0  0  0  0  0  0  0
  141.1700   80.5120  223.3080 C   0  0  0  0  0  0  0  0  0  0  0  0
  140.9920   79.1540  223.4910 C   0  0  0  0  0  0  0  0  0  0  0  0
  141.2300   78.2480  222.4620 C   0  0  0  0  0  0  0  0  0  0  0  0
  141.0250   76.7990  222.7060 C   0  0  0  0  0  0  0  0  0  0  0  0
  141.7790   74.0250  220.5860 N   0  0  0  0  0  0  0  0  0  0  0  0
  142.5330   70.5880  219.4600 C   0  0  0  0  0  0  0  0  0  0  0  0
  147.2760   68.0742  219.2939 H   0  0  0  0  0  0  0  0  0  0  0  0
  145.1611   66.7724  219.3955 H   0  0  0  0  0  0  0  0  0  0  0  0
  142.9845   67.9596  219.4737 H   0  0  0  0  0  0  0  0  0  0  0  0
  147.1751   70.5507  219.2659 H   0  0  0  0  0  0  0  0  0  0  0  0
  145.3378   72.4991  220.3358 H   0  0  0  0  0  0  0  0  0  0  0  0
  145.8478   72.4558  218.6161 H   0  0  0  0  0  0  0  0  0  0  0  0
  143.7147   73.7514  219.1177 H   0  0  0  0  0  0  0  0  0  0  0  0
  143.5895   72.4755  217.8521 H   0  0  0  0  0  0  0  0  0  0  0  0
  141.0647   70.9286  221.5264 H   0  0  0  0  0  0  0  0  0  0  0  0
  138.4510   72.2700  223.6120 H   0  0  0  0  0  0  0  0  0  0  0  0
  140.8442   70.5394  223.2033 H   0  0  0  0  0  0  0  0  0  0  0  0
  138.0602   69.8802  223.3976 H   0  0  0  0  0  0  0  0  0  0  0  0
  139.4537   68.8023  223.0786 H   0  0  0  0  0  0  0  0  0  0  0  0
  137.8495   68.9385  225.4473 H   0  0  0  0  0  0  0  0  0  0  0  0
  139.2847   67.9455  225.2045 H   0  0  0  0  0  0  0  0  0  0  0  0
  139.3773   69.1174  228.0060 H   0  0  0  0  0  0  0  0  0  0  0  0
  140.7257   70.8558  229.0472 H   0  0  0  0  0  0  0  0  0  0  0  0
  141.8150   72.6566  227.7434 H   0  0  0  0  0  0  0  0  0  0  0  0
  141.4996   72.6707  225.2570 H   0  0  0  0  0  0  0  0  0  0  0  0
  140.7758   76.1452  219.3350 H   0  0  0  0  0  0  0  0  0  0  0  0
  139.7654   77.3492  220.1334 H   0  0  0  0  0  0  0  0  0  0  0  0
  142.8703   77.3045  220.2746 H   0  0  0  0  0  0  0  0  0  0  0  0
  141.9890   78.3397  219.1608 H   0  0  0  0  0  0  0  0  0  0  0  0
  142.1636   80.4920  220.0921 H   0  0  0  0  0  0  0  0  0  0  0  0
  141.7277   82.0903  221.9571 H   0  0  0  0  0  0  0  0  0  0  0  0
  140.9743   81.2026  224.1416 H   0  0  0  0  0  0  0  0  0  0  0  0
  140.6554   78.7816  224.4698 H   0  0  0  0  0  0  0  0  0  0  0  0
  141.8803   76.3937  223.2665 H   0  0  0  0  0  0  0  0  0  0  0  0
  140.1070   76.6445  223.2921 H   0  0  0  0  0  0  0  0  0  0  0  0
  141.9409   70.1576  220.2811 H   0  0  0  0  0  0  0  0  0  0  0  0
  142.0226   70.4306  218.4984 H   0  0  0  0  0  0  0  0  0  0  0  0
  1  2  2  0
  2  3  1  0
  3  4  2  0
  4  5  1  0
  5  6  2  0
  5  7  1  0
  7  8  1  0
  8  9  1  0
  9 10  1  0
 10 11  2  0
 11 12  1  0
 12 13  1  0
 13 14  1  0
 14 15  1  0
 15 16  1  0
 16 17  1  0
 17 18  2  0
 18 19  1  0
 19 20  2  0
 20 21  1  0
 21 22  2  0
 12 23  2  0
 23 24  1  0
 24 25  1  0
 25 26  1  0
 26 27  1  0
 27 28  1  0
 28 29  2  0
 29 30  1  0
 30 31  2  0
 31 32  1  0
 32 33  2  0
 33 34  1  0
 24 35  2  0
  9 36  1  0
  6  1  1  0
 35 10  1  0
 36  4  1  0
 22 14  1  0
 34 25  1  0
 22 17  1  0
 33 28  1  0
  1 37  1  0
  2 38  1  0
  3 39  1  0
  6 40  1  0
  7 41  1  0
  7 42  1  0
  8 43  1  0
  8 44  1  0
 11 45  1  0
 13 46  1  0
 14 47  1  6
 15 48  1  0
 15 49  1  0
 16 50  1  0
 16 51  1  0
 18 52  1  0
 19 53  1  0
 20 54  1  0
 21 55  1  0
 26 56  1  0
 26 57  1  0
 27 58  1  0
 27 59  1  0
 29 60  1  0
 30 61  1  0
 31 62  1  0
 32 63  1  0
 34 64  1  0
 34 65  1  0
 36 66  1  0
 36 67  1  0
M  END
>  <smiles>  (6) 
c1ccc2c(c1)CCN(c1cc(N[C@@H]3CCc4ccccc43)nc(N3CCc4ccccc4C3)n1)C2

>  <score_type>  (6) 
oracle

>  <origin>  (6) 
autodockgpu

>  <m_score__min__energy>  (6) 
-11.73

>  <m_primary>  (6) 
energy

>  <rmsd>  (6) 
10.340840846661518

>  <m_score__min__rmsd>  (6) 
10.340840846661518

>  <meeko>  (6) 
{"free_energy": -11.69, "intermolecular_energy": -12.88, "internal_energy": -1.21, "cluster_size": 49, "cluster_id": 1, "rank_in_cluster": 28}

>  <energy>  (6) 
-11.71

>  <cluster_rmsd>  (6) 
0.03

>  <cluster>  (6) 
1

$$$$

     RDKit          3D

 67 73  0  0  0  0  0  0  0  0999 V2000
  140.4320   67.8870  226.0870 C   0  0  0  0  0  0  0  0  0  0  0  0
  141.2730   68.8510  226.5910 C   0  0  0  0  0  0  0  0  0  0  0  0
  141.2350   70.1360  226.0740 C   0  0  0  0  0  0  0  0  0  0  0  0
  140.3620   70.4660  225.0590 C   0  0  0  0  0  0  0  0  0  0  0  0
  139.5190   69.5200  224.5490 C   0  0  0  0  0  0  0  0  0  0  0  0
  139.5600   68.2270  225.0700 C   0  0  0  0  0  0  0  0  0  0  0  0
  138.5420   69.7640  223.4580 C   0  0  0  0  0  0  0  0  0  0  0  0
  138.2970   71.2390  223.3360 C   0  0  0  0  0  0  0  0  0  0  0  0
  139.5600   71.9580  223.3230 N   0  0  0  0  0  0  0  0  0  0  0  0
  140.0330   72.7080  222.2290 C   0  0  0  0  0  0  0  0  0  0  0  0
  140.3890   72.1510  221.0200 C   0  0  0  0  0  0  0  0  0  0  0  0
  140.8540   72.8960  219.9520 C   0  0  0  0  0  0  0  0  0  0  0  0
  141.2090   72.2610  218.7200 N   0  0  0  0  0  0  0  0  0  0  0  0
  142.5810   71.8270  218.5870 C   0  0  2  0  0  0  0  0  0  0  0  0
  142.8620   70.4920  219.1790 C   0  0  0  0  0  0  0  0  0  0  0  0
  143.9890   70.6310  220.1680 C   0  0  0  0  0  0  0  0  0  0  0  0
  144.2680   72.0820  220.2160 C   0  0  0  0  0  0  0  0  0  0  0  0
  145.1600   72.7970  220.9840 C   0  0  0  0  0  0  0  0  0  0  0  0
  145.2250   74.1460  220.8360 C   0  0  0  0  0  0  0  0  0  0  0  0
  144.4420   74.8620  219.9500 C   0  0  0  0  0  0  0  0  0  0  0  0
  143.5480   74.1440  219.1800 C   0  0  0  0  0  0  0  0  0  0  0  0
  143.4660   72.7550  219.3170 C   0  0  0  0  0  0  0  0  0  0  0  0
  140.9490   74.2250  220.1400 N   0  0  0  0  0  0  0  0  0  0  0  0
  140.6030   74.8050  221.3240 C   0  0  0  0  0  0  0  0  0  0  0  0
  140.7370   76.2160  221.4300 N   0  0  0  0  0  0  0  0  0  0  0  0
  140.5540   77.0440  220.2550 C   0  0  0  0  0  0  0  0  0  0  0  0
  141.8460   77.8650  220.1470 C   0  0  0  0  0  0  0  0  0  0  0  0
  141.8180   78.7470  221.3650 C   0  0  0  0  0  0  0  0  0  0  0  0
  142.1690   80.0670  221.2410 C   0  0  0  0  0  0  0  0  0  0  0  0
  142.1510   80.8960  222.3470 C   0  0  0  0  0  0  0  0  0  0  0  0
  141.7760   80.3660  223.5530 C   0  0  0  0  0  0  0  0  0  0  0  0
  141.4250   79.0340  223.6630 C   0  0  0  0  0  0  0  0  0  0  0  0
  141.4390   78.1880  222.5580 C   0  0  0  0  0  0  0  0  0  0  0  0
  141.0540   76.7650  222.7250 C   0  0  0  0  0  0  0  0  0  0  0  0
  140.1560   74.0430  222.3380 N   0  0  0  0  0  0  0  0  0  0  0  0
  140.3590   71.8650  224.5340 C   0  0  0  0  0  0  0  0  0  0  0  0
  140.4529   66.8623  226.4865 H   0  0  0  0  0  0  0  0  0  0  0  0
  141.9736   68.6029  227.4019 H   0  0  0  0  0  0  0  0  0  0  0  0
  141.9108   70.9037  226.4790 H   0  0  0  0  0  0  0  0  0  0  0  0
  138.8836   67.4611  224.6627 H   0  0  0  0  0  0  0  0  0  0  0  0
  138.9452   69.3784  222.5100 H   0  0  0  0  0  0  0  0  0  0  0  0
  137.5967   69.2500  223.6866 H   0  0  0  0  0  0  0  0  0  0  0  0
  137.7542   71.4411  222.4008 H   0  0  0  0  0  0  0  0  0  0  0  0
  137.7007   71.5763  224.1966 H   0  0  0  0  0  0  0  0  0  0  0  0
  140.2990   71.0614  220.8987 H   0  0  0  0  0  0  0  0  0  0  0  0
  140.5290   72.1080  217.9430 H   0  0  0  0  0  0  0  0  0  0  0  0
  142.7580   71.7923  217.5019 H   0  0  0  0  0  0  0  0  0  0  0  0
  141.9636   70.1176  219.6916 H   0  0  0  0  0  0  0  0  0  0  0  0
  143.1431   69.7821  218.3872 H   0  0  0  0  0  0  0  0  0  0  0  0
  143.6842   70.2614  221.1582 H   0  0  0  0  0  0  0  0  0  0  0  0
  144.8737   70.0461  219.8763 H   0  0  0  0  0  0  0  0  0  0  0  0
  145.8106   72.2832  221.7070 H   0  0  0  0  0  0  0  0  0  0  0  0
  145.9429   74.7010  221.4578 H   0  0  0  0  0  0  0  0  0  0  0  0
  144.5271   75.9552  219.8621 H   0  0  0  0  0  0  0  0  0  0  0  0
  142.9007   74.6649  218.4591 H   0  0  0  0  0  0  0  0  0  0  0  0
  140.4155   76.4203  219.3595 H   0  0  0  0  0  0  0  0  0  0  0  0
  139.6620   77.6830  220.3329 H   0  0  0  0  0  0  0  0  0  0  0  0
  142.7287   77.2088  220.1594 H   0  0  0  0  0  0  0  0  0  0  0  0
  141.9070   78.4380  219.2100 H   0  0  0  0  0  0  0  0  0  0  0  0
  142.4653   80.4666  220.2599 H   0  0  0  0  0  0  0  0  0  0  0  0
  142.4312   81.9562  222.2606 H   0  0  0  0  0  0  0  0  0  0  0  0
  141.7540   81.0088  224.4453 H   0  0  0  0  0  0  0  0  0  0  0  0
  141.1285   78.6342  224.6439 H   0  0  0  0  0  0  0  0  0  0  0  0
  141.8901   76.2052  223.1696 H   0  0  0  0  0  0  0  0  0  0  0  0
  140.1797   76.6890  223.3882 H   0  0  0  0  0  0  0  0  0  0  0  0
  141.3921   72.1684  224.3091 H   0  0  0  0  0  0  0  0  0  0  0  0
  139.9238   72.5278  225.2964 H   0  0  0  0  0  0  0  0  0  0  0  0
  1  2  2  0
  2  3  1  0
  3  4  2  0
  4  5  1  0
  5  6  2  0
  5  7  1  0
  7  8  1  0
  8  9  1  0
  9 10  1  0
 10 11  2  0
 11 12  1  0
 12 13  1  0
 13 14  1  0
 14 15  1  0
 15 16  1  0
 16 17  1  0
 17 18  2  0
 18 19  1  0
 19 20  2  0
 20 21  1  0
 21 22  2  0
 12 23  2  0
 23 24  1  0
 24 25  1  0
 25 26  1  0
 26 27  1  0
 27 28  1  0
 28 29  2  0
 29 30  1  0
 30 31  2  0
 31 32  1  0
 32 33  2  0
 33 34  1  0
 24 35  2  0
  9 36  1  0
  6  1  1  0
 35 10  1  0
 36  4  1  0
 22 14  1  0
 34 25  1  0
 22 17  1  0
 33 28  1  0
  1 37  1  0
  2 38  1  0
  3 39  1  0
  6 40  1  0
  7 41  1  0
  7 42  1  0
  8 43  1  0
  8 44  1  0
 11 45  1  0
 13 46  1  0
 14 47  1  6
 15 48  1  0
 15 49  1  0
 16 50  1  0
 16 51  1  0
 18 52  1  0
 19 53  1  0
 20 54  1  0
 21 55  1  0
 26 56  1  0
 26 57  1  0
 27 58  1  0
 27 59  1  0
 29 60  1  0
 30 61  1  0
 31 62  1  0
 32 63  1  0
 34 64  1  0
 34 65  1  0
 36 66  1  0
 36 67  1  0
M  END
>  <smiles>  (7) 
c1ccc2c(c1)CCN(c1cc(N[C@@H]3CCc4ccccc43)nc(N3CCc4ccccc4C3)n1)C2

>  <score_type>  (7) 
oracle

>  <origin>  (7) 
autodockgpu

>  <m_score__min__energy>  (7) 
-11.73

>  <m_primary>  (7) 
energy

>  <rmsd>  (7) 
8.818181231651248

>  <m_score__min__rmsd>  (7) 
8.818181231651248

>  <meeko>  (7) 
{"free_energy": -10.27, "intermolecular_energy": -11.46, "internal_energy": -1.79, "cluster_size": 49, "cluster_id": 1, "rank_in_cluster": 42}

>  <energy>  (7) 
-11.71

>  <cluster_rmsd>  (7) 
0.07

>  <cluster>  (7) 
1

$$$$

     RDKit          3D

 67 73  0  0  0  0  0  0  0  0999 V2000
  146.0040   68.0560  219.3350 C   0  0  0  0  0  0  0  0  0  0  0  0
  144.7810   67.4290  219.3880 C   0  0  0  0  0  0  0  0  0  0  0  0
  143.6210   68.1870  219.4330 C   0  0  0  0  0  0  0  0  0  0  0  0
  143.6740   69.5640  219.4240 C   0  0  0  0  0  0  0  0  0  0  0  0
  144.8810   70.2010  219.3700 C   0  0  0  0  0  0  0  0  0  0  0  0
  146.0470   69.4370  219.3260 C   0  0  0  0  0  0  0  0  0  0  0  0
  145.0540   71.6760  219.3560 C   0  0  0  0  0  0  0  0  0  0  0  0
  143.7620   72.3210  218.9480 C   0  0  0  0  0  0  0  0  0  0  0  0
  142.6580   71.7490  219.7000 N   0  0  0  0  0  0  0  0  0  0  0  0
  141.8610   72.4710  220.6080 C   0  0  0  0  0  0  0  0  0  0  0  0
  141.1170   71.8810  221.6070 C   0  0  0  0  0  0  0  0  0  0  0  0
  140.3360   72.5980  222.4940 C   0  0  0  0  0  0  0  0  0  0  0  0
  139.5850   71.9280  223.5100 N   0  0  0  0  0  0  0  0  0  0  0  0
  140.1690   70.7290  224.0640 C   0  0  2  0  0  0  0  0  0  0  0  0
  139.3110   69.5200  223.9530 C   0  0  0  0  0  0  0  0  0  0  0  0
  139.1230   68.9340  225.3280 C   0  0  0  0  0  0  0  0  0  0  0  0
  139.7900   69.8900  226.2360 C   0  0  0  0  0  0  0  0  0  0  0  0
  139.8920   69.8990  227.6100 C   0  0  0  0  0  0  0  0  0  0  0  0
  140.5710   70.9070  228.2160 C   0  0  0  0  0  0  0  0  0  0  0  0
  141.1790   71.9440  227.5330 C   0  0  0  0  0  0  0  0  0  0  0  0
  141.0770   71.9350  226.1560 C   0  0  0  0  0  0  0  0  0  0  0  0
  140.3820   70.9060  225.5140 C   0  0  0  0  0  0  0  0  0  0  0  0
  140.3280   73.9350  222.3440 N   0  0  0  0  0  0  0  0  0  0  0  0
  141.0530   74.5490  221.3670 C   0  0  0  0  0  0  0  0  0  0  0  0
  140.9830   75.9660  221.2850 N   0  0  0  0  0  0  0  0  0  0  0  0
  141.0200   76.6110  219.9880 C   0  0  0  0  0  0  0  0  0  0  0  0
  142.1850   77.6060  220.0780 C   0  0  0  0  0  0  0  0  0  0  0  0
  141.7280   78.6100  221.1000 C   0  0  0  0  0  0  0  0  0  0  0  0
  141.9370   79.9450  220.8660 C   0  0  0  0  0  0  0  0  0  0  0  0
  141.5250   80.8840  221.7920 C   0  0  0  0  0  0  0  0  0  0  0  0
  140.9100   80.4470  222.9340 C   0  0  0  0  0  0  0  0  0  0  0  0
  140.7050   79.0990  223.1580 C   0  0  0  0  0  0  0  0  0  0  0  0
  141.1160   78.1420  222.2340 C   0  0  0  0  0  0  0  0  0  0  0  0
  140.8750   76.7060  222.5170 C   0  0  0  0  0  0  0  0  0  0  0  0
  141.8000   73.8130  220.5250 N   0  0  0  0  0  0  0  0  0  0  0  0
  142.3950   70.3360  219.4740 C   0  0  0  0  0  0  0  0  0  0  0  0
  146.9328   67.4676  219.3004 H   0  0  0  0  0  0  0  0  0  0  0  0
  144.7235   66.3305  219.3947 H   0  0  0  0  0  0  0  0  0  0  0  0
  142.6447   67.6822  219.4765 H   0  0  0  0  0  0  0  0  0  0  0  0
  147.0218   69.9448  219.2832 H   0  0  0  0  0  0  0  0  0  0  0  0
  145.3370   72.0227  220.3609 H   0  0  0  0  0  0  0  0  0  0  0  0
  145.8446   71.9484  218.6414 H   0  0  0  0  0  0  0  0  0  0  0  0
  143.8163   73.4015  219.1468 H   0  0  0  0  0  0  0  0  0  0  0  0
  143.5955   72.1453  217.8750 H   0  0  0  0  0  0  0  0  0  0  0  0
  141.1461   70.7856  221.7032 H   0  0  0  0  0  0  0  0  0  0  0  0
  138.6580   72.2690  223.8500 H   0  0  0  0  0  0  0  0  0  0  0  0
  141.0926   70.5780  223.4860 H   0  0  0  0  0  0  0  0  0  0  0  0
  138.3334   69.7972  223.5318 H   0  0  0  0  0  0  0  0  0  0  0  0
  139.7879   68.7810  223.2924 H   0  0  0  0  0  0  0  0  0  0  0  0
  138.0535   68.8494  225.5710 H   0  0  0  0  0  0  0  0  0  0  0  0
  139.5417   67.9201  225.4098 H   0  0  0  0  0  0  0  0  0  0  0  0
  139.4295   69.1002  228.2083 H   0  0  0  0  0  0  0  0  0  0  0  0
  140.6413   70.8979  229.3137 H   0  0  0  0  0  0  0  0  0  0  0  0
  141.7203   72.7413  228.0634 H   0  0  0  0  0  0  0  0  0  0  0  0
  141.5424   72.7372  225.5645 H   0  0  0  0  0  0  0  0  0  0  0  0
  141.2016   75.8726  219.1931 H   0  0  0  0  0  0  0  0  0  0  0  0
  140.0688   77.1064  219.7434 H   0  0  0  0  0  0  0  0  0  0  0  0
  143.1049   77.1020  220.4092 H   0  0  0  0  0  0  0  0  0  0  0  0
  142.4234   78.0675  219.1084 H   0  0  0  0  0  0  0  0  0  0  0  0
  142.4335   80.2688  219.9394 H   0  0  0  0  0  0  0  0  0  0  0  0
  141.6874   81.9575  221.6156 H   0  0  0  0  0  0  0  0  0  0  0  0
  140.5744   81.1788  223.6836 H   0  0  0  0  0  0  0  0  0  0  0  0
  140.2075   78.7757  224.0843 H   0  0  0  0  0  0  0  0  0  0  0  0
  141.6235   76.3399  223.2351 H   0  0  0  0  0  0  0  0  0  0  0  0
  139.8711   76.5728  222.9466 H   0  0  0  0  0  0  0  0  0  0  0  0
  141.7710   69.9490  220.2930 H   0  0  0  0  0  0  0  0  0  0  0  0
  141.8741   70.2218  218.5119 H   0  0  0  0  0  0  0  0  0  0  0  0
  1  2  2  0
  2  3  1  0
  3  4  2  0
  4  5  1  0
  5  6  2  0
  5  7  1  0
  7  8  1  0
  8  9  1  0
  9 10  1  0
 10 11  2  0
 11 12  1  0
 12 13  1  0
 13 14  1  0
 14 15  1  0
 15 16  1  0
 16 17  1  0
 17 18  2  0
 18 19  1  0
 19 20  2  0
 20 21  1  0
 21 22  2  0
 12 23  2  0
 23 24  1  0
 24 25  1  0
 25 26  1  0
 26 27  1  0
 27 28  1  0
 28 29  2  0
 29 30  1  0
 30 31  2  0
 31 32  1  0
 32 33  2  0
 33 34  1  0
 24 35  2  0
  9 36  1  0
  6  1  1  0
 35 10  1  0
 36  4  1  0
 22 14  1  0
 34 25  1  0
 22 17  1  0
 33 28  1  0
  1 37  1  0
  2 38  1  0
  3 39  1  0
  6 40  1  0
  7 41  1  0
  7 42  1  0
  8 43  1  0
  8 44  1  0
 11 45  1  0
 13 46  1  0
 14 47  1  6
 15 48  1  0
 15 49  1  0
 16 50  1  0
 16 51  1  0
 18 52  1  0
 19 53  1  0
 20 54  1  0
 21 55  1  0
 26 56  1  0
 26 57  1  0
 27 58  1  0
 27 59  1  0
 29 60  1  0
 30 61  1  0
 31 62  1  0
 32 63  1  0
 34 64  1  0
 34 65  1  0
 36 66  1  0
 36 67  1  0
M  END
>  <smiles>  (8) 
c1ccc2c(c1)CCN(c1cc(N[C@@H]3CCc4ccccc43)nc(N3CCc4ccccc4C3)n1)C2

>  <score_type>  (8) 
oracle

>  <origin>  (8) 
autodockgpu

>  <m_score__min__energy>  (8) 
-11.73

>  <m_primary>  (8) 
energy

>  <rmsd>  (8) 
10.407024440520702

>  <m_score__min__rmsd>  (8) 
10.407024440520702

>  <meeko>  (8) 
{"free_energy": -11.61, "intermolecular_energy": -12.8, "internal_energy": -1.19, "cluster_size": 49, "cluster_id": 1, "rank_in_cluster": 32}

>  <energy>  (8) 
-11.71

>  <cluster_rmsd>  (8) 
0.04

>  <cluster>  (8) 
1

$$$$

     RDKit          3D

 67 73  0  0  0  0  0  0  0  0999 V2000
  146.2990   68.5280  219.3560 C   0  0  0  0  0  0  0  0  0  0  0  0
  145.1270   67.8140  219.4340 C   0  0  0  0  0  0  0  0  0  0  0  0
  143.9150   68.4830  219.4780 C   0  0  0  0  0  0  0  0  0  0  0  0
  143.8640   69.8610  219.4450 C   0  0  0  0  0  0  0  0  0  0  0  0
  145.0190   70.5840  219.3680 C   0  0  0  0  0  0  0  0  0  0  0  0
  146.2380   69.9090  219.3230 C   0  0  0  0  0  0  0  0  0  0  0  0
  145.0820   72.0680  219.3260 C   0  0  0  0  0  0  0  0  0  0  0  0
  143.7420   72.6070  218.9220 C   0  0  0  0  0  0  0  0  0  0  0  0
  142.6900   71.9680  219.6960 N   0  0  0  0  0  0  0  0  0  0  0  0
  141.8510   72.6450  220.6010 C   0  0  0  0  0  0  0  0  0  0  0  0
  141.0510   72.0060  221.5230 C   0  0  0  0  0  0  0  0  0  0  0  0
  140.2290   72.6790  222.4070 C   0  0  0  0  0  0  0  0  0  0  0  0
  139.4200   71.9590  223.3430 N   0  0  0  0  0  0  0  0  0  0  0  0
  139.9750   70.7340  223.8710 C   0  0  2  0  0  0  0  0  0  0  0  0
  139.0520   69.5690  223.8150 C   0  0  0  0  0  0  0  0  0  0  0  0
  138.9120   68.9990  225.2020 C   0  0  0  0  0  0  0  0  0  0  0  0
  139.6770   69.9240  226.0660 C   0  0  0  0  0  0  0  0  0  0  0  0
  139.8550   69.9310  227.4310 C   0  0  0  0  0  0  0  0  0  0  0  0
  140.6160   70.9060  227.9930 C   0  0  0  0  0  0  0  0  0  0  0  0
  141.2360   71.9100  227.2710 C   0  0  0  0  0  0  0  0  0  0  0  0
  141.0570   71.9010  225.9020 C   0  0  0  0  0  0  0  0  0  0  0  0
  140.2770   70.9060  225.3050 C   0  0  0  0  0  0  0  0  0  0  0  0
  140.2370   74.0220  222.3340 N   0  0  0  0  0  0  0  0  0  0  0  0
  141.0170   74.6830  221.4330 C   0  0  0  0  0  0  0  0  0  0  0  0
  140.9590   76.1040  221.4280 N   0  0  0  0  0  0  0  0  0  0  0  0
  140.8080   76.8100  220.1710 C   0  0  0  0  0  0  0  0  0  0  0  0
  141.9900   77.7880  220.1260 C   0  0  0  0  0  0  0  0  0  0  0  0
  141.7140   78.7460  221.2520 C   0  0  0  0  0  0  0  0  0  0  0  0
  141.9070   80.0880  221.0490 C   0  0  0  0  0  0  0  0  0  0  0  0
  141.6600   80.9860  222.0710 C   0  0  0  0  0  0  0  0  0  0  0  0
  141.2200   80.5010  223.2730 C   0  0  0  0  0  0  0  0  0  0  0  0
  141.0280   79.1450  223.4630 C   0  0  0  0  0  0  0  0  0  0  0  0
  141.2750   78.2300  222.4440 C   0  0  0  0  0  0  0  0  0  0  0  0
  141.0550   76.7840  222.6950 C   0  0  0  0  0  0  0  0  0  0  0  0
  141.8020   73.9890  220.5900 N   0  0  0  0  0  0  0  0  0  0  0  0
  142.5320   70.5360  219.4970 C   0  0  0  0  0  0  0  0  0  0  0  0
  147.2686   68.0097  219.3205 H   0  0  0  0  0  0  0  0  0  0  0  0
  145.1516   66.7146  219.4614 H   0  0  0  0  0  0  0  0  0  0  0  0
  142.9798   67.9072  219.5401 H   0  0  0  0  0  0  0  0  0  0  0  0
  147.1715   70.4875  219.2599 H   0  0  0  0  0  0  0  0  0  0  0  0
  145.3487   72.4533  220.3212 H   0  0  0  0  0  0  0  0  0  0  0  0
  145.8429   72.3852  218.5977 H   0  0  0  0  0  0  0  0  0  0  0  0
  143.7175   73.6919  219.1017 H   0  0  0  0  0  0  0  0  0  0  0  0
  143.5786   72.3996  217.8542 H   0  0  0  0  0  0  0  0  0  0  0  0
  141.0673   70.9066  221.5571 H   0  0  0  0  0  0  0  0  0  0  0  0
  138.4740   72.2830  223.6440 H   0  0  0  0  0  0  0  0  0  0  0  0
  140.8566   70.5343  223.2442 H   0  0  0  0  0  0  0  0  0  0  0  0
  138.0676   69.8936  223.4468 H   0  0  0  0  0  0  0  0  0  0  0  0
  139.4532   68.8044  223.1335 H   0  0  0  0  0  0  0  0  0  0  0  0
  137.8549   68.9700  225.5048 H   0  0  0  0  0  0  0  0  0  0  0  0
  139.2829   67.9655  225.2670 H   0  0  0  0  0  0  0  0  0  0  0  0
  139.3874   69.1577  228.0582 H   0  0  0  0  0  0  0  0  0  0  0  0
  140.7467   70.8966  229.0852 H   0  0  0  0  0  0  0  0  0  0  0  0
  141.8446   72.6813  227.7656 H   0  0  0  0  0  0  0  0  0  0  0  0
  141.5282   72.6769  225.2808 H   0  0  0  0  0  0  0  0  0  0  0  0
  140.8530   76.1086  219.3248 H   0  0  0  0  0  0  0  0  0  0  0  0
  139.8392   77.3260  220.0984 H   0  0  0  0  0  0  0  0  0  0  0  0
  142.9411   77.2593  220.2870 H   0  0  0  0  0  0  0  0  0  0  0  0
  142.0837   78.2938  219.1537 H   0  0  0  0  0  0  0  0  0  0  0  0
  142.2588   80.4508  220.0719 H   0  0  0  0  0  0  0  0  0  0  0  0
  141.8135   82.0649  221.9216 H   0  0  0  0  0  0  0  0  0  0  0  0
  141.0165   81.1990  224.0984 H   0  0  0  0  0  0  0  0  0  0  0  0
  140.6730   78.7823  224.4389 H   0  0  0  0  0  0  0  0  0  0  0  0
  141.8985   76.3759  223.2711 H   0  0  0  0  0  0  0  0  0  0  0  0
  140.1274   76.6402  223.2685 H   0  0  0  0  0  0  0  0  0  0  0  0
  141.9473   70.1179  220.3296 H   0  0  0  0  0  0  0  0  0  0  0  0
  142.0115   70.3664  218.5429 H   0  0  0  0  0  0  0  0  0  0  0  0
  1  2  2  0
  2  3  1  0
  3  4  2  0
  4  5  1  0
  5  6  2  0
  5  7  1  0
  7  8  1  0
  8  9  1  0
  9 10  1  0
 10 11  2  0
 11 12  1  0
 12 13  1  0
 13 14  1  0
 14 15  1  0
 15 16  1  0
 16 17  1  0
 17 18  2  0
 18 19  1  0
 19 20  2  0
 20 21  1  0
 21 22  2  0
 12 23  2  0
 23 24  1  0
 24 25  1  0
 25 26  1  0
 26 27  1  0
 27 28  1  0
 28 29  2  0
 29 30  1  0
 30 31  2  0
 31 32  1  0
 32 33  2  0
 33 34  1  0
 24 35  2  0
  9 36  1  0
  6  1  1  0
 35 10  1  0
 36  4  1  0
 22 14  1  0
 34 25  1  0
 22 17  1  0
 33 28  1  0
  1 37  1  0
  2 38  1  0
  3 39  1  0
  6 40  1  0
  7 41  1  0
  7 42  1  0
  8 43  1  0
  8 44  1  0
 11 45  1  0
 13 46  1  0
 14 47  1  6
 15 48  1  0
 15 49  1  0
 16 50  1  0
 16 51  1  0
 18 52  1  0
 19 53  1  0
 20 54  1  0
 21 55  1  0
 26 56  1  0
 26 57  1  0
 27 58  1  0
 27 59  1  0
 29 60  1  0
 30 61  1  0
 31 62  1  0
 32 63  1  0
 34 64  1  0
 34 65  1  0
 36 66  1  0
 36 67  1  0
M  END
>  <smiles>  (9) 
c1ccc2c(c1)CCN(c1cc(N[C@@H]3CCc4ccccc43)nc(N3CCc4ccccc4C3)n1)C2

>  <score_type>  (9) 
oracle

>  <origin>  (9) 
autodockgpu

>  <m_score__min__energy>  (9) 
-11.73

>  <m_primary>  (9) 
energy

>  <rmsd>  (9) 
10.33975621574996

>  <m_score__min__rmsd>  (9) 
10.33975621574996

>  <meeko>  (9) 
{"free_energy": -11.7, "intermolecular_energy": -12.89, "internal_energy": -1.21, "cluster_size": 49, "cluster_id": 1, "rank_in_cluster": 23}

>  <energy>  (9) 
-11.71

>  <cluster_rmsd>  (9) 
0.05

>  <cluster>  (9) 
1

$$$$

     RDKit          3D

 67 73  0  0  0  0  0  0  0  0999 V2000
  146.2530   68.4710  219.3190 C   0  0  0  0  0  0  0  0  0  0  0  0
  145.0610   67.7870  219.3430 C   0  0  0  0  0  0  0  0  0  0  0  0
  143.8660   68.4870  219.3810 C   0  0  0  0  0  0  0  0  0  0  0  0
  143.8520   69.8660  219.3950 C   0  0  0  0  0  0  0  0  0  0  0  0
  145.0280   70.5600  219.3710 C   0  0  0  0  0  0  0  0  0  0  0  0
  146.2300   69.8530  219.3320 C   0  0  0  0  0  0  0  0  0  0  0  0
  145.1310   72.0420  219.3830 C   0  0  0  0  0  0  0  0  0  0  0  0
  143.8160   72.6310  218.9660 C   0  0  0  0  0  0  0  0  0  0  0  0
  142.7290   71.9950  219.6910 N   0  0  0  0  0  0  0  0  0  0  0  0
  141.8860   72.6630  220.5990 C   0  0  0  0  0  0  0  0  0  0  0  0
  141.0920   72.0150  221.5210 C   0  0  0  0  0  0  0  0  0  0  0  0
  140.2650   72.6800  222.4070 C   0  0  0  0  0  0  0  0  0  0  0  0
  139.4640   71.9520  223.3420 N   0  0  0  0  0  0  0  0  0  0  0  0
  140.0260   70.7270  223.8620 C   0  0  2  0  0  0  0  0  0  0  0  0
  139.1260   69.5470  223.7610 C   0  0  0  0  0  0  0  0  0  0  0  0
  138.9600   68.9480  225.1320 C   0  0  0  0  0  0  0  0  0  0  0  0
  139.6850   69.8700  226.0330 C   0  0  0  0  0  0  0  0  0  0  0  0
  139.8280   69.8550  227.4020 C   0  0  0  0  0  0  0  0  0  0  0  0
  140.5580   70.8320  228.0010 C   0  0  0  0  0  0  0  0  0  0  0  0
  141.1780   71.8590  227.3150 C   0  0  0  0  0  0  0  0  0  0  0  0
  141.0340   71.8740  225.9410 C   0  0  0  0  0  0  0  0  0  0  0  0
  140.2880   70.8760  225.3070 C   0  0  0  0  0  0  0  0  0  0  0  0
  140.2630   74.0230  222.3370 N   0  0  0  0  0  0  0  0  0  0  0  0
  141.0370   74.6930  221.4360 C   0  0  0  0  0  0  0  0  0  0  0  0
  140.9680   76.1130  221.4350 N   0  0  0  0  0  0  0  0  0  0  0  0
  140.8050   76.8200  220.1800 C   0  0  0  0  0  0  0  0  0  0  0  0
  141.9790   77.8080  220.1320 C   0  0  0  0  0  0  0  0  0  0  0  0
  141.7000   78.7610  221.2610 C   0  0  0  0  0  0  0  0  0  0  0  0
  141.8830   80.1050  221.0610 C   0  0  0  0  0  0  0  0  0  0  0  0
  141.6330   80.9990  222.0850 C   0  0  0  0  0  0  0  0  0  0  0  0
  141.2020   80.5080  223.2880 C   0  0  0  0  0  0  0  0  0  0  0  0
  141.0220   79.1500  223.4770 C   0  0  0  0  0  0  0  0  0  0  0  0
  141.2710   78.2400  222.4540 C   0  0  0  0  0  0  0  0  0  0  0  0
  141.0640   76.7910  222.7030 C   0  0  0  0  0  0  0  0  0  0  0  0
  141.8260   74.0070  220.5910 N   0  0  0  0  0  0  0  0  0  0  0  0
  142.5380   70.5750  219.4380 C   0  0  0  0  0  0  0  0  0  0  0  0
  147.2091   67.9278  219.2899 H   0  0  0  0  0  0  0  0  0  0  0  0
  145.0559   66.6871  219.3321 H   0  0  0  0  0  0  0  0  0  0  0  0
  142.9147   67.9350  219.4003 H   0  0  0  0  0  0  0  0  0  0  0  0
  147.1799   70.4073  219.3111 H   0  0  0  0  0  0  0  0  0  0  0  0
  145.3828   72.3851  220.3973 H   0  0  0  0  0  0  0  0  0  0  0  0
  145.9180   72.3635  218.6850 H   0  0  0  0  0  0  0  0  0  0  0  0
  143.8156   73.7094  219.1831 H   0  0  0  0  0  0  0  0  0  0  0  0
  143.6740   72.4650  217.8879 H   0  0  0  0  0  0  0  0  0  0  0  0
  141.1177   70.9158  221.5533 H   0  0  0  0  0  0  0  0  0  0  0  0
  138.5170   72.2700  223.6480 H   0  0  0  0  0  0  0  0  0  0  0  0
  140.9266   70.5553  223.2542 H   0  0  0  0  0  0  0  0  0  0  0  0
  138.1458   69.8612  223.3732 H   0  0  0  0  0  0  0  0  0  0  0  0
  139.5592   68.8027  223.0767 H   0  0  0  0  0  0  0  0  0  0  0  0
  137.8960   68.8942  225.4059 H   0  0  0  0  0  0  0  0  0  0  0  0
  139.3477   67.9201  225.1876 H   0  0  0  0  0  0  0  0  0  0  0  0
  139.3576   69.0628  228.0029 H   0  0  0  0  0  0  0  0  0  0  0  0
  140.6615   70.8038  229.0958 H   0  0  0  0  0  0  0  0  0  0  0  0
  141.7605   72.6306  227.8398 H   0  0  0  0  0  0  0  0  0  0  0  0
  141.5058   72.6703  225.3466 H   0  0  0  0  0  0  0  0  0  0  0  0
  140.8520   76.1207  219.3322 H   0  0  0  0  0  0  0  0  0  0  0  0
  139.8315   77.3278  220.1125 H   0  0  0  0  0  0  0  0  0  0  0  0
  142.9351   77.2868  220.2877 H   0  0  0  0  0  0  0  0  0  0  0  0
  142.0644   78.3166  219.1604 H   0  0  0  0  0  0  0  0  0  0  0  0
  142.2294   80.4725  220.0838 H   0  0  0  0  0  0  0  0  0  0  0  0
  141.7769   82.0794  221.9368 H   0  0  0  0  0  0  0  0  0  0  0  0
  140.9961   81.2030  224.1154 H   0  0  0  0  0  0  0  0  0  0  0  0
  140.6756   78.7822  224.4541 H   0  0  0  0  0  0  0  0  0  0  0  0
  141.9135   76.3886  223.2744 H   0  0  0  0  0  0  0  0  0  0  0  0
  140.1402   76.6383  223.2803 H   0  0  0  0  0  0  0  0  0  0  0  0
  141.9214   70.1447  220.2409 H   0  0  0  0  0  0  0  0  0  0  0  0
  142.0376   70.4526  218.4661 H   0  0  0  0  0  0  0  0  0  0  0  0
  1  2  2  0
  2  3  1  0
  3  4  2  0
  4  5  1  0
  5  6  2  0
  5  7  1  0
  7  8  1  0
  8  9  1  0
  9 10  1  0
 10 11  2  0
 11 12  1  0
 12 13  1  0
 13 14  1  0
 14 15  1  0
 15 16  1  0
 16 17  1  0
 17 18  2  0
 18 19  1  0
 19 20  2  0
 20 21  1  0
 21 22  2  0
 12 23  2  0
 23 24  1  0
 24 25  1  0
 25 26  1  0
 26 27  1  0
 27 28  1  0
 28 29  2  0
 29 30  1  0
 30 31  2  0
 31 32  1  0
 32 33  2  0
 33 34  1  0
 24 35  2  0
  9 36  1  0
  6  1  1  0
 35 10  1  0
 36  4  1  0
 22 14  1  0
 34 25  1  0
 22 17  1  0
 33 28  1  0
  1 37  1  0
  2 38  1  0
  3 39  1  0
  6 40  1  0
  7 41  1  0
  7 42  1  0
  8 43  1  0
  8 44  1  0
 11 45  1  0
 13 46  1  0
 14 47  1  6
 15 48  1  0
 15 49  1  0
 16 50  1  0
 16 51  1  0
 18 52  1  0
 19 53  1  0
 20 54  1  0
 21 55  1  0
 26 56  1  0
 26 57  1  0
 27 58  1  0
 27 59  1  0
 29 60  1  0
 30 61  1  0
 31 62  1  0
 32 63  1  0
 34 64  1  0
 34 65  1  0
 36 66  1  0
 36 67  1  0
M  END
>  <smiles>  (10) 
c1ccc2c(c1)CCN(c1cc(N[C@@H]3CCc4ccccc43)nc(N3CCc4ccccc4C3)n1)C2

>  <score_type>  (10) 
oracle

>  <origin>  (10) 
autodockgpu

>  <m_score__min__energy>  (10) 
-11.73

>  <m_primary>  (10) 
energy

>  <rmsd>  (10) 
10.364650148894192

>  <m_score__min__rmsd>  (10) 
10.364650148894192

>  <meeko>  (10) 
{"free_energy": -11.7, "intermolecular_energy": -12.9, "internal_energy": -1.2, "cluster_size": 49, "cluster_id": 1, "rank_in_cluster": 17}

>  <energy>  (10) 
-11.71

>  <cluster_rmsd>  (10) 
0.07

>  <cluster>  (10) 
1

$$$$

     RDKit          3D

 67 73  0  0  0  0  0  0  0  0999 V2000
  140.4370   67.9040  226.0970 C   0  0  0  0  0  0  0  0  0  0  0  0
  141.2740   68.8720  226.5990 C   0  0  0  0  0  0  0  0  0  0  0  0
  141.2330   70.1550  226.0770 C   0  0  0  0  0  0  0  0  0  0  0  0
  140.3620   70.4790  225.0580 C   0  0  0  0  0  0  0  0  0  0  0  0
  139.5240   69.5280  224.5490 C   0  0  0  0  0  0  0  0  0  0  0  0
  139.5670   68.2370  225.0760 C   0  0  0  0  0  0  0  0  0  0  0  0
  138.5490   69.7650  223.4550 C   0  0  0  0  0  0  0  0  0  0  0  0
  138.3000   71.2390  223.3260 C   0  0  0  0  0  0  0  0  0  0  0  0
  139.5610   71.9610  223.3140 N   0  0  0  0  0  0  0  0  0  0  0  0
  140.0350   72.7080  222.2190 C   0  0  0  0  0  0  0  0  0  0  0  0
  140.3930   72.1480  221.0110 C   0  0  0  0  0  0  0  0  0  0  0  0
  140.8580   72.8900  219.9420 C   0  0  0  0  0  0  0  0  0  0  0  0
  141.2150   72.2510  218.7120 N   0  0  0  0  0  0  0  0  0  0  0  0
  142.5870   71.8180  218.5810 C   0  0  2  0  0  0  0  0  0  0  0  0
  142.8670   70.4820  219.1690 C   0  0  0  0  0  0  0  0  0  0  0  0
  143.9910   70.6170  220.1620 C   0  0  0  0  0  0  0  0  0  0  0  0
  144.2700   72.0690  220.2150 C   0  0  0  0  0  0  0  0  0  0  0  0
  145.1590   72.7810  220.9880 C   0  0  0  0  0  0  0  0  0  0  0  0
  145.2250   74.1310  220.8450 C   0  0  0  0  0  0  0  0  0  0  0  0
  144.4440   74.8500  219.9590 C   0  0  0  0  0  0  0  0  0  0  0  0
  143.5520   74.1340  219.1840 C   0  0  0  0  0  0  0  0  0  0  0  0
  143.4700   72.7440  219.3170 C   0  0  0  0  0  0  0  0  0  0  0  0
  140.9530   74.2190  220.1260 N   0  0  0  0  0  0  0  0  0  0  0  0
  140.6060   74.8030  221.3080 C   0  0  0  0  0  0  0  0  0  0  0  0
  140.7390   76.2150  221.4100 N   0  0  0  0  0  0  0  0  0  0  0  0
  140.5920   77.0350  220.2250 C   0  0  0  0  0  0  0  0  0  0  0  0
  141.8880   77.8540  220.1520 C   0  0  0  0  0  0  0  0  0  0  0  0
  141.8260   78.7430  221.3630 C   0  0  0  0  0  0  0  0  0  0  0  0
  142.1830   80.0620  221.2420 C   0  0  0  0  0  0  0  0  0  0  0  0
  142.1340   80.8960  222.3430 C   0  0  0  0  0  0  0  0  0  0  0  0
  141.7230   80.3740  223.5400 C   0  0  0  0  0  0  0  0  0  0  0  0
  141.3660   79.0430  223.6470 C   0  0  0  0  0  0  0  0  0  0  0  0
  141.4110   78.1920  222.5470 C   0  0  0  0  0  0  0  0  0  0  0  0
  141.0180   76.7700  222.7110 C   0  0  0  0  0  0  0  0  0  0  0  0
  140.1570   74.0440  222.3230 N   0  0  0  0  0  0  0  0  0  0  0  0
  140.3570   71.8760  224.5280 C   0  0  0  0  0  0  0  0  0  0  0  0
  140.4593   66.8812  226.5012 H   0  0  0  0  0  0  0  0  0  0  0  0
  141.9738   68.6290  227.4122 H   0  0  0  0  0  0  0  0  0  0  0  0
  141.9050   70.9263  226.4813 H   0  0  0  0  0  0  0  0  0  0  0  0
  138.8939   67.4674  224.6702 H   0  0  0  0  0  0  0  0  0  0  0  0
  138.9554   69.3765  222.5095 H   0  0  0  0  0  0  0  0  0  0  0  0
  137.6046   69.2496  223.6839 H   0  0  0  0  0  0  0  0  0  0  0  0
  137.7596   71.4357  222.3883 H   0  0  0  0  0  0  0  0  0  0  0  0
  137.6999   71.5783  224.1831 H   0  0  0  0  0  0  0  0  0  0  0  0
  140.3042   71.0580  220.8925 H   0  0  0  0  0  0  0  0  0  0  0  0
  140.5360   72.0960  217.9340 H   0  0  0  0  0  0  0  0  0  0  0  0
  142.7667   71.7870  217.4962 H   0  0  0  0  0  0  0  0  0  0  0  0
  141.9672   70.1055  219.6775 H   0  0  0  0  0  0  0  0  0  0  0  0
  143.1512   69.7755  218.3753 H   0  0  0  0  0  0  0  0  0  0  0  0
  143.6830   70.2445  221.1501 H   0  0  0  0  0  0  0  0  0  0  0  0
  144.8765   70.0325  219.8717 H   0  0  0  0  0  0  0  0  0  0  0  0
  145.8070   72.2645  221.7114 H   0  0  0  0  0  0  0  0  0  0  0  0
  145.9414   74.6837  221.4705 H   0  0  0  0  0  0  0  0  0  0  0  0
  144.5291   75.9435  219.8749 H   0  0  0  0  0  0  0  0  0  0  0  0
  142.9066   74.6568  218.4628 H   0  0  0  0  0  0  0  0  0  0  0  0
  140.4803   76.4057  219.3297 H   0  0  0  0  0  0  0  0  0  0  0  0
  139.6984   77.6748  220.2709 H   0  0  0  0  0  0  0  0  0  0  0  0
  142.7688   77.1965  220.1945 H   0  0  0  0  0  0  0  0  0  0  0  0
  141.9773   78.4220  219.2143 H   0  0  0  0  0  0  0  0  0  0  0  0
  142.5085   80.4562  220.2680 H   0  0  0  0  0  0  0  0  0  0  0  0
  142.4188   81.9552  222.2594 H   0  0  0  0  0  0  0  0  0  0  0  0
  141.6763   81.0219  224.4277 H   0  0  0  0  0  0  0  0  0  0  0  0
  141.0399   78.6488  224.6208 H   0  0  0  0  0  0  0  0  0  0  0  0
  141.8392   76.2111  223.1836 H   0  0  0  0  0  0  0  0  0  0  0  0
  140.1243   76.6991  223.3484 H   0  0  0  0  0  0  0  0  0  0  0  0
  141.3899   72.1815  224.3050 H   0  0  0  0  0  0  0  0  0  0  0  0
  139.9183   72.5410  225.2865 H   0  0  0  0  0  0  0  0  0  0  0  0
  1  2  2  0
  2  3  1  0
  3  4  2  0
  4  5  1  0
  5  6  2  0
  5  7  1  0
  7  8  1  0
  8  9  1  0
  9 10  1  0
 10 11  2  0
 11 12  1  0
 12 13  1  0
 13 14  1  0
 14 15  1  0
 15 16  1  0
 16 17  1  0
 17 18  2  0
 18 19  1  0
 19 20  2  0
 20 21  1  0
 21 22  2  0
 12 23  2  0
 23 24  1  0
 24 25  1  0
 25 26  1  0
 26 27  1  0
 27 28  1  0
 28 29  2  0
 29 30  1  0
 30 31  2  0
 31 32  1  0
 32 33  2  0
 33 34  1  0
 24 35  2  0
  9 36  1  0
  6  1  1  0
 35 10  1  0
 36  4  1  0
 22 14  1  0
 34 25  1  0
 22 17  1  0
 33 28  1  0
  1 37  1  0
  2 38  1  0
  3 39  1  0
  6 40  1  0
  7 41  1  0
  7 42  1  0
  8 43  1  0
  8 44  1  0
 11 45  1  0
 13 46  1  0
 14 47  1  6
 15 48  1  0
 15 49  1  0
 16 50  1  0
 16 51  1  0
 18 52  1  0
 19 53  1  0
 20 54  1  0
 21 55  1  0
 26 56  1  0
 26 57  1  0
 27 58  1  0
 27 59  1  0
 29 60  1  0
 30 61  1  0
 31 62  1  0
 32 63  1  0
 34 64  1  0
 34 65  1  0
 36 66  1  0
 36 67  1  0
M  END
>  <smiles>  (11) 
c1ccc2c(c1)CCN(c1cc(N[C@@H]3CCc4ccccc43)nc(N3CCc4ccccc4C3)n1)C2

>  <score_type>  (11) 
oracle

>  <origin>  (11) 
autodockgpu

>  <m_score__min__energy>  (11) 
-11.73

>  <m_primary>  (11) 
energy

>  <rmsd>  (11) 
8.828328569625581

>  <m_score__min__rmsd>  (11) 
8.828328569625581

>  <meeko>  (11) 
{"free_energy": -10.26, "intermolecular_energy": -11.45, "internal_energy": -1.78, "cluster_size": 49, "cluster_id": 1, "rank_in_cluster": 44}

>  <energy>  (11) 
-11.71

>  <cluster_rmsd>  (11) 
0.05

>  <cluster>  (11) 
1

$$$$

     RDKit          3D

 67 73  0  0  0  0  0  0  0  0999 V2000
  146.3420   68.5700  219.3380 C   0  0  0  0  0  0  0  0  0  0  0  0
  145.1800   67.8410  219.4280 C   0  0  0  0  0  0  0  0  0  0  0  0
  143.9590   68.4960  219.4790 C   0  0  0  0  0  0  0  0  0  0  0  0
  143.8910   69.8720  219.4390 C   0  0  0  0  0  0  0  0  0  0  0  0
  145.0370   70.6100  219.3490 C   0  0  0  0  0  0  0  0  0  0  0  0
  146.2640   69.9490  219.2980 C   0  0  0  0  0  0  0  0  0  0  0  0
  145.0810   72.0940  219.2990 C   0  0  0  0  0  0  0  0  0  0  0  0
  143.7310   72.6140  218.9030 C   0  0  0  0  0  0  0  0  0  0  0  0
  142.6930   71.9660  219.6880 N   0  0  0  0  0  0  0  0  0  0  0  0
  141.8530   72.6370  220.5960 C   0  0  0  0  0  0  0  0  0  0  0  0
  141.0530   71.9920  221.5140 C   0  0  0  0  0  0  0  0  0  0  0  0
  140.2290   72.6600  222.4010 C   0  0  0  0  0  0  0  0  0  0  0  0
  139.4210   71.9340  223.3330 N   0  0  0  0  0  0  0  0  0  0  0  0
  139.9800   70.7130  223.8620 C   0  0  2  0  0  0  0  0  0  0  0  0
  139.0610   69.5450  223.8140 C   0  0  0  0  0  0  0  0  0  0  0  0
  138.9280   68.9790  225.2030 C   0  0  0  0  0  0  0  0  0  0  0  0
  139.6930   69.9080  226.0610 C   0  0  0  0  0  0  0  0  0  0  0  0
  139.8770   69.9210  227.4260 C   0  0  0  0  0  0  0  0  0  0  0  0
  140.6380   70.8990  227.9810 C   0  0  0  0  0  0  0  0  0  0  0  0
  141.2520   71.9020  227.2530 C   0  0  0  0  0  0  0  0  0  0  0  0
  141.0680   71.8890  225.8850 C   0  0  0  0  0  0  0  0  0  0  0  0
  140.2880   70.8900  225.2950 C   0  0  0  0  0  0  0  0  0  0  0  0
  140.2360   74.0040  222.3350 N   0  0  0  0  0  0  0  0  0  0  0  0
  141.0160   74.6700  221.4390 C   0  0  0  0  0  0  0  0  0  0  0  0
  140.9570   76.0910  221.4410 N   0  0  0  0  0  0  0  0  0  0  0  0
  140.8100   76.8040  220.1880 C   0  0  0  0  0  0  0  0  0  0  0  0
  141.9910   77.7830  220.1530 C   0  0  0  0  0  0  0  0  0  0  0  0
  141.7100   78.7340  221.2830 C   0  0  0  0  0  0  0  0  0  0  0  0
  141.9030   80.0780  221.0890 C   0  0  0  0  0  0  0  0  0  0  0  0
  141.6510   80.9700  222.1140 C   0  0  0  0  0  0  0  0  0  0  0  0
  141.2070   80.4780  223.3120 C   0  0  0  0  0  0  0  0  0  0  0  0
  141.0160   79.1210  223.4940 C   0  0  0  0  0  0  0  0  0  0  0  0
  141.2670   78.2120  222.4700 C   0  0  0  0  0  0  0  0  0  0  0  0
  141.0480   76.7640  222.7130 C   0  0  0  0  0  0  0  0  0  0  0  0
  141.8030   73.9820  220.5930 N   0  0  0  0  0  0  0  0  0  0  0  0
  142.5520   70.5310  219.4980 C   0  0  0  0  0  0  0  0  0  0  0  0
  147.3178   68.0639  219.2985 H   0  0  0  0  0  0  0  0  0  0  0  0
  145.2187   66.7421  219.4594 H   0  0  0  0  0  0  0  0  0  0  0  0
  143.0315   67.9092  219.5524 H   0  0  0  0  0  0  0  0  0  0  0  0
  147.1899   70.5383  219.2243 H   0  0  0  0  0  0  0  0  0  0  0  0
  145.3508   72.4877  220.2900 H   0  0  0  0  0  0  0  0  0  0  0  0
  145.8321   72.4170  218.5631 H   0  0  0  0  0  0  0  0  0  0  0  0
  143.6943   73.6994  219.0776 H   0  0  0  0  0  0  0  0  0  0  0  0
  143.5620   72.3989  217.8375 H   0  0  0  0  0  0  0  0  0  0  0  0
  141.0707   70.8925  221.5426 H   0  0  0  0  0  0  0  0  0  0  0  0
  138.4710   72.2520  223.6290 H   0  0  0  0  0  0  0  0  0  0  0  0
  140.8589   70.5140  223.2312 H   0  0  0  0  0  0  0  0  0  0  0  0
  138.0741   69.8651  223.4485 H   0  0  0  0  0  0  0  0  0  0  0  0
  139.4626   68.7794  223.1338 H   0  0  0  0  0  0  0  0  0  0  0  0
  137.8721   68.9478  225.5098 H   0  0  0  0  0  0  0  0  0  0  0  0
  139.3023   67.9468  225.2696 H   0  0  0  0  0  0  0  0  0  0  0  0
  139.4135   69.1492  228.0581 H   0  0  0  0  0  0  0  0  0  0  0  0
  140.7740   70.8933  229.0725 H   0  0  0  0  0  0  0  0  0  0  0  0
  141.8605   72.6764  227.7429 H   0  0  0  0  0  0  0  0  0  0  0  0
  141.5348   72.6642  225.2595 H   0  0  0  0  0  0  0  0  0  0  0  0
  140.8587   76.1076  219.3379 H   0  0  0  0  0  0  0  0  0  0  0  0
  139.8411   77.3196  220.1149 H   0  0  0  0  0  0  0  0  0  0  0  0
  142.9419   77.2542  220.3145 H   0  0  0  0  0  0  0  0  0  0  0  0
  142.0879   78.2944  219.1839 H   0  0  0  0  0  0  0  0  0  0  0  0
  142.2591   80.4466  220.1157 H   0  0  0  0  0  0  0  0  0  0  0  0
  141.8036   82.0499  221.9707 H   0  0  0  0  0  0  0  0  0  0  0  0
  140.9996   81.1714  224.1404 H   0  0  0  0  0  0  0  0  0  0  0  0
  140.6588   78.7523  224.4669 H   0  0  0  0  0  0  0  0  0  0  0  0
  141.8902   76.3538  223.2895 H   0  0  0  0  0  0  0  0  0  0  0  0
  140.1191   76.6156  223.2831 H   0  0  0  0  0  0  0  0  0  0  0  0
  141.9792   70.1102  220.3375 H   0  0  0  0  0  0  0  0  0  0  0  0
  142.0267   70.3500  218.5486 H   0  0  0  0  0  0  0  0  0  0  0  0
  1  2  2  0
  2  3  1  0
  3  4  2  0
  4  5  1  0
  5  6  2  0
  5  7  1  0
  7  8  1  0
  8  9  1  0
  9 10  1  0
 10 11  2  0
 11 12  1  0
 12 13  1  0
 13 14  1  0
 14 15  1  0
 15 16  1  0
 16 17  1  0
 17 18  2  0
 18 19  1  0
 19 20  2  0
 20 21  1  0
 21 22  2  0
 12 23  2  0
 23 24  1  0
 24 25  1  0
 25 26  1  0
 26 27  1  0
 27 28  1  0
 28 29  2  0
 29 30  1  0
 30 31  2  0
 31 32  1  0
 32 33  2  0
 33 34  1  0
 24 35  2  0
  9 36  1  0
  6  1  1  0
 35 10  1  0
 36  4  1  0
 22 14  1  0
 34 25  1  0
 22 17  1  0
 33 28  1  0
  1 37  1  0
  2 38  1  0
  3 39  1  0
  6 40  1  0
  7 41  1  0
  7 42  1  0
  8 43  1  0
  8 44  1  0
 11 45  1  0
 13 46  1  0
 14 47  1  6
 15 48  1  0
 15 49  1  0
 16 50  1  0
 16 51  1  0
 18 52  1  0
 19 53  1  0
 20 54  1  0
 21 55  1  0
 26 56  1  0
 26 57  1  0
 27 58  1  0
 27 59  1  0
 29 60  1  0
 30 61  1  0
 31 62  1  0
 32 63  1  0
 34 64  1  0
 34 65  1  0
 36 66  1  0
 36 67  1  0
M  END
>  <smiles>  (12) 
c1ccc2c(c1)CCN(c1cc(N[C@@H]3CCc4ccccc43)nc(N3CCc4ccccc4C3)n1)C2

>  <score_type>  (12) 
oracle

>  <origin>  (12) 
autodockgpu

>  <m_score__min__energy>  (12) 
-11.73

>  <m_primary>  (12) 
energy

>  <rmsd>  (12) 
10.349527632329679

>  <m_score__min__rmsd>  (12) 
10.349527632329679

>  <meeko>  (12) 
{"free_energy": -11.71, "intermolecular_energy": -12.9, "internal_energy": -1.21, "cluster_size": 49, "cluster_id": 1, "rank_in_cluster": 10}

>  <energy>  (12) 
-11.71

>  <cluster_rmsd>  (12) 
0.05

>  <cluster>  (12) 
1

$$$$

     RDKit          3D

 67 73  0  0  0  0  0  0  0  0999 V2000
  146.3200   68.5210  219.3420 C   0  0  0  0  0  0  0  0  0  0  0  0
  145.1400   67.8180  219.4030 C   0  0  0  0  0  0  0  0  0  0  0  0
  143.9340   68.5000  219.4480 C   0  0  0  0  0  0  0  0  0  0  0  0
  143.8990   69.8790  219.4310 C   0  0  0  0  0  0  0  0  0  0  0  0
  145.0630   70.5910  219.3700 C   0  0  0  0  0  0  0  0  0  0  0  0
  146.2750   69.9020  219.3260 C   0  0  0  0  0  0  0  0  0  0  0  0
  145.1420   72.0740  219.3470 C   0  0  0  0  0  0  0  0  0  0  0  0
  143.8100   72.6320  218.9410 C   0  0  0  0  0  0  0  0  0  0  0  0
  142.7460   71.9960  219.6990 N   0  0  0  0  0  0  0  0  0  0  0  0
  141.9080   72.6710  220.6060 C   0  0  0  0  0  0  0  0  0  0  0  0
  141.1110   72.0290  221.5300 C   0  0  0  0  0  0  0  0  0  0  0  0
  140.2890   72.7010  222.4160 C   0  0  0  0  0  0  0  0  0  0  0  0
  139.4830   71.9790  223.3520 N   0  0  0  0  0  0  0  0  0  0  0  0
  140.0380   70.7520  223.8740 C   0  0  2  0  0  0  0  0  0  0  0  0
  139.1280   69.5790  223.7810 C   0  0  0  0  0  0  0  0  0  0  0  0
  138.9630   68.9870  225.1550 C   0  0  0  0  0  0  0  0  0  0  0  0
  139.7000   69.9050  226.0500 C   0  0  0  0  0  0  0  0  0  0  0  0
  139.8480   69.8940  227.4190 C   0  0  0  0  0  0  0  0  0  0  0  0
  140.5880   70.8670  228.0110 C   0  0  0  0  0  0  0  0  0  0  0  0
  141.2140   71.8870  227.3180 C   0  0  0  0  0  0  0  0  0  0  0  0
  141.0640   71.8980  225.9450 C   0  0  0  0  0  0  0  0  0  0  0  0
  140.3070   70.9040  225.3170 C   0  0  0  0  0  0  0  0  0  0  0  0
  140.2960   74.0440  222.3440 N   0  0  0  0  0  0  0  0  0  0  0  0
  141.0740   74.7070  221.4430 C   0  0  0  0  0  0  0  0  0  0  0  0
  141.0150   76.1280  221.4400 N   0  0  0  0  0  0  0  0  0  0  0  0
  140.9110   76.8370  220.1800 C   0  0  0  0  0  0  0  0  0  0  0  0
  142.0940   77.8160  220.1830 C   0  0  0  0  0  0  0  0  0  0  0  0
  141.7730   78.7710  221.3000 C   0  0  0  0  0  0  0  0  0  0  0  0
  141.9730   80.1140  221.1090 C   0  0  0  0  0  0  0  0  0  0  0  0
  141.6860   81.0080  222.1230 C   0  0  0  0  0  0  0  0  0  0  0  0
  141.2010   80.5190  223.3060 C   0  0  0  0  0  0  0  0  0  0  0  0
  141.0040   79.1630  223.4850 C   0  0  0  0  0  0  0  0  0  0  0  0
  141.2900   78.2520  222.4730 C   0  0  0  0  0  0  0  0  0  0  0  0
  141.0620   76.8050  222.7110 C   0  0  0  0  0  0  0  0  0  0  0  0
  141.8580   74.0150  220.5980 N   0  0  0  0  0  0  0  0  0  0  0  0
  142.5740   70.5680  219.4820 C   0  0  0  0  0  0  0  0  0  0  0  0
  147.2842   67.9927  219.3065 H   0  0  0  0  0  0  0  0  0  0  0  0
  145.1529   66.7182  219.4161 H   0  0  0  0  0  0  0  0  0  0  0  0
  142.9921   67.9340  219.4979 H   0  0  0  0  0  0  0  0  0  0  0  0
  147.2155   70.4704  219.2775 H   0  0  0  0  0  0  0  0  0  0  0  0
  145.4062   72.4441  220.3486 H   0  0  0  0  0  0  0  0  0  0  0  0
  145.9111   72.3923  218.6278 H   0  0  0  0  0  0  0  0  0  0  0  0
  143.7959   73.7149  219.1338 H   0  0  0  0  0  0  0  0  0  0  0  0
  143.6519   72.4385  217.8698 H   0  0  0  0  0  0  0  0  0  0  0  0
  141.1299   70.9297  221.5640 H   0  0  0  0  0  0  0  0  0  0  0  0
  138.5390   72.3040  223.6570 H   0  0  0  0  0  0  0  0  0  0  0  0
  140.9350   70.5713  223.2634 H   0  0  0  0  0  0  0  0  0  0  0  0
  138.1488   69.8997  223.3959 H   0  0  0  0  0  0  0  0  0  0  0  0
  139.5521   68.8285  223.0977 H   0  0  0  0  0  0  0  0  0  0  0  0
  137.8998   68.9439  225.4337 H   0  0  0  0  0  0  0  0  0  0  0  0
  139.3422   67.9560  225.2124 H   0  0  0  0  0  0  0  0  0  0  0  0
  139.3735   69.1080  228.0248 H   0  0  0  0  0  0  0  0  0  0  0  0
  140.6956   70.8423  229.1054 H   0  0  0  0  0  0  0  0  0  0  0  0
  141.8053   72.6556  227.8373 H   0  0  0  0  0  0  0  0  0  0  0  0
  141.5398   72.6883  225.3458 H   0  0  0  0  0  0  0  0  0  0  0  0
  140.9885   76.1379  219.3343 H   0  0  0  0  0  0  0  0  0  0  0  0
  139.9453   77.3524  220.0717 H   0  0  0  0  0  0  0  0  0  0  0  0
  143.0384   77.2875  220.3797 H   0  0  0  0  0  0  0  0  0  0  0  0
  142.2256   78.3240  219.2163 H   0  0  0  0  0  0  0  0  0  0  0  0
  142.3623   80.4802  220.1476 H   0  0  0  0  0  0  0  0  0  0  0  0
  141.8436   82.0876  221.9827 H   0  0  0  0  0  0  0  0  0  0  0  0
  140.9650   81.2145  224.1249 H   0  0  0  0  0  0  0  0  0  0  0  0
  140.6136   78.7968  224.4460 H   0  0  0  0  0  0  0  0  0  0  0  0
  141.8834   76.3960  223.3177 H   0  0  0  0  0  0  0  0  0  0  0  0
  140.1131   76.6591  223.2479 H   0  0  0  0  0  0  0  0  0  0  0  0
  141.9791   70.1465  220.3057 H   0  0  0  0  0  0  0  0  0  0  0  0
  142.0584   70.4153  218.5224 H   0  0  0  0  0  0  0  0  0  0  0  0
  1  2  2  0
  2  3  1  0
  3  4  2  0
  4  5  1  0
  5  6  2  0
  5  7  1  0
  7  8  1  0
  8  9  1  0
  9 10  1  0
 10 11  2  0
 11 12  1  0
 12 13  1  0
 13 14  1  0
 14 15  1  0
 15 16  1  0
 16 17  1  0
 17 18  2  0
 18 19  1  0
 19 20  2  0
 20 21  1  0
 21 22  2  0
 12 23  2  0
 23 24  1  0
 24 25  1  0
 25 26  1  0
 26 27  1  0
 27 28  1  0
 28 29  2  0
 29 30  1  0
 30 31  2  0
 31 32  1  0
 32 33  2  0
 33 34  1  0
 24 35  2  0
  9 36  1  0
  6  1  1  0
 35 10  1  0
 36  4  1  0
 22 14  1  0
 34 25  1  0
 22 17  1  0
 33 28  1  0
  1 37  1  0
  2 38  1  0
  3 39  1  0
  6 40  1  0
  7 41  1  0
  7 42  1  0
  8 43  1  0
  8 44  1  0
 11 45  1  0
 13 46  1  0
 14 47  1  6
 15 48  1  0
 15 49  1  0
 16 50  1  0
 16 51  1  0
 18 52  1  0
 19 53  1  0
 20 54  1  0
 21 55  1  0
 26 56  1  0
 26 57  1  0
 27 58  1  0
 27 59  1  0
 29 60  1  0
 30 61  1  0
 31 62  1  0
 32 63  1  0
 34 64  1  0
 34 65  1  0
 36 66  1  0
 36 67  1  0
M  END
>  <smiles>  (13) 
c1ccc2c(c1)CCN(c1cc(N[C@@H]3CCc4ccccc43)nc(N3CCc4ccccc4C3)n1)C2

>  <score_type>  (13) 
oracle

>  <origin>  (13) 
autodockgpu

>  <m_score__min__energy>  (13) 
-11.73

>  <m_primary>  (13) 
energy

>  <rmsd>  (13) 
10.343025286652184

>  <m_score__min__rmsd>  (13) 
10.343025286652184

>  <meeko>  (13) 
{"free_energy": -11.73, "intermolecular_energy": -12.92, "internal_energy": -1.2, "cluster_size": 49, "cluster_id": 1, "rank_in_cluster": 1}

>  <energy>  (13) 
-11.71

>  <cluster_rmsd>  (13) 
0.03

>  <cluster>  (13) 
1

$$$$

     RDKit          3D

 67 73  0  0  0  0  0  0  0  0999 V2000
  140.4360   67.9120  226.0980 C   0  0  0  0  0  0  0  0  0  0  0  0
  141.2580   68.8880  226.6100 C   0  0  0  0  0  0  0  0  0  0  0  0
  141.2090   70.1710  226.0890 C   0  0  0  0  0  0  0  0  0  0  0  0
  140.3470   70.4860  225.0600 C   0  0  0  0  0  0  0  0  0  0  0  0
  139.5240   69.5280  224.5420 C   0  0  0  0  0  0  0  0  0  0  0  0
  139.5740   68.2370  225.0680 C   0  0  0  0  0  0  0  0  0  0  0  0
  138.5580   69.7550  223.4360 C   0  0  0  0  0  0  0  0  0  0  0  0
  138.2960   71.2270  223.3060 C   0  0  0  0  0  0  0  0  0  0  0  0
  139.5490   71.9620  223.3090 N   0  0  0  0  0  0  0  0  0  0  0  0
  140.0270   72.7150  222.2190 C   0  0  0  0  0  0  0  0  0  0  0  0
  140.3850   72.1620  221.0090 C   0  0  0  0  0  0  0  0  0  0  0  0
  140.8550   72.9100  219.9450 C   0  0  0  0  0  0  0  0  0  0  0  0
  141.2120   72.2780  218.7120 N   0  0  0  0  0  0  0  0  0  0  0  0
  142.5830   71.8440  218.5790 C   0  0  2  0  0  0  0  0  0  0  0  0
  142.8620   70.5050  219.1640 C   0  0  0  0  0  0  0  0  0  0  0  0
  143.9860   70.6370  220.1560 C   0  0  0  0  0  0  0  0  0  0  0  0
  144.2670   72.0870  220.2130 C   0  0  0  0  0  0  0  0  0  0  0  0
  145.1580   72.7970  220.9870 C   0  0  0  0  0  0  0  0  0  0  0  0
  145.2250   74.1460  220.8480 C   0  0  0  0  0  0  0  0  0  0  0  0
  144.4450   74.8690  219.9630 C   0  0  0  0  0  0  0  0  0  0  0  0
  143.5520   74.1560  219.1870 C   0  0  0  0  0  0  0  0  0  0  0  0
  143.4680   72.7660  219.3170 C   0  0  0  0  0  0  0  0  0  0  0  0
  140.9540   74.2370  220.1390 N   0  0  0  0  0  0  0  0  0  0  0  0
  140.6070   74.8140  221.3240 C   0  0  0  0  0  0  0  0  0  0  0  0
  140.7450   76.2250  221.4360 N   0  0  0  0  0  0  0  0  0  0  0  0
  140.5680   77.0570  220.2630 C   0  0  0  0  0  0  0  0  0  0  0  0
  141.8630   77.8750  220.1640 C   0  0  0  0  0  0  0  0  0  0  0  0
  141.8340   78.7520  221.3850 C   0  0  0  0  0  0  0  0  0  0  0  0
  142.1900   80.0710  221.2670 C   0  0  0  0  0  0  0  0  0  0  0  0
  142.1710   80.8960  222.3770 C   0  0  0  0  0  0  0  0  0  0  0  0
  141.7900   80.3620  223.5790 C   0  0  0  0  0  0  0  0  0  0  0  0
  141.4340   79.0310  223.6830 C   0  0  0  0  0  0  0  0  0  0  0  0
  141.4490   78.1900  222.5740 C   0  0  0  0  0  0  0  0  0  0  0  0
  141.0590   76.7670  222.7340 C   0  0  0  0  0  0  0  0  0  0  0  0
  140.1540   74.0500  222.3340 N   0  0  0  0  0  0  0  0  0  0  0  0
  140.3330   71.8840  224.5320 C   0  0  0  0  0  0  0  0  0  0  0  0
  140.4641   66.8891  226.5017 H   0  0  0  0  0  0  0  0  0  0  0  0
  141.9519   68.6512  227.4301 H   0  0  0  0  0  0  0  0  0  0  0  0
  141.8672   70.9494  226.5023 H   0  0  0  0  0  0  0  0  0  0  0  0
  138.9132   67.4611  224.6540 H   0  0  0  0  0  0  0  0  0  0  0  0
  138.9790   69.3714  222.4949 H   0  0  0  0  0  0  0  0  0  0  0  0
  137.6165   69.2292  223.6530 H   0  0  0  0  0  0  0  0  0  0  0  0
  137.7642   71.4194  222.3625 H   0  0  0  0  0  0  0  0  0  0  0  0
  137.6833   71.5589  224.1571 H   0  0  0  0  0  0  0  0  0  0  0  0
  140.2925   71.0731  220.8832 H   0  0  0  0  0  0  0  0  0  0  0  0
  140.5330   72.1290  217.9330 H   0  0  0  0  0  0  0  0  0  0  0  0
  142.7615   71.8163  217.4939 H   0  0  0  0  0  0  0  0  0  0  0  0
  141.9621   70.1282  219.6721 H   0  0  0  0  0  0  0  0  0  0  0  0
  143.1448   69.7998  218.3686 H   0  0  0  0  0  0  0  0  0  0  0  0
  143.6781   70.2623  221.1433 H   0  0  0  0  0  0  0  0  0  0  0  0
  144.8707   70.0526  219.8631 H   0  0  0  0  0  0  0  0  0  0  0  0
  145.8066   72.2781  221.7081 H   0  0  0  0  0  0  0  0  0  0  0  0
  145.9413   74.6963  221.4758 H   0  0  0  0  0  0  0  0  0  0  0  0
  144.5321   75.9625  219.8810 H   0  0  0  0  0  0  0  0  0  0  0  0
  142.9072   74.6812  218.4671 H   0  0  0  0  0  0  0  0  0  0  0  0
  140.4318   76.4367  219.3648 H   0  0  0  0  0  0  0  0  0  0  0  0
  139.6769   77.6975  220.3386 H   0  0  0  0  0  0  0  0  0  0  0  0
  142.7436   77.2160  220.1769 H   0  0  0  0  0  0  0  0  0  0  0  0
  141.9287   78.4521  219.2299 H   0  0  0  0  0  0  0  0  0  0  0  0
  142.4910   80.4734  220.2885 H   0  0  0  0  0  0  0  0  0  0  0  0
  142.4551   81.9556  222.2962 H   0  0  0  0  0  0  0  0  0  0  0  0
  141.7670   81.0013  224.4738 H   0  0  0  0  0  0  0  0  0  0  0  0
  141.1329   78.6281  224.6613 H   0  0  0  0  0  0  0  0  0  0  0  0
  141.8918   76.2028  223.1791 H   0  0  0  0  0  0  0  0  0  0  0  0
  140.1823   76.6907  223.3940 H   0  0  0  0  0  0  0  0  0  0  0  0
  141.3649   72.2009  224.3206 H   0  0  0  0  0  0  0  0  0  0  0  0
  139.8793   72.5434  225.2866 H   0  0  0  0  0  0  0  0  0  0  0  0
  1  2  2  0
  2  3  1  0
  3  4  2  0
  4  5  1  0
  5  6  2  0
  5  7  1  0
  7  8  1  0
  8  9  1  0
  9 10  1  0
 10 11  2  0
 11 12  1  0
 12 13  1  0
 13 14  1  0
 14 15  1  0
 15 16  1  0
 16 17  1  0
 17 18  2  0
 18 19  1  0
 19 20  2  0
 20 21  1  0
 21 22  2  0
 12 23  2  0
 23 24  1  0
 24 25  1  0
 25 26  1  0
 26 27  1  0
 27 28  1  0
 28 29  2  0
 29 30  1  0
 30 31  2  0
 31 32  1  0
 32 33  2  0
 33 34  1  0
 24 35  2  0
  9 36  1  0
  6  1  1  0
 35 10  1  0
 36  4  1  0
 22 14  1  0
 34 25  1  0
 22 17  1  0
 33 28  1  0
  1 37  1  0
  2 38  1  0
  3 39  1  0
  6 40  1  0
  7 41  1  0
  7 42  1  0
  8 43  1  0
  8 44  1  0
 11 45  1  0
 13 46  1  0
 14 47  1  6
 15 48  1  0
 15 49  1  0
 16 50  1  0
 16 51  1  0
 18 52  1  0
 19 53  1  0
 20 54  1  0
 21 55  1  0
 26 56  1  0
 26 57  1  0
 27 58  1  0
 27 59  1  0
 29 60  1  0
 30 61  1  0
 31 62  1  0
 32 63  1  0
 34 64  1  0
 34 65  1  0
 36 66  1  0
 36 67  1  0
M  END
>  <smiles>  (14) 
c1ccc2c(c1)CCN(c1cc(N[C@@H]3CCc4ccccc43)nc(N3CCc4ccccc4C3)n1)C2

>  <score_type>  (14) 
oracle

>  <origin>  (14) 
autodockgpu

>  <m_score__min__energy>  (14) 
-11.73

>  <m_primary>  (14) 
energy

>  <rmsd>  (14) 
8.811491235332587

>  <m_score__min__rmsd>  (14) 
8.811491235332587

>  <meeko>  (14) 
{"free_energy": -10.27, "intermolecular_energy": -11.47, "internal_energy": -1.79, "cluster_size": 49, "cluster_id": 1, "rank_in_cluster": 38}

>  <energy>  (14) 
-11.71

>  <cluster_rmsd>  (14) 
0.04

>  <cluster>  (14) 
1

$$$$

     RDKit          3D

 67 73  0  0  0  0  0  0  0  0999 V2000
  146.2880   68.4950  219.3250 C   0  0  0  0  0  0  0  0  0  0  0  0
  145.1050   67.7960  219.3910 C   0  0  0  0  0  0  0  0  0  0  0  0
  143.9020   68.4830  219.4380 C   0  0  0  0  0  0  0  0  0  0  0  0
  143.8720   69.8620  219.4190 C   0  0  0  0  0  0  0  0  0  0  0  0
  145.0380   70.5690  219.3530 C   0  0  0  0  0  0  0  0  0  0  0  0
  146.2470   69.8760  219.3060 C   0  0  0  0  0  0  0  0  0  0  0  0
  145.1230   72.0520  219.3280 C   0  0  0  0  0  0  0  0  0  0  0  0
  143.7920   72.6150  218.9240 C   0  0  0  0  0  0  0  0  0  0  0  0
  142.7280   71.9830  219.6870 N   0  0  0  0  0  0  0  0  0  0  0  0
  141.8960   72.6630  220.5960 C   0  0  0  0  0  0  0  0  0  0  0  0
  141.0960   72.0270  221.5210 C   0  0  0  0  0  0  0  0  0  0  0  0
  140.2800   72.7030  222.4080 C   0  0  0  0  0  0  0  0  0  0  0  0
  139.4710   71.9860  223.3460 N   0  0  0  0  0  0  0  0  0  0  0  0
  140.0180   70.7530  223.8630 C   0  0  2  0  0  0  0  0  0  0  0  0
  139.0990   69.5870  223.7680 C   0  0  0  0  0  0  0  0  0  0  0  0
  138.9320   68.9920  225.1410 C   0  0  0  0  0  0  0  0  0  0  0  0
  139.6770   69.9020  226.0370 C   0  0  0  0  0  0  0  0  0  0  0  0
  139.8280   69.8860  227.4060 C   0  0  0  0  0  0  0  0  0  0  0  0
  140.5760   70.8520  227.9990 C   0  0  0  0  0  0  0  0  0  0  0  0
  141.2080   71.8690  227.3080 C   0  0  0  0  0  0  0  0  0  0  0  0
  141.0560   71.8850  225.9360 C   0  0  0  0  0  0  0  0  0  0  0  0
  140.2900   70.8990  225.3060 C   0  0  0  0  0  0  0  0  0  0  0  0
  140.2940   74.0460  222.3370 N   0  0  0  0  0  0  0  0  0  0  0  0
  141.0750   74.7050  221.4340 C   0  0  0  0  0  0  0  0  0  0  0  0
  141.0240   76.1260  221.4310 N   0  0  0  0  0  0  0  0  0  0  0  0
  140.9520   76.8370  220.1710 C   0  0  0  0  0  0  0  0  0  0  0  0
  142.1400   77.8090  220.2000 C   0  0  0  0  0  0  0  0  0  0  0  0
  141.8000   78.7640  221.3120 C   0  0  0  0  0  0  0  0  0  0  0  0
  142.0120   80.1060  221.1260 C   0  0  0  0  0  0  0  0  0  0  0  0
  141.7080   81.0020  222.1340 C   0  0  0  0  0  0  0  0  0  0  0  0
  141.1940   80.5140  223.3060 C   0  0  0  0  0  0  0  0  0  0  0  0
  140.9850   79.1590  223.4790 C   0  0  0  0  0  0  0  0  0  0  0  0
  141.2880   78.2470  222.4730 C   0  0  0  0  0  0  0  0  0  0  0  0
  141.0470   76.8010  222.7040 C   0  0  0  0  0  0  0  0  0  0  0  0
  141.8540   74.0080  220.5880 N   0  0  0  0  0  0  0  0  0  0  0  0
  142.5500   70.5560  219.4730 C   0  0  0  0  0  0  0  0  0  0  0  0
  147.2503   67.9635  219.2880 H   0  0  0  0  0  0  0  0  0  0  0  0
  145.1137   66.6961  219.4064 H   0  0  0  0  0  0  0  0  0  0  0  0
  142.9581   67.9207  219.4912 H   0  0  0  0  0  0  0  0  0  0  0  0
  147.1891   70.4413  219.2526 H   0  0  0  0  0  0  0  0  0  0  0  0
  145.3908   72.4222  220.3286 H   0  0  0  0  0  0  0  0  0  0  0  0
  145.8919   72.3663  218.6069 H   0  0  0  0  0  0  0  0  0  0  0  0
  143.7824   73.6982  219.1151 H   0  0  0  0  0  0  0  0  0  0  0  0
  143.6301   72.4215  217.8533 H   0  0  0  0  0  0  0  0  0  0  0  0
  141.1077   70.9276  221.5547 H   0  0  0  0  0  0  0  0  0  0  0  0
  138.5300   72.3170  223.6550 H   0  0  0  0  0  0  0  0  0  0  0  0
  140.9126   70.5672  223.2504 H   0  0  0  0  0  0  0  0  0  0  0  0
  138.1215   69.9161  223.3856 H   0  0  0  0  0  0  0  0  0  0  0  0
  139.5162   68.8354  223.0816 H   0  0  0  0  0  0  0  0  0  0  0  0
  137.8690   68.9557  225.4215 H   0  0  0  0  0  0  0  0  0  0  0  0
  139.3038   67.9581  225.1948 H   0  0  0  0  0  0  0  0  0  0  0  0
  139.3493   69.1016  228.0106 H   0  0  0  0  0  0  0  0  0  0  0  0
  140.6854   70.8236  229.0932 H   0  0  0  0  0  0  0  0  0  0  0  0
  141.8056   72.6318  227.8285 H   0  0  0  0  0  0  0  0  0  0  0  0
  141.5373   72.6732  225.3384 H   0  0  0  0  0  0  0  0  0  0  0  0
  141.0435   76.1384  219.3262 H   0  0  0  0  0  0  0  0  0  0  0  0
  139.9920   77.3587  220.0432 H   0  0  0  0  0  0  0  0  0  0  0  0
  143.0772   77.2750  220.4157 H   0  0  0  0  0  0  0  0  0  0  0  0
  142.2953   78.3175  219.2371 H   0  0  0  0  0  0  0  0  0  0  0  0
  142.4245   80.4701  220.1735 H   0  0  0  0  0  0  0  0  0  0  0  0
  141.8749   82.0807  221.9981 H   0  0  0  0  0  0  0  0  0  0  0  0
  140.9442   81.2099  224.1204 H   0  0  0  0  0  0  0  0  0  0  0  0
  140.5710   78.7944  224.4307 H   0  0  0  0  0  0  0  0  0  0  0  0
  141.8527   76.3867  223.3279 H   0  0  0  0  0  0  0  0  0  0  0  0
  140.0859   76.6595  223.2200 H   0  0  0  0  0  0  0  0  0  0  0  0
  141.9561   70.1381  220.2993 H   0  0  0  0  0  0  0  0  0  0  0  0
  142.0308   70.4037  218.5153 H   0  0  0  0  0  0  0  0  0  0  0  0
  1  2  2  0
  2  3  1  0
  3  4  2  0
  4  5  1  0
  5  6  2  0
  5  7  1  0
  7  8  1  0
  8  9  1  0
  9 10  1  0
 10 11  2  0
 11 12  1  0
 12 13  1  0
 13 14  1  0
 14 15  1  0
 15 16  1  0
 16 17  1  0
 17 18  2  0
 18 19  1  0
 19 20  2  0
 20 21  1  0
 21 22  2  0
 12 23  2  0
 23 24  1  0
 24 25  1  0
 25 26  1  0
 26 27  1  0
 27 28  1  0
 28 29  2  0
 29 30  1  0
 30 31  2  0
 31 32  1  0
 32 33  2  0
 33 34  1  0
 24 35  2  0
  9 36  1  0
  6  1  1  0
 35 10  1  0
 36  4  1  0
 22 14  1  0
 34 25  1  0
 22 17  1  0
 33 28  1  0
  1 37  1  0
  2 38  1  0
  3 39  1  0
  6 40  1  0
  7 41  1  0
  7 42  1  0
  8 43  1  0
  8 44  1  0
 11 45  1  0
 13 46  1  0
 14 47  1  6
 15 48  1  0
 15 49  1  0
 16 50  1  0
 16 51  1  0
 18 52  1  0
 19 53  1  0
 20 54  1  0
 21 55  1  0
 26 56  1  0
 26 57  1  0
 27 58  1  0
 27 59  1  0
 29 60  1  0
 30 61  1  0
 31 62  1  0
 32 63  1  0
 34 64  1  0
 34 65  1  0
 36 66  1  0
 36 67  1  0
M  END
>  <smiles>  (15) 
c1ccc2c(c1)CCN(c1cc(N[C@@H]3CCc4ccccc43)nc(N3CCc4ccccc4C3)n1)C2

>  <score_type>  (15) 
oracle

>  <origin>  (15) 
autodockgpu

>  <m_score__min__energy>  (15) 
-11.73

>  <m_primary>  (15) 
energy

>  <rmsd>  (15) 
10.344818922033998

>  <m_score__min__rmsd>  (15) 
10.344818922033998

>  <meeko>  (15) 
{"free_energy": -11.71, "intermolecular_energy": -12.91, "internal_energy": -1.2, "cluster_size": 49, "cluster_id": 1, "rank_in_cluster": 6}

>  <energy>  (15) 
-11.71

>  <cluster_rmsd>  (15) 
0.06

>  <cluster>  (15) 
1

$$$$

     RDKit          3D

 67 73  0  0  0  0  0  0  0  0999 V2000
  146.0140   68.0170  219.3380 C   0  0  0  0  0  0  0  0  0  0  0  0
  144.7970   67.3800  219.3950 C   0  0  0  0  0  0  0  0  0  0  0  0
  143.6310   68.1270  219.4390 C   0  0  0  0  0  0  0  0  0  0  0  0
  143.6710   69.5050  219.4260 C   0  0  0  0  0  0  0  0  0  0  0  0
  144.8720   70.1520  219.3690 C   0  0  0  0  0  0  0  0  0  0  0  0
  146.0450   69.3980  219.3250 C   0  0  0  0  0  0  0  0  0  0  0  0
  145.0320   71.6290  219.3500 C   0  0  0  0  0  0  0  0  0  0  0  0
  143.7340   72.2600  218.9430 C   0  0  0  0  0  0  0  0  0  0  0  0
  142.6350   71.6810  219.6970 N   0  0  0  0  0  0  0  0  0  0  0  0
  141.8340   72.3990  220.6050 C   0  0  0  0  0  0  0  0  0  0  0  0
  141.0840   71.8030  221.5960 C   0  0  0  0  0  0  0  0  0  0  0  0
  140.2980   72.5160  222.4830 C   0  0  0  0  0  0  0  0  0  0  0  0
  139.5410   71.8410  223.4920 N   0  0  0  0  0  0  0  0  0  0  0  0
  140.1320   70.6500  224.0560 C   0  0  2  0  0  0  0  0  0  0  0  0
  139.2660   69.4430  223.9830 C   0  0  0  0  0  0  0  0  0  0  0  0
  139.1010   68.8830  225.3710 C   0  0  0  0  0  0  0  0  0  0  0  0
  139.7900   69.8520  226.2500 C   0  0  0  0  0  0  0  0  0  0  0  0
  139.9170   69.8840  227.6200 C   0  0  0  0  0  0  0  0  0  0  0  0
  140.6120   70.9000  228.1950 C   0  0  0  0  0  0  0  0  0  0  0  0
  141.2120   71.9230  227.4830 C   0  0  0  0  0  0  0  0  0  0  0  0
  141.0840   71.8890  226.1080 C   0  0  0  0  0  0  0  0  0  0  0  0
  140.3720   70.8520  225.4980 C   0  0  0  0  0  0  0  0  0  0  0  0
  140.2910   73.8540  222.3390 N   0  0  0  0  0  0  0  0  0  0  0  0
  141.0220   74.4720  221.3690 C   0  0  0  0  0  0  0  0  0  0  0  0
  140.9510   75.8900  221.2940 N   0  0  0  0  0  0  0  0  0  0  0  0
  140.9610   76.5400  219.9980 C   0  0  0  0  0  0  0  0  0  0  0  0
  142.1290   77.5330  220.0660 C   0  0  0  0  0  0  0  0  0  0  0  0
  141.6970   78.5330  221.1020 C   0  0  0  0  0  0  0  0  0  0  0  0
  141.9020   79.8690  220.8670 C   0  0  0  0  0  0  0  0  0  0  0  0
  141.5130   80.8060  221.8060 C   0  0  0  0  0  0  0  0  0  0  0  0
  140.9230   80.3650  222.9600 C   0  0  0  0  0  0  0  0  0  0  0  0
  140.7210   79.0170  223.1840 C   0  0  0  0  0  0  0  0  0  0  0  0
  141.1090   78.0630  222.2470 C   0  0  0  0  0  0  0  0  0  0  0  0
  140.8720   76.6260  222.5310 C   0  0  0  0  0  0  0  0  0  0  0  0
  141.7730   73.7410  220.5270 N   0  0  0  0  0  0  0  0  0  0  0  0
  142.3860   70.2650  219.4760 C   0  0  0  0  0  0  0  0  0  0  0  0
  146.9477   67.4365  219.3033 H   0  0  0  0  0  0  0  0  0  0  0  0
  144.7492   66.2811  219.4057 H   0  0  0  0  0  0  0  0  0  0  0  0
  142.6594   67.6133  219.4850 H   0  0  0  0  0  0  0  0  0  0  0  0
  147.0153   69.9142  219.2790 H   0  0  0  0  0  0  0  0  0  0  0  0
  145.3139   71.9815  220.3531 H   0  0  0  0  0  0  0  0  0  0  0  0
  145.8188   71.9065  218.6331 H   0  0  0  0  0  0  0  0  0  0  0  0
  143.7788   73.3415  219.1389 H   0  0  0  0  0  0  0  0  0  0  0  0
  143.5679   72.0785  217.8709 H   0  0  0  0  0  0  0  0  0  0  0  0
  141.1119   70.7070  221.6858 H   0  0  0  0  0  0  0  0  0  0  0  0
  138.6070   72.1740  223.8190 H   0  0  0  0  0  0  0  0  0  0  0  0
  141.0444   70.4849  223.4642 H   0  0  0  0  0  0  0  0  0  0  0  0
  138.2820   69.7175  223.5751 H   0  0  0  0  0  0  0  0  0  0  0  0
  139.7271   68.6898  223.3272 H   0  0  0  0  0  0  0  0  0  0  0  0
  138.0358   68.8084  225.6353 H   0  0  0  0  0  0  0  0  0  0  0  0
  139.5163   67.8686  225.4630 H   0  0  0  0  0  0  0  0  0  0  0  0
  139.4622   69.0980  228.2408 H   0  0  0  0  0  0  0  0  0  0  0  0
  140.7029   70.9097  229.2912 H   0  0  0  0  0  0  0  0  0  0  0  0
  141.7661   72.7273  227.9890 H   0  0  0  0  0  0  0  0  0  0  0  0
  141.5422   72.6777  225.4932 H   0  0  0  0  0  0  0  0  0  0  0  0
  141.1242   75.8042  219.1968 H   0  0  0  0  0  0  0  0  0  0  0  0
  140.0055   77.0377  219.7759 H   0  0  0  0  0  0  0  0  0  0  0  0
  143.0554   77.0263  220.3742 H   0  0  0  0  0  0  0  0  0  0  0  0
  142.3459   77.9984  219.0932 H   0  0  0  0  0  0  0  0  0  0  0  0
  142.3767   80.1952  219.9298 H   0  0  0  0  0  0  0  0  0  0  0  0
  141.6736   81.8799  221.6302 H   0  0  0  0  0  0  0  0  0  0  0  0
  140.6053   81.0944  223.7196 H   0  0  0  0  0  0  0  0  0  0  0  0
  140.2446   78.6911  224.1204 H   0  0  0  0  0  0  0  0  0  0  0  0
  141.6359   76.2563  223.2308 H   0  0  0  0  0  0  0  0  0  0  0  0
  139.8780   76.4928  222.9829 H   0  0  0  0  0  0  0  0  0  0  0  0
  141.7672   69.8746  220.2974 H   0  0  0  0  0  0  0  0  0  0  0  0
  141.8651   70.1431  218.5148 H   0  0  0  0  0  0  0  0  0  0  0  0
  1  2  2  0
  2  3  1  0
  3  4  2  0
  4  5  1  0
  5  6  2  0
  5  7  1  0
  7  8  1  0
  8  9  1  0
  9 10  1  0
 10 11  2  0
 11 12  1  0
 12 13  1  0
 13 14  1  0
 14 15  1  0
 15 16  1  0
 16 17  1  0
 17 18  2  0
 18 19  1  0
 19 20  2  0
 20 21  1  0
 21 22  2  0
 12 23  2  0
 23 24  1  0
 24 25  1  0
 25 26  1  0
 26 27  1  0
 27 28  1  0
 28 29  2  0
 29 30  1  0
 30 31  2  0
 31 32  1  0
 32 33  2  0
 33 34  1  0
 24 35  2  0
  9 36  1  0
  6  1  1  0
 35 10  1  0
 36  4  1  0
 22 14  1  0
 34 25  1  0
 22 17  1  0
 33 28  1  0
  1 37  1  0
  2 38  1  0
  3 39  1  0
  6 40  1  0
  7 41  1  0
  7 42  1  0
  8 43  1  0
  8 44  1  0
 11 45  1  0
 13 46  1  0
 14 47  1  6
 15 48  1  0
 15 49  1  0
 16 50  1  0
 16 51  1  0
 18 52  1  0
 19 53  1  0
 20 54  1  0
 21 55  1  0
 26 56  1  0
 26 57  1  0
 27 58  1  0
 27 59  1  0
 29 60  1  0
 30 61  1  0
 31 62  1  0
 32 63  1  0
 34 64  1  0
 34 65  1  0
 36 66  1  0
 36 67  1  0
M  END
>  <smiles>  (16) 
c1ccc2c(c1)CCN(c1cc(N[C@@H]3CCc4ccccc43)nc(N3CCc4ccccc4C3)n1)C2

>  <score_type>  (16) 
oracle

>  <origin>  (16) 
autodockgpu

>  <m_score__min__energy>  (16) 
-11.73

>  <m_primary>  (16) 
energy

>  <rmsd>  (16) 
10.448070929174804

>  <m_score__min__rmsd>  (16) 
10.448070929174804

>  <meeko>  (16) 
{"free_energy": -11.61, "intermolecular_energy": -12.8, "internal_energy": -1.19, "cluster_size": 49, "cluster_id": 1, "rank_in_cluster": 31}

>  <energy>  (16) 
-11.7

>  <cluster_rmsd>  (16) 
0.09

>  <cluster>  (16) 
1

$$$$

     RDKit          3D

 67 73  0  0  0  0  0  0  0  0999 V2000
  146.3040   68.6030  219.3380 C   0  0  0  0  0  0  0  0  0  0  0  0
  145.1440   67.8710  219.4420 C   0  0  0  0  0  0  0  0  0  0  0  0
  143.9220   68.5240  219.4970 C   0  0  0  0  0  0  0  0  0  0  0  0
  143.8510   69.9000  219.4480 C   0  0  0  0  0  0  0  0  0  0  0  0
  144.9940   70.6390  219.3440 C   0  0  0  0  0  0  0  0  0  0  0  0
  146.2220   69.9810  219.2890 C   0  0  0  0  0  0  0  0  0  0  0  0
  145.0340   72.1230  219.2830 C   0  0  0  0  0  0  0  0  0  0  0  0
  143.6800   72.6370  218.8940 C   0  0  0  0  0  0  0  0  0  0  0  0
  142.6500   71.9920  219.6910 N   0  0  0  0  0  0  0  0  0  0  0  0
  141.8140   72.6680  220.6000 C   0  0  0  0  0  0  0  0  0  0  0  0
  141.0080   72.0270  221.5160 C   0  0  0  0  0  0  0  0  0  0  0  0
  140.1890   72.6990  222.4050 C   0  0  0  0  0  0  0  0  0  0  0  0
  139.3740   71.9780  223.3330 N   0  0  0  0  0  0  0  0  0  0  0  0
  139.9210   70.7470  223.8550 C   0  0  2  0  0  0  0  0  0  0  0  0
  138.9780   69.5970  223.8290 C   0  0  0  0  0  0  0  0  0  0  0  0
  138.8620   69.0370  225.2220 C   0  0  0  0  0  0  0  0  0  0  0  0
  139.6620   69.9540  226.0620 C   0  0  0  0  0  0  0  0  0  0  0  0
  139.8730   69.9670  227.4230 C   0  0  0  0  0  0  0  0  0  0  0  0
  140.6640   70.9320  227.9590 C   0  0  0  0  0  0  0  0  0  0  0  0
  141.2830   71.9210  227.2160 C   0  0  0  0  0  0  0  0  0  0  0  0
  141.0710   71.9070  225.8520 C   0  0  0  0  0  0  0  0  0  0  0  0
  140.2600   70.9220  225.2810 C   0  0  0  0  0  0  0  0  0  0  0  0
  140.2080   74.0430  222.3420 N   0  0  0  0  0  0  0  0  0  0  0  0
  140.9940   74.7060  221.4480 C   0  0  0  0  0  0  0  0  0  0  0  0
  140.9480   76.1270  221.4550 N   0  0  0  0  0  0  0  0  0  0  0  0
  140.7770   76.8440  220.2080 C   0  0  0  0  0  0  0  0  0  0  0  0
  141.9660   77.8130  220.1460 C   0  0  0  0  0  0  0  0  0  0  0  0
  141.7190   78.7640  221.2850 C   0  0  0  0  0  0  0  0  0  0  0  0
  141.9190   80.1060  221.0890 C   0  0  0  0  0  0  0  0  0  0  0  0
  141.6990   80.9980  222.1220 C   0  0  0  0  0  0  0  0  0  0  0  0
  141.2790   80.5070  223.3290 C   0  0  0  0  0  0  0  0  0  0  0  0
  141.0810   79.1510  223.5120 C   0  0  0  0  0  0  0  0  0  0  0  0
  141.3000   78.2430  222.4810 C   0  0  0  0  0  0  0  0  0  0  0  0
  141.0740   76.7960  222.7250 C   0  0  0  0  0  0  0  0  0  0  0  0
  141.7760   74.0130  220.6010 N   0  0  0  0  0  0  0  0  0  0  0  0
  142.5100   70.5560  219.5120 C   0  0  0  0  0  0  0  0  0  0  0  0
  147.2809   68.0992  219.2946 H   0  0  0  0  0  0  0  0  0  0  0  0
  145.1856   66.7725  219.4814 H   0  0  0  0  0  0  0  0  0  0  0  0
  142.9962   67.9359  219.5809 H   0  0  0  0  0  0  0  0  0  0  0  0
  147.1458   70.5722  219.2047 H   0  0  0  0  0  0  0  0  0  0  0  0
  145.3106   72.5245  220.2691 H   0  0  0  0  0  0  0  0  0  0  0  0
  145.7785   72.4424  218.5389 H   0  0  0  0  0  0  0  0  0  0  0  0
  143.6419   73.7235  219.0616 H   0  0  0  0  0  0  0  0  0  0  0  0
  143.5034   72.4144  217.8313 H   0  0  0  0  0  0  0  0  0  0  0  0
  141.0165   70.9273  221.5412 H   0  0  0  0  0  0  0  0  0  0  0  0
  138.4280   72.3040  223.6320 H   0  0  0  0  0  0  0  0  0  0  0  0
  140.7836   70.5294  223.2081 H   0  0  0  0  0  0  0  0  0  0  0  0
  137.9904   69.9357  223.4827 H   0  0  0  0  0  0  0  0  0  0  0  0
  139.3505   68.8220  223.1430 H   0  0  0  0  0  0  0  0  0  0  0  0
  137.8121   69.0268  225.5500 H   0  0  0  0  0  0  0  0  0  0  0  0
  139.2177   67.9980  225.2842 H   0  0  0  0  0  0  0  0  0  0  0  0
  139.4073   69.2063  228.0668 H   0  0  0  0  0  0  0  0  0  0  0  0
  140.8217   70.9269  229.0476 H   0  0  0  0  0  0  0  0  0  0  0  0
  141.9162   72.6848  227.6910 H   0  0  0  0  0  0  0  0  0  0  0  0
  141.5402   72.6709  225.2145 H   0  0  0  0  0  0  0  0  0  0  0  0
  140.7986   76.1492  219.3555 H   0  0  0  0  0  0  0  0  0  0  0  0
  139.8113   77.3684  220.1599 H   0  0  0  0  0  0  0  0  0  0  0  0
  142.9160   77.2758  220.2839 H   0  0  0  0  0  0  0  0  0  0  0  0
  142.0450   78.3253  219.1758 H   0  0  0  0  0  0  0  0  0  0  0  0
  142.2551   80.4736  220.1082 H   0  0  0  0  0  0  0  0  0  0  0  0
  141.8577   82.0769  221.9776 H   0  0  0  0  0  0  0  0  0  0  0  0
  141.0968   81.2000  224.1636 H   0  0  0  0  0  0  0  0  0  0  0  0
  140.7436   78.7828  224.4921 H   0  0  0  0  0  0  0  0  0  0  0  0
  141.9256   76.3770  223.2811 H   0  0  0  0  0  0  0  0  0  0  0  0
  140.1568   76.6545  223.3156 H   0  0  0  0  0  0  0  0  0  0  0  0
  141.9441   70.1398  220.3585 H   0  0  0  0  0  0  0  0  0  0  0  0
  141.9776   70.3668  218.5682 H   0  0  0  0  0  0  0  0  0  0  0  0
  1  2  2  0
  2  3  1  0
  3  4  2  0
  4  5  1  0
  5  6  2  0
  5  7  1  0
  7  8  1  0
  8  9  1  0
  9 10  1  0
 10 11  2  0
 11 12  1  0
 12 13  1  0
 13 14  1  0
 14 15  1  0
 15 16  1  0
 16 17  1  0
 17 18  2  0
 18 19  1  0
 19 20  2  0
 20 21  1  0
 21 22  2  0
 12 23  2  0
 23 24  1  0
 24 25  1  0
 25 26  1  0
 26 27  1  0
 27 28  1  0
 28 29  2  0
 29 30  1  0
 30 31  2  0
 31 32  1  0
 32 33  2  0
 33 34  1  0
 24 35  2  0
  9 36  1  0
  6  1  1  0
 35 10  1  0
 36  4  1  0
 22 14  1  0
 34 25  1  0
 22 17  1  0
 33 28  1  0
  1 37  1  0
  2 38  1  0
  3 39  1  0
  6 40  1  0
  7 41  1  0
  7 42  1  0
  8 43  1  0
  8 44  1  0
 11 45  1  0
 13 46  1  0
 14 47  1  6
 15 48  1  0
 15 49  1  0
 16 50  1  0
 16 51  1  0
 18 52  1  0
 19 53  1  0
 20 54  1  0
 21 55  1  0
 26 56  1  0
 26 57  1  0
 27 58  1  0
 27 59  1  0
 29 60  1  0
 30 61  1  0
 31 62  1  0
 32 63  1  0
 34 64  1  0
 34 65  1  0
 36 66  1  0
 36 67  1  0
M  END
>  <smiles>  (17) 
c1ccc2c(c1)CCN(c1cc(N[C@@H]3CCc4ccccc43)nc(N3CCc4ccccc4C3)n1)C2

>  <score_type>  (17) 
oracle

>  <origin>  (17) 
autodockgpu

>  <m_score__min__energy>  (17) 
-11.73

>  <m_primary>  (17) 
energy

>  <rmsd>  (17) 
10.319158171206574

>  <m_score__min__rmsd>  (17) 
10.319158171206574

>  <meeko>  (17) 
{"free_energy": -11.69, "intermolecular_energy": -12.88, "internal_energy": -1.22, "cluster_size": 49, "cluster_id": 1, "rank_in_cluster": 27}

>  <energy>  (17) 
-11.7

>  <cluster_rmsd>  (17) 
0.06

>  <cluster>  (17) 
1

$$$$

     RDKit          3D

 67 73  0  0  0  0  0  0  0  0999 V2000
  140.4120   67.8960  226.1060 C   0  0  0  0  0  0  0  0  0  0  0  0
  141.2570   68.8590  226.6040 C   0  0  0  0  0  0  0  0  0  0  0  0
  141.2180   70.1430  226.0840 C   0  0  0  0  0  0  0  0  0  0  0  0
  140.3410   70.4720  225.0720 C   0  0  0  0  0  0  0  0  0  0  0  0
  139.4950   69.5270  224.5680 C   0  0  0  0  0  0  0  0  0  0  0  0
  139.5360   68.2350  225.0920 C   0  0  0  0  0  0  0  0  0  0  0  0
  138.5130   69.7700  223.4810 C   0  0  0  0  0  0  0  0  0  0  0  0
  138.2700   71.2450  223.3570 C   0  0  0  0  0  0  0  0  0  0  0  0
  139.5340   71.9620  223.3370 N   0  0  0  0  0  0  0  0  0  0  0  0
  140.0030   72.7090  222.2400 C   0  0  0  0  0  0  0  0  0  0  0  0
  140.3610   72.1490  221.0330 C   0  0  0  0  0  0  0  0  0  0  0  0
  140.8220   72.8910  219.9610 C   0  0  0  0  0  0  0  0  0  0  0  0
  141.1790   72.2510  218.7320 N   0  0  0  0  0  0  0  0  0  0  0  0
  142.5540   71.8280  218.5980 C   0  0  2  0  0  0  0  0  0  0  0  0
  142.8470   70.4960  219.1890 C   0  0  0  0  0  0  0  0  0  0  0  0
  143.9730   70.6440  220.1770 C   0  0  0  0  0  0  0  0  0  0  0  0
  144.2410   72.0970  220.2240 C   0  0  0  0  0  0  0  0  0  0  0  0
  145.1280   72.8190  220.9910 C   0  0  0  0  0  0  0  0  0  0  0  0
  145.1820   74.1680  220.8440 C   0  0  0  0  0  0  0  0  0  0  0  0
  144.3930   74.8780  219.9580 C   0  0  0  0  0  0  0  0  0  0  0  0
  143.5030   74.1530  219.1890 C   0  0  0  0  0  0  0  0  0  0  0  0
  143.4330   72.7630  219.3270 C   0  0  0  0  0  0  0  0  0  0  0  0
  140.9110   74.2200  220.1430 N   0  0  0  0  0  0  0  0  0  0  0  0
  140.5640   74.8040  221.3250 C   0  0  0  0  0  0  0  0  0  0  0  0
  140.6920   76.2170  221.4250 N   0  0  0  0  0  0  0  0  0  0  0  0
  140.5600   77.0340  220.2350 C   0  0  0  0  0  0  0  0  0  0  0  0
  141.8550   77.8560  220.1780 C   0  0  0  0  0  0  0  0  0  0  0  0
  141.7730   78.7480  221.3850 C   0  0  0  0  0  0  0  0  0  0  0  0
  142.1280   80.0670  221.2660 C   0  0  0  0  0  0  0  0  0  0  0  0
  142.0610   80.9050  222.3630 C   0  0  0  0  0  0  0  0  0  0  0  0
  141.6340   80.3860  223.5550 C   0  0  0  0  0  0  0  0  0  0  0  0
  141.2790   79.0540  223.6620 C   0  0  0  0  0  0  0  0  0  0  0  0
  141.3430   78.1990  222.5650 C   0  0  0  0  0  0  0  0  0  0  0  0
  140.9520   76.7770  222.7270 C   0  0  0  0  0  0  0  0  0  0  0  0
  140.1200   74.0450  222.3420 N   0  0  0  0  0  0  0  0  0  0  0  0
  140.3380   71.8710  224.5450 C   0  0  0  0  0  0  0  0  0  0  0  0
  140.4326   66.8723  226.5079 H   0  0  0  0  0  0  0  0  0  0  0  0
  141.9613   68.6115  227.4119 H   0  0  0  0  0  0  0  0  0  0  0  0
  141.8964   70.9108  226.4843 H   0  0  0  0  0  0  0  0  0  0  0  0
  138.8565   67.4693  224.6896 H   0  0  0  0  0  0  0  0  0  0  0  0
  138.9110   69.3816  222.5319 H   0  0  0  0  0  0  0  0  0  0  0  0
  137.5680   69.2580  223.7152 H   0  0  0  0  0  0  0  0  0  0  0  0
  137.7235   71.4460  222.4238 H   0  0  0  0  0  0  0  0  0  0  0  0
  137.6781   71.5850  224.2196 H   0  0  0  0  0  0  0  0  0  0  0  0
  140.2759   71.0585  220.9165 H   0  0  0  0  0  0  0  0  0  0  0  0
  140.4980   72.0880  217.9570 H   0  0  0  0  0  0  0  0  0  0  0  0
  142.7293   71.7948  217.5126 H   0  0  0  0  0  0  0  0  0  0  0  0
  141.9522   70.1136  219.7020 H   0  0  0  0  0  0  0  0  0  0  0  0
  143.1339   69.7891  218.3966 H   0  0  0  0  0  0  0  0  0  0  0  0
  143.6715   70.2727  221.1676 H   0  0  0  0  0  0  0  0  0  0  0  0
  144.8620   70.0656  219.8852 H   0  0  0  0  0  0  0  0  0  0  0  0
  145.7838   72.3101  221.7128 H   0  0  0  0  0  0  0  0  0  0  0  0
  145.8952   74.7286  221.4662 H   0  0  0  0  0  0  0  0  0  0  0  0
  144.4704   75.9717  219.8692 H   0  0  0  0  0  0  0  0  0  0  0  0
  142.8503   74.6685  218.4691 H   0  0  0  0  0  0  0  0  0  0  0  0
  140.4625   76.4020  219.3400 H   0  0  0  0  0  0  0  0  0  0  0  0
  139.6644   77.6719  220.2666 H   0  0  0  0  0  0  0  0  0  0  0  0
  142.7368   77.2009  220.2352 H   0  0  0  0  0  0  0  0  0  0  0  0
  141.9566   78.4214  219.2399 H   0  0  0  0  0  0  0  0  0  0  0  0
  142.4668   80.4590  220.2956 H   0  0  0  0  0  0  0  0  0  0  0  0
  142.3444   81.9646  222.2799 H   0  0  0  0  0  0  0  0  0  0  0  0
  141.5724   81.0370  224.4395 H   0  0  0  0  0  0  0  0  0  0  0  0
  140.9396   78.6623  224.6323 H   0  0  0  0  0  0  0  0  0  0  0  0
  141.7683   76.2218  223.2122 H   0  0  0  0  0  0  0  0  0  0  0  0
  140.0497   76.7058  223.3521 H   0  0  0  0  0  0  0  0  0  0  0  0
  141.3706   72.1729  224.3154 H   0  0  0  0  0  0  0  0  0  0  0  0
  139.9074   72.5361  225.3081 H   0  0  0  0  0  0  0  0  0  0  0  0
  1  2  2  0
  2  3  1  0
  3  4  2  0
  4  5  1  0
  5  6  2  0
  5  7  1  0
  7  8  1  0
  8  9  1  0
  9 10  1  0
 10 11  2  0
 11 12  1  0
 12 13  1  0
 13 14  1  0
 14 15  1  0
 15 16  1  0
 16 17  1  0
 17 18  2  0
 18 19  1  0
 19 20  2  0
 20 21  1  0
 21 22  2  0
 12 23  2  0
 23 24  1  0
 24 25  1  0
 25 26  1  0
 26 27  1  0
 27 28  1  0
 28 29  2  0
 29 30  1  0
 30 31  2  0
 31 32  1  0
 32 33  2  0
 33 34  1  0
 24 35  2  0
  9 36  1  0
  6  1  1  0
 35 10  1  0
 36  4  1  0
 22 14  1  0
 34 25  1  0
 22 17  1  0
 33 28  1  0
  1 37  1  0
  2 38  1  0
  3 39  1  0
  6 40  1  0
  7 41  1  0
  7 42  1  0
  8 43  1  0
  8 44  1  0
 11 45  1  0
 13 46  1  0
 14 47  1  6
 15 48  1  0
 15 49  1  0
 16 50  1  0
 16 51  1  0
 18 52  1  0
 19 53  1  0
 20 54  1  0
 21 55  1  0
 26 56  1  0
 26 57  1  0
 27 58  1  0
 27 59  1  0
 29 60  1  0
 30 61  1  0
 31 62  1  0
 32 63  1  0
 34 64  1  0
 34 65  1  0
 36 66  1  0
 36 67  1  0
M  END
>  <smiles>  (18) 
c1ccc2c(c1)CCN(c1cc(N[C@@H]3CCc4ccccc43)nc(N3CCc4ccccc4C3)n1)C2

>  <score_type>  (18) 
oracle

>  <origin>  (18) 
autodockgpu

>  <m_score__min__energy>  (18) 
-11.73

>  <m_primary>  (18) 
energy

>  <rmsd>  (18) 
8.801800321775792

>  <m_score__min__rmsd>  (18) 
8.801800321775792

>  <meeko>  (18) 
{"free_energy": -10.25, "intermolecular_energy": -11.44, "internal_energy": -1.77, "cluster_size": 49, "cluster_id": 1, "rank_in_cluster": 46}

>  <energy>  (18) 
-11.7

>  <cluster_rmsd>  (18) 
0.05

>  <cluster>  (18) 
1

$$$$

     RDKit          3D

 67 73  0  0  0  0  0  0  0  0999 V2000
  140.0380   67.7780  226.8240 C   0  0  0  0  0  0  0  0  0  0  0  0
  140.8600   68.7520  227.3400 C   0  0  0  0  0  0  0  0  0  0  0  0
  140.9570   69.9780  226.7020 C   0  0  0  0  0  0  0  0  0  0  0  0
  140.2390   70.2390  225.5540 C   0  0  0  0  0  0  0  0  0  0  0  0
  139.4180   69.2820  225.0300 C   0  0  0  0  0  0  0  0  0  0  0  0
  139.3220   68.0480  225.6740 C   0  0  0  0  0  0  0  0  0  0  0  0
  138.6010   69.4540  223.8020 C   0  0  0  0  0  0  0  0  0  0  0  0
  138.4540   70.9180  223.5080 C   0  0  0  0  0  0  0  0  0  0  0  0
  139.7460   71.5780  223.5930 N   0  0  0  0  0  0  0  0  0  0  0  0
  140.3930   72.1930  222.5050 C   0  0  0  0  0  0  0  0  0  0  0  0
  141.1160   71.5010  221.5570 C   0  0  0  0  0  0  0  0  0  0  0  0
  141.7500   72.1130  220.4920 C   0  0  0  0  0  0  0  0  0  0  0  0
  142.4870   71.3400  219.5400 N   0  0  0  0  0  0  0  0  0  0  0  0
  143.9270   71.4330  219.6050 C   0  0  2  0  0  0  0  0  0  0  0  0
  144.5340   72.2990  218.5600 C   0  0  0  0  0  0  0  0  0  0  0  0
  145.5590   71.4960  217.8040 C   0  0  0  0  0  0  0  0  0  0  0  0
  145.4470   70.1300  218.3580 C   0  0  0  0  0  0  0  0  0  0  0  0
  146.1000   68.9670  218.0120 C   0  0  0  0  0  0  0  0  0  0  0  0
  145.8120   67.8230  218.6860 C   0  0  0  0  0  0  0  0  0  0  0  0
  144.8910   67.7460  219.7150 C   0  0  0  0  0  0  0  0  0  0  0  0
  144.2370   68.9120  220.0600 C   0  0  0  0  0  0  0  0  0  0  0  0
  144.5190   70.1000  219.3790 C   0  0  0  0  0  0  0  0  0  0  0  0
  141.6330   73.4510  220.4100 N   0  0  0  0  0  0  0  0  0  0  0  0
  140.9250   74.1640  221.3310 C   0  0  0  0  0  0  0  0  0  0  0  0
  140.8570   75.5740  221.1630 N   0  0  0  0  0  0  0  0  0  0  0  0
  140.9550   76.1420  219.8330 C   0  0  0  0  0  0  0  0  0  0  0  0
  142.1140   77.1450  219.9200 C   0  0  0  0  0  0  0  0  0  0  0  0
  141.6080   78.2050  220.8600 C   0  0  0  0  0  0  0  0  0  0  0  0
  141.8270   79.5250  220.5570 C   0  0  0  0  0  0  0  0  0  0  0  0
  141.3710   80.5150  221.4070 C   0  0  0  0  0  0  0  0  0  0  0  0
  140.7020   80.1430  222.5430 C   0  0  0  0  0  0  0  0  0  0  0  0
  140.4880   78.8090  222.8350 C   0  0  0  0  0  0  0  0  0  0  0  0
  140.9430   77.8020  221.9880 C   0  0  0  0  0  0  0  0  0  0  0  0
  140.6900   76.3840  222.3440 C   0  0  0  0  0  0  0  0  0  0  0  0
  140.3240   73.5280  222.3520 N   0  0  0  0  0  0  0  0  0  0  0  0
  140.3790   71.5770  224.9020 C   0  0  0  0  0  0  0  0  0  0  0  0
  139.9519   66.7995  227.3191 H   0  0  0  0  0  0  0  0  0  0  0  0
  141.4382   68.5586  228.2556 H   0  0  0  0  0  0  0  0  0  0  0  0
  141.6163   70.7544  227.1172 H   0  0  0  0  0  0  0  0  0  0  0  0
  138.6618   67.2733  225.2569 H   0  0  0  0  0  0  0  0  0  0  0  0
  139.0989   68.9571  222.9563 H   0  0  0  0  0  0  0  0  0  0  0  0
  137.6078   69.0060  223.9533 H   0  0  0  0  0  0  0  0  0  0  0  0
  138.0463   71.0461  222.4944 H   0  0  0  0  0  0  0  0  0  0  0  0
  137.7722   71.3661  224.2458 H   0  0  0  0  0  0  0  0  0  0  0  0
  141.1922   70.4078  221.6528 H   0  0  0  0  0  0  0  0  0  0  0  0
  142.0290   70.7330  218.8240 H   0  0  0  0  0  0  0  0  0  0  0  0
  144.1338   71.8576  220.5985 H   0  0  0  0  0  0  0  0  0  0  0  0
  143.7529   72.6474  217.8683 H   0  0  0  0  0  0  0  0  0  0  0  0
  145.0122   73.1722  219.0278 H   0  0  0  0  0  0  0  0  0  0  0  0
  145.3358   71.4975  216.7269 H   0  0  0  0  0  0  0  0  0  0  0  0
  146.5733   71.9076  217.9122 H   0  0  0  0  0  0  0  0  0  0  0  0
  146.8439   68.9648  217.2016 H   0  0  0  0  0  0  0  0  0  0  0  0
  146.3425   66.9040  218.3963 H   0  0  0  0  0  0  0  0  0  0  0  0
  144.6886   66.7982  220.2353 H   0  0  0  0  0  0  0  0  0  0  0  0
  143.4938   68.9062  220.8710 H   0  0  0  0  0  0  0  0  0  0  0  0
  141.1748   75.3590  219.0924 H   0  0  0  0  0  0  0  0  0  0  0  0
  140.0161   76.6186  219.5146 H   0  0  0  0  0  0  0  0  0  0  0  0
  143.0177   76.6643  220.3227 H   0  0  0  0  0  0  0  0  0  0  0  0
  142.3976   77.5506  218.9376 H   0  0  0  0  0  0  0  0  0  0  0  0
  142.3658   79.7957  219.6370 H   0  0  0  0  0  0  0  0  0  0  0  0
  141.5414   81.5770  221.1765 H   0  0  0  0  0  0  0  0  0  0  0  0
  140.3302   80.9159  223.2318 H   0  0  0  0  0  0  0  0  0  0  0  0
  139.9479   78.5378  223.7541 H   0  0  0  0  0  0  0  0  0  0  0  0
  141.4041   76.0633  223.1168 H   0  0  0  0  0  0  0  0  0  0  0  0
  139.6674   76.2721  222.7337 H   0  0  0  0  0  0  0  0  0  0  0  0
  141.4472   71.8130  224.7870 H   0  0  0  0  0  0  0  0  0  0  0  0
  139.8880   72.3320  225.5336 H   0  0  0  0  0  0  0  0  0  0  0  0
  1  2  2  0
  2  3  1  0
  3  4  2  0
  4  5  1  0
  5  6  2  0
  5  7  1  0
  7  8  1  0
  8  9  1  0
  9 10  1  0
 10 11  2  0
 11 12  1  0
 12 13  1  0
 13 14  1  0
 14 15  1  0
 15 16  1  0
 16 17  1  0
 17 18  2  0
 18 19  1  0
 19 20  2  0
 20 21  1  0
 21 22  2  0
 12 23  2  0
 23 24  1  0
 24 25  1  0
 25 26  1  0
 26 27  1  0
 27 28  1  0
 28 29  2  0
 29 30  1  0
 30 31  2  0
 31 32  1  0
 32 33  2  0
 33 34  1  0
 24 35  2  0
  9 36  1  0
  6  1  1  0
 35 10  1  0
 36  4  1  0
 22 14  1  0
 34 25  1  0
 22 17  1  0
 33 28  1  0
  1 37  1  0
  2 38  1  0
  3 39  1  0
  6 40  1  0
  7 41  1  0
  7 42  1  0
  8 43  1  0
  8 44  1  0
 11 45  1  0
 13 46  1  0
 14 47  1  1
 15 48  1  0
 15 49  1  0
 16 50  1  0
 16 51  1  0
 18 52  1  0
 19 53  1  0
 20 54  1  0
 21 55  1  0
 26 56  1  0
 26 57  1  0
 27 58  1  0
 27 59  1  0
 29 60  1  0
 30 61  1  0
 31 62  1  0
 32 63  1  0
 34 64  1  0
 34 65  1  0
 36 66  1  0
 36 67  1  0
M  END
>  <smiles>  (19) 
c1ccc2c(c1)CCN(c1cc(N[C@@H]3CCc4ccccc43)nc(N3CCc4ccccc4C3)n1)C2

>  <score_type>  (19) 
oracle

>  <origin>  (19) 
autodockgpu

>  <m_score__min__energy>  (19) 
-11.73

>  <m_primary>  (19) 
energy

>  <rmsd>  (19) 
11.37062087149815

>  <m_score__min__rmsd>  (19) 
11.37062087149815

>  <meeko>  (19) 
{"free_energy": -10.29, "intermolecular_energy": -11.48, "internal_energy": -1.13, "cluster_size": 49, "cluster_id": 1, "rank_in_cluster": 37}

>  <energy>  (19) 
-11.7

>  <cluster_rmsd>  (19) 
0.05

>  <cluster>  (19) 
1

$$$$

     RDKit          3D

 67 73  0  0  0  0  0  0  0  0999 V2000
  140.3300   67.6180  226.7480 C   0  0  0  0  0  0  0  0  0  0  0  0
  140.9140   68.6940  227.3740 C   0  0  0  0  0  0  0  0  0  0  0  0
  140.8180   69.9560  226.8070 C   0  0  0  0  0  0  0  0  0  0  0  0
  140.1430   70.1500  225.6210 C   0  0  0  0  0  0  0  0  0  0  0  0
  139.5580   69.0910  224.9870 C   0  0  0  0  0  0  0  0  0  0  0  0
  139.6560   67.8230  225.5590 C   0  0  0  0  0  0  0  0  0  0  0  0
  138.8090   69.1850  223.7080 C   0  0  0  0  0  0  0  0  0  0  0  0
  138.4050   70.6110  223.4770 C   0  0  0  0  0  0  0  0  0  0  0  0
  139.5380   71.4950  223.6960 N   0  0  0  0  0  0  0  0  0  0  0  0
  140.1290   72.2880  222.6940 C   0  0  0  0  0  0  0  0  0  0  0  0
  140.9060   71.7770  221.6760 C   0  0  0  0  0  0  0  0  0  0  0  0
  141.4830   72.5640  220.6970 C   0  0  0  0  0  0  0  0  0  0  0  0
  142.2800   71.9750  219.6650 N   0  0  0  0  0  0  0  0  0  0  0  0
  143.5560   72.5970  219.3980 C   0  0  2  0  0  0  0  0  0  0  0  0
  144.4910   72.6030  220.5550 C   0  0  0  0  0  0  0  0  0  0  0  0
  144.9160   74.0220  220.8250 C   0  0  0  0  0  0  0  0  0  0  0  0
  144.1220   74.8360  219.8800 C   0  0  0  0  0  0  0  0  0  0  0  0
  144.0560   76.2010  219.7110 C   0  0  0  0  0  0  0  0  0  0  0  0
  143.2350   76.7100  218.7560 C   0  0  0  0  0  0  0  0  0  0  0  0
  142.4460   75.9340  217.9260 C   0  0  0  0  0  0  0  0  0  0  0  0
  142.5130   74.5650  218.0960 C   0  0  0  0  0  0  0  0  0  0  0  0
  143.3530   74.0230  219.0730 C   0  0  0  0  0  0  0  0  0  0  0  0
  141.2530   73.8870  220.7740 N   0  0  0  0  0  0  0  0  0  0  0  0
  140.4880   74.4220  221.7670 C   0  0  0  0  0  0  0  0  0  0  0  0
  140.3000   75.8320  221.7680 N   0  0  0  0  0  0  0  0  0  0  0  0
  139.3520   76.4280  220.8480 C   0  0  0  0  0  0  0  0  0  0  0  0
  140.1640   77.4740  220.0710 C   0  0  0  0  0  0  0  0  0  0  0  0
  140.5310   78.4950  221.1120 C   0  0  0  0  0  0  0  0  0  0  0  0
  140.4310   79.8280  220.8040 C   0  0  0  0  0  0  0  0  0  0  0  0
  140.7640   80.7830  221.7460 C   0  0  0  0  0  0  0  0  0  0  0  0
  141.1910   80.3650  222.9770 C   0  0  0  0  0  0  0  0  0  0  0  0
  141.2870   79.0180  223.2740 C   0  0  0  0  0  0  0  0  0  0  0  0
  140.9550   78.0460  222.3350 C   0  0  0  0  0  0  0  0  0  0  0  0
  141.0750   76.6120  222.6990 C   0  0  0  0  0  0  0  0  0  0  0  0
  139.9450   73.6210  222.7010 N   0  0  0  0  0  0  0  0  0  0  0  0
  140.0690   71.5280  225.0490 C   0  0  0  0  0  0  0  0  0  0  0  0
  140.3981   66.6113  227.1861 H   0  0  0  0  0  0  0  0  0  0  0  0
  141.4555   68.5543  228.3212 H   0  0  0  0  0  0  0  0  0  0  0  0
  141.2870   70.8140  227.3108 H   0  0  0  0  0  0  0  0  0  0  0  0
  139.1864   66.9669  225.0526 H   0  0  0  0  0  0  0  0  0  0  0  0
  139.4495   68.8454  222.8807 H   0  0  0  0  0  0  0  0  0  0  0  0
  137.9121   68.5500  223.7573 H   0  0  0  0  0  0  0  0  0  0  0  0
  138.0497   70.7250  222.4422 H   0  0  0  0  0  0  0  0  0  0  0  0
  137.6020   70.8753  224.1808 H   0  0  0  0  0  0  0  0  0  0  0  0
  141.0749   70.6906  221.6412 H   0  0  0  0  0  0  0  0  0  0  0  0
  141.9760   71.1380  219.1190 H   0  0  0  0  0  0  0  0  0  0  0  0
  143.9885   72.0027  218.5796 H   0  0  0  0  0  0  0  0  0  0  0  0
  143.9853   72.1930  221.4417 H   0  0  0  0  0  0  0  0  0  0  0  0
  145.3720   71.9847  220.3281 H   0  0  0  0  0  0  0  0  0  0  0  0
  144.6908   74.3036  221.8642 H   0  0  0  0  0  0  0  0  0  0  0  0
  145.9984   74.1656  220.6915 H   0  0  0  0  0  0  0  0  0  0  0  0
  144.6601   76.8704  220.3410 H   0  0  0  0  0  0  0  0  0  0  0  0
  143.1952   77.8027  218.6357 H   0  0  0  0  0  0  0  0  0  0  0  0
  141.7942   76.3871  217.1645 H   0  0  0  0  0  0  0  0  0  0  0  0
  141.9056   73.9015  217.4628 H   0  0  0  0  0  0  0  0  0  0  0  0
  138.9447   75.6680  220.1650 H   0  0  0  0  0  0  0  0  0  0  0  0
  138.4917   76.8735  221.3690 H   0  0  0  0  0  0  0  0  0  0  0  0
  141.0654   77.0220  219.6316 H   0  0  0  0  0  0  0  0  0  0  0  0
  139.6019   77.9084  219.2311 H   0  0  0  0  0  0  0  0  0  0  0  0
  140.0855   80.1371  219.8065 H   0  0  0  0  0  0  0  0  0  0  0  0
  140.6875   81.8550  221.5114 H   0  0  0  0  0  0  0  0  0  0  0  0
  141.4613   81.1099  223.7399 H   0  0  0  0  0  0  0  0  0  0  0  0
  141.6324   78.7088  224.2715 H   0  0  0  0  0  0  0  0  0  0  0  0
  142.1302   76.3050  222.6505 H   0  0  0  0  0  0  0  0  0  0  0  0
  140.7027   76.4528  223.7218 H   0  0  0  0  0  0  0  0  0  0  0  0
  141.0779   71.9659  225.0303 H   0  0  0  0  0  0  0  0  0  0  0  0
  139.4006   72.1359  225.6765 H   0  0  0  0  0  0  0  0  0  0  0  0
  1  2  2  0
  2  3  1  0
  3  4  2  0
  4  5  1  0
  5  6  2  0
  5  7  1  0
  7  8  1  0
  8  9  1  0
  9 10  1  0
 10 11  2  0
 11 12  1  0
 12 13  1  0
 13 14  1  0
 14 15  1  0
 15 16  1  0
 16 17  1  0
 17 18  2  0
 18 19  1  0
 19 20  2  0
 20 21  1  0
 21 22  2  0
 12 23  2  0
 23 24  1  0
 24 25  1  0
 25 26  1  0
 26 27  1  0
 27 28  1  0
 28 29  2  0
 29 30  1  0
 30 31  2  0
 31 32  1  0
 32 33  2  0
 33 34  1  0
 24 35  2  0
  9 36  1  0
  6  1  1  0
 35 10  1  0
 36  4  1  0
 22 14  1  0
 34 25  1  0
 22 17  1  0
 33 28  1  0
  1 37  1  0
  2 38  1  0
  3 39  1  0
  6 40  1  0
  7 41  1  0
  7 42  1  0
  8 43  1  0
  8 44  1  0
 11 45  1  0
 13 46  1  0
 14 47  1  6
 15 48  1  0
 15 49  1  0
 16 50  1  0
 16 51  1  0
 18 52  1  0
 19 53  1  0
 20 54  1  0
 21 55  1  0
 26 56  1  0
 26 57  1  0
 27 58  1  0
 27 59  1  0
 29 60  1  0
 30 61  1  0
 31 62  1  0
 32 63  1  0
 34 64  1  0
 34 65  1  0
 36 66  1  0
 36 67  1  0
M  END
>  <smiles>  (20) 
c1ccc2c(c1)CCN(c1cc(N[C@@H]3CCc4ccccc43)nc(N3CCc4ccccc4C3)n1)C2

>  <score_type>  (20) 
oracle

>  <origin>  (20) 
autodockgpu

>  <m_score__min__energy>  (20) 
-11.73

>  <m_primary>  (20) 
energy

>  <rmsd>  (20) 
7.500910253395856

>  <m_score__min__rmsd>  (20) 
7.500910253395856

>  <meeko>  (20) 
{"free_energy": -9.9, "intermolecular_energy": -11.09, "internal_energy": -2.06, "cluster_size": 49, "cluster_id": 1, "rank_in_cluster": 49}

>  <energy>  (20) 
-11.7

>  <cluster_rmsd>  (20) 
0.09

>  <cluster>  (20) 
1

$$$$

     RDKit          3D

 67 73  0  0  0  0  0  0  0  0999 V2000
  146.3140   68.5170  219.3340 C   0  0  0  0  0  0  0  0  0  0  0  0
  145.1410   67.8050  219.4240 C   0  0  0  0  0  0  0  0  0  0  0  0
  143.9300   68.4780  219.4750 C   0  0  0  0  0  0  0  0  0  0  0  0
  143.8830   69.8560  219.4370 C   0  0  0  0  0  0  0  0  0  0  0  0
  145.0390   70.5760  219.3470 C   0  0  0  0  0  0  0  0  0  0  0  0
  146.2560   69.8970  219.2950 C   0  0  0  0  0  0  0  0  0  0  0  0
  145.1050   72.0590  219.2990 C   0  0  0  0  0  0  0  0  0  0  0  0
  143.7630   72.6000  218.9040 C   0  0  0  0  0  0  0  0  0  0  0  0
  142.7160   71.9670  219.6880 N   0  0  0  0  0  0  0  0  0  0  0  0
  141.8860   72.6500  220.5970 C   0  0  0  0  0  0  0  0  0  0  0  0
  141.0870   72.0160  221.5240 C   0  0  0  0  0  0  0  0  0  0  0  0
  140.2730   72.6950  222.4120 C   0  0  0  0  0  0  0  0  0  0  0  0
  139.4650   71.9810  223.3520 N   0  0  0  0  0  0  0  0  0  0  0  0
  140.0170   70.7550  223.8810 C   0  0  2  0  0  0  0  0  0  0  0  0
  139.1000   69.5870  223.8040 C   0  0  0  0  0  0  0  0  0  0  0  0
  138.9410   69.0070  225.1840 C   0  0  0  0  0  0  0  0  0  0  0  0
  139.6870   69.9290  226.0660 C   0  0  0  0  0  0  0  0  0  0  0  0
  139.8440   69.9290  227.4340 C   0  0  0  0  0  0  0  0  0  0  0  0
  140.5920   70.9040  228.0140 C   0  0  0  0  0  0  0  0  0  0  0  0
  141.2190   71.9150  227.3080 C   0  0  0  0  0  0  0  0  0  0  0  0
  141.0610   71.9140  225.9360 C   0  0  0  0  0  0  0  0  0  0  0  0
  140.2950   70.9190  225.3210 C   0  0  0  0  0  0  0  0  0  0  0  0
  140.2890   74.0380  222.3370 N   0  0  0  0  0  0  0  0  0  0  0  0
  141.0690   74.6940  221.4320 C   0  0  0  0  0  0  0  0  0  0  0  0
  141.0200   76.1150  221.4270 N   0  0  0  0  0  0  0  0  0  0  0  0
  140.9340   76.8230  220.1660 C   0  0  0  0  0  0  0  0  0  0  0  0
  142.1230   77.7940  220.1790 C   0  0  0  0  0  0  0  0  0  0  0  0
  141.7990   78.7520  221.2920 C   0  0  0  0  0  0  0  0  0  0  0  0
  142.0100   80.0930  221.1010 C   0  0  0  0  0  0  0  0  0  0  0  0
  141.7190   80.9910  222.1100 C   0  0  0  0  0  0  0  0  0  0  0  0
  141.2200   80.5070  223.2890 C   0  0  0  0  0  0  0  0  0  0  0  0
  141.0110   79.1530  223.4680 C   0  0  0  0  0  0  0  0  0  0  0  0
  141.3000   78.2380  222.4600 C   0  0  0  0  0  0  0  0  0  0  0  0
  141.0600   76.7930  222.6980 C   0  0  0  0  0  0  0  0  0  0  0  0
  141.8460   73.9940  220.5860 N   0  0  0  0  0  0  0  0  0  0  0  0
  142.5530   70.5340  219.4960 C   0  0  0  0  0  0  0  0  0  0  0  0
  147.2823   67.9967  219.2937 H   0  0  0  0  0  0  0  0  0  0  0  0
  145.1635   66.7057  219.4554 H   0  0  0  0  0  0  0  0  0  0  0  0
  142.9937   67.9051  219.5468 H   0  0  0  0  0  0  0  0  0  0  0  0
  147.1904   70.4727  219.2213 H   0  0  0  0  0  0  0  0  0  0  0  0
  145.3808   72.4473  220.2905 H   0  0  0  0  0  0  0  0  0  0  0  0
  145.8606   72.3716  218.5632 H   0  0  0  0  0  0  0  0  0  0  0  0
  143.7428   73.6856  219.0801 H   0  0  0  0  0  0  0  0  0  0  0  0
  143.5906   72.3890  217.8383 H   0  0  0  0  0  0  0  0  0  0  0  0
  141.0974   70.9166  221.5592 H   0  0  0  0  0  0  0  0  0  0  0  0
  138.5210   72.3090  223.6550 H   0  0  0  0  0  0  0  0  0  0  0  0
  140.9092   70.5633  223.2668 H   0  0  0  0  0  0  0  0  0  0  0  0
  138.1200   69.9102  223.4230 H   0  0  0  0  0  0  0  0  0  0  0  0
  139.5151   68.8285  223.1240 H   0  0  0  0  0  0  0  0  0  0  0  0
  137.8794   68.9707  225.4697 H   0  0  0  0  0  0  0  0  0  0  0  0
  139.3161   67.9749  225.2477 H   0  0  0  0  0  0  0  0  0  0  0  0
  139.3701   69.1500  228.0493 H   0  0  0  0  0  0  0  0  0  0  0  0
  140.7055   70.8884  229.1080 H   0  0  0  0  0  0  0  0  0  0  0  0
  141.8169   72.6855  227.8168 H   0  0  0  0  0  0  0  0  0  0  0  0
  141.5379   72.6961  225.3270 H   0  0  0  0  0  0  0  0  0  0  0  0
  141.0153   76.1223  219.3220 H   0  0  0  0  0  0  0  0  0  0  0  0
  139.9730   77.3451  220.0479 H   0  0  0  0  0  0  0  0  0  0  0  0
  143.0621   77.2593  220.3844 H   0  0  0  0  0  0  0  0  0  0  0  0
  142.2663   78.3004  219.2131 H   0  0  0  0  0  0  0  0  0  0  0  0
  142.4116   80.4547  220.1429 H   0  0  0  0  0  0  0  0  0  0  0  0
  141.8844   82.0693  221.9691 H   0  0  0  0  0  0  0  0  0  0  0  0
  140.9822   81.2053  224.1050 H   0  0  0  0  0  0  0  0  0  0  0  0
  140.6084   78.7913  224.4257 H   0  0  0  0  0  0  0  0  0  0  0  0
  141.8730   76.3792  223.3127 H   0  0  0  0  0  0  0  0  0  0  0  0
  140.1054   76.6541  223.2267 H   0  0  0  0  0  0  0  0  0  0  0  0
  141.9735   70.1206  220.3347 H   0  0  0  0  0  0  0  0  0  0  0  0
  142.0249   70.3615  218.5466 H   0  0  0  0  0  0  0  0  0  0  0  0
  1  2  2  0
  2  3  1  0
  3  4  2  0
  4  5  1  0
  5  6  2  0
  5  7  1  0
  7  8  1  0
  8  9  1  0
  9 10  1  0
 10 11  2  0
 11 12  1  0
 12 13  1  0
 13 14  1  0
 14 15  1  0
 15 16  1  0
 16 17  1  0
 17 18  2  0
 18 19  1  0
 19 20  2  0
 20 21  1  0
 21 22  2  0
 12 23  2  0
 23 24  1  0
 24 25  1  0
 25 26  1  0
 26 27  1  0
 27 28  1  0
 28 29  2  0
 29 30  1  0
 30 31  2  0
 31 32  1  0
 32 33  2  0
 33 34  1  0
 24 35  2  0
  9 36  1  0
  6  1  1  0
 35 10  1  0
 36  4  1  0
 22 14  1  0
 34 25  1  0
 22 17  1  0
 33 28  1  0
  1 37  1  0
  2 38  1  0
  3 39  1  0
  6 40  1  0
  7 41  1  0
  7 42  1  0
  8 43  1  0
  8 44  1  0
 11 45  1  0
 13 46  1  0
 14 47  1  6
 15 48  1  0
 15 49  1  0
 16 50  1  0
 16 51  1  0
 18 52  1  0
 19 53  1  0
 20 54  1  0
 21 55  1  0
 26 56  1  0
 26 57  1  0
 27 58  1  0
 27 59  1  0
 29 60  1  0
 30 61  1  0
 31 62  1  0
 32 63  1  0
 34 64  1  0
 34 65  1  0
 36 66  1  0
 36 67  1  0
M  END
>  <smiles>  (21) 
c1ccc2c(c1)CCN(c1cc(N[C@@H]3CCc4ccccc43)nc(N3CCc4ccccc4C3)n1)C2

>  <score_type>  (21) 
oracle

>  <origin>  (21) 
autodockgpu

>  <m_score__min__energy>  (21) 
-11.73

>  <m_primary>  (21) 
energy

>  <rmsd>  (21) 
10.33215078495168

>  <m_score__min__rmsd>  (21) 
10.33215078495168

>  <meeko>  (21) 
{"free_energy": -11.71, "intermolecular_energy": -12.9, "internal_energy": -1.21, "cluster_size": 49, "cluster_id": 1, "rank_in_cluster": 13}

>  <energy>  (21) 
-11.7

>  <cluster_rmsd>  (21) 
0.03

>  <cluster>  (21) 
1

$$$$

     RDKit          3D

 67 73  0  0  0  0  0  0  0  0999 V2000
  146.3120   68.5080  219.3290 C   0  0  0  0  0  0  0  0  0  0  0  0
  145.1450   67.7890  219.4370 C   0  0  0  0  0  0  0  0  0  0  0  0
  143.9300   68.4530  219.4930 C   0  0  0  0  0  0  0  0  0  0  0  0
  143.8720   69.8290  219.4420 C   0  0  0  0  0  0  0  0  0  0  0  0
  145.0220   70.5570  219.3340 C   0  0  0  0  0  0  0  0  0  0  0  0
  146.2440   69.8870  219.2780 C   0  0  0  0  0  0  0  0  0  0  0  0
  145.0770   72.0410  219.2710 C   0  0  0  0  0  0  0  0  0  0  0  0
  143.7270   72.5680  218.8830 C   0  0  0  0  0  0  0  0  0  0  0  0
  142.6920   71.9340  219.6830 N   0  0  0  0  0  0  0  0  0  0  0  0
  141.8650   72.6200  220.5930 C   0  0  0  0  0  0  0  0  0  0  0  0
  141.0640   71.9890  221.5200 C   0  0  0  0  0  0  0  0  0  0  0  0
  140.2540   72.6710  222.4090 C   0  0  0  0  0  0  0  0  0  0  0  0
  139.4430   71.9590  223.3490 N   0  0  0  0  0  0  0  0  0  0  0  0
  139.9920   70.7330  223.8790 C   0  0  2  0  0  0  0  0  0  0  0  0
  139.0590   69.5750  223.8370 C   0  0  0  0  0  0  0  0  0  0  0  0
  138.9240   69.0130  225.2270 C   0  0  0  0  0  0  0  0  0  0  0  0
  139.7020   69.9360  226.0810 C   0  0  0  0  0  0  0  0  0  0  0  0
  139.8900   69.9490  227.4450 C   0  0  0  0  0  0  0  0  0  0  0  0
  140.6640   70.9200  227.9960 C   0  0  0  0  0  0  0  0  0  0  0  0
  141.2870   71.9150  227.2640 C   0  0  0  0  0  0  0  0  0  0  0  0
  141.0970   71.9010  225.8960 C   0  0  0  0  0  0  0  0  0  0  0  0
  140.3050   70.9090  225.3110 C   0  0  0  0  0  0  0  0  0  0  0  0
  140.2750   74.0140  222.3350 N   0  0  0  0  0  0  0  0  0  0  0  0
  141.0570   74.6670  221.4290 C   0  0  0  0  0  0  0  0  0  0  0  0
  141.0130   76.0880  221.4250 N   0  0  0  0  0  0  0  0  0  0  0  0
  140.9110   76.7970  220.1650 C   0  0  0  0  0  0  0  0  0  0  0  0
  142.1040   77.7630  220.1600 C   0  0  0  0  0  0  0  0  0  0  0  0
  141.8000   78.7220  221.2780 C   0  0  0  0  0  0  0  0  0  0  0  0
  142.0140   80.0620  221.0840 C   0  0  0  0  0  0  0  0  0  0  0  0
  141.7420   80.9620  222.0980 C   0  0  0  0  0  0  0  0  0  0  0  0
  141.2570   80.4800  223.2840 C   0  0  0  0  0  0  0  0  0  0  0  0
  141.0460   79.1260  223.4660 C   0  0  0  0  0  0  0  0  0  0  0  0
  141.3170   78.2100  222.4540 C   0  0  0  0  0  0  0  0  0  0  0  0
  141.0740   76.7660  222.6950 C   0  0  0  0  0  0  0  0  0  0  0  0
  141.8300   73.9650  220.5820 N   0  0  0  0  0  0  0  0  0  0  0  0
  142.5380   70.4990  219.5070 C   0  0  0  0  0  0  0  0  0  0  0  0
  147.2834   67.9939  219.2839 H   0  0  0  0  0  0  0  0  0  0  0  0
  145.1758   66.6902  219.4788 H   0  0  0  0  0  0  0  0  0  0  0  0
  142.9989   67.8738  219.5794 H   0  0  0  0  0  0  0  0  0  0  0  0
  147.1734   70.4689  219.1914 H   0  0  0  0  0  0  0  0  0  0  0  0
  145.3590   72.4410  220.2561 H   0  0  0  0  0  0  0  0  0  0  0  0
  145.8237   72.3521  218.5256 H   0  0  0  0  0  0  0  0  0  0  0  0
  143.6998   73.6551  219.0490 H   0  0  0  0  0  0  0  0  0  0  0  0
  143.5465   72.3458  217.8209 H   0  0  0  0  0  0  0  0  0  0  0  0
  141.0693   70.8895  221.5543 H   0  0  0  0  0  0  0  0  0  0  0  0
  138.5000   72.2900  223.6510 H   0  0  0  0  0  0  0  0  0  0  0  0
  140.8674   70.5241  223.2464 H   0  0  0  0  0  0  0  0  0  0  0  0
  138.0746   69.9058  223.4743 H   0  0  0  0  0  0  0  0  0  0  0  0
  139.4497   68.8035  223.1572 H   0  0  0  0  0  0  0  0  0  0  0  0
  137.8688   68.9938  225.5371 H   0  0  0  0  0  0  0  0  0  0  0  0
  139.2871   67.9769  225.2946 H   0  0  0  0  0  0  0  0  0  0  0  0
  139.4199   69.1836  228.0799 H   0  0  0  0  0  0  0  0  0  0  0  0
  140.8034   70.9148  229.0871 H   0  0  0  0  0  0  0  0  0  0  0  0
  141.9063   72.6833  227.7500 H   0  0  0  0  0  0  0  0  0  0  0  0
  141.5688   72.6703  225.2671 H   0  0  0  0  0  0  0  0  0  0  0  0
  140.9765   76.0961  219.3197 H   0  0  0  0  0  0  0  0  0  0  0  0
  139.9506   77.3232  220.0616 H   0  0  0  0  0  0  0  0  0  0  0  0
  143.0439   77.2246  220.3514 H   0  0  0  0  0  0  0  0  0  0  0  0
  142.2352   78.2689  219.1921 H   0  0  0  0  0  0  0  0  0  0  0  0
  142.4028   80.4220  220.1200 H   0  0  0  0  0  0  0  0  0  0  0  0
  141.9113   82.0395  221.9551 H   0  0  0  0  0  0  0  0  0  0  0  0
  141.0323   81.1793  224.1028 H   0  0  0  0  0  0  0  0  0  0  0  0
  140.6563   78.7656  224.4295 H   0  0  0  0  0  0  0  0  0  0  0  0
  141.8938   76.3486  223.2981 H   0  0  0  0  0  0  0  0  0  0  0  0
  140.1262   76.6314  223.2369 H   0  0  0  0  0  0  0  0  0  0  0  0
  141.9694   70.0901  220.3552 H   0  0  0  0  0  0  0  0  0  0  0  0
  142.0027   70.3136  218.5641 H   0  0  0  0  0  0  0  0  0  0  0  0
  1  2  2  0
  2  3  1  0
  3  4  2  0
  4  5  1  0
  5  6  2  0
  5  7  1  0
  7  8  1  0
  8  9  1  0
  9 10  1  0
 10 11  2  0
 11 12  1  0
 12 13  1  0
 13 14  1  0
 14 15  1  0
 15 16  1  0
 16 17  1  0
 17 18  2  0
 18 19  1  0
 19 20  2  0
 20 21  1  0
 21 22  2  0
 12 23  2  0
 23 24  1  0
 24 25  1  0
 25 26  1  0
 26 27  1  0
 27 28  1  0
 28 29  2  0
 29 30  1  0
 30 31  2  0
 31 32  1  0
 32 33  2  0
 33 34  1  0
 24 35  2  0
  9 36  1  0
  6  1  1  0
 35 10  1  0
 36  4  1  0
 22 14  1  0
 34 25  1  0
 22 17  1  0
 33 28  1  0
  1 37  1  0
  2 38  1  0
  3 39  1  0
  6 40  1  0
  7 41  1  0
  7 42  1  0
  8 43  1  0
  8 44  1  0
 11 45  1  0
 13 46  1  0
 14 47  1  6
 15 48  1  0
 15 49  1  0
 16 50  1  0
 16 51  1  0
 18 52  1  0
 19 53  1  0
 20 54  1  0
 21 55  1  0
 26 56  1  0
 26 57  1  0
 27 58  1  0
 27 59  1  0
 29 60  1  0
 30 61  1  0
 31 62  1  0
 32 63  1  0
 34 64  1  0
 34 65  1  0
 36 66  1  0
 36 67  1  0
M  END
>  <smiles>  (22) 
c1ccc2c(c1)CCN(c1cc(N[C@@H]3CCc4ccccc43)nc(N3CCc4ccccc4C3)n1)C2

>  <score_type>  (22) 
oracle

>  <origin>  (22) 
autodockgpu

>  <m_score__min__energy>  (22) 
-11.73

>  <m_primary>  (22) 
energy

>  <rmsd>  (22) 
10.337107565160087

>  <m_score__min__rmsd>  (22) 
10.337107565160087

>  <meeko>  (22) 
{"free_energy": -11.71, "intermolecular_energy": -12.9, "internal_energy": -1.21, "cluster_size": 49, "cluster_id": 1, "rank_in_cluster": 7}

>  <energy>  (22) 
-11.7

>  <cluster_rmsd>  (22) 
0.06

>  <cluster>  (22) 
1

$$$$

     RDKit          3D

 67 73  0  0  0  0  0  0  0  0999 V2000
  146.3300   68.6080  219.3270 C   0  0  0  0  0  0  0  0  0  0  0  0
  145.1730   67.8710  219.4320 C   0  0  0  0  0  0  0  0  0  0  0  0
  143.9490   68.5180  219.4880 C   0  0  0  0  0  0  0  0  0  0  0  0
  143.8710   69.8940  219.4390 C   0  0  0  0  0  0  0  0  0  0  0  0
  145.0110   70.6380  219.3340 C   0  0  0  0  0  0  0  0  0  0  0  0
  146.2420   69.9860  219.2780 C   0  0  0  0  0  0  0  0  0  0  0  0
  145.0440   72.1220  219.2740 C   0  0  0  0  0  0  0  0  0  0  0  0
  143.6870   72.6310  218.8850 C   0  0  0  0  0  0  0  0  0  0  0  0
  142.6610   71.9810  219.6830 N   0  0  0  0  0  0  0  0  0  0  0  0
  141.8230   72.6530  220.5930 C   0  0  0  0  0  0  0  0  0  0  0  0
  141.0200   72.0090  221.5100 C   0  0  0  0  0  0  0  0  0  0  0  0
  140.2000   72.6770  222.3990 C   0  0  0  0  0  0  0  0  0  0  0  0
  139.3880   71.9520  223.3280 N   0  0  0  0  0  0  0  0  0  0  0  0
  139.9380   70.7210  223.8460 C   0  0  2  0  0  0  0  0  0  0  0  0
  138.9990   69.5690  223.8180 C   0  0  0  0  0  0  0  0  0  0  0  0
  138.8850   69.0050  225.2090 C   0  0  0  0  0  0  0  0  0  0  0  0
  139.6840   69.9220  226.0510 C   0  0  0  0  0  0  0  0  0  0  0  0
  139.8960   69.9310  227.4110 C   0  0  0  0  0  0  0  0  0  0  0  0
  140.6850   70.8970  227.9500 C   0  0  0  0  0  0  0  0  0  0  0  0
  141.3000   71.8900  227.2090 C   0  0  0  0  0  0  0  0  0  0  0  0
  141.0870   71.8790  225.8450 C   0  0  0  0  0  0  0  0  0  0  0  0
  140.2780   70.8930  225.2720 C   0  0  0  0  0  0  0  0  0  0  0  0
  140.2120   74.0210  222.3370 N   0  0  0  0  0  0  0  0  0  0  0  0
  140.9950   74.6870  221.4430 C   0  0  0  0  0  0  0  0  0  0  0  0
  140.9430   76.1080  221.4500 N   0  0  0  0  0  0  0  0  0  0  0  0
  140.7820   76.8250  220.2010 C   0  0  0  0  0  0  0  0  0  0  0  0
  141.9670   77.7990  220.1530 C   0  0  0  0  0  0  0  0  0  0  0  0
  141.7040   78.7480  221.2890 C   0  0  0  0  0  0  0  0  0  0  0  0
  141.9010   80.0920  221.0960 C   0  0  0  0  0  0  0  0  0  0  0  0
  141.6660   80.9820  222.1270 C   0  0  0  0  0  0  0  0  0  0  0  0
  141.2360   80.4880  223.3290 C   0  0  0  0  0  0  0  0  0  0  0  0
  141.0410   79.1320  223.5100 C   0  0  0  0  0  0  0  0  0  0  0  0
  141.2750   78.2250  222.4810 C   0  0  0  0  0  0  0  0  0  0  0  0
  141.0530   76.7770  222.7220 C   0  0  0  0  0  0  0  0  0  0  0  0
  141.7790   73.9980  220.5950 N   0  0  0  0  0  0  0  0  0  0  0  0
  142.5270   70.5440  219.5040 C   0  0  0  0  0  0  0  0  0  0  0  0
  147.3090   68.1084  219.2828 H   0  0  0  0  0  0  0  0  0  0  0  0
  145.2195   66.7727  219.4713 H   0  0  0  0  0  0  0  0  0  0  0  0
  143.0261   67.9255  219.5728 H   0  0  0  0  0  0  0  0  0  0  0  0
  147.1630   70.5814  219.1930 H   0  0  0  0  0  0  0  0  0  0  0  0
  145.3187   72.5240  220.2604 H   0  0  0  0  0  0  0  0  0  0  0  0
  145.7869   72.4451  218.5299 H   0  0  0  0  0  0  0  0  0  0  0  0
  143.6443   73.7173  219.0527 H   0  0  0  0  0  0  0  0  0  0  0  0
  143.5106   72.4086  217.8223 H   0  0  0  0  0  0  0  0  0  0  0  0
  141.0327   70.9094  221.5352 H   0  0  0  0  0  0  0  0  0  0  0  0
  138.4420   72.2760  223.6300 H   0  0  0  0  0  0  0  0  0  0  0  0
  140.8002   70.5073  223.1971 H   0  0  0  0  0  0  0  0  0  0  0  0
  138.0103   69.9057  223.4730 H   0  0  0  0  0  0  0  0  0  0  0  0
  139.3738   68.7968  223.1301 H   0  0  0  0  0  0  0  0  0  0  0  0
  137.8353   68.9916  225.5376 H   0  0  0  0  0  0  0  0  0  0  0  0
  139.2427   67.9665  225.2683 H   0  0  0  0  0  0  0  0  0  0  0  0
  139.4331   69.1668  228.0526 H   0  0  0  0  0  0  0  0  0  0  0  0
  140.8438   70.8889  229.0384 H   0  0  0  0  0  0  0  0  0  0  0  0
  141.9310   72.6547  227.6855 H   0  0  0  0  0  0  0  0  0  0  0  0
  141.5536   72.6458  225.2091 H   0  0  0  0  0  0  0  0  0  0  0  0
  140.8161   76.1308  219.3484 H   0  0  0  0  0  0  0  0  0  0  0  0
  139.8144   77.3449  220.1422 H   0  0  0  0  0  0  0  0  0  0  0  0
  142.9177   77.2658  220.3011 H   0  0  0  0  0  0  0  0  0  0  0  0
  142.0541   78.3123  219.1840 H   0  0  0  0  0  0  0  0  0  0  0  0
  142.2465   80.4618  220.1193 H   0  0  0  0  0  0  0  0  0  0  0  0
  141.8209   82.0617  221.9850 H   0  0  0  0  0  0  0  0  0  0  0  0
  141.0430   81.1798  224.1621 H   0  0  0  0  0  0  0  0  0  0  0  0
  140.6941   78.7625  224.4863 H   0  0  0  0  0  0  0  0  0  0  0  0
  141.9007   76.3615  223.2866 H   0  0  0  0  0  0  0  0  0  0  0  0
  140.1305   76.6310  223.3031 H   0  0  0  0  0  0  0  0  0  0  0  0
  141.9636   70.1253  220.3509 H   0  0  0  0  0  0  0  0  0  0  0  0
  141.9947   70.3525  218.5606 H   0  0  0  0  0  0  0  0  0  0  0  0
  1  2  2  0
  2  3  1  0
  3  4  2  0
  4  5  1  0
  5  6  2  0
  5  7  1  0
  7  8  1  0
  8  9  1  0
  9 10  1  0
 10 11  2  0
 11 12  1  0
 12 13  1  0
 13 14  1  0
 14 15  1  0
 15 16  1  0
 16 17  1  0
 17 18  2  0
 18 19  1  0
 19 20  2  0
 20 21  1  0
 21 22  2  0
 12 23  2  0
 23 24  1  0
 24 25  1  0
 25 26  1  0
 26 27  1  0
 27 28  1  0
 28 29  2  0
 29 30  1  0
 30 31  2  0
 31 32  1  0
 32 33  2  0
 33 34  1  0
 24 35  2  0
  9 36  1  0
  6  1  1  0
 35 10  1  0
 36  4  1  0
 22 14  1  0
 34 25  1  0
 22 17  1  0
 33 28  1  0
  1 37  1  0
  2 38  1  0
  3 39  1  0
  6 40  1  0
  7 41  1  0
  7 42  1  0
  8 43  1  0
  8 44  1  0
 11 45  1  0
 13 46  1  0
 14 47  1  6
 15 48  1  0
 15 49  1  0
 16 50  1  0
 16 51  1  0
 18 52  1  0
 19 53  1  0
 20 54  1  0
 21 55  1  0
 26 56  1  0
 26 57  1  0
 27 58  1  0
 27 59  1  0
 29 60  1  0
 30 61  1  0
 31 62  1  0
 32 63  1  0
 34 64  1  0
 34 65  1  0
 36 66  1  0
 36 67  1  0
M  END
>  <smiles>  (23) 
c1ccc2c(c1)CCN(c1cc(N[C@@H]3CCc4ccccc43)nc(N3CCc4ccccc4C3)n1)C2

>  <score_type>  (23) 
oracle

>  <origin>  (23) 
autodockgpu

>  <m_score__min__energy>  (23) 
-11.73

>  <m_primary>  (23) 
energy

>  <rmsd>  (23) 
10.340306524833446

>  <m_score__min__rmsd>  (23) 
10.340306524833446

>  <meeko>  (23) 
{"free_energy": -11.7, "intermolecular_energy": -12.89, "internal_energy": -1.22, "cluster_size": 49, "cluster_id": 1, "rank_in_cluster": 20}

>  <energy>  (23) 
-11.7

>  <cluster_rmsd>  (23) 
0.06

>  <cluster>  (23) 
1

$$$$

     RDKit          3D

 67 73  0  0  0  0  0  0  0  0999 V2000
  146.2890   68.5450  219.3030 C   0  0  0  0  0  0  0  0  0  0  0  0
  145.1090   67.8410  219.3530 C   0  0  0  0  0  0  0  0  0  0  0  0
  143.9030   68.5220  219.3990 C   0  0  0  0  0  0  0  0  0  0  0  0
  143.8670   69.9000  219.3950 C   0  0  0  0  0  0  0  0  0  0  0  0
  145.0300   70.6130  219.3450 C   0  0  0  0  0  0  0  0  0  0  0  0
  146.2430   69.9260  219.2990 C   0  0  0  0  0  0  0  0  0  0  0  0
  145.1090   72.0970  219.3360 C   0  0  0  0  0  0  0  0  0  0  0  0
  143.7780   72.6580  218.9300 C   0  0  0  0  0  0  0  0  0  0  0  0
  142.7120   72.0140  219.6780 N   0  0  0  0  0  0  0  0  0  0  0  0
  141.8700   72.6800  220.5890 C   0  0  0  0  0  0  0  0  0  0  0  0
  141.0750   72.0300  221.5080 C   0  0  0  0  0  0  0  0  0  0  0  0
  140.2500   72.6930  222.3980 C   0  0  0  0  0  0  0  0  0  0  0  0
  139.4480   71.9630  223.3300 N   0  0  0  0  0  0  0  0  0  0  0  0
  140.0120   70.7390  223.8510 C   0  0  2  0  0  0  0  0  0  0  0  0
  139.1080   69.5610  223.7650 C   0  0  0  0  0  0  0  0  0  0  0  0
  138.9530   68.9700  225.1410 C   0  0  0  0  0  0  0  0  0  0  0  0
  139.6880   69.8940  226.0300 C   0  0  0  0  0  0  0  0  0  0  0  0
  139.8430   69.8860  227.3980 C   0  0  0  0  0  0  0  0  0  0  0  0
  140.5800   70.8650  227.9850 C   0  0  0  0  0  0  0  0  0  0  0  0
  141.1970   71.8870  227.2880 C   0  0  0  0  0  0  0  0  0  0  0  0
  141.0410   71.8940  225.9160 C   0  0  0  0  0  0  0  0  0  0  0  0
  140.2860   70.8960  225.2930 C   0  0  0  0  0  0  0  0  0  0  0  0
  140.2500   74.0370  222.3320 N   0  0  0  0  0  0  0  0  0  0  0  0
  141.0250   74.7080  221.4340 C   0  0  0  0  0  0  0  0  0  0  0  0
  140.9580   76.1290  221.4380 N   0  0  0  0  0  0  0  0  0  0  0  0
  140.8030   76.8410  220.1860 C   0  0  0  0  0  0  0  0  0  0  0  0
  141.9800   77.8270  220.1480 C   0  0  0  0  0  0  0  0  0  0  0  0
  141.6960   78.7760  221.2790 C   0  0  0  0  0  0  0  0  0  0  0  0
  141.8820   80.1200  221.0850 C   0  0  0  0  0  0  0  0  0  0  0  0
  141.6280   81.0100  222.1120 C   0  0  0  0  0  0  0  0  0  0  0  0
  141.1900   80.5150  223.3110 C   0  0  0  0  0  0  0  0  0  0  0  0
  141.0070   79.1570  223.4930 C   0  0  0  0  0  0  0  0  0  0  0  0
  141.2600   78.2500  222.4670 C   0  0  0  0  0  0  0  0  0  0  0  0
  141.0490   76.8020  222.7090 C   0  0  0  0  0  0  0  0  0  0  0  0
  141.8130   74.0240  220.5860 N   0  0  0  0  0  0  0  0  0  0  0  0
  142.5410   70.5880  219.4470 C   0  0  0  0  0  0  0  0  0  0  0  0
  147.2536   68.0176  219.2668 H   0  0  0  0  0  0  0  0  0  0  0  0
  145.1222   66.7411  219.3565 H   0  0  0  0  0  0  0  0  0  0  0  0
  142.9612   67.9550  219.4393 H   0  0  0  0  0  0  0  0  0  0  0  0
  147.1831   70.4958  219.2587 H   0  0  0  0  0  0  0  0  0  0  0  0
  145.3693   72.4579  220.3420 H   0  0  0  0  0  0  0  0  0  0  0  0
  145.8809   72.4223  218.6230 H   0  0  0  0  0  0  0  0  0  0  0  0
  143.7623   73.7390  219.1329 H   0  0  0  0  0  0  0  0  0  0  0  0
  143.6240   72.4748  217.8563 H   0  0  0  0  0  0  0  0  0  0  0  0
  141.0978   70.9306  221.5349 H   0  0  0  0  0  0  0  0  0  0  0  0
  138.4990   72.2780  223.6330 H   0  0  0  0  0  0  0  0  0  0  0  0
  140.9066   70.5612  223.2361 H   0  0  0  0  0  0  0  0  0  0  0  0
  138.1251   69.8757  223.3845 H   0  0  0  0  0  0  0  0  0  0  0  0
  139.5329   68.8116  223.0809 H   0  0  0  0  0  0  0  0  0  0  0  0
  137.8914   68.9206  225.4248 H   0  0  0  0  0  0  0  0  0  0  0  0
  139.3387   67.9415  225.1985 H   0  0  0  0  0  0  0  0  0  0  0  0
  139.3766   69.0979  228.0074 H   0  0  0  0  0  0  0  0  0  0  0  0
  140.6923   70.8430  229.0790 H   0  0  0  0  0  0  0  0  0  0  0  0
  141.7859   72.6601  227.8033 H   0  0  0  0  0  0  0  0  0  0  0  0
  141.5109   72.6850  225.3132 H   0  0  0  0  0  0  0  0  0  0  0  0
  140.8527   76.1451  219.3356 H   0  0  0  0  0  0  0  0  0  0  0  0
  139.8310   77.3513  220.1157 H   0  0  0  0  0  0  0  0  0  0  0  0
  142.9341   77.3033  220.3072 H   0  0  0  0  0  0  0  0  0  0  0  0
  142.0724   78.3389  219.1788 H   0  0  0  0  0  0  0  0  0  0  0  0
  142.2338   80.4910  220.1110 H   0  0  0  0  0  0  0  0  0  0  0  0
  141.7744   82.0908  221.9691 H   0  0  0  0  0  0  0  0  0  0  0  0
  140.9810   81.2069  224.1402 H   0  0  0  0  0  0  0  0  0  0  0  0
  140.6549   78.7857  224.4667 H   0  0  0  0  0  0  0  0  0  0  0  0
  141.8947   76.3957  223.2831 H   0  0  0  0  0  0  0  0  0  0  0  0
  140.1219   76.6491  223.2810 H   0  0  0  0  0  0  0  0  0  0  0  0
  141.9429   70.1587  220.2643 H   0  0  0  0  0  0  0  0  0  0  0  0
  142.0291   70.4439  218.4841 H   0  0  0  0  0  0  0  0  0  0  0  0
  1  2  2  0
  2  3  1  0
  3  4  2  0
  4  5  1  0
  5  6  2  0
  5  7  1  0
  7  8  1  0
  8  9  1  0
  9 10  1  0
 10 11  2  0
 11 12  1  0
 12 13  1  0
 13 14  1  0
 14 15  1  0
 15 16  1  0
 16 17  1  0
 17 18  2  0
 18 19  1  0
 19 20  2  0
 20 21  1  0
 21 22  2  0
 12 23  2  0
 23 24  1  0
 24 25  1  0
 25 26  1  0
 26 27  1  0
 27 28  1  0
 28 29  2  0
 29 30  1  0
 30 31  2  0
 31 32  1  0
 32 33  2  0
 33 34  1  0
 24 35  2  0
  9 36  1  0
  6  1  1  0
 35 10  1  0
 36  4  1  0
 22 14  1  0
 34 25  1  0
 22 17  1  0
 33 28  1  0
  1 37  1  0
  2 38  1  0
  3 39  1  0
  6 40  1  0
  7 41  1  0
  7 42  1  0
  8 43  1  0
  8 44  1  0
 11 45  1  0
 13 46  1  0
 14 47  1  6
 15 48  1  0
 15 49  1  0
 16 50  1  0
 16 51  1  0
 18 52  1  0
 19 53  1  0
 20 54  1  0
 21 55  1  0
 26 56  1  0
 26 57  1  0
 27 58  1  0
 27 59  1  0
 29 60  1  0
 30 61  1  0
 31 62  1  0
 32 63  1  0
 34 64  1  0
 34 65  1  0
 36 66  1  0
 36 67  1  0
M  END
>  <smiles>  (24) 
c1ccc2c(c1)CCN(c1cc(N[C@@H]3CCc4ccccc43)nc(N3CCc4ccccc4C3)n1)C2

>  <score_type>  (24) 
oracle

>  <origin>  (24) 
autodockgpu

>  <m_score__min__energy>  (24) 
-11.73

>  <m_primary>  (24) 
energy

>  <rmsd>  (24) 
10.344112785279286

>  <m_score__min__rmsd>  (24) 
10.344112785279286

>  <meeko>  (24) 
{"free_energy": -11.71, "intermolecular_energy": -12.9, "internal_energy": -1.21, "cluster_size": 49, "cluster_id": 1, "rank_in_cluster": 12}

>  <energy>  (24) 
-11.69

>  <cluster_rmsd>  (24) 
0.07

>  <cluster>  (24) 
1

$$$$

     RDKit          3D

 67 73  0  0  0  0  0  0  0  0999 V2000
  146.3110   68.5060  219.3230 C   0  0  0  0  0  0  0  0  0  0  0  0
  145.1210   67.8190  219.3540 C   0  0  0  0  0  0  0  0  0  0  0  0
  143.9240   68.5170  219.3950 C   0  0  0  0  0  0  0  0  0  0  0  0
  143.9080   69.8960  219.4030 C   0  0  0  0  0  0  0  0  0  0  0  0
  145.0820   70.5920  219.3710 C   0  0  0  0  0  0  0  0  0  0  0  0
  146.2850   69.8880  219.3310 C   0  0  0  0  0  0  0  0  0  0  0  0
  145.1810   72.0740  219.3760 C   0  0  0  0  0  0  0  0  0  0  0  0
  143.8630   72.6590  218.9610 C   0  0  0  0  0  0  0  0  0  0  0  0
  142.7800   72.0230  219.6930 N   0  0  0  0  0  0  0  0  0  0  0  0
  141.9390   72.6930  220.6010 C   0  0  0  0  0  0  0  0  0  0  0  0
  141.1500   72.0480  221.5290 C   0  0  0  0  0  0  0  0  0  0  0  0
  140.3260   72.7150  222.4160 C   0  0  0  0  0  0  0  0  0  0  0  0
  139.5300   71.9890  223.3570 N   0  0  0  0  0  0  0  0  0  0  0  0
  140.0950   70.7650  223.8760 C   0  0  2  0  0  0  0  0  0  0  0  0
  139.2080   69.5780  223.7490 C   0  0  0  0  0  0  0  0  0  0  0  0
  139.0240   68.9650  225.1120 C   0  0  0  0  0  0  0  0  0  0  0  0
  139.7250   69.8850  226.0340 C   0  0  0  0  0  0  0  0  0  0  0  0
  139.8440   69.8600  227.4050 C   0  0  0  0  0  0  0  0  0  0  0  0
  140.5530   70.8390  228.0250 C   0  0  0  0  0  0  0  0  0  0  0  0
  141.1750   71.8780  227.3580 C   0  0  0  0  0  0  0  0  0  0  0  0
  141.0560   71.9030  225.9830 C   0  0  0  0  0  0  0  0  0  0  0  0
  140.3300   70.9040  225.3260 C   0  0  0  0  0  0  0  0  0  0  0  0
  140.3190   74.0580  222.3390 N   0  0  0  0  0  0  0  0  0  0  0  0
  141.0880   74.7250  221.4330 C   0  0  0  0  0  0  0  0  0  0  0  0
  141.0160   76.1450  221.4250 N   0  0  0  0  0  0  0  0  0  0  0  0
  140.8890   76.8490  220.1650 C   0  0  0  0  0  0  0  0  0  0  0  0
  142.0620   77.8390  220.1480 C   0  0  0  0  0  0  0  0  0  0  0  0
  141.7470   78.7940  221.2660 C   0  0  0  0  0  0  0  0  0  0  0  0
  141.9320   80.1380  221.0670 C   0  0  0  0  0  0  0  0  0  0  0  0
  141.6490   81.0340  222.0810 C   0  0  0  0  0  0  0  0  0  0  0  0
  141.1840   80.5450  223.2720 C   0  0  0  0  0  0  0  0  0  0  0  0
  141.0020   79.1880  223.4590 C   0  0  0  0  0  0  0  0  0  0  0  0
  141.2830   78.2750  222.4470 C   0  0  0  0  0  0  0  0  0  0  0  0
  141.0730   76.8270  222.6930 C   0  0  0  0  0  0  0  0  0  0  0  0
  141.8760   74.0380  220.5880 N   0  0  0  0  0  0  0  0  0  0  0  0
  142.5920   70.6020  219.4470 C   0  0  0  0  0  0  0  0  0  0  0  0
  147.2683   67.9650  219.2923 H   0  0  0  0  0  0  0  0  0  0  0  0
  145.1184   66.7190  219.3463 H   0  0  0  0  0  0  0  0  0  0  0  0
  142.9739   67.9633  219.4215 H   0  0  0  0  0  0  0  0  0  0  0  0
  147.2336   70.4443  219.3052 H   0  0  0  0  0  0  0  0  0  0  0  0
  145.4355   72.4221  220.3880 H   0  0  0  0  0  0  0  0  0  0  0  0
  145.9645   72.3940  218.6733 H   0  0  0  0  0  0  0  0  0  0  0  0
  143.8611   73.7382  219.1738 H   0  0  0  0  0  0  0  0  0  0  0  0
  143.7174   72.4889  217.8840 H   0  0  0  0  0  0  0  0  0  0  0  0
  141.1774   70.9489  221.5655 H   0  0  0  0  0  0  0  0  0  0  0  0
  138.5850   72.3080  223.6680 H   0  0  0  0  0  0  0  0  0  0  0  0
  141.0079   70.6070  223.2830 H   0  0  0  0  0  0  0  0  0  0  0  0
  138.2317   69.8867  223.3471 H   0  0  0  0  0  0  0  0  0  0  0  0
  139.6597   68.8439  223.0657 H   0  0  0  0  0  0  0  0  0  0  0  0
  137.9560   68.8992  225.3670 H   0  0  0  0  0  0  0  0  0  0  0  0
  139.4203   67.9402  225.1649 H   0  0  0  0  0  0  0  0  0  0  0  0
  139.3713   69.0580  227.9909 H   0  0  0  0  0  0  0  0  0  0  0  0
  140.6370   70.8029  229.1212 H   0  0  0  0  0  0  0  0  0  0  0  0
  141.7401   72.6510  227.8994 H   0  0  0  0  0  0  0  0  0  0  0  0
  141.5319   72.7082  225.4041 H   0  0  0  0  0  0  0  0  0  0  0  0
  140.9616   76.1479  219.3205 H   0  0  0  0  0  0  0  0  0  0  0  0
  139.9173   77.3554  220.0688 H   0  0  0  0  0  0  0  0  0  0  0  0
  143.0143   77.3204  220.3332 H   0  0  0  0  0  0  0  0  0  0  0  0
  142.1755   78.3449  219.1779 H   0  0  0  0  0  0  0  0  0  0  0  0
  142.3061   80.5037  220.0993 H   0  0  0  0  0  0  0  0  0  0  0  0
  141.7941   82.1145  221.9342 H   0  0  0  0  0  0  0  0  0  0  0  0
  140.9521   81.2416  224.0912 H   0  0  0  0  0  0  0  0  0  0  0  0
  140.6277   78.8224  224.4266 H   0  0  0  0  0  0  0  0  0  0  0  0
  141.9065   76.4286  223.2901 H   0  0  0  0  0  0  0  0  0  0  0  0
  140.1328   76.6734  223.2430 H   0  0  0  0  0  0  0  0  0  0  0  0
  141.9791   70.1737  220.2538 H   0  0  0  0  0  0  0  0  0  0  0  0
  142.0889   70.4741  218.4772 H   0  0  0  0  0  0  0  0  0  0  0  0
  1  2  2  0
  2  3  1  0
  3  4  2  0
  4  5  1  0
  5  6  2  0
  5  7  1  0
  7  8  1  0
  8  9  1  0
  9 10  1  0
 10 11  2  0
 11 12  1  0
 12 13  1  0
 13 14  1  0
 14 15  1  0
 15 16  1  0
 16 17  1  0
 17 18  2  0
 18 19  1  0
 19 20  2  0
 20 21  1  0
 21 22  2  0
 12 23  2  0
 23 24  1  0
 24 25  1  0
 25 26  1  0
 26 27  1  0
 27 28  1  0
 28 29  2  0
 29 30  1  0
 30 31  2  0
 31 32  1  0
 32 33  2  0
 33 34  1  0
 24 35  2  0
  9 36  1  0
  6  1  1  0
 35 10  1  0
 36  4  1  0
 22 14  1  0
 34 25  1  0
 22 17  1  0
 33 28  1  0
  1 37  1  0
  2 38  1  0
  3 39  1  0
  6 40  1  0
  7 41  1  0
  7 42  1  0
  8 43  1  0
  8 44  1  0
 11 45  1  0
 13 46  1  0
 14 47  1  6
 15 48  1  0
 15 49  1  0
 16 50  1  0
 16 51  1  0
 18 52  1  0
 19 53  1  0
 20 54  1  0
 21 55  1  0
 26 56  1  0
 26 57  1  0
 27 58  1  0
 27 59  1  0
 29 60  1  0
 30 61  1  0
 31 62  1  0
 32 63  1  0
 34 64  1  0
 34 65  1  0
 36 66  1  0
 36 67  1  0
M  END
>  <smiles>  (25) 
c1ccc2c(c1)CCN(c1cc(N[C@@H]3CCc4ccccc43)nc(N3CCc4ccccc4C3)n1)C2

>  <score_type>  (25) 
oracle

>  <origin>  (25) 
autodockgpu

>  <m_score__min__energy>  (25) 
-11.73

>  <m_primary>  (25) 
energy

>  <rmsd>  (25) 
10.345367061073961

>  <m_score__min__rmsd>  (25) 
10.345367061073961

>  <meeko>  (25) 
{"free_energy": -11.72, "intermolecular_energy": -12.91, "internal_energy": -1.2, "cluster_size": 49, "cluster_id": 1, "rank_in_cluster": 5}

>  <energy>  (25) 
-11.69

>  <cluster_rmsd>  (25) 
0.05

>  <cluster>  (25) 
1

$$$$

     RDKit          3D

 67 73  0  0  0  0  0  0  0  0999 V2000
  146.3280   68.4970  219.3220 C   0  0  0  0  0  0  0  0  0  0  0  0
  145.1490   67.7940  219.3990 C   0  0  0  0  0  0  0  0  0  0  0  0
  143.9440   68.4760  219.4480 C   0  0  0  0  0  0  0  0  0  0  0  0
  143.9070   69.8540  219.4180 C   0  0  0  0  0  0  0  0  0  0  0  0
  145.0700   70.5660  219.3410 C   0  0  0  0  0  0  0  0  0  0  0  0
  146.2820   69.8770  219.2930 C   0  0  0  0  0  0  0  0  0  0  0  0
  145.1480   72.0480  219.3030 C   0  0  0  0  0  0  0  0  0  0  0  0
  143.8130   72.6030  218.9030 C   0  0  0  0  0  0  0  0  0  0  0  0
  142.7560   71.9730  219.6770 N   0  0  0  0  0  0  0  0  0  0  0  0
  141.9250   72.6560  220.5850 C   0  0  0  0  0  0  0  0  0  0  0  0
  141.1350   72.0230  221.5200 C   0  0  0  0  0  0  0  0  0  0  0  0
  140.3210   72.7020  222.4070 C   0  0  0  0  0  0  0  0  0  0  0  0
  139.5230   71.9890  223.3560 N   0  0  0  0  0  0  0  0  0  0  0  0
  140.0790   70.7630  223.8800 C   0  0  2  0  0  0  0  0  0  0  0  0
  139.1790   69.5840  223.7660 C   0  0  0  0  0  0  0  0  0  0  0  0
  138.9980   68.9820  225.1350 C   0  0  0  0  0  0  0  0  0  0  0  0
  139.7140   69.9020  226.0450 C   0  0  0  0  0  0  0  0  0  0  0  0
  139.8410   69.8840  227.4160 C   0  0  0  0  0  0  0  0  0  0  0  0
  140.5640   70.8600  228.0250 C   0  0  0  0  0  0  0  0  0  0  0  0
  141.1930   71.8880  227.3470 C   0  0  0  0  0  0  0  0  0  0  0  0
  141.0640   71.9050  225.9720 C   0  0  0  0  0  0  0  0  0  0  0  0
  140.3240   70.9090  225.3280 C   0  0  0  0  0  0  0  0  0  0  0  0
  140.3270   74.0450  222.3240 N   0  0  0  0  0  0  0  0  0  0  0  0
  141.0980   74.7000  221.4100 C   0  0  0  0  0  0  0  0  0  0  0  0
  141.0400   76.1200  221.3950 N   0  0  0  0  0  0  0  0  0  0  0  0
  140.9750   76.8210  220.1280 C   0  0  0  0  0  0  0  0  0  0  0  0
  142.1560   77.8000  220.1600 C   0  0  0  0  0  0  0  0  0  0  0  0
  141.8020   78.7620  221.2610 C   0  0  0  0  0  0  0  0  0  0  0  0
  142.0080   80.1040  221.0660 C   0  0  0  0  0  0  0  0  0  0  0  0
  141.6890   81.0060  222.0640 C   0  0  0  0  0  0  0  0  0  0  0  0
  141.1680   80.5250  223.2350 C   0  0  0  0  0  0  0  0  0  0  0  0
  140.9650   79.1700  223.4180 C   0  0  0  0  0  0  0  0  0  0  0  0
  141.2820   78.2510  222.4210 C   0  0  0  0  0  0  0  0  0  0  0  0
  141.0470   76.8060  222.6630 C   0  0  0  0  0  0  0  0  0  0  0  0
  141.8760   74.0000  220.5650 N   0  0  0  0  0  0  0  0  0  0  0  0
  142.5830   70.5430  219.4740 C   0  0  0  0  0  0  0  0  0  0  0  0
  147.2922   67.9689  219.2841 H   0  0  0  0  0  0  0  0  0  0  0  0
  145.1623   66.6943  219.4216 H   0  0  0  0  0  0  0  0  0  0  0  0
  143.0030   67.9098  219.5118 H   0  0  0  0  0  0  0  0  0  0  0  0
  147.2217   70.4453  219.2307 H   0  0  0  0  0  0  0  0  0  0  0  0
  145.4206   72.4276  220.2988 H   0  0  0  0  0  0  0  0  0  0  0  0
  145.9106   72.3590  218.5738 H   0  0  0  0  0  0  0  0  0  0  0  0
  143.8006   73.6876  219.0861 H   0  0  0  0  0  0  0  0  0  0  0  0
  143.6453   72.4010  217.8348 H   0  0  0  0  0  0  0  0  0  0  0  0
  141.1531   70.9240  221.5625 H   0  0  0  0  0  0  0  0  0  0  0  0
  138.5820   72.3180  223.6690 H   0  0  0  0  0  0  0  0  0  0  0  0
  140.9869   70.5921  223.2829 H   0  0  0  0  0  0  0  0  0  0  0  0
  138.2033   69.8999  223.3684 H   0  0  0  0  0  0  0  0  0  0  0  0
  139.6184   68.8409  223.0843 H   0  0  0  0  0  0  0  0  0  0  0  0
  137.9312   68.9284  225.3976 H   0  0  0  0  0  0  0  0  0  0  0  0
  139.3844   67.9537  225.1928 H   0  0  0  0  0  0  0  0  0  0  0  0
  139.3638   69.0906  228.0099 H   0  0  0  0  0  0  0  0  0  0  0  0
  140.6542   70.8307  229.1209 H   0  0  0  0  0  0  0  0  0  0  0  0
  141.7706   72.6582  227.8792 H   0  0  0  0  0  0  0  0  0  0  0  0
  141.5432   72.7017  225.3840 H   0  0  0  0  0  0  0  0  0  0  0  0
  141.0785   76.1164  219.2897 H   0  0  0  0  0  0  0  0  0  0  0  0
  140.0131   77.3356  219.9874 H   0  0  0  0  0  0  0  0  0  0  0  0
  143.0944   77.2732  220.3879 H   0  0  0  0  0  0  0  0  0  0  0  0
  142.3158   78.3021  219.1944 H   0  0  0  0  0  0  0  0  0  0  0  0
  142.4274   80.4629  220.1146 H   0  0  0  0  0  0  0  0  0  0  0  0
  141.8500   82.0846  221.9205 H   0  0  0  0  0  0  0  0  0  0  0  0
  140.9074   81.2264  224.0413 H   0  0  0  0  0  0  0  0  0  0  0  0
  140.5451   78.8109  224.3692 H   0  0  0  0  0  0  0  0  0  0  0  0
  141.8491   76.4018  223.2980 H   0  0  0  0  0  0  0  0  0  0  0  0
  140.0821   76.6633  223.1716 H   0  0  0  0  0  0  0  0  0  0  0  0
  141.9951   70.1286  220.3063 H   0  0  0  0  0  0  0  0  0  0  0  0
  142.0597   70.3819  218.5199 H   0  0  0  0  0  0  0  0  0  0  0  0
  1  2  2  0
  2  3  1  0
  3  4  2  0
  4  5  1  0
  5  6  2  0
  5  7  1  0
  7  8  1  0
  8  9  1  0
  9 10  1  0
 10 11  2  0
 11 12  1  0
 12 13  1  0
 13 14  1  0
 14 15  1  0
 15 16  1  0
 16 17  1  0
 17 18  2  0
 18 19  1  0
 19 20  2  0
 20 21  1  0
 21 22  2  0
 12 23  2  0
 23 24  1  0
 24 25  1  0
 25 26  1  0
 26 27  1  0
 27 28  1  0
 28 29  2  0
 29 30  1  0
 30 31  2  0
 31 32  1  0
 32 33  2  0
 33 34  1  0
 24 35  2  0
  9 36  1  0
  6  1  1  0
 35 10  1  0
 36  4  1  0
 22 14  1  0
 34 25  1  0
 22 17  1  0
 33 28  1  0
  1 37  1  0
  2 38  1  0
  3 39  1  0
  6 40  1  0
  7 41  1  0
  7 42  1  0
  8 43  1  0
  8 44  1  0
 11 45  1  0
 13 46  1  0
 14 47  1  6
 15 48  1  0
 15 49  1  0
 16 50  1  0
 16 51  1  0
 18 52  1  0
 19 53  1  0
 20 54  1  0
 21 55  1  0
 26 56  1  0
 26 57  1  0
 27 58  1  0
 27 59  1  0
 29 60  1  0
 30 61  1  0
 31 62  1  0
 32 63  1  0
 34 64  1  0
 34 65  1  0
 36 66  1  0
 36 67  1  0
M  END
>  <smiles>  (26) 
c1ccc2c(c1)CCN(c1cc(N[C@@H]3CCc4ccccc43)nc(N3CCc4ccccc4C3)n1)C2

>  <score_type>  (26) 
oracle

>  <origin>  (26) 
autodockgpu

>  <m_score__min__energy>  (26) 
-11.73

>  <m_primary>  (26) 
energy

>  <rmsd>  (26) 
10.341353023008981

>  <m_score__min__rmsd>  (26) 
10.341353023008981

>  <meeko>  (26) 
{"free_energy": -11.69, "intermolecular_energy": -12.89, "internal_energy": -1.2, "cluster_size": 49, "cluster_id": 1, "rank_in_cluster": 25}

>  <energy>  (26) 
-11.69

>  <cluster_rmsd>  (26) 
0.1

>  <cluster>  (26) 
1

$$$$

     RDKit          3D

 67 73  0  0  0  0  0  0  0  0999 V2000
  140.4120   67.8840  226.0840 C   0  0  0  0  0  0  0  0  0  0  0  0
  141.2570   68.8440  226.5880 C   0  0  0  0  0  0  0  0  0  0  0  0
  141.2220   70.1310  226.0730 C   0  0  0  0  0  0  0  0  0  0  0  0
  140.3490   70.4650  225.0590 C   0  0  0  0  0  0  0  0  0  0  0  0
  139.5030   69.5220  224.5490 C   0  0  0  0  0  0  0  0  0  0  0  0
  139.5400   68.2280  225.0690 C   0  0  0  0  0  0  0  0  0  0  0  0
  138.5250   69.7710  223.4590 C   0  0  0  0  0  0  0  0  0  0  0  0
  138.2850   71.2470  223.3400 C   0  0  0  0  0  0  0  0  0  0  0  0
  139.5500   71.9610  223.3270 N   0  0  0  0  0  0  0  0  0  0  0  0
  140.0240   72.7110  222.2340 C   0  0  0  0  0  0  0  0  0  0  0  0
  140.3830   72.1550  221.0250 C   0  0  0  0  0  0  0  0  0  0  0  0
  140.8480   72.9000  219.9570 C   0  0  0  0  0  0  0  0  0  0  0  0
  141.2060   72.2640  218.7260 N   0  0  0  0  0  0  0  0  0  0  0  0
  142.5770   71.8320  218.5940 C   0  0  2  0  0  0  0  0  0  0  0  0
  142.8580   70.4940  219.1800 C   0  0  0  0  0  0  0  0  0  0  0  0
  143.9820   70.6280  220.1730 C   0  0  0  0  0  0  0  0  0  0  0  0
  144.2610   72.0790  220.2290 C   0  0  0  0  0  0  0  0  0  0  0  0
  145.1500   72.7910  221.0030 C   0  0  0  0  0  0  0  0  0  0  0  0
  145.2150   74.1400  220.8630 C   0  0  0  0  0  0  0  0  0  0  0  0
  144.4340   74.8610  219.9780 C   0  0  0  0  0  0  0  0  0  0  0  0
  143.5420   74.1460  219.2020 C   0  0  0  0  0  0  0  0  0  0  0  0
  143.4610   72.7560  219.3320 C   0  0  0  0  0  0  0  0  0  0  0  0
  140.9420   74.2280  220.1450 N   0  0  0  0  0  0  0  0  0  0  0  0
  140.5950   74.8090  221.3290 C   0  0  0  0  0  0  0  0  0  0  0  0
  140.7280   76.2200  221.4350 N   0  0  0  0  0  0  0  0  0  0  0  0
  140.5400   77.0480  220.2600 C   0  0  0  0  0  0  0  0  0  0  0  0
  141.8310   77.8700  220.1490 C   0  0  0  0  0  0  0  0  0  0  0  0
  141.8070   78.7520  221.3670 C   0  0  0  0  0  0  0  0  0  0  0  0
  142.1570   80.0720  221.2430 C   0  0  0  0  0  0  0  0  0  0  0  0
  142.1420   80.9000  222.3490 C   0  0  0  0  0  0  0  0  0  0  0  0
  141.7720   80.3700  223.5560 C   0  0  0  0  0  0  0  0  0  0  0  0
  141.4210   79.0370  223.6670 C   0  0  0  0  0  0  0  0  0  0  0  0
  141.4330   78.1920  222.5610 C   0  0  0  0  0  0  0  0  0  0  0  0
  141.0490   76.7690  222.7290 C   0  0  0  0  0  0  0  0  0  0  0  0
  140.1470   74.0470  222.3420 N   0  0  0  0  0  0  0  0  0  0  0  0
  140.3500   71.8650  224.5370 C   0  0  0  0  0  0  0  0  0  0  0  0
  140.4298   66.8588  226.4822 H   0  0  0  0  0  0  0  0  0  0  0  0
  141.9585   68.5921  227.3970 H   0  0  0  0  0  0  0  0  0  0  0  0
  141.9000   70.8962  226.4789 H   0  0  0  0  0  0  0  0  0  0  0  0
  138.8601   67.4650  224.6621 H   0  0  0  0  0  0  0  0  0  0  0  0
  138.9258   69.3856  222.5099 H   0  0  0  0  0  0  0  0  0  0  0  0
  137.5783   69.2597  223.6877 H   0  0  0  0  0  0  0  0  0  0  0  0
  137.7419   71.4528  222.4058 H   0  0  0  0  0  0  0  0  0  0  0  0
  137.6907   71.5849  224.2018 H   0  0  0  0  0  0  0  0  0  0  0  0
  140.2953   71.0652  220.9038 H   0  0  0  0  0  0  0  0  0  0  0  0
  140.5260   72.1110  217.9480 H   0  0  0  0  0  0  0  0  0  0  0  0
  142.7555   71.8038  217.5089 H   0  0  0  0  0  0  0  0  0  0  0  0
  141.9585   70.1161  219.6880 H   0  0  0  0  0  0  0  0  0  0  0  0
  143.1425   69.7890  218.3850 H   0  0  0  0  0  0  0  0  0  0  0  0
  143.6742   70.2536  221.1605 H   0  0  0  0  0  0  0  0  0  0  0  0
  144.8676   70.0444  219.8811 H   0  0  0  0  0  0  0  0  0  0  0  0
  145.7988   72.2737  221.7251 H   0  0  0  0  0  0  0  0  0  0  0  0
  145.9307   74.6918  221.4902 H   0  0  0  0  0  0  0  0  0  0  0  0
  144.5192   75.9546  219.8956 H   0  0  0  0  0  0  0  0  0  0  0  0
  142.8959   74.6699  218.4823 H   0  0  0  0  0  0  0  0  0  0  0  0
  140.3996   76.4243  219.3649 H   0  0  0  0  0  0  0  0  0  0  0  0
  139.6473   77.6857  220.3400 H   0  0  0  0  0  0  0  0  0  0  0  0
  142.7141   77.2142  220.1586 H   0  0  0  0  0  0  0  0  0  0  0  0
  141.8883   78.4436  219.2122 H   0  0  0  0  0  0  0  0  0  0  0  0
  142.4502   80.4724  220.2613 H   0  0  0  0  0  0  0  0  0  0  0  0
  142.4209   81.9605  222.2618 H   0  0  0  0  0  0  0  0  0  0  0  0
  141.7537   81.0126  224.4486 H   0  0  0  0  0  0  0  0  0  0  0  0
  141.1266   78.6367  224.6484 H   0  0  0  0  0  0  0  0  0  0  0  0
  141.8866   76.2094  223.1709 H   0  0  0  0  0  0  0  0  0  0  0  0
  140.1768   76.6927  223.3949 H   0  0  0  0  0  0  0  0  0  0  0  0
  141.3838   72.1659  224.3116 H   0  0  0  0  0  0  0  0  0  0  0  0
  139.9183   72.5284  225.3009 H   0  0  0  0  0  0  0  0  0  0  0  0
  1  2  2  0
  2  3  1  0
  3  4  2  0
  4  5  1  0
  5  6  2  0
  5  7  1  0
  7  8  1  0
  8  9  1  0
  9 10  1  0
 10 11  2  0
 11 12  1  0
 12 13  1  0
 13 14  1  0
 14 15  1  0
 15 16  1  0
 16 17  1  0
 17 18  2  0
 18 19  1  0
 19 20  2  0
 20 21  1  0
 21 22  2  0
 12 23  2  0
 23 24  1  0
 24 25  1  0
 25 26  1  0
 26 27  1  0
 27 28  1  0
 28 29  2  0
 29 30  1  0
 30 31  2  0
 31 32  1  0
 32 33  2  0
 33 34  1  0
 24 35  2  0
  9 36  1  0
  6  1  1  0
 35 10  1  0
 36  4  1  0
 22 14  1  0
 34 25  1  0
 22 17  1  0
 33 28  1  0
  1 37  1  0
  2 38  1  0
  3 39  1  0
  6 40  1  0
  7 41  1  0
  7 42  1  0
  8 43  1  0
  8 44  1  0
 11 45  1  0
 13 46  1  0
 14 47  1  6
 15 48  1  0
 15 49  1  0
 16 50  1  0
 16 51  1  0
 18 52  1  0
 19 53  1  0
 20 54  1  0
 21 55  1  0
 26 56  1  0
 26 57  1  0
 27 58  1  0
 27 59  1  0
 29 60  1  0
 30 61  1  0
 31 62  1  0
 32 63  1  0
 34 64  1  0
 34 65  1  0
 36 66  1  0
 36 67  1  0
M  END
>  <smiles>  (27) 
c1ccc2c(c1)CCN(c1cc(N[C@@H]3CCc4ccccc43)nc(N3CCc4ccccc4C3)n1)C2

>  <score_type>  (27) 
oracle

>  <origin>  (27) 
autodockgpu

>  <m_score__min__energy>  (27) 
-11.73

>  <m_primary>  (27) 
energy

>  <rmsd>  (27) 
8.814632095273435

>  <m_score__min__rmsd>  (27) 
8.814632095273435

>  <meeko>  (27) 
{"free_energy": -10.27, "intermolecular_energy": -11.46, "internal_energy": -1.78, "cluster_size": 49, "cluster_id": 1, "rank_in_cluster": 41}

>  <energy>  (27) 
-11.69

>  <cluster_rmsd>  (27) 
0.09

>  <cluster>  (27) 
1

$$$$

     RDKit          3D

 67 73  0  0  0  0  0  0  0  0999 V2000
  146.3210   68.4930  219.3350 C   0  0  0  0  0  0  0  0  0  0  0  0
  145.1340   67.8010  219.3880 C   0  0  0  0  0  0  0  0  0  0  0  0
  143.9340   68.4930  219.4310 C   0  0  0  0  0  0  0  0  0  0  0  0
  143.9110   69.8720  219.4210 C   0  0  0  0  0  0  0  0  0  0  0  0
  145.0820   70.5740  219.3690 C   0  0  0  0  0  0  0  0  0  0  0  0
  146.2880   69.8750  219.3260 C   0  0  0  0  0  0  0  0  0  0  0  0
  145.1740   72.0560  219.3540 C   0  0  0  0  0  0  0  0  0  0  0  0
  143.8500   72.6290  218.9450 C   0  0  0  0  0  0  0  0  0  0  0  0
  142.7770   71.9980  219.6950 N   0  0  0  0  0  0  0  0  0  0  0  0
  141.9410   72.6760  220.6030 C   0  0  0  0  0  0  0  0  0  0  0  0
  141.1420   72.0380  221.5270 C   0  0  0  0  0  0  0  0  0  0  0  0
  140.3240   72.7120  222.4140 C   0  0  0  0  0  0  0  0  0  0  0  0
  139.5160   71.9930  223.3510 N   0  0  0  0  0  0  0  0  0  0  0  0
  140.0630   70.7600  223.8660 C   0  0  2  0  0  0  0  0  0  0  0  0
  139.1530   69.5900  223.7530 C   0  0  0  0  0  0  0  0  0  0  0  0
  138.9740   68.9850  225.1210 C   0  0  0  0  0  0  0  0  0  0  0  0
  139.7030   69.8940  226.0310 C   0  0  0  0  0  0  0  0  0  0  0  0
  139.8380   69.8700  227.4010 C   0  0  0  0  0  0  0  0  0  0  0  0
  140.5740   70.8360  228.0090 C   0  0  0  0  0  0  0  0  0  0  0  0
  141.2080   71.8620  227.3320 C   0  0  0  0  0  0  0  0  0  0  0  0
  141.0720   71.8850  225.9570 C   0  0  0  0  0  0  0  0  0  0  0  0
  140.3190   70.8990  225.3130 C   0  0  0  0  0  0  0  0  0  0  0  0
  140.3340   74.0550  222.3410 N   0  0  0  0  0  0  0  0  0  0  0  0
  141.1140   74.7150  221.4390 C   0  0  0  0  0  0  0  0  0  0  0  0
  141.0590   76.1360  221.4350 N   0  0  0  0  0  0  0  0  0  0  0  0
  140.9900   76.8470  220.1740 C   0  0  0  0  0  0  0  0  0  0  0  0
  142.1750   77.8220  220.2080 C   0  0  0  0  0  0  0  0  0  0  0  0
  141.8280   78.7770  221.3170 C   0  0  0  0  0  0  0  0  0  0  0  0
  142.0370   80.1190  221.1320 C   0  0  0  0  0  0  0  0  0  0  0  0
  141.7260   81.0150  222.1380 C   0  0  0  0  0  0  0  0  0  0  0  0
  141.2090   80.5260  223.3080 C   0  0  0  0  0  0  0  0  0  0  0  0
  141.0030   79.1710  223.4810 C   0  0  0  0  0  0  0  0  0  0  0  0
  141.3130   78.2590  222.4760 C   0  0  0  0  0  0  0  0  0  0  0  0
  141.0750   76.8120  222.7080 C   0  0  0  0  0  0  0  0  0  0  0  0
  141.8960   74.0210  220.5940 N   0  0  0  0  0  0  0  0  0  0  0  0
  142.5930   70.5730  219.4700 C   0  0  0  0  0  0  0  0  0  0  0  0
  147.2805   67.9561  219.3004 H   0  0  0  0  0  0  0  0  0  0  0  0
  145.1369   66.7010  219.3962 H   0  0  0  0  0  0  0  0  0  0  0  0
  142.9871   67.9349  219.4737 H   0  0  0  0  0  0  0  0  0  0  0  0
  147.2335   70.4355  219.2840 H   0  0  0  0  0  0  0  0  0  0  0  0
  145.4369   72.4183  220.3588 H   0  0  0  0  0  0  0  0  0  0  0  0
  145.9490   72.3706  218.6395 H   0  0  0  0  0  0  0  0  0  0  0  0
  143.8451   73.7108  219.1441 H   0  0  0  0  0  0  0  0  0  0  0  0
  143.6949   72.4440  217.8718 H   0  0  0  0  0  0  0  0  0  0  0  0
  141.1560   70.9386  221.5602 H   0  0  0  0  0  0  0  0  0  0  0  0
  138.5750   72.3240  223.6610 H   0  0  0  0  0  0  0  0  0  0  0  0
  140.9649   70.5823  223.2619 H   0  0  0  0  0  0  0  0  0  0  0  0
  138.1779   69.9156  223.3616 H   0  0  0  0  0  0  0  0  0  0  0  0
  139.5825   68.8454  223.0666 H   0  0  0  0  0  0  0  0  0  0  0  0
  137.9081   68.9404  225.3891 H   0  0  0  0  0  0  0  0  0  0  0  0
  139.3516   67.9531  225.1727 H   0  0  0  0  0  0  0  0  0  0  0  0
  139.3563   69.0793  227.9949 H   0  0  0  0  0  0  0  0  0  0  0  0
  140.6716   70.8003  229.1041 H   0  0  0  0  0  0  0  0  0  0  0  0
  141.7942   72.6255  227.8643 H   0  0  0  0  0  0  0  0  0  0  0  0
  141.5562   72.6790  225.3695 H   0  0  0  0  0  0  0  0  0  0  0  0
  141.0869   76.1487  219.3296 H   0  0  0  0  0  0  0  0  0  0  0  0
  140.0291   77.3659  220.0421 H   0  0  0  0  0  0  0  0  0  0  0  0
  143.1125   77.2906  220.4285 H   0  0  0  0  0  0  0  0  0  0  0  0
  142.3332   78.3302  219.2453 H   0  0  0  0  0  0  0  0  0  0  0  0
  142.4530   80.4838  220.1813 H   0  0  0  0  0  0  0  0  0  0  0  0
  141.8898   82.0942  222.0019 H   0  0  0  0  0  0  0  0  0  0  0  0
  140.9543   81.2216  224.1211 H   0  0  0  0  0  0  0  0  0  0  0  0
  140.5860   78.8057  224.4311 H   0  0  0  0  0  0  0  0  0  0  0  0
  141.8794   76.4006  223.3354 H   0  0  0  0  0  0  0  0  0  0  0  0
  140.1125   76.6681  223.2207 H   0  0  0  0  0  0  0  0  0  0  0  0
  141.9907   70.1529  220.2890 H   0  0  0  0  0  0  0  0  0  0  0  0
  142.0803   70.4302  218.5073 H   0  0  0  0  0  0  0  0  0  0  0  0
  1  2  2  0
  2  3  1  0
  3  4  2  0
  4  5  1  0
  5  6  2  0
  5  7  1  0
  7  8  1  0
  8  9  1  0
  9 10  1  0
 10 11  2  0
 11 12  1  0
 12 13  1  0
 13 14  1  0
 14 15  1  0
 15 16  1  0
 16 17  1  0
 17 18  2  0
 18 19  1  0
 19 20  2  0
 20 21  1  0
 21 22  2  0
 12 23  2  0
 23 24  1  0
 24 25  1  0
 25 26  1  0
 26 27  1  0
 27 28  1  0
 28 29  2  0
 29 30  1  0
 30 31  2  0
 31 32  1  0
 32 33  2  0
 33 34  1  0
 24 35  2  0
  9 36  1  0
  6  1  1  0
 35 10  1  0
 36  4  1  0
 22 14  1  0
 34 25  1  0
 22 17  1  0
 33 28  1  0
  1 37  1  0
  2 38  1  0
  3 39  1  0
  6 40  1  0
  7 41  1  0
  7 42  1  0
  8 43  1  0
  8 44  1  0
 11 45  1  0
 13 46  1  0
 14 47  1  6
 15 48  1  0
 15 49  1  0
 16 50  1  0
 16 51  1  0
 18 52  1  0
 19 53  1  0
 20 54  1  0
 21 55  1  0
 26 56  1  0
 26 57  1  0
 27 58  1  0
 27 59  1  0
 29 60  1  0
 30 61  1  0
 31 62  1  0
 32 63  1  0
 34 64  1  0
 34 65  1  0
 36 66  1  0
 36 67  1  0
M  END
>  <smiles>  (28) 
c1ccc2c(c1)CCN(c1cc(N[C@@H]3CCc4ccccc43)nc(N3CCc4ccccc4C3)n1)C2

>  <score_type>  (28) 
oracle

>  <origin>  (28) 
autodockgpu

>  <m_score__min__energy>  (28) 
-11.73

>  <m_primary>  (28) 
energy

>  <rmsd>  (28) 
10.345633641293835

>  <m_score__min__rmsd>  (28) 
10.345633641293835

>  <meeko>  (28) 
{"free_energy": -11.73, "intermolecular_energy": -12.92, "internal_energy": -1.2, "cluster_size": 49, "cluster_id": 1, "rank_in_cluster": 3}

>  <energy>  (28) 
-11.69

>  <cluster_rmsd>  (28) 
0.09

>  <cluster>  (28) 
1

$$$$

     RDKit          3D

 67 73  0  0  0  0  0  0  0  0999 V2000
  146.3210   68.5650  219.3150 C   0  0  0  0  0  0  0  0  0  0  0  0
  145.1380   67.8650  219.3510 C   0  0  0  0  0  0  0  0  0  0  0  0
  143.9340   68.5500  219.3900 C   0  0  0  0  0  0  0  0  0  0  0  0
  143.9020   69.9280  219.3930 C   0  0  0  0  0  0  0  0  0  0  0  0
  145.0690   70.6370  219.3580 C   0  0  0  0  0  0  0  0  0  0  0  0
  146.2790   69.9460  219.3180 C   0  0  0  0  0  0  0  0  0  0  0  0
  145.1530   72.1210  219.3580 C   0  0  0  0  0  0  0  0  0  0  0  0
  143.8280   72.6890  218.9430 C   0  0  0  0  0  0  0  0  0  0  0  0
  142.7530   72.0450  219.6780 N   0  0  0  0  0  0  0  0  0  0  0  0
  141.9050   72.7090  220.5840 C   0  0  0  0  0  0  0  0  0  0  0  0
  141.1080   72.0570  221.5010 C   0  0  0  0  0  0  0  0  0  0  0  0
  140.2770   72.7180  222.3860 C   0  0  0  0  0  0  0  0  0  0  0  0
  139.4720   71.9860  223.3150 N   0  0  0  0  0  0  0  0  0  0  0  0
  140.0320   70.7580  223.8310 C   0  0  2  0  0  0  0  0  0  0  0  0
  139.1280   69.5820  223.7310 C   0  0  0  0  0  0  0  0  0  0  0  0
  138.9650   68.9810  225.1020 C   0  0  0  0  0  0  0  0  0  0  0  0
  139.6970   69.8980  226.0020 C   0  0  0  0  0  0  0  0  0  0  0  0
  139.8450   69.8810  227.3710 C   0  0  0  0  0  0  0  0  0  0  0  0
  140.5800   70.8540  227.9680 C   0  0  0  0  0  0  0  0  0  0  0  0
  141.2010   71.8810  227.2810 C   0  0  0  0  0  0  0  0  0  0  0  0
  141.0530   71.8980  225.9080 C   0  0  0  0  0  0  0  0  0  0  0  0
  140.3000   70.9040  225.2750 C   0  0  0  0  0  0  0  0  0  0  0  0
  140.2740   74.0620  222.3210 N   0  0  0  0  0  0  0  0  0  0  0  0
  141.0510   74.7350  221.4260 C   0  0  0  0  0  0  0  0  0  0  0  0
  140.9810   76.1550  221.4300 N   0  0  0  0  0  0  0  0  0  0  0  0
  140.8310   76.8670  220.1770 C   0  0  0  0  0  0  0  0  0  0  0  0
  142.0050   77.8560  220.1440 C   0  0  0  0  0  0  0  0  0  0  0  0
  141.7140   78.8040  221.2740 C   0  0  0  0  0  0  0  0  0  0  0  0
  141.8970   80.1490  221.0810 C   0  0  0  0  0  0  0  0  0  0  0  0
  141.6360   81.0390  222.1060 C   0  0  0  0  0  0  0  0  0  0  0  0
  141.1930   80.5420  223.3030 C   0  0  0  0  0  0  0  0  0  0  0  0
  141.0130   79.1840  223.4840 C   0  0  0  0  0  0  0  0  0  0  0  0
  141.2730   78.2780  222.4600 C   0  0  0  0  0  0  0  0  0  0  0  0
  141.0640   76.8280  222.7010 C   0  0  0  0  0  0  0  0  0  0  0  0
  141.8450   74.0530  220.5820 N   0  0  0  0  0  0  0  0  0  0  0  0
  142.5790   70.6210  219.4370 C   0  0  0  0  0  0  0  0  0  0  0  0
  147.2842   68.0346  219.2844 H   0  0  0  0  0  0  0  0  0  0  0  0
  145.1473   66.7650  219.3488 H   0  0  0  0  0  0  0  0  0  0  0  0
  142.9901   67.9859  219.4190 H   0  0  0  0  0  0  0  0  0  0  0  0
  147.2213   70.5128  219.2881 H   0  0  0  0  0  0  0  0  0  0  0  0
  145.4052   72.4754  220.3683 H   0  0  0  0  0  0  0  0  0  0  0  0
  145.9324   72.4475  218.6538 H   0  0  0  0  0  0  0  0  0  0  0  0
  143.8144   73.7690  219.1514 H   0  0  0  0  0  0  0  0  0  0  0  0
  143.6831   72.5120  217.8670 H   0  0  0  0  0  0  0  0  0  0  0  0
  141.1348   70.9577  221.5297 H   0  0  0  0  0  0  0  0  0  0  0  0
  138.5250   72.3030  223.6200 H   0  0  0  0  0  0  0  0  0  0  0  0
  140.9299   70.5840  223.2199 H   0  0  0  0  0  0  0  0  0  0  0  0
  138.1475   69.9003  223.3473 H   0  0  0  0  0  0  0  0  0  0  0  0
  139.5560   68.8374  223.0436 H   0  0  0  0  0  0  0  0  0  0  0  0
  137.9019   68.9310  225.3800 H   0  0  0  0  0  0  0  0  0  0  0  0
  139.3490   67.9515  225.1540 H   0  0  0  0  0  0  0  0  0  0  0  0
  139.3741   69.0897  227.9728 H   0  0  0  0  0  0  0  0  0  0  0  0
  140.6878   70.8236  229.0623 H   0  0  0  0  0  0  0  0  0  0  0  0
  141.7870   72.6504  227.8050 H   0  0  0  0  0  0  0  0  0  0  0  0
  141.5269   72.6926  225.3130 H   0  0  0  0  0  0  0  0  0  0  0  0
  140.8867   76.1711  219.3269 H   0  0  0  0  0  0  0  0  0  0  0  0
  139.8582   77.3751  220.1024 H   0  0  0  0  0  0  0  0  0  0  0  0
  142.9599   77.3349  220.3069 H   0  0  0  0  0  0  0  0  0  0  0  0
  142.0997   78.3684  219.1753 H   0  0  0  0  0  0  0  0  0  0  0  0
  142.2522   80.5206  220.1085 H   0  0  0  0  0  0  0  0  0  0  0  0
  141.7806   82.1201  221.9638 H   0  0  0  0  0  0  0  0  0  0  0  0
  140.9776   81.2331  224.1312 H   0  0  0  0  0  0  0  0  0  0  0  0
  140.6574   78.8118  224.4561 H   0  0  0  0  0  0  0  0  0  0  0  0
  141.9078   76.4237  223.2794 H   0  0  0  0  0  0  0  0  0  0  0  0
  140.1344   76.6729  223.2682 H   0  0  0  0  0  0  0  0  0  0  0  0
  141.9718   70.1892  220.2462 H   0  0  0  0  0  0  0  0  0  0  0  0
  142.0757   70.4848  218.4684 H   0  0  0  0  0  0  0  0  0  0  0  0
  1  2  2  0
  2  3  1  0
  3  4  2  0
  4  5  1  0
  5  6  2  0
  5  7  1  0
  7  8  1  0
  8  9  1  0
  9 10  1  0
 10 11  2  0
 11 12  1  0
 12 13  1  0
 13 14  1  0
 14 15  1  0
 15 16  1  0
 16 17  1  0
 17 18  2  0
 18 19  1  0
 19 20  2  0
 20 21  1  0
 21 22  2  0
 12 23  2  0
 23 24  1  0
 24 25  1  0
 25 26  1  0
 26 27  1  0
 27 28  1  0
 28 29  2  0
 29 30  1  0
 30 31  2  0
 31 32  1  0
 32 33  2  0
 33 34  1  0
 24 35  2  0
  9 36  1  0
  6  1  1  0
 35 10  1  0
 36  4  1  0
 22 14  1  0
 34 25  1  0
 22 17  1  0
 33 28  1  0
  1 37  1  0
  2 38  1  0
  3 39  1  0
  6 40  1  0
  7 41  1  0
  7 42  1  0
  8 43  1  0
  8 44  1  0
 11 45  1  0
 13 46  1  0
 14 47  1  6
 15 48  1  0
 15 49  1  0
 16 50  1  0
 16 51  1  0
 18 52  1  0
 19 53  1  0
 20 54  1  0
 21 55  1  0
 26 56  1  0
 26 57  1  0
 27 58  1  0
 27 59  1  0
 29 60  1  0
 30 61  1  0
 31 62  1  0
 32 63  1  0
 34 64  1  0
 34 65  1  0
 36 66  1  0
 36 67  1  0
M  END
>  <smiles>  (29) 
c1ccc2c(c1)CCN(c1cc(N[C@@H]3CCc4ccccc43)nc(N3CCc4ccccc4C3)n1)C2

>  <score_type>  (29) 
oracle

>  <origin>  (29) 
autodockgpu

>  <m_score__min__energy>  (29) 
-11.73

>  <m_primary>  (29) 
energy

>  <rmsd>  (29) 
10.329976632810721

>  <m_score__min__rmsd>  (29) 
10.329976632810721

>  <meeko>  (29) 
{"free_energy": -11.7, "intermolecular_energy": -12.89, "internal_energy": -1.21, "cluster_size": 49, "cluster_id": 1, "rank_in_cluster": 19}

>  <energy>  (29) 
-11.67

>  <cluster_rmsd>  (29) 
0.05

>  <cluster>  (29) 
1

$$$$

     RDKit          3D

 67 73  0  0  0  0  0  0  0  0999 V2000
  140.3030   67.5560  226.6630 C   0  0  0  0  0  0  0  0  0  0  0  0
  140.9380   68.6000  227.2930 C   0  0  0  0  0  0  0  0  0  0  0  0
  140.8650   69.8750  226.7550 C   0  0  0  0  0  0  0  0  0  0  0  0
  140.1620   70.1150  225.5930 C   0  0  0  0  0  0  0  0  0  0  0  0
  139.5260   69.0880  224.9560 C   0  0  0  0  0  0  0  0  0  0  0  0
  139.6010   67.8060  225.4990 C   0  0  0  0  0  0  0  0  0  0  0  0
  138.7430   69.2310  223.7010 C   0  0  0  0  0  0  0  0  0  0  0  0
  138.3780   70.6740  223.5100 C   0  0  0  0  0  0  0  0  0  0  0  0
  139.5440   71.5180  223.7140 N   0  0  0  0  0  0  0  0  0  0  0  0
  140.1290   72.3130  222.7100 C   0  0  0  0  0  0  0  0  0  0  0  0
  140.9060   71.8050  221.6910 C   0  0  0  0  0  0  0  0  0  0  0  0
  141.4790   72.5940  220.7110 C   0  0  0  0  0  0  0  0  0  0  0  0
  142.2760   72.0080  219.6770 N   0  0  0  0  0  0  0  0  0  0  0  0
  143.5460   72.6390  219.4020 C   0  0  2  0  0  0  0  0  0  0  0  0
  144.4900   72.6450  220.5510 C   0  0  0  0  0  0  0  0  0  0  0  0
  144.9090   74.0650  220.8240 C   0  0  0  0  0  0  0  0  0  0  0  0
  144.1020   74.8790  219.8900 C   0  0  0  0  0  0  0  0  0  0  0  0
  144.0260   76.2450  219.7300 C   0  0  0  0  0  0  0  0  0  0  0  0
  143.1940   76.7530  218.7840 C   0  0  0  0  0  0  0  0  0  0  0  0
  142.4030   75.9770  217.9570 C   0  0  0  0  0  0  0  0  0  0  0  0
  142.4800   74.6080  218.1190 C   0  0  0  0  0  0  0  0  0  0  0  0
  143.3310   74.0650  219.0870 C   0  0  0  0  0  0  0  0  0  0  0  0
  141.2440   73.9160  220.7890 N   0  0  0  0  0  0  0  0  0  0  0  0
  140.4800   74.4490  221.7840 C   0  0  0  0  0  0  0  0  0  0  0  0
  140.2870   75.8570  221.7850 N   0  0  0  0  0  0  0  0  0  0  0  0
  139.3300   76.4500  220.8720 C   0  0  0  0  0  0  0  0  0  0  0  0
  140.1330   77.4980  220.0890 C   0  0  0  0  0  0  0  0  0  0  0  0
  140.5040   78.5210  221.1260 C   0  0  0  0  0  0  0  0  0  0  0  0
  140.3970   79.8530  220.8190 C   0  0  0  0  0  0  0  0  0  0  0  0
  140.7330   80.8110  221.7570 C   0  0  0  0  0  0  0  0  0  0  0  0
  141.1690   80.3940  222.9860 C   0  0  0  0  0  0  0  0  0  0  0  0
  141.2730   79.0480  223.2830 C   0  0  0  0  0  0  0  0  0  0  0  0
  140.9380   78.0740  222.3470 C   0  0  0  0  0  0  0  0  0  0  0  0
  141.0650   76.6410  222.7110 C   0  0  0  0  0  0  0  0  0  0  0  0
  139.9420   73.6450  222.7180 N   0  0  0  0  0  0  0  0  0  0  0  0
  140.1150   71.5070  225.0510 C   0  0  0  0  0  0  0  0  0  0  0  0
  140.3528   66.5387  227.0784 H   0  0  0  0  0  0  0  0  0  0  0  0
  141.5020   68.4239  228.2208 H   0  0  0  0  0  0  0  0  0  0  0  0
  141.3750   70.7074  227.2619 H   0  0  0  0  0  0  0  0  0  0  0  0
  139.0903   66.9754  224.9898 H   0  0  0  0  0  0  0  0  0  0  0  0
  139.3480   68.8884  222.8486 H   0  0  0  0  0  0  0  0  0  0  0  0
  137.8283   68.6233  223.7643 H   0  0  0  0  0  0  0  0  0  0  0  0
  137.9977   70.8204  222.4883 H   0  0  0  0  0  0  0  0  0  0  0  0
  137.6039   70.9483  224.2417 H   0  0  0  0  0  0  0  0  0  0  0  0
  141.0785   70.7192  221.6559 H   0  0  0  0  0  0  0  0  0  0  0  0
  141.9760   71.1670  219.1360 H   0  0  0  0  0  0  0  0  0  0  0  0
  143.9754   72.0520  218.5767 H   0  0  0  0  0  0  0  0  0  0  0  0
  143.9939   72.2281  221.4398 H   0  0  0  0  0  0  0  0  0  0  0  0
  145.3726   72.0327  220.3141 H   0  0  0  0  0  0  0  0  0  0  0  0
  144.6914   74.3403  221.8665 H   0  0  0  0  0  0  0  0  0  0  0  0
  145.9893   74.2155  220.6816 H   0  0  0  0  0  0  0  0  0  0  0  0
  144.6304   76.9149  220.3593 H   0  0  0  0  0  0  0  0  0  0  0  0
  143.1468   77.8460  218.6691 H   0  0  0  0  0  0  0  0  0  0  0  0
  141.7419   76.4301  217.2036 H   0  0  0  0  0  0  0  0  0  0  0  0
  141.8720   73.9443  217.4867 H   0  0  0  0  0  0  0  0  0  0  0  0
  138.9199   75.6887  220.1921 H   0  0  0  0  0  0  0  0  0  0  0  0
  138.4722   76.8929  221.3993 H   0  0  0  0  0  0  0  0  0  0  0  0
  141.0328   77.0485  219.6437 H   0  0  0  0  0  0  0  0  0  0  0  0
  139.5634   77.9299  219.2529 H   0  0  0  0  0  0  0  0  0  0  0  0
  140.0429   80.1600  219.8238 H   0  0  0  0  0  0  0  0  0  0  0  0
  140.6520   81.8825  221.5218 H   0  0  0  0  0  0  0  0  0  0  0  0
  141.4402   81.1402  223.7474 H   0  0  0  0  0  0  0  0  0  0  0  0
  141.6273   78.7409  224.2781 H   0  0  0  0  0  0  0  0  0  0  0  0
  142.1209   76.3377  222.6564 H   0  0  0  0  0  0  0  0  0  0  0  0
  140.6991   76.4814  223.7360 H   0  0  0  0  0  0  0  0  0  0  0  0
  141.1363   71.9138  225.0110 H   0  0  0  0  0  0  0  0  0  0  0  0
  139.4850   72.1225  225.7101 H   0  0  0  0  0  0  0  0  0  0  0  0
  1  2  2  0
  2  3  1  0
  3  4  2  0
  4  5  1  0
  5  6  2  0
  5  7  1  0
  7  8  1  0
  8  9  1  0
  9 10  1  0
 10 11  2  0
 11 12  1  0
 12 13  1  0
 13 14  1  0
 14 15  1  0
 15 16  1  0
 16 17  1  0
 17 18  2  0
 18 19  1  0
 19 20  2  0
 20 21  1  0
 21 22  2  0
 12 23  2  0
 23 24  1  0
 24 25  1  0
 25 26  1  0
 26 27  1  0
 27 28  1  0
 28 29  2  0
 29 30  1  0
 30 31  2  0
 31 32  1  0
 32 33  2  0
 33 34  1  0
 24 35  2  0
  9 36  1  0
  6  1  1  0
 35 10  1  0
 36  4  1  0
 22 14  1  0
 34 25  1  0
 22 17  1  0
 33 28  1  0
  1 37  1  0
  2 38  1  0
  3 39  1  0
  6 40  1  0
  7 41  1  0
  7 42  1  0
  8 43  1  0
  8 44  1  0
 11 45  1  0
 13 46  1  0
 14 47  1  6
 15 48  1  0
 15 49  1  0
 16 50  1  0
 16 51  1  0
 18 52  1  0
 19 53  1  0
 20 54  1  0
 21 55  1  0
 26 56  1  0
 26 57  1  0
 27 58  1  0
 27 59  1  0
 29 60  1  0
 30 61  1  0
 31 62  1  0
 32 63  1  0
 34 64  1  0
 34 65  1  0
 36 66  1  0
 36 67  1  0
M  END
>  <smiles>  (30) 
c1ccc2c(c1)CCN(c1cc(N[C@@H]3CCc4ccccc43)nc(N3CCc4ccccc4C3)n1)C2

>  <score_type>  (30) 
oracle

>  <origin>  (30) 
autodockgpu

>  <m_score__min__energy>  (30) 
-11.73

>  <m_primary>  (30) 
energy

>  <rmsd>  (30) 
7.458693563370712

>  <m_score__min__rmsd>  (30) 
7.458693563370712

>  <meeko>  (30) 
{"free_energy": -9.93, "intermolecular_energy": -11.12, "internal_energy": -2.04, "cluster_size": 49, "cluster_id": 1, "rank_in_cluster": 48}

>  <energy>  (30) 
-11.63

>  <cluster_rmsd>  (30) 
0.13

>  <cluster>  (30) 
1

$$$$

     RDKit          3D

 67 73  0  0  0  0  0  0  0  0999 V2000
  146.3300   68.5470  219.3330 C   0  0  0  0  0  0  0  0  0  0  0  0
  145.1570   67.8340  219.4110 C   0  0  0  0  0  0  0  0  0  0  0  0
  143.9450   68.5060  219.4610 C   0  0  0  0  0  0  0  0  0  0  0  0
  143.8970   69.8840  219.4320 C   0  0  0  0  0  0  0  0  0  0  0  0
  145.0540   70.6060  219.3540 C   0  0  0  0  0  0  0  0  0  0  0  0
  146.2720   69.9280  219.3040 C   0  0  0  0  0  0  0  0  0  0  0  0
  145.1190   72.0890  219.3180 C   0  0  0  0  0  0  0  0  0  0  0  0
  143.7790   72.6320  218.9190 C   0  0  0  0  0  0  0  0  0  0  0  0
  142.7280   71.9920  219.6930 N   0  0  0  0  0  0  0  0  0  0  0  0
  141.8930   72.6680  220.6020 C   0  0  0  0  0  0  0  0  0  0  0  0
  141.0880   72.0270  221.5190 C   0  0  0  0  0  0  0  0  0  0  0  0
  140.2690   72.6990  222.4080 C   0  0  0  0  0  0  0  0  0  0  0  0
  139.4550   71.9770  223.3370 N   0  0  0  0  0  0  0  0  0  0  0  0
  140.0030   70.7470  223.8600 C   0  0  2  0  0  0  0  0  0  0  0  0
  139.0750   69.5860  223.7960 C   0  0  0  0  0  0  0  0  0  0  0  0
  138.9300   69.0090  225.1790 C   0  0  0  0  0  0  0  0  0  0  0  0
  139.6960   69.9260  226.0500 C   0  0  0  0  0  0  0  0  0  0  0  0
  139.8720   69.9260  227.4160 C   0  0  0  0  0  0  0  0  0  0  0  0
  140.6370   70.8950  227.9830 C   0  0  0  0  0  0  0  0  0  0  0  0
  141.2620   71.8990  227.2680 C   0  0  0  0  0  0  0  0  0  0  0  0
  141.0860   71.8990  225.8990 C   0  0  0  0  0  0  0  0  0  0  0  0
  140.3020   70.9100  225.2960 C   0  0  0  0  0  0  0  0  0  0  0  0
  140.2860   74.0420  222.3440 N   0  0  0  0  0  0  0  0  0  0  0  0
  141.0710   74.7050  221.4490 C   0  0  0  0  0  0  0  0  0  0  0  0
  141.0230   76.1260  221.4560 N   0  0  0  0  0  0  0  0  0  0  0  0
  140.9410   76.8450  220.2000 C   0  0  0  0  0  0  0  0  0  0  0  0
  142.1300   77.8150  220.2250 C   0  0  0  0  0  0  0  0  0  0  0  0
  141.8020   78.7640  221.3450 C   0  0  0  0  0  0  0  0  0  0  0  0
  142.0150   80.1070  221.1660 C   0  0  0  0  0  0  0  0  0  0  0  0
  141.7210   80.9970  222.1810 C   0  0  0  0  0  0  0  0  0  0  0  0
  141.2170   80.5030  223.3550 C   0  0  0  0  0  0  0  0  0  0  0  0
  141.0070   79.1480  223.5220 C   0  0  0  0  0  0  0  0  0  0  0  0
  141.3000   78.2410  222.5070 C   0  0  0  0  0  0  0  0  0  0  0  0
  141.0580   76.7940  222.7320 C   0  0  0  0  0  0  0  0  0  0  0  0
  141.8530   74.0130  220.6020 N   0  0  0  0  0  0  0  0  0  0  0  0
  142.5670   70.5610  219.4900 C   0  0  0  0  0  0  0  0  0  0  0  0
  147.2987   68.0272  219.2943 H   0  0  0  0  0  0  0  0  0  0  0  0
  145.1798   66.7345  219.4337 H   0  0  0  0  0  0  0  0  0  0  0  0
  143.0088   67.9319  219.5247 H   0  0  0  0  0  0  0  0  0  0  0  0
  147.2066   70.5046  219.2401 H   0  0  0  0  0  0  0  0  0  0  0  0
  145.3884   72.4697  220.3142 H   0  0  0  0  0  0  0  0  0  0  0  0
  145.8788   72.4080  218.5893 H   0  0  0  0  0  0  0  0  0  0  0  0
  143.7568   73.7163  219.1028 H   0  0  0  0  0  0  0  0  0  0  0  0
  143.6128   72.4290  217.8508 H   0  0  0  0  0  0  0  0  0  0  0  0
  141.0974   70.9273  221.5450 H   0  0  0  0  0  0  0  0  0  0  0  0
  138.5090   72.3030  223.6370 H   0  0  0  0  0  0  0  0  0  0  0  0
  140.8852   70.5470  223.2341 H   0  0  0  0  0  0  0  0  0  0  0  0
  138.0927   69.9168  223.4278 H   0  0  0  0  0  0  0  0  0  0  0  0
  139.4744   68.8235  223.1111 H   0  0  0  0  0  0  0  0  0  0  0  0
  137.8721   68.9820  225.4792 H   0  0  0  0  0  0  0  0  0  0  0  0
  139.2973   67.9739  225.2389 H   0  0  0  0  0  0  0  0  0  0  0  0
  139.3998   69.1523  228.0392 H   0  0  0  0  0  0  0  0  0  0  0  0
  140.7665   70.8795  229.0752 H   0  0  0  0  0  0  0  0  0  0  0  0
  141.8731   72.6648  227.7681 H   0  0  0  0  0  0  0  0  0  0  0  0
  141.5619   72.6761  225.2828 H   0  0  0  0  0  0  0  0  0  0  0  0
  141.0246   76.1514  219.3503 H   0  0  0  0  0  0  0  0  0  0  0  0
  139.9806   77.3684  220.0832 H   0  0  0  0  0  0  0  0  0  0  0  0
  143.0682   77.2783  220.4294 H   0  0  0  0  0  0  0  0  0  0  0  0
  142.2771   78.3292  219.2638 H   0  0  0  0  0  0  0  0  0  0  0  0
  142.4207   80.4762  220.2125 H   0  0  0  0  0  0  0  0  0  0  0  0
  141.8876   82.0763  222.0495 H   0  0  0  0  0  0  0  0  0  0  0  0
  140.9763   81.1946  224.1758 H   0  0  0  0  0  0  0  0  0  0  0  0
  140.6006   78.7785  224.4750 H   0  0  0  0  0  0  0  0  0  0  0  0
  141.8681   76.3748  223.3468 H   0  0  0  0  0  0  0  0  0  0  0  0
  140.1009   76.6517  223.2551 H   0  0  0  0  0  0  0  0  0  0  0  0
  141.9840   70.1413  220.3231 H   0  0  0  0  0  0  0  0  0  0  0  0
  142.0435   70.3953  218.5368 H   0  0  0  0  0  0  0  0  0  0  0  0
  1  2  2  0
  2  3  1  0
  3  4  2  0
  4  5  1  0
  5  6  2  0
  5  7  1  0
  7  8  1  0
  8  9  1  0
  9 10  1  0
 10 11  2  0
 11 12  1  0
 12 13  1  0
 13 14  1  0
 14 15  1  0
 15 16  1  0
 16 17  1  0
 17 18  2  0
 18 19  1  0
 19 20  2  0
 20 21  1  0
 21 22  2  0
 12 23  2  0
 23 24  1  0
 24 25  1  0
 25 26  1  0
 26 27  1  0
 27 28  1  0
 28 29  2  0
 29 30  1  0
 30 31  2  0
 31 32  1  0
 32 33  2  0
 33 34  1  0
 24 35  2  0
  9 36  1  0
  6  1  1  0
 35 10  1  0
 36  4  1  0
 22 14  1  0
 34 25  1  0
 22 17  1  0
 33 28  1  0
  1 37  1  0
  2 38  1  0
  3 39  1  0
  6 40  1  0
  7 41  1  0
  7 42  1  0
  8 43  1  0
  8 44  1  0
 11 45  1  0
 13 46  1  0
 14 47  1  6
 15 48  1  0
 15 49  1  0
 16 50  1  0
 16 51  1  0
 18 52  1  0
 19 53  1  0
 20 54  1  0
 21 55  1  0
 26 56  1  0
 26 57  1  0
 27 58  1  0
 27 59  1  0
 29 60  1  0
 30 61  1  0
 31 62  1  0
 32 63  1  0
 34 64  1  0
 34 65  1  0
 36 66  1  0
 36 67  1  0
M  END
>  <smiles>  (31) 
c1ccc2c(c1)CCN(c1cc(N[C@@H]3CCc4ccccc43)nc(N3CCc4ccccc4C3)n1)C2

>  <score_type>  (31) 
oracle

>  <origin>  (31) 
autodockgpu

>  <m_score__min__energy>  (31) 
-11.73

>  <m_primary>  (31) 
energy

>  <rmsd>  (31) 
10.331416258858235

>  <m_score__min__rmsd>  (31) 
10.331416258858235

>  <meeko>  (31) 
{"free_energy": -11.71, "intermolecular_energy": -12.9, "internal_energy": -1.21, "cluster_size": 49, "cluster_id": 1, "rank_in_cluster": 8}

>  <energy>  (31) 
-11.61

>  <cluster_rmsd>  (31) 
0.35

>  <cluster>  (31) 
1

$$$$

     RDKit          3D

 67 73  0  0  0  0  0  0  0  0999 V2000
  146.3320   68.5520  219.3230 C   0  0  0  0  0  0  0  0  0  0  0  0
  145.1490   67.8520  219.3640 C   0  0  0  0  0  0  0  0  0  0  0  0
  143.9450   68.5380  219.4080 C   0  0  0  0  0  0  0  0  0  0  0  0
  143.9150   69.9170  219.4090 C   0  0  0  0  0  0  0  0  0  0  0  0
  145.0820   70.6250  219.3670 C   0  0  0  0  0  0  0  0  0  0  0  0
  146.2920   69.9330  219.3240 C   0  0  0  0  0  0  0  0  0  0  0  0
  145.1660   72.1080  219.3650 C   0  0  0  0  0  0  0  0  0  0  0  0
  143.8400   72.6770  218.9550 C   0  0  0  0  0  0  0  0  0  0  0  0
  142.7680   72.0340  219.6960 N   0  0  0  0  0  0  0  0  0  0  0  0
  141.9250   72.7000  220.6050 C   0  0  0  0  0  0  0  0  0  0  0  0
  141.1320   72.0500  221.5260 C   0  0  0  0  0  0  0  0  0  0  0  0
  140.3050   72.7130  222.4140 C   0  0  0  0  0  0  0  0  0  0  0  0
  139.5050   71.9830  223.3480 N   0  0  0  0  0  0  0  0  0  0  0  0
  140.0640   70.7520  223.8580 C   0  0  2  0  0  0  0  0  0  0  0  0
  139.1630   69.5750  223.7410 C   0  0  0  0  0  0  0  0  0  0  0  0
  138.9910   68.9620  225.1060 C   0  0  0  0  0  0  0  0  0  0  0  0
  139.7130   69.8730  226.0190 C   0  0  0  0  0  0  0  0  0  0  0  0
  139.8510   69.8450  227.3890 C   0  0  0  0  0  0  0  0  0  0  0  0
  140.5790   70.8150  228.0000 C   0  0  0  0  0  0  0  0  0  0  0  0
  141.2030   71.8490  227.3270 C   0  0  0  0  0  0  0  0  0  0  0  0
  141.0650   71.8770  225.9530 C   0  0  0  0  0  0  0  0  0  0  0  0
  140.3190   70.8870  225.3050 C   0  0  0  0  0  0  0  0  0  0  0  0
  140.3020   74.0570  222.3460 N   0  0  0  0  0  0  0  0  0  0  0  0
  141.0750   74.7280  221.4470 C   0  0  0  0  0  0  0  0  0  0  0  0
  141.0050   76.1480  221.4480 N   0  0  0  0  0  0  0  0  0  0  0  0
  140.8780   76.8600  220.1920 C   0  0  0  0  0  0  0  0  0  0  0  0
  142.0530   77.8480  220.1800 C   0  0  0  0  0  0  0  0  0  0  0  0
  141.7410   78.7970  221.3040 C   0  0  0  0  0  0  0  0  0  0  0  0
  141.9290   80.1420  221.1130 C   0  0  0  0  0  0  0  0  0  0  0  0
  141.6490   81.0320  222.1330 C   0  0  0  0  0  0  0  0  0  0  0  0
  141.1850   80.5370  223.3220 C   0  0  0  0  0  0  0  0  0  0  0  0
  141.0010   79.1790  223.5010 C   0  0  0  0  0  0  0  0  0  0  0  0
  141.2790   78.2720  222.4820 C   0  0  0  0  0  0  0  0  0  0  0  0
  141.0660   76.8230  222.7210 C   0  0  0  0  0  0  0  0  0  0  0  0
  141.8650   74.0440  220.6000 N   0  0  0  0  0  0  0  0  0  0  0  0
  142.5920   70.6100  219.4580 C   0  0  0  0  0  0  0  0  0  0  0  0
  147.2947   68.0209  219.2899 H   0  0  0  0  0  0  0  0  0  0  0  0
  145.1580   66.7520  219.3619 H   0  0  0  0  0  0  0  0  0  0  0  0
  143.0007   67.9748  219.4426 H   0  0  0  0  0  0  0  0  0  0  0  0
  147.2347   70.4988  219.2902 H   0  0  0  0  0  0  0  0  0  0  0  0
  145.4226   72.4633  220.3739 H   0  0  0  0  0  0  0  0  0  0  0  0
  145.9423   72.4330  218.6567 H   0  0  0  0  0  0  0  0  0  0  0  0
  143.8282   73.7572  219.1625 H   0  0  0  0  0  0  0  0  0  0  0  0
  143.6900   72.4998  217.8798 H   0  0  0  0  0  0  0  0  0  0  0  0
  141.1583   70.9507  221.5561 H   0  0  0  0  0  0  0  0  0  0  0  0
  138.5610   72.3030  223.6600 H   0  0  0  0  0  0  0  0  0  0  0  0
  140.9674   70.5847  223.2531 H   0  0  0  0  0  0  0  0  0  0  0  0
  138.1847   69.8947  223.3527 H   0  0  0  0  0  0  0  0  0  0  0  0
  139.5974   68.8372  223.0504 H   0  0  0  0  0  0  0  0  0  0  0  0
  137.9259   68.9067  225.3752 H   0  0  0  0  0  0  0  0  0  0  0  0
  139.3776   67.9332  225.1524 H   0  0  0  0  0  0  0  0  0  0  0  0
  139.3778   69.0474  227.9805 H   0  0  0  0  0  0  0  0  0  0  0  0
  140.6780   70.7757  229.0948 H   0  0  0  0  0  0  0  0  0  0  0  0
  141.7834   72.6151  227.8619 H   0  0  0  0  0  0  0  0  0  0  0  0
  141.5417   72.6777  225.3685 H   0  0  0  0  0  0  0  0  0  0  0  0
  140.9485   76.1639  219.3432 H   0  0  0  0  0  0  0  0  0  0  0  0
  139.9071   77.3687  220.0997 H   0  0  0  0  0  0  0  0  0  0  0  0
  143.0044   77.3265  220.3612 H   0  0  0  0  0  0  0  0  0  0  0  0
  142.1664   78.3596  219.2128 H   0  0  0  0  0  0  0  0  0  0  0  0
  142.3029   80.5129  220.1473 H   0  0  0  0  0  0  0  0  0  0  0  0
  141.7957   82.1131  221.9925 H   0  0  0  0  0  0  0  0  0  0  0  0
  140.9556   81.2291  224.1456 H   0  0  0  0  0  0  0  0  0  0  0  0
  140.6279   78.8077  224.4669 H   0  0  0  0  0  0  0  0  0  0  0  0
  141.8997   76.4193  223.3143 H   0  0  0  0  0  0  0  0  0  0  0  0
  140.1268   76.6684  223.2723 H   0  0  0  0  0  0  0  0  0  0  0  0
  141.9884   70.1796  220.2707 H   0  0  0  0  0  0  0  0  0  0  0  0
  142.0837   70.4722  218.4922 H   0  0  0  0  0  0  0  0  0  0  0  0
  1  2  2  0
  2  3  1  0
  3  4  2  0
  4  5  1  0
  5  6  2  0
  5  7  1  0
  7  8  1  0
  8  9  1  0
  9 10  1  0
 10 11  2  0
 11 12  1  0
 12 13  1  0
 13 14  1  0
 14 15  1  0
 15 16  1  0
 16 17  1  0
 17 18  2  0
 18 19  1  0
 19 20  2  0
 20 21  1  0
 21 22  2  0
 12 23  2  0
 23 24  1  0
 24 25  1  0
 25 26  1  0
 26 27  1  0
 27 28  1  0
 28 29  2  0
 29 30  1  0
 30 31  2  0
 31 32  1  0
 32 33  2  0
 33 34  1  0
 24 35  2  0
  9 36  1  0
  6  1  1  0
 35 10  1  0
 36  4  1  0
 22 14  1  0
 34 25  1  0
 22 17  1  0
 33 28  1  0
  1 37  1  0
  2 38  1  0
  3 39  1  0
  6 40  1  0
  7 41  1  0
  7 42  1  0
  8 43  1  0
  8 44  1  0
 11 45  1  0
 13 46  1  0
 14 47  1  6
 15 48  1  0
 15 49  1  0
 16 50  1  0
 16 51  1  0
 18 52  1  0
 19 53  1  0
 20 54  1  0
 21 55  1  0
 26 56  1  0
 26 57  1  0
 27 58  1  0
 27 59  1  0
 29 60  1  0
 30 61  1  0
 31 62  1  0
 32 63  1  0
 34 64  1  0
 34 65  1  0
 36 66  1  0
 36 67  1  0
M  END
>  <smiles>  (32) 
c1ccc2c(c1)CCN(c1cc(N[C@@H]3CCc4ccccc43)nc(N3CCc4ccccc4C3)n1)C2

>  <score_type>  (32) 
oracle

>  <origin>  (32) 
autodockgpu

>  <m_score__min__energy>  (32) 
-11.73

>  <m_primary>  (32) 
energy

>  <rmsd>  (32) 
10.35401130523515

>  <m_score__min__rmsd>  (32) 
10.35401130523515

>  <meeko>  (32) 
{"free_energy": -11.71, "intermolecular_energy": -12.9, "internal_energy": -1.2, "cluster_size": 49, "cluster_id": 1, "rank_in_cluster": 14}

>  <energy>  (32) 
-11.61

>  <cluster_rmsd>  (32) 
0.31

>  <cluster>  (32) 
1

$$$$

     RDKit          3D

 67 73  0  0  0  0  0  0  0  0999 V2000
  140.9880   80.7510  223.5090 C   0  0  0  0  0  0  0  0  0  0  0  0
  142.1460   80.4610  222.8270 C   0  0  0  0  0  0  0  0  0  0  0  0
  142.2340   79.2940  222.0830 C   0  0  0  0  0  0  0  0  0  0  0  0
  141.1730   78.4160  222.0160 C   0  0  0  0  0  0  0  0  0  0  0  0
  140.0160   78.6900  222.6870 C   0  0  0  0  0  0  0  0  0  0  0  0
  139.9300   79.8650  223.4350 C   0  0  0  0  0  0  0  0  0  0  0  0
  138.8140   77.8170  222.6850 C   0  0  0  0  0  0  0  0  0  0  0  0
  138.8880   76.8800  221.5160 C   0  0  0  0  0  0  0  0  0  0  0  0
  140.2030   76.2670  221.4460 N   0  0  0  0  0  0  0  0  0  0  0  0
  140.4440   74.8890  221.6040 C   0  0  0  0  0  0  0  0  0  0  0  0
  139.6340   74.0540  222.3430 C   0  0  0  0  0  0  0  0  0  0  0  0
  139.8790   72.7010  222.4940 C   0  0  0  0  0  0  0  0  0  0  0  0
  139.0010   71.8840  223.2740 N   0  0  0  0  0  0  0  0  0  0  0  0
  139.5500   70.6510  223.7890 C   0  0  2  0  0  0  0  0  0  0  0  0
  138.5540   69.5600  223.9580 C   0  0  0  0  0  0  0  0  0  0  0  0
  138.6040   69.0800  225.3840 C   0  0  0  0  0  0  0  0  0  0  0  0
  139.5590   69.9890  226.0530 C   0  0  0  0  0  0  0  0  0  0  0  0
  139.9570   70.0580  227.3690 C   0  0  0  0  0  0  0  0  0  0  0  0
  140.8640   71.0010  227.7360 C   0  0  0  0  0  0  0  0  0  0  0  0
  141.4250   71.9120  226.8600 C   0  0  0  0  0  0  0  0  0  0  0  0
  141.0250   71.8410  225.5400 C   0  0  0  0  0  0  0  0  0  0  0  0
  140.0920   70.8780  225.1430 C   0  0  0  0  0  0  0  0  0  0  0  0
  140.9690   72.2140  221.8750 N   0  0  0  0  0  0  0  0  0  0  0  0
  141.7890   73.0150  221.1370 C   0  0  0  0  0  0  0  0  0  0  0  0
  142.9190   72.4110  220.5190 N   0  0  0  0  0  0  0  0  0  0  0  0
  143.9860   73.2460  220.0070 C   0  0  0  0  0  0  0  0  0  0  0  0
  144.1320   72.8380  218.5340 C   0  0  0  0  0  0  0  0  0  0  0  0
  144.6220   71.4170  218.5980 C   0  0  0  0  0  0  0  0  0  0  0  0
  145.6270   71.0190  217.7540 C   0  0  0  0  0  0  0  0  0  0  0  0
  146.0920   69.7180  217.7960 C   0  0  0  0  0  0  0  0  0  0  0  0
  145.5260   68.8520  218.6920 C   0  0  0  0  0  0  0  0  0  0  0  0
  144.5140   69.2660  219.5370 C   0  0  0  0  0  0  0  0  0  0  0  0
  144.0360   70.5730  219.5050 C   0  0  0  0  0  0  0  0  0  0  0  0
  142.9470   70.9730  220.4300 C   0  0  0  0  0  0  0  0  0  0  0  0
  141.5140   74.3250  221.0160 N   0  0  0  0  0  0  0  0  0  0  0  0
  141.3170   77.1710  221.2020 C   0  0  0  0  0  0  0  0  0  0  0  0
  140.9050   81.6727  224.1036 H   0  0  0  0  0  0  0  0  0  0  0  0
  143.0002   81.1526  222.8713 H   0  0  0  0  0  0  0  0  0  0  0  0
  143.1625   79.0658  221.5391 H   0  0  0  0  0  0  0  0  0  0  0  0
  139.0000   80.0908  223.9774 H   0  0  0  0  0  0  0  0  0  0  0  0
  138.7783   77.2377  223.6194 H   0  0  0  0  0  0  0  0  0  0  0  0
  137.9077   78.4355  222.6066 H   0  0  0  0  0  0  0  0  0  0  0  0
  138.1267   76.0944  221.6314 H   0  0  0  0  0  0  0  0  0  0  0  0
  138.7066   77.4462  220.5905 H   0  0  0  0  0  0  0  0  0  0  0  0
  138.7501   74.4842  222.8365 H   0  0  0  0  0  0  0  0  0  0  0  0
  138.0100   72.1450  223.4750 H   0  0  0  0  0  0  0  0  0  0  0  0
  140.3025   70.3495  223.0455 H   0  0  0  0  0  0  0  0  0  0  0  0
  137.5469   69.9391  223.7298 H   0  0  0  0  0  0  0  0  0  0  0  0
  138.7861   68.7303  223.2741 H   0  0  0  0  0  0  0  0  0  0  0  0
  137.6106   69.1488  225.8515 H   0  0  0  0  0  0  0  0  0  0  0  0
  138.9111   68.0263  225.4578 H   0  0  0  0  0  0  0  0  0  0  0  0
  139.5466   69.3595  228.1131 H   0  0  0  0  0  0  0  0  0  0  0  0
  141.1698   71.0420  228.7918 H   0  0  0  0  0  0  0  0  0  0  0  0
  142.1570   72.6597  227.1992 H   0  0  0  0  0  0  0  0  0  0  0  0
  141.4403   72.5420  224.8010 H   0  0  0  0  0  0  0  0  0  0  0  0
  143.7189   74.3099  220.0896 H   0  0  0  0  0  0  0  0  0  0  0  0
  144.9223   73.1137  220.5689 H   0  0  0  0  0  0  0  0  0  0  0  0
  143.1641   72.8950  218.0145 H   0  0  0  0  0  0  0  0  0  0  0  0
  144.8145   73.4970  217.9773 H   0  0  0  0  0  0  0  0  0  0  0  0
  146.0635   71.7358  217.0429 H   0  0  0  0  0  0  0  0  0  0  0  0
  146.8981   69.3864  217.1250 H   0  0  0  0  0  0  0  0  0  0  0  0
  145.8815   67.8122  218.7402 H   0  0  0  0  0  0  0  0  0  0  0  0
  144.0779   68.5492  220.2484 H   0  0  0  0  0  0  0  0  0  0  0  0
  141.9830   70.6074  220.0465 H   0  0  0  0  0  0  0  0  0  0  0  0
  143.1240   70.5400  221.4256 H   0  0  0  0  0  0  0  0  0  0  0  0
  142.2568   76.6681  221.4740 H   0  0  0  0  0  0  0  0  0  0  0  0
  141.3254   77.4434  220.1363 H   0  0  0  0  0  0  0  0  0  0  0  0
  1  2  2  0
  2  3  1  0
  3  4  2  0
  4  5  1  0
  5  6  2  0
  5  7  1  0
  7  8  1  0
  8  9  1  0
  9 10  1  0
 10 11  2  0
 11 12  1  0
 12 13  1  0
 13 14  1  0
 14 15  1  0
 15 16  1  0
 16 17  1  0
 17 18  2  0
 18 19  1  0
 19 20  2  0
 20 21  1  0
 21 22  2  0
 12 23  2  0
 23 24  1  0
 24 25  1  0
 25 26  1  0
 26 27  1  0
 27 28  1  0
 28 29  2  0
 29 30  1  0
 30 31  2  0
 31 32  1  0
 32 33  2  0
 33 34  1  0
 24 35  2  0
  9 36  1  0
  6  1  1  0
 35 10  1  0
 36  4  1  0
 22 14  1  0
 34 25  1  0
 22 17  1  0
 33 28  1  0
  1 37  1  0
  2 38  1  0
  3 39  1  0
  6 40  1  0
  7 41  1  0
  7 42  1  0
  8 43  1  0
  8 44  1  0
 11 45  1  0
 13 46  1  0
 14 47  1  6
 15 48  1  0
 15 49  1  0
 16 50  1  0
 16 51  1  0
 18 52  1  0
 19 53  1  0
 20 54  1  0
 21 55  1  0
 26 56  1  0
 26 57  1  0
 27 58  1  0
 27 59  1  0
 29 60  1  0
 30 61  1  0
 31 62  1  0
 32 63  1  0
 34 64  1  0
 34 65  1  0
 36 66  1  0
 36 67  1  0
M  END
>  <smiles>  (33) 
c1ccc2c(c1)CCN(c1cc(N[C@@H]3CCc4ccccc43)nc(N3CCc4ccccc4C3)n1)C2

>  <score_type>  (33) 
oracle

>  <origin>  (33) 
autodockgpu

>  <m_score__min__energy>  (33) 
-11.73

>  <m_primary>  (33) 
energy

>  <rmsd>  (33) 
10.251073783579075

>  <m_score__min__rmsd>  (33) 
10.251073783579075

>  <meeko>  (33) 
{"free_energy": -10.43, "intermolecular_energy": -11.62, "internal_energy": -1.25, "cluster_size": 49, "cluster_id": 1, "rank_in_cluster": 35}

>  <energy>  (33) 
-11.57

>  <cluster_rmsd>  (33) 
0.24

>  <cluster>  (33) 
1

$$$$

     RDKit          3D

 67 73  0  0  0  0  0  0  0  0999 V2000
  146.2830   68.5370  219.3190 C   0  0  0  0  0  0  0  0  0  0  0  0
  145.1040   67.8310  219.3720 C   0  0  0  0  0  0  0  0  0  0  0  0
  143.8960   68.5110  219.4160 C   0  0  0  0  0  0  0  0  0  0  0  0
  143.8580   69.8890  219.4060 C   0  0  0  0  0  0  0  0  0  0  0  0
  145.0200   70.6040  219.3530 C   0  0  0  0  0  0  0  0  0  0  0  0
  146.2340   69.9180  219.3100 C   0  0  0  0  0  0  0  0  0  0  0  0
  145.0960   72.0870  219.3380 C   0  0  0  0  0  0  0  0  0  0  0  0
  143.7650   72.6450  218.9290 C   0  0  0  0  0  0  0  0  0  0  0  0
  142.7000   72.0020  219.6800 N   0  0  0  0  0  0  0  0  0  0  0  0
  141.8570   72.6700  220.5880 C   0  0  0  0  0  0  0  0  0  0  0  0
  141.0560   72.0230  221.5050 C   0  0  0  0  0  0  0  0  0  0  0  0
  140.2300   72.6880  222.3920 C   0  0  0  0  0  0  0  0  0  0  0  0
  139.4220   71.9600  223.3210 N   0  0  0  0  0  0  0  0  0  0  0  0
  139.9790   70.7340  223.8430 C   0  0  2  0  0  0  0  0  0  0  0  0
  139.0610   69.5660  223.7770 C   0  0  0  0  0  0  0  0  0  0  0  0
  138.9190   68.9860  225.1600 C   0  0  0  0  0  0  0  0  0  0  0  0
  139.6770   69.9080  226.0320 C   0  0  0  0  0  0  0  0  0  0  0  0
  139.8510   69.9080  227.3980 C   0  0  0  0  0  0  0  0  0  0  0  0
  140.6070   70.8820  227.9670 C   0  0  0  0  0  0  0  0  0  0  0  0
  141.2260   71.8930  227.2540 C   0  0  0  0  0  0  0  0  0  0  0  0
  141.0500   71.8920  225.8840 C   0  0  0  0  0  0  0  0  0  0  0  0
  140.2760   70.8970  225.2790 C   0  0  0  0  0  0  0  0  0  0  0  0
  140.2350   74.0310  222.3270 N   0  0  0  0  0  0  0  0  0  0  0  0
  141.0160   74.7010  221.4330 C   0  0  0  0  0  0  0  0  0  0  0  0
  140.9540   76.1210  221.4370 N   0  0  0  0  0  0  0  0  0  0  0  0
  140.7830   76.8350  220.1870 C   0  0  0  0  0  0  0  0  0  0  0  0
  141.9630   77.8160  220.1310 C   0  0  0  0  0  0  0  0  0  0  0  0
  141.6990   78.7660  221.2670 C   0  0  0  0  0  0  0  0  0  0  0  0
  141.8870   80.1100  221.0700 C   0  0  0  0  0  0  0  0  0  0  0  0
  141.6520   81.0010  222.1000 C   0  0  0  0  0  0  0  0  0  0  0  0
  141.2300   80.5070  223.3060 C   0  0  0  0  0  0  0  0  0  0  0  0
  141.0450   79.1500  223.4900 C   0  0  0  0  0  0  0  0  0  0  0  0
  141.2790   78.2420  222.4620 C   0  0  0  0  0  0  0  0  0  0  0  0
  141.0670   76.7940  222.7070 C   0  0  0  0  0  0  0  0  0  0  0  0
  141.8050   74.0150  220.5870 N   0  0  0  0  0  0  0  0  0  0  0  0
  142.5310   70.5750  219.4550 C   0  0  0  0  0  0  0  0  0  0  0  0
  147.2487   68.0113  219.2844 H   0  0  0  0  0  0  0  0  0  0  0  0
  145.1190   66.7311  219.3795 H   0  0  0  0  0  0  0  0  0  0  0  0
  142.9551   67.9428  219.4595 H   0  0  0  0  0  0  0  0  0  0  0  0
  147.1732   70.4891  219.2680 H   0  0  0  0  0  0  0  0  0  0  0  0
  145.3550   72.4523  220.3427 H   0  0  0  0  0  0  0  0  0  0  0  0
  145.8675   72.4103  218.6237 H   0  0  0  0  0  0  0  0  0  0  0  0
  143.7478   73.7268  219.1275 H   0  0  0  0  0  0  0  0  0  0  0  0
  143.6114   72.4580  217.8559 H   0  0  0  0  0  0  0  0  0  0  0  0
  141.0751   70.9235  221.5322 H   0  0  0  0  0  0  0  0  0  0  0  0
  138.4730   72.2780  223.6200 H   0  0  0  0  0  0  0  0  0  0  0  0
  140.8631   70.5422  223.2172 H   0  0  0  0  0  0  0  0  0  0  0  0
  138.0764   69.8892  223.4080 H   0  0  0  0  0  0  0  0  0  0  0  0
  139.4675   68.8075  223.0919 H   0  0  0  0  0  0  0  0  0  0  0  0
  137.8611   68.9505  225.4592 H   0  0  0  0  0  0  0  0  0  0  0  0
  139.2940   67.9536  225.2194 H   0  0  0  0  0  0  0  0  0  0  0  0
  139.3841   69.1298  228.0196 H   0  0  0  0  0  0  0  0  0  0  0  0
  140.7347   70.8661  229.0594 H   0  0  0  0  0  0  0  0  0  0  0  0
  141.8310   72.6628  227.7554 H   0  0  0  0  0  0  0  0  0  0  0  0
  141.5188   72.6741  225.2688 H   0  0  0  0  0  0  0  0  0  0  0  0
  140.8167   76.1393  219.3356 H   0  0  0  0  0  0  0  0  0  0  0  0
  139.8123   77.3495  220.1322 H   0  0  0  0  0  0  0  0  0  0  0  0
  142.9174   77.2886  220.2758 H   0  0  0  0  0  0  0  0  0  0  0  0
  142.0432   78.3276  219.1605 H   0  0  0  0  0  0  0  0  0  0  0  0
  142.2253   80.4795  220.0907 H   0  0  0  0  0  0  0  0  0  0  0  0
  141.8003   82.0812  221.9548 H   0  0  0  0  0  0  0  0  0  0  0  0
  141.0359   81.1993  224.1385 H   0  0  0  0  0  0  0  0  0  0  0  0
  140.7059   78.7802  224.4689 H   0  0  0  0  0  0  0  0  0  0  0  0
  141.9202   76.3849  223.2679 H   0  0  0  0  0  0  0  0  0  0  0  0
  140.1484   76.6441  223.2932 H   0  0  0  0  0  0  0  0  0  0  0  0
  141.9335   70.1482  220.2741 H   0  0  0  0  0  0  0  0  0  0  0  0
  142.0192   70.4260  218.4928 H   0  0  0  0  0  0  0  0  0  0  0  0
  1  2  2  0
  2  3  1  0
  3  4  2  0
  4  5  1  0
  5  6  2  0
  5  7  1  0
  7  8  1  0
  8  9  1  0
  9 10  1  0
 10 11  2  0
 11 12  1  0
 12 13  1  0
 13 14  1  0
 14 15  1  0
 15 16  1  0
 16 17  1  0
 17 18  2  0
 18 19  1  0
 19 20  2  0
 20 21  1  0
 21 22  2  0
 12 23  2  0
 23 24  1  0
 24 25  1  0
 25 26  1  0
 26 27  1  0
 27 28  1  0
 28 29  2  0
 29 30  1  0
 30 31  2  0
 31 32  1  0
 32 33  2  0
 33 34  1  0
 24 35  2  0
  9 36  1  0
  6  1  1  0
 35 10  1  0
 36  4  1  0
 22 14  1  0
 34 25  1  0
 22 17  1  0
 33 28  1  0
  1 37  1  0
  2 38  1  0
  3 39  1  0
  6 40  1  0
  7 41  1  0
  7 42  1  0
  8 43  1  0
  8 44  1  0
 11 45  1  0
 13 46  1  0
 14 47  1  6
 15 48  1  0
 15 49  1  0
 16 50  1  0
 16 51  1  0
 18 52  1  0
 19 53  1  0
 20 54  1  0
 21 55  1  0
 26 56  1  0
 26 57  1  0
 27 58  1  0
 27 59  1  0
 29 60  1  0
 30 61  1  0
 31 62  1  0
 32 63  1  0
 34 64  1  0
 34 65  1  0
 36 66  1  0
 36 67  1  0
M  END
>  <smiles>  (34) 
c1ccc2c(c1)CCN(c1cc(N[C@@H]3CCc4ccccc43)nc(N3CCc4ccccc4C3)n1)C2

>  <score_type>  (34) 
oracle

>  <origin>  (34) 
autodockgpu

>  <m_score__min__energy>  (34) 
-11.73

>  <m_primary>  (34) 
energy

>  <rmsd>  (34) 
10.338387583764625

>  <m_score__min__rmsd>  (34) 
10.338387583764625

>  <meeko>  (34) 
{"free_energy": -11.71, "intermolecular_energy": -12.9, "internal_energy": -1.21, "cluster_size": 49, "cluster_id": 1, "rank_in_cluster": 15}

>  <energy>  (34) 
-10.76

>  <cluster_rmsd>  (34) 
1.19

>  <cluster>  (34) 
1

$$$$

     RDKit          3D

 67 73  0  0  0  0  0  0  0  0999 V2000
  140.3420   67.4480  226.5180 C   0  0  0  0  0  0  0  0  0  0  0  0
  141.0560   68.4470  227.1350 C   0  0  0  0  0  0  0  0  0  0  0  0
  141.0060   69.7390  226.6350 C   0  0  0  0  0  0  0  0  0  0  0  0
  140.2490   70.0390  225.5220 C   0  0  0  0  0  0  0  0  0  0  0  0
  139.5330   69.0570  224.8990 C   0  0  0  0  0  0  0  0  0  0  0  0
  139.5850   67.7580  225.4040 C   0  0  0  0  0  0  0  0  0  0  0  0
  138.6860   69.2670  223.6970 C   0  0  0  0  0  0  0  0  0  0  0  0
  138.3720   70.7280  223.5640 C   0  0  0  0  0  0  0  0  0  0  0  0
  139.5820   71.5170  223.7190 N   0  0  0  0  0  0  0  0  0  0  0  0
  140.1420   72.3150  222.7030 C   0  0  0  0  0  0  0  0  0  0  0  0
  140.9060   71.8120  221.6720 C   0  0  0  0  0  0  0  0  0  0  0  0
  141.4530   72.6040  220.6800 C   0  0  0  0  0  0  0  0  0  0  0  0
  142.2380   72.0230  219.6340 N   0  0  0  0  0  0  0  0  0  0  0  0
  143.5140   72.6420  219.3620 C   0  0  2  0  0  0  0  0  0  0  0  0
  144.4630   72.6210  220.5060 C   0  0  0  0  0  0  0  0  0  0  0  0
  144.9000   74.0330  220.7960 C   0  0  0  0  0  0  0  0  0  0  0  0
  144.1000   74.8690  219.8750 C   0  0  0  0  0  0  0  0  0  0  0  0
  144.0400   76.2370  219.7320 C   0  0  0  0  0  0  0  0  0  0  0  0
  143.2110   76.7670  218.7960 C   0  0  0  0  0  0  0  0  0  0  0  0
  142.4070   76.0110  217.9620 C   0  0  0  0  0  0  0  0  0  0  0  0
  142.4680   74.6390  218.1070 C   0  0  0  0  0  0  0  0  0  0  0  0
  143.3160   74.0740  219.0640 C   0  0  0  0  0  0  0  0  0  0  0  0
  141.2060   73.9240  220.7580 N   0  0  0  0  0  0  0  0  0  0  0  0
  140.4550   74.4520  221.7650 C   0  0  0  0  0  0  0  0  0  0  0  0
  140.2480   75.8580  221.7660 N   0  0  0  0  0  0  0  0  0  0  0  0
  139.2520   76.4360  220.8850 C   0  0  0  0  0  0  0  0  0  0  0  0
  140.0140   77.4870  220.0670 C   0  0  0  0  0  0  0  0  0  0  0  0
  140.4130   78.5210  221.0850 C   0  0  0  0  0  0  0  0  0  0  0  0
  140.2810   79.8500  220.7740 C   0  0  0  0  0  0  0  0  0  0  0  0
  140.6420   80.8160  221.6940 C   0  0  0  0  0  0  0  0  0  0  0  0
  141.1280   80.4110  222.9080 C   0  0  0  0  0  0  0  0  0  0  0  0
  141.2560   79.0680  223.2080 C   0  0  0  0  0  0  0  0  0  0  0  0
  140.8970   78.0850  222.2900 C   0  0  0  0  0  0  0  0  0  0  0  0
  141.0520   76.6550  222.6570 C   0  0  0  0  0  0  0  0  0  0  0  0
  139.9410   73.6460  222.7110 N   0  0  0  0  0  0  0  0  0  0  0  0
  140.2290   71.4460  225.0200 C   0  0  0  0  0  0  0  0  0  0  0  0
  140.3725   66.4186  226.9044 H   0  0  0  0  0  0  0  0  0  0  0  0
  141.6653   68.2222  228.0228 H   0  0  0  0  0  0  0  0  0  0  0  0
  141.5780   70.5358  227.1329 H   0  0  0  0  0  0  0  0  0  0  0  0
  139.0112   66.9632  224.9050 H   0  0  0  0  0  0  0  0  0  0  0  0
  139.2257   68.9237  222.8021 H   0  0  0  0  0  0  0  0  0  0  0  0
  137.7514   68.6959  223.7991 H   0  0  0  0  0  0  0  0  0  0  0  0
  137.9392   70.9177  222.5707 H   0  0  0  0  0  0  0  0  0  0  0  0
  137.6542   71.0138  224.3470 H   0  0  0  0  0  0  0  0  0  0  0  0
  141.0893   70.7279  221.6369 H   0  0  0  0  0  0  0  0  0  0  0  0
  141.9240   71.1940  219.0820 H   0  0  0  0  0  0  0  0  0  0  0  0
  143.9326   72.0600  218.5277 H   0  0  0  0  0  0  0  0  0  0  0  0
  143.9662   72.1979  221.3915 H   0  0  0  0  0  0  0  0  0  0  0  0
  145.3372   72.0015  220.2569 H   0  0  0  0  0  0  0  0  0  0  0  0
  144.6888   74.2974  221.8427 H   0  0  0  0  0  0  0  0  0  0  0  0
  145.9816   74.1723  220.6520 H   0  0  0  0  0  0  0  0  0  0  0  0
  144.6550   76.8916  220.3671 H   0  0  0  0  0  0  0  0  0  0  0  0
  143.1768   77.8618  218.6951 H   0  0  0  0  0  0  0  0  0  0  0  0
  141.7487   76.4815  217.2169 H   0  0  0  0  0  0  0  0  0  0  0  0
  141.8492   73.9906  217.4693 H   0  0  0  0  0  0  0  0  0  0  0  0
  138.8251   75.6664  220.2251 H   0  0  0  0  0  0  0  0  0  0  0  0
  138.4099   76.8736  221.4412 H   0  0  0  0  0  0  0  0  0  0  0  0
  140.9013   77.0441  219.5910 H   0  0  0  0  0  0  0  0  0  0  0  0
  139.4093   77.9081  219.2503 H   0  0  0  0  0  0  0  0  0  0  0  0
  139.8873   80.1476  219.7909 H   0  0  0  0  0  0  0  0  0  0  0  0
  140.5412   81.8853  221.4564 H   0  0  0  0  0  0  0  0  0  0  0  0
  141.4204   81.1643  223.6544 H   0  0  0  0  0  0  0  0  0  0  0  0
  141.6491   78.7701  224.1912 H   0  0  0  0  0  0  0  0  0  0  0  0
  142.1081   76.3618  222.5643 H   0  0  0  0  0  0  0  0  0  0  0  0
  140.7265   76.4980  223.6959 H   0  0  0  0  0  0  0  0  0  0  0  0
  141.2623   71.8124  224.9302 H   0  0  0  0  0  0  0  0  0  0  0  0
  139.6648   72.0678  225.7307 H   0  0  0  0  0  0  0  0  0  0  0  0
  1  2  2  0
  2  3  1  0
  3  4  2  0
  4  5  1  0
  5  6  2  0
  5  7  1  0
  7  8  1  0
  8  9  1  0
  9 10  1  0
 10 11  2  0
 11 12  1  0
 12 13  1  0
 13 14  1  0
 14 15  1  0
 15 16  1  0
 16 17  1  0
 17 18  2  0
 18 19  1  0
 19 20  2  0
 20 21  1  0
 21 22  2  0
 12 23  2  0
 23 24  1  0
 24 25  1  0
 25 26  1  0
 26 27  1  0
 27 28  1  0
 28 29  2  0
 29 30  1  0
 30 31  2  0
 31 32  1  0
 32 33  2  0
 33 34  1  0
 24 35  2  0
  9 36  1  0
  6  1  1  0
 35 10  1  0
 36  4  1  0
 22 14  1  0
 34 25  1  0
 22 17  1  0
 33 28  1  0
  1 37  1  0
  2 38  1  0
  3 39  1  0
  6 40  1  0
  7 41  1  0
  7 42  1  0
  8 43  1  0
  8 44  1  0
 11 45  1  0
 13 46  1  0
 14 47  1  6
 15 48  1  0
 15 49  1  0
 16 50  1  0
 16 51  1  0
 18 52  1  0
 19 53  1  0
 20 54  1  0
 21 55  1  0
 26 56  1  0
 26 57  1  0
 27 58  1  0
 27 59  1  0
 29 60  1  0
 30 61  1  0
 31 62  1  0
 32 63  1  0
 34 64  1  0
 34 65  1  0
 36 66  1  0
 36 67  1  0
M  END
>  <smiles>  (35) 
c1ccc2c(c1)CCN(c1cc(N[C@@H]3CCc4ccccc43)nc(N3CCc4ccccc4C3)n1)C2

>  <score_type>  (35) 
oracle

>  <origin>  (35) 
autodockgpu

>  <m_score__min__energy>  (35) 
-11.73

>  <m_primary>  (35) 
energy

>  <rmsd>  (35) 
7.458123844038008

>  <m_score__min__rmsd>  (35) 
7.458123844038008

>  <meeko>  (35) 
{"free_energy": -9.88, "intermolecular_energy": -11.08, "internal_energy": -2.06, "cluster_size": 1, "cluster_id": 2, "rank_in_cluster": 1}

>  <energy>  (35) 
-10.43

>  <cluster_rmsd>  (35) 
1.08

>  <cluster>  (35) 
1

$$$$

     RDKit          3D

 67 73  0  0  0  0  0  0  0  0999 V2000
  140.4200   67.8760  226.0680 C   0  0  0  0  0  0  0  0  0  0  0  0
  141.2680   68.8340  226.5700 C   0  0  0  0  0  0  0  0  0  0  0  0
  141.2340   70.1210  226.0560 C   0  0  0  0  0  0  0  0  0  0  0  0
  140.3580   70.4570  225.0460 C   0  0  0  0  0  0  0  0  0  0  0  0
  139.5090   69.5160  224.5370 C   0  0  0  0  0  0  0  0  0  0  0  0
  139.5460   68.2220  225.0560 C   0  0  0  0  0  0  0  0  0  0  0  0
  138.5280   69.7670  223.4510 C   0  0  0  0  0  0  0  0  0  0  0  0
  138.2890   71.2440  223.3330 C   0  0  0  0  0  0  0  0  0  0  0  0
  139.5560   71.9570  223.3170 N   0  0  0  0  0  0  0  0  0  0  0  0
  140.0270   72.7070  222.2230 C   0  0  0  0  0  0  0  0  0  0  0  0
  140.3830   72.1510  221.0130 C   0  0  0  0  0  0  0  0  0  0  0  0
  140.8460   72.8960  219.9450 C   0  0  0  0  0  0  0  0  0  0  0  0
  141.2010   72.2610  218.7130 N   0  0  0  0  0  0  0  0  0  0  0  0
  142.5730   71.8310  218.5770 C   0  0  2  0  0  0  0  0  0  0  0  0
  142.8570   70.4930  219.1600 C   0  0  0  0  0  0  0  0  0  0  0  0
  143.9840   70.6270  220.1500 C   0  0  0  0  0  0  0  0  0  0  0  0
  144.2600   72.0790  220.2070 C   0  0  0  0  0  0  0  0  0  0  0  0
  145.1500   72.7910  220.9790 C   0  0  0  0  0  0  0  0  0  0  0  0
  145.2130   74.1410  220.8400 C   0  0  0  0  0  0  0  0  0  0  0  0
  144.4280   74.8610  219.9580 C   0  0  0  0  0  0  0  0  0  0  0  0
  143.5360   74.1460  219.1840 C   0  0  0  0  0  0  0  0  0  0  0  0
  143.4570   72.7560  219.3120 C   0  0  0  0  0  0  0  0  0  0  0  0
  140.9410   74.2240  220.1330 N   0  0  0  0  0  0  0  0  0  0  0  0
  140.5960   74.8040  221.3170 C   0  0  0  0  0  0  0  0  0  0  0  0
  140.7300   76.2160  221.4240 N   0  0  0  0  0  0  0  0  0  0  0  0
  140.5530   77.0430  220.2470 C   0  0  0  0  0  0  0  0  0  0  0  0
  141.8460   77.8640  220.1460 C   0  0  0  0  0  0  0  0  0  0  0  0
  141.8120   78.7460  221.3630 C   0  0  0  0  0  0  0  0  0  0  0  0
  142.1640   80.0660  221.2410 C   0  0  0  0  0  0  0  0  0  0  0  0
  142.1400   80.8950  222.3470 C   0  0  0  0  0  0  0  0  0  0  0  0
  141.7580   80.3660  223.5500 C   0  0  0  0  0  0  0  0  0  0  0  0
  141.4060   79.0340  223.6590 C   0  0  0  0  0  0  0  0  0  0  0  0
  141.4260   78.1880  222.5540 C   0  0  0  0  0  0  0  0  0  0  0  0
  141.0400   76.7650  222.7200 C   0  0  0  0  0  0  0  0  0  0  0  0
  140.1500   74.0420  222.3310 N   0  0  0  0  0  0  0  0  0  0  0  0
  140.3600   71.8580  224.5250 C   0  0  0  0  0  0  0  0  0  0  0  0
  140.4371   66.8505  226.4656 H   0  0  0  0  0  0  0  0  0  0  0  0
  141.9713   68.5804  227.3769 H   0  0  0  0  0  0  0  0  0  0  0  0
  141.9153   70.8845  226.4596 H   0  0  0  0  0  0  0  0  0  0  0  0
  138.8641   67.4601  224.6504 H   0  0  0  0  0  0  0  0  0  0  0  0
  138.9250   69.3815  222.5003 H   0  0  0  0  0  0  0  0  0  0  0  0
  137.5814   69.2570  223.6831 H   0  0  0  0  0  0  0  0  0  0  0  0
  137.7438   71.4507  222.4002 H   0  0  0  0  0  0  0  0  0  0  0  0
  137.6971   71.5824  224.1962 H   0  0  0  0  0  0  0  0  0  0  0  0
  140.2943   71.0613  220.8915 H   0  0  0  0  0  0  0  0  0  0  0  0
  140.5190   72.1060  217.9360 H   0  0  0  0  0  0  0  0  0  0  0  0
  142.7493   71.8037  217.4916 H   0  0  0  0  0  0  0  0  0  0  0  0
  141.9594   70.1134  219.6701 H   0  0  0  0  0  0  0  0  0  0  0  0
  143.1398   69.7893  218.3632 H   0  0  0  0  0  0  0  0  0  0  0  0
  143.6799   70.2505  221.1378 H   0  0  0  0  0  0  0  0  0  0  0  0
  144.8698   70.0453  219.8549 H   0  0  0  0  0  0  0  0  0  0  0  0
  145.8014   72.2738  221.6988 H   0  0  0  0  0  0  0  0  0  0  0  0
  145.9299   74.6934  221.4652 H   0  0  0  0  0  0  0  0  0  0  0  0
  144.5107   75.9549  219.8767 H   0  0  0  0  0  0  0  0  0  0  0  0
  142.8874   74.6700  218.4666 H   0  0  0  0  0  0  0  0  0  0  0  0
  140.4196   76.4186  219.3513 H   0  0  0  0  0  0  0  0  0  0  0  0
  139.6603   77.6817  220.3190 H   0  0  0  0  0  0  0  0  0  0  0  0
  142.7285   77.2075  220.1633 H   0  0  0  0  0  0  0  0  0  0  0  0
  141.9119   78.4369  219.2093 H   0  0  0  0  0  0  0  0  0  0  0  0
  142.4659   80.4656  220.2616 H   0  0  0  0  0  0  0  0  0  0  0  0
  142.4214   81.9550  222.2621 H   0  0  0  0  0  0  0  0  0  0  0  0
  141.7308   81.0094  224.4418 H   0  0  0  0  0  0  0  0  0  0  0  0
  141.1041   78.6345  224.6384 H   0  0  0  0  0  0  0  0  0  0  0  0
  141.8736   76.2054  223.1693 H   0  0  0  0  0  0  0  0  0  0  0  0
  140.1624   76.6892  223.3788 H   0  0  0  0  0  0  0  0  0  0  0  0
  141.3936   72.1571  224.2966 H   0  0  0  0  0  0  0  0  0  0  0  0
  139.9318   72.5214  225.2909 H   0  0  0  0  0  0  0  0  0  0  0  0
  1  2  2  0
  2  3  1  0
  3  4  2  0
  4  5  1  0
  5  6  2  0
  5  7  1  0
  7  8  1  0
  8  9  1  0
  9 10  1  0
 10 11  2  0
 11 12  1  0
 12 13  1  0
 13 14  1  0
 14 15  1  0
 15 16  1  0
 16 17  1  0
 17 18  2  0
 18 19  1  0
 19 20  2  0
 20 21  1  0
 21 22  2  0
 12 23  2  0
 23 24  1  0
 24 25  1  0
 25 26  1  0
 26 27  1  0
 27 28  1  0
 28 29  2  0
 29 30  1  0
 30 31  2  0
 31 32  1  0
 32 33  2  0
 33 34  1  0
 24 35  2  0
  9 36  1  0
  6  1  1  0
 35 10  1  0
 36  4  1  0
 22 14  1  0
 34 25  1  0
 22 17  1  0
 33 28  1  0
  1 37  1  0
  2 38  1  0
  3 39  1  0
  6 40  1  0
  7 41  1  0
  7 42  1  0
  8 43  1  0
  8 44  1  0
 11 45  1  0
 13 46  1  0
 14 47  1  6
 15 48  1  0
 15 49  1  0
 16 50  1  0
 16 51  1  0
 18 52  1  0
 19 53  1  0
 20 54  1  0
 21 55  1  0
 26 56  1  0
 26 57  1  0
 27 58  1  0
 27 59  1  0
 29 60  1  0
 30 61  1  0
 31 62  1  0
 32 63  1  0
 34 64  1  0
 34 65  1  0
 36 66  1  0
 36 67  1  0
M  END
>  <smiles>  (36) 
c1ccc2c(c1)CCN(c1cc(N[C@@H]3CCc4ccccc43)nc(N3CCc4ccccc4C3)n1)C2

>  <score_type>  (36) 
oracle

>  <origin>  (36) 
autodockgpu

>  <m_score__min__energy>  (36) 
-11.73

>  <m_primary>  (36) 
energy

>  <rmsd>  (36) 
8.818245780703194

>  <m_score__min__rmsd>  (36) 
8.818245780703194

>  <meeko>  (36) 
{"free_energy": -10.27, "intermolecular_energy": -11.46, "internal_energy": -1.77, "cluster_size": 49, "cluster_id": 1, "rank_in_cluster": 39}

>  <energy>  (36) 
-10.39

>  <cluster_rmsd>  (36) 
1.33

>  <cluster>  (36) 
1

$$$$

     RDKit          3D

 67 73  0  0  0  0  0  0  0  0999 V2000
  146.3010   68.5250  219.2880 C   0  0  0  0  0  0  0  0  0  0  0  0
  145.1180   67.8270  219.3450 C   0  0  0  0  0  0  0  0  0  0  0  0
  143.9150   68.5140  219.3970 C   0  0  0  0  0  0  0  0  0  0  0  0
  143.8860   69.8920  219.3910 C   0  0  0  0  0  0  0  0  0  0  0  0
  145.0520   70.6000  219.3340 C   0  0  0  0  0  0  0  0  0  0  0  0
  146.2610   69.9060  219.2830 C   0  0  0  0  0  0  0  0  0  0  0  0
  145.1380   72.0830  219.3230 C   0  0  0  0  0  0  0  0  0  0  0  0
  143.8080   72.6500  218.9220 C   0  0  0  0  0  0  0  0  0  0  0  0
  142.7430   72.0120  219.6770 N   0  0  0  0  0  0  0  0  0  0  0  0
  141.9090   72.6830  220.5910 C   0  0  0  0  0  0  0  0  0  0  0  0
  141.1180   72.0390  221.5170 C   0  0  0  0  0  0  0  0  0  0  0  0
  140.3000   72.7070  222.4100 C   0  0  0  0  0  0  0  0  0  0  0  0
  139.5010   71.9820  223.3500 N   0  0  0  0  0  0  0  0  0  0  0  0
  140.0620   70.7560  223.8670 C   0  0  2  0  0  0  0  0  0  0  0  0
  139.1640   69.5750  223.7570 C   0  0  0  0  0  0  0  0  0  0  0  0
  138.9920   68.9700  225.1250 C   0  0  0  0  0  0  0  0  0  0  0  0
  139.7110   69.8890  226.0330 C   0  0  0  0  0  0  0  0  0  0  0  0
  139.8460   69.8690  227.4030 C   0  0  0  0  0  0  0  0  0  0  0  0
  140.5710   70.8440  228.0100 C   0  0  0  0  0  0  0  0  0  0  0  0
  141.1940   71.8760  227.3310 C   0  0  0  0  0  0  0  0  0  0  0  0
  141.0580   71.8950  225.9570 C   0  0  0  0  0  0  0  0  0  0  0  0
  140.3160   70.8990  225.3140 C   0  0  0  0  0  0  0  0  0  0  0  0
  140.3040   74.0500  222.3410 N   0  0  0  0  0  0  0  0  0  0  0  0
  141.0760   74.7170  221.4370 C   0  0  0  0  0  0  0  0  0  0  0  0
  141.0140   76.1370  221.4370 N   0  0  0  0  0  0  0  0  0  0  0  0
  140.9200   76.8500  220.1790 C   0  0  0  0  0  0  0  0  0  0  0  0
  142.1000   77.8310  220.1950 C   0  0  0  0  0  0  0  0  0  0  0  0
  141.7680   78.7820  221.3120 C   0  0  0  0  0  0  0  0  0  0  0  0
  141.9680   80.1260  221.1260 C   0  0  0  0  0  0  0  0  0  0  0  0
  141.6700   81.0170  222.1400 C   0  0  0  0  0  0  0  0  0  0  0  0
  141.1750   80.5240  223.3180 C   0  0  0  0  0  0  0  0  0  0  0  0
  140.9790   79.1670  223.4910 C   0  0  0  0  0  0  0  0  0  0  0  0
  141.2760   78.2590  222.4790 C   0  0  0  0  0  0  0  0  0  0  0  0
  141.0490   76.8100  222.7110 C   0  0  0  0  0  0  0  0  0  0  0  0
  141.8560   74.0280  220.5860 N   0  0  0  0  0  0  0  0  0  0  0  0
  142.5640   70.5870  219.4490 C   0  0  0  0  0  0  0  0  0  0  0  0
  147.2630   67.9931  219.2471 H   0  0  0  0  0  0  0  0  0  0  0  0
  145.1259   66.7270  219.3493 H   0  0  0  0  0  0  0  0  0  0  0  0
  142.9707   67.9517  219.4437 H   0  0  0  0  0  0  0  0  0  0  0  0
  147.2037   70.4710  219.2378 H   0  0  0  0  0  0  0  0  0  0  0  0
  145.4043   72.4438  220.3274 H   0  0  0  0  0  0  0  0  0  0  0  0
  145.9084   72.4038  218.6063 H   0  0  0  0  0  0  0  0  0  0  0  0
  143.7984   73.7315  219.1229 H   0  0  0  0  0  0  0  0  0  0  0  0
  143.6478   72.4662  217.8494 H   0  0  0  0  0  0  0  0  0  0  0  0
  141.1380   70.9396  221.5476 H   0  0  0  0  0  0  0  0  0  0  0  0
  138.5570   72.3030  223.6600 H   0  0  0  0  0  0  0  0  0  0  0  0
  140.9657   70.5884  223.2627 H   0  0  0  0  0  0  0  0  0  0  0  0
  138.1852   69.8894  223.3656 H   0  0  0  0  0  0  0  0  0  0  0  0
  139.6017   68.8340  223.0719 H   0  0  0  0  0  0  0  0  0  0  0  0
  137.9267   68.9136  225.3934 H   0  0  0  0  0  0  0  0  0  0  0  0
  139.3809   67.9424  225.1783 H   0  0  0  0  0  0  0  0  0  0  0  0
  139.3730   69.0739  227.9981 H   0  0  0  0  0  0  0  0  0  0  0  0
  140.6685   70.8112  229.1052 H   0  0  0  0  0  0  0  0  0  0  0  0
  141.7718   72.6469  227.8619 H   0  0  0  0  0  0  0  0  0  0  0  0
  141.5332   72.6934  225.3682 H   0  0  0  0  0  0  0  0  0  0  0  0
  141.0063   76.1539  219.3317 H   0  0  0  0  0  0  0  0  0  0  0  0
  139.9543   77.3641  220.0644 H   0  0  0  0  0  0  0  0  0  0  0  0
  143.0439   77.3039  220.3980 H   0  0  0  0  0  0  0  0  0  0  0  0
  142.2384   78.3423  219.2309 H   0  0  0  0  0  0  0  0  0  0  0  0
  142.3658   80.4952  220.1692 H   0  0  0  0  0  0  0  0  0  0  0  0
  141.8268   82.0972  222.0039 H   0  0  0  0  0  0  0  0  0  0  0  0
  140.9304   81.2168  224.1366 H   0  0  0  0  0  0  0  0  0  0  0  0
  140.5805   78.7973  224.4473 H   0  0  0  0  0  0  0  0  0  0  0  0
  141.8662   76.4009  223.3232 H   0  0  0  0  0  0  0  0  0  0  0  0
  140.0961   76.6603  223.2398 H   0  0  0  0  0  0  0  0  0  0  0  0
  141.9681   70.1618  220.2700 H   0  0  0  0  0  0  0  0  0  0  0  0
  142.0466   70.4443  218.4888 H   0  0  0  0  0  0  0  0  0  0  0  0
  1  2  2  0
  2  3  1  0
  3  4  2  0
  4  5  1  0
  5  6  2  0
  5  7  1  0
  7  8  1  0
  8  9  1  0
  9 10  1  0
 10 11  2  0
 11 12  1  0
 12 13  1  0
 13 14  1  0
 14 15  1  0
 15 16  1  0
 16 17  1  0
 17 18  2  0
 18 19  1  0
 19 20  2  0
 20 21  1  0
 21 22  2  0
 12 23  2  0
 23 24  1  0
 24 25  1  0
 25 26  1  0
 26 27  1  0
 27 28  1  0
 28 29  2  0
 29 30  1  0
 30 31  2  0
 31 32  1  0
 32 33  2  0
 33 34  1  0
 24 35  2  0
  9 36  1  0
  6  1  1  0
 35 10  1  0
 36  4  1  0
 22 14  1  0
 34 25  1  0
 22 17  1  0
 33 28  1  0
  1 37  1  0
  2 38  1  0
  3 39  1  0
  6 40  1  0
  7 41  1  0
  7 42  1  0
  8 43  1  0
  8 44  1  0
 11 45  1  0
 13 46  1  0
 14 47  1  6
 15 48  1  0
 15 49  1  0
 16 50  1  0
 16 51  1  0
 18 52  1  0
 19 53  1  0
 20 54  1  0
 21 55  1  0
 26 56  1  0
 26 57  1  0
 27 58  1  0
 27 59  1  0
 29 60  1  0
 30 61  1  0
 31 62  1  0
 32 63  1  0
 34 64  1  0
 34 65  1  0
 36 66  1  0
 36 67  1  0
M  END
>  <smiles>  (37) 
c1ccc2c(c1)CCN(c1cc(N[C@@H]3CCc4ccccc43)nc(N3CCc4ccccc4C3)n1)C2

>  <score_type>  (37) 
oracle

>  <origin>  (37) 
autodockgpu

>  <m_score__min__energy>  (37) 
-11.73

>  <m_primary>  (37) 
energy

>  <rmsd>  (37) 
10.345949342509726

>  <m_score__min__rmsd>  (37) 
10.345949342509726

>  <meeko>  (37) 
{"free_energy": -11.72, "intermolecular_energy": -12.91, "internal_energy": -1.2, "cluster_size": 49, "cluster_id": 1, "rank_in_cluster": 4}

>  <energy>  (37) 
-10.29

>  <cluster_rmsd>  (37) 
1.44

>  <cluster>  (37) 
1

$$$$

     RDKit          3D

 67 73  0  0  0  0  0  0  0  0999 V2000
  146.3470   68.5330  219.3400 C   0  0  0  0  0  0  0  0  0  0  0  0
  145.1740   67.8190  219.4230 C   0  0  0  0  0  0  0  0  0  0  0  0
  143.9620   68.4900  219.4700 C   0  0  0  0  0  0  0  0  0  0  0  0
  143.9130   69.8670  219.4340 C   0  0  0  0  0  0  0  0  0  0  0  0
  145.0690   70.5900  219.3500 C   0  0  0  0  0  0  0  0  0  0  0  0
  146.2870   69.9130  219.3030 C   0  0  0  0  0  0  0  0  0  0  0  0
  145.1320   72.0730  219.3040 C   0  0  0  0  0  0  0  0  0  0  0  0
  143.7910   72.6120  218.9040 C   0  0  0  0  0  0  0  0  0  0  0  0
  142.7420   71.9760  219.6820 N   0  0  0  0  0  0  0  0  0  0  0  0
  141.9060   72.6560  220.5890 C   0  0  0  0  0  0  0  0  0  0  0  0
  141.1030   72.0200  221.5100 C   0  0  0  0  0  0  0  0  0  0  0  0
  140.2840   72.6960  222.3950 C   0  0  0  0  0  0  0  0  0  0  0  0
  139.4720   71.9800  223.3300 N   0  0  0  0  0  0  0  0  0  0  0  0
  140.0170   70.7470  223.8510 C   0  0  2  0  0  0  0  0  0  0  0  0
  139.0930   69.5850  223.7700 C   0  0  0  0  0  0  0  0  0  0  0  0
  138.9340   68.9990  225.1470 C   0  0  0  0  0  0  0  0  0  0  0  0
  139.6890   69.9110  226.0320 C   0  0  0  0  0  0  0  0  0  0  0  0
  139.8490   69.9030  227.4000 C   0  0  0  0  0  0  0  0  0  0  0  0
  140.6050   70.8690  227.9820 C   0  0  0  0  0  0  0  0  0  0  0  0
  141.2360   71.8800  227.2810 C   0  0  0  0  0  0  0  0  0  0  0  0
  141.0750   71.8880  225.9090 C   0  0  0  0  0  0  0  0  0  0  0  0
  140.3000   70.9010  225.2910 C   0  0  0  0  0  0  0  0  0  0  0  0
  140.2990   74.0400  222.3240 N   0  0  0  0  0  0  0  0  0  0  0  0
  141.0830   74.6980  221.4240 C   0  0  0  0  0  0  0  0  0  0  0  0
  141.0330   76.1190  221.4210 N   0  0  0  0  0  0  0  0  0  0  0  0
  140.9580   76.8300  220.1610 C   0  0  0  0  0  0  0  0  0  0  0  0
  142.1460   77.8020  220.1870 C   0  0  0  0  0  0  0  0  0  0  0  0
  141.8100   78.7570  221.2990 C   0  0  0  0  0  0  0  0  0  0  0  0
  142.0220   80.0990  221.1130 C   0  0  0  0  0  0  0  0  0  0  0  0
  141.7210   80.9950  222.1220 C   0  0  0  0  0  0  0  0  0  0  0  0
  141.2100   80.5070  223.2950 C   0  0  0  0  0  0  0  0  0  0  0  0
  141.0010   79.1520  223.4690 C   0  0  0  0  0  0  0  0  0  0  0  0
  141.3010   78.2400  222.4620 C   0  0  0  0  0  0  0  0  0  0  0  0
  141.0600   76.7940  222.6940 C   0  0  0  0  0  0  0  0  0  0  0  0
  141.8650   74.0010  220.5800 N   0  0  0  0  0  0  0  0  0  0  0  0
  142.5820   70.5440  219.4880 C   0  0  0  0  0  0  0  0  0  0  0  0
  147.3162   68.0141  219.3037 H   0  0  0  0  0  0  0  0  0  0  0  0
  145.1978   66.7196  219.4520 H   0  0  0  0  0  0  0  0  0  0  0  0
  143.0263   67.9156  219.5370 H   0  0  0  0  0  0  0  0  0  0  0  0
  147.2209   70.4903  219.2349 H   0  0  0  0  0  0  0  0  0  0  0  0
  145.4028   72.4606  220.2972 H   0  0  0  0  0  0  0  0  0  0  0  0
  145.8900   72.3879  218.5716 H   0  0  0  0  0  0  0  0  0  0  0  0
  143.7679   73.6973  219.0818 H   0  0  0  0  0  0  0  0  0  0  0  0
  143.6237   72.4024  217.8372 H   0  0  0  0  0  0  0  0  0  0  0  0
  141.1140   70.9205  221.5428 H   0  0  0  0  0  0  0  0  0  0  0  0
  138.5290   72.3100  223.6350 H   0  0  0  0  0  0  0  0  0  0  0  0
  140.9060   70.5531  223.2329 H   0  0  0  0  0  0  0  0  0  0  0  0
  138.1140   69.9160  223.3931 H   0  0  0  0  0  0  0  0  0  0  0  0
  139.5019   68.8277  223.0850 H   0  0  0  0  0  0  0  0  0  0  0  0
  137.8730   68.9686  225.4355 H   0  0  0  0  0  0  0  0  0  0  0  0
  139.3022   67.9640  225.2041 H   0  0  0  0  0  0  0  0  0  0  0  0
  139.3708   69.1246  228.0127 H   0  0  0  0  0  0  0  0  0  0  0  0
  140.7224   70.8459  229.0755 H   0  0  0  0  0  0  0  0  0  0  0  0
  141.8394   72.6440  227.7930 H   0  0  0  0  0  0  0  0  0  0  0  0
  141.5559   72.6699  225.3029 H   0  0  0  0  0  0  0  0  0  0  0  0
  141.0475   76.1314  219.3161 H   0  0  0  0  0  0  0  0  0  0  0  0
  139.9977   77.3517  220.0355 H   0  0  0  0  0  0  0  0  0  0  0  0
  143.0837   77.2679  220.4002 H   0  0  0  0  0  0  0  0  0  0  0  0
  142.2983   78.3105  219.2236 H   0  0  0  0  0  0  0  0  0  0  0  0
  142.4322   80.4632  220.1595 H   0  0  0  0  0  0  0  0  0  0  0  0
  141.8879   82.0737  221.9858 H   0  0  0  0  0  0  0  0  0  0  0  0
  140.9625   81.2031  224.1100 H   0  0  0  0  0  0  0  0  0  0  0  0
  140.5896   78.7876  224.4219 H   0  0  0  0  0  0  0  0  0  0  0  0
  141.8674   76.3794  223.3155 H   0  0  0  0  0  0  0  0  0  0  0  0
  140.1004   76.6529  223.2129 H   0  0  0  0  0  0  0  0  0  0  0  0
  141.9994   70.1291  220.3237 H   0  0  0  0  0  0  0  0  0  0  0  0
  142.0586   70.3721  218.5359 H   0  0  0  0  0  0  0  0  0  0  0  0
  1  2  2  0
  2  3  1  0
  3  4  2  0
  4  5  1  0
  5  6  2  0
  5  7  1  0
  7  8  1  0
  8  9  1  0
  9 10  1  0
 10 11  2  0
 11 12  1  0
 12 13  1  0
 13 14  1  0
 14 15  1  0
 15 16  1  0
 16 17  1  0
 17 18  2  0
 18 19  1  0
 19 20  2  0
 20 21  1  0
 21 22  2  0
 12 23  2  0
 23 24  1  0
 24 25  1  0
 25 26  1  0
 26 27  1  0
 27 28  1  0
 28 29  2  0
 29 30  1  0
 30 31  2  0
 31 32  1  0
 32 33  2  0
 33 34  1  0
 24 35  2  0
  9 36  1  0
  6  1  1  0
 35 10  1  0
 36  4  1  0
 22 14  1  0
 34 25  1  0
 22 17  1  0
 33 28  1  0
  1 37  1  0
  2 38  1  0
  3 39  1  0
  6 40  1  0
  7 41  1  0
  7 42  1  0
  8 43  1  0
  8 44  1  0
 11 45  1  0
 13 46  1  0
 14 47  1  6
 15 48  1  0
 15 49  1  0
 16 50  1  0
 16 51  1  0
 18 52  1  0
 19 53  1  0
 20 54  1  0
 21 55  1  0
 26 56  1  0
 26 57  1  0
 27 58  1  0
 27 59  1  0
 29 60  1  0
 30 61  1  0
 31 62  1  0
 32 63  1  0
 34 64  1  0
 34 65  1  0
 36 66  1  0
 36 67  1  0
M  END
>  <smiles>  (38) 
c1ccc2c(c1)CCN(c1cc(N[C@@H]3CCc4ccccc43)nc(N3CCc4ccccc4C3)n1)C2

>  <score_type>  (38) 
oracle

>  <origin>  (38) 
autodockgpu

>  <m_score__min__energy>  (38) 
-11.73

>  <m_primary>  (38) 
energy

>  <rmsd>  (38) 
10.337403701420884

>  <m_score__min__rmsd>  (38) 
10.337403701420884

>  <meeko>  (38) 
{"free_energy": -11.7, "intermolecular_energy": -12.89, "internal_energy": -1.21, "cluster_size": 49, "cluster_id": 1, "rank_in_cluster": 21}

>  <energy>  (38) 
-10.27

>  <cluster_rmsd>  (38) 
1.8

>  <cluster>  (38) 
1

$$$$

     RDKit          3D

 67 73  0  0  0  0  0  0  0  0999 V2000
  146.2800   68.4430  219.3520 C   0  0  0  0  0  0  0  0  0  0  0  0
  145.0940   67.7510  219.4140 C   0  0  0  0  0  0  0  0  0  0  0  0
  143.8940   68.4450  219.4560 C   0  0  0  0  0  0  0  0  0  0  0  0
  143.8720   69.8230  219.4350 C   0  0  0  0  0  0  0  0  0  0  0  0
  145.0420   70.5240  219.3730 C   0  0  0  0  0  0  0  0  0  0  0  0
  146.2480   69.8240  219.3320 C   0  0  0  0  0  0  0  0  0  0  0  0
  145.1350   72.0060  219.3460 C   0  0  0  0  0  0  0  0  0  0  0  0
  143.8090   72.5760  218.9370 C   0  0  0  0  0  0  0  0  0  0  0  0
  142.7390   71.9520  219.6960 N   0  0  0  0  0  0  0  0  0  0  0  0
  141.9060   72.6370  220.6010 C   0  0  0  0  0  0  0  0  0  0  0  0
  141.1040   72.0060  221.5270 C   0  0  0  0  0  0  0  0  0  0  0  0
  140.2880   72.6880  222.4110 C   0  0  0  0  0  0  0  0  0  0  0  0
  139.4770   71.9760  223.3500 N   0  0  0  0  0  0  0  0  0  0  0  0
  140.0210   70.7470  223.8760 C   0  0  2  0  0  0  0  0  0  0  0  0
  139.1020   69.5810  223.7870 C   0  0  0  0  0  0  0  0  0  0  0  0
  138.9320   68.9940  225.1640 C   0  0  0  0  0  0  0  0  0  0  0  0
  139.6760   69.9100  226.0550 C   0  0  0  0  0  0  0  0  0  0  0  0
  139.8230   69.9030  227.4240 C   0  0  0  0  0  0  0  0  0  0  0  0
  140.5700   70.8730  228.0130 C   0  0  0  0  0  0  0  0  0  0  0  0
  141.2050   71.8850  227.3170 C   0  0  0  0  0  0  0  0  0  0  0  0
  141.0560   71.8920  225.9440 C   0  0  0  0  0  0  0  0  0  0  0  0
  140.2910   70.9020  225.3190 C   0  0  0  0  0  0  0  0  0  0  0  0
  140.3060   74.0310  222.3330 N   0  0  0  0  0  0  0  0  0  0  0  0
  141.0890   74.6840  221.4290 C   0  0  0  0  0  0  0  0  0  0  0  0
  141.0410   76.1050  221.4200 N   0  0  0  0  0  0  0  0  0  0  0  0
  140.9720   76.8110  220.1570 C   0  0  0  0  0  0  0  0  0  0  0  0
  142.1620   77.7810  220.1840 C   0  0  0  0  0  0  0  0  0  0  0  0
  141.8230   78.7410  221.2910 C   0  0  0  0  0  0  0  0  0  0  0  0
  142.0380   80.0820  221.1000 C   0  0  0  0  0  0  0  0  0  0  0  0
  141.7340   80.9820  222.1040 C   0  0  0  0  0  0  0  0  0  0  0  0
  141.2180   80.5010  223.2770 C   0  0  0  0  0  0  0  0  0  0  0  0
  141.0060   79.1470  223.4560 C   0  0  0  0  0  0  0  0  0  0  0  0
  141.3080   78.2300  222.4530 C   0  0  0  0  0  0  0  0  0  0  0  0
  141.0640   76.7850  222.6910 C   0  0  0  0  0  0  0  0  0  0  0  0
  141.8670   73.9820  220.5870 N   0  0  0  0  0  0  0  0  0  0  0  0
  142.5540   70.5250  219.4830 C   0  0  0  0  0  0  0  0  0  0  0  0
  147.2393   67.9058  219.3188 H   0  0  0  0  0  0  0  0  0  0  0  0
  145.0966   66.6511  219.4302 H   0  0  0  0  0  0  0  0  0  0  0  0
  142.9468   67.8881  219.5068 H   0  0  0  0  0  0  0  0  0  0  0  0
  147.1937   70.3836  219.2827 H   0  0  0  0  0  0  0  0  0  0  0  0
  145.4017   72.3762  220.3469 H   0  0  0  0  0  0  0  0  0  0  0  0
  145.9077   72.3148  218.6266 H   0  0  0  0  0  0  0  0  0  0  0  0
  143.8051   73.6595  219.1269 H   0  0  0  0  0  0  0  0  0  0  0  0
  143.6498   72.3818  217.8660 H   0  0  0  0  0  0  0  0  0  0  0  0
  141.1133   70.9067  221.5649 H   0  0  0  0  0  0  0  0  0  0  0  0
  138.5350   72.3090  223.6540 H   0  0  0  0  0  0  0  0  0  0  0  0
  140.9163   70.5567  223.2659 H   0  0  0  0  0  0  0  0  0  0  0  0
  138.1253   69.9081  223.4009 H   0  0  0  0  0  0  0  0  0  0  0  0
  139.5204   68.8250  223.1063 H   0  0  0  0  0  0  0  0  0  0  0  0
  137.8685   68.9598  225.4429 H   0  0  0  0  0  0  0  0  0  0  0  0
  139.3028   67.9602  225.2252 H   0  0  0  0  0  0  0  0  0  0  0  0
  139.3423   69.1228  228.0324 H   0  0  0  0  0  0  0  0  0  0  0  0
  140.6758   70.8520  229.1077 H   0  0  0  0  0  0  0  0  0  0  0  0
  141.8023   72.6505  227.8339 H   0  0  0  0  0  0  0  0  0  0  0  0
  141.5389   72.6760  225.3422 H   0  0  0  0  0  0  0  0  0  0  0  0
  141.0635   76.1089  219.3152 H   0  0  0  0  0  0  0  0  0  0  0  0
  140.0132   77.3338  220.0255 H   0  0  0  0  0  0  0  0  0  0  0  0
  143.0978   77.2460  220.4032 H   0  0  0  0  0  0  0  0  0  0  0  0
  142.3194   78.2854  219.2192 H   0  0  0  0  0  0  0  0  0  0  0  0
  142.4528   80.4417  220.1468 H   0  0  0  0  0  0  0  0  0  0  0  0
  141.9028   82.0599  221.9636 H   0  0  0  0  0  0  0  0  0  0  0  0
  140.9688   81.2013  224.0879 H   0  0  0  0  0  0  0  0  0  0  0  0
  140.5908   78.7872  224.4090 H   0  0  0  0  0  0  0  0  0  0  0  0
  141.8684   76.3720  223.3173 H   0  0  0  0  0  0  0  0  0  0  0  0
  140.1026   76.6472  223.2074 H   0  0  0  0  0  0  0  0  0  0  0  0
  141.9545   70.1116  220.3074 H   0  0  0  0  0  0  0  0  0  0  0  0
  142.0381   70.3746  218.5232 H   0  0  0  0  0  0  0  0  0  0  0  0
  1  2  2  0
  2  3  1  0
  3  4  2  0
  4  5  1  0
  5  6  2  0
  5  7  1  0
  7  8  1  0
  8  9  1  0
  9 10  1  0
 10 11  2  0
 11 12  1  0
 12 13  1  0
 13 14  1  0
 14 15  1  0
 15 16  1  0
 16 17  1  0
 17 18  2  0
 18 19  1  0
 19 20  2  0
 20 21  1  0
 21 22  2  0
 12 23  2  0
 23 24  1  0
 24 25  1  0
 25 26  1  0
 26 27  1  0
 27 28  1  0
 28 29  2  0
 29 30  1  0
 30 31  2  0
 31 32  1  0
 32 33  2  0
 33 34  1  0
 24 35  2  0
  9 36  1  0
  6  1  1  0
 35 10  1  0
 36  4  1  0
 22 14  1  0
 34 25  1  0
 22 17  1  0
 33 28  1  0
  1 37  1  0
  2 38  1  0
  3 39  1  0
  6 40  1  0
  7 41  1  0
  7 42  1  0
  8 43  1  0
  8 44  1  0
 11 45  1  0
 13 46  1  0
 14 47  1  6
 15 48  1  0
 15 49  1  0
 16 50  1  0
 16 51  1  0
 18 52  1  0
 19 53  1  0
 20 54  1  0
 21 55  1  0
 26 56  1  0
 26 57  1  0
 27 58  1  0
 27 59  1  0
 29 60  1  0
 30 61  1  0
 31 62  1  0
 32 63  1  0
 34 64  1  0
 34 65  1  0
 36 66  1  0
 36 67  1  0
M  END
>  <smiles>  (39) 
c1ccc2c(c1)CCN(c1cc(N[C@@H]3CCc4ccccc43)nc(N3CCc4ccccc4C3)n1)C2

>  <score_type>  (39) 
oracle

>  <origin>  (39) 
autodockgpu

>  <m_score__min__energy>  (39) 
-11.73

>  <m_primary>  (39) 
energy

>  <rmsd>  (39) 
10.345707971524181

>  <m_score__min__rmsd>  (39) 
10.345707971524181

>  <meeko>  (39) 
{"free_energy": -11.71, "intermolecular_energy": -12.9, "internal_energy": -1.21, "cluster_size": 49, "cluster_id": 1, "rank_in_cluster": 9}

>  <energy>  (39) 
-10.27

>  <cluster_rmsd>  (39) 
1.8

>  <cluster>  (39) 
1

$$$$

     RDKit          3D

 67 73  0  0  0  0  0  0  0  0999 V2000
  146.2660   68.4970  219.2840 C   0  0  0  0  0  0  0  0  0  0  0  0
  145.0760   67.8090  219.3380 C   0  0  0  0  0  0  0  0  0  0  0  0
  143.8800   68.5070  219.3900 C   0  0  0  0  0  0  0  0  0  0  0  0
  143.8630   69.8860  219.3860 C   0  0  0  0  0  0  0  0  0  0  0  0
  145.0360   70.5830  219.3310 C   0  0  0  0  0  0  0  0  0  0  0  0
  146.2390   69.8780  219.2800 C   0  0  0  0  0  0  0  0  0  0  0  0
  145.1350   72.0650  219.3230 C   0  0  0  0  0  0  0  0  0  0  0  0
  143.8110   72.6450  218.9220 C   0  0  0  0  0  0  0  0  0  0  0  0
  142.7390   72.0150  219.6750 N   0  0  0  0  0  0  0  0  0  0  0  0
  141.9100   72.6930  220.5890 C   0  0  0  0  0  0  0  0  0  0  0  0
  141.1140   72.0540  221.5150 C   0  0  0  0  0  0  0  0  0  0  0  0
  140.3030   72.7280  222.4080 C   0  0  0  0  0  0  0  0  0  0  0  0
  139.4980   72.0090  223.3480 N   0  0  0  0  0  0  0  0  0  0  0  0
  140.0450   70.7730  223.8560 C   0  0  2  0  0  0  0  0  0  0  0  0
  139.1350   69.6030  223.7330 C   0  0  0  0  0  0  0  0  0  0  0  0
  138.9520   68.9880  225.0960 C   0  0  0  0  0  0  0  0  0  0  0  0
  139.6780   69.8920  226.0140 C   0  0  0  0  0  0  0  0  0  0  0  0
  139.8100   69.8580  227.3840 C   0  0  0  0  0  0  0  0  0  0  0  0
  140.5430   70.8210  228.0010 C   0  0  0  0  0  0  0  0  0  0  0  0
  141.1780   71.8510  227.3330 C   0  0  0  0  0  0  0  0  0  0  0  0
  141.0460   71.8840  225.9580 C   0  0  0  0  0  0  0  0  0  0  0  0
  140.2960   70.9020  225.3050 C   0  0  0  0  0  0  0  0  0  0  0  0
  140.3170   74.0720  222.3400 N   0  0  0  0  0  0  0  0  0  0  0  0
  141.0930   74.7320  221.4350 C   0  0  0  0  0  0  0  0  0  0  0  0
  141.0430   76.1530  221.4360 N   0  0  0  0  0  0  0  0  0  0  0  0
  140.9770   76.8680  220.1770 C   0  0  0  0  0  0  0  0  0  0  0  0
  142.1650   77.8400  220.2160 C   0  0  0  0  0  0  0  0  0  0  0  0
  141.8200   78.7920  221.3280 C   0  0  0  0  0  0  0  0  0  0  0  0
  142.0330   80.1350  221.1480 C   0  0  0  0  0  0  0  0  0  0  0  0
  141.7230   81.0270  222.1570 C   0  0  0  0  0  0  0  0  0  0  0  0
  141.2040   80.5370  223.3240 C   0  0  0  0  0  0  0  0  0  0  0  0
  140.9940   79.1810  223.4930 C   0  0  0  0  0  0  0  0  0  0  0  0
  141.3020   78.2710  222.4850 C   0  0  0  0  0  0  0  0  0  0  0  0
  141.0590   76.8250  222.7110 C   0  0  0  0  0  0  0  0  0  0  0  0
  141.8680   74.0380  220.5840 N   0  0  0  0  0  0  0  0  0  0  0  0
  142.5480   70.5920  219.4440 C   0  0  0  0  0  0  0  0  0  0  0  0
  147.2232   67.9564  219.2447 H   0  0  0  0  0  0  0  0  0  0  0  0
  145.0738   66.7090  219.3399 H   0  0  0  0  0  0  0  0  0  0  0  0
  142.9306   67.9532  219.4351 H   0  0  0  0  0  0  0  0  0  0  0  0
  147.1869   70.4343  219.2356 H   0  0  0  0  0  0  0  0  0  0  0  0
  145.4035   72.4213  220.3284 H   0  0  0  0  0  0  0  0  0  0  0  0
  145.9088   72.3801  218.6075 H   0  0  0  0  0  0  0  0  0  0  0  0
  143.8112   73.7261  219.1251 H   0  0  0  0  0  0  0  0  0  0  0  0
  143.6501   72.4649  217.8488 H   0  0  0  0  0  0  0  0  0  0  0  0
  141.1248   70.9545  221.5446 H   0  0  0  0  0  0  0  0  0  0  0  0
  138.5590   72.3410  223.6640 H   0  0  0  0  0  0  0  0  0  0  0  0
  140.9489   70.6004  223.2534 H   0  0  0  0  0  0  0  0  0  0  0  0
  138.1609   69.9312  223.3412 H   0  0  0  0  0  0  0  0  0  0  0  0
  139.5669   68.8632  223.0430 H   0  0  0  0  0  0  0  0  0  0  0  0
  137.8853   68.9407  225.3606 H   0  0  0  0  0  0  0  0  0  0  0  0
  139.3296   67.9559  225.1419 H   0  0  0  0  0  0  0  0  0  0  0  0
  139.3285   69.0620  227.9709 H   0  0  0  0  0  0  0  0  0  0  0  0
  140.6367   70.7786  229.0962 H   0  0  0  0  0  0  0  0  0  0  0  0
  141.7626   72.6109  227.8722 H   0  0  0  0  0  0  0  0  0  0  0  0
  141.5310   72.6827  225.3776 H   0  0  0  0  0  0  0  0  0  0  0  0
  141.0732   76.1721  219.3305 H   0  0  0  0  0  0  0  0  0  0  0  0
  140.0175   77.3896  220.0452 H   0  0  0  0  0  0  0  0  0  0  0  0
  143.1008   77.3051  220.4355 H   0  0  0  0  0  0  0  0  0  0  0  0
  142.3252   78.3514  219.2554 H   0  0  0  0  0  0  0  0  0  0  0  0
  142.4511   80.5025  220.1993 H   0  0  0  0  0  0  0  0  0  0  0  0
  141.8898   82.1062  222.0248 H   0  0  0  0  0  0  0  0  0  0  0  0
  140.9504   81.2311  224.1388 H   0  0  0  0  0  0  0  0  0  0  0  0
  140.5756   78.8140  224.4418 H   0  0  0  0  0  0  0  0  0  0  0  0
  141.8609   76.4088  223.3385 H   0  0  0  0  0  0  0  0  0  0  0  0
  140.0949   76.6828  223.2211 H   0  0  0  0  0  0  0  0  0  0  0  0
  141.9475   70.1704  220.2636 H   0  0  0  0  0  0  0  0  0  0  0  0
  142.0305   70.4558  218.4829 H   0  0  0  0  0  0  0  0  0  0  0  0
  1  2  2  0
  2  3  1  0
  3  4  2  0
  4  5  1  0
  5  6  2  0
  5  7  1  0
  7  8  1  0
  8  9  1  0
  9 10  1  0
 10 11  2  0
 11 12  1  0
 12 13  1  0
 13 14  1  0
 14 15  1  0
 15 16  1  0
 16 17  1  0
 17 18  2  0
 18 19  1  0
 19 20  2  0
 20 21  1  0
 21 22  2  0
 12 23  2  0
 23 24  1  0
 24 25  1  0
 25 26  1  0
 26 27  1  0
 27 28  1  0
 28 29  2  0
 29 30  1  0
 30 31  2  0
 31 32  1  0
 32 33  2  0
 33 34  1  0
 24 35  2  0
  9 36  1  0
  6  1  1  0
 35 10  1  0
 36  4  1  0
 22 14  1  0
 34 25  1  0
 22 17  1  0
 33 28  1  0
  1 37  1  0
  2 38  1  0
  3 39  1  0
  6 40  1  0
  7 41  1  0
  7 42  1  0
  8 43  1  0
  8 44  1  0
 11 45  1  0
 13 46  1  0
 14 47  1  6
 15 48  1  0
 15 49  1  0
 16 50  1  0
 16 51  1  0
 18 52  1  0
 19 53  1  0
 20 54  1  0
 21 55  1  0
 26 56  1  0
 26 57  1  0
 27 58  1  0
 27 59  1  0
 29 60  1  0
 30 61  1  0
 31 62  1  0
 32 63  1  0
 34 64  1  0
 34 65  1  0
 36 66  1  0
 36 67  1  0
M  END
>  <smiles>  (40) 
c1ccc2c(c1)CCN(c1cc(N[C@@H]3CCc4ccccc43)nc(N3CCc4ccccc4C3)n1)C2

>  <score_type>  (40) 
oracle

>  <origin>  (40) 
autodockgpu

>  <m_score__min__energy>  (40) 
-11.73

>  <m_primary>  (40) 
energy

>  <rmsd>  (40) 
10.341960406844194

>  <m_score__min__rmsd>  (40) 
10.341960406844194

>  <meeko>  (40) 
{"free_energy": -11.7, "intermolecular_energy": -12.9, "internal_energy": -1.2, "cluster_size": 49, "cluster_id": 1, "rank_in_cluster": 18}

>  <energy>  (40) 
-10.27

>  <cluster_rmsd>  (40) 
1.8

>  <cluster>  (40) 
1

$$$$

     RDKit          3D

 67 73  0  0  0  0  0  0  0  0999 V2000
  146.3350   68.5760  219.3370 C   0  0  0  0  0  0  0  0  0  0  0  0
  145.1650   67.8580  219.4070 C   0  0  0  0  0  0  0  0  0  0  0  0
  143.9500   68.5240  219.4540 C   0  0  0  0  0  0  0  0  0  0  0  0
  143.8960   69.9010  219.4310 C   0  0  0  0  0  0  0  0  0  0  0  0
  145.0490   70.6280  219.3600 C   0  0  0  0  0  0  0  0  0  0  0  0
  146.2700   69.9570  219.3130 C   0  0  0  0  0  0  0  0  0  0  0  0
  145.1080   72.1120  219.3290 C   0  0  0  0  0  0  0  0  0  0  0  0
  143.7670   72.6510  218.9260 C   0  0  0  0  0  0  0  0  0  0  0  0
  142.7150   72.0030  219.6930 N   0  0  0  0  0  0  0  0  0  0  0  0
  141.8730   72.6710  220.6020 C   0  0  0  0  0  0  0  0  0  0  0  0
  141.0750   72.0240  221.5200 C   0  0  0  0  0  0  0  0  0  0  0  0
  140.2490   72.6890  222.4070 C   0  0  0  0  0  0  0  0  0  0  0  0
  139.4430   71.9600  223.3380 N   0  0  0  0  0  0  0  0  0  0  0  0
  140.0050   70.7390  223.8660 C   0  0  2  0  0  0  0  0  0  0  0  0
  139.0920   69.5670  223.8060 C   0  0  0  0  0  0  0  0  0  0  0  0
  138.9530   68.9930  225.1910 C   0  0  0  0  0  0  0  0  0  0  0  0
  139.7070   69.9230  226.0590 C   0  0  0  0  0  0  0  0  0  0  0  0
  139.8810   69.9300  227.4250 C   0  0  0  0  0  0  0  0  0  0  0  0
  140.6330   70.9100  227.9900 C   0  0  0  0  0  0  0  0  0  0  0  0
  141.2470   71.9200  227.2710 C   0  0  0  0  0  0  0  0  0  0  0  0
  141.0720   71.9120  225.9010 C   0  0  0  0  0  0  0  0  0  0  0  0
  140.3010   70.9110  225.3010 C   0  0  0  0  0  0  0  0  0  0  0  0
  140.2510   74.0320  222.3410 N   0  0  0  0  0  0  0  0  0  0  0  0
  141.0300   74.7020  221.4450 C   0  0  0  0  0  0  0  0  0  0  0  0
  140.9660   76.1220  221.4480 N   0  0  0  0  0  0  0  0  0  0  0  0
  140.8040   76.8340  220.1970 C   0  0  0  0  0  0  0  0  0  0  0  0
  141.9820   77.8170  220.1490 C   0  0  0  0  0  0  0  0  0  0  0  0
  141.7090   78.7680  221.2820 C   0  0  0  0  0  0  0  0  0  0  0  0
  141.8960   80.1120  221.0850 C   0  0  0  0  0  0  0  0  0  0  0  0
  141.6520   81.0030  222.1130 C   0  0  0  0  0  0  0  0  0  0  0  0
  141.2220   80.5100  223.3160 C   0  0  0  0  0  0  0  0  0  0  0  0
  141.0370   79.1530  223.5000 C   0  0  0  0  0  0  0  0  0  0  0  0
  141.2800   78.2440  222.4730 C   0  0  0  0  0  0  0  0  0  0  0  0
  141.0680   76.7960  222.7180 C   0  0  0  0  0  0  0  0  0  0  0  0
  141.8190   74.0160  220.5990 N   0  0  0  0  0  0  0  0  0  0  0  0
  142.5620   70.5720  219.4850 C   0  0  0  0  0  0  0  0  0  0  0  0
  147.3063   68.0609  219.3007 H   0  0  0  0  0  0  0  0  0  0  0  0
  145.1926   66.7585  219.4257 H   0  0  0  0  0  0  0  0  0  0  0  0
  143.0161   67.9454  219.5104 H   0  0  0  0  0  0  0  0  0  0  0  0
  147.2019   70.5387  219.2556 H   0  0  0  0  0  0  0  0  0  0  0  0
  145.3717   72.4906  220.3276 H   0  0  0  0  0  0  0  0  0  0  0  0
  145.8695   72.4364  218.6045 H   0  0  0  0  0  0  0  0  0  0  0  0
  143.7392   73.7344  219.1141 H   0  0  0  0  0  0  0  0  0  0  0  0
  143.6064   72.4517  217.8562 H   0  0  0  0  0  0  0  0  0  0  0  0
  141.0961   70.9246  221.5486 H   0  0  0  0  0  0  0  0  0  0  0  0
  138.4920   72.2750  223.6350 H   0  0  0  0  0  0  0  0  0  0  0  0
  140.8898   70.5473  223.2412 H   0  0  0  0  0  0  0  0  0  0  0  0
  138.1059   69.8844  223.4360 H   0  0  0  0  0  0  0  0  0  0  0  0
  139.5015   68.8070  223.1243 H   0  0  0  0  0  0  0  0  0  0  0  0
  137.8953   68.9538  225.4905 H   0  0  0  0  0  0  0  0  0  0  0  0
  139.3329   67.9627  225.2550 H   0  0  0  0  0  0  0  0  0  0  0  0
  139.4174   69.1526  228.0501 H   0  0  0  0  0  0  0  0  0  0  0  0
  140.7612   70.9000  229.0825 H   0  0  0  0  0  0  0  0  0  0  0  0
  141.8481   72.6953  227.7686 H   0  0  0  0  0  0  0  0  0  0  0  0
  141.5387   72.6924  225.2821 H   0  0  0  0  0  0  0  0  0  0  0  0
  140.8458   76.1375  219.3466 H   0  0  0  0  0  0  0  0  0  0  0  0
  139.8329   77.3468  220.1342 H   0  0  0  0  0  0  0  0  0  0  0  0
  142.9363   77.2914  220.3010 H   0  0  0  0  0  0  0  0  0  0  0  0
  142.0676   78.3280  219.1787 H   0  0  0  0  0  0  0  0  0  0  0  0
  142.2405   80.4814  220.1079 H   0  0  0  0  0  0  0  0  0  0  0  0
  141.7998   82.0834  221.9681 H   0  0  0  0  0  0  0  0  0  0  0  0
  141.0213   81.2030  224.1464 H   0  0  0  0  0  0  0  0  0  0  0  0
  140.6911   78.7834  224.4766 H   0  0  0  0  0  0  0  0  0  0  0  0
  141.9173   76.3885  223.2860 H   0  0  0  0  0  0  0  0  0  0  0  0
  140.1451   76.6453  223.2972 H   0  0  0  0  0  0  0  0  0  0  0  0
  141.9772   70.1470  220.3141 H   0  0  0  0  0  0  0  0  0  0  0  0
  142.0438   70.4068  218.5288 H   0  0  0  0  0  0  0  0  0  0  0  0
  1  2  2  0
  2  3  1  0
  3  4  2  0
  4  5  1  0
  5  6  2  0
  5  7  1  0
  7  8  1  0
  8  9  1  0
  9 10  1  0
 10 11  2  0
 11 12  1  0
 12 13  1  0
 13 14  1  0
 14 15  1  0
 15 16  1  0
 16 17  1  0
 17 18  2  0
 18 19  1  0
 19 20  2  0
 20 21  1  0
 21 22  2  0
 12 23  2  0
 23 24  1  0
 24 25  1  0
 25 26  1  0
 26 27  1  0
 27 28  1  0
 28 29  2  0
 29 30  1  0
 30 31  2  0
 31 32  1  0
 32 33  2  0
 33 34  1  0
 24 35  2  0
  9 36  1  0
  6  1  1  0
 35 10  1  0
 36  4  1  0
 22 14  1  0
 34 25  1  0
 22 17  1  0
 33 28  1  0
  1 37  1  0
  2 38  1  0
  3 39  1  0
  6 40  1  0
  7 41  1  0
  7 42  1  0
  8 43  1  0
  8 44  1  0
 11 45  1  0
 13 46  1  0
 14 47  1  6
 15 48  1  0
 15 49  1  0
 16 50  1  0
 16 51  1  0
 18 52  1  0
 19 53  1  0
 20 54  1  0
 21 55  1  0
 26 56  1  0
 26 57  1  0
 27 58  1  0
 27 59  1  0
 29 60  1  0
 30 61  1  0
 31 62  1  0
 32 63  1  0
 34 64  1  0
 34 65  1  0
 36 66  1  0
 36 67  1  0
M  END
>  <smiles>  (41) 
c1ccc2c(c1)CCN(c1cc(N[C@@H]3CCc4ccccc43)nc(N3CCc4ccccc4C3)n1)C2

>  <score_type>  (41) 
oracle

>  <origin>  (41) 
autodockgpu

>  <m_score__min__energy>  (41) 
-11.73

>  <m_primary>  (41) 
energy

>  <rmsd>  (41) 
10.332632610905934

>  <m_score__min__rmsd>  (41) 
10.332632610905934

>  <meeko>  (41) 
{"free_energy": -11.71, "intermolecular_energy": -12.9, "internal_energy": -1.21, "cluster_size": 49, "cluster_id": 1, "rank_in_cluster": 11}

>  <energy>  (41) 
-10.27

>  <cluster_rmsd>  (41) 
1.8

>  <cluster>  (41) 
1

$$$$

     RDKit          3D

 67 73  0  0  0  0  0  0  0  0999 V2000
  146.2950   69.0960  219.2790 C   0  0  0  0  0  0  0  0  0  0  0  0
  145.1990   68.2670  219.3310 C   0  0  0  0  0  0  0  0  0  0  0  0
  143.9290   68.8110  219.4400 C   0  0  0  0  0  0  0  0  0  0  0  0
  143.7460   70.1760  219.4960 C   0  0  0  0  0  0  0  0  0  0  0  0
  144.8240   71.0120  219.4440 C   0  0  0  0  0  0  0  0  0  0  0  0
  146.1010   70.4630  219.3350 C   0  0  0  0  0  0  0  0  0  0  0  0
  144.7430   72.4950  219.4960 C   0  0  0  0  0  0  0  0  0  0  0  0
  143.3480   72.9250  219.1510 C   0  0  0  0  0  0  0  0  0  0  0  0
  142.3810   72.1400  219.9010 N   0  0  0  0  0  0  0  0  0  0  0  0
  141.5030   72.6740  220.8620 C   0  0  0  0  0  0  0  0  0  0  0  0
  140.8500   71.9120  221.8070 C   0  0  0  0  0  0  0  0  0  0  0  0
  139.9880   72.4460  222.7460 C   0  0  0  0  0  0  0  0  0  0  0  0
  139.3390   71.6020  223.7020 N   0  0  0  0  0  0  0  0  0  0  0  0
  140.1170   70.5070  224.2330 C   0  0  2  0  0  0  0  0  0  0  0  0
  139.4020   69.2040  224.2620 C   0  0  0  0  0  0  0  0  0  0  0  0
  139.4280   68.6700  225.6700 C   0  0  0  0  0  0  0  0  0  0  0  0
  140.0680   69.7410  226.4640 C   0  0  0  0  0  0  0  0  0  0  0  0
  140.3100   69.8300  227.8170 C   0  0  0  0  0  0  0  0  0  0  0  0
  140.9230   70.9380  228.3070 C   0  0  0  0  0  0  0  0  0  0  0  0
  141.3290   72.0030  227.5240 C   0  0  0  0  0  0  0  0  0  0  0  0
  141.0860   71.9130  226.1670 C   0  0  0  0  0  0  0  0  0  0  0  0
  140.4560   70.7800  225.6440 C   0  0  0  0  0  0  0  0  0  0  0  0
  139.8020   73.7780  222.7050 N   0  0  0  0  0  0  0  0  0  0  0  0
  140.4330   74.5590  221.7830 C   0  0  0  0  0  0  0  0  0  0  0  0
  140.1740   75.9570  221.8160 N   0  0  0  0  0  0  0  0  0  0  0  0
  141.1720   76.8810  221.3150 C   0  0  0  0  0  0  0  0  0  0  0  0
  141.4310   77.8470  222.4800 C   0  0  0  0  0  0  0  0  0  0  0  0
  140.1300   78.5830  222.6380 C   0  0  0  0  0  0  0  0  0  0  0  0
  140.1510   79.9390  222.8400 C   0  0  0  0  0  0  0  0  0  0  0  0
  138.9660   80.6360  222.9890 C   0  0  0  0  0  0  0  0  0  0  0  0
  137.7880   79.9410  222.9270 C   0  0  0  0  0  0  0  0  0  0  0  0
  137.7820   78.5740  222.7220 C   0  0  0  0  0  0  0  0  0  0  0  0
  138.9670   77.8600  222.5720 C   0  0  0  0  0  0  0  0  0  0  0  0
  138.9110   76.3930  222.3540 C   0  0  0  0  0  0  0  0  0  0  0  0
  141.2640   73.9980  220.8870 N   0  0  0  0  0  0  0  0  0  0  0  0
  142.3570   70.7140  219.6140 C   0  0  0  0  0  0  0  0  0  0  0  0
  147.3089   68.6780  219.1943 H   0  0  0  0  0  0  0  0  0  0  0  0
  145.3299   67.1757  219.2862 H   0  0  0  0  0  0  0  0  0  0  0  0
  143.0551   68.1443  219.4824 H   0  0  0  0  0  0  0  0  0  0  0  0
  146.9728   71.1325  219.2927 H   0  0  0  0  0  0  0  0  0  0  0  0
  144.9951   72.8420  220.5090 H   0  0  0  0  0  0  0  0  0  0  0  0
  145.4524   72.9294  218.7762 H   0  0  0  0  0  0  0  0  0  0  0  0
  143.2237   73.9892  219.4001 H   0  0  0  0  0  0  0  0  0  0  0  0
  143.1800   72.7692  218.0751 H   0  0  0  0  0  0  0  0  0  0  0  0
  141.0235   70.8258  221.8141 H   0  0  0  0  0  0  0  0  0  0  0  0
  138.3530   71.7510  224.0150 H   0  0  0  0  0  0  0  0  0  0  0  0
  140.9871   70.4338  223.5640 H   0  0  0  0  0  0  0  0  0  0  0  0
  138.3601   69.3463  223.9393 H   0  0  0  0  0  0  0  0  0  0  0  0
  139.8928   68.4921  223.5821 H   0  0  0  0  0  0  0  0  0  0  0  0
  138.4070   68.4766  226.0308 H   0  0  0  0  0  0  0  0  0  0  0  0
  139.9699   67.7156  225.7440 H   0  0  0  0  0  0  0  0  0  0  0  0
  140.0106   69.0143  228.4916 H   0  0  0  0  0  0  0  0  0  0  0  0
  141.1074   70.9916  229.3901 H   0  0  0  0  0  0  0  0  0  0  0  0
  141.8234   72.8826  227.9621 H   0  0  0  0  0  0  0  0  0  0  0  0
  141.3881   72.7325  225.4984 H   0  0  0  0  0  0  0  0  0  0  0  0
  142.0938   76.3459  221.0429 H   0  0  0  0  0  0  0  0  0  0  0  0
  140.8354   77.4046  220.4081 H   0  0  0  0  0  0  0  0  0  0  0  0
  141.6817   77.2946  223.3976 H   0  0  0  0  0  0  0  0  0  0  0  0
  142.2788   78.5217  222.2901 H   0  0  0  0  0  0  0  0  0  0  0  0
  141.1117   80.4731  222.8836 H   0  0  0  0  0  0  0  0  0  0  0  0
  138.9697   81.7236  223.1535 H   0  0  0  0  0  0  0  0  0  0  0  0
  136.8344   80.4772  223.0418 H   0  0  0  0  0  0  0  0  0  0  0  0
  136.8214   78.0399  222.6765 H   0  0  0  0  0  0  0  0  0  0  0  0
  138.7205   75.8838  223.3103 H   0  0  0  0  0  0  0  0  0  0  0  0
  138.1004   76.1494  221.6514 H   0  0  0  0  0  0  0  0  0  0  0  0
  141.8349   70.1904  220.4284 H   0  0  0  0  0  0  0  0  0  0  0  0
  141.8333   70.5538  218.6600 H   0  0  0  0  0  0  0  0  0  0  0  0
  1  2  2  0
  2  3  1  0
  3  4  2  0
  4  5  1  0
  5  6  2  0
  5  7  1  0
  7  8  1  0
  8  9  1  0
  9 10  1  0
 10 11  2  0
 11 12  1  0
 12 13  1  0
 13 14  1  0
 14 15  1  0
 15 16  1  0
 16 17  1  0
 17 18  2  0
 18 19  1  0
 19 20  2  0
 20 21  1  0
 21 22  2  0
 12 23  2  0
 23 24  1  0
 24 25  1  0
 25 26  1  0
 26 27  1  0
 27 28  1  0
 28 29  2  0
 29 30  1  0
 30 31  2  0
 31 32  1  0
 32 33  2  0
 33 34  1  0
 24 35  2  0
  9 36  1  0
  6  1  1  0
 35 10  1  0
 36  4  1  0
 22 14  1  0
 34 25  1  0
 22 17  1  0
 33 28  1  0
  1 37  1  0
  2 38  1  0
  3 39  1  0
  6 40  1  0
  7 41  1  0
  7 42  1  0
  8 43  1  0
  8 44  1  0
 11 45  1  0
 13 46  1  0
 14 47  1  6
 15 48  1  0
 15 49  1  0
 16 50  1  0
 16 51  1  0
 18 52  1  0
 19 53  1  0
 20 54  1  0
 21 55  1  0
 26 56  1  0
 26 57  1  0
 27 58  1  0
 27 59  1  0
 29 60  1  0
 30 61  1  0
 31 62  1  0
 32 63  1  0
 34 64  1  0
 34 65  1  0
 36 66  1  0
 36 67  1  0
M  END
>  <smiles>  (42) 
c1ccc2c(c1)CCN(c1cc(N[C@@H]3CCc4ccccc43)nc(N3CCc4ccccc4C3)n1)C2

>  <score_type>  (42) 
oracle

>  <origin>  (42) 
autodockgpu

>  <m_score__min__energy>  (42) 
-11.73

>  <m_primary>  (42) 
energy

>  <rmsd>  (42) 
10.564527878811807

>  <m_score__min__rmsd>  (42) 
10.564527878811807

>  <meeko>  (42) 
{"free_energy": -10.76, "intermolecular_energy": -11.95, "internal_energy": -1.21, "cluster_size": 49, "cluster_id": 1, "rank_in_cluster": 34}

>  <energy>  (42) 
-10.27

>  <cluster_rmsd>  (42) 
1.8

>  <cluster>  (42) 
1

$$$$

     RDKit          3D

 67 73  0  0  0  0  0  0  0  0999 V2000
  140.4130   67.8910  226.0740 C   0  0  0  0  0  0  0  0  0  0  0  0
  141.2580   68.8510  226.5790 C   0  0  0  0  0  0  0  0  0  0  0  0
  141.2240   70.1370  226.0640 C   0  0  0  0  0  0  0  0  0  0  0  0
  140.3510   70.4720  225.0510 C   0  0  0  0  0  0  0  0  0  0  0  0
  139.5050   69.5300  224.5400 C   0  0  0  0  0  0  0  0  0  0  0  0
  139.5420   68.2360  225.0580 C   0  0  0  0  0  0  0  0  0  0  0  0
  138.5270   69.7790  223.4500 C   0  0  0  0  0  0  0  0  0  0  0  0
  138.2870   71.2550  223.3310 C   0  0  0  0  0  0  0  0  0  0  0  0
  139.5530   71.9700  223.3180 N   0  0  0  0  0  0  0  0  0  0  0  0
  140.0270   72.7200  222.2260 C   0  0  0  0  0  0  0  0  0  0  0  0
  140.3830   72.1640  221.0160 C   0  0  0  0  0  0  0  0  0  0  0  0
  140.8490   72.9100  219.9490 C   0  0  0  0  0  0  0  0  0  0  0  0
  141.2030   72.2750  218.7160 N   0  0  0  0  0  0  0  0  0  0  0  0
  142.5730   71.8340  218.5840 C   0  0  2  0  0  0  0  0  0  0  0  0
  142.8450   70.4950  219.1700 C   0  0  0  0  0  0  0  0  0  0  0  0
  143.9690   70.6210  220.1630 C   0  0  0  0  0  0  0  0  0  0  0  0
  144.2570   72.0710  220.2190 C   0  0  0  0  0  0  0  0  0  0  0  0
  145.1510   72.7770  220.9930 C   0  0  0  0  0  0  0  0  0  0  0  0
  145.2250   74.1260  220.8530 C   0  0  0  0  0  0  0  0  0  0  0  0
  144.4480   74.8510  219.9680 C   0  0  0  0  0  0  0  0  0  0  0  0
  143.5520   74.1420  219.1920 C   0  0  0  0  0  0  0  0  0  0  0  0
  143.4620   72.7530  219.3220 C   0  0  0  0  0  0  0  0  0  0  0  0
  140.9470   74.2380  220.1380 N   0  0  0  0  0  0  0  0  0  0  0  0
  140.6020   74.8170  221.3230 C   0  0  0  0  0  0  0  0  0  0  0  0
  140.7390   76.2280  221.4310 N   0  0  0  0  0  0  0  0  0  0  0  0
  140.5700   77.0560  220.2540 C   0  0  0  0  0  0  0  0  0  0  0  0
  141.8650   77.8740  220.1600 C   0  0  0  0  0  0  0  0  0  0  0  0
  141.8280   78.7560  221.3780 C   0  0  0  0  0  0  0  0  0  0  0  0
  142.1840   80.0750  221.2580 C   0  0  0  0  0  0  0  0  0  0  0  0
  142.1570   80.9030  222.3640 C   0  0  0  0  0  0  0  0  0  0  0  0
  141.7690   80.3740  223.5660 C   0  0  0  0  0  0  0  0  0  0  0  0
  141.4130   79.0430  223.6720 C   0  0  0  0  0  0  0  0  0  0  0  0
  141.4360   78.1980  222.5660 C   0  0  0  0  0  0  0  0  0  0  0  0
  141.0450   76.7760  222.7290 C   0  0  0  0  0  0  0  0  0  0  0  0
  140.1530   74.0550  222.3360 N   0  0  0  0  0  0  0  0  0  0  0  0
  140.3530   71.8720  224.5290 C   0  0  0  0  0  0  0  0  0  0  0  0
  140.4300   66.8657  226.4720 H   0  0  0  0  0  0  0  0  0  0  0  0
  141.9584   68.5991  227.3889 H   0  0  0  0  0  0  0  0  0  0  0  0
  141.9033   70.9014  226.4692 H   0  0  0  0  0  0  0  0  0  0  0  0
  138.8632   67.4731  224.6491 H   0  0  0  0  0  0  0  0  0  0  0  0
  138.9278   69.3936  222.5009 H   0  0  0  0  0  0  0  0  0  0  0  0
  137.5803   69.2677  223.6787 H   0  0  0  0  0  0  0  0  0  0  0  0
  137.7439   71.4607  222.3968 H   0  0  0  0  0  0  0  0  0  0  0  0
  137.6928   71.5927  224.1929 H   0  0  0  0  0  0  0  0  0  0  0  0
  140.2920   71.0747  220.8933 H   0  0  0  0  0  0  0  0  0  0  0  0
  140.5240   72.1280  217.9370 H   0  0  0  0  0  0  0  0  0  0  0  0
  142.7522   71.8043  217.4991 H   0  0  0  0  0  0  0  0  0  0  0  0
  141.9428   70.1231  219.6777 H   0  0  0  0  0  0  0  0  0  0  0  0
  143.1253   69.7883  218.3750 H   0  0  0  0  0  0  0  0  0  0  0  0
  143.6585   70.2484  221.1503 H   0  0  0  0  0  0  0  0  0  0  0  0
  144.8509   70.0316  219.8717 H   0  0  0  0  0  0  0  0  0  0  0  0
  145.7965   72.2553  221.7149 H   0  0  0  0  0  0  0  0  0  0  0  0
  145.9445   74.6734  221.4797 H   0  0  0  0  0  0  0  0  0  0  0  0
  144.5395   75.9441  219.8857 H   0  0  0  0  0  0  0  0  0  0  0  0
  142.9095   74.6700  218.4720 H   0  0  0  0  0  0  0  0  0  0  0  0
  140.4397   76.4325  219.3572 H   0  0  0  0  0  0  0  0  0  0  0  0
  139.6785   77.6968  220.3220 H   0  0  0  0  0  0  0  0  0  0  0  0
  142.7458   77.2154  220.1809 H   0  0  0  0  0  0  0  0  0  0  0  0
  141.9363   78.4476  219.2241 H   0  0  0  0  0  0  0  0  0  0  0  0
  142.4914   80.4743  220.2802 H   0  0  0  0  0  0  0  0  0  0  0  0
  142.4406   81.9625  222.2808 H   0  0  0  0  0  0  0  0  0  0  0  0
  141.7404   81.0166  224.4583 H   0  0  0  0  0  0  0  0  0  0  0  0
  141.1054   78.6433  224.6496 H   0  0  0  0  0  0  0  0  0  0  0  0
  141.8749   76.2137  223.1817 H   0  0  0  0  0  0  0  0  0  0  0  0
  140.1639   76.7027  223.3835 H   0  0  0  0  0  0  0  0  0  0  0  0
  141.3871   72.1721  224.3040 H   0  0  0  0  0  0  0  0  0  0  0  0
  139.9210   72.5351  225.2930 H   0  0  0  0  0  0  0  0  0  0  0  0
  1  2  2  0
  2  3  1  0
  3  4  2  0
  4  5  1  0
  5  6  2  0
  5  7  1  0
  7  8  1  0
  8  9  1  0
  9 10  1  0
 10 11  2  0
 11 12  1  0
 12 13  1  0
 13 14  1  0
 14 15  1  0
 15 16  1  0
 16 17  1  0
 17 18  2  0
 18 19  1  0
 19 20  2  0
 20 21  1  0
 21 22  2  0
 12 23  2  0
 23 24  1  0
 24 25  1  0
 25 26  1  0
 26 27  1  0
 27 28  1  0
 28 29  2  0
 29 30  1  0
 30 31  2  0
 31 32  1  0
 32 33  2  0
 33 34  1  0
 24 35  2  0
  9 36  1  0
  6  1  1  0
 35 10  1  0
 36  4  1  0
 22 14  1  0
 34 25  1  0
 22 17  1  0
 33 28  1  0
  1 37  1  0
  2 38  1  0
  3 39  1  0
  6 40  1  0
  7 41  1  0
  7 42  1  0
  8 43  1  0
  8 44  1  0
 11 45  1  0
 13 46  1  0
 14 47  1  6
 15 48  1  0
 15 49  1  0
 16 50  1  0
 16 51  1  0
 18 52  1  0
 19 53  1  0
 20 54  1  0
 21 55  1  0
 26 56  1  0
 26 57  1  0
 27 58  1  0
 27 59  1  0
 29 60  1  0
 30 61  1  0
 31 62  1  0
 32 63  1  0
 34 64  1  0
 34 65  1  0
 36 66  1  0
 36 67  1  0
M  END
>  <smiles>  (43) 
c1ccc2c(c1)CCN(c1cc(N[C@@H]3CCc4ccccc43)nc(N3CCc4ccccc4C3)n1)C2

>  <score_type>  (43) 
oracle

>  <origin>  (43) 
autodockgpu

>  <m_score__min__energy>  (43) 
-11.73

>  <m_primary>  (43) 
energy

>  <rmsd>  (43) 
8.819172339157674

>  <m_score__min__rmsd>  (43) 
8.819172339157674

>  <meeko>  (43) 
{"free_energy": -10.26, "intermolecular_energy": -11.45, "internal_energy": -1.79, "cluster_size": 49, "cluster_id": 1, "rank_in_cluster": 43}

>  <energy>  (43) 
-10.26

>  <cluster_rmsd>  (43) 
1.8

>  <cluster>  (43) 
1

$$$$

     RDKit          3D

 67 73  0  0  0  0  0  0  0  0999 V2000
  146.3270   68.6020  219.3260 C   0  0  0  0  0  0  0  0  0  0  0  0
  145.1650   67.8710  219.4150 C   0  0  0  0  0  0  0  0  0  0  0  0
  143.9440   68.5240  219.4660 C   0  0  0  0  0  0  0  0  0  0  0  0
  143.8740   69.9000  219.4290 C   0  0  0  0  0  0  0  0  0  0  0  0
  145.0190   70.6400  219.3400 C   0  0  0  0  0  0  0  0  0  0  0  0
  146.2470   69.9810  219.2890 C   0  0  0  0  0  0  0  0  0  0  0  0
  145.0610   72.1240  219.2930 C   0  0  0  0  0  0  0  0  0  0  0  0
  143.7100   72.6430  218.8980 C   0  0  0  0  0  0  0  0  0  0  0  0
  142.6730   71.9920  219.6810 N   0  0  0  0  0  0  0  0  0  0  0  0
  141.8310   72.6610  220.5900 C   0  0  0  0  0  0  0  0  0  0  0  0
  141.0260   72.0130  221.5010 C   0  0  0  0  0  0  0  0  0  0  0  0
  140.2010   72.6780  222.3890 C   0  0  0  0  0  0  0  0  0  0  0  0
  139.3870   71.9490  223.3130 N   0  0  0  0  0  0  0  0  0  0  0  0
  139.9390   70.7200  223.8330 C   0  0  2  0  0  0  0  0  0  0  0  0
  139.0020   69.5650  223.8020 C   0  0  0  0  0  0  0  0  0  0  0  0
  138.8850   69.0010  225.1930 C   0  0  0  0  0  0  0  0  0  0  0  0
  139.6780   69.9190  226.0370 C   0  0  0  0  0  0  0  0  0  0  0  0
  139.8860   69.9300  227.3980 C   0  0  0  0  0  0  0  0  0  0  0  0
  140.6710   70.8970  227.9400 C   0  0  0  0  0  0  0  0  0  0  0  0
  141.2870   71.8910  227.2010 C   0  0  0  0  0  0  0  0  0  0  0  0
  141.0780   71.8800  225.8360 C   0  0  0  0  0  0  0  0  0  0  0  0
  140.2730   70.8920  225.2600 C   0  0  0  0  0  0  0  0  0  0  0  0
  140.2120   74.0220  222.3310 N   0  0  0  0  0  0  0  0  0  0  0  0
  140.9980   74.6910  221.4410 C   0  0  0  0  0  0  0  0  0  0  0  0
  140.9430   76.1120  221.4520 N   0  0  0  0  0  0  0  0  0  0  0  0
  140.7640   76.8310  220.2070 C   0  0  0  0  0  0  0  0  0  0  0  0
  141.9470   77.8070  220.1430 C   0  0  0  0  0  0  0  0  0  0  0  0
  141.6990   78.7540  221.2850 C   0  0  0  0  0  0  0  0  0  0  0  0
  141.8910   80.0980  221.0920 C   0  0  0  0  0  0  0  0  0  0  0  0
  141.6690   80.9860  222.1280 C   0  0  0  0  0  0  0  0  0  0  0  0
  141.2570   80.4890  223.3350 C   0  0  0  0  0  0  0  0  0  0  0  0
  141.0670   79.1320  223.5160 C   0  0  0  0  0  0  0  0  0  0  0  0
  141.2870   78.2270  222.4820 C   0  0  0  0  0  0  0  0  0  0  0  0
  141.0710   76.7790  222.7230 C   0  0  0  0  0  0  0  0  0  0  0  0
  141.7850   74.0050  220.5940 N   0  0  0  0  0  0  0  0  0  0  0  0
  142.5330   70.5570  219.4880 C   0  0  0  0  0  0  0  0  0  0  0  0
  147.3035   68.0972  219.2850 H   0  0  0  0  0  0  0  0  0  0  0  0
  145.2050   66.7722  219.4455 H   0  0  0  0  0  0  0  0  0  0  0  0
  143.0172   67.9358  219.5371 H   0  0  0  0  0  0  0  0  0  0  0  0
  147.1721   70.5719  219.2178 H   0  0  0  0  0  0  0  0  0  0  0  0
  145.3303   72.5161  220.2848 H   0  0  0  0  0  0  0  0  0  0  0  0
  145.8116   72.4496  218.5578 H   0  0  0  0  0  0  0  0  0  0  0  0
  143.6717   73.7280  219.0751 H   0  0  0  0  0  0  0  0  0  0  0  0
  143.5416   72.4300  217.8320 H   0  0  0  0  0  0  0  0  0  0  0  0
  141.0403   70.9133  221.5230 H   0  0  0  0  0  0  0  0  0  0  0  0
  138.4390   72.2700  223.6110 H   0  0  0  0  0  0  0  0  0  0  0  0
  140.8044   70.5095  223.1874 H   0  0  0  0  0  0  0  0  0  0  0  0
  138.0136   69.8994  223.4538 H   0  0  0  0  0  0  0  0  0  0  0  0
  139.3806   68.7935  223.1154 H   0  0  0  0  0  0  0  0  0  0  0  0
  137.8343   68.9850  225.5181 H   0  0  0  0  0  0  0  0  0  0  0  0
  139.2454   67.9635  225.2535 H   0  0  0  0  0  0  0  0  0  0  0  0
  139.4223   69.1653  228.0384 H   0  0  0  0  0  0  0  0  0  0  0  0
  140.8258   70.8892  229.0290 H   0  0  0  0  0  0  0  0  0  0  0  0
  141.9156   72.6564  227.6796 H   0  0  0  0  0  0  0  0  0  0  0  0
  141.5446   72.6482  225.2018 H   0  0  0  0  0  0  0  0  0  0  0  0
  140.7868   76.1382  219.3529 H   0  0  0  0  0  0  0  0  0  0  0  0
  139.7952   77.3501  220.1634 H   0  0  0  0  0  0  0  0  0  0  0  0
  142.9006   77.2750  220.2761 H   0  0  0  0  0  0  0  0  0  0  0  0
  142.0192   78.3220  219.1737 H   0  0  0  0  0  0  0  0  0  0  0  0
  142.2222   80.4701  220.1113 H   0  0  0  0  0  0  0  0  0  0  0  0
  141.8199   82.0663  221.9858 H   0  0  0  0  0  0  0  0  0  0  0  0
  141.0747   81.1789  224.1722 H   0  0  0  0  0  0  0  0  0  0  0  0
  140.7354   78.7601  224.4967 H   0  0  0  0  0  0  0  0  0  0  0  0
  141.9277   76.3638  223.2740 H   0  0  0  0  0  0  0  0  0  0  0  0
  140.1573   76.6307  223.3173 H   0  0  0  0  0  0  0  0  0  0  0  0
  141.9599   70.1339  220.3262 H   0  0  0  0  0  0  0  0  0  0  0  0
  142.0082   70.3768  218.5382 H   0  0  0  0  0  0  0  0  0  0  0  0
  1  2  2  0
  2  3  1  0
  3  4  2  0
  4  5  1  0
  5  6  2  0
  5  7  1  0
  7  8  1  0
  8  9  1  0
  9 10  1  0
 10 11  2  0
 11 12  1  0
 12 13  1  0
 13 14  1  0
 14 15  1  0
 15 16  1  0
 16 17  1  0
 17 18  2  0
 18 19  1  0
 19 20  2  0
 20 21  1  0
 21 22  2  0
 12 23  2  0
 23 24  1  0
 24 25  1  0
 25 26  1  0
 26 27  1  0
 27 28  1  0
 28 29  2  0
 29 30  1  0
 30 31  2  0
 31 32  1  0
 32 33  2  0
 33 34  1  0
 24 35  2  0
  9 36  1  0
  6  1  1  0
 35 10  1  0
 36  4  1  0
 22 14  1  0
 34 25  1  0
 22 17  1  0
 33 28  1  0
  1 37  1  0
  2 38  1  0
  3 39  1  0
  6 40  1  0
  7 41  1  0
  7 42  1  0
  8 43  1  0
  8 44  1  0
 11 45  1  0
 13 46  1  0
 14 47  1  6
 15 48  1  0
 15 49  1  0
 16 50  1  0
 16 51  1  0
 18 52  1  0
 19 53  1  0
 20 54  1  0
 21 55  1  0
 26 56  1  0
 26 57  1  0
 27 58  1  0
 27 59  1  0
 29 60  1  0
 30 61  1  0
 31 62  1  0
 32 63  1  0
 34 64  1  0
 34 65  1  0
 36 66  1  0
 36 67  1  0
M  END
>  <smiles>  (44) 
c1ccc2c(c1)CCN(c1cc(N[C@@H]3CCc4ccccc43)nc(N3CCc4ccccc4C3)n1)C2

>  <score_type>  (44) 
oracle

>  <origin>  (44) 
autodockgpu

>  <m_score__min__energy>  (44) 
-11.73

>  <m_primary>  (44) 
energy

>  <rmsd>  (44) 
10.337040793478542

>  <m_score__min__rmsd>  (44) 
10.337040793478542

>  <meeko>  (44) 
{"free_energy": -11.7, "intermolecular_energy": -12.9, "internal_energy": -1.22, "cluster_size": 49, "cluster_id": 1, "rank_in_cluster": 16}

>  <energy>  (44) 
-10.26

>  <cluster_rmsd>  (44) 
1.8

>  <cluster>  (44) 
1

$$$$

     RDKit          3D

 67 73  0  0  0  0  0  0  0  0999 V2000
  146.3360   68.4970  219.3430 C   0  0  0  0  0  0  0  0  0  0  0  0
  145.1750   67.7720  219.4630 C   0  0  0  0  0  0  0  0  0  0  0  0
  143.9560   68.4300  219.5210 C   0  0  0  0  0  0  0  0  0  0  0  0
  143.8890   69.8060  219.4590 C   0  0  0  0  0  0  0  0  0  0  0  0
  145.0350   70.5390  219.3380 C   0  0  0  0  0  0  0  0  0  0  0  0
  146.2600   69.8760  219.2810 C   0  0  0  0  0  0  0  0  0  0  0  0
  145.0800   72.0220  219.2630 C   0  0  0  0  0  0  0  0  0  0  0  0
  143.7250   72.5380  218.8780 C   0  0  0  0  0  0  0  0  0  0  0  0
  142.6990   71.9060  219.6890 N   0  0  0  0  0  0  0  0  0  0  0  0
  141.8730   72.5940  220.5980 C   0  0  0  0  0  0  0  0  0  0  0  0
  141.0790   71.9660  221.5340 C   0  0  0  0  0  0  0  0  0  0  0  0
  140.2700   72.6500  222.4210 C   0  0  0  0  0  0  0  0  0  0  0  0
  139.4670   71.9420  223.3710 N   0  0  0  0  0  0  0  0  0  0  0  0
  140.0160   70.7130  223.8950 C   0  0  2  0  0  0  0  0  0  0  0  0
  139.0950   69.5490  223.8210 C   0  0  0  0  0  0  0  0  0  0  0  0
  138.9410   68.9680  225.2020 C   0  0  0  0  0  0  0  0  0  0  0  0
  139.6960   69.8860  226.0810 C   0  0  0  0  0  0  0  0  0  0  0  0
  139.8600   69.8830  227.4480 C   0  0  0  0  0  0  0  0  0  0  0  0
  140.6160   70.8540  228.0240 C   0  0  0  0  0  0  0  0  0  0  0  0
  141.2430   71.8630  227.3160 C   0  0  0  0  0  0  0  0  0  0  0  0
  141.0780   71.8650  225.9450 C   0  0  0  0  0  0  0  0  0  0  0  0
  140.3040   70.8740  225.3340 C   0  0  0  0  0  0  0  0  0  0  0  0
  140.2850   73.9930  222.3380 N   0  0  0  0  0  0  0  0  0  0  0  0
  141.0600   74.6430  221.4240 C   0  0  0  0  0  0  0  0  0  0  0  0
  141.0100   76.0640  221.4100 N   0  0  0  0  0  0  0  0  0  0  0  0
  140.9290   76.7650  220.1440 C   0  0  0  0  0  0  0  0  0  0  0  0
  142.1180   77.7360  220.1560 C   0  0  0  0  0  0  0  0  0  0  0  0
  141.7870   78.7010  221.2620 C   0  0  0  0  0  0  0  0  0  0  0  0
  141.9990   80.0410  221.0630 C   0  0  0  0  0  0  0  0  0  0  0  0
  141.7030   80.9450  222.0660 C   0  0  0  0  0  0  0  0  0  0  0  0
  141.1980   80.4680  223.2460 C   0  0  0  0  0  0  0  0  0  0  0  0
  140.9890   79.1150  223.4320 C   0  0  0  0  0  0  0  0  0  0  0  0
  141.2840   78.1940  222.4310 C   0  0  0  0  0  0  0  0  0  0  0  0
  141.0430   76.7500  222.6770 C   0  0  0  0  0  0  0  0  0  0  0  0
  141.8320   73.9390  220.5790 N   0  0  0  0  0  0  0  0  0  0  0  0
  142.5520   70.4680  219.5260 C   0  0  0  0  0  0  0  0  0  0  0  0
  147.3103   67.9884  219.2970 H   0  0  0  0  0  0  0  0  0  0  0  0
  145.2125   66.6738  219.5129 H   0  0  0  0  0  0  0  0  0  0  0  0
  143.0289   67.8460  219.6179 H   0  0  0  0  0  0  0  0  0  0  0  0
  147.1856   70.4624  219.1847 H   0  0  0  0  0  0  0  0  0  0  0  0
  145.3646   72.4315  220.2435 H   0  0  0  0  0  0  0  0  0  0  0  0
  145.8206   72.3316  218.5109 H   0  0  0  0  0  0  0  0  0  0  0  0
  143.6927   73.6264  219.0343 H   0  0  0  0  0  0  0  0  0  0  0  0
  143.5397   72.3053  217.8190 H   0  0  0  0  0  0  0  0  0  0  0  0
  141.0901   70.8669  221.5767 H   0  0  0  0  0  0  0  0  0  0  0  0
  138.5290   72.2770  223.6830 H   0  0  0  0  0  0  0  0  0  0  0  0
  140.9035   70.5182  223.2750 H   0  0  0  0  0  0  0  0  0  0  0  0
  138.1142   69.8761  223.4453 H   0  0  0  0  0  0  0  0  0  0  0  0
  139.5038   68.7899  223.1379 H   0  0  0  0  0  0  0  0  0  0  0  0
  137.8808   68.9360  225.4935 H   0  0  0  0  0  0  0  0  0  0  0  0
  139.3120   67.9342  225.2626 H   0  0  0  0  0  0  0  0  0  0  0  0
  139.3858   69.1056  228.0650 H   0  0  0  0  0  0  0  0  0  0  0  0
  140.7363   70.8365  229.1173 H   0  0  0  0  0  0  0  0  0  0  0  0
  141.8467   72.6303  227.8227 H   0  0  0  0  0  0  0  0  0  0  0  0
  141.5551   72.6456  225.3342 H   0  0  0  0  0  0  0  0  0  0  0  0
  141.0135   76.0594  219.3044 H   0  0  0  0  0  0  0  0  0  0  0  0
  139.9686   77.2865  220.0191 H   0  0  0  0  0  0  0  0  0  0  0  0
  143.0562   77.2030  220.3696 H   0  0  0  0  0  0  0  0  0  0  0  0
  142.2668   78.2360  219.1876 H   0  0  0  0  0  0  0  0  0  0  0  0
  142.4049   80.3969  220.1046 H   0  0  0  0  0  0  0  0  0  0  0  0
  141.8693   82.0225  221.9196 H   0  0  0  0  0  0  0  0  0  0  0  0
  140.9556   81.1712  224.0564 H   0  0  0  0  0  0  0  0  0  0  0  0
  140.5816   78.7588  224.3897 H   0  0  0  0  0  0  0  0  0  0  0  0
  141.8528   76.3403  223.2986 H   0  0  0  0  0  0  0  0  0  0  0  0
  140.0857   76.6141  223.2015 H   0  0  0  0  0  0  0  0  0  0  0  0
  141.9908   70.0630  220.3810 H   0  0  0  0  0  0  0  0  0  0  0  0
  142.0121   70.2713  218.5880 H   0  0  0  0  0  0  0  0  0  0  0  0
  1  2  2  0
  2  3  1  0
  3  4  2  0
  4  5  1  0
  5  6  2  0
  5  7  1  0
  7  8  1  0
  8  9  1  0
  9 10  1  0
 10 11  2  0
 11 12  1  0
 12 13  1  0
 13 14  1  0
 14 15  1  0
 15 16  1  0
 16 17  1  0
 17 18  2  0
 18 19  1  0
 19 20  2  0
 20 21  1  0
 21 22  2  0
 12 23  2  0
 23 24  1  0
 24 25  1  0
 25 26  1  0
 26 27  1  0
 27 28  1  0
 28 29  2  0
 29 30  1  0
 30 31  2  0
 31 32  1  0
 32 33  2  0
 33 34  1  0
 24 35  2  0
  9 36  1  0
  6  1  1  0
 35 10  1  0
 36  4  1  0
 22 14  1  0
 34 25  1  0
 22 17  1  0
 33 28  1  0
  1 37  1  0
  2 38  1  0
  3 39  1  0
  6 40  1  0
  7 41  1  0
  7 42  1  0
  8 43  1  0
  8 44  1  0
 11 45  1  0
 13 46  1  0
 14 47  1  6
 15 48  1  0
 15 49  1  0
 16 50  1  0
 16 51  1  0
 18 52  1  0
 19 53  1  0
 20 54  1  0
 21 55  1  0
 26 56  1  0
 26 57  1  0
 27 58  1  0
 27 59  1  0
 29 60  1  0
 30 61  1  0
 31 62  1  0
 32 63  1  0
 34 64  1  0
 34 65  1  0
 36 66  1  0
 36 67  1  0
M  END
>  <smiles>  (45) 
c1ccc2c(c1)CCN(c1cc(N[C@@H]3CCc4ccccc43)nc(N3CCc4ccccc4C3)n1)C2

>  <score_type>  (45) 
oracle

>  <origin>  (45) 
autodockgpu

>  <m_score__min__energy>  (45) 
-11.73

>  <m_primary>  (45) 
energy

>  <rmsd>  (45) 
10.375079891227701

>  <m_score__min__rmsd>  (45) 
10.375079891227701

>  <meeko>  (45) 
{"free_energy": -11.69, "intermolecular_energy": -12.89, "internal_energy": -1.21, "cluster_size": 49, "cluster_id": 1, "rank_in_cluster": 24}

>  <energy>  (45) 
-10.26

>  <cluster_rmsd>  (45) 
1.8

>  <cluster>  (45) 
1

$$$$

     RDKit          3D

 67 73  0  0  0  0  0  0  0  0999 V2000
  146.2930   68.4920  219.3660 C   0  0  0  0  0  0  0  0  0  0  0  0
  145.1180   67.7840  219.4570 C   0  0  0  0  0  0  0  0  0  0  0  0
  143.9090   68.4590  219.5040 C   0  0  0  0  0  0  0  0  0  0  0  0
  143.8640   69.8370  219.4600 C   0  0  0  0  0  0  0  0  0  0  0  0
  145.0230   70.5540  219.3690 C   0  0  0  0  0  0  0  0  0  0  0  0
  146.2380   69.8720  219.3220 C   0  0  0  0  0  0  0  0  0  0  0  0
  145.0920   72.0370  219.3150 C   0  0  0  0  0  0  0  0  0  0  0  0
  143.7520   72.5790  218.9160 C   0  0  0  0  0  0  0  0  0  0  0  0
  142.7020   71.9520  219.7010 N   0  0  0  0  0  0  0  0  0  0  0  0
  141.8720   72.6400  220.6060 C   0  0  0  0  0  0  0  0  0  0  0  0
  141.0720   72.0120  221.5360 C   0  0  0  0  0  0  0  0  0  0  0  0
  140.2580   72.6960  222.4200 C   0  0  0  0  0  0  0  0  0  0  0  0
  139.4490   71.9880  223.3630 N   0  0  0  0  0  0  0  0  0  0  0  0
  139.9940   70.7580  223.8900 C   0  0  2  0  0  0  0  0  0  0  0  0
  139.0750   69.5920  223.8010 C   0  0  0  0  0  0  0  0  0  0  0  0
  138.9050   69.0060  225.1770 C   0  0  0  0  0  0  0  0  0  0  0  0
  139.6480   69.9220  226.0690 C   0  0  0  0  0  0  0  0  0  0  0  0
  139.7950   69.9160  227.4380 C   0  0  0  0  0  0  0  0  0  0  0  0
  140.5420   70.8850  228.0260 C   0  0  0  0  0  0  0  0  0  0  0  0
  141.1760   71.8980  227.3300 C   0  0  0  0  0  0  0  0  0  0  0  0
  141.0280   71.9040  225.9570 C   0  0  0  0  0  0  0  0  0  0  0  0
  140.2630   70.9140  225.3320 C   0  0  0  0  0  0  0  0  0  0  0  0
  140.2760   74.0390  222.3380 N   0  0  0  0  0  0  0  0  0  0  0  0
  141.0570   74.6890  221.4300 C   0  0  0  0  0  0  0  0  0  0  0  0
  141.0100   76.1100  221.4170 N   0  0  0  0  0  0  0  0  0  0  0  0
  140.9660   76.8130  220.1510 C   0  0  0  0  0  0  0  0  0  0  0  0
  142.1550   77.7830  220.2000 C   0  0  0  0  0  0  0  0  0  0  0  0
  141.7940   78.7460  221.2980 C   0  0  0  0  0  0  0  0  0  0  0  0
  142.0130   80.0860  221.1090 C   0  0  0  0  0  0  0  0  0  0  0  0
  141.6890   80.9890  222.1040 C   0  0  0  0  0  0  0  0  0  0  0  0
  141.1500   80.5100  223.2680 C   0  0  0  0  0  0  0  0  0  0  0  0
  140.9340   79.1560  223.4450 C   0  0  0  0  0  0  0  0  0  0  0  0
  141.2560   78.2370  222.4510 C   0  0  0  0  0  0  0  0  0  0  0  0
  141.0070   76.7930  222.6860 C   0  0  0  0  0  0  0  0  0  0  0  0
  141.8330   73.9850  220.5880 N   0  0  0  0  0  0  0  0  0  0  0  0
  142.5360   70.5190  219.5150 C   0  0  0  0  0  0  0  0  0  0  0  0
  147.2600   67.9690  219.3289 H   0  0  0  0  0  0  0  0  0  0  0  0
  145.1377   66.6847  219.4924 H   0  0  0  0  0  0  0  0  0  0  0  0
  142.9717   67.8880  219.5774 H   0  0  0  0  0  0  0  0  0  0  0  0
  147.1739   70.4453  219.2483 H   0  0  0  0  0  0  0  0  0  0  0  0
  145.3672   72.4288  220.3053 H   0  0  0  0  0  0  0  0  0  0  0  0
  145.8492   72.3451  218.5790 H   0  0  0  0  0  0  0  0  0  0  0  0
  143.7340   73.6654  219.0874 H   0  0  0  0  0  0  0  0  0  0  0  0
  143.5807   72.3634  217.8510 H   0  0  0  0  0  0  0  0  0  0  0  0
  141.0815   70.9128  221.5771 H   0  0  0  0  0  0  0  0  0  0  0  0
  138.5090   72.3230  223.6700 H   0  0  0  0  0  0  0  0  0  0  0  0
  140.8897   70.5673  223.2806 H   0  0  0  0  0  0  0  0  0  0  0  0
  138.0984   69.9190  223.4146 H   0  0  0  0  0  0  0  0  0  0  0  0
  139.4934   68.8358  223.1204 H   0  0  0  0  0  0  0  0  0  0  0  0
  137.8413   68.9714  225.4553 H   0  0  0  0  0  0  0  0  0  0  0  0
  139.2768   67.9725  225.2383 H   0  0  0  0  0  0  0  0  0  0  0  0
  139.3137   69.1366  228.0470 H   0  0  0  0  0  0  0  0  0  0  0  0
  140.6494   70.8632  229.1205 H   0  0  0  0  0  0  0  0  0  0  0  0
  141.7716   72.6648  227.8470 H   0  0  0  0  0  0  0  0  0  0  0  0
  141.5117   72.6873  225.3550 H   0  0  0  0  0  0  0  0  0  0  0  0
  141.0745   76.1090  219.3128 H   0  0  0  0  0  0  0  0  0  0  0  0
  140.0099   77.3352  219.9989 H   0  0  0  0  0  0  0  0  0  0  0  0
  143.0861   77.2484  220.4392 H   0  0  0  0  0  0  0  0  0  0  0  0
  142.3316   78.2853  219.2374 H   0  0  0  0  0  0  0  0  0  0  0  0
  142.4474   80.4433  220.1637 H   0  0  0  0  0  0  0  0  0  0  0  0
  141.8600   82.0666  221.9641 H   0  0  0  0  0  0  0  0  0  0  0  0
  140.8854   81.2117  224.0728 H   0  0  0  0  0  0  0  0  0  0  0  0
  140.4992   78.7982  224.3899 H   0  0  0  0  0  0  0  0  0  0  0  0
  141.7982   76.3811  223.3297 H   0  0  0  0  0  0  0  0  0  0  0  0
  140.0348   76.6567  223.1822 H   0  0  0  0  0  0  0  0  0  0  0  0
  141.9547   70.1107  220.3549 H   0  0  0  0  0  0  0  0  0  0  0  0
  142.0087   70.3441  218.5656 H   0  0  0  0  0  0  0  0  0  0  0  0
  1  2  2  0
  2  3  1  0
  3  4  2  0
  4  5  1  0
  5  6  2  0
  5  7  1  0
  7  8  1  0
  8  9  1  0
  9 10  1  0
 10 11  2  0
 11 12  1  0
 12 13  1  0
 13 14  1  0
 14 15  1  0
 15 16  1  0
 16 17  1  0
 17 18  2  0
 18 19  1  0
 19 20  2  0
 20 21  1  0
 21 22  2  0
 12 23  2  0
 23 24  1  0
 24 25  1  0
 25 26  1  0
 26 27  1  0
 27 28  1  0
 28 29  2  0
 29 30  1  0
 30 31  2  0
 31 32  1  0
 32 33  2  0
 33 34  1  0
 24 35  2  0
  9 36  1  0
  6  1  1  0
 35 10  1  0
 36  4  1  0
 22 14  1  0
 34 25  1  0
 22 17  1  0
 33 28  1  0
  1 37  1  0
  2 38  1  0
  3 39  1  0
  6 40  1  0
  7 41  1  0
  7 42  1  0
  8 43  1  0
  8 44  1  0
 11 45  1  0
 13 46  1  0
 14 47  1  6
 15 48  1  0
 15 49  1  0
 16 50  1  0
 16 51  1  0
 18 52  1  0
 19 53  1  0
 20 54  1  0
 21 55  1  0
 26 56  1  0
 26 57  1  0
 27 58  1  0
 27 59  1  0
 29 60  1  0
 30 61  1  0
 31 62  1  0
 32 63  1  0
 34 64  1  0
 34 65  1  0
 36 66  1  0
 36 67  1  0
M  END
>  <smiles>  (46) 
c1ccc2c(c1)CCN(c1cc(N[C@@H]3CCc4ccccc43)nc(N3CCc4ccccc4C3)n1)C2

>  <score_type>  (46) 
oracle

>  <origin>  (46) 
autodockgpu

>  <m_score__min__energy>  (46) 
-11.73

>  <m_primary>  (46) 
energy

>  <rmsd>  (46) 
10.34132682120186

>  <m_score__min__rmsd>  (46) 
10.34132682120186

>  <meeko>  (46) 
{"free_energy": -11.67, "intermolecular_energy": -12.87, "internal_energy": -1.2, "cluster_size": 49, "cluster_id": 1, "rank_in_cluster": 29}

>  <energy>  (46) 
-10.25

>  <cluster_rmsd>  (46) 
1.79

>  <cluster>  (46) 
1

$$$$

     RDKit          3D

 67 73  0  0  0  0  0  0  0  0999 V2000
  140.4270   67.9050  226.0910 C   0  0  0  0  0  0  0  0  0  0  0  0
  141.2700   68.8690  226.5930 C   0  0  0  0  0  0  0  0  0  0  0  0
  141.2320   70.1540  226.0740 C   0  0  0  0  0  0  0  0  0  0  0  0
  140.3580   70.4820  225.0590 C   0  0  0  0  0  0  0  0  0  0  0  0
  139.5140   69.5360  224.5510 C   0  0  0  0  0  0  0  0  0  0  0  0
  139.5550   68.2440  225.0750 C   0  0  0  0  0  0  0  0  0  0  0  0
  138.5350   69.7790  223.4610 C   0  0  0  0  0  0  0  0  0  0  0  0
  138.2910   71.2540  223.3370 C   0  0  0  0  0  0  0  0  0  0  0  0
  139.5550   71.9720  223.3220 N   0  0  0  0  0  0  0  0  0  0  0  0
  140.0260   72.7200  222.2260 C   0  0  0  0  0  0  0  0  0  0  0  0
  140.3840   72.1610  221.0180 C   0  0  0  0  0  0  0  0  0  0  0  0
  140.8480   72.9040  219.9490 C   0  0  0  0  0  0  0  0  0  0  0  0
  141.2050   72.2660  218.7190 N   0  0  0  0  0  0  0  0  0  0  0  0
  142.5760   71.8300  218.5890 C   0  0  2  0  0  0  0  0  0  0  0  0
  142.8530   70.4940  219.1810 C   0  0  0  0  0  0  0  0  0  0  0  0
  143.9780   70.6310  220.1730 C   0  0  0  0  0  0  0  0  0  0  0  0
  144.2600   72.0820  220.2210 C   0  0  0  0  0  0  0  0  0  0  0  0
  145.1510   72.7960  220.9910 C   0  0  0  0  0  0  0  0  0  0  0  0
  145.2190   74.1440  220.8430 C   0  0  0  0  0  0  0  0  0  0  0  0
  144.4400   74.8620  219.9550 C   0  0  0  0  0  0  0  0  0  0  0  0
  143.5460   74.1450  219.1830 C   0  0  0  0  0  0  0  0  0  0  0  0
  143.4610   72.7560  219.3200 C   0  0  0  0  0  0  0  0  0  0  0  0
  140.9410   74.2330  220.1330 N   0  0  0  0  0  0  0  0  0  0  0  0
  140.5940   74.8150  221.3160 C   0  0  0  0  0  0  0  0  0  0  0  0
  140.7260   76.2280  221.4190 N   0  0  0  0  0  0  0  0  0  0  0  0
  140.5450   77.0510  220.2400 C   0  0  0  0  0  0  0  0  0  0  0  0
  141.8370   77.8740  220.1350 C   0  0  0  0  0  0  0  0  0  0  0  0
  141.8040   78.7590  221.3500 C   0  0  0  0  0  0  0  0  0  0  0  0
  142.1540   80.0790  221.2240 C   0  0  0  0  0  0  0  0  0  0  0  0
  142.1310   80.9110  222.3280 C   0  0  0  0  0  0  0  0  0  0  0  0
  141.7530   80.3840  223.5330 C   0  0  0  0  0  0  0  0  0  0  0  0
  141.4030   79.0520  223.6460 C   0  0  0  0  0  0  0  0  0  0  0  0
  141.4220   78.2040  222.5430 C   0  0  0  0  0  0  0  0  0  0  0  0
  141.0380   76.7800  222.7130 C   0  0  0  0  0  0  0  0  0  0  0  0
  140.1480   74.0560  222.3310 N   0  0  0  0  0  0  0  0  0  0  0  0
  140.3550   71.8810  224.5320 C   0  0  0  0  0  0  0  0  0  0  0  0
  140.4470   66.8809  226.4921 H   0  0  0  0  0  0  0  0  0  0  0  0
  141.9716   68.6213  227.4032 H   0  0  0  0  0  0  0  0  0  0  0  0
  141.9081   70.9223  226.4773 H   0  0  0  0  0  0  0  0  0  0  0  0
  138.8776   67.4778  224.6699 H   0  0  0  0  0  0  0  0  0  0  0  0
  138.9362   69.3915  222.5129 H   0  0  0  0  0  0  0  0  0  0  0  0
  137.5897   69.2661  223.6921 H   0  0  0  0  0  0  0  0  0  0  0  0
  137.7476   71.4551  222.4020 H   0  0  0  0  0  0  0  0  0  0  0  0
  137.6956   71.5931  224.1975 H   0  0  0  0  0  0  0  0  0  0  0  0
  140.2962   71.0710  220.8991 H   0  0  0  0  0  0  0  0  0  0  0  0
  140.5260   72.1130  217.9400 H   0  0  0  0  0  0  0  0  0  0  0  0
  142.7555   71.7953  217.5043 H   0  0  0  0  0  0  0  0  0  0  0  0
  141.9527   70.1210  219.6911 H   0  0  0  0  0  0  0  0  0  0  0  0
  143.1346   69.7838  218.3896 H   0  0  0  0  0  0  0  0  0  0  0  0
  143.6699   70.2626  221.1626 H   0  0  0  0  0  0  0  0  0  0  0  0
  144.8622   70.0440  219.8839 H   0  0  0  0  0  0  0  0  0  0  0  0
  145.7987   72.2813  221.7160 H   0  0  0  0  0  0  0  0  0  0  0  0
  145.9364   74.6975  221.4667 H   0  0  0  0  0  0  0  0  0  0  0  0
  144.5279   75.9549  219.8669 H   0  0  0  0  0  0  0  0  0  0  0  0
  142.9012   74.6669  218.4606 H   0  0  0  0  0  0  0  0  0  0  0  0
  140.4112   76.4238  219.3463 H   0  0  0  0  0  0  0  0  0  0  0  0
  139.6511   77.6881  220.3112 H   0  0  0  0  0  0  0  0  0  0  0  0
  142.7205   77.2189  220.1523 H   0  0  0  0  0  0  0  0  0  0  0  0
  141.9004   78.4449  219.1969 H   0  0  0  0  0  0  0  0  0  0  0  0
  142.4535   80.4765  220.2430 H   0  0  0  0  0  0  0  0  0  0  0  0
  142.4099   81.9714  222.2398 H   0  0  0  0  0  0  0  0  0  0  0  0
  141.7274   81.0293  224.4235 H   0  0  0  0  0  0  0  0  0  0  0  0
  141.1036   78.6544  224.6269 H   0  0  0  0  0  0  0  0  0  0  0  0
  141.8733   76.2224  223.1617 H   0  0  0  0  0  0  0  0  0  0  0  0
  140.1619   76.7044  223.3739 H   0  0  0  0  0  0  0  0  0  0  0  0
  141.3880   72.1839  224.3056 H   0  0  0  0  0  0  0  0  0  0  0  0
  139.9210   72.5452  225.2939 H   0  0  0  0  0  0  0  0  0  0  0  0
  1  2  2  0
  2  3  1  0
  3  4  2  0
  4  5  1  0
  5  6  2  0
  5  7  1  0
  7  8  1  0
  8  9  1  0
  9 10  1  0
 10 11  2  0
 11 12  1  0
 12 13  1  0
 13 14  1  0
 14 15  1  0
 15 16  1  0
 16 17  1  0
 17 18  2  0
 18 19  1  0
 19 20  2  0
 20 21  1  0
 21 22  2  0
 12 23  2  0
 23 24  1  0
 24 25  1  0
 25 26  1  0
 26 27  1  0
 27 28  1  0
 28 29  2  0
 29 30  1  0
 30 31  2  0
 31 32  1  0
 32 33  2  0
 33 34  1  0
 24 35  2  0
  9 36  1  0
  6  1  1  0
 35 10  1  0
 36  4  1  0
 22 14  1  0
 34 25  1  0
 22 17  1  0
 33 28  1  0
  1 37  1  0
  2 38  1  0
  3 39  1  0
  6 40  1  0
  7 41  1  0
  7 42  1  0
  8 43  1  0
  8 44  1  0
 11 45  1  0
 13 46  1  0
 14 47  1  6
 15 48  1  0
 15 49  1  0
 16 50  1  0
 16 51  1  0
 18 52  1  0
 19 53  1  0
 20 54  1  0
 21 55  1  0
 26 56  1  0
 26 57  1  0
 27 58  1  0
 27 59  1  0
 29 60  1  0
 30 61  1  0
 31 62  1  0
 32 63  1  0
 34 64  1  0
 34 65  1  0
 36 66  1  0
 36 67  1  0
M  END
>  <smiles>  (47) 
c1ccc2c(c1)CCN(c1cc(N[C@@H]3CCc4ccccc43)nc(N3CCc4ccccc4C3)n1)C2

>  <score_type>  (47) 
oracle

>  <origin>  (47) 
autodockgpu

>  <m_score__min__energy>  (47) 
-11.73

>  <m_primary>  (47) 
energy

>  <rmsd>  (47) 
8.814439598849503

>  <m_score__min__rmsd>  (47) 
8.814439598849503

>  <meeko>  (47) 
{"free_energy": -10.26, "intermolecular_energy": -11.45, "internal_energy": -1.79, "cluster_size": 49, "cluster_id": 1, "rank_in_cluster": 45}

>  <energy>  (47) 
-10.23

>  <cluster_rmsd>  (47) 
1.8

>  <cluster>  (47) 
1

$$$$

     RDKit          3D

 67 73  0  0  0  0  0  0  0  0999 V2000
  146.2910   68.4890  219.3800 C   0  0  0  0  0  0  0  0  0  0  0  0
  145.1160   67.7800  219.4610 C   0  0  0  0  0  0  0  0  0  0  0  0
  143.9060   68.4550  219.5040 C   0  0  0  0  0  0  0  0  0  0  0  0
  143.8610   69.8320  219.4650 C   0  0  0  0  0  0  0  0  0  0  0  0
  145.0200   70.5510  219.3840 C   0  0  0  0  0  0  0  0  0  0  0  0
  146.2360   69.8690  219.3410 C   0  0  0  0  0  0  0  0  0  0  0  0
  145.0890   72.0340  219.3360 C   0  0  0  0  0  0  0  0  0  0  0  0
  143.7510   72.5770  218.9310 C   0  0  0  0  0  0  0  0  0  0  0  0
  142.6970   71.9460  219.7080 N   0  0  0  0  0  0  0  0  0  0  0  0
  141.8620   72.6300  220.6110 C   0  0  0  0  0  0  0  0  0  0  0  0
  141.0560   71.9980  221.5330 C   0  0  0  0  0  0  0  0  0  0  0  0
  140.2370   72.6790  222.4150 C   0  0  0  0  0  0  0  0  0  0  0  0
  139.4220   71.9670  223.3510 N   0  0  0  0  0  0  0  0  0  0  0  0
  139.9650   70.7370  223.8780 C   0  0  2  0  0  0  0  0  0  0  0  0
  139.0340   69.5780  223.8140 C   0  0  0  0  0  0  0  0  0  0  0  0
  138.8830   69.0050  225.1980 C   0  0  0  0  0  0  0  0  0  0  0  0
  139.6490   69.9210  226.0690 C   0  0  0  0  0  0  0  0  0  0  0  0
  139.8210   69.9240  227.4350 C   0  0  0  0  0  0  0  0  0  0  0  0
  140.5860   70.8920  228.0030 C   0  0  0  0  0  0  0  0  0  0  0  0
  141.2170   71.8930  227.2880 C   0  0  0  0  0  0  0  0  0  0  0  0
  141.0450   71.8900  225.9170 C   0  0  0  0  0  0  0  0  0  0  0  0
  140.2610   70.9020  225.3140 C   0  0  0  0  0  0  0  0  0  0  0  0
  140.2550   74.0220  222.3400 N   0  0  0  0  0  0  0  0  0  0  0  0
  141.0420   74.6760  221.4390 C   0  0  0  0  0  0  0  0  0  0  0  0
  140.9950   76.0970  221.4320 N   0  0  0  0  0  0  0  0  0  0  0  0
  140.9180   76.8050  220.1700 C   0  0  0  0  0  0  0  0  0  0  0  0
  142.1090   77.7740  220.1900 C   0  0  0  0  0  0  0  0  0  0  0  0
  141.7780   78.7330  221.3000 C   0  0  0  0  0  0  0  0  0  0  0  0
  141.9920   80.0740  221.1100 C   0  0  0  0  0  0  0  0  0  0  0  0
  141.6950   80.9740  222.1170 C   0  0  0  0  0  0  0  0  0  0  0  0
  141.1870   80.4910  223.2930 C   0  0  0  0  0  0  0  0  0  0  0  0
  140.9750   79.1370  223.4710 C   0  0  0  0  0  0  0  0  0  0  0  0
  141.2700   78.2210  222.4660 C   0  0  0  0  0  0  0  0  0  0  0  0
  141.0270   76.7760  222.7030 C   0  0  0  0  0  0  0  0  0  0  0  0
  141.8230   73.9750  220.5990 N   0  0  0  0  0  0  0  0  0  0  0  0
  142.5320   70.5140  219.5150 C   0  0  0  0  0  0  0  0  0  0  0  0
  147.2584   67.9666  219.3468 H   0  0  0  0  0  0  0  0  0  0  0  0
  145.1359   66.6806  219.4916 H   0  0  0  0  0  0  0  0  0  0  0  0
  142.9684   67.8835  219.5702 H   0  0  0  0  0  0  0  0  0  0  0  0
  147.1722   70.4427  219.2746 H   0  0  0  0  0  0  0  0  0  0  0  0
  145.3582   72.4221  220.3294 H   0  0  0  0  0  0  0  0  0  0  0  0
  145.8506   72.3451  218.6058 H   0  0  0  0  0  0  0  0  0  0  0  0
  143.7313   73.6628  219.1063 H   0  0  0  0  0  0  0  0  0  0  0  0
  143.5859   72.3658  217.8642 H   0  0  0  0  0  0  0  0  0  0  0  0
  141.0645   70.8986  221.5691 H   0  0  0  0  0  0  0  0  0  0  0  0
  138.4790   72.3000  223.6520 H   0  0  0  0  0  0  0  0  0  0  0  0
  140.8482   70.5334  223.2547 H   0  0  0  0  0  0  0  0  0  0  0  0
  138.0537   69.9104  223.4417 H   0  0  0  0  0  0  0  0  0  0  0  0
  139.4336   68.8127  223.1324 H   0  0  0  0  0  0  0  0  0  0  0  0
  137.8241   68.9822  225.4950 H   0  0  0  0  0  0  0  0  0  0  0  0
  139.2469   67.9689  225.2614 H   0  0  0  0  0  0  0  0  0  0  0  0
  139.3451   69.1526  228.0582 H   0  0  0  0  0  0  0  0  0  0  0  0
  140.7108   70.8787  229.0958 H   0  0  0  0  0  0  0  0  0  0  0  0
  141.8289   72.6580  227.7884 H   0  0  0  0  0  0  0  0  0  0  0  0
  141.5246   72.6645  225.3005 H   0  0  0  0  0  0  0  0  0  0  0  0
  141.0031   76.1039  219.3266 H   0  0  0  0  0  0  0  0  0  0  0  0
  139.9588   77.3289  220.0459 H   0  0  0  0  0  0  0  0  0  0  0  0
  143.0458   77.2380  220.4025 H   0  0  0  0  0  0  0  0  0  0  0  0
  142.2605   78.2792  219.2247 H   0  0  0  0  0  0  0  0  0  0  0  0
  142.4008   80.4346  220.1546 H   0  0  0  0  0  0  0  0  0  0  0  0
  141.8629   82.0520  221.9765 H   0  0  0  0  0  0  0  0  0  0  0  0
  140.9443   81.1899  224.1070 H   0  0  0  0  0  0  0  0  0  0  0  0
  140.5650   78.7764  224.4259 H   0  0  0  0  0  0  0  0  0  0  0  0
  141.8354   76.3618  223.3234 H   0  0  0  0  0  0  0  0  0  0  0  0
  140.0686   76.6384  223.2251 H   0  0  0  0  0  0  0  0  0  0  0  0
  141.9458   70.1022  220.3497 H   0  0  0  0  0  0  0  0  0  0  0  0
  142.0102   70.3430  218.5618 H   0  0  0  0  0  0  0  0  0  0  0  0
  1  2  2  0
  2  3  1  0
  3  4  2  0
  4  5  1  0
  5  6  2  0
  5  7  1  0
  7  8  1  0
  8  9  1  0
  9 10  1  0
 10 11  2  0
 11 12  1  0
 12 13  1  0
 13 14  1  0
 14 15  1  0
 15 16  1  0
 16 17  1  0
 17 18  2  0
 18 19  1  0
 19 20  2  0
 20 21  1  0
 21 22  2  0
 12 23  2  0
 23 24  1  0
 24 25  1  0
 25 26  1  0
 26 27  1  0
 27 28  1  0
 28 29  2  0
 29 30  1  0
 30 31  2  0
 31 32  1  0
 32 33  2  0
 33 34  1  0
 24 35  2  0
  9 36  1  0
  6  1  1  0
 35 10  1  0
 36  4  1  0
 22 14  1  0
 34 25  1  0
 22 17  1  0
 33 28  1  0
  1 37  1  0
  2 38  1  0
  3 39  1  0
  6 40  1  0
  7 41  1  0
  7 42  1  0
  8 43  1  0
  8 44  1  0
 11 45  1  0
 13 46  1  0
 14 47  1  6
 15 48  1  0
 15 49  1  0
 16 50  1  0
 16 51  1  0
 18 52  1  0
 19 53  1  0
 20 54  1  0
 21 55  1  0
 26 56  1  0
 26 57  1  0
 27 58  1  0
 27 59  1  0
 29 60  1  0
 30 61  1  0
 31 62  1  0
 32 63  1  0
 34 64  1  0
 34 65  1  0
 36 66  1  0
 36 67  1  0
M  END
>  <smiles>  (48) 
c1ccc2c(c1)CCN(c1cc(N[C@@H]3CCc4ccccc43)nc(N3CCc4ccccc4C3)n1)C2

>  <score_type>  (48) 
oracle

>  <origin>  (48) 
autodockgpu

>  <m_score__min__energy>  (48) 
-11.73

>  <m_primary>  (48) 
energy

>  <rmsd>  (48) 
10.346343562934136

>  <m_score__min__rmsd>  (48) 
10.346343562934136

>  <meeko>  (48) 
{"free_energy": -11.7, "intermolecular_energy": -12.89, "internal_energy": -1.21, "cluster_size": 49, "cluster_id": 1, "rank_in_cluster": 22}

>  <energy>  (48) 
-9.93

>  <cluster_rmsd>  (48) 
1.99

>  <cluster>  (48) 
1

$$$$

     RDKit          3D

 67 73  0  0  0  0  0  0  0  0999 V2000
  140.3840   67.8850  226.0640 C   0  0  0  0  0  0  0  0  0  0  0  0
  141.2390   68.8360  226.5670 C   0  0  0  0  0  0  0  0  0  0  0  0
  141.2160   70.1230  226.0540 C   0  0  0  0  0  0  0  0  0  0  0  0
  140.3430   70.4670  225.0430 C   0  0  0  0  0  0  0  0  0  0  0  0
  139.4870   69.5330  224.5330 C   0  0  0  0  0  0  0  0  0  0  0  0
  139.5130   68.2380  225.0510 C   0  0  0  0  0  0  0  0  0  0  0  0
  138.5080   69.7920  223.4460 C   0  0  0  0  0  0  0  0  0  0  0  0
  138.2820   71.2710  223.3290 C   0  0  0  0  0  0  0  0  0  0  0  0
  139.5540   71.9730  223.3140 N   0  0  0  0  0  0  0  0  0  0  0  0
  140.0320   72.7200  222.2200 C   0  0  0  0  0  0  0  0  0  0  0  0
  140.3940   72.1600  221.0140 C   0  0  0  0  0  0  0  0  0  0  0  0
  140.8640   72.9020  219.9460 C   0  0  0  0  0  0  0  0  0  0  0  0
  141.2240   72.2630  218.7170 N   0  0  0  0  0  0  0  0  0  0  0  0
  142.5940   71.8260  218.5920 C   0  0  2  0  0  0  0  0  0  0  0  0
  142.8690   70.4900  219.1860 C   0  0  0  0  0  0  0  0  0  0  0  0
  143.9910   70.6270  220.1810 C   0  0  0  0  0  0  0  0  0  0  0  0
  144.2740   72.0770  220.2290 C   0  0  0  0  0  0  0  0  0  0  0  0
  145.1630   72.7910  221.0010 C   0  0  0  0  0  0  0  0  0  0  0  0
  145.2330   74.1390  220.8530 C   0  0  0  0  0  0  0  0  0  0  0  0
  144.4560   74.8570  219.9620 C   0  0  0  0  0  0  0  0  0  0  0  0
  143.5650   74.1410  219.1880 C   0  0  0  0  0  0  0  0  0  0  0  0
  143.4790   72.7520  219.3260 C   0  0  0  0  0  0  0  0  0  0  0  0
  140.9590   74.2310  220.1310 N   0  0  0  0  0  0  0  0  0  0  0  0
  140.6090   74.8140  221.3120 C   0  0  0  0  0  0  0  0  0  0  0  0
  140.7450   76.2260  221.4160 N   0  0  0  0  0  0  0  0  0  0  0  0
  140.6290   77.0450  220.2260 C   0  0  0  0  0  0  0  0  0  0  0  0
  141.9290   77.8600  220.1830 C   0  0  0  0  0  0  0  0  0  0  0  0
  141.8400   78.7510  221.3910 C   0  0  0  0  0  0  0  0  0  0  0  0
  142.2040   80.0680  221.2770 C   0  0  0  0  0  0  0  0  0  0  0  0
  142.1310   80.9050  222.3750 C   0  0  0  0  0  0  0  0  0  0  0  0
  141.6890   80.3860  223.5620 C   0  0  0  0  0  0  0  0  0  0  0  0
  141.3250   79.0560  223.6630 C   0  0  0  0  0  0  0  0  0  0  0  0
  141.3950   78.2030  222.5650 C   0  0  0  0  0  0  0  0  0  0  0  0
  140.9940   76.7830  222.7210 C   0  0  0  0  0  0  0  0  0  0  0  0
  140.1570   74.0560  222.3260 N   0  0  0  0  0  0  0  0  0  0  0  0
  140.3570   71.8670  224.5220 C   0  0  0  0  0  0  0  0  0  0  0  0
  140.3928   66.8593  226.4613 H   0  0  0  0  0  0  0  0  0  0  0  0
  141.9395   68.5764  227.3744 H   0  0  0  0  0  0  0  0  0  0  0  0
  141.9033   70.8806  226.4585 H   0  0  0  0  0  0  0  0  0  0  0  0
  138.8255   67.4817  224.6444 H   0  0  0  0  0  0  0  0  0  0  0  0
  138.9021   69.4035  222.4954 H   0  0  0  0  0  0  0  0  0  0  0  0
  137.5571   69.2895  223.6770 H   0  0  0  0  0  0  0  0  0  0  0  0
  137.7389   71.4830  222.3962 H   0  0  0  0  0  0  0  0  0  0  0  0
  137.6929   71.6136  224.1925 H   0  0  0  0  0  0  0  0  0  0  0  0
  140.3048   71.0701  220.8952 H   0  0  0  0  0  0  0  0  0  0  0  0
  140.5470   72.1100  217.9370 H   0  0  0  0  0  0  0  0  0  0  0  0
  142.7758   71.7907  217.5077 H   0  0  0  0  0  0  0  0  0  0  0  0
  141.9671   70.1177  219.6938 H   0  0  0  0  0  0  0  0  0  0  0  0
  143.1528   69.7792  218.3959 H   0  0  0  0  0  0  0  0  0  0  0  0
  143.6797   70.2595  221.1699 H   0  0  0  0  0  0  0  0  0  0  0  0
  144.8756   70.0393  219.8947 H   0  0  0  0  0  0  0  0  0  0  0  0
  145.8081   72.2761  221.7282 H   0  0  0  0  0  0  0  0  0  0  0  0
  145.9494   74.6922  221.4781 H   0  0  0  0  0  0  0  0  0  0  0  0
  144.5441   75.9499  219.8741 H   0  0  0  0  0  0  0  0  0  0  0  0
  142.9230   74.6627  218.4630 H   0  0  0  0  0  0  0  0  0  0  0  0
  140.5369   76.4147  219.3292 H   0  0  0  0  0  0  0  0  0  0  0  0
  139.7365   77.6876  220.2495 H   0  0  0  0  0  0  0  0  0  0  0  0
  142.8066   77.2000  220.2478 H   0  0  0  0  0  0  0  0  0  0  0  0
  142.0429   78.4262  219.2468 H   0  0  0  0  0  0  0  0  0  0  0  0
  142.5546   80.4592  220.3105 H   0  0  0  0  0  0  0  0  0  0  0  0
  142.4213   81.9631  222.2966 H   0  0  0  0  0  0  0  0  0  0  0  0
  141.6225   81.0356  224.4472 H   0  0  0  0  0  0  0  0  0  0  0  0
  140.9735   78.6645  224.6290 H   0  0  0  0  0  0  0  0  0  0  0  0
  141.8018   76.2226  223.2144 H   0  0  0  0  0  0  0  0  0  0  0  0
  140.0845   76.7164  223.3361 H   0  0  0  0  0  0  0  0  0  0  0  0
  141.3932   72.1572  224.2937 H   0  0  0  0  0  0  0  0  0  0  0  0
  139.9343   72.5340  225.2878 H   0  0  0  0  0  0  0  0  0  0  0  0
  1  2  2  0
  2  3  1  0
  3  4  2  0
  4  5  1  0
  5  6  2  0
  5  7  1  0
  7  8  1  0
  8  9  1  0
  9 10  1  0
 10 11  2  0
 11 12  1  0
 12 13  1  0
 13 14  1  0
 14 15  1  0
 15 16  1  0
 16 17  1  0
 17 18  2  0
 18 19  1  0
 19 20  2  0
 20 21  1  0
 21 22  2  0
 12 23  2  0
 23 24  1  0
 24 25  1  0
 25 26  1  0
 26 27  1  0
 27 28  1  0
 28 29  2  0
 29 30  1  0
 30 31  2  0
 31 32  1  0
 32 33  2  0
 33 34  1  0
 24 35  2  0
  9 36  1  0
  6  1  1  0
 35 10  1  0
 36  4  1  0
 22 14  1  0
 34 25  1  0
 22 17  1  0
 33 28  1  0
  1 37  1  0
  2 38  1  0
  3 39  1  0
  6 40  1  0
  7 41  1  0
  7 42  1  0
  8 43  1  0
  8 44  1  0
 11 45  1  0
 13 46  1  0
 14 47  1  6
 15 48  1  0
 15 49  1  0
 16 50  1  0
 16 51  1  0
 18 52  1  0
 19 53  1  0
 20 54  1  0
 21 55  1  0
 26 56  1  0
 26 57  1  0
 27 58  1  0
 27 59  1  0
 29 60  1  0
 30 61  1  0
 31 62  1  0
 32 63  1  0
 34 64  1  0
 34 65  1  0
 36 66  1  0
 36 67  1  0
M  END
>  <smiles>  (49) 
c1ccc2c(c1)CCN(c1cc(N[C@@H]3CCc4ccccc43)nc(N3CCc4ccccc4C3)n1)C2

>  <score_type>  (49) 
oracle

>  <origin>  (49) 
autodockgpu

>  <m_score__min__energy>  (49) 
-11.73

>  <m_primary>  (49) 
energy

>  <rmsd>  (49) 
8.820265057508545

>  <m_score__min__rmsd>  (49) 
8.820265057508545

>  <meeko>  (49) 
{"free_energy": -10.23, "intermolecular_energy": -11.42, "internal_energy": -1.79, "cluster_size": 49, "cluster_id": 1, "rank_in_cluster": 47}

>  <energy>  (49) 
-9.9

>  <cluster_rmsd>  (49) 
1.98

>  <cluster>  (49) 
1

$$$$

     RDKit          3D

 67 73  0  0  0  0  0  0  0  0999 V2000
  146.2690   68.3600  219.4050 C   0  0  0  0  0  0  0  0  0  0  0  0
  145.1100   67.6390  219.5720 C   0  0  0  0  0  0  0  0  0  0  0  0
  143.8920   68.2980  219.6310 C   0  0  0  0  0  0  0  0  0  0  0  0
  143.8230   69.6700  219.5240 C   0  0  0  0  0  0  0  0  0  0  0  0
  144.9650   70.4000  219.3560 C   0  0  0  0  0  0  0  0  0  0  0  0
  146.1890   69.7360  219.2970 C   0  0  0  0  0  0  0  0  0  0  0  0
  145.0070   71.8800  219.2300 C   0  0  0  0  0  0  0  0  0  0  0  0
  143.6440   72.3820  218.8540 C   0  0  0  0  0  0  0  0  0  0  0  0
  142.6340   71.7770  219.7060 N   0  0  0  0  0  0  0  0  0  0  0  0
  141.8260   72.4950  220.6070 C   0  0  0  0  0  0  0  0  0  0  0  0
  141.0620   71.8990  221.5880 C   0  0  0  0  0  0  0  0  0  0  0  0
  140.2690   72.6130  222.4670 C   0  0  0  0  0  0  0  0  0  0  0  0
  139.4970   71.9380  223.4650 N   0  0  0  0  0  0  0  0  0  0  0  0
  140.0780   70.7440  224.0350 C   0  0  2  0  0  0  0  0  0  0  0  0
  139.1940   69.5490  223.9850 C   0  0  0  0  0  0  0  0  0  0  0  0
  139.0390   69.0060  225.3810 C   0  0  0  0  0  0  0  0  0  0  0  0
  139.7510   69.9750  226.2410 C   0  0  0  0  0  0  0  0  0  0  0  0
  139.8960   70.0200  227.6100 C   0  0  0  0  0  0  0  0  0  0  0  0
  140.6120   71.0310  228.1660 C   0  0  0  0  0  0  0  0  0  0  0  0
  141.2170   72.0380  227.4350 C   0  0  0  0  0  0  0  0  0  0  0  0
  141.0720   71.9920  226.0620 C   0  0  0  0  0  0  0  0  0  0  0  0
  140.3380   70.9580  225.4720 C   0  0  0  0  0  0  0  0  0  0  0  0
  140.2690   73.9510  222.3290 N   0  0  0  0  0  0  0  0  0  0  0  0
  141.0140   74.5690  221.3700 C   0  0  0  0  0  0  0  0  0  0  0  0
  140.9510   75.9880  221.2980 N   0  0  0  0  0  0  0  0  0  0  0  0
  140.9820   76.6420  220.0050 C   0  0  0  0  0  0  0  0  0  0  0  0
  142.1540   77.6300  220.0930 C   0  0  0  0  0  0  0  0  0  0  0  0
  141.7110   78.6280  221.1260 C   0  0  0  0  0  0  0  0  0  0  0  0
  141.9260   79.9640  220.9000 C   0  0  0  0  0  0  0  0  0  0  0  0
  141.5280   80.8990  221.8360 C   0  0  0  0  0  0  0  0  0  0  0  0
  140.9200   80.4570  222.9810 C   0  0  0  0  0  0  0  0  0  0  0  0
  140.7090   79.1080  223.1960 C   0  0  0  0  0  0  0  0  0  0  0  0
  141.1060   78.1560  222.2620 C   0  0  0  0  0  0  0  0  0  0  0  0
  140.8590   76.7190  222.5370 C   0  0  0  0  0  0  0  0  0  0  0  0
  141.7720   73.8370  220.5340 N   0  0  0  0  0  0  0  0  0  0  0  0
  142.4860   70.3340  219.5940 C   0  0  0  0  0  0  0  0  0  0  0  0
  147.2429   67.8508  219.3581 H   0  0  0  0  0  0  0  0  0  0  0  0
  145.1494   66.5431  219.6585 H   0  0  0  0  0  0  0  0  0  0  0  0
  142.9674   67.7174  219.7651 H   0  0  0  0  0  0  0  0  0  0  0  0
  147.1116   70.3195  219.1615 H   0  0  0  0  0  0  0  0  0  0  0  0
  145.3101   72.3225  220.1904 H   0  0  0  0  0  0  0  0  0  0  0  0
  145.7327   72.1644  218.4538 H   0  0  0  0  0  0  0  0  0  0  0  0
  143.6134   73.4750  218.9740 H   0  0  0  0  0  0  0  0  0  0  0  0
  143.4386   72.1134  217.8073 H   0  0  0  0  0  0  0  0  0  0  0  0
  141.0846   70.8027  221.6754 H   0  0  0  0  0  0  0  0  0  0  0  0
  138.5600   72.2710  223.7810 H   0  0  0  0  0  0  0  0  0  0  0  0
  140.9809   70.5593  223.4345 H   0  0  0  0  0  0  0  0  0  0  0  0
  138.2089   69.8334  223.5867 H   0  0  0  0  0  0  0  0  0  0  0  0
  139.6355   68.7826  223.3310 H   0  0  0  0  0  0  0  0  0  0  0  0
  137.9763   68.9481  225.6591 H   0  0  0  0  0  0  0  0  0  0  0  0
  139.4424   67.9873  225.4788 H   0  0  0  0  0  0  0  0  0  0  0  0
  139.4378   69.2471  228.2446 H   0  0  0  0  0  0  0  0  0  0  0  0
  140.7171   71.0505  229.2608 H   0  0  0  0  0  0  0  0  0  0  0  0
  141.7883   72.8399  227.9255 H   0  0  0  0  0  0  0  0  0  0  0  0
  141.5334   72.7678  225.4334 H   0  0  0  0  0  0  0  0  0  0  0  0
  141.1532   75.9082  219.2036 H   0  0  0  0  0  0  0  0  0  0  0  0
  140.0319   77.1447  219.7711 H   0  0  0  0  0  0  0  0  0  0  0  0
  143.0737   77.1183  220.4128 H   0  0  0  0  0  0  0  0  0  0  0  0
  142.3874   78.0976  219.1251 H   0  0  0  0  0  0  0  0  0  0  0  0
  142.4164   80.2915  219.9714 H   0  0  0  0  0  0  0  0  0  0  0  0
  141.6954   81.9728  221.6658 H   0  0  0  0  0  0  0  0  0  0  0  0
  140.5955   81.1849  223.7392 H   0  0  0  0  0  0  0  0  0  0  0  0
  140.2174   78.7805  224.1240 H   0  0  0  0  0  0  0  0  0  0  0  0
  141.6121   76.3431  223.2452 H   0  0  0  0  0  0  0  0  0  0  0  0
  139.8587   76.5883  222.9755 H   0  0  0  0  0  0  0  0  0  0  0  0
  141.9414   69.9576  220.4724 H   0  0  0  0  0  0  0  0  0  0  0  0
  141.9291   70.1059  218.6732 H   0  0  0  0  0  0  0  0  0  0  0  0
  1  2  2  0
  2  3  1  0
  3  4  2  0
  4  5  1  0
  5  6  2  0
  5  7  1  0
  7  8  1  0
  8  9  1  0
  9 10  1  0
 10 11  2  0
 11 12  1  0
 12 13  1  0
 13 14  1  0
 14 15  1  0
 15 16  1  0
 16 17  1  0
 17 18  2  0
 18 19  1  0
 19 20  2  0
 20 21  1  0
 21 22  2  0
 12 23  2  0
 23 24  1  0
 24 25  1  0
 25 26  1  0
 26 27  1  0
 27 28  1  0
 28 29  2  0
 29 30  1  0
 30 31  2  0
 31 32  1  0
 32 33  2  0
 33 34  1  0
 24 35  2  0
  9 36  1  0
  6  1  1  0
 35 10  1  0
 36  4  1  0
 22 14  1  0
 34 25  1  0
 22 17  1  0
 33 28  1  0
  1 37  1  0
  2 38  1  0
  3 39  1  0
  6 40  1  0
  7 41  1  0
  7 42  1  0
  8 43  1  0
  8 44  1  0
 11 45  1  0
 13 46  1  0
 14 47  1  6
 15 48  1  0
 15 49  1  0
 16 50  1  0
 16 51  1  0
 18 52  1  0
 19 53  1  0
 20 54  1  0
 21 55  1  0
 26 56  1  0
 26 57  1  0
 27 58  1  0
 27 59  1  0
 29 60  1  0
 30 61  1  0
 31 62  1  0
 32 63  1  0
 34 64  1  0
 34 65  1  0
 36 66  1  0
 36 67  1  0
M  END
>  <smiles>  (50) 
c1ccc2c(c1)CCN(c1cc(N[C@@H]3CCc4ccccc43)nc(N3CCc4ccccc4C3)n1)C2

>  <score_type>  (50) 
oracle

>  <origin>  (50) 
autodockgpu

>  <m_score__min__energy>  (50) 
-11.73

>  <m_primary>  (50) 
energy

>  <rmsd>  (50) 
10.349023598317942

>  <m_score__min__rmsd>  (50) 
10.349023598317942

>  <meeko>  (50) 
{"free_energy": -11.57, "intermolecular_energy": -12.77, "internal_energy": -1.2, "cluster_size": 49, "cluster_id": 1, "rank_in_cluster": 33}

>  <energy>  (50) 
-9.88

>  <cluster_rmsd>  (50) 
0.0

>  <cluster>  (50) 
2

$$$$
