
     RDKit          3D

 77 83  0  0  0  0  0  0  0  0999 V2000
  140.3010   80.1860  223.7160 C   0  0  0  0  0  0  0  0  0  0  0  0
  141.5810   79.6570  223.7660 C   0  0  0  0  0  0  0  0  0  0  0  0
  141.8150   78.4300  223.1900 C   0  0  0  0  0  0  0  0  0  0  0  0
  140.7900   77.7410  222.5740 C   0  0  0  0  0  0  0  0  0  0  0  0
  139.5220   78.2380  222.5110 C   0  0  0  0  0  0  0  0  0  0  0  0
  139.2960   79.4760  223.0950 C   0  0  0  0  0  0  0  0  0  0  0  0
  138.3900   77.5640  221.8760 C   0  0  0  0  0  0  0  0  0  0  0  0
  138.5860   76.1290  221.5460 C   0  0  0  0  0  0  0  0  0  0  0  0
  139.9230   75.6280  221.6990 N   0  0  0  0  0  0  0  0  0  0  0  0
  140.1120   74.2150  221.5670 C   0  0  0  0  0  0  0  0  0  0  0  0
  140.3860   73.6470  220.3790 N   0  0  0  0  0  0  0  0  0  0  0  0
  140.5720   72.3190  220.1980 C   0  0  0  0  0  0  0  0  0  0  0  0
  140.8590   71.7850  218.9030 N   0  0  0  0  0  0  0  0  0  0  0  0
  142.0750   71.0800  218.6740 C   0  0  2  0  0  0  0  0  0  0  0  0
  142.4170   70.0390  219.7120 C   0  0  0  0  0  0  0  0  0  0  0  0
  143.3590   69.0460  219.0110 C   0  0  0  0  0  0  0  0  0  0  0  0
  144.6150   69.7670  218.5720 C   0  0  0  0  0  0  0  0  0  0  0  0
  144.3000   70.9640  217.7360 C   0  0  0  0  0  0  0  0  0  0  0  0
  143.2840   71.9030  218.4030 C   0  0  2  0  0  0  0  0  0  0  0  0
  143.9470   72.4340  219.5680 N   0  0  0  0  0  0  0  0  0  0  0  0
  143.5440   73.7570  219.9470 C   0  0  0  0  0  0  0  0  0  0  0  0
  144.6630   74.2970  220.8280 C   0  0  0  0  0  0  0  0  0  0  0  0
  145.7970   73.3560  220.5890 C   0  0  0  0  0  0  0  0  0  0  0  0
  145.3510   72.5900  219.3490 C   0  0  0  0  0  0  0  0  0  0  0  0
  140.4680   71.5520  221.2970 N   0  0  0  0  0  0  0  0  0  0  0  0
  140.1950   72.0670  222.5080 C   0  0  0  0  0  0  0  0  0  0  0  0
  140.0910   71.2360  223.6550 N   0  0  0  0  0  0  0  0  0  0  0  0
  139.0250   70.2440  223.7510 C   0  0  0  0  0  0  0  0  0  0  0  0
  139.5620   69.0960  224.5970 C   0  0  0  0  0  0  0  0  0  0  0  0
  139.7860   69.6580  225.9520 C   0  0  0  0  0  0  0  0  0  0  0  0
  139.2670   69.0650  227.0790 C   0  0  0  0  0  0  0  0  0  0  0  0
  139.5190   69.6490  228.3140 C   0  0  0  0  0  0  0  0  0  0  0  0
  140.2740   70.7950  228.3770 C   0  0  0  0  0  0  0  0  0  0  0  0
  140.7980   71.3940  227.2510 C   0  0  0  0  0  0  0  0  0  0  0  0
  140.5530   70.8200  226.0150 C   0  0  0  0  0  0  0  0  0  0  0  0
  141.0630   71.3770  224.7430 C   0  0  0  0  0  0  0  0  0  0  0  0
  140.0230   73.3750  222.6230 N   0  0  0  0  0  0  0  0  0  0  0  0
  141.0830   76.4370  221.9740 C   0  0  0  0  0  0  0  0  0  0  0  0
  140.0886   81.1657  224.1688 H   0  0  0  0  0  0  0  0  0  0  0  0
  142.3957   80.2088  224.2578 H   0  0  0  0  0  0  0  0  0  0  0  0
  142.8250   77.9954  223.2205 H   0  0  0  0  0  0  0  0  0  0  0  0
  138.2833   79.9042  223.0614 H   0  0  0  0  0  0  0  0  0  0  0  0
  137.5295   77.6378  222.5573 H   0  0  0  0  0  0  0  0  0  0  0  0
  138.2464   78.0724  220.9112 H   0  0  0  0  0  0  0  0  0  0  0  0
  137.9279   75.5394  222.2012 H   0  0  0  0  0  0  0  0  0  0  0  0
  138.3532   76.0350  220.4750 H   0  0  0  0  0  0  0  0  0  0  0  0
  140.1600   71.9320  218.1690 H   0  0  0  0  0  0  0  0  0  0  0  0
  141.8130   70.5737  217.7333 H   0  0  0  0  0  0  0  0  0  0  0  0
  142.9217   70.5053  220.5710 H   0  0  0  0  0  0  0  0  0  0  0  0
  141.5162   69.5401  220.0987 H   0  0  0  0  0  0  0  0  0  0  0  0
  143.6247   68.2378  219.7083 H   0  0  0  0  0  0  0  0  0  0  0  0
  142.8542   68.6198  218.1315 H   0  0  0  0  0  0  0  0  0  0  0  0
  145.1705   70.0913  219.4643 H   0  0  0  0  0  0  0  0  0  0  0  0
  145.2152   69.0728  217.9654 H   0  0  0  0  0  0  0  0  0  0  0  0
  145.2305   71.5227  217.5568 H   0  0  0  0  0  0  0  0  0  0  0  0
  143.8535   70.6049  216.7970 H   0  0  0  0  0  0  0  0  0  0  0  0
  142.9509   72.7626  217.8029 H   0  0  0  0  0  0  0  0  0  0  0  0
  143.4197   74.3894  219.0556 H   0  0  0  0  0  0  0  0  0  0  0  0
  142.5801   73.7497  220.4769 H   0  0  0  0  0  0  0  0  0  0  0  0
  144.9351   75.3206  220.5310 H   0  0  0  0  0  0  0  0  0  0  0  0
  144.3766   74.3541  221.8885 H   0  0  0  0  0  0  0  0  0  0  0  0
  146.7322   73.9036  220.4004 H   0  0  0  0  0  0  0  0  0  0  0  0
  146.0077   72.7036  221.4492 H   0  0  0  0  0  0  0  0  0  0  0  0
  145.5485   73.1667  218.4334 H   0  0  0  0  0  0  0  0  0  0  0  0
  145.8810   71.6362  219.2094 H   0  0  0  0  0  0  0  0  0  0  0  0
  138.1396   70.6858  224.2315 H   0  0  0  0  0  0  0  0  0  0  0  0
  138.7256   69.8907  222.7533 H   0  0  0  0  0  0  0  0  0  0  0  0
  138.8292   68.2767  224.6391 H   0  0  0  0  0  0  0  0  0  0  0  0
  140.4891   68.6822  224.1736 H   0  0  0  0  0  0  0  0  0  0  0  0
  138.6649   68.1475  227.0041 H   0  0  0  0  0  0  0  0  0  0  0  0
  139.1175   69.1978  229.2334 H   0  0  0  0  0  0  0  0  0  0  0  0
  140.4671   71.2504  229.3595 H   0  0  0  0  0  0  0  0  0  0  0  0
  141.3997   72.3112  227.3332 H   0  0  0  0  0  0  0  0  0  0  0  0
  141.2841   72.4450  224.8859 H   0  0  0  0  0  0  0  0  0  0  0  0
  141.9686   70.8178  224.4652 H   0  0  0  0  0  0  0  0  0  0  0  0
  141.7335   75.8802  222.6645 H   0  0  0  0  0  0  0  0  0  0  0  0
  141.5577   76.6408  221.0029 H   0  0  0  0  0  0  0  0  0  0  0  0
  1  2  2  0
  2  3  1  0
  3  4  2  0
  4  5  1  0
  5  6  2  0
  5  7  1  0
  7  8  1  0
  8  9  1  0
  9 10  1  0
 10 11  2  0
 11 12  1  0
 12 13  1  0
 13 14  1  0
 14 15  1  0
 15 16  1  0
 16 17  1  0
 17 18  1  0
 18 19  1  0
 19 20  1  0
 20 21  1  0
 21 22  1  0
 22 23  1  0
 23 24  1  0
 12 25  2  0
 25 26  1  0
 26 27  1  0
 27 28  1  0
 28 29  1  0
 29 30  1  0
 30 31  2  0
 31 32  1  0
 32 33  2  0
 33 34  1  0
 34 35  2  0
 35 36  1  0
 26 37  2  0
  9 38  1  0
  6  1  1  0
 37 10  1  0
 38  4  1  0
 19 14  1  0
 24 20  1  0
 36 27  1  0
 35 30  1  0
  1 39  1  0
  2 40  1  0
  3 41  1  0
  6 42  1  0
  7 43  1  0
  7 44  1  0
  8 45  1  0
  8 46  1  0
 13 47  1  0
 14 48  1  6
 15 49  1  0
 15 50  1  0
 16 51  1  0
 16 52  1  0
 17 53  1  0
 17 54  1  0
 18 55  1  0
 18 56  1  0
 19 57  1  6
 21 58  1  0
 21 59  1  0
 22 60  1  0
 22 61  1  0
 23 62  1  0
 23 63  1  0
 24 64  1  0
 24 65  1  0
 28 66  1  0
 28 67  1  0
 29 68  1  0
 29 69  1  0
 31 70  1  0
 32 71  1  0
 33 72  1  0
 34 73  1  0
 36 74  1  0
 36 75  1  0
 38 76  1  0
 38 77  1  0
M  END
>  <smiles>  (1) 
c1ccc2c(c1)CCN(c1nc(N[C@@H]3CCCC[C@@H]3N3CCCC3)nc(N3CCc4ccccc4C3)n1)C2

>  <score_type>  (1) 
oracle

>  <origin>  (1) 
autodockgpu

>  <m_score__min__energy>  (1) 
-10.83

>  <m_primary>  (1) 
energy

>  <rmsd>  (1) 
7.572759451024546

>  <m_score__min__rmsd>  (1) 
7.572759451024546

>  <meeko>  (1) 
{"free_energy": -10.21, "intermolecular_energy": -11.7, "internal_energy": -1.91, "cluster_size": 24, "cluster_id": 1, "rank_in_cluster": 14}

>  <energy>  (1) 
-10.83

>  <cluster_rmsd>  (1) 
0.0

>  <cluster>  (1) 
1

$$$$

     RDKit          3D

 77 83  0  0  0  0  0  0  0  0999 V2000
  140.5670   68.4560  227.6790 C   0  0  0  0  0  0  0  0  0  0  0  0
  141.0120   69.7380  227.9590 C   0  0  0  0  0  0  0  0  0  0  0  0
  140.8240   70.7260  227.0200 C   0  0  0  0  0  0  0  0  0  0  0  0
  140.2010   70.4420  225.8220 C   0  0  0  0  0  0  0  0  0  0  0  0
  139.7530   69.1900  225.5220 C   0  0  0  0  0  0  0  0  0  0  0  0
  139.9480   68.2000  226.4740 C   0  0  0  0  0  0  0  0  0  0  0  0
  139.0860   68.8170  224.2750 C   0  0  0  0  0  0  0  0  0  0  0  0
  139.1740   69.8040  223.1670 C   0  0  0  0  0  0  0  0  0  0  0  0
  139.7230   71.0840  223.5120 N   0  0  0  0  0  0  0  0  0  0  0  0
  139.9910   71.9930  222.4370 C   0  0  0  0  0  0  0  0  0  0  0  0
  140.3880   71.5580  221.2280 N   0  0  0  0  0  0  0  0  0  0  0  0
  140.6560   72.3720  220.1800 C   0  0  0  0  0  0  0  0  0  0  0  0
  141.0760   71.8390  218.9220 N   0  0  0  0  0  0  0  0  0  0  0  0
  142.2660   71.0610  218.8370 C   0  0  2  0  0  0  0  0  0  0  0  0
  142.5070   70.1280  219.9980 C   0  0  0  0  0  0  0  0  0  0  0  0
  143.4330   69.0250  219.4620 C   0  0  0  0  0  0  0  0  0  0  0  0
  144.7420   69.6390  219.0150 C   0  0  0  0  0  0  0  0  0  0  0  0
  144.5270   70.7480  218.0390 C   0  0  0  0  0  0  0  0  0  0  0  0
  143.5260   71.7970  218.5440 C   0  0  2  0  0  0  0  0  0  0  0  0
  144.1550   72.4260  219.6780 N   0  0  0  0  0  0  0  0  0  0  0  0
  143.7310   73.7700  219.9430 C   0  0  0  0  0  0  0  0  0  0  0  0
  144.8240   74.3890  220.8040 C   0  0  0  0  0  0  0  0  0  0  0  0
  145.9710   73.4450  220.6660 C   0  0  0  0  0  0  0  0  0  0  0  0
  145.5620   72.5800  219.4800 C   0  0  0  0  0  0  0  0  0  0  0  0
  140.5050   73.6890  220.4010 N   0  0  0  0  0  0  0  0  0  0  0  0
  140.1110   74.1770  221.5900 C   0  0  0  0  0  0  0  0  0  0  0  0
  139.9590   75.5740  221.7980 N   0  0  0  0  0  0  0  0  0  0  0  0
  141.0630   76.3640  222.3330 C   0  0  0  0  0  0  0  0  0  0  0  0
  140.9170   77.7710  221.7650 C   0  0  0  0  0  0  0  0  0  0  0  0
  139.6540   78.3100  222.3290 C   0  0  0  0  0  0  0  0  0  0  0  0
  139.6060   79.5260  222.9680 C   0  0  0  0  0  0  0  0  0  0  0  0
  138.3880   79.9650  223.4700 C   0  0  0  0  0  0  0  0  0  0  0  0
  137.2720   79.1790  223.3170 C   0  0  0  0  0  0  0  0  0  0  0  0
  137.3140   77.9590  222.6770 C   0  0  0  0  0  0  0  0  0  0  0  0
  138.5230   77.5120  222.1720 C   0  0  0  0  0  0  0  0  0  0  0  0
  138.6840   76.2200  221.4700 C   0  0  0  0  0  0  0  0  0  0  0  0
  139.8630   73.3310  222.5780 N   0  0  0  0  0  0  0  0  0  0  0  0
  140.0210   71.5230  224.8510 C   0  0  0  0  0  0  0  0  0  0  0  0
  140.7066   67.6485  228.4128 H   0  0  0  0  0  0  0  0  0  0  0  0
  141.5070   69.9620  228.9154 H   0  0  0  0  0  0  0  0  0  0  0  0
  141.1726   71.7488  227.2257 H   0  0  0  0  0  0  0  0  0  0  0  0
  139.5979   67.1792  226.2609 H   0  0  0  0  0  0  0  0  0  0  0  0
  139.5330   67.8756  223.9230 H   0  0  0  0  0  0  0  0  0  0  0  0
  138.0166   68.7437  224.5218 H   0  0  0  0  0  0  0  0  0  0  0  0
  139.8035   69.3688  222.3768 H   0  0  0  0  0  0  0  0  0  0  0  0
  138.1365   69.9980  222.8572 H   0  0  0  0  0  0  0  0  0  0  0  0
  140.4880   72.0390  218.1070 H   0  0  0  0  0  0  0  0  0  0  0  0
  142.0249   70.4648  217.9446 H   0  0  0  0  0  0  0  0  0  0  0  0
  142.9907   70.6650  220.8272 H   0  0  0  0  0  0  0  0  0  0  0  0
  141.5653   69.7132  220.3868 H   0  0  0  0  0  0  0  0  0  0  0  0
  143.6255   68.2894  220.2569 H   0  0  0  0  0  0  0  0  0  0  0  0
  142.9520   68.5249  218.6085 H   0  0  0  0  0  0  0  0  0  0  0  0
  145.2685   70.0360  219.8954 H   0  0  0  0  0  0  0  0  0  0  0  0
  145.3362   68.8569  218.5198 H   0  0  0  0  0  0  0  0  0  0  0  0
  145.4911   71.2434  217.8514 H   0  0  0  0  0  0  0  0  0  0  0  0
  144.1107   70.3066  217.1215 H   0  0  0  0  0  0  0  0  0  0  0  0
  143.2648   72.5979  217.8366 H   0  0  0  0  0  0  0  0  0  0  0  0
  143.6218   74.3295  219.0022 H   0  0  0  0  0  0  0  0  0  0  0  0
  142.7550   73.7936  220.4498 H   0  0  0  0  0  0  0  0  0  0  0  0
  145.0940   75.3890  220.4337 H   0  0  0  0  0  0  0  0  0  0  0  0
  144.5121   74.5259  221.8499 H   0  0  0  0  0  0  0  0  0  0  0  0
  146.9056   73.9862  220.4570 H   0  0  0  0  0  0  0  0  0  0  0  0
  146.1666   72.8640  221.5793 H   0  0  0  0  0  0  0  0  0  0  0  0
  145.7760   73.0858  218.5269 H   0  0  0  0  0  0  0  0  0  0  0  0
  146.1040   71.6242  219.4276 H   0  0  0  0  0  0  0  0  0  0  0  0
  141.0105   76.3922  223.4314 H   0  0  0  0  0  0  0  0  0  0  0  0
  142.0324   75.9254  222.0538 H   0  0  0  0  0  0  0  0  0  0  0  0
  141.7692   78.3965  222.0692 H   0  0  0  0  0  0  0  0  0  0  0  0
  140.8959   77.7617  220.6652 H   0  0  0  0  0  0  0  0  0  0  0  0
  140.5130   80.1383  223.0793 H   0  0  0  0  0  0  0  0  0  0  0  0
  138.3175   80.9340  223.9858 H   0  0  0  0  0  0  0  0  0  0  0  0
  136.3121   79.5353  223.7189 H   0  0  0  0  0  0  0  0  0  0  0  0
  136.4033   77.3515  222.5694 H   0  0  0  0  0  0  0  0  0  0  0  0
  137.8610   75.5514  221.7627 H   0  0  0  0  0  0  0  0  0  0  0  0
  138.6701   76.4163  220.3877 H   0  0  0  0  0  0  0  0  0  0  0  0
  140.9483   72.1138  224.8198 H   0  0  0  0  0  0  0  0  0  0  0  0
  139.1501   72.1035  225.1893 H   0  0  0  0  0  0  0  0  0  0  0  0
  1  2  2  0
  2  3  1  0
  3  4  2  0
  4  5  1  0
  5  6  2  0
  5  7  1  0
  7  8  1  0
  8  9  1  0
  9 10  1  0
 10 11  2  0
 11 12  1  0
 12 13  1  0
 13 14  1  0
 14 15  1  0
 15 16  1  0
 16 17  1  0
 17 18  1  0
 18 19  1  0
 19 20  1  0
 20 21  1  0
 21 22  1  0
 22 23  1  0
 23 24  1  0
 12 25  2  0
 25 26  1  0
 26 27  1  0
 27 28  1  0
 28 29  1  0
 29 30  1  0
 30 31  2  0
 31 32  1  0
 32 33  2  0
 33 34  1  0
 34 35  2  0
 35 36  1  0
 26 37  2  0
  9 38  1  0
  6  1  1  0
 37 10  1  0
 38  4  1  0
 19 14  1  0
 24 20  1  0
 36 27  1  0
 35 30  1  0
  1 39  1  0
  2 40  1  0
  3 41  1  0
  6 42  1  0
  7 43  1  0
  7 44  1  0
  8 45  1  0
  8 46  1  0
 13 47  1  0
 14 48  1  6
 15 49  1  0
 15 50  1  0
 16 51  1  0
 16 52  1  0
 17 53  1  0
 17 54  1  0
 18 55  1  0
 18 56  1  0
 19 57  1  6
 21 58  1  0
 21 59  1  0
 22 60  1  0
 22 61  1  0
 23 62  1  0
 23 63  1  0
 24 64  1  0
 24 65  1  0
 28 66  1  0
 28 67  1  0
 29 68  1  0
 29 69  1  0
 31 70  1  0
 32 71  1  0
 33 72  1  0
 34 73  1  0
 36 74  1  0
 36 75  1  0
 38 76  1  0
 38 77  1  0
M  END
>  <smiles>  (2) 
c1ccc2c(c1)CCN(c1nc(N[C@@H]3CCCC[C@@H]3N3CCCC3)nc(N3CCc4ccccc4C3)n1)C2

>  <score_type>  (2) 
oracle

>  <origin>  (2) 
autodockgpu

>  <m_score__min__energy>  (2) 
-10.83

>  <m_primary>  (2) 
energy

>  <rmsd>  (2) 
7.64553611304159

>  <m_score__min__rmsd>  (2) 
7.64553611304159

>  <meeko>  (2) 
{"free_energy": -9.46, "intermolecular_energy": -10.96, "internal_energy": -1.85, "cluster_size": 24, "cluster_id": 1, "rank_in_cluster": 24}

>  <energy>  (2) 
-10.75

>  <cluster_rmsd>  (2) 
0.43

>  <cluster>  (2) 
1

$$$$

     RDKit          3D

 77 83  0  0  0  0  0  0  0  0999 V2000
  145.9630   68.0410  219.2020 C   0  0  0  0  0  0  0  0  0  0  0  0
  144.7180   67.4950  219.4770 C   0  0  0  0  0  0  0  0  0  0  0  0
  143.6550   68.3410  219.6890 C   0  0  0  0  0  0  0  0  0  0  0  0
  143.8270   69.7090  219.6290 C   0  0  0  0  0  0  0  0  0  0  0  0
  145.0390   70.2720  219.3610 C   0  0  0  0  0  0  0  0  0  0  0  0
  146.1060   69.4110  219.1480 C   0  0  0  0  0  0  0  0  0  0  0  0
  145.2950   71.7100  219.2820 C   0  0  0  0  0  0  0  0  0  0  0  0
  144.2260   72.5930  219.8160 C   0  0  0  0  0  0  0  0  0  0  0  0
  142.9910   71.9460  220.1570 N   0  0  0  0  0  0  0  0  0  0  0  0
  142.0080   72.7300  220.8420 C   0  0  0  0  0  0  0  0  0  0  0  0
  140.9790   72.1600  221.4930 N   0  0  0  0  0  0  0  0  0  0  0  0
  140.0220   72.8530  222.1540 C   0  0  0  0  0  0  0  0  0  0  0  0
  138.9540   72.1790  222.8230 N   0  0  0  0  0  0  0  0  0  0  0  0
  139.2320   71.3040  223.9110 C   0  0  2  0  0  0  0  0  0  0  0  0
  140.6960   71.1140  224.2230 C   0  0  0  0  0  0  0  0  0  0  0  0
  140.7550   70.6700  225.6930 C   0  0  0  0  0  0  0  0  0  0  0  0
  140.0190   69.3560  225.8530 C   0  0  0  0  0  0  0  0  0  0  0  0
  138.6260   69.4360  225.3210 C   0  0  0  0  0  0  0  0  0  0  0  0
  138.5700   69.9720  223.8840 C   0  0  2  0  0  0  0  0  0  0  0  0
  139.2160   68.9740  223.0680 N   0  0  0  0  0  0  0  0  0  0  0  0
  139.3580   69.3190  221.6830 C   0  0  0  0  0  0  0  0  0  0  0  0
  139.5780   68.0040  220.9470 C   0  0  0  0  0  0  0  0  0  0  0  0
  139.1860   66.9630  221.9420 C   0  0  0  0  0  0  0  0  0  0  0  0
  138.4530   67.7680  223.0080 C   0  0  0  0  0  0  0  0  0  0  0  0
  140.1430   74.1920  222.1350 N   0  0  0  0  0  0  0  0  0  0  0  0
  141.1520   74.8130  221.5000 C   0  0  0  0  0  0  0  0  0  0  0  0
  141.2570   76.2290  221.4960 N   0  0  0  0  0  0  0  0  0  0  0  0
  141.8430   76.9220  220.3530 C   0  0  0  0  0  0  0  0  0  0  0  0
  141.1780   78.2910  220.2750 C   0  0  0  0  0  0  0  0  0  0  0  0
  141.5870   79.0140  221.5050 C   0  0  0  0  0  0  0  0  0  0  0  0
  142.1430   80.2700  221.4580 C   0  0  0  0  0  0  0  0  0  0  0  0
  142.5010   80.8840  222.6510 C   0  0  0  0  0  0  0  0  0  0  0  0
  142.2930   80.2260  223.8380 C   0  0  0  0  0  0  0  0  0  0  0  0
  141.7360   78.9650  223.8920 C   0  0  0  0  0  0  0  0  0  0  0  0
  141.3750   78.3440  222.7090 C   0  0  0  0  0  0  0  0  0  0  0  0
  140.7720   76.9950  222.6490 C   0  0  0  0  0  0  0  0  0  0  0  0
  142.0580   74.0810  220.8710 N   0  0  0  0  0  0  0  0  0  0  0  0
  142.6680   70.5730  219.8620 C   0  0  0  0  0  0  0  0  0  0  0  0
  146.8295   67.3860  219.0283 H   0  0  0  0  0  0  0  0  0  0  0  0
  144.5834   66.4043  219.5247 H   0  0  0  0  0  0  0  0  0  0  0  0
  142.6607   67.9246  219.9079 H   0  0  0  0  0  0  0  0  0  0  0  0
  147.0972   69.8349  218.9292 H   0  0  0  0  0  0  0  0  0  0  0  0
  146.2165   71.9191  219.8451 H   0  0  0  0  0  0  0  0  0  0  0  0
  145.3608   71.9406  218.2085 H   0  0  0  0  0  0  0  0  0  0  0  0
  144.6130   73.0802  220.7231 H   0  0  0  0  0  0  0  0  0  0  0  0
  143.9816   73.2908  219.0015 H   0  0  0  0  0  0  0  0  0  0  0  0
  138.0030   72.3570  222.4870 H   0  0  0  0  0  0  0  0  0  0  0  0
  138.7655   71.8788  224.7246 H   0  0  0  0  0  0  0  0  0  0  0  0
  141.1296   70.3411  223.5714 H   0  0  0  0  0  0  0  0  0  0  0  0
  141.2696   72.0375  224.0550 H   0  0  0  0  0  0  0  0  0  0  0  0
  141.8048   70.5415  225.9954 H   0  0  0  0  0  0  0  0  0  0  0  0
  140.2821   71.4349  226.3265 H   0  0  0  0  0  0  0  0  0  0  0  0
  140.5649   68.5726  225.3069 H   0  0  0  0  0  0  0  0  0  0  0  0
  139.9637   69.1220  226.9264 H   0  0  0  0  0  0  0  0  0  0  0  0
  138.1845   68.4286  225.3382 H   0  0  0  0  0  0  0  0  0  0  0  0
  138.0668   70.1365  225.9586 H   0  0  0  0  0  0  0  0  0  0  0  0
  137.5656   70.1298  223.4641 H   0  0  0  0  0  0  0  0  0  0  0  0
  138.4471   69.8150  221.3167 H   0  0  0  0  0  0  0  0  0  0  0  0
  140.1937   70.0163  221.5236 H   0  0  0  0  0  0  0  0  0  0  0  0
  138.9431   67.9467  220.0506 H   0  0  0  0  0  0  0  0  0  0  0  0
  140.6131   67.8842  220.5947 H   0  0  0  0  0  0  0  0  0  0  0  0
  138.5230   66.2117  221.4881 H   0  0  0  0  0  0  0  0  0  0  0  0
  140.0421   66.3970  222.3379 H   0  0  0  0  0  0  0  0  0  0  0  0
  137.4140   67.9700  222.7085 H   0  0  0  0  0  0  0  0  0  0  0  0
  138.3795   67.2485  223.9748 H   0  0  0  0  0  0  0  0  0  0  0  0
  142.9277   77.0362  220.4957 H   0  0  0  0  0  0  0  0  0  0  0  0
  141.6833   76.3539  219.4247 H   0  0  0  0  0  0  0  0  0  0  0  0
  141.5212   78.8325  219.3811 H   0  0  0  0  0  0  0  0  0  0  0  0
  140.0838   78.2044  220.2031 H   0  0  0  0  0  0  0  0  0  0  0  0
  142.3011   80.7783  220.4954 H   0  0  0  0  0  0  0  0  0  0  0  0
  142.9476   81.8893  222.6451 H   0  0  0  0  0  0  0  0  0  0  0  0
  142.5801   80.7209  224.7775 H   0  0  0  0  0  0  0  0  0  0  0  0
  141.5815   78.4621  224.8580 H   0  0  0  0  0  0  0  0  0  0  0  0
  141.0268   76.4505  223.5702 H   0  0  0  0  0  0  0  0  0  0  0  0
  139.6832   77.1130  222.5458 H   0  0  0  0  0  0  0  0  0  0  0  0
  142.1009   70.1642  220.7113 H   0  0  0  0  0  0  0  0  0  0  0  0
  142.0941   70.5832  218.9237 H   0  0  0  0  0  0  0  0  0  0  0  0
  1  2  2  0
  2  3  1  0
  3  4  2  0
  4  5  1  0
  5  6  2  0
  5  7  1  0
  7  8  1  0
  8  9  1  0
  9 10  1  0
 10 11  2  0
 11 12  1  0
 12 13  1  0
 13 14  1  0
 14 15  1  0
 15 16  1  0
 16 17  1  0
 17 18  1  0
 18 19  1  0
 19 20  1  0
 20 21  1  0
 21 22  1  0
 22 23  1  0
 23 24  1  0
 12 25  2  0
 25 26  1  0
 26 27  1  0
 27 28  1  0
 28 29  1  0
 29 30  1  0
 30 31  2  0
 31 32  1  0
 32 33  2  0
 33 34  1  0
 34 35  2  0
 35 36  1  0
 26 37  2  0
  9 38  1  0
  6  1  1  0
 37 10  1  0
 38  4  1  0
 19 14  1  0
 24 20  1  0
 36 27  1  0
 35 30  1  0
  1 39  1  0
  2 40  1  0
  3 41  1  0
  6 42  1  0
  7 43  1  0
  7 44  1  0
  8 45  1  0
  8 46  1  0
 13 47  1  0
 14 48  1  1
 15 49  1  0
 15 50  1  0
 16 51  1  0
 16 52  1  0
 17 53  1  0
 17 54  1  0
 18 55  1  0
 18 56  1  0
 19 57  1  6
 21 58  1  0
 21 59  1  0
 22 60  1  0
 22 61  1  0
 23 62  1  0
 23 63  1  0
 24 64  1  0
 24 65  1  0
 28 66  1  0
 28 67  1  0
 29 68  1  0
 29 69  1  0
 31 70  1  0
 32 71  1  0
 33 72  1  0
 34 73  1  0
 36 74  1  0
 36 75  1  0
 38 76  1  0
 38 77  1  0
M  END
>  <smiles>  (3) 
c1ccc2c(c1)CCN(c1nc(N[C@@H]3CCCC[C@@H]3N3CCCC3)nc(N3CCc4ccccc4C3)n1)C2

>  <score_type>  (3) 
oracle

>  <origin>  (3) 
autodockgpu

>  <m_score__min__energy>  (3) 
-10.83

>  <m_primary>  (3) 
energy

>  <rmsd>  (3) 
10.13652215934305

>  <m_score__min__rmsd>  (3) 
10.13652215934305

>  <meeko>  (3) 
{"free_energy": -10.3, "intermolecular_energy": -11.79, "internal_energy": -2.0, "cluster_size": 25, "cluster_id": 2, "rank_in_cluster": 8}

>  <energy>  (3) 
-10.75

>  <cluster_rmsd>  (3) 
0.41

>  <cluster>  (3) 
1

$$$$

     RDKit          3D

 77 83  0  0  0  0  0  0  0  0999 V2000
  145.5420   67.8610  219.0630 C   0  0  0  0  0  0  0  0  0  0  0  0
  144.2630   67.3830  219.3010 C   0  0  0  0  0  0  0  0  0  0  0  0
  143.2540   68.2830  219.5490 C   0  0  0  0  0  0  0  0  0  0  0  0
  143.5130   69.6380  219.5600 C   0  0  0  0  0  0  0  0  0  0  0  0
  144.7600   70.1360  219.3290 C   0  0  0  0  0  0  0  0  0  0  0  0
  145.7730   69.2200  219.0800 C   0  0  0  0  0  0  0  0  0  0  0  0
  145.1070   71.5560  219.3250 C   0  0  0  0  0  0  0  0  0  0  0  0
  144.0910   72.4780  219.8960 C   0  0  0  0  0  0  0  0  0  0  0  0
  142.8140   71.8940  220.1940 N   0  0  0  0  0  0  0  0  0  0  0  0
  141.8760   72.7040  220.9120 C   0  0  0  0  0  0  0  0  0  0  0  0
  140.8720   72.1600  221.6220 N   0  0  0  0  0  0  0  0  0  0  0  0
  139.9580   72.8780  222.3150 C   0  0  0  0  0  0  0  0  0  0  0  0
  138.9140   72.2310  223.0470 N   0  0  0  0  0  0  0  0  0  0  0  0
  139.2330   71.2590  224.0390 C   0  0  2  0  0  0  0  0  0  0  0  0
  140.7080   71.0530  224.2830 C   0  0  0  0  0  0  0  0  0  0  0  0
  140.8190   70.4740  225.7020 C   0  0  0  0  0  0  0  0  0  0  0  0
  140.0960   69.1450  225.7620 C   0  0  0  0  0  0  0  0  0  0  0  0
  138.6850   69.2630  225.2870 C   0  0  0  0  0  0  0  0  0  0  0  0
  138.5770   69.9310  223.9080 C   0  0  2  0  0  0  0  0  0  0  0  0
  139.2010   69.0190  222.9810 N   0  0  0  0  0  0  0  0  0  0  0  0
  139.2820   69.4880  221.6280 C   0  0  0  0  0  0  0  0  0  0  0  0
  139.4870   68.2470  220.7700 C   0  0  0  0  0  0  0  0  0  0  0  0
  139.1480   67.1160  221.6820 C   0  0  0  0  0  0  0  0  0  0  0  0
  138.4500   67.8120  222.8450 C   0  0  0  0  0  0  0  0  0  0  0  0
  140.0950   74.2140  222.2670 N   0  0  0  0  0  0  0  0  0  0  0  0
  141.0800   74.8100  221.5720 C   0  0  0  0  0  0  0  0  0  0  0  0
  141.2030   76.2240  221.5380 N   0  0  0  0  0  0  0  0  0  0  0  0
  141.8300   76.8810  220.3950 C   0  0  0  0  0  0  0  0  0  0  0  0
  141.1850   78.2560  220.2660 C   0  0  0  0  0  0  0  0  0  0  0  0
  141.5690   79.0040  221.4890 C   0  0  0  0  0  0  0  0  0  0  0  0
  142.1410   80.2520  221.4280 C   0  0  0  0  0  0  0  0  0  0  0  0
  142.4730   80.8910  222.6160 C   0  0  0  0  0  0  0  0  0  0  0  0
  142.2230   80.2630  223.8120 C   0  0  0  0  0  0  0  0  0  0  0  0
  141.6500   79.0120  223.8800 C   0  0  0  0  0  0  0  0  0  0  0  0
  141.3140   78.3660  222.7030 C   0  0  0  0  0  0  0  0  0  0  0  0
  140.6960   77.0230  222.6580 C   0  0  0  0  0  0  0  0  0  0  0  0
  141.9440   74.0550  220.9140 N   0  0  0  0  0  0  0  0  0  0  0  0
  142.4080   70.5620  219.8280 C   0  0  0  0  0  0  0  0  0  0  0  0
  146.3666   67.1612  218.8621 H   0  0  0  0  0  0  0  0  0  0  0  0
  144.0589   66.3022  219.2916 H   0  0  0  0  0  0  0  0  0  0  0  0
  142.2332   67.9204  219.7400 H   0  0  0  0  0  0  0  0  0  0  0  0
  146.7914   69.5900  218.8904 H   0  0  0  0  0  0  0  0  0  0  0  0
  146.0343   71.6772  219.9042 H   0  0  0  0  0  0  0  0  0  0  0  0
  145.1976   71.8355  218.2650 H   0  0  0  0  0  0  0  0  0  0  0  0
  144.4986   72.8926  220.8298 H   0  0  0  0  0  0  0  0  0  0  0  0
  143.9004   73.2312  219.1174 H   0  0  0  0  0  0  0  0  0  0  0  0
  137.9500   72.4980  222.8270 H   0  0  0  0  0  0  0  0  0  0  0  0
  138.7916   71.7501  224.9188 H   0  0  0  0  0  0  0  0  0  0  0  0
  141.1234   70.3481  223.5478 H   0  0  0  0  0  0  0  0  0  0  0  0
  141.2707   71.9929  224.1834 H   0  0  0  0  0  0  0  0  0  0  0  0
  141.8790   70.3267  225.9562 H   0  0  0  0  0  0  0  0  0  0  0  0
  140.3638   71.1722  226.4199 H   0  0  0  0  0  0  0  0  0  0  0  0
  140.6270   68.4211  225.1264 H   0  0  0  0  0  0  0  0  0  0  0  0
  140.0787   68.8105  226.8098 H   0  0  0  0  0  0  0  0  0  0  0  0
  138.2493   68.2549  225.2247 H   0  0  0  0  0  0  0  0  0  0  0  0
  138.1446   69.8963  226.0059 H   0  0  0  0  0  0  0  0  0  0  0  0
  137.5583   70.1188  223.5378 H   0  0  0  0  0  0  0  0  0  0  0  0
  138.3511   70.0005  221.3439 H   0  0  0  0  0  0  0  0  0  0  0  0
  140.1019   70.2097  221.4982 H   0  0  0  0  0  0  0  0  0  0  0  0
  138.8169   68.2599  219.8977 H   0  0  0  0  0  0  0  0  0  0  0  0
  140.5085   68.1747  220.3683 H   0  0  0  0  0  0  0  0  0  0  0  0
  138.4754   66.3985  221.1892 H   0  0  0  0  0  0  0  0  0  0  0  0
  140.0259   66.5297  221.9910 H   0  0  0  0  0  0  0  0  0  0  0  0
  137.3972   68.0240  222.6069 H   0  0  0  0  0  0  0  0  0  0  0  0
  138.4223   67.2078  223.7638 H   0  0  0  0  0  0  0  0  0  0  0  0
  142.9118   76.9851  220.5651 H   0  0  0  0  0  0  0  0  0  0  0  0
  141.6892   76.2923  219.4765 H   0  0  0  0  0  0  0  0  0  0  0  0
  141.5596   78.7713  219.3693 H   0  0  0  0  0  0  0  0  0  0  0  0
  140.0921   78.1807  220.1661 H   0  0  0  0  0  0  0  0  0  0  0  0
  142.3321   80.7351  220.4584 H   0  0  0  0  0  0  0  0  0  0  0  0
  142.9318   81.8906  222.5992 H   0  0  0  0  0  0  0  0  0  0  0  0
  142.4895   80.7767  224.7475 H   0  0  0  0  0  0  0  0  0  0  0  0
  141.4627   78.5347  224.8532 H   0  0  0  0  0  0  0  0  0  0  0  0
  140.9182   76.4978  223.5986 H   0  0  0  0  0  0  0  0  0  0  0  0
  139.6121   77.1514  222.5214 H   0  0  0  0  0  0  0  0  0  0  0  0
  141.8073   70.1483  220.6514 H   0  0  0  0  0  0  0  0  0  0  0  0
  141.8457   70.6556  218.8872 H   0  0  0  0  0  0  0  0  0  0  0  0
  1  2  2  0
  2  3  1  0
  3  4  2  0
  4  5  1  0
  5  6  2  0
  5  7  1  0
  7  8  1  0
  8  9  1  0
  9 10  1  0
 10 11  2  0
 11 12  1  0
 12 13  1  0
 13 14  1  0
 14 15  1  0
 15 16  1  0
 16 17  1  0
 17 18  1  0
 18 19  1  0
 19 20  1  0
 20 21  1  0
 21 22  1  0
 22 23  1  0
 23 24  1  0
 12 25  2  0
 25 26  1  0
 26 27  1  0
 27 28  1  0
 28 29  1  0
 29 30  1  0
 30 31  2  0
 31 32  1  0
 32 33  2  0
 33 34  1  0
 34 35  2  0
 35 36  1  0
 26 37  2  0
  9 38  1  0
  6  1  1  0
 37 10  1  0
 38  4  1  0
 19 14  1  0
 24 20  1  0
 36 27  1  0
 35 30  1  0
  1 39  1  0
  2 40  1  0
  3 41  1  0
  6 42  1  0
  7 43  1  0
  7 44  1  0
  8 45  1  0
  8 46  1  0
 13 47  1  0
 14 48  1  1
 15 49  1  0
 15 50  1  0
 16 51  1  0
 16 52  1  0
 17 53  1  0
 17 54  1  0
 18 55  1  0
 18 56  1  0
 19 57  1  6
 21 58  1  0
 21 59  1  0
 22 60  1  0
 22 61  1  0
 23 62  1  0
 23 63  1  0
 24 64  1  0
 24 65  1  0
 28 66  1  0
 28 67  1  0
 29 68  1  0
 29 69  1  0
 31 70  1  0
 32 71  1  0
 33 72  1  0
 34 73  1  0
 36 74  1  0
 36 75  1  0
 38 76  1  0
 38 77  1  0
M  END
>  <smiles>  (4) 
c1ccc2c(c1)CCN(c1nc(N[C@@H]3CCCC[C@@H]3N3CCCC3)nc(N3CCc4ccccc4C3)n1)C2

>  <score_type>  (4) 
oracle

>  <origin>  (4) 
autodockgpu

>  <m_score__min__energy>  (4) 
-10.83

>  <m_primary>  (4) 
energy

>  <rmsd>  (4) 
10.106331879355889

>  <m_score__min__rmsd>  (4) 
10.106331879355889

>  <meeko>  (4) 
{"free_energy": -10.24, "intermolecular_energy": -11.73, "internal_energy": -2.07, "cluster_size": 25, "cluster_id": 2, "rank_in_cluster": 17}

>  <energy>  (4) 
-10.73

>  <cluster_rmsd>  (4) 
0.42

>  <cluster>  (4) 
1

$$$$

     RDKit          3D

 77 83  0  0  0  0  0  0  0  0999 V2000
  145.2150   67.8760  219.2290 C   0  0  0  0  0  0  0  0  0  0  0  0
  143.8940   67.4680  219.3240 C   0  0  0  0  0  0  0  0  0  0  0  0
  142.9180   68.4200  219.5020 C   0  0  0  0  0  0  0  0  0  0  0  0
  143.2510   69.7570  219.5840 C   0  0  0  0  0  0  0  0  0  0  0  0
  144.5420   70.1850  219.4930 C   0  0  0  0  0  0  0  0  0  0  0  0
  145.5200   69.2170  219.3130 C   0  0  0  0  0  0  0  0  0  0  0  0
  144.9670   71.5820  219.5700 C   0  0  0  0  0  0  0  0  0  0  0  0
  143.9530   72.5460  220.0700 C   0  0  0  0  0  0  0  0  0  0  0  0
  142.6220   72.0320  220.2220 N   0  0  0  0  0  0  0  0  0  0  0  0
  141.6640   72.8770  220.8710 C   0  0  0  0  0  0  0  0  0  0  0  0
  140.5740   72.3720  221.4760 N   0  0  0  0  0  0  0  0  0  0  0  0
  139.6390   73.1240  222.1020 C   0  0  0  0  0  0  0  0  0  0  0  0
  138.5030   72.5190  222.7230 N   0  0  0  0  0  0  0  0  0  0  0  0
  138.4210   71.1010  222.8380 C   0  0  2  0  0  0  0  0  0  0  0  0
  137.1550   70.5820  223.4730 C   0  0  0  0  0  0  0  0  0  0  0  0
  137.0030   69.1350  222.9770 C   0  0  0  0  0  0  0  0  0  0  0  0
  138.1870   68.3150  223.4430 C   0  0  0  0  0  0  0  0  0  0  0  0
  139.4830   68.9390  223.0400 C   0  0  0  0  0  0  0  0  0  0  0  0
  139.5860   70.4130  223.4560 C   0  0  2  0  0  0  0  0  0  0  0  0
  139.6130   70.4120  224.8980 N   0  0  0  0  0  0  0  0  0  0  0  0
  140.3100   71.5150  225.4940 C   0  0  0  0  0  0  0  0  0  0  0  0
  140.6470   71.0760  226.9130 C   0  0  0  0  0  0  0  0  0  0  0  0
  140.4210   69.6010  226.8980 C   0  0  0  0  0  0  0  0  0  0  0  0
  140.3240   69.2840  225.4100 C   0  0  0  0  0  0  0  0  0  0  0  0
  139.8460   74.4520  222.0950 N   0  0  0  0  0  0  0  0  0  0  0  0
  140.9180   75.0090  221.5050 C   0  0  0  0  0  0  0  0  0  0  0  0
  141.1150   76.4150  221.5130 N   0  0  0  0  0  0  0  0  0  0  0  0
  141.8150   77.0680  220.4110 C   0  0  0  0  0  0  0  0  0  0  0  0
  141.2460   78.4770  220.2970 C   0  0  0  0  0  0  0  0  0  0  0  0
  141.6230   79.1720  221.5530 C   0  0  0  0  0  0  0  0  0  0  0  0
  142.2600   80.3900  221.5450 C   0  0  0  0  0  0  0  0  0  0  0  0
  142.5810   80.9800  222.7610 C   0  0  0  0  0  0  0  0  0  0  0  0
  142.2570   80.3370  223.9300 C   0  0  0  0  0  0  0  0  0  0  0  0
  141.6180   79.1160  223.9440 C   0  0  0  0  0  0  0  0  0  0  0  0
  141.2930   78.5180  222.7390 C   0  0  0  0  0  0  0  0  0  0  0  0
  140.6090   77.2110  222.6360 C   0  0  0  0  0  0  0  0  0  0  0  0
  141.8000   74.2220  220.9090 N   0  0  0  0  0  0  0  0  0  0  0  0
  142.1790   70.7370  219.7730 C   0  0  0  0  0  0  0  0  0  0  0  0
  146.0147   67.1341  219.0875 H   0  0  0  0  0  0  0  0  0  0  0  0
  143.6311   66.4019  219.2582 H   0  0  0  0  0  0  0  0  0  0  0  0
  141.8643   68.1139  219.5796 H   0  0  0  0  0  0  0  0  0  0  0  0
  146.5716   69.5301  219.2350 H   0  0  0  0  0  0  0  0  0  0  0  0
  145.8378   71.6321  220.2402 H   0  0  0  0  0  0  0  0  0  0  0  0
  145.1775   71.8848  218.5337 H   0  0  0  0  0  0  0  0  0  0  0  0
  144.2886   72.9089  221.0527 H   0  0  0  0  0  0  0  0  0  0  0  0
  143.8836   73.3305  219.3021 H   0  0  0  0  0  0  0  0  0  0  0  0
  137.7700   73.1440  223.0740 H   0  0  0  0  0  0  0  0  0  0  0  0
  138.4189   70.8348  221.7707 H   0  0  0  0  0  0  0  0  0  0  0  0
  137.2389   70.6046  224.5696 H   0  0  0  0  0  0  0  0  0  0  0  0
  136.2840   71.1971  223.2029 H   0  0  0  0  0  0  0  0  0  0  0  0
  136.0759   68.7038  223.3826 H   0  0  0  0  0  0  0  0  0  0  0  0
  136.9610   69.1266  221.8778 H   0  0  0  0  0  0  0  0  0  0  0  0
  138.1557   68.2345  224.5396 H   0  0  0  0  0  0  0  0  0  0  0  0
  138.1232   67.3223  222.9734 H   0  0  0  0  0  0  0  0  0  0  0  0
  140.3043   68.3815  223.5139 H   0  0  0  0  0  0  0  0  0  0  0  0
  139.5438   68.8987  221.9424 H   0  0  0  0  0  0  0  0  0  0  0  0
  140.4838   70.9511  223.1177 H   0  0  0  0  0  0  0  0  0  0  0  0
  141.2300   71.7350  224.9326 H   0  0  0  0  0  0  0  0  0  0  0  0
  139.6996   72.4301  225.4879 H   0  0  0  0  0  0  0  0  0  0  0  0
  141.6943   71.3086  227.1559 H   0  0  0  0  0  0  0  0  0  0  0  0
  140.0377   71.5899  227.6711 H   0  0  0  0  0  0  0  0  0  0  0  0
  141.2636   69.0672  227.3618 H   0  0  0  0  0  0  0  0  0  0  0  0
  139.5306   69.2931  227.4657 H   0  0  0  0  0  0  0  0  0  0  0  0
  141.3223   69.2036  224.9550 H   0  0  0  0  0  0  0  0  0  0  0  0
  139.8321   68.3232  225.1981 H   0  0  0  0  0  0  0  0  0  0  0  0
  142.8938   77.1118  220.6213 H   0  0  0  0  0  0  0  0  0  0  0  0
  141.6773   76.5110  219.4725 H   0  0  0  0  0  0  0  0  0  0  0  0
  141.6788   78.9951  219.4285 H   0  0  0  0  0  0  0  0  0  0  0  0
  140.1551   78.4614  220.1564 H   0  0  0  0  0  0  0  0  0  0  0  0
  142.5102   80.8869  220.5961 H   0  0  0  0  0  0  0  0  0  0  0  0
  143.0906   81.9545  222.7871 H   0  0  0  0  0  0  0  0  0  0  0  0
  142.5161   80.8123  224.8875 H   0  0  0  0  0  0  0  0  0  0  0  0
  141.3705   78.6251  224.8968 H   0  0  0  0  0  0  0  0  0  0  0  0
  140.7695   76.6513  223.5693 H   0  0  0  0  0  0  0  0  0  0  0  0
  139.5388   77.3993  222.4650 H   0  0  0  0  0  0  0  0  0  0  0  0
  141.4764   70.3372  220.5190 H   0  0  0  0  0  0  0  0  0  0  0  0
  141.7193   70.8902  218.7855 H   0  0  0  0  0  0  0  0  0  0  0  0
  1  2  2  0
  2  3  1  0
  3  4  2  0
  4  5  1  0
  5  6  2  0
  5  7  1  0
  7  8  1  0
  8  9  1  0
  9 10  1  0
 10 11  2  0
 11 12  1  0
 12 13  1  0
 13 14  1  0
 14 15  1  0
 15 16  1  0
 16 17  1  0
 17 18  1  0
 18 19  1  0
 19 20  1  0
 20 21  1  0
 21 22  1  0
 22 23  1  0
 23 24  1  0
 12 25  2  0
 25 26  1  0
 26 27  1  0
 27 28  1  0
 28 29  1  0
 29 30  1  0
 30 31  2  0
 31 32  1  0
 32 33  2  0
 33 34  1  0
 34 35  2  0
 35 36  1  0
 26 37  2  0
  9 38  1  0
  6  1  1  0
 37 10  1  0
 38  4  1  0
 19 14  1  0
 24 20  1  0
 36 27  1  0
 35 30  1  0
  1 39  1  0
  2 40  1  0
  3 41  1  0
  6 42  1  0
  7 43  1  0
  7 44  1  0
  8 45  1  0
  8 46  1  0
 13 47  1  0
 14 48  1  6
 15 49  1  0
 15 50  1  0
 16 51  1  0
 16 52  1  0
 17 53  1  0
 17 54  1  0
 18 55  1  0
 18 56  1  0
 19 57  1  6
 21 58  1  0
 21 59  1  0
 22 60  1  0
 22 61  1  0
 23 62  1  0
 23 63  1  0
 24 64  1  0
 24 65  1  0
 28 66  1  0
 28 67  1  0
 29 68  1  0
 29 69  1  0
 31 70  1  0
 32 71  1  0
 33 72  1  0
 34 73  1  0
 36 74  1  0
 36 75  1  0
 38 76  1  0
 38 77  1  0
M  END
>  <smiles>  (5) 
c1ccc2c(c1)CCN(c1nc(N[C@@H]3CCCC[C@@H]3N3CCCC3)nc(N3CCc4ccccc4C3)n1)C2

>  <score_type>  (5) 
oracle

>  <origin>  (5) 
autodockgpu

>  <m_score__min__energy>  (5) 
-10.83

>  <m_primary>  (5) 
energy

>  <rmsd>  (5) 
9.490391969618534

>  <m_score__min__rmsd>  (5) 
9.490391969618534

>  <meeko>  (5) 
{"free_energy": -10.42, "intermolecular_energy": -11.91, "internal_energy": -1.76, "cluster_size": 25, "cluster_id": 2, "rank_in_cluster": 1}

>  <energy>  (5) 
-10.71

>  <cluster_rmsd>  (5) 
0.51

>  <cluster>  (5) 
1

$$$$

     RDKit          3D

 77 83  0  0  0  0  0  0  0  0999 V2000
  139.9700   68.7500  227.2110 C   0  0  0  0  0  0  0  0  0  0  0  0
  141.0570   69.5970  227.3640 C   0  0  0  0  0  0  0  0  0  0  0  0
  141.2370   70.6150  226.4570 C   0  0  0  0  0  0  0  0  0  0  0  0
  140.3490   70.7880  225.4150 C   0  0  0  0  0  0  0  0  0  0  0  0
  139.2720   69.9710  225.2420 C   0  0  0  0  0  0  0  0  0  0  0  0
  139.0990   68.9460  226.1620 C   0  0  0  0  0  0  0  0  0  0  0  0
  138.2920   70.0950  224.1640 C   0  0  0  0  0  0  0  0  0  0  0  0
  138.6720   70.9850  223.0360 C   0  0  0  0  0  0  0  0  0  0  0  0
  139.8560   71.7720  223.2320 N   0  0  0  0  0  0  0  0  0  0  0  0
  140.3520   72.5000  222.1020 C   0  0  0  0  0  0  0  0  0  0  0  0
  140.6820   71.8830  220.9540 N   0  0  0  0  0  0  0  0  0  0  0  0
  141.1560   72.5220  219.8590 C   0  0  0  0  0  0  0  0  0  0  0  0
  141.4880   71.7990  218.6710 N   0  0  0  0  0  0  0  0  0  0  0  0
  142.6660   71.0000  218.6270 C   0  0  2  0  0  0  0  0  0  0  0  0
  142.8040   69.9990  219.7480 C   0  0  0  0  0  0  0  0  0  0  0  0
  143.7450   68.9060  219.2180 C   0  0  0  0  0  0  0  0  0  0  0  0
  145.0950   69.5120  218.9000 C   0  0  0  0  0  0  0  0  0  0  0  0
  144.9720   70.6770  217.9740 C   0  0  0  0  0  0  0  0  0  0  0  0
  143.9580   71.7200  218.4650 C   0  0  2  0  0  0  0  0  0  0  0  0
  144.5170   72.2720  219.6740 N   0  0  0  0  0  0  0  0  0  0  0  0
  144.2440   73.6630  219.8920 C   0  0  0  0  0  0  0  0  0  0  0  0
  145.2920   74.1410  220.8890 C   0  0  0  0  0  0  0  0  0  0  0  0
  146.3120   73.0520  220.8910 C   0  0  0  0  0  0  0  0  0  0  0  0
  145.9450   72.2360  219.6570 C   0  0  0  0  0  0  0  0  0  0  0  0
  141.2920   73.8550  219.9650 N   0  0  0  0  0  0  0  0  0  0  0  0
  140.9770   74.5220  221.0890 C   0  0  0  0  0  0  0  0  0  0  0  0
  141.1290   75.9310  221.1740 N   0  0  0  0  0  0  0  0  0  0  0  0
  141.8180   76.6640  220.1160 C   0  0  0  0  0  0  0  0  0  0  0  0
  141.2060   78.0580  220.0720 C   0  0  0  0  0  0  0  0  0  0  0  0
  141.5490   78.6970  221.3670 C   0  0  0  0  0  0  0  0  0  0  0  0
  142.1470   79.9320  221.4310 C   0  0  0  0  0  0  0  0  0  0  0  0
  142.4380   80.4660  222.6800 C   0  0  0  0  0  0  0  0  0  0  0  0
  142.1240   79.7510  223.8100 C   0  0  0  0  0  0  0  0  0  0  0  0
  141.5240   78.5110  223.7520 C   0  0  0  0  0  0  0  0  0  0  0  0
  141.2290   77.9700  222.5130 C   0  0  0  0  0  0  0  0  0  0  0  0
  140.5880   76.6490  222.3330 C   0  0  0  0  0  0  0  0  0  0  0  0
  140.5180   73.8420  222.1270 N   0  0  0  0  0  0  0  0  0  0  0  0
  140.5790   71.8850  224.4730 C   0  0  0  0  0  0  0  0  0  0  0  0
  139.8043   67.9274  227.9222 H   0  0  0  0  0  0  0  0  0  0  0  0
  141.7629   69.4572  228.1960 H   0  0  0  0  0  0  0  0  0  0  0  0
  142.0945   71.2958  226.5629 H   0  0  0  0  0  0  0  0  0  0  0  0
  138.2393   68.2690  226.0498 H   0  0  0  0  0  0  0  0  0  0  0  0
  138.1139   69.0899  223.7541 H   0  0  0  0  0  0  0  0  0  0  0  0
  137.4056   70.5588  224.6215 H   0  0  0  0  0  0  0  0  0  0  0  0
  138.8286   70.3555  222.1476 H   0  0  0  0  0  0  0  0  0  0  0  0
  137.8477   71.7062  222.9342 H   0  0  0  0  0  0  0  0  0  0  0  0
  140.8490   71.8830  217.8750 H   0  0  0  0  0  0  0  0  0  0  0  0
  142.4786   70.4603  217.6870 H   0  0  0  0  0  0  0  0  0  0  0  0
  143.2365   70.4782  220.6387 H   0  0  0  0  0  0  0  0  0  0  0  0
  141.8288   69.5855  220.0446 H   0  0  0  0  0  0  0  0  0  0  0  0
  143.8652   68.1238  219.9820 H   0  0  0  0  0  0  0  0  0  0  0  0
  143.3172   68.4652  218.3055 H   0  0  0  0  0  0  0  0  0  0  0  0
  145.5644   69.8485  219.8362 H   0  0  0  0  0  0  0  0  0  0  0  0
  145.7083   68.7440  218.4060 H   0  0  0  0  0  0  0  0  0  0  0  0
  145.9564   71.1592  217.8825 H   0  0  0  0  0  0  0  0  0  0  0  0
  144.6141   70.2957  217.0063 H   0  0  0  0  0  0  0  0  0  0  0  0
  143.7636   72.5637  217.7865 H   0  0  0  0  0  0  0  0  0  0  0  0
  144.3295   74.2224  218.9488 H   0  0  0  0  0  0  0  0  0  0  0  0
  143.2234   73.8205  220.2710 H   0  0  0  0  0  0  0  0  0  0  0  0
  145.7368   75.0926  220.5626 H   0  0  0  0  0  0  0  0  0  0  0  0
  144.8713   74.3287  221.8879 H   0  0  0  0  0  0  0  0  0  0  0  0
  147.3289   73.4626  220.8054 H   0  0  0  0  0  0  0  0  0  0  0  0
  146.3119   72.4598  221.8180 H   0  0  0  0  0  0  0  0  0  0  0  0
  146.3432   72.6987  218.7419 H   0  0  0  0  0  0  0  0  0  0  0  0
  146.3574   71.2163  219.6678 H   0  0  0  0  0  0  0  0  0  0  0  0
  142.8930   76.7298  220.3398 H   0  0  0  0  0  0  0  0  0  0  0  0
  141.7065   76.1546  219.1475 H   0  0  0  0  0  0  0  0  0  0  0  0
  141.6298   78.6352  219.2370 H   0  0  0  0  0  0  0  0  0  0  0  0
  140.1174   78.0153  219.9199 H   0  0  0  0  0  0  0  0  0  0  0  0
  142.3903   80.4864  220.5126 H   0  0  0  0  0  0  0  0  0  0  0  0
  142.9159   81.4532  222.7634 H   0  0  0  0  0  0  0  0  0  0  0  0
  142.3591   80.1822  224.7943 H   0  0  0  0  0  0  0  0  0  0  0  0
  141.2841   77.9615  224.6742 H   0  0  0  0  0  0  0  0  0  0  0  0
  140.7584   76.0451  223.2365 H   0  0  0  0  0  0  0  0  0  0  0  0
  139.5138   76.8123  222.1614 H   0  0  0  0  0  0  0  0  0  0  0  0
  141.6539   71.9190  224.2419 H   0  0  0  0  0  0  0  0  0  0  0  0
  140.2139   72.7991  224.9641 H   0  0  0  0  0  0  0  0  0  0  0  0
  1  2  2  0
  2  3  1  0
  3  4  2  0
  4  5  1  0
  5  6  2  0
  5  7  1  0
  7  8  1  0
  8  9  1  0
  9 10  1  0
 10 11  2  0
 11 12  1  0
 12 13  1  0
 13 14  1  0
 14 15  1  0
 15 16  1  0
 16 17  1  0
 17 18  1  0
 18 19  1  0
 19 20  1  0
 20 21  1  0
 21 22  1  0
 22 23  1  0
 23 24  1  0
 12 25  2  0
 25 26  1  0
 26 27  1  0
 27 28  1  0
 28 29  1  0
 29 30  1  0
 30 31  2  0
 31 32  1  0
 32 33  2  0
 33 34  1  0
 34 35  2  0
 35 36  1  0
 26 37  2  0
  9 38  1  0
  6  1  1  0
 37 10  1  0
 38  4  1  0
 19 14  1  0
 24 20  1  0
 36 27  1  0
 35 30  1  0
  1 39  1  0
  2 40  1  0
  3 41  1  0
  6 42  1  0
  7 43  1  0
  7 44  1  0
  8 45  1  0
  8 46  1  0
 13 47  1  0
 14 48  1  6
 15 49  1  0
 15 50  1  0
 16 51  1  0
 16 52  1  0
 17 53  1  0
 17 54  1  0
 18 55  1  0
 18 56  1  0
 19 57  1  6
 21 58  1  0
 21 59  1  0
 22 60  1  0
 22 61  1  0
 23 62  1  0
 23 63  1  0
 24 64  1  0
 24 65  1  0
 28 66  1  0
 28 67  1  0
 29 68  1  0
 29 69  1  0
 31 70  1  0
 32 71  1  0
 33 72  1  0
 34 73  1  0
 36 74  1  0
 36 75  1  0
 38 76  1  0
 38 77  1  0
M  END
>  <smiles>  (6) 
c1ccc2c(c1)CCN(c1nc(N[C@@H]3CCCC[C@@H]3N3CCCC3)nc(N3CCc4ccccc4C3)n1)C2

>  <score_type>  (6) 
oracle

>  <origin>  (6) 
autodockgpu

>  <m_score__min__energy>  (6) 
-10.83

>  <m_primary>  (6) 
energy

>  <rmsd>  (6) 
7.942900810878994

>  <m_score__min__rmsd>  (6) 
7.942900810878994

>  <meeko>  (6) 
{"free_energy": -10.73, "intermolecular_energy": -12.22, "internal_energy": -1.91, "cluster_size": 24, "cluster_id": 1, "rank_in_cluster": 4}

>  <energy>  (6) 
-10.67

>  <cluster_rmsd>  (6) 
0.55

>  <cluster>  (6) 
1

$$$$

     RDKit          3D

 77 83  0  0  0  0  0  0  0  0999 V2000
  140.3690   80.7290  223.5310 C   0  0  0  0  0  0  0  0  0  0  0  0
  141.6140   80.3590  223.0480 C   0  0  0  0  0  0  0  0  0  0  0  0
  141.7530   79.1330  222.4420 C   0  0  0  0  0  0  0  0  0  0  0  0
  140.6690   78.2870  222.3180 C   0  0  0  0  0  0  0  0  0  0  0  0
  139.4340   78.6260  222.7850 C   0  0  0  0  0  0  0  0  0  0  0  0
  139.3040   79.8650  223.3950 C   0  0  0  0  0  0  0  0  0  0  0  0
  138.2440   77.7820  222.6890 C   0  0  0  0  0  0  0  0  0  0  0  0
  138.4790   76.3610  222.3240 C   0  0  0  0  0  0  0  0  0  0  0  0
  139.8130   76.0330  221.9100 N   0  0  0  0  0  0  0  0  0  0  0  0
  140.1210   74.6460  221.7280 C   0  0  0  0  0  0  0  0  0  0  0  0
  140.5910   74.1750  220.5590 N   0  0  0  0  0  0  0  0  0  0  0  0
  140.8950   72.8760  220.3330 C   0  0  0  0  0  0  0  0  0  0  0  0
  141.3900   72.4460  219.0630 N   0  0  0  0  0  0  0  0  0  0  0  0
  142.7750   72.5710  218.7550 C   0  0  2  0  0  0  0  0  0  0  0  0
  143.6670   72.8860  219.9310 C   0  0  0  0  0  0  0  0  0  0  0  0
  145.0700   72.4020  219.5320 C   0  0  0  0  0  0  0  0  0  0  0  0
  145.5380   73.1650  218.3110 C   0  0  0  0  0  0  0  0  0  0  0  0
  144.5500   73.0810  217.1950 C   0  0  0  0  0  0  0  0  0  0  0  0
  143.1310   73.4740  217.6280 C   0  0  2  0  0  0  0  0  0  0  0  0
  143.1950   74.8770  217.9540 N   0  0  0  0  0  0  0  0  0  0  0  0
  141.9630   75.4540  218.4080 C   0  0  0  0  0  0  0  0  0  0  0  0
  142.1100   76.9570  218.2120 C   0  0  0  0  0  0  0  0  0  0  0  0
  143.2980   77.0910  217.3190 C   0  0  0  0  0  0  0  0  0  0  0  0
  143.5010   75.6710  216.8050 C   0  0  0  0  0  0  0  0  0  0  0  0
  140.7020   72.0350  221.3640 N   0  0  0  0  0  0  0  0  0  0  0  0
  140.2340   72.4530  222.5530 C   0  0  0  0  0  0  0  0  0  0  0  0
  140.0390   71.5440  223.6260 N   0  0  0  0  0  0  0  0  0  0  0  0
  138.8400   70.7130  223.6800 C   0  0  0  0  0  0  0  0  0  0  0  0
  139.2250   69.4270  224.4020 C   0  0  0  0  0  0  0  0  0  0  0  0
  139.5670   69.8240  225.7900 C   0  0  0  0  0  0  0  0  0  0  0  0
  138.9970   69.2130  226.8810 C   0  0  0  0  0  0  0  0  0  0  0  0
  139.3670   69.6400  228.1510 C   0  0  0  0  0  0  0  0  0  0  0  0
  140.2850   70.6520  228.2820 C   0  0  0  0  0  0  0  0  0  0  0  0
  140.8600   71.2690  227.1910 C   0  0  0  0  0  0  0  0  0  0  0  0
  140.4990   70.8520  225.9220 C   0  0  0  0  0  0  0  0  0  0  0  0
  141.0510   71.4430  224.6830 C   0  0  0  0  0  0  0  0  0  0  0  0
  139.9540   73.7360  222.7140 N   0  0  0  0  0  0  0  0  0  0  0  0
  140.8620   76.9900  221.6660 C   0  0  0  0  0  0  0  0  0  0  0  0
  140.2318   81.7051  224.0193 H   0  0  0  0  0  0  0  0  0  0  0  0
  142.4762   81.0347  223.1478 H   0  0  0  0  0  0  0  0  0  0  0  0
  142.7345   78.8239  222.0533 H   0  0  0  0  0  0  0  0  0  0  0  0
  138.3199   80.1674  223.7824 H   0  0  0  0  0  0  0  0  0  0  0  0
  137.7399   77.7991  223.6666 H   0  0  0  0  0  0  0  0  0  0  0  0
  137.6477   78.2039  221.8665 H   0  0  0  0  0  0  0  0  0  0  0  0
  138.2368   75.7432  223.2013 H   0  0  0  0  0  0  0  0  0  0  0  0
  137.8400   76.1685  221.4496 H   0  0  0  0  0  0  0  0  0  0  0  0
  140.7120   72.0510  218.4040 H   0  0  0  0  0  0  0  0  0  0  0  0
  142.9755   71.5428  218.4193 H   0  0  0  0  0  0  0  0  0  0  0  0
  143.6761   73.9685  220.1261 H   0  0  0  0  0  0  0  0  0  0  0  0
  143.3148   72.3948  220.8500 H   0  0  0  0  0  0  0  0  0  0  0  0
  145.7685   72.5766  220.3636 H   0  0  0  0  0  0  0  0  0  0  0  0
  145.0357   71.3269  219.3020 H   0  0  0  0  0  0  0  0  0  0  0  0
  145.6792   74.2214  218.5833 H   0  0  0  0  0  0  0  0  0  0  0  0
  146.4820   72.7167  217.9676 H   0  0  0  0  0  0  0  0  0  0  0  0
  144.8716   73.7569  216.3889 H   0  0  0  0  0  0  0  0  0  0  0  0
  144.5165   72.0339  216.8596 H   0  0  0  0  0  0  0  0  0  0  0  0
  142.3428   73.3553  216.8700 H   0  0  0  0  0  0  0  0  0  0  0  0
  141.1195   75.0713  217.8147 H   0  0  0  0  0  0  0  0  0  0  0  0
  141.7615   75.2012  219.4594 H   0  0  0  0  0  0  0  0  0  0  0  0
  141.2129   77.3785  217.7350 H   0  0  0  0  0  0  0  0  0  0  0  0
  142.2319   77.4976  219.1622 H   0  0  0  0  0  0  0  0  0  0  0  0
  143.0941   77.7860  216.4911 H   0  0  0  0  0  0  0  0  0  0  0  0
  144.1824   77.4975  217.8315 H   0  0  0  0  0  0  0  0  0  0  0  0
  142.8158   75.4477  215.9740 H   0  0  0  0  0  0  0  0  0  0  0  0
  144.5094   75.4906  216.4043 H   0  0  0  0  0  0  0  0  0  0  0  0
  138.0437   71.2332  224.2325 H   0  0  0  0  0  0  0  0  0  0  0  0
  138.4631   70.4993  222.6689 H   0  0  0  0  0  0  0  0  0  0  0  0
  138.3807   68.7219  224.4032 H   0  0  0  0  0  0  0  0  0  0  0  0
  140.0691   68.9243  223.9071 H   0  0  0  0  0  0  0  0  0  0  0  0
  138.2636   68.4033  226.7520 H   0  0  0  0  0  0  0  0  0  0  0  0
  138.9278   69.1708  229.0437 H   0  0  0  0  0  0  0  0  0  0  0  0
  140.5717   70.9820  229.2914 H   0  0  0  0  0  0  0  0  0  0  0  0
  141.5926   72.0782  227.3271 H   0  0  0  0  0  0  0  0  0  0  0  0
  141.4313   72.4503  224.9084 H   0  0  0  0  0  0  0  0  0  0  0  0
  141.8561   70.7863  224.3219 H   0  0  0  0  0  0  0  0  0  0  0  0
  141.8081   76.5615  222.0282 H   0  0  0  0  0  0  0  0  0  0  0  0
  140.8617   77.1829  220.5830 H   0  0  0  0  0  0  0  0  0  0  0  0
  1  2  2  0
  2  3  1  0
  3  4  2  0
  4  5  1  0
  5  6  2  0
  5  7  1  0
  7  8  1  0
  8  9  1  0
  9 10  1  0
 10 11  2  0
 11 12  1  0
 12 13  1  0
 13 14  1  0
 14 15  1  0
 15 16  1  0
 16 17  1  0
 17 18  1  0
 18 19  1  0
 19 20  1  0
 20 21  1  0
 21 22  1  0
 22 23  1  0
 23 24  1  0
 12 25  2  0
 25 26  1  0
 26 27  1  0
 27 28  1  0
 28 29  1  0
 29 30  1  0
 30 31  2  0
 31 32  1  0
 32 33  2  0
 33 34  1  0
 34 35  2  0
 35 36  1  0
 26 37  2  0
  9 38  1  0
  6  1  1  0
 37 10  1  0
 38  4  1  0
 19 14  1  0
 24 20  1  0
 36 27  1  0
 35 30  1  0
  1 39  1  0
  2 40  1  0
  3 41  1  0
  6 42  1  0
  7 43  1  0
  7 44  1  0
  8 45  1  0
  8 46  1  0
 13 47  1  0
 14 48  1  6
 15 49  1  0
 15 50  1  0
 16 51  1  0
 16 52  1  0
 17 53  1  0
 17 54  1  0
 18 55  1  0
 18 56  1  0
 19 57  1  6
 21 58  1  0
 21 59  1  0
 22 60  1  0
 22 61  1  0
 23 62  1  0
 23 63  1  0
 24 64  1  0
 24 65  1  0
 28 66  1  0
 28 67  1  0
 29 68  1  0
 29 69  1  0
 31 70  1  0
 32 71  1  0
 33 72  1  0
 34 73  1  0
 36 74  1  0
 36 75  1  0
 38 76  1  0
 38 77  1  0
M  END
>  <smiles>  (7) 
c1ccc2c(c1)CCN(c1nc(N[C@@H]3CCCC[C@@H]3N3CCCC3)nc(N3CCc4ccccc4C3)n1)C2

>  <score_type>  (7) 
oracle

>  <origin>  (7) 
autodockgpu

>  <m_score__min__energy>  (7) 
-10.83

>  <m_primary>  (7) 
energy

>  <rmsd>  (7) 
6.126619599037738

>  <m_score__min__rmsd>  (7) 
6.126619599037738

>  <meeko>  (7) 
{"free_energy": -9.68, "intermolecular_energy": -11.17, "internal_energy": -1.98, "cluster_size": 24, "cluster_id": 1, "rank_in_cluster": 20}

>  <energy>  (7) 
-10.64

>  <cluster_rmsd>  (7) 
0.19

>  <cluster>  (7) 
1

$$$$

     RDKit          3D

 77 83  0  0  0  0  0  0  0  0999 V2000
  145.5130   67.8470  219.1010 C   0  0  0  0  0  0  0  0  0  0  0  0
  144.2340   67.3730  219.3470 C   0  0  0  0  0  0  0  0  0  0  0  0
  143.2280   68.2770  219.5950 C   0  0  0  0  0  0  0  0  0  0  0  0
  143.4900   69.6320  219.5970 C   0  0  0  0  0  0  0  0  0  0  0  0
  144.7380   70.1250  219.3580 C   0  0  0  0  0  0  0  0  0  0  0  0
  145.7470   69.2050  219.1090 C   0  0  0  0  0  0  0  0  0  0  0  0
  145.0890   71.5450  219.3450 C   0  0  0  0  0  0  0  0  0  0  0  0
  144.0770   72.4720  219.9160 C   0  0  0  0  0  0  0  0  0  0  0  0
  142.8000   71.8930  220.2230 N   0  0  0  0  0  0  0  0  0  0  0  0
  141.8670   72.7090  220.9410 C   0  0  0  0  0  0  0  0  0  0  0  0
  140.8650   72.1710  221.6580 N   0  0  0  0  0  0  0  0  0  0  0  0
  139.9560   72.8950  222.3520 C   0  0  0  0  0  0  0  0  0  0  0  0
  138.9140   72.2540  223.0910 N   0  0  0  0  0  0  0  0  0  0  0  0
  139.2200   71.1760  223.9700 C   0  0  2  0  0  0  0  0  0  0  0  0
  140.6870   70.9970  224.2780 C   0  0  0  0  0  0  0  0  0  0  0  0
  140.7430   70.2440  225.6160 C   0  0  0  0  0  0  0  0  0  0  0  0
  140.0810   68.8910  225.4620 C   0  0  0  0  0  0  0  0  0  0  0  0
  138.6960   69.0150  224.9180 C   0  0  0  0  0  0  0  0  0  0  0  0
  138.6360   69.8500  223.6320 C   0  0  2  0  0  0  0  0  0  0  0  0
  139.3530   69.0910  222.6380 N   0  0  0  0  0  0  0  0  0  0  0  0
  139.2740   69.6090  221.3020 C   0  0  0  0  0  0  0  0  0  0  0  0
  139.6400   68.4500  220.3850 C   0  0  0  0  0  0  0  0  0  0  0  0
  139.5550   67.2500  221.2670 C   0  0  0  0  0  0  0  0  0  0  0  0
  138.8150   67.7760  222.4910 C   0  0  0  0  0  0  0  0  0  0  0  0
  140.0960   74.2300  222.2960 N   0  0  0  0  0  0  0  0  0  0  0  0
  141.0790   74.8200  221.5940 C   0  0  0  0  0  0  0  0  0  0  0  0
  141.2060   76.2340  221.5510 N   0  0  0  0  0  0  0  0  0  0  0  0
  141.8340   76.8830  220.4050 C   0  0  0  0  0  0  0  0  0  0  0  0
  141.1920   78.2590  220.2680 C   0  0  0  0  0  0  0  0  0  0  0  0
  141.5780   79.0120  221.4870 C   0  0  0  0  0  0  0  0  0  0  0  0
  142.1540   80.2580  221.4180 C   0  0  0  0  0  0  0  0  0  0  0  0
  142.4880   80.9030  222.6030 C   0  0  0  0  0  0  0  0  0  0  0  0
  142.2370   80.2830  223.8020 C   0  0  0  0  0  0  0  0  0  0  0  0
  141.6600   79.0330  223.8780 C   0  0  0  0  0  0  0  0  0  0  0  0
  141.3230   78.3820  222.7040 C   0  0  0  0  0  0  0  0  0  0  0  0
  140.7010   77.0400  222.6670 C   0  0  0  0  0  0  0  0  0  0  0  0
  141.9390   74.0590  220.9350 N   0  0  0  0  0  0  0  0  0  0  0  0
  142.3890   70.5590  219.8650 C   0  0  0  0  0  0  0  0  0  0  0  0
  146.3353   67.1443  218.9008 H   0  0  0  0  0  0  0  0  0  0  0  0
  144.0273   66.2926  219.3439 H   0  0  0  0  0  0  0  0  0  0  0  0
  142.2074   67.9177  219.7932 H   0  0  0  0  0  0  0  0  0  0  0  0
  146.7653   69.5714  218.9119 H   0  0  0  0  0  0  0  0  0  0  0  0
  146.0191   71.6670  219.9195 H   0  0  0  0  0  0  0  0  0  0  0  0
  145.1763   71.8190  218.2833 H   0  0  0  0  0  0  0  0  0  0  0  0
  144.4897   72.8905  220.8458 H   0  0  0  0  0  0  0  0  0  0  0  0
  143.8842   73.2211  219.1339 H   0  0  0  0  0  0  0  0  0  0  0  0
  137.9600   72.6050  222.9600 H   0  0  0  0  0  0  0  0  0  0  0  0
  138.7054   71.5331  224.8743 H   0  0  0  0  0  0  0  0  0  0  0  0
  141.1760   70.4097  223.4868 H   0  0  0  0  0  0  0  0  0  0  0  0
  141.2105   71.9628  224.3339 H   0  0  0  0  0  0  0  0  0  0  0  0
  141.7924   70.1067  225.9158 H   0  0  0  0  0  0  0  0  0  0  0  0
  140.2146   70.8251  226.3861 H   0  0  0  0  0  0  0  0  0  0  0  0
  140.6807   68.2764  224.7746 H   0  0  0  0  0  0  0  0  0  0  0  0
  140.0195   68.4231  226.4557 H   0  0  0  0  0  0  0  0  0  0  0  0
  138.3118   68.0073  224.7012 H   0  0  0  0  0  0  0  0  0  0  0  0
  138.0867   69.5291  225.6760 H   0  0  0  0  0  0  0  0  0  0  0  0
  137.6322   70.0439  223.2260 H   0  0  0  0  0  0  0  0  0  0  0  0
  138.2539   69.9601  221.0870 H   0  0  0  0  0  0  0  0  0  0  0  0
  139.9485   70.4662  221.1598 H   0  0  0  0  0  0  0  0  0  0  0  0
  138.9282   68.3725  219.5499 H   0  0  0  0  0  0  0  0  0  0  0  0
  140.6334   68.5696  219.9281 H   0  0  0  0  0  0  0  0  0  0  0  0
  138.9899   66.4411  220.7807 H   0  0  0  0  0  0  0  0  0  0  0  0
  140.5377   66.8179  221.5070 H   0  0  0  0  0  0  0  0  0  0  0  0
  137.7296   67.8082  222.3155 H   0  0  0  0  0  0  0  0  0  0  0  0
  138.9444   67.1476  223.3845 H   0  0  0  0  0  0  0  0  0  0  0  0
  142.9160   76.9857  220.5746 H   0  0  0  0  0  0  0  0  0  0  0  0
  141.6917   76.2895  219.4899 H   0  0  0  0  0  0  0  0  0  0  0  0
  141.5679   78.7686  219.3686 H   0  0  0  0  0  0  0  0  0  0  0  0
  140.0990   78.1862  220.1679 H   0  0  0  0  0  0  0  0  0  0  0  0
  142.3466   80.7347  220.4455 H   0  0  0  0  0  0  0  0  0  0  0  0
  142.9493   81.9013  222.5804 H   0  0  0  0  0  0  0  0  0  0  0  0
  142.5055   80.8014  224.7343 H   0  0  0  0  0  0  0  0  0  0  0  0
  141.4710   78.5618  224.8538 H   0  0  0  0  0  0  0  0  0  0  0  0
  140.9222   76.5194  223.6104 H   0  0  0  0  0  0  0  0  0  0  0  0
  139.6173   77.1701  222.5306 H   0  0  0  0  0  0  0  0  0  0  0  0
  141.7909   70.1507  220.6930 H   0  0  0  0  0  0  0  0  0  0  0  0
  141.8227   70.6492  218.9263 H   0  0  0  0  0  0  0  0  0  0  0  0
  1  2  2  0
  2  3  1  0
  3  4  2  0
  4  5  1  0
  5  6  2  0
  5  7  1  0
  7  8  1  0
  8  9  1  0
  9 10  1  0
 10 11  2  0
 11 12  1  0
 12 13  1  0
 13 14  1  0
 14 15  1  0
 15 16  1  0
 16 17  1  0
 17 18  1  0
 18 19  1  0
 19 20  1  0
 20 21  1  0
 21 22  1  0
 22 23  1  0
 23 24  1  0
 12 25  2  0
 25 26  1  0
 26 27  1  0
 27 28  1  0
 28 29  1  0
 29 30  1  0
 30 31  2  0
 31 32  1  0
 32 33  2  0
 33 34  1  0
 34 35  2  0
 35 36  1  0
 26 37  2  0
  9 38  1  0
  6  1  1  0
 37 10  1  0
 38  4  1  0
 19 14  1  0
 24 20  1  0
 36 27  1  0
 35 30  1  0
  1 39  1  0
  2 40  1  0
  3 41  1  0
  6 42  1  0
  7 43  1  0
  7 44  1  0
  8 45  1  0
  8 46  1  0
 13 47  1  0
 14 48  1  1
 15 49  1  0
 15 50  1  0
 16 51  1  0
 16 52  1  0
 17 53  1  0
 17 54  1  0
 18 55  1  0
 18 56  1  0
 19 57  1  6
 21 58  1  0
 21 59  1  0
 22 60  1  0
 22 61  1  0
 23 62  1  0
 23 63  1  0
 24 64  1  0
 24 65  1  0
 28 66  1  0
 28 67  1  0
 29 68  1  0
 29 69  1  0
 31 70  1  0
 32 71  1  0
 33 72  1  0
 34 73  1  0
 36 74  1  0
 36 75  1  0
 38 76  1  0
 38 77  1  0
M  END
>  <smiles>  (8) 
c1ccc2c(c1)CCN(c1nc(N[C@@H]3CCCC[C@@H]3N3CCCC3)nc(N3CCc4ccccc4C3)n1)C2

>  <score_type>  (8) 
oracle

>  <origin>  (8) 
autodockgpu

>  <m_score__min__energy>  (8) 
-10.83

>  <m_primary>  (8) 
energy

>  <rmsd>  (8) 
10.066906511900923

>  <m_score__min__rmsd>  (8) 
10.066906511900923

>  <meeko>  (8) 
{"free_energy": -10.06, "intermolecular_energy": -11.55, "internal_energy": -2.2, "cluster_size": 25, "cluster_id": 2, "rank_in_cluster": 21}

>  <energy>  (8) 
-10.61

>  <cluster_rmsd>  (8) 
0.58

>  <cluster>  (8) 
1

$$$$

     RDKit          3D

 77 83  0  0  0  0  0  0  0  0999 V2000
  140.3820   67.9990  226.6240 C   0  0  0  0  0  0  0  0  0  0  0  0
  141.0700   69.1190  227.0660 C   0  0  0  0  0  0  0  0  0  0  0  0
  140.9850   70.2800  226.3340 C   0  0  0  0  0  0  0  0  0  0  0  0
  140.2280   70.3270  225.1810 C   0  0  0  0  0  0  0  0  0  0  0  0
  139.5420   69.2410  224.7250 C   0  0  0  0  0  0  0  0  0  0  0  0
  139.6340   68.0740  225.4700 C   0  0  0  0  0  0  0  0  0  0  0  0
  138.7220   69.2180  223.5150 C   0  0  0  0  0  0  0  0  0  0  0  0
  138.8940   70.3660  222.5870 C   0  0  0  0  0  0  0  0  0  0  0  0
  139.6880   71.4550  223.0800 N   0  0  0  0  0  0  0  0  0  0  0  0
  140.0260   72.4920  222.1520 C   0  0  0  0  0  0  0  0  0  0  0  0
  140.5130   72.2130  220.9290 N   0  0  0  0  0  0  0  0  0  0  0  0
  140.8500   73.1530  220.0150 C   0  0  0  0  0  0  0  0  0  0  0  0
  141.3640   72.7820  218.7340 N   0  0  0  0  0  0  0  0  0  0  0  0
  142.1940   73.6850  218.0090 C   0  0  2  0  0  0  0  0  0  0  0  0
  143.0690   73.0470  216.9580 C   0  0  0  0  0  0  0  0  0  0  0  0
  143.3930   74.1620  215.9520 C   0  0  0  0  0  0  0  0  0  0  0  0
  144.1520   75.2690  216.6520 C   0  0  0  0  0  0  0  0  0  0  0  0
  143.4210   75.7620  217.8570 C   0  0  0  0  0  0  0  0  0  0  0  0
  143.0170   74.6290  218.8110 C   0  0  2  0  0  0  0  0  0  0  0  0
  144.2510   74.0920  219.3270 N   0  0  0  0  0  0  0  0  0  0  0  0
  144.1480   72.7900  219.9210 C   0  0  0  0  0  0  0  0  0  0  0  0
  145.3750   72.6400  220.8100 C   0  0  0  0  0  0  0  0  0  0  0  0
  145.9090   74.0280  220.9270 C   0  0  0  0  0  0  0  0  0  0  0  0
  144.7600   74.8820  220.4030 C   0  0  0  0  0  0  0  0  0  0  0  0
  140.6730   74.4320  220.3890 N   0  0  0  0  0  0  0  0  0  0  0  0
  140.1900   74.7660  221.5990 C   0  0  0  0  0  0  0  0  0  0  0  0
  140.0120   76.1250  221.9690 N   0  0  0  0  0  0  0  0  0  0  0  0
  138.7860   76.8320  221.6110 C   0  0  0  0  0  0  0  0  0  0  0  0
  138.5480   77.8820  222.6900 C   0  0  0  0  0  0  0  0  0  0  0  0
  139.6760   78.8410  222.5820 C   0  0  0  0  0  0  0  0  0  0  0  0
  139.4690   80.1950  222.4740 C   0  0  0  0  0  0  0  0  0  0  0  0
  140.5740   81.0310  222.3770 C   0  0  0  0  0  0  0  0  0  0  0  0
  141.8350   80.4870  222.3920 C   0  0  0  0  0  0  0  0  0  0  0  0
  142.0490   79.1290  222.5000 C   0  0  0  0  0  0  0  0  0  0  0  0
  140.9550   78.2870  222.5970 C   0  0  0  0  0  0  0  0  0  0  0  0
  141.0670   76.8170  222.7160 C   0  0  0  0  0  0  0  0  0  0  0  0
  139.8780   73.8020  222.4510 N   0  0  0  0  0  0  0  0  0  0  0  0
  140.1660   71.5840  224.4330 C   0  0  0  0  0  0  0  0  0  0  0  0
  140.4333   67.0577  227.1909 H   0  0  0  0  0  0  0  0  0  0  0  0
  141.6727   69.0794  227.9853 H   0  0  0  0  0  0  0  0  0  0  0  0
  141.5244   71.1779  226.6699 H   0  0  0  0  0  0  0  0  0  0  0  0
  139.0921   67.1800  225.1279 H   0  0  0  0  0  0  0  0  0  0  0  0
  138.9652   68.2990  222.9615 H   0  0  0  0  0  0  0  0  0  0  0  0
  137.6800   69.2728  223.8630 H   0  0  0  0  0  0  0  0  0  0  0  0
  139.3700   69.9897  221.6695 H   0  0  0  0  0  0  0  0  0  0  0  0
  137.8859   70.7780  222.4319 H   0  0  0  0  0  0  0  0  0  0  0  0
  141.1130   71.8560  218.3770 H   0  0  0  0  0  0  0  0  0  0  0  0
  141.4151   74.2816  217.5116 H   0  0  0  0  0  0  0  0  0  0  0  0
  143.9932   72.6599  217.4120 H   0  0  0  0  0  0  0  0  0  0  0  0
  142.5663   72.1971  216.4733 H   0  0  0  0  0  0  0  0  0  0  0  0
  144.0092   73.7532  215.1376 H   0  0  0  0  0  0  0  0  0  0  0  0
  142.4571   74.5648  215.5374 H   0  0  0  0  0  0  0  0  0  0  0  0
  145.1351   74.8860  216.9631 H   0  0  0  0  0  0  0  0  0  0  0  0
  144.2609   76.1082  215.9493 H   0  0  0  0  0  0  0  0  0  0  0  0
  144.0710   76.4639  218.3999 H   0  0  0  0  0  0  0  0  0  0  0  0
  142.4975   76.2479  217.5091 H   0  0  0  0  0  0  0  0  0  0  0  0
  142.4057   74.9199  219.6780 H   0  0  0  0  0  0  0  0  0  0  0  0
  143.2291   72.7145  220.5209 H   0  0  0  0  0  0  0  0  0  0  0  0
  144.1029   71.9996  219.1573 H   0  0  0  0  0  0  0  0  0  0  0  0
  145.0960   72.2440  221.7976 H   0  0  0  0  0  0  0  0  0  0  0  0
  146.1129   71.9363  220.3972 H   0  0  0  0  0  0  0  0  0  0  0  0
  146.1406   74.2757  221.9734 H   0  0  0  0  0  0  0  0  0  0  0  0
  146.8485   74.1792  220.3753 H   0  0  0  0  0  0  0  0  0  0  0  0
  143.9951   75.0375  221.1781 H   0  0  0  0  0  0  0  0  0  0  0  0
  145.0697   75.8920  220.0963 H   0  0  0  0  0  0  0  0  0  0  0  0
  138.9018   77.3170  220.6305 H   0  0  0  0  0  0  0  0  0  0  0  0
  137.9362   76.1368  221.5445 H   0  0  0  0  0  0  0  0  0  0  0  0
  137.5910   78.3964  222.5185 H   0  0  0  0  0  0  0  0  0  0  0  0
  138.4989   77.4280  223.6908 H   0  0  0  0  0  0  0  0  0  0  0  0
  138.4496   80.6083  222.4645 H   0  0  0  0  0  0  0  0  0  0  0  0
  140.4403   82.1193  222.2889 H   0  0  0  0  0  0  0  0  0  0  0  0
  142.7038   81.1573  222.3153 H   0  0  0  0  0  0  0  0  0  0  0  0
  143.0710   78.7223  222.5089 H   0  0  0  0  0  0  0  0  0  0  0  0
  142.0453   76.5022  222.3237 H   0  0  0  0  0  0  0  0  0  0  0  0
  140.9614   76.5524  223.7785 H   0  0  0  0  0  0  0  0  0  0  0  0
  141.1782   72.0134  224.3996 H   0  0  0  0  0  0  0  0  0  0  0  0
  139.4423   72.2239  224.9591 H   0  0  0  0  0  0  0  0  0  0  0  0
  1  2  2  0
  2  3  1  0
  3  4  2  0
  4  5  1  0
  5  6  2  0
  5  7  1  0
  7  8  1  0
  8  9  1  0
  9 10  1  0
 10 11  2  0
 11 12  1  0
 12 13  1  0
 13 14  1  0
 14 15  1  0
 15 16  1  0
 16 17  1  0
 17 18  1  0
 18 19  1  0
 19 20  1  0
 20 21  1  0
 21 22  1  0
 22 23  1  0
 23 24  1  0
 12 25  2  0
 25 26  1  0
 26 27  1  0
 27 28  1  0
 28 29  1  0
 29 30  1  0
 30 31  2  0
 31 32  1  0
 32 33  2  0
 33 34  1  0
 34 35  2  0
 35 36  1  0
 26 37  2  0
  9 38  1  0
  6  1  1  0
 37 10  1  0
 38  4  1  0
 19 14  1  0
 24 20  1  0
 36 27  1  0
 35 30  1  0
  1 39  1  0
  2 40  1  0
  3 41  1  0
  6 42  1  0
  7 43  1  0
  7 44  1  0
  8 45  1  0
  8 46  1  0
 13 47  1  0
 14 48  1  6
 15 49  1  0
 15 50  1  0
 16 51  1  0
 16 52  1  0
 17 53  1  0
 17 54  1  0
 18 55  1  0
 18 56  1  0
 19 57  1  1
 21 58  1  0
 21 59  1  0
 22 60  1  0
 22 61  1  0
 23 62  1  0
 23 63  1  0
 24 64  1  0
 24 65  1  0
 28 66  1  0
 28 67  1  0
 29 68  1  0
 29 69  1  0
 31 70  1  0
 32 71  1  0
 33 72  1  0
 34 73  1  0
 36 74  1  0
 36 75  1  0
 38 76  1  0
 38 77  1  0
M  END
>  <smiles>  (9) 
c1ccc2c(c1)CCN(c1nc(N[C@@H]3CCCC[C@@H]3N3CCCC3)nc(N3CCc4ccccc4C3)n1)C2

>  <score_type>  (9) 
oracle

>  <origin>  (9) 
autodockgpu

>  <m_score__min__energy>  (9) 
-10.83

>  <m_primary>  (9) 
energy

>  <rmsd>  (9) 
6.448537813379868

>  <m_score__min__rmsd>  (9) 
6.448537813379868

>  <meeko>  (9) 
{"free_energy": -9.73, "intermolecular_energy": -11.22, "internal_energy": -1.85, "cluster_size": 24, "cluster_id": 1, "rank_in_cluster": 19}

>  <energy>  (9) 
-10.52

>  <cluster_rmsd>  (9) 
0.62

>  <cluster>  (9) 
1

$$$$

     RDKit          3D

 77 83  0  0  0  0  0  0  0  0999 V2000
  141.4230   81.2790  223.6370 C   0  0  0  0  0  0  0  0  0  0  0  0
  142.6140   80.7250  223.1950 C   0  0  0  0  0  0  0  0  0  0  0  0
  142.5890   79.4820  222.6070 C   0  0  0  0  0  0  0  0  0  0  0  0
  141.3970   78.8020  222.4600 C   0  0  0  0  0  0  0  0  0  0  0  0
  140.2130   79.3240  222.8860 C   0  0  0  0  0  0  0  0  0  0  0  0
  140.2470   80.5780  223.4780 C   0  0  0  0  0  0  0  0  0  0  0  0
  138.9140   78.6610  222.7640 C   0  0  0  0  0  0  0  0  0  0  0  0
  138.9490   77.2150  222.4210 C   0  0  0  0  0  0  0  0  0  0  0  0
  140.2330   76.6910  222.0520 N   0  0  0  0  0  0  0  0  0  0  0  0
  140.3390   75.2710  221.8940 C   0  0  0  0  0  0  0  0  0  0  0  0
  139.3900   74.4360  222.3540 N   0  0  0  0  0  0  0  0  0  0  0  0
  139.4420   73.0890  222.2330 C   0  0  0  0  0  0  0  0  0  0  0  0
  138.3960   72.2630  222.7500 N   0  0  0  0  0  0  0  0  0  0  0  0
  138.7010   71.2010  223.6480 C   0  0  2  0  0  0  0  0  0  0  0  0
  140.1190   71.1850  224.1630 C   0  0  0  0  0  0  0  0  0  0  0  0
  140.0740   70.4020  225.4850 C   0  0  0  0  0  0  0  0  0  0  0  0
  139.6080   68.9870  225.2160 C   0  0  0  0  0  0  0  0  0  0  0  0
  138.3100   68.9640  224.4780 C   0  0  0  0  0  0  0  0  0  0  0  0
  138.3340   69.8280  223.2090 C   0  0  2  0  0  0  0  0  0  0  0  0
  139.2730   69.1900  222.3190 N   0  0  0  0  0  0  0  0  0  0  0  0
  139.4540   69.8440  221.0550 C   0  0  0  0  0  0  0  0  0  0  0  0
  140.0480   68.7940  220.1250 C   0  0  0  0  0  0  0  0  0  0  0  0
  139.8280   67.5060  220.8460 C   0  0  0  0  0  0  0  0  0  0  0  0
  138.8290   67.8880  221.9310 C   0  0  0  0  0  0  0  0  0  0  0  0
  140.5240   72.5930  221.6090 N   0  0  0  0  0  0  0  0  0  0  0  0
  141.5020   73.3810  221.1300 C   0  0  0  0  0  0  0  0  0  0  0  0
  142.6340   72.8320  220.4740 N   0  0  0  0  0  0  0  0  0  0  0  0
  143.2410   73.5290  219.3440 C   0  0  0  0  0  0  0  0  0  0  0  0
  144.7240   73.1760  219.3500 C   0  0  0  0  0  0  0  0  0  0  0  0
  144.7990   71.7180  219.0810 C   0  0  0  0  0  0  0  0  0  0  0  0
  145.5940   71.2040  218.0850 C   0  0  0  0  0  0  0  0  0  0  0  0
  145.6120   69.8290  217.8930 C   0  0  0  0  0  0  0  0  0  0  0  0
  144.8410   69.0240  218.6950 C   0  0  0  0  0  0  0  0  0  0  0  0
  144.0410   69.5340  219.6950 C   0  0  0  0  0  0  0  0  0  0  0  0
  144.0150   70.9030  219.8960 C   0  0  0  0  0  0  0  0  0  0  0  0
  143.1940   71.5580  220.9380 C   0  0  0  0  0  0  0  0  0  0  0  0
  141.3950   74.6920  221.2790 N   0  0  0  0  0  0  0  0  0  0  0  0
  141.4170   77.4810  221.8280 C   0  0  0  0  0  0  0  0  0  0  0  0
  141.4163   82.2714  224.1115 H   0  0  0  0  0  0  0  0  0  0  0  0
  143.5624   81.2698  223.3124 H   0  0  0  0  0  0  0  0  0  0  0  0
  143.5252   79.0268  222.2515 H   0  0  0  0  0  0  0  0  0  0  0  0
  139.3068   81.0266  223.8313 H   0  0  0  0  0  0  0  0  0  0  0  0
  138.3911   78.7659  223.7261 H   0  0  0  0  0  0  0  0  0  0  0  0
  138.4084   79.1533  221.9202 H   0  0  0  0  0  0  0  0  0  0  0  0
  138.5938   76.6519  223.2966 H   0  0  0  0  0  0  0  0  0  0  0  0
  138.3140   77.1042  221.5296 H   0  0  0  0  0  0  0  0  0  0  0  0
  137.4390   72.4730  222.4480 H   0  0  0  0  0  0  0  0  0  0  0  0
  138.0244   71.4663  224.4737 H   0  0  0  0  0  0  0  0  0  0  0  0
  140.7827   70.6838  223.4430 H   0  0  0  0  0  0  0  0  0  0  0  0
  140.5093   72.2032  224.3079 H   0  0  0  0  0  0  0  0  0  0  0  0
  141.0788   70.3787  225.9321 H   0  0  0  0  0  0  0  0  0  0  0  0
  139.3760   70.8929  226.1791 H   0  0  0  0  0  0  0  0  0  0  0  0
  140.3695   68.4692  224.6143 H   0  0  0  0  0  0  0  0  0  0  0  0
  139.4614   68.4844  226.1834 H   0  0  0  0  0  0  0  0  0  0  0  0
  138.0860   67.9256  224.1924 H   0  0  0  0  0  0  0  0  0  0  0  0
  137.5405   69.3773  225.1466 H   0  0  0  0  0  0  0  0  0  0  0  0
  137.3823   69.9164  222.6645 H   0  0  0  0  0  0  0  0  0  0  0  0
  138.4882   70.1983  220.6654 H   0  0  0  0  0  0  0  0  0  0  0  0
  140.1096   70.7227  221.1443 H   0  0  0  0  0  0  0  0  0  0  0  0
  139.5292   68.7925  219.1551 H   0  0  0  0  0  0  0  0  0  0  0  0
  141.1093   68.9781  219.9021 H   0  0  0  0  0  0  0  0  0  0  0  0
  139.4091   66.7429  220.1736 H   0  0  0  0  0  0  0  0  0  0  0  0
  140.7550   67.0681  221.2445 H   0  0  0  0  0  0  0  0  0  0  0  0
  137.8039   67.9201  221.5334 H   0  0  0  0  0  0  0  0  0  0  0  0
  138.7932   67.1714  222.7648 H   0  0  0  0  0  0  0  0  0  0  0  0
  142.7775   73.1987  218.4027 H   0  0  0  0  0  0  0  0  0  0  0  0
  143.0949   74.6160  219.4277 H   0  0  0  0  0  0  0  0  0  0  0  0
  145.2535   73.7370  218.5659 H   0  0  0  0  0  0  0  0  0  0  0  0
  145.1954   73.4332  220.3100 H   0  0  0  0  0  0  0  0  0  0  0  0
  146.2030   71.8675  217.4535 H   0  0  0  0  0  0  0  0  0  0  0  0
  146.2392   69.3878  217.1043 H   0  0  0  0  0  0  0  0  0  0  0  0
  144.8625   67.9360  218.5341 H   0  0  0  0  0  0  0  0  0  0  0  0
  143.4339   68.8646  220.3222 H   0  0  0  0  0  0  0  0  0  0  0  0
  142.3679   70.8862  221.2141 H   0  0  0  0  0  0  0  0  0  0  0  0
  143.8426   71.7657  221.8019 H   0  0  0  0  0  0  0  0  0  0  0  0
  142.2802   76.9249  222.2225 H   0  0  0  0  0  0  0  0  0  0  0  0
  141.4751   77.6551  220.7434 H   0  0  0  0  0  0  0  0  0  0  0  0
  1  2  2  0
  2  3  1  0
  3  4  2  0
  4  5  1  0
  5  6  2  0
  5  7  1  0
  7  8  1  0
  8  9  1  0
  9 10  1  0
 10 11  2  0
 11 12  1  0
 12 13  1  0
 13 14  1  0
 14 15  1  0
 15 16  1  0
 16 17  1  0
 17 18  1  0
 18 19  1  0
 19 20  1  0
 20 21  1  0
 21 22  1  0
 22 23  1  0
 23 24  1  0
 12 25  2  0
 25 26  1  0
 26 27  1  0
 27 28  1  0
 28 29  1  0
 29 30  1  0
 30 31  2  0
 31 32  1  0
 32 33  2  0
 33 34  1  0
 34 35  2  0
 35 36  1  0
 26 37  2  0
  9 38  1  0
  6  1  1  0
 37 10  1  0
 38  4  1  0
 19 14  1  0
 24 20  1  0
 36 27  1  0
 35 30  1  0
  1 39  1  0
  2 40  1  0
  3 41  1  0
  6 42  1  0
  7 43  1  0
  7 44  1  0
  8 45  1  0
  8 46  1  0
 13 47  1  0
 14 48  1  1
 15 49  1  0
 15 50  1  0
 16 51  1  0
 16 52  1  0
 17 53  1  0
 17 54  1  0
 18 55  1  0
 18 56  1  0
 19 57  1  6
 21 58  1  0
 21 59  1  0
 22 60  1  0
 22 61  1  0
 23 62  1  0
 23 63  1  0
 24 64  1  0
 24 65  1  0
 28 66  1  0
 28 67  1  0
 29 68  1  0
 29 69  1  0
 31 70  1  0
 32 71  1  0
 33 72  1  0
 34 73  1  0
 36 74  1  0
 36 75  1  0
 38 76  1  0
 38 77  1  0
M  END
>  <smiles>  (10) 
c1ccc2c(c1)CCN(c1nc(N[C@@H]3CCCC[C@@H]3N3CCCC3)nc(N3CCc4ccccc4C3)n1)C2

>  <score_type>  (10) 
oracle

>  <origin>  (10) 
autodockgpu

>  <m_score__min__energy>  (10) 
-10.83

>  <m_primary>  (10) 
energy

>  <rmsd>  (10) 
9.858688622199686

>  <m_score__min__rmsd>  (10) 
9.858688622199686

>  <meeko>  (10) 
{"free_energy": -9.13, "intermolecular_energy": -10.62, "internal_energy": -2.09, "cluster_size": 25, "cluster_id": 2, "rank_in_cluster": 25}

>  <energy>  (10) 
-10.51

>  <cluster_rmsd>  (10) 
0.65

>  <cluster>  (10) 
1

$$$$

     RDKit          3D

 77 83  0  0  0  0  0  0  0  0999 V2000
  145.9500   68.0400  219.1640 C   0  0  0  0  0  0  0  0  0  0  0  0
  144.6980   67.5000  219.4120 C   0  0  0  0  0  0  0  0  0  0  0  0
  143.6390   68.3520  219.6260 C   0  0  0  0  0  0  0  0  0  0  0  0
  143.8240   69.7190  219.5920 C   0  0  0  0  0  0  0  0  0  0  0  0
  145.0440   70.2760  219.3500 C   0  0  0  0  0  0  0  0  0  0  0  0
  146.1070   69.4090  219.1360 C   0  0  0  0  0  0  0  0  0  0  0  0
  145.3130   71.7120  219.2990 C   0  0  0  0  0  0  0  0  0  0  0  0
  144.2450   72.5950  219.8350 C   0  0  0  0  0  0  0  0  0  0  0  0
  143.0000   71.9530  220.1480 N   0  0  0  0  0  0  0  0  0  0  0  0
  142.0150   72.7340  220.8340 C   0  0  0  0  0  0  0  0  0  0  0  0
  140.9830   72.1610  221.4780 N   0  0  0  0  0  0  0  0  0  0  0  0
  140.0250   72.8510  222.1390 C   0  0  0  0  0  0  0  0  0  0  0  0
  138.9540   72.1730  222.8010 N   0  0  0  0  0  0  0  0  0  0  0  0
  139.2250   71.3160  223.9060 C   0  0  2  0  0  0  0  0  0  0  0  0
  140.6870   71.1240  224.2240 C   0  0  0  0  0  0  0  0  0  0  0  0
  140.7410   70.7060  225.7020 C   0  0  0  0  0  0  0  0  0  0  0  0
  139.9980   69.3990  225.8840 C   0  0  0  0  0  0  0  0  0  0  0  0
  138.6070   69.4770  225.3480 C   0  0  0  0  0  0  0  0  0  0  0  0
  138.5560   69.9870  223.9010 C   0  0  2  0  0  0  0  0  0  0  0  0
  139.1990   68.9720  223.1040 N   0  0  0  0  0  0  0  0  0  0  0  0
  139.3410   69.2890  221.7120 C   0  0  0  0  0  0  0  0  0  0  0  0
  139.5570   67.9590  221.0020 C   0  0  0  0  0  0  0  0  0  0  0  0
  139.1630   66.9390  222.0180 C   0  0  0  0  0  0  0  0  0  0  0  0
  138.4320   67.7670  223.0690 C   0  0  0  0  0  0  0  0  0  0  0  0
  140.1460   74.1890  222.1280 N   0  0  0  0  0  0  0  0  0  0  0  0
  141.1570   74.8140  221.5000 C   0  0  0  0  0  0  0  0  0  0  0  0
  141.2620   76.2300  221.5040 N   0  0  0  0  0  0  0  0  0  0  0  0
  141.8310   76.9300  220.3560 C   0  0  0  0  0  0  0  0  0  0  0  0
  141.1660   78.2990  220.2970 C   0  0  0  0  0  0  0  0  0  0  0  0
  141.5930   79.0140  221.5260 C   0  0  0  0  0  0  0  0  0  0  0  0
  142.1480   80.2710  221.4790 C   0  0  0  0  0  0  0  0  0  0  0  0
  142.5240   80.8770  222.6710 C   0  0  0  0  0  0  0  0  0  0  0  0
  142.3330   80.2110  223.8560 C   0  0  0  0  0  0  0  0  0  0  0  0
  141.7770   78.9500  223.9100 C   0  0  0  0  0  0  0  0  0  0  0  0
  141.3990   78.3370  222.7290 C   0  0  0  0  0  0  0  0  0  0  0  0
  140.7950   76.9880  222.6690 C   0  0  0  0  0  0  0  0  0  0  0  0
  142.0640   74.0850  220.8700 N   0  0  0  0  0  0  0  0  0  0  0  0
  142.6690   70.5890  219.8240 C   0  0  0  0  0  0  0  0  0  0  0  0
  146.8129   67.3802  218.9906 H   0  0  0  0  0  0  0  0  0  0  0  0
  144.5535   66.4098  219.4373 H   0  0  0  0  0  0  0  0  0  0  0  0
  142.6385   67.9408  219.8255 H   0  0  0  0  0  0  0  0  0  0  0  0
  147.1049   69.8274  218.9381 H   0  0  0  0  0  0  0  0  0  0  0  0
  146.2292   71.9033  219.8769 H   0  0  0  0  0  0  0  0  0  0  0  0
  145.3941   71.9604  218.2305 H   0  0  0  0  0  0  0  0  0  0  0  0
  144.6243   73.0621  220.7558 H   0  0  0  0  0  0  0  0  0  0  0  0
  144.0176   73.3098  219.0304 H   0  0  0  0  0  0  0  0  0  0  0  0
  138.0060   72.3350  222.4480 H   0  0  0  0  0  0  0  0  0  0  0  0
  138.7600   71.9074  224.7085 H   0  0  0  0  0  0  0  0  0  0  0  0
  141.1177   70.3373  223.5872 H   0  0  0  0  0  0  0  0  0  0  0  0
  141.2657   72.0413  224.0406 H   0  0  0  0  0  0  0  0  0  0  0  0
  141.7895   70.5776  226.0087 H   0  0  0  0  0  0  0  0  0  0  0  0
  140.2709   71.4845  226.3208 H   0  0  0  0  0  0  0  0  0  0  0  0
  140.5408   68.6031  225.3530 H   0  0  0  0  0  0  0  0  0  0  0  0
  139.9395   69.1842  226.9612 H   0  0  0  0  0  0  0  0  0  0  0  0
  138.1599   68.4726  225.3828 H   0  0  0  0  0  0  0  0  0  0  0  0
  138.0509   70.1924  225.9716 H   0  0  0  0  0  0  0  0  0  0  0  0
  137.5531   70.1414  223.4764 H   0  0  0  0  0  0  0  0  0  0  0  0
  138.4311   69.7801  221.3365 H   0  0  0  0  0  0  0  0  0  0  0  0
  140.1785   69.9807  221.5383 H   0  0  0  0  0  0  0  0  0  0  0  0
  138.9212   67.8856  220.1074 H   0  0  0  0  0  0  0  0  0  0  0  0
  140.5915   67.8295  220.6513 H   0  0  0  0  0  0  0  0  0  0  0  0
  138.4980   66.1804  221.5795 H   0  0  0  0  0  0  0  0  0  0  0  0
  140.0181   66.3792  222.4247 H   0  0  0  0  0  0  0  0  0  0  0  0
  137.3934   67.9659  222.7662 H   0  0  0  0  0  0  0  0  0  0  0  0
  138.3571   67.2671  224.0460 H   0  0  0  0  0  0  0  0  0  0  0  0
  142.9178   77.0428  220.4826 H   0  0  0  0  0  0  0  0  0  0  0  0
  141.6568   76.3678  219.4267 H   0  0  0  0  0  0  0  0  0  0  0  0
  141.4965   78.8463  219.4019 H   0  0  0  0  0  0  0  0  0  0  0  0
  140.0708   78.2131  220.2405 H   0  0  0  0  0  0  0  0  0  0  0  0
  142.2913   80.7860  220.5176 H   0  0  0  0  0  0  0  0  0  0  0  0
  142.9710   81.8821  222.6654 H   0  0  0  0  0  0  0  0  0  0  0  0
  142.6336   80.6997  224.7945 H   0  0  0  0  0  0  0  0  0  0  0  0
  141.6366   78.4409  224.8749 H   0  0  0  0  0  0  0  0  0  0  0  0
  141.0639   76.4372  223.5824 H   0  0  0  0  0  0  0  0  0  0  0  0
  139.7048   77.1067  222.5832 H   0  0  0  0  0  0  0  0  0  0  0  0
  142.0863   70.1702  220.6577 H   0  0  0  0  0  0  0  0  0  0  0  0
  142.1083   70.6209  218.8782 H   0  0  0  0  0  0  0  0  0  0  0  0
  1  2  2  0
  2  3  1  0
  3  4  2  0
  4  5  1  0
  5  6  2  0
  5  7  1  0
  7  8  1  0
  8  9  1  0
  9 10  1  0
 10 11  2  0
 11 12  1  0
 12 13  1  0
 13 14  1  0
 14 15  1  0
 15 16  1  0
 16 17  1  0
 17 18  1  0
 18 19  1  0
 19 20  1  0
 20 21  1  0
 21 22  1  0
 22 23  1  0
 23 24  1  0
 12 25  2  0
 25 26  1  0
 26 27  1  0
 27 28  1  0
 28 29  1  0
 29 30  1  0
 30 31  2  0
 31 32  1  0
 32 33  2  0
 33 34  1  0
 34 35  2  0
 35 36  1  0
 26 37  2  0
  9 38  1  0
  6  1  1  0
 37 10  1  0
 38  4  1  0
 19 14  1  0
 24 20  1  0
 36 27  1  0
 35 30  1  0
  1 39  1  0
  2 40  1  0
  3 41  1  0
  6 42  1  0
  7 43  1  0
  7 44  1  0
  8 45  1  0
  8 46  1  0
 13 47  1  0
 14 48  1  1
 15 49  1  0
 15 50  1  0
 16 51  1  0
 16 52  1  0
 17 53  1  0
 17 54  1  0
 18 55  1  0
 18 56  1  0
 19 57  1  6
 21 58  1  0
 21 59  1  0
 22 60  1  0
 22 61  1  0
 23 62  1  0
 23 63  1  0
 24 64  1  0
 24 65  1  0
 28 66  1  0
 28 67  1  0
 29 68  1  0
 29 69  1  0
 31 70  1  0
 32 71  1  0
 33 72  1  0
 34 73  1  0
 36 74  1  0
 36 75  1  0
 38 76  1  0
 38 77  1  0
M  END
>  <smiles>  (11) 
c1ccc2c(c1)CCN(c1nc(N[C@@H]3CCCC[C@@H]3N3CCCC3)nc(N3CCc4ccccc4C3)n1)C2

>  <score_type>  (11) 
oracle

>  <origin>  (11) 
autodockgpu

>  <m_score__min__energy>  (11) 
-10.83

>  <m_primary>  (11) 
energy

>  <rmsd>  (11) 
10.14839609241118

>  <m_score__min__rmsd>  (11) 
10.14839609241118

>  <meeko>  (11) 
{"free_energy": -10.31, "intermolecular_energy": -11.8, "internal_energy": -1.99, "cluster_size": 25, "cluster_id": 2, "rank_in_cluster": 4}

>  <energy>  (11) 
-10.46

>  <cluster_rmsd>  (11) 
1.07

>  <cluster>  (11) 
1

$$$$

     RDKit          3D

 77 83  0  0  0  0  0  0  0  0999 V2000
  145.4870   67.7920  219.1310 C   0  0  0  0  0  0  0  0  0  0  0  0
  144.1980   67.3320  219.3560 C   0  0  0  0  0  0  0  0  0  0  0  0
  143.2000   68.2470  219.5960 C   0  0  0  0  0  0  0  0  0  0  0  0
  143.4790   69.5980  219.6130 C   0  0  0  0  0  0  0  0  0  0  0  0
  144.7370   70.0770  219.3950 C   0  0  0  0  0  0  0  0  0  0  0  0
  145.7370   69.1470  219.1530 C   0  0  0  0  0  0  0  0  0  0  0  0
  145.1050   71.4930  219.3970 C   0  0  0  0  0  0  0  0  0  0  0  0
  144.0970   72.4280  219.9610 C   0  0  0  0  0  0  0  0  0  0  0  0
  142.8090   71.8630  220.2470 N   0  0  0  0  0  0  0  0  0  0  0  0
  141.8760   72.6850  220.9580 C   0  0  0  0  0  0  0  0  0  0  0  0
  140.8700   72.1540  221.6740 N   0  0  0  0  0  0  0  0  0  0  0  0
  139.9610   72.8840  222.3620 C   0  0  0  0  0  0  0  0  0  0  0  0
  138.9150   72.2490  223.1020 N   0  0  0  0  0  0  0  0  0  0  0  0
  139.2110   71.1510  223.9590 C   0  0  2  0  0  0  0  0  0  0  0  0
  140.6740   70.9610  224.2760 C   0  0  0  0  0  0  0  0  0  0  0  0
  140.7150   70.1780  225.5980 C   0  0  0  0  0  0  0  0  0  0  0  0
  140.0500   68.8310  225.4070 C   0  0  0  0  0  0  0  0  0  0  0  0
  138.6710   68.9700  224.8520 C   0  0  0  0  0  0  0  0  0  0  0  0
  138.6260   69.8350  223.5850 C   0  0  2  0  0  0  0  0  0  0  0  0
  139.3510   69.0970  222.5810 N   0  0  0  0  0  0  0  0  0  0  0  0
  139.2450   69.6160  221.2480 C   0  0  0  0  0  0  0  0  0  0  0  0
  139.6290   68.4700  220.3230 C   0  0  0  0  0  0  0  0  0  0  0  0
  139.5820   67.2650  221.2020 C   0  0  0  0  0  0  0  0  0  0  0  0
  138.8430   67.7690  222.4350 C   0  0  0  0  0  0  0  0  0  0  0  0
  140.1060   74.2180  222.3000 N   0  0  0  0  0  0  0  0  0  0  0  0
  141.0930   74.8020  221.5990 C   0  0  0  0  0  0  0  0  0  0  0  0
  141.2250   76.2150  221.5500 N   0  0  0  0  0  0  0  0  0  0  0  0
  141.8540   76.8570  220.4000 C   0  0  0  0  0  0  0  0  0  0  0  0
  141.2160   78.2350  220.2580 C   0  0  0  0  0  0  0  0  0  0  0  0
  141.6060   78.9920  221.4740 C   0  0  0  0  0  0  0  0  0  0  0  0
  142.1860   80.2360  221.3990 C   0  0  0  0  0  0  0  0  0  0  0  0
  142.5230   80.8840  222.5800 C   0  0  0  0  0  0  0  0  0  0  0  0
  142.2720   80.2700  223.7830 C   0  0  0  0  0  0  0  0  0  0  0  0
  141.6910   79.0230  223.8640 C   0  0  0  0  0  0  0  0  0  0  0  0
  141.3500   78.3680  222.6940 C   0  0  0  0  0  0  0  0  0  0  0  0
  140.7240   77.0280  222.6630 C   0  0  0  0  0  0  0  0  0  0  0  0
  141.9530   74.0350  220.9460 N   0  0  0  0  0  0  0  0  0  0  0  0
  142.3860   70.5370  219.8730 C   0  0  0  0  0  0  0  0  0  0  0  0
  146.3033   67.0808  218.9365 H   0  0  0  0  0  0  0  0  0  0  0  0
  143.9780   66.2543  219.3427 H   0  0  0  0  0  0  0  0  0  0  0  0
  142.1720   67.8993  219.7757 H   0  0  0  0  0  0  0  0  0  0  0  0
  146.7623   69.5023  218.9729 H   0  0  0  0  0  0  0  0  0  0  0  0
  146.0287   71.5997  219.9847 H   0  0  0  0  0  0  0  0  0  0  0  0
  145.2095   71.7734  218.3385 H   0  0  0  0  0  0  0  0  0  0  0  0
  144.5024   72.8349  220.8991 H   0  0  0  0  0  0  0  0  0  0  0  0
  143.9238   73.1847  219.1816 H   0  0  0  0  0  0  0  0  0  0  0  0
  137.9670   72.6200  222.9870 H   0  0  0  0  0  0  0  0  0  0  0  0
  138.6906   71.4889  224.8673 H   0  0  0  0  0  0  0  0  0  0  0  0
  141.1686   70.3899  223.4765 H   0  0  0  0  0  0  0  0  0  0  0  0
  141.2000   71.9236  224.3579 H   0  0  0  0  0  0  0  0  0  0  0  0
  141.7610   70.0304  225.9046 H   0  0  0  0  0  0  0  0  0  0  0  0
  140.1814   70.7436  226.3761 H   0  0  0  0  0  0  0  0  0  0  0  0
  140.6550   68.2300  224.7122 H   0  0  0  0  0  0  0  0  0  0  0  0
  139.9766   68.3423  226.3897 H   0  0  0  0  0  0  0  0  0  0  0  0
  138.2874   67.9684  224.6079 H   0  0  0  0  0  0  0  0  0  0  0  0
  138.0545   69.4672  225.6154 H   0  0  0  0  0  0  0  0  0  0  0  0
  137.6267   70.0413  223.1742 H   0  0  0  0  0  0  0  0  0  0  0  0
  138.2143   69.9425  221.0453 H   0  0  0  0  0  0  0  0  0  0  0  0
  139.8973   70.4895  221.1014 H   0  0  0  0  0  0  0  0  0  0  0  0
  138.9105   68.3783  219.4951 H   0  0  0  0  0  0  0  0  0  0  0  0
  140.6143   68.6150  219.8559 H   0  0  0  0  0  0  0  0  0  0  0  0
  139.0313   66.4444  220.7189 H   0  0  0  0  0  0  0  0  0  0  0  0
  140.5772   66.8558  221.4302 H   0  0  0  0  0  0  0  0  0  0  0  0
  137.7553   67.7756  222.2711 H   0  0  0  0  0  0  0  0  0  0  0  0
  138.9971   67.1410  223.3249 H   0  0  0  0  0  0  0  0  0  0  0  0
  142.9365   76.9568  220.5677 H   0  0  0  0  0  0  0  0  0  0  0  0
  141.7088   76.2600  219.4876 H   0  0  0  0  0  0  0  0  0  0  0  0
  141.5925   78.7397  219.3561 H   0  0  0  0  0  0  0  0  0  0  0  0
  140.1227   78.1653  220.1594 H   0  0  0  0  0  0  0  0  0  0  0  0
  142.3790   80.7080  220.4244 H   0  0  0  0  0  0  0  0  0  0  0  0
  142.9872   81.8809  222.5525 H   0  0  0  0  0  0  0  0  0  0  0  0
  142.5439   80.7912  224.7128 H   0  0  0  0  0  0  0  0  0  0  0  0
  141.5016   78.5565  224.8420 H   0  0  0  0  0  0  0  0  0  0  0  0
  140.9444   76.5107  223.6084 H   0  0  0  0  0  0  0  0  0  0  0  0
  139.6407   77.1613  222.5266 H   0  0  0  0  0  0  0  0  0  0  0  0
  141.7713   70.1301  220.6895 H   0  0  0  0  0  0  0  0  0  0  0  0
  141.8339   70.6415  218.9273 H   0  0  0  0  0  0  0  0  0  0  0  0
  1  2  2  0
  2  3  1  0
  3  4  2  0
  4  5  1  0
  5  6  2  0
  5  7  1  0
  7  8  1  0
  8  9  1  0
  9 10  1  0
 10 11  2  0
 11 12  1  0
 12 13  1  0
 13 14  1  0
 14 15  1  0
 15 16  1  0
 16 17  1  0
 17 18  1  0
 18 19  1  0
 19 20  1  0
 20 21  1  0
 21 22  1  0
 22 23  1  0
 23 24  1  0
 12 25  2  0
 25 26  1  0
 26 27  1  0
 27 28  1  0
 28 29  1  0
 29 30  1  0
 30 31  2  0
 31 32  1  0
 32 33  2  0
 33 34  1  0
 34 35  2  0
 35 36  1  0
 26 37  2  0
  9 38  1  0
  6  1  1  0
 37 10  1  0
 38  4  1  0
 19 14  1  0
 24 20  1  0
 36 27  1  0
 35 30  1  0
  1 39  1  0
  2 40  1  0
  3 41  1  0
  6 42  1  0
  7 43  1  0
  7 44  1  0
  8 45  1  0
  8 46  1  0
 13 47  1  0
 14 48  1  1
 15 49  1  0
 15 50  1  0
 16 51  1  0
 16 52  1  0
 17 53  1  0
 17 54  1  0
 18 55  1  0
 18 56  1  0
 19 57  1  6
 21 58  1  0
 21 59  1  0
 22 60  1  0
 22 61  1  0
 23 62  1  0
 23 63  1  0
 24 64  1  0
 24 65  1  0
 28 66  1  0
 28 67  1  0
 29 68  1  0
 29 69  1  0
 31 70  1  0
 32 71  1  0
 33 72  1  0
 34 73  1  0
 36 74  1  0
 36 75  1  0
 38 76  1  0
 38 77  1  0
M  END
>  <smiles>  (12) 
c1ccc2c(c1)CCN(c1nc(N[C@@H]3CCCC[C@@H]3N3CCCC3)nc(N3CCc4ccccc4C3)n1)C2

>  <score_type>  (12) 
oracle

>  <origin>  (12) 
autodockgpu

>  <m_score__min__energy>  (12) 
-10.83

>  <m_primary>  (12) 
energy

>  <rmsd>  (12) 
10.072882452688965

>  <m_score__min__rmsd>  (12) 
10.072882452688965

>  <meeko>  (12) 
{"free_energy": -10.0, "intermolecular_energy": -11.5, "internal_energy": -2.21, "cluster_size": 25, "cluster_id": 2, "rank_in_cluster": 24}

>  <energy>  (12) 
-10.39

>  <cluster_rmsd>  (12) 
1.04

>  <cluster>  (12) 
1

$$$$

     RDKit          3D

 77 83  0  0  0  0  0  0  0  0999 V2000
  139.9470   68.7020  227.1930 C   0  0  0  0  0  0  0  0  0  0  0  0
  141.0700   69.5030  227.3330 C   0  0  0  0  0  0  0  0  0  0  0  0
  141.2700   70.5280  226.4380 C   0  0  0  0  0  0  0  0  0  0  0  0
  140.3670   70.7520  225.4190 C   0  0  0  0  0  0  0  0  0  0  0  0
  139.2550   69.9800  225.2590 C   0  0  0  0  0  0  0  0  0  0  0  0
  139.0610   68.9490  226.1670 C   0  0  0  0  0  0  0  0  0  0  0  0
  138.2570   70.1600  224.2050 C   0  0  0  0  0  0  0  0  0  0  0  0
  138.6460   71.0520  223.0830 C   0  0  0  0  0  0  0  0  0  0  0  0
  139.8640   71.7890  223.2630 N   0  0  0  0  0  0  0  0  0  0  0  0
  140.3640   72.5160  222.1340 C   0  0  0  0  0  0  0  0  0  0  0  0
  140.6920   71.8970  220.9850 N   0  0  0  0  0  0  0  0  0  0  0  0
  141.1690   72.5340  219.8910 C   0  0  0  0  0  0  0  0  0  0  0  0
  141.4990   71.8100  218.7030 N   0  0  0  0  0  0  0  0  0  0  0  0
  142.6780   71.0120  218.6570 C   0  0  2  0  0  0  0  0  0  0  0  0
  142.8140   70.0060  219.7740 C   0  0  0  0  0  0  0  0  0  0  0  0
  143.7560   68.9160  219.2400 C   0  0  0  0  0  0  0  0  0  0  0  0
  145.1070   69.5250  218.9270 C   0  0  0  0  0  0  0  0  0  0  0  0
  144.9840   70.6940  218.0070 C   0  0  0  0  0  0  0  0  0  0  0  0
  143.9690   71.7340  218.5010 C   0  0  2  0  0  0  0  0  0  0  0  0
  144.5250   72.2800  219.7130 N   0  0  0  0  0  0  0  0  0  0  0  0
  144.2680   73.6750  219.9280 C   0  0  0  0  0  0  0  0  0  0  0  0
  145.3130   74.1420  220.9310 C   0  0  0  0  0  0  0  0  0  0  0  0
  146.3210   73.0410  220.9430 C   0  0  0  0  0  0  0  0  0  0  0  0
  145.9530   72.2280  219.7070 C   0  0  0  0  0  0  0  0  0  0  0  0
  141.3100   73.8670  219.9960 N   0  0  0  0  0  0  0  0  0  0  0  0
  140.9970   74.5350  221.1200 C   0  0  0  0  0  0  0  0  0  0  0  0
  141.1540   75.9440  221.2060 N   0  0  0  0  0  0  0  0  0  0  0  0
  141.8450   76.6740  220.1470 C   0  0  0  0  0  0  0  0  0  0  0  0
  141.2370   78.0710  220.1040 C   0  0  0  0  0  0  0  0  0  0  0  0
  141.5850   78.7080  221.3990 C   0  0  0  0  0  0  0  0  0  0  0  0
  142.1880   79.9410  221.4620 C   0  0  0  0  0  0  0  0  0  0  0  0
  142.4830   80.4730  222.7110 C   0  0  0  0  0  0  0  0  0  0  0  0
  142.1670   79.7590  223.8410 C   0  0  0  0  0  0  0  0  0  0  0  0
  141.5630   78.5210  223.7840 C   0  0  0  0  0  0  0  0  0  0  0  0
  141.2640   77.9820  222.5450 C   0  0  0  0  0  0  0  0  0  0  0  0
  140.6170   76.6630  222.3650 C   0  0  0  0  0  0  0  0  0  0  0  0
  140.5340   73.8570  222.1590 N   0  0  0  0  0  0  0  0  0  0  0  0
  140.6180   71.8550  224.4890 C   0  0  0  0  0  0  0  0  0  0  0  0
  139.7647   67.8756  227.8957 H   0  0  0  0  0  0  0  0  0  0  0  0
  141.7886   69.3218  228.1459 H   0  0  0  0  0  0  0  0  0  0  0  0
  142.1555   71.1733  226.5352 H   0  0  0  0  0  0  0  0  0  0  0  0
  138.1723   68.3089  226.0647 H   0  0  0  0  0  0  0  0  0  0  0  0
  138.0304   69.1694  223.7839 H   0  0  0  0  0  0  0  0  0  0  0  0
  137.4003   70.6510  224.6897 H   0  0  0  0  0  0  0  0  0  0  0  0
  138.7575   70.4313  222.1817 H   0  0  0  0  0  0  0  0  0  0  0  0
  137.8487   71.8065  223.0117 H   0  0  0  0  0  0  0  0  0  0  0  0
  140.8570   71.8930  217.9090 H   0  0  0  0  0  0  0  0  0  0  0  0
  142.4938   70.4764  217.7140 H   0  0  0  0  0  0  0  0  0  0  0  0
  143.2449   70.4811  220.6676 H   0  0  0  0  0  0  0  0  0  0  0  0
  141.8384   69.5911  220.0675 H   0  0  0  0  0  0  0  0  0  0  0  0
  143.8754   68.1300  220.0002 H   0  0  0  0  0  0  0  0  0  0  0  0
  143.3298   68.4793  218.3248 H   0  0  0  0  0  0  0  0  0  0  0  0
  145.5747   69.8573  219.8656 H   0  0  0  0  0  0  0  0  0  0  0  0
  145.7220   68.7601  218.4303 H   0  0  0  0  0  0  0  0  0  0  0  0
  145.9682   71.1773  217.9190 H   0  0  0  0  0  0  0  0  0  0  0  0
  144.6271   70.3168  217.0373 H   0  0  0  0  0  0  0  0  0  0  0  0
  143.7754   72.5812  217.8266 H   0  0  0  0  0  0  0  0  0  0  0  0
  144.3672   74.2321  218.9847 H   0  0  0  0  0  0  0  0  0  0  0  0
  143.2469   73.8449  220.3001 H   0  0  0  0  0  0  0  0  0  0  0  0
  145.7712   75.0878  220.6062 H   0  0  0  0  0  0  0  0  0  0  0  0
  144.8869   74.3361  221.9263 H   0  0  0  0  0  0  0  0  0  0  0  0
  147.3432   73.4396  220.8644 H   0  0  0  0  0  0  0  0  0  0  0  0
  146.3078   72.4504  221.8709 H   0  0  0  0  0  0  0  0  0  0  0  0
  146.3631   72.6852  218.7945 H   0  0  0  0  0  0  0  0  0  0  0  0
  146.3534   71.2036  219.7222 H   0  0  0  0  0  0  0  0  0  0  0  0
  142.9204   76.7360  220.3697 H   0  0  0  0  0  0  0  0  0  0  0  0
  141.7314   76.1648  219.1786 H   0  0  0  0  0  0  0  0  0  0  0  0
  141.6612   78.6470  219.2684 H   0  0  0  0  0  0  0  0  0  0  0  0
  140.1480   78.0323  219.9535 H   0  0  0  0  0  0  0  0  0  0  0  0
  142.4319   80.4949  220.5434 H   0  0  0  0  0  0  0  0  0  0  0  0
  142.9657   81.4579  222.7943 H   0  0  0  0  0  0  0  0  0  0  0  0
  142.4040   80.1897  224.8251 H   0  0  0  0  0  0  0  0  0  0  0  0
  141.3232   77.9718  224.7064 H   0  0  0  0  0  0  0  0  0  0  0  0
  140.7856   76.0581  223.2681 H   0  0  0  0  0  0  0  0  0  0  0  0
  139.5433   76.8306  222.1945 H   0  0  0  0  0  0  0  0  0  0  0  0
  141.6881   71.8523  224.2343 H   0  0  0  0  0  0  0  0  0  0  0  0
  140.2990   72.7742  225.0021 H   0  0  0  0  0  0  0  0  0  0  0  0
  1  2  2  0
  2  3  1  0
  3  4  2  0
  4  5  1  0
  5  6  2  0
  5  7  1  0
  7  8  1  0
  8  9  1  0
  9 10  1  0
 10 11  2  0
 11 12  1  0
 12 13  1  0
 13 14  1  0
 14 15  1  0
 15 16  1  0
 16 17  1  0
 17 18  1  0
 18 19  1  0
 19 20  1  0
 20 21  1  0
 21 22  1  0
 22 23  1  0
 23 24  1  0
 12 25  2  0
 25 26  1  0
 26 27  1  0
 27 28  1  0
 28 29  1  0
 29 30  1  0
 30 31  2  0
 31 32  1  0
 32 33  2  0
 33 34  1  0
 34 35  2  0
 35 36  1  0
 26 37  2  0
  9 38  1  0
  6  1  1  0
 37 10  1  0
 38  4  1  0
 19 14  1  0
 24 20  1  0
 36 27  1  0
 35 30  1  0
  1 39  1  0
  2 40  1  0
  3 41  1  0
  6 42  1  0
  7 43  1  0
  7 44  1  0
  8 45  1  0
  8 46  1  0
 13 47  1  0
 14 48  1  6
 15 49  1  0
 15 50  1  0
 16 51  1  0
 16 52  1  0
 17 53  1  0
 17 54  1  0
 18 55  1  0
 18 56  1  0
 19 57  1  6
 21 58  1  0
 21 59  1  0
 22 60  1  0
 22 61  1  0
 23 62  1  0
 23 63  1  0
 24 64  1  0
 24 65  1  0
 28 66  1  0
 28 67  1  0
 29 68  1  0
 29 69  1  0
 31 70  1  0
 32 71  1  0
 33 72  1  0
 34 73  1  0
 36 74  1  0
 36 75  1  0
 38 76  1  0
 38 77  1  0
M  END
>  <smiles>  (13) 
c1ccc2c(c1)CCN(c1nc(N[C@@H]3CCCC[C@@H]3N3CCCC3)nc(N3CCc4ccccc4C3)n1)C2

>  <score_type>  (13) 
oracle

>  <origin>  (13) 
autodockgpu

>  <m_score__min__energy>  (13) 
-10.83

>  <m_primary>  (13) 
energy

>  <rmsd>  (13) 
7.943017341013893

>  <m_score__min__rmsd>  (13) 
7.943017341013893

>  <meeko>  (13) 
{"free_energy": -10.75, "intermolecular_energy": -12.24, "internal_energy": -1.91, "cluster_size": 24, "cluster_id": 1, "rank_in_cluster": 2}

>  <energy>  (13) 
-10.36

>  <cluster_rmsd>  (13) 
1.07

>  <cluster>  (13) 
1

$$$$

     RDKit          3D

 77 83  0  0  0  0  0  0  0  0999 V2000
  140.1060   80.2540  223.3740 C   0  0  0  0  0  0  0  0  0  0  0  0
  141.3720   79.7320  223.5850 C   0  0  0  0  0  0  0  0  0  0  0  0
  141.6570   78.4720  223.1140 C   0  0  0  0  0  0  0  0  0  0  0  0
  140.6970   77.7430  222.4430 C   0  0  0  0  0  0  0  0  0  0  0  0
  139.4440   78.2330  222.2210 C   0  0  0  0  0  0  0  0  0  0  0  0
  139.1660   79.5050  222.7010 C   0  0  0  0  0  0  0  0  0  0  0  0
  138.3790   77.5180  221.5190 C   0  0  0  0  0  0  0  0  0  0  0  0
  138.6020   76.0650  221.3010 C   0  0  0  0  0  0  0  0  0  0  0  0
  139.9140   75.5780  221.6190 N   0  0  0  0  0  0  0  0  0  0  0  0
  140.1090   74.1590  221.5950 C   0  0  0  0  0  0  0  0  0  0  0  0
  140.3410   73.4980  220.4470 N   0  0  0  0  0  0  0  0  0  0  0  0
  140.5300   72.1600  220.3690 C   0  0  0  0  0  0  0  0  0  0  0  0
  140.7700   71.5230  219.1120 N   0  0  0  0  0  0  0  0  0  0  0  0
  141.9460   70.7450  218.9170 C   0  0  2  0  0  0  0  0  0  0  0  0
  142.2570   69.7660  220.0220 C   0  0  0  0  0  0  0  0  0  0  0  0
  143.1380   68.6810  219.3830 C   0  0  0  0  0  0  0  0  0  0  0  0
  144.4190   69.3070  218.8730 C   0  0  0  0  0  0  0  0  0  0  0  0
  144.1460   70.4540  217.9580 C   0  0  0  0  0  0  0  0  0  0  0  0
  143.1880   71.4860  218.5690 C   0  0  2  0  0  0  0  0  0  0  0  0
  143.8960   72.0670  219.6820 N   0  0  0  0  0  0  0  0  0  0  0  0
  143.4890   73.3960  220.0370 C   0  0  0  0  0  0  0  0  0  0  0  0
  144.6390   73.9830  220.8440 C   0  0  0  0  0  0  0  0  0  0  0  0
  145.7760   73.0520  220.5820 C   0  0  0  0  0  0  0  0  0  0  0  0
  145.2850   72.2390  219.3910 C   0  0  0  0  0  0  0  0  0  0  0  0
  140.4770   71.4860  221.5300 N   0  0  0  0  0  0  0  0  0  0  0  0
  140.2490   72.0970  222.7060 C   0  0  0  0  0  0  0  0  0  0  0  0
  140.1980   71.3620  223.9190 N   0  0  0  0  0  0  0  0  0  0  0  0
  141.0490   71.7370  225.0450 C   0  0  0  0  0  0  0  0  0  0  0  0
  140.3040   71.3430  226.3140 C   0  0  0  0  0  0  0  0  0  0  0  0
  140.2080   69.8620  226.2890 C   0  0  0  0  0  0  0  0  0  0  0  0
  140.6110   69.0900  227.3520 C   0  0  0  0  0  0  0  0  0  0  0  0
  140.4900   67.7100  227.2550 C   0  0  0  0  0  0  0  0  0  0  0  0
  139.9760   67.1560  226.1080 C   0  0  0  0  0  0  0  0  0  0  0  0
  139.5710   67.9250  225.0380 C   0  0  0  0  0  0  0  0  0  0  0  0
  139.6860   69.3020  225.1240 C   0  0  0  0  0  0  0  0  0  0  0  0
  139.2830   70.2220  224.0380 C   0  0  0  0  0  0  0  0  0  0  0  0
  140.0700   73.4090  222.7190 N   0  0  0  0  0  0  0  0  0  0  0  0
  141.0430   76.4060  221.9580 C   0  0  0  0  0  0  0  0  0  0  0  0
  139.8533   81.2596  223.7413 H   0  0  0  0  0  0  0  0  0  0  0  0
  142.1358   80.3154  224.1200 H   0  0  0  0  0  0  0  0  0  0  0  0
  142.6571   78.0424  223.2733 H   0  0  0  0  0  0  0  0  0  0  0  0
  138.1637   79.9284  222.5390 H   0  0  0  0  0  0  0  0  0  0  0  0
  137.4547   77.6323  222.1043 H   0  0  0  0  0  0  0  0  0  0  0  0
  138.3348   77.9646  220.5147 H   0  0  0  0  0  0  0  0  0  0  0  0
  137.8789   75.5160  221.9221 H   0  0  0  0  0  0  0  0  0  0  0  0
  138.4783   75.9035  220.2200 H   0  0  0  0  0  0  0  0  0  0  0  0
  140.0660   71.6520  218.3780 H   0  0  0  0  0  0  0  0  0  0  0  0
  141.6424   70.1860  218.0196 H   0  0  0  0  0  0  0  0  0  0  0  0
  142.7982   70.2679  220.8376 H   0  0  0  0  0  0  0  0  0  0  0  0
  141.3403   69.3401  220.4560 H   0  0  0  0  0  0  0  0  0  0  0  0
  143.3783   67.9142  220.1342 H   0  0  0  0  0  0  0  0  0  0  0  0
  142.5978   68.2164  218.5449 H   0  0  0  0  0  0  0  0  0  0  0  0
  145.0061   69.6670  219.7307 H   0  0  0  0  0  0  0  0  0  0  0  0
  144.9737   68.5426  218.3090 H   0  0  0  0  0  0  0  0  0  0  0  0
  145.0984   70.9528  217.7255 H   0  0  0  0  0  0  0  0  0  0  0  0
  143.6661   70.0503  217.0542 H   0  0  0  0  0  0  0  0  0  0  0  0
  142.8852   72.3148  217.9122 H   0  0  0  0  0  0  0  0  0  0  0  0
  143.3108   73.9961  219.1325 H   0  0  0  0  0  0  0  0  0  0  0  0
  142.5522   73.3911  220.6135 H   0  0  0  0  0  0  0  0  0  0  0  0
  144.8790   74.9999  220.5000 H   0  0  0  0  0  0  0  0  0  0  0  0
  144.4028   74.0721  221.9146 H   0  0  0  0  0  0  0  0  0  0  0  0
  146.6919   73.6071  220.3312 H   0  0  0  0  0  0  0  0  0  0  0  0
  146.0381   72.4319  221.4519 H   0  0  0  0  0  0  0  0  0  0  0  0
  145.4282   72.7886  218.4490 H   0  0  0  0  0  0  0  0  0  0  0  0
  145.8246   71.2899  219.2569 H   0  0  0  0  0  0  0  0  0  0  0  0
  142.0086   71.2022  224.9883 H   0  0  0  0  0  0  0  0  0  0  0  0
  141.2638   72.8158  225.0337 H   0  0  0  0  0  0  0  0  0  0  0  0
  140.8607   71.6750  227.2027 H   0  0  0  0  0  0  0  0  0  0  0  0
  139.3093   71.8105  226.3588 H   0  0  0  0  0  0  0  0  0  0  0  0
  141.0208   69.5553  228.2606 H   0  0  0  0  0  0  0  0  0  0  0  0
  140.8032   67.0658  228.0898 H   0  0  0  0  0  0  0  0  0  0  0  0
  139.8845   66.0619  226.0410 H   0  0  0  0  0  0  0  0  0  0  0  0
  139.1636   67.4529  224.1318 H   0  0  0  0  0  0  0  0  0  0  0  0
  139.2782   69.6691  223.0870 H   0  0  0  0  0  0  0  0  0  0  0  0
  138.2821   70.6117  224.2753 H   0  0  0  0  0  0  0  0  0  0  0  0
  141.6191   75.8950  222.7435 H   0  0  0  0  0  0  0  0  0  0  0  0
  141.6127   76.5505  221.0282 H   0  0  0  0  0  0  0  0  0  0  0  0
  1  2  2  0
  2  3  1  0
  3  4  2  0
  4  5  1  0
  5  6  2  0
  5  7  1  0
  7  8  1  0
  8  9  1  0
  9 10  1  0
 10 11  2  0
 11 12  1  0
 12 13  1  0
 13 14  1  0
 14 15  1  0
 15 16  1  0
 16 17  1  0
 17 18  1  0
 18 19  1  0
 19 20  1  0
 20 21  1  0
 21 22  1  0
 22 23  1  0
 23 24  1  0
 12 25  2  0
 25 26  1  0
 26 27  1  0
 27 28  1  0
 28 29  1  0
 29 30  1  0
 30 31  2  0
 31 32  1  0
 32 33  2  0
 33 34  1  0
 34 35  2  0
 35 36  1  0
 26 37  2  0
  9 38  1  0
  6  1  1  0
 37 10  1  0
 38  4  1  0
 19 14  1  0
 24 20  1  0
 36 27  1  0
 35 30  1  0
  1 39  1  0
  2 40  1  0
  3 41  1  0
  6 42  1  0
  7 43  1  0
  7 44  1  0
  8 45  1  0
  8 46  1  0
 13 47  1  0
 14 48  1  6
 15 49  1  0
 15 50  1  0
 16 51  1  0
 16 52  1  0
 17 53  1  0
 17 54  1  0
 18 55  1  0
 18 56  1  0
 19 57  1  6
 21 58  1  0
 21 59  1  0
 22 60  1  0
 22 61  1  0
 23 62  1  0
 23 63  1  0
 24 64  1  0
 24 65  1  0
 28 66  1  0
 28 67  1  0
 29 68  1  0
 29 69  1  0
 31 70  1  0
 32 71  1  0
 33 72  1  0
 34 73  1  0
 36 74  1  0
 36 75  1  0
 38 76  1  0
 38 77  1  0
M  END
>  <smiles>  (14) 
c1ccc2c(c1)CCN(c1nc(N[C@@H]3CCCC[C@@H]3N3CCCC3)nc(N3CCc4ccccc4C3)n1)C2

>  <score_type>  (14) 
oracle

>  <origin>  (14) 
autodockgpu

>  <m_score__min__energy>  (14) 
-10.83

>  <m_primary>  (14) 
energy

>  <rmsd>  (14) 
7.819405195351694

>  <m_score__min__rmsd>  (14) 
7.819405195351694

>  <meeko>  (14) 
{"free_energy": -9.65, "intermolecular_energy": -11.15, "internal_energy": -1.94, "cluster_size": 24, "cluster_id": 1, "rank_in_cluster": 21}

>  <energy>  (14) 
-10.21

>  <cluster_rmsd>  (14) 
1.08

>  <cluster>  (14) 
1

$$$$

     RDKit          3D

 77 83  0  0  0  0  0  0  0  0999 V2000
  145.5560   67.8460  219.0880 C   0  0  0  0  0  0  0  0  0  0  0  0
  144.2740   67.3680  219.3150 C   0  0  0  0  0  0  0  0  0  0  0  0
  143.2650   68.2690  219.5600 C   0  0  0  0  0  0  0  0  0  0  0  0
  143.5250   69.6240  219.5780 C   0  0  0  0  0  0  0  0  0  0  0  0
  144.7760   70.1200  219.3570 C   0  0  0  0  0  0  0  0  0  0  0  0
  145.7880   69.2040  219.1120 C   0  0  0  0  0  0  0  0  0  0  0  0
  145.1250   71.5400  219.3610 C   0  0  0  0  0  0  0  0  0  0  0  0
  144.1060   72.4610  219.9290 C   0  0  0  0  0  0  0  0  0  0  0  0
  142.8260   71.8780  220.2170 N   0  0  0  0  0  0  0  0  0  0  0  0
  141.8840   72.6870  220.9310 C   0  0  0  0  0  0  0  0  0  0  0  0
  140.8770   72.1410  221.6360 N   0  0  0  0  0  0  0  0  0  0  0  0
  139.9600   72.8580  222.3260 C   0  0  0  0  0  0  0  0  0  0  0  0
  138.9140   72.2090  223.0530 N   0  0  0  0  0  0  0  0  0  0  0  0
  139.2290   71.2380  224.0460 C   0  0  2  0  0  0  0  0  0  0  0  0
  140.7030   71.0340  224.2970 C   0  0  0  0  0  0  0  0  0  0  0  0
  140.8080   70.4530  225.7160 C   0  0  0  0  0  0  0  0  0  0  0  0
  140.0870   69.1230  225.7720 C   0  0  0  0  0  0  0  0  0  0  0  0
  138.6790   69.2390  225.2890 C   0  0  0  0  0  0  0  0  0  0  0  0
  138.5770   69.9080  223.9110 C   0  0  2  0  0  0  0  0  0  0  0  0
  139.2070   68.9980  222.9860 N   0  0  0  0  0  0  0  0  0  0  0  0
  139.2900   69.4670  221.6330 C   0  0  0  0  0  0  0  0  0  0  0  0
  139.5020   68.2260  220.7760 C   0  0  0  0  0  0  0  0  0  0  0  0
  139.1650   67.0950  221.6880 C   0  0  0  0  0  0  0  0  0  0  0  0
  138.4600   67.7880  222.8470 C   0  0  0  0  0  0  0  0  0  0  0  0
  140.0960   74.1940  222.2790 N   0  0  0  0  0  0  0  0  0  0  0  0
  141.0830   74.7920  221.5900 C   0  0  0  0  0  0  0  0  0  0  0  0
  141.2060   76.2060  221.5570 N   0  0  0  0  0  0  0  0  0  0  0  0
  141.8320   76.8650  220.4140 C   0  0  0  0  0  0  0  0  0  0  0  0
  141.1860   78.2400  220.2870 C   0  0  0  0  0  0  0  0  0  0  0  0
  141.5690   78.9860  221.5120 C   0  0  0  0  0  0  0  0  0  0  0  0
  142.1410   80.2340  221.4510 C   0  0  0  0  0  0  0  0  0  0  0  0
  142.4730   80.8720  222.6400 C   0  0  0  0  0  0  0  0  0  0  0  0
  142.2240   80.2430  223.8350 C   0  0  0  0  0  0  0  0  0  0  0  0
  141.6520   78.9910  223.9020 C   0  0  0  0  0  0  0  0  0  0  0  0
  141.3160   78.3470  222.7240 C   0  0  0  0  0  0  0  0  0  0  0  0
  140.6990   77.0030  222.6780 C   0  0  0  0  0  0  0  0  0  0  0  0
  141.9510   74.0380  220.9340 N   0  0  0  0  0  0  0  0  0  0  0  0
  142.4200   70.5480  219.8420 C   0  0  0  0  0  0  0  0  0  0  0  0
  146.3814   67.1462  218.8903 H   0  0  0  0  0  0  0  0  0  0  0  0
  144.0683   66.2875  219.2993 H   0  0  0  0  0  0  0  0  0  0  0  0
  142.2425   67.9070  219.7431 H   0  0  0  0  0  0  0  0  0  0  0  0
  146.8082   69.5733  218.9311 H   0  0  0  0  0  0  0  0  0  0  0  0
  146.0485   71.6577  219.9469 H   0  0  0  0  0  0  0  0  0  0  0  0
  145.2233   71.8237  218.3027 H   0  0  0  0  0  0  0  0  0  0  0  0
  144.5082   72.8717  220.8669 H   0  0  0  0  0  0  0  0  0  0  0  0
  143.9211   73.2168  219.1515 H   0  0  0  0  0  0  0  0  0  0  0  0
  137.9500   72.4760  222.8290 H   0  0  0  0  0  0  0  0  0  0  0  0
  138.7815   71.7283  224.9231 H   0  0  0  0  0  0  0  0  0  0  0  0
  141.1231   70.3308  223.5628 H   0  0  0  0  0  0  0  0  0  0  0  0
  141.2646   71.9750  224.2015 H   0  0  0  0  0  0  0  0  0  0  0  0
  141.8671   70.3070  225.9749 H   0  0  0  0  0  0  0  0  0  0  0  0
  140.3478   71.1497  226.4322 H   0  0  0  0  0  0  0  0  0  0  0  0
  140.6227   68.3999  225.1395 H   0  0  0  0  0  0  0  0  0  0  0  0
  140.0644   68.7884  226.8196 H   0  0  0  0  0  0  0  0  0  0  0  0
  138.2456   68.2301  225.2230 H   0  0  0  0  0  0  0  0  0  0  0  0
  138.1336   69.8708  226.0055 H   0  0  0  0  0  0  0  0  0  0  0  0
  137.5598   70.0943  223.5360 H   0  0  0  0  0  0  0  0  0  0  0  0
  138.3580   69.9760  221.3462 H   0  0  0  0  0  0  0  0  0  0  0  0
  140.1075   70.1918  221.5052 H   0  0  0  0  0  0  0  0  0  0  0  0
  138.8341   68.2357  219.9020 H   0  0  0  0  0  0  0  0  0  0  0  0
  140.5247   68.1572  220.3767 H   0  0  0  0  0  0  0  0  0  0  0  0
  138.4976   66.3738  221.1936 H   0  0  0  0  0  0  0  0  0  0  0  0
  140.0447   66.5135  222.0010 H   0  0  0  0  0  0  0  0  0  0  0  0
  137.4076   67.9965  222.6043 H   0  0  0  0  0  0  0  0  0  0  0  0
  138.4300   67.1838  223.7657 H   0  0  0  0  0  0  0  0  0  0  0  0
  142.9138   76.9695  220.5835 H   0  0  0  0  0  0  0  0  0  0  0  0
  141.6909   76.2773  219.4949 H   0  0  0  0  0  0  0  0  0  0  0  0
  141.5608   78.7573  219.3915 H   0  0  0  0  0  0  0  0  0  0  0  0
  140.0933   78.1643  220.1861 H   0  0  0  0  0  0  0  0  0  0  0  0
  142.3320   80.7176  220.4817 H   0  0  0  0  0  0  0  0  0  0  0  0
  142.9312   81.8719  222.6241 H   0  0  0  0  0  0  0  0  0  0  0  0
  142.4902   80.7561  224.7709 H   0  0  0  0  0  0  0  0  0  0  0  0
  141.4658   78.5120  224.8746 H   0  0  0  0  0  0  0  0  0  0  0  0
  140.9224   76.4770  223.6179 H   0  0  0  0  0  0  0  0  0  0  0  0
  139.6149   77.1304  222.5424 H   0  0  0  0  0  0  0  0  0  0  0  0
  141.8126   70.1317  220.6592 H   0  0  0  0  0  0  0  0  0  0  0  0
  141.8643   70.6467  218.8978 H   0  0  0  0  0  0  0  0  0  0  0  0
  1  2  2  0
  2  3  1  0
  3  4  2  0
  4  5  1  0
  5  6  2  0
  5  7  1  0
  7  8  1  0
  8  9  1  0
  9 10  1  0
 10 11  2  0
 11 12  1  0
 12 13  1  0
 13 14  1  0
 14 15  1  0
 15 16  1  0
 16 17  1  0
 17 18  1  0
 18 19  1  0
 19 20  1  0
 20 21  1  0
 21 22  1  0
 22 23  1  0
 23 24  1  0
 12 25  2  0
 25 26  1  0
 26 27  1  0
 27 28  1  0
 28 29  1  0
 29 30  1  0
 30 31  2  0
 31 32  1  0
 32 33  2  0
 33 34  1  0
 34 35  2  0
 35 36  1  0
 26 37  2  0
  9 38  1  0
  6  1  1  0
 37 10  1  0
 38  4  1  0
 19 14  1  0
 24 20  1  0
 36 27  1  0
 35 30  1  0
  1 39  1  0
  2 40  1  0
  3 41  1  0
  6 42  1  0
  7 43  1  0
  7 44  1  0
  8 45  1  0
  8 46  1  0
 13 47  1  0
 14 48  1  1
 15 49  1  0
 15 50  1  0
 16 51  1  0
 16 52  1  0
 17 53  1  0
 17 54  1  0
 18 55  1  0
 18 56  1  0
 19 57  1  6
 21 58  1  0
 21 59  1  0
 22 60  1  0
 22 61  1  0
 23 62  1  0
 23 63  1  0
 24 64  1  0
 24 65  1  0
 28 66  1  0
 28 67  1  0
 29 68  1  0
 29 69  1  0
 31 70  1  0
 32 71  1  0
 33 72  1  0
 34 73  1  0
 36 74  1  0
 36 75  1  0
 38 76  1  0
 38 77  1  0
M  END
>  <smiles>  (15) 
c1ccc2c(c1)CCN(c1nc(N[C@@H]3CCCC[C@@H]3N3CCCC3)nc(N3CCc4ccccc4C3)n1)C2

>  <score_type>  (15) 
oracle

>  <origin>  (15) 
autodockgpu

>  <m_score__min__energy>  (15) 
-10.83

>  <m_primary>  (15) 
energy

>  <rmsd>  (15) 
10.12690224467151

>  <m_score__min__rmsd>  (15) 
10.12690224467151

>  <meeko>  (15) 
{"free_energy": -10.25, "intermolecular_energy": -11.74, "internal_energy": -2.07, "cluster_size": 25, "cluster_id": 2, "rank_in_cluster": 15}

>  <energy>  (15) 
-10.19

>  <cluster_rmsd>  (15) 
0.92

>  <cluster>  (15) 
1

$$$$

     RDKit          3D

 77 83  0  0  0  0  0  0  0  0999 V2000
  140.4290   68.2200  227.6820 C   0  0  0  0  0  0  0  0  0  0  0  0
  141.0240   69.4260  228.0170 C   0  0  0  0  0  0  0  0  0  0  0  0
  140.9440   70.4740  227.1290 C   0  0  0  0  0  0  0  0  0  0  0  0
  140.2820   70.3230  225.9280 C   0  0  0  0  0  0  0  0  0  0  0  0
  139.6890   69.1480  225.5740 C   0  0  0  0  0  0  0  0  0  0  0  0
  139.7740   68.0970  226.4760 C   0  0  0  0  0  0  0  0  0  0  0  0
  138.9720   68.9170  224.3200 C   0  0  0  0  0  0  0  0  0  0  0  0
  139.1650   69.9400  223.2600 C   0  0  0  0  0  0  0  0  0  0  0  0
  139.8630   71.1300  223.6580 N   0  0  0  0  0  0  0  0  0  0  0  0
  140.2260   72.0530  222.6240 C   0  0  0  0  0  0  0  0  0  0  0  0
  140.8280   71.6440  221.4930 N   0  0  0  0  0  0  0  0  0  0  0  0
  141.1930   72.4730  220.4870 C   0  0  0  0  0  0  0  0  0  0  0  0
  141.8320   71.9670  219.3120 N   0  0  0  0  0  0  0  0  0  0  0  0
  142.4250   72.8640  218.3780 C   0  0  2  0  0  0  0  0  0  0  0  0
  143.3090   72.2170  217.3400 C   0  0  0  0  0  0  0  0  0  0  0  0
  143.3450   73.1950  216.1550 C   0  0  0  0  0  0  0  0  0  0  0  0
  143.9520   74.5080  216.6030 C   0  0  0  0  0  0  0  0  0  0  0  0
  143.2480   75.0620  217.7970 C   0  0  0  0  0  0  0  0  0  0  0  0
  143.1320   74.0450  218.9420 C   0  0  2  0  0  0  0  0  0  0  0  0
  144.4810   73.8050  219.3910 N   0  0  0  0  0  0  0  0  0  0  0  0
  144.7160   72.5010  219.9410 C   0  0  0  0  0  0  0  0  0  0  0  0
  145.9830   72.6250  220.7770 C   0  0  0  0  0  0  0  0  0  0  0  0
  146.1770   74.0970  220.9250 C   0  0  0  0  0  0  0  0  0  0  0  0
  144.8360   74.6650  220.4750 C   0  0  0  0  0  0  0  0  0  0  0  0
  140.9220   73.7760  220.6670 N   0  0  0  0  0  0  0  0  0  0  0  0
  140.3230   74.2390  221.7780 C   0  0  0  0  0  0  0  0  0  0  0  0
  140.0460   75.6220  221.9430 N   0  0  0  0  0  0  0  0  0  0  0  0
  138.7440   76.1630  221.5650 C   0  0  0  0  0  0  0  0  0  0  0  0
  138.4760   77.3510  222.4810 C   0  0  0  0  0  0  0  0  0  0  0  0
  139.5060   78.3660  222.1460 C   0  0  0  0  0  0  0  0  0  0  0  0
  139.1750   79.6640  221.8430 C   0  0  0  0  0  0  0  0  0  0  0  0
  140.1940   80.5580  221.5400 C   0  0  0  0  0  0  0  0  0  0  0  0
  141.4970   80.1240  221.5510 C   0  0  0  0  0  0  0  0  0  0  0  0
  141.8360   78.8220  221.8540 C   0  0  0  0  0  0  0  0  0  0  0  0
  140.8280   77.9240  222.1580 C   0  0  0  0  0  0  0  0  0  0  0  0
  141.0770   76.5050  222.4970 C   0  0  0  0  0  0  0  0  0  0  0  0
  139.9880   73.3800  222.7280 N   0  0  0  0  0  0  0  0  0  0  0  0
  140.2220   71.4650  225.0120 C   0  0  0  0  0  0  0  0  0  0  0  0
  140.4793   67.3666  228.3743 H   0  0  0  0  0  0  0  0  0  0  0  0
  141.5507   69.5433  228.9755 H   0  0  0  0  0  0  0  0  0  0  0  0
  141.4108   71.4383  227.3782 H   0  0  0  0  0  0  0  0  0  0  0  0
  139.3040   67.1359  226.2204 H   0  0  0  0  0  0  0  0  0  0  0  0
  139.3029   67.9485  223.9169 H   0  0  0  0  0  0  0  0  0  0  0  0
  137.9035   68.9565  224.5784 H   0  0  0  0  0  0  0  0  0  0  0  0
  139.7326   69.4741  222.4410 H   0  0  0  0  0  0  0  0  0  0  0  0
  138.1546   70.2683  222.9749 H   0  0  0  0  0  0  0  0  0  0  0  0
  141.8420   70.9500  219.1840 H   0  0  0  0  0  0  0  0  0  0  0  0
  141.5141   73.2378  217.8876 H   0  0  0  0  0  0  0  0  0  0  0  0
  144.3217   72.0631  217.7410 H   0  0  0  0  0  0  0  0  0  0  0  0
  142.9268   71.2301  217.0399 H   0  0  0  0  0  0  0  0  0  0  0  0
  143.9536   72.7671  215.3447 H   0  0  0  0  0  0  0  0  0  0  0  0
  142.3214   73.3690  215.7918 H   0  0  0  0  0  0  0  0  0  0  0  0
  145.0096   74.3437  216.8570 H   0  0  0  0  0  0  0  0  0  0  0  0
  143.8523   75.2308  215.7798 H   0  0  0  0  0  0  0  0  0  0  0  0
  143.8061   75.9378  218.1595 H   0  0  0  0  0  0  0  0  0  0  0  0
  142.2274   75.3298  217.4861 H   0  0  0  0  0  0  0  0  0  0  0  0
  142.5533   74.3671  219.8203 H   0  0  0  0  0  0  0  0  0  0  0  0
  143.8693   72.1933  220.5722 H   0  0  0  0  0  0  0  0  0  0  0  0
  144.8245   71.7425  219.1518 H   0  0  0  0  0  0  0  0  0  0  0  0
  145.8514   72.1475  221.7592 H   0  0  0  0  0  0  0  0  0  0  0  0
  146.8473   72.1294  220.3108 H   0  0  0  0  0  0  0  0  0  0  0  0
  146.3893   74.3649  221.9705 H   0  0  0  0  0  0  0  0  0  0  0  0
  147.0284   74.4831  220.3453 H   0  0  0  0  0  0  0  0  0  0  0  0
  144.0916   74.6132  221.2832 H   0  0  0  0  0  0  0  0  0  0  0  0
  144.8833   75.7272  220.1932 H   0  0  0  0  0  0  0  0  0  0  0  0
  138.7609   76.4910  220.5152 H   0  0  0  0  0  0  0  0  0  0  0  0
  137.9565   75.4017  221.6666 H   0  0  0  0  0  0  0  0  0  0  0  0
  137.4688   77.7541  222.2994 H   0  0  0  0  0  0  0  0  0  0  0  0
  138.5251   77.0617  223.5411 H   0  0  0  0  0  0  0  0  0  0  0  0
  138.1241   79.9891  221.8403 H   0  0  0  0  0  0  0  0  0  0  0  0
  139.9595   81.6041  221.2935 H   0  0  0  0  0  0  0  0  0  0  0  0
  142.2973   80.8391  221.3100 H   0  0  0  0  0  0  0  0  0  0  0  0
  142.8887   78.5031  221.8540 H   0  0  0  0  0  0  0  0  0  0  0  0
  142.0552   76.2085  222.0905 H   0  0  0  0  0  0  0  0  0  0  0  0
  141.0570   76.4074  223.5925 H   0  0  0  0  0  0  0  0  0  0  0  0
  141.2121   71.9441  224.9958 H   0  0  0  0  0  0  0  0  0  0  0  0
  139.4285   72.1263  225.3901 H   0  0  0  0  0  0  0  0  0  0  0  0
  1  2  2  0
  2  3  1  0
  3  4  2  0
  4  5  1  0
  5  6  2  0
  5  7  1  0
  7  8  1  0
  8  9  1  0
  9 10  1  0
 10 11  2  0
 11 12  1  0
 12 13  1  0
 13 14  1  0
 14 15  1  0
 15 16  1  0
 16 17  1  0
 17 18  1  0
 18 19  1  0
 19 20  1  0
 20 21  1  0
 21 22  1  0
 22 23  1  0
 23 24  1  0
 12 25  2  0
 25 26  1  0
 26 27  1  0
 27 28  1  0
 28 29  1  0
 29 30  1  0
 30 31  2  0
 31 32  1  0
 32 33  2  0
 33 34  1  0
 34 35  2  0
 35 36  1  0
 26 37  2  0
  9 38  1  0
  6  1  1  0
 37 10  1  0
 38  4  1  0
 19 14  1  0
 24 20  1  0
 36 27  1  0
 35 30  1  0
  1 39  1  0
  2 40  1  0
  3 41  1  0
  6 42  1  0
  7 43  1  0
  7 44  1  0
  8 45  1  0
  8 46  1  0
 13 47  1  0
 14 48  1  6
 15 49  1  0
 15 50  1  0
 16 51  1  0
 16 52  1  0
 17 53  1  0
 17 54  1  0
 18 55  1  0
 18 56  1  0
 19 57  1  1
 21 58  1  0
 21 59  1  0
 22 60  1  0
 22 61  1  0
 23 62  1  0
 23 63  1  0
 24 64  1  0
 24 65  1  0
 28 66  1  0
 28 67  1  0
 29 68  1  0
 29 69  1  0
 31 70  1  0
 32 71  1  0
 33 72  1  0
 34 73  1  0
 36 74  1  0
 36 75  1  0
 38 76  1  0
 38 77  1  0
M  END
>  <smiles>  (16) 
c1ccc2c(c1)CCN(c1nc(N[C@@H]3CCCC[C@@H]3N3CCCC3)nc(N3CCc4ccccc4C3)n1)C2

>  <score_type>  (16) 
oracle

>  <origin>  (16) 
autodockgpu

>  <m_score__min__energy>  (16) 
-10.83

>  <m_primary>  (16) 
energy

>  <rmsd>  (16) 
6.796010695882243

>  <m_score__min__rmsd>  (16) 
6.796010695882243

>  <meeko>  (16) 
{"free_energy": -9.62, "intermolecular_energy": -11.11, "internal_energy": -1.69, "cluster_size": 24, "cluster_id": 1, "rank_in_cluster": 22}

>  <energy>  (16) 
-10.13

>  <cluster_rmsd>  (16) 
0.96

>  <cluster>  (16) 
1

$$$$

     RDKit          3D

 77 83  0  0  0  0  0  0  0  0999 V2000
  139.9440   68.2840  227.5130 C   0  0  0  0  0  0  0  0  0  0  0  0
  140.6680   69.3990  227.9040 C   0  0  0  0  0  0  0  0  0  0  0  0
  140.8120   70.4410  227.0180 C   0  0  0  0  0  0  0  0  0  0  0  0
  140.2440   70.3730  225.7620 C   0  0  0  0  0  0  0  0  0  0  0  0
  139.5280   69.2890  225.3520 C   0  0  0  0  0  0  0  0  0  0  0  0
  139.3880   68.2430  226.2530 C   0  0  0  0  0  0  0  0  0  0  0  0
  138.8990   69.1480  224.0390 C   0  0  0  0  0  0  0  0  0  0  0  0
  139.3250   70.1270  223.0040 C   0  0  0  0  0  0  0  0  0  0  0  0
  140.1410   71.2120  223.4670 N   0  0  0  0  0  0  0  0  0  0  0  0
  140.7180   72.0680  222.4740 C   0  0  0  0  0  0  0  0  0  0  0  0
  140.4460   73.3840  222.4310 N   0  0  0  0  0  0  0  0  0  0  0  0
  140.9620   74.2350  221.5140 C   0  0  0  0  0  0  0  0  0  0  0  0
  140.6250   75.6240  221.5290 N   0  0  0  0  0  0  0  0  0  0  0  0
  141.0700   76.4790  220.4790 C   0  0  2  0  0  0  0  0  0  0  0  0
  142.5200   76.3180  220.0930 C   0  0  0  0  0  0  0  0  0  0  0  0
  142.6270   76.8380  218.6510 C   0  0  0  0  0  0  0  0  0  0  0  0
  142.2430   78.3020  218.6130 C   0  0  0  0  0  0  0  0  0  0  0  0
  140.8990   78.5360  219.2200 C   0  0  0  0  0  0  0  0  0  0  0  0
  140.7690   77.9280  220.6240 C   0  0  2  0  0  0  0  0  0  0  0  0
  141.6820   78.6700  221.4580 N   0  0  0  0  0  0  0  0  0  0  0  0
  141.4700   78.5280  222.8700 C   0  0  0  0  0  0  0  0  0  0  0  0
  142.1590   79.7220  223.5170 C   0  0  0  0  0  0  0  0  0  0  0  0
  142.4120   80.6530  222.3790 C   0  0  0  0  0  0  0  0  0  0  0  0
  141.5420   80.0790  221.2670 C   0  0  0  0  0  0  0  0  0  0  0  0
  141.7930   73.6950  220.6070 N   0  0  0  0  0  0  0  0  0  0  0  0
  142.0990   72.3860  220.6040 C   0  0  0  0  0  0  0  0  0  0  0  0
  142.9820   71.8390  219.6340 N   0  0  0  0  0  0  0  0  0  0  0  0
  142.6430   71.8950  218.2160 C   0  0  0  0  0  0  0  0  0  0  0  0
  143.9580   71.9590  217.4480 C   0  0  0  0  0  0  0  0  0  0  0  0
  144.6440   70.6680  217.7040 C   0  0  0  0  0  0  0  0  0  0  0  0
  145.1140   69.8810  216.6800 C   0  0  0  0  0  0  0  0  0  0  0  0
  145.7460   68.6850  216.9970 C   0  0  0  0  0  0  0  0  0  0  0  0
  145.8820   68.3220  218.3150 C   0  0  0  0  0  0  0  0  0  0  0  0
  145.4120   69.1070  219.3460 C   0  0  0  0  0  0  0  0  0  0  0  0
  144.7810   70.3010  219.0420 C   0  0  0  0  0  0  0  0  0  0  0  0
  144.2380   71.2190  220.0660 C   0  0  0  0  0  0  0  0  0  0  0  0
  141.5630   71.6020  221.5260 N   0  0  0  0  0  0  0  0  0  0  0  0
  140.4220   71.5050  224.8500 C   0  0  0  0  0  0  0  0  0  0  0  0
  139.8141   67.4377  228.2036 H   0  0  0  0  0  0  0  0  0  0  0  0
  141.1197   69.4498  228.9057 H   0  0  0  0  0  0  0  0  0  0  0  0
  141.3832   71.3338  227.3122 H   0  0  0  0  0  0  0  0  0  0  0  0
  138.8153   67.3534  225.9519 H   0  0  0  0  0  0  0  0  0  0  0  0
  139.1273   68.1398  223.6629 H   0  0  0  0  0  0  0  0  0  0  0  0
  137.8274   69.3356  224.2017 H   0  0  0  0  0  0  0  0  0  0  0  0
  139.8937   69.5808  222.2370 H   0  0  0  0  0  0  0  0  0  0  0  0
  138.3987   70.5887  222.6314 H   0  0  0  0  0  0  0  0  0  0  0  0
  140.0590   75.9630  222.3130 H   0  0  0  0  0  0  0  0  0  0  0  0
  140.4392   76.1003  219.6613 H   0  0  0  0  0  0  0  0  0  0  0  0
  143.1629   76.9086  220.7623 H   0  0  0  0  0  0  0  0  0  0  0  0
  142.8472   75.2708  220.1721 H   0  0  0  0  0  0  0  0  0  0  0  0
  143.6610   76.7207  218.2946 H   0  0  0  0  0  0  0  0  0  0  0  0
  141.9486   76.2639  218.0028 H   0  0  0  0  0  0  0  0  0  0  0  0
  142.9924   78.8818  219.1718 H   0  0  0  0  0  0  0  0  0  0  0  0
  142.2040   78.6192  217.5605 H   0  0  0  0  0  0  0  0  0  0  0  0
  140.7279   79.6204  219.2889 H   0  0  0  0  0  0  0  0  0  0  0  0
  140.1537   78.0468  218.5757 H   0  0  0  0  0  0  0  0  0  0  0  0
  139.7759   77.9970  221.0919 H   0  0  0  0  0  0  0  0  0  0  0  0
  140.3940   78.5371  223.0983 H   0  0  0  0  0  0  0  0  0  0  0  0
  141.8737   77.5762  223.2455 H   0  0  0  0  0  0  0  0  0  0  0  0
  141.5059   80.1907  224.2678 H   0  0  0  0  0  0  0  0  0  0  0  0
  143.0808   79.4423  224.0481 H   0  0  0  0  0  0  0  0  0  0  0  0
  142.1052   81.6787  222.6315 H   0  0  0  0  0  0  0  0  0  0  0  0
  143.4750   80.7241  222.1050 H   0  0  0  0  0  0  0  0  0  0  0  0
  140.4939   80.3930  221.3806 H   0  0  0  0  0  0  0  0  0  0  0  0
  141.8372   80.4159  220.2623 H   0  0  0  0  0  0  0  0  0  0  0  0
  142.0792   70.9961  217.9262 H   0  0  0  0  0  0  0  0  0  0  0  0
  142.0156   72.7713  217.9957 H   0  0  0  0  0  0  0  0  0  0  0  0
  143.7666   72.0834  216.3719 H   0  0  0  0  0  0  0  0  0  0  0  0
  144.5721   72.8127  217.7706 H   0  0  0  0  0  0  0  0  0  0  0  0
  144.9924   70.1914  215.6317 H   0  0  0  0  0  0  0  0  0  0  0  0
  146.1342   68.0343  216.1995 H   0  0  0  0  0  0  0  0  0  0  0  0
  146.3829   67.3727  218.5557 H   0  0  0  0  0  0  0  0  0  0  0  0
  145.5362   68.7902  220.3920 H   0  0  0  0  0  0  0  0  0  0  0  0
  144.0550   70.6520  220.9907 H   0  0  0  0  0  0  0  0  0  0  0  0
  144.9742   72.0196  220.2306 H   0  0  0  0  0  0  0  0  0  0  0  0
  141.4659   71.8438  224.9236 H   0  0  0  0  0  0  0  0  0  0  0  0
  139.6964   72.2715  225.1597 H   0  0  0  0  0  0  0  0  0  0  0  0
  1  2  2  0
  2  3  1  0
  3  4  2  0
  4  5  1  0
  5  6  2  0
  5  7  1  0
  7  8  1  0
  8  9  1  0
  9 10  1  0
 10 11  2  0
 11 12  1  0
 12 13  1  0
 13 14  1  0
 14 15  1  0
 15 16  1  0
 16 17  1  0
 17 18  1  0
 18 19  1  0
 19 20  1  0
 20 21  1  0
 21 22  1  0
 22 23  1  0
 23 24  1  0
 12 25  2  0
 25 26  1  0
 26 27  1  0
 27 28  1  0
 28 29  1  0
 29 30  1  0
 30 31  2  0
 31 32  1  0
 32 33  2  0
 33 34  1  0
 34 35  2  0
 35 36  1  0
 26 37  2  0
  9 38  1  0
  6  1  1  0
 37 10  1  0
 38  4  1  0
 19 14  1  0
 24 20  1  0
 36 27  1  0
 35 30  1  0
  1 39  1  0
  2 40  1  0
  3 41  1  0
  6 42  1  0
  7 43  1  0
  7 44  1  0
  8 45  1  0
  8 46  1  0
 13 47  1  0
 14 48  1  6
 15 49  1  0
 15 50  1  0
 16 51  1  0
 16 52  1  0
 17 53  1  0
 17 54  1  0
 18 55  1  0
 18 56  1  0
 19 57  1  1
 21 58  1  0
 21 59  1  0
 22 60  1  0
 22 61  1  0
 23 62  1  0
 23 63  1  0
 24 64  1  0
 24 65  1  0
 28 66  1  0
 28 67  1  0
 29 68  1  0
 29 69  1  0
 31 70  1  0
 32 71  1  0
 33 72  1  0
 34 73  1  0
 36 74  1  0
 36 75  1  0
 38 76  1  0
 38 77  1  0
M  END
>  <smiles>  (17) 
c1ccc2c(c1)CCN(c1nc(N[C@@H]3CCCC[C@@H]3N3CCCC3)nc(N3CCc4ccccc4C3)n1)C2

>  <score_type>  (17) 
oracle

>  <origin>  (17) 
autodockgpu

>  <m_score__min__energy>  (17) 
-10.83

>  <m_primary>  (17) 
energy

>  <rmsd>  (17) 
3.4611262615855267

>  <m_score__min__rmsd>  (17) 
3.4611262615855267

>  <meeko>  (17) 
{"free_energy": -9.95, "intermolecular_energy": -11.44, "internal_energy": -1.45, "cluster_size": 1, "cluster_id": 3, "rank_in_cluster": 1}

>  <energy>  (17) 
-10.03

>  <cluster_rmsd>  (17) 
0.89

>  <cluster>  (17) 
1

$$$$

     RDKit          3D

 77 83  0  0  0  0  0  0  0  0999 V2000
  145.5400   67.8400  219.0860 C   0  0  0  0  0  0  0  0  0  0  0  0
  144.2590   67.3620  219.3180 C   0  0  0  0  0  0  0  0  0  0  0  0
  143.2500   68.2630  219.5640 C   0  0  0  0  0  0  0  0  0  0  0  0
  143.5100   69.6180  219.5790 C   0  0  0  0  0  0  0  0  0  0  0  0
  144.7590   70.1150  219.3550 C   0  0  0  0  0  0  0  0  0  0  0  0
  145.7720   69.1980  219.1080 C   0  0  0  0  0  0  0  0  0  0  0  0
  145.1080   71.5350  219.3560 C   0  0  0  0  0  0  0  0  0  0  0  0
  144.0900   72.4560  219.9260 C   0  0  0  0  0  0  0  0  0  0  0  0
  142.8120   71.8730  220.2180 N   0  0  0  0  0  0  0  0  0  0  0  0
  141.8710   72.6820  220.9340 C   0  0  0  0  0  0  0  0  0  0  0  0
  140.8650   72.1360  221.6410 N   0  0  0  0  0  0  0  0  0  0  0  0
  139.9490   72.8530  222.3330 C   0  0  0  0  0  0  0  0  0  0  0  0
  138.9040   72.2050  223.0610 N   0  0  0  0  0  0  0  0  0  0  0  0
  139.2200   71.2180  224.0390 C   0  0  2  0  0  0  0  0  0  0  0  0
  140.6940   71.0180  224.2940 C   0  0  0  0  0  0  0  0  0  0  0  0
  140.7950   70.4140  225.7030 C   0  0  0  0  0  0  0  0  0  0  0  0
  140.0810   69.0800  225.7330 C   0  0  0  0  0  0  0  0  0  0  0  0
  138.6750   69.1960  225.2460 C   0  0  0  0  0  0  0  0  0  0  0  0
  138.5750   69.8880  223.8790 C   0  0  2  0  0  0  0  0  0  0  0  0
  139.2150   68.9970  222.9420 N   0  0  0  0  0  0  0  0  0  0  0  0
  139.2940   69.4850  221.5950 C   0  0  0  0  0  0  0  0  0  0  0  0
  139.5190   68.2590  220.7210 C   0  0  0  0  0  0  0  0  0  0  0  0
  139.1920   67.1110  221.6170 C   0  0  0  0  0  0  0  0  0  0  0  0
  138.4800   67.7820  222.7860 C   0  0  0  0  0  0  0  0  0  0  0  0
  140.0860   74.1890  222.2860 N   0  0  0  0  0  0  0  0  0  0  0  0
  141.0720   74.7860  221.5940 C   0  0  0  0  0  0  0  0  0  0  0  0
  141.1950   76.2010  221.5610 N   0  0  0  0  0  0  0  0  0  0  0  0
  141.8240   76.8590  220.4200 C   0  0  0  0  0  0  0  0  0  0  0  0
  141.1780   78.2340  220.2910 C   0  0  0  0  0  0  0  0  0  0  0  0
  141.5600   78.9810  221.5160 C   0  0  0  0  0  0  0  0  0  0  0  0
  142.1320   80.2290  221.4560 C   0  0  0  0  0  0  0  0  0  0  0  0
  142.4620   80.8670  222.6460 C   0  0  0  0  0  0  0  0  0  0  0  0
  142.2100   80.2380  223.8410 C   0  0  0  0  0  0  0  0  0  0  0  0
  141.6370   78.9860  223.9070 C   0  0  0  0  0  0  0  0  0  0  0  0
  141.3040   78.3420  222.7280 C   0  0  0  0  0  0  0  0  0  0  0  0
  140.6860   76.9990  222.6810 C   0  0  0  0  0  0  0  0  0  0  0  0
  141.9390   74.0320  220.9370 N   0  0  0  0  0  0  0  0  0  0  0  0
  142.4050   70.5420  219.8460 C   0  0  0  0  0  0  0  0  0  0  0  0
  146.3647   67.1402  218.8859 H   0  0  0  0  0  0  0  0  0  0  0  0
  144.0539   66.2814  219.3054 H   0  0  0  0  0  0  0  0  0  0  0  0
  142.2281   67.9010  219.7502 H   0  0  0  0  0  0  0  0  0  0  0  0
  146.7917   69.5673  218.9241 H   0  0  0  0  0  0  0  0  0  0  0  0
  146.0332   71.6537  219.9390 H   0  0  0  0  0  0  0  0  0  0  0  0
  145.2036   71.8175  218.2972 H   0  0  0  0  0  0  0  0  0  0  0  0
  144.4946   72.8679  220.8623 H   0  0  0  0  0  0  0  0  0  0  0  0
  143.9024   73.2109  219.1482 H   0  0  0  0  0  0  0  0  0  0  0  0
  137.9410   72.4830  222.8500 H   0  0  0  0  0  0  0  0  0  0  0  0
  138.7661   71.6907  224.9225 H   0  0  0  0  0  0  0  0  0  0  0  0
  141.1218   70.3296  223.5503 H   0  0  0  0  0  0  0  0  0  0  0  0
  141.2509   71.9635  224.2172 H   0  0  0  0  0  0  0  0  0  0  0  0
  141.8535   70.2692  225.9647 H   0  0  0  0  0  0  0  0  0  0  0  0
  140.3277   71.0961  226.4285 H   0  0  0  0  0  0  0  0  0  0  0  0
  140.6235   68.3707  225.0907 H   0  0  0  0  0  0  0  0  0  0  0  0
  140.0553   68.7279  226.7748 H   0  0  0  0  0  0  0  0  0  0  0  0
  138.2479   68.1859  225.1609 H   0  0  0  0  0  0  0  0  0  0  0  0
  138.1228   69.8122  225.9708 H   0  0  0  0  0  0  0  0  0  0  0  0
  137.5583   70.0754  223.5031 H   0  0  0  0  0  0  0  0  0  0  0  0
  138.3570   69.9883  221.3146 H   0  0  0  0  0  0  0  0  0  0  0  0
  140.1045   70.2194  221.4778 H   0  0  0  0  0  0  0  0  0  0  0  0
  138.8519   68.2746  219.8465 H   0  0  0  0  0  0  0  0  0  0  0  0
  140.5427   68.2060  220.3219 H   0  0  0  0  0  0  0  0  0  0  0  0
  138.5313   66.3909  221.1121 H   0  0  0  0  0  0  0  0  0  0  0  0
  140.0767   66.5328  221.9219 H   0  0  0  0  0  0  0  0  0  0  0  0
  137.4256   67.9837  222.5460 H   0  0  0  0  0  0  0  0  0  0  0  0
  138.4560   67.1650  223.6963 H   0  0  0  0  0  0  0  0  0  0  0  0
  142.9054   76.9637  220.5924 H   0  0  0  0  0  0  0  0  0  0  0  0
  141.6858   76.2710  219.5007 H   0  0  0  0  0  0  0  0  0  0  0  0
  141.5537   78.7505  219.3954 H   0  0  0  0  0  0  0  0  0  0  0  0
  140.0854   78.1583  220.1890 H   0  0  0  0  0  0  0  0  0  0  0  0
  142.3246   80.7127  220.4870 H   0  0  0  0  0  0  0  0  0  0  0  0
  142.9208   81.8666  222.6310 H   0  0  0  0  0  0  0  0  0  0  0  0
  142.4746   80.7510  224.7774 H   0  0  0  0  0  0  0  0  0  0  0  0
  141.4478   78.5074  224.8792 H   0  0  0  0  0  0  0  0  0  0  0  0
  140.9067   76.4730  223.6215 H   0  0  0  0  0  0  0  0  0  0  0  0
  139.6023   77.1274  222.5429 H   0  0  0  0  0  0  0  0  0  0  0  0
  141.8008   70.1263  220.6659 H   0  0  0  0  0  0  0  0  0  0  0  0
  141.8457   70.6392  218.9038 H   0  0  0  0  0  0  0  0  0  0  0  0
  1  2  2  0
  2  3  1  0
  3  4  2  0
  4  5  1  0
  5  6  2  0
  5  7  1  0
  7  8  1  0
  8  9  1  0
  9 10  1  0
 10 11  2  0
 11 12  1  0
 12 13  1  0
 13 14  1  0
 14 15  1  0
 15 16  1  0
 16 17  1  0
 17 18  1  0
 18 19  1  0
 19 20  1  0
 20 21  1  0
 21 22  1  0
 22 23  1  0
 23 24  1  0
 12 25  2  0
 25 26  1  0
 26 27  1  0
 27 28  1  0
 28 29  1  0
 29 30  1  0
 30 31  2  0
 31 32  1  0
 32 33  2  0
 33 34  1  0
 34 35  2  0
 35 36  1  0
 26 37  2  0
  9 38  1  0
  6  1  1  0
 37 10  1  0
 38  4  1  0
 19 14  1  0
 24 20  1  0
 36 27  1  0
 35 30  1  0
  1 39  1  0
  2 40  1  0
  3 41  1  0
  6 42  1  0
  7 43  1  0
  7 44  1  0
  8 45  1  0
  8 46  1  0
 13 47  1  0
 14 48  1  1
 15 49  1  0
 15 50  1  0
 16 51  1  0
 16 52  1  0
 17 53  1  0
 17 54  1  0
 18 55  1  0
 18 56  1  0
 19 57  1  6
 21 58  1  0
 21 59  1  0
 22 60  1  0
 22 61  1  0
 23 62  1  0
 23 63  1  0
 24 64  1  0
 24 65  1  0
 28 66  1  0
 28 67  1  0
 29 68  1  0
 29 69  1  0
 31 70  1  0
 32 71  1  0
 33 72  1  0
 34 73  1  0
 36 74  1  0
 36 75  1  0
 38 76  1  0
 38 77  1  0
M  END
>  <smiles>  (18) 
c1ccc2c(c1)CCN(c1nc(N[C@@H]3CCCC[C@@H]3N3CCCC3)nc(N3CCc4ccccc4C3)n1)C2

>  <score_type>  (18) 
oracle

>  <origin>  (18) 
autodockgpu

>  <m_score__min__energy>  (18) 
-10.83

>  <m_primary>  (18) 
energy

>  <rmsd>  (18) 
10.121649626527004

>  <m_score__min__rmsd>  (18) 
10.121649626527004

>  <meeko>  (18) 
{"free_energy": -10.24, "intermolecular_energy": -11.73, "internal_energy": -2.08, "cluster_size": 25, "cluster_id": 2, "rank_in_cluster": 16}

>  <energy>  (18) 
-9.96

>  <cluster_rmsd>  (18) 
1.71

>  <cluster>  (18) 
1

$$$$

     RDKit          3D

 77 83  0  0  0  0  0  0  0  0999 V2000
  145.5140   67.8480  219.0870 C   0  0  0  0  0  0  0  0  0  0  0  0
  144.2330   67.3720  219.3220 C   0  0  0  0  0  0  0  0  0  0  0  0
  143.2260   68.2740  219.5710 C   0  0  0  0  0  0  0  0  0  0  0  0
  143.4880   69.6290  219.5840 C   0  0  0  0  0  0  0  0  0  0  0  0
  144.7370   70.1230  219.3560 C   0  0  0  0  0  0  0  0  0  0  0  0
  145.7480   69.2060  219.1060 C   0  0  0  0  0  0  0  0  0  0  0  0
  145.0870   71.5430  219.3550 C   0  0  0  0  0  0  0  0  0  0  0  0
  144.0720   72.4660  219.9270 C   0  0  0  0  0  0  0  0  0  0  0  0
  142.7940   71.8850  220.2230 N   0  0  0  0  0  0  0  0  0  0  0  0
  141.8560   72.6960  220.9410 C   0  0  0  0  0  0  0  0  0  0  0  0
  140.8540   72.1520  221.6540 N   0  0  0  0  0  0  0  0  0  0  0  0
  139.9410   72.8710  222.3480 C   0  0  0  0  0  0  0  0  0  0  0  0
  138.9000   72.2250  223.0830 N   0  0  0  0  0  0  0  0  0  0  0  0
  139.2200   71.2290  224.0500 C   0  0  2  0  0  0  0  0  0  0  0  0
  140.6940   71.0260  224.2970 C   0  0  0  0  0  0  0  0  0  0  0  0
  140.8010   70.4080  225.7000 C   0  0  0  0  0  0  0  0  0  0  0  0
  140.0860   69.0730  225.7200 C   0  0  0  0  0  0  0  0  0  0  0  0
  138.6780   69.1950  225.2390 C   0  0  0  0  0  0  0  0  0  0  0  0
  138.5730   69.9000  223.8790 C   0  0  2  0  0  0  0  0  0  0  0  0
  139.2090   69.0180  222.9310 N   0  0  0  0  0  0  0  0  0  0  0  0
  139.2680   69.5120  221.5860 C   0  0  0  0  0  0  0  0  0  0  0  0
  139.4920   68.2910  220.7040 C   0  0  0  0  0  0  0  0  0  0  0  0
  139.1860   67.1370  221.5990 C   0  0  0  0  0  0  0  0  0  0  0  0
  138.4830   67.7970  222.7790 C   0  0  0  0  0  0  0  0  0  0  0  0
  140.0780   74.2070  222.2970 N   0  0  0  0  0  0  0  0  0  0  0  0
  141.0610   74.8020  221.5990 C   0  0  0  0  0  0  0  0  0  0  0  0
  141.1840   76.2170  221.5620 N   0  0  0  0  0  0  0  0  0  0  0  0
  141.8070   76.8720  220.4160 C   0  0  0  0  0  0  0  0  0  0  0  0
  141.1610   78.2460  220.2860 C   0  0  0  0  0  0  0  0  0  0  0  0
  141.5480   78.9960  221.5070 C   0  0  0  0  0  0  0  0  0  0  0  0
  142.1200   80.2440  221.4420 C   0  0  0  0  0  0  0  0  0  0  0  0
  142.4550   80.8860  222.6280 C   0  0  0  0  0  0  0  0  0  0  0  0
  142.2080   80.2600  223.8260 C   0  0  0  0  0  0  0  0  0  0  0  0
  141.6350   79.0090  223.8980 C   0  0  0  0  0  0  0  0  0  0  0  0
  141.2970   78.3610  222.7220 C   0  0  0  0  0  0  0  0  0  0  0  0
  140.6790   77.0180  222.6820 C   0  0  0  0  0  0  0  0  0  0  0  0
  141.9240   74.0460  220.9400 N   0  0  0  0  0  0  0  0  0  0  0  0
  142.3850   70.5540  219.8530 C   0  0  0  0  0  0  0  0  0  0  0  0
  146.3375   67.1467  218.8869 H   0  0  0  0  0  0  0  0  0  0  0  0
  144.0263   66.2917  219.3094 H   0  0  0  0  0  0  0  0  0  0  0  0
  142.2043   67.9134  219.7612 H   0  0  0  0  0  0  0  0  0  0  0  0
  146.7672   69.5742  218.9172 H   0  0  0  0  0  0  0  0  0  0  0  0
  146.0140   71.6613  219.9352 H   0  0  0  0  0  0  0  0  0  0  0  0
  145.1792   71.8243  218.2956 H   0  0  0  0  0  0  0  0  0  0  0  0
  144.4798   72.8781  220.8619 H   0  0  0  0  0  0  0  0  0  0  0  0
  143.8834   73.2206  219.1492 H   0  0  0  0  0  0  0  0  0  0  0  0
  137.9370   72.5110  222.8840 H   0  0  0  0  0  0  0  0  0  0  0  0
  138.7708   71.6934  224.9403 H   0  0  0  0  0  0  0  0  0  0  0  0
  141.1184   70.3448  223.5448 H   0  0  0  0  0  0  0  0  0  0  0  0
  141.2507   71.9721  224.2273 H   0  0  0  0  0  0  0  0  0  0  0  0
  141.8606   70.2602  225.9556 H   0  0  0  0  0  0  0  0  0  0  0  0
  140.3372   71.0832  226.4342 H   0  0  0  0  0  0  0  0  0  0  0  0
  140.6257   68.3695  225.0690 H   0  0  0  0  0  0  0  0  0  0  0  0
  140.0641   68.7106  226.7584 H   0  0  0  0  0  0  0  0  0  0  0  0
  138.2497   68.1861  225.1459 H   0  0  0  0  0  0  0  0  0  0  0  0
  138.1293   69.8051  225.9716 H   0  0  0  0  0  0  0  0  0  0  0  0
  137.5550   70.0913  223.5086 H   0  0  0  0  0  0  0  0  0  0  0  0
  138.3238   70.0092  221.3190 H   0  0  0  0  0  0  0  0  0  0  0  0
  140.0713   70.2532  221.4622 H   0  0  0  0  0  0  0  0  0  0  0  0
  138.8138   68.3046  219.8381 H   0  0  0  0  0  0  0  0  0  0  0  0
  140.5110   68.2481  220.2919 H   0  0  0  0  0  0  0  0  0  0  0  0
  138.5253   66.4132  221.0994 H   0  0  0  0  0  0  0  0  0  0  0  0
  140.0793   66.5652  221.8906 H   0  0  0  0  0  0  0  0  0  0  0  0
  137.4240   67.9902  222.5528 H   0  0  0  0  0  0  0  0  0  0  0  0
  138.4760   67.1762  223.6871 H   0  0  0  0  0  0  0  0  0  0  0  0
  142.8892   76.9771  220.5827 H   0  0  0  0  0  0  0  0  0  0  0  0
  141.6637   76.2813  219.4992 H   0  0  0  0  0  0  0  0  0  0  0  0
  141.5331   78.7600  219.3875 H   0  0  0  0  0  0  0  0  0  0  0  0
  140.0679   78.1702  220.1887 H   0  0  0  0  0  0  0  0  0  0  0  0
  142.3088   80.7249  220.4709 H   0  0  0  0  0  0  0  0  0  0  0  0
  142.9135   81.8857  222.6080 H   0  0  0  0  0  0  0  0  0  0  0  0
  142.4770   80.7754  224.7598 H   0  0  0  0  0  0  0  0  0  0  0  0
  141.4494   78.5335  224.8724 H   0  0  0  0  0  0  0  0  0  0  0  0
  140.9037   76.4949  223.6232 H   0  0  0  0  0  0  0  0  0  0  0  0
  139.5946   77.1454  222.5485 H   0  0  0  0  0  0  0  0  0  0  0  0
  141.7825   70.1395  220.6747 H   0  0  0  0  0  0  0  0  0  0  0  0
  141.8236   70.6511  218.9121 H   0  0  0  0  0  0  0  0  0  0  0  0
  1  2  2  0
  2  3  1  0
  3  4  2  0
  4  5  1  0
  5  6  2  0
  5  7  1  0
  7  8  1  0
  8  9  1  0
  9 10  1  0
 10 11  2  0
 11 12  1  0
 12 13  1  0
 13 14  1  0
 14 15  1  0
 15 16  1  0
 16 17  1  0
 17 18  1  0
 18 19  1  0
 19 20  1  0
 20 21  1  0
 21 22  1  0
 22 23  1  0
 23 24  1  0
 12 25  2  0
 25 26  1  0
 26 27  1  0
 27 28  1  0
 28 29  1  0
 29 30  1  0
 30 31  2  0
 31 32  1  0
 32 33  2  0
 33 34  1  0
 34 35  2  0
 35 36  1  0
 26 37  2  0
  9 38  1  0
  6  1  1  0
 37 10  1  0
 38  4  1  0
 19 14  1  0
 24 20  1  0
 36 27  1  0
 35 30  1  0
  1 39  1  0
  2 40  1  0
  3 41  1  0
  6 42  1  0
  7 43  1  0
  7 44  1  0
  8 45  1  0
  8 46  1  0
 13 47  1  0
 14 48  1  1
 15 49  1  0
 15 50  1  0
 16 51  1  0
 16 52  1  0
 17 53  1  0
 17 54  1  0
 18 55  1  0
 18 56  1  0
 19 57  1  6
 21 58  1  0
 21 59  1  0
 22 60  1  0
 22 61  1  0
 23 62  1  0
 23 63  1  0
 24 64  1  0
 24 65  1  0
 28 66  1  0
 28 67  1  0
 29 68  1  0
 29 69  1  0
 31 70  1  0
 32 71  1  0
 33 72  1  0
 34 73  1  0
 36 74  1  0
 36 75  1  0
 38 76  1  0
 38 77  1  0
M  END
>  <smiles>  (19) 
c1ccc2c(c1)CCN(c1nc(N[C@@H]3CCCC[C@@H]3N3CCCC3)nc(N3CCc4ccccc4C3)n1)C2

>  <score_type>  (19) 
oracle

>  <origin>  (19) 
autodockgpu

>  <m_score__min__energy>  (19) 
-10.83

>  <m_primary>  (19) 
energy

>  <rmsd>  (19) 
10.110500569224824

>  <m_score__min__rmsd>  (19) 
10.110500569224824

>  <meeko>  (19) 
{"free_energy": -10.23, "intermolecular_energy": -11.72, "internal_energy": -2.09, "cluster_size": 25, "cluster_id": 2, "rank_in_cluster": 18}

>  <energy>  (19) 
-9.73

>  <cluster_rmsd>  (19) 
1.63

>  <cluster>  (19) 
1

$$$$

     RDKit          3D

 77 83  0  0  0  0  0  0  0  0999 V2000
  140.1290   68.9550  227.7580 C   0  0  0  0  0  0  0  0  0  0  0  0
  141.0670   69.9650  227.9060 C   0  0  0  0  0  0  0  0  0  0  0  0
  141.1840   70.9120  226.9150 C   0  0  0  0  0  0  0  0  0  0  0  0
  140.3790   70.8540  225.7950 C   0  0  0  0  0  0  0  0  0  0  0  0
  139.4500   69.8720  225.6250 C   0  0  0  0  0  0  0  0  0  0  0  0
  139.3390   68.9210  226.6300 C   0  0  0  0  0  0  0  0  0  0  0  0
  138.5650   69.7480  224.4670 C   0  0  0  0  0  0  0  0  0  0  0  0
  138.9170   70.5790  223.2850 C   0  0  0  0  0  0  0  0  0  0  0  0
  139.9540   71.5490  223.4890 N   0  0  0  0  0  0  0  0  0  0  0  0
  140.4440   72.2370  222.3320 C   0  0  0  0  0  0  0  0  0  0  0  0
  140.7970   71.5770  221.2150 N   0  0  0  0  0  0  0  0  0  0  0  0
  141.2670   72.1770  220.0960 C   0  0  0  0  0  0  0  0  0  0  0  0
  141.6260   71.4090  218.9450 N   0  0  0  0  0  0  0  0  0  0  0  0
  142.9360   70.8610  218.8310 C   0  0  2  0  0  0  0  0  0  0  0  0
  143.3380   69.9270  219.9460 C   0  0  0  0  0  0  0  0  0  0  0  0
  144.4450   69.0350  219.3630 C   0  0  0  0  0  0  0  0  0  0  0  0
  145.6250   69.8940  218.9590 C   0  0  0  0  0  0  0  0  0  0  0  0
  145.2150   70.9950  218.0390 C   0  0  0  0  0  0  0  0  0  0  0  0
  144.0440   71.8230  218.5870 C   0  0  2  0  0  0  0  0  0  0  0  0
  144.5520   72.4940  219.7570 N   0  0  0  0  0  0  0  0  0  0  0  0
  144.1620   73.8680  219.8880 C   0  0  0  0  0  0  0  0  0  0  0  0
  145.1640   74.4950  220.8490 C   0  0  0  0  0  0  0  0  0  0  0  0
  146.2730   73.4990  220.9160 C   0  0  0  0  0  0  0  0  0  0  0  0
  145.9780   72.5790  219.7370 C   0  0  0  0  0  0  0  0  0  0  0  0
  141.3720   73.5160  220.1430 N   0  0  0  0  0  0  0  0  0  0  0  0
  141.0320   74.2250  221.2330 C   0  0  0  0  0  0  0  0  0  0  0  0
  141.1520   75.6400  221.2570 N   0  0  0  0  0  0  0  0  0  0  0  0
  141.8350   76.3400  220.1730 C   0  0  0  0  0  0  0  0  0  0  0  0
  141.1920   77.7170  220.0600 C   0  0  0  0  0  0  0  0  0  0  0  0
  141.5080   78.4200  221.3290 C   0  0  0  0  0  0  0  0  0  0  0  0
  142.0780   79.6710  221.3430 C   0  0  0  0  0  0  0  0  0  0  0  0
  142.3440   80.2660  222.5690 C   0  0  0  0  0  0  0  0  0  0  0  0
  142.0340   79.5960  223.7270 C   0  0  0  0  0  0  0  0  0  0  0  0
  141.4630   78.3410  223.7190 C   0  0  0  0  0  0  0  0  0  0  0  0
  141.1930   77.7380  222.5030 C   0  0  0  0  0  0  0  0  0  0  0  0
  140.5830   76.3960  222.3770 C   0  0  0  0  0  0  0  0  0  0  0  0
  140.5790   73.5820  222.2980 N   0  0  0  0  0  0  0  0  0  0  0  0
  140.5370   71.8820  224.7640 C   0  0  0  0  0  0  0  0  0  0  0  0
  140.0163   68.1858  228.5362 H   0  0  0  0  0  0  0  0  0  0  0  0
  141.7064   70.0084  228.8000 H   0  0  0  0  0  0  0  0  0  0  0  0
  141.9234   71.7202  227.0156 H   0  0  0  0  0  0  0  0  0  0  0  0
  138.5976   68.1156  226.5224 H   0  0  0  0  0  0  0  0  0  0  0  0
  138.5700   68.6944  224.1510 H   0  0  0  0  0  0  0  0  0  0  0  0
  137.5834   70.1126  224.8038 H   0  0  0  0  0  0  0  0  0  0  0  0
  139.2419   69.9018  222.4813 H   0  0  0  0  0  0  0  0  0  0  0  0
  138.0116   71.1561  223.0459 H   0  0  0  0  0  0  0  0  0  0  0  0
  140.9080   71.2760  218.2260 H   0  0  0  0  0  0  0  0  0  0  0  0
  142.8066   70.2789  217.9067 H   0  0  0  0  0  0  0  0  0  0  0  0
  143.7185   70.4978  220.8059 H   0  0  0  0  0  0  0  0  0  0  0  0
  142.4848   69.3326  220.3050 H   0  0  0  0  0  0  0  0  0  0  0  0
  144.7652   68.3052  220.1212 H   0  0  0  0  0  0  0  0  0  0  0  0
  144.0602   68.5023  218.4809 H   0  0  0  0  0  0  0  0  0  0  0  0
  146.0731   70.3326  219.8628 H   0  0  0  0  0  0  0  0  0  0  0  0
  146.3491   69.2565  218.4306 H   0  0  0  0  0  0  0  0  0  0  0  0
  146.0755   71.6626  217.8843 H   0  0  0  0  0  0  0  0  0  0  0  0
  144.8823   70.5334  217.0976 H   0  0  0  0  0  0  0  0  0  0  0  0
  143.6444   72.6004  217.9192 H   0  0  0  0  0  0  0  0  0  0  0  0
  144.2015   74.3720  218.9111 H   0  0  0  0  0  0  0  0  0  0  0  0
  143.1312   73.9621  220.2602 H   0  0  0  0  0  0  0  0  0  0  0  0
  145.5268   75.4585  220.4616 H   0  0  0  0  0  0  0  0  0  0  0  0
  144.7272   74.7087  221.8357 H   0  0  0  0  0  0  0  0  0  0  0  0
  147.2515   73.9882  220.8008 H   0  0  0  0  0  0  0  0  0  0  0  0
  146.3223   72.9686  221.8784 H   0  0  0  0  0  0  0  0  0  0  0  0
  146.3365   73.0157  218.7932 H   0  0  0  0  0  0  0  0  0  0  0  0
  146.4756   71.6007  219.8103 H   0  0  0  0  0  0  0  0  0  0  0  0
  142.9059   76.4405  220.4033 H   0  0  0  0  0  0  0  0  0  0  0  0
  141.7448   75.7848  219.2277 H   0  0  0  0  0  0  0  0  0  0  0  0
  141.6115   78.2659  219.2040 H   0  0  0  0  0  0  0  0  0  0  0  0
  140.1063   77.6434  219.8990 H   0  0  0  0  0  0  0  0  0  0  0  0
  142.3182   80.1895  220.4031 H   0  0  0  0  0  0  0  0  0  0  0  0
  142.7995   81.2663  222.6124 H   0  0  0  0  0  0  0  0  0  0  0  0
  142.2483   80.0765  224.6930 H   0  0  0  0  0  0  0  0  0  0  0  0
  141.2262   77.8280  224.6628 H   0  0  0  0  0  0  0  0  0  0  0  0
  140.7573   75.8372  223.3083 H   0  0  0  0  0  0  0  0  0  0  0  0
  139.5072   76.5268  222.1886 H   0  0  0  0  0  0  0  0  0  0  0  0
  141.6130   72.0550  224.6143 H   0  0  0  0  0  0  0  0  0  0  0  0
  140.0027   72.7721  225.1276 H   0  0  0  0  0  0  0  0  0  0  0  0
  1  2  2  0
  2  3  1  0
  3  4  2  0
  4  5  1  0
  5  6  2  0
  5  7  1  0
  7  8  1  0
  8  9  1  0
  9 10  1  0
 10 11  2  0
 11 12  1  0
 12 13  1  0
 13 14  1  0
 14 15  1  0
 15 16  1  0
 16 17  1  0
 17 18  1  0
 18 19  1  0
 19 20  1  0
 20 21  1  0
 21 22  1  0
 22 23  1  0
 23 24  1  0
 12 25  2  0
 25 26  1  0
 26 27  1  0
 27 28  1  0
 28 29  1  0
 29 30  1  0
 30 31  2  0
 31 32  1  0
 32 33  2  0
 33 34  1  0
 34 35  2  0
 35 36  1  0
 26 37  2  0
  9 38  1  0
  6  1  1  0
 37 10  1  0
 38  4  1  0
 19 14  1  0
 24 20  1  0
 36 27  1  0
 35 30  1  0
  1 39  1  0
  2 40  1  0
  3 41  1  0
  6 42  1  0
  7 43  1  0
  7 44  1  0
  8 45  1  0
  8 46  1  0
 13 47  1  0
 14 48  1  6
 15 49  1  0
 15 50  1  0
 16 51  1  0
 16 52  1  0
 17 53  1  0
 17 54  1  0
 18 55  1  0
 18 56  1  0
 19 57  1  6
 21 58  1  0
 21 59  1  0
 22 60  1  0
 22 61  1  0
 23 62  1  0
 23 63  1  0
 24 64  1  0
 24 65  1  0
 28 66  1  0
 28 67  1  0
 29 68  1  0
 29 69  1  0
 31 70  1  0
 32 71  1  0
 33 72  1  0
 34 73  1  0
 36 74  1  0
 36 75  1  0
 38 76  1  0
 38 77  1  0
M  END
>  <smiles>  (20) 
c1ccc2c(c1)CCN(c1nc(N[C@@H]3CCCC[C@@H]3N3CCCC3)nc(N3CCc4ccccc4C3)n1)C2

>  <score_type>  (20) 
oracle

>  <origin>  (20) 
autodockgpu

>  <m_score__min__energy>  (20) 
-10.83

>  <m_primary>  (20) 
energy

>  <rmsd>  (20) 
7.94489835719451

>  <m_score__min__rmsd>  (20) 
7.94489835719451

>  <meeko>  (20) 
{"free_energy": -10.83, "intermolecular_energy": -12.32, "internal_energy": -1.73, "cluster_size": 24, "cluster_id": 1, "rank_in_cluster": 1}

>  <energy>  (20) 
-9.68

>  <cluster_rmsd>  (20) 
1.61

>  <cluster>  (20) 
1

$$$$

     RDKit          3D

 77 83  0  0  0  0  0  0  0  0999 V2000
  145.7380   67.8540  219.0790 C   0  0  0  0  0  0  0  0  0  0  0  0
  144.4840   67.3380  219.3700 C   0  0  0  0  0  0  0  0  0  0  0  0
  143.4520   68.2100  219.6250 C   0  0  0  0  0  0  0  0  0  0  0  0
  143.6630   69.5740  219.5900 C   0  0  0  0  0  0  0  0  0  0  0  0
  144.8850   70.1060  219.3060 C   0  0  0  0  0  0  0  0  0  0  0  0
  145.9210   69.2190  219.0500 C   0  0  0  0  0  0  0  0  0  0  0  0
  145.1820   71.5370  219.2510 C   0  0  0  0  0  0  0  0  0  0  0  0
  144.1520   72.4400  219.8290 C   0  0  0  0  0  0  0  0  0  0  0  0
  142.9060   71.8220  220.1840 N   0  0  0  0  0  0  0  0  0  0  0  0
  141.9620   72.6190  220.9080 C   0  0  0  0  0  0  0  0  0  0  0  0
  140.9730   72.0620  221.6290 N   0  0  0  0  0  0  0  0  0  0  0  0
  140.0550   72.7680  222.3290 C   0  0  0  0  0  0  0  0  0  0  0  0
  139.0290   72.1070  223.0730 N   0  0  0  0  0  0  0  0  0  0  0  0
  138.6390   70.7810  222.7300 C   0  0  2  0  0  0  0  0  0  0  0  0
  137.1740   70.4740  222.9230 C   0  0  0  0  0  0  0  0  0  0  0  0
  136.8690   69.2930  221.9880 C   0  0  0  0  0  0  0  0  0  0  0  0
  137.7040   68.0980  222.3940 C   0  0  0  0  0  0  0  0  0  0  0  0
  139.1570   68.4350  222.4550 C   0  0  0  0  0  0  0  0  0  0  0  0
  139.4430   69.6750  223.3150 C   0  0  2  0  0  0  0  0  0  0  0  0
  139.0970   69.3030  224.6650 N   0  0  0  0  0  0  0  0  0  0  0  0
  139.6910   70.1120  225.6900 C   0  0  0  0  0  0  0  0  0  0  0  0
  139.6200   69.2840  226.9660 C   0  0  0  0  0  0  0  0  0  0  0  0
  139.3050   67.9070  226.4860 C   0  0  0  0  0  0  0  0  0  0  0  0
  139.5740   67.9960  224.9890 C   0  0  0  0  0  0  0  0  0  0  0  0
  140.1720   74.1060  222.2760 N   0  0  0  0  0  0  0  0  0  0  0  0
  141.1410   74.7150  221.5710 C   0  0  0  0  0  0  0  0  0  0  0  0
  141.2430   76.1310  221.5310 N   0  0  0  0  0  0  0  0  0  0  0  0
  141.8860   76.7920  220.3990 C   0  0  0  0  0  0  0  0  0  0  0  0
  141.2220   78.1550  220.2470 C   0  0  0  0  0  0  0  0  0  0  0  0
  141.5650   78.9150  221.4750 C   0  0  0  0  0  0  0  0  0  0  0  0
  142.1180   80.1720  221.4200 C   0  0  0  0  0  0  0  0  0  0  0  0
  142.4120   80.8220  222.6120 C   0  0  0  0  0  0  0  0  0  0  0  0
  142.1440   80.1970  223.8050 C   0  0  0  0  0  0  0  0  0  0  0  0
  141.5890   78.9370  223.8670 C   0  0  0  0  0  0  0  0  0  0  0  0
  141.2920   78.2800  222.6860 C   0  0  0  0  0  0  0  0  0  0  0  0
  140.6960   76.9270  222.6340 C   0  0  0  0  0  0  0  0  0  0  0  0
  142.0100   73.9710  220.9050 N   0  0  0  0  0  0  0  0  0  0  0  0
  142.5360   70.4660  219.8670 C   0  0  0  0  0  0  0  0  0  0  0  0
  146.5808   67.1778  218.8727 H   0  0  0  0  0  0  0  0  0  0  0  0
  144.3181   66.2509  219.3963 H   0  0  0  0  0  0  0  0  0  0  0  0
  142.4511   67.8181  219.8586 H   0  0  0  0  0  0  0  0  0  0  0  0
  146.9191   69.6182  218.8167 H   0  0  0  0  0  0  0  0  0  0  0  0
  146.1222   71.7066  219.7963 H   0  0  0  0  0  0  0  0  0  0  0  0
  145.2298   71.7886  218.1812 H   0  0  0  0  0  0  0  0  0  0  0  0
  144.5737   72.8949  220.7374 H   0  0  0  0  0  0  0  0  0  0  0  0
  143.9108   73.1633  219.0361 H   0  0  0  0  0  0  0  0  0  0  0  0
  138.6030   72.6240  223.8480 H   0  0  0  0  0  0  0  0  0  0  0  0
  138.8599   70.8036  221.6526 H   0  0  0  0  0  0  0  0  0  0  0  0
  136.9749   70.1965  223.9686 H   0  0  0  0  0  0  0  0  0  0  0  0
  136.5433   71.3458  222.6944 H   0  0  0  0  0  0  0  0  0  0  0  0
  135.8019   69.0355  222.0589 H   0  0  0  0  0  0  0  0  0  0  0  0
  137.1109   69.5739  220.9524 H   0  0  0  0  0  0  0  0  0  0  0  0
  137.3758   67.7542  223.3860 H   0  0  0  0  0  0  0  0  0  0  0  0
  137.5660   67.3105  221.6384 H   0  0  0  0  0  0  0  0  0  0  0  0
  139.6992   67.5783  222.8817 H   0  0  0  0  0  0  0  0  0  0  0  0
  139.4894   68.6578  221.4304 H   0  0  0  0  0  0  0  0  0  0  0  0
  140.4866   70.0222  223.3337 H   0  0  0  0  0  0  0  0  0  0  0  0
  140.7374   70.3403  225.4394 H   0  0  0  0  0  0  0  0  0  0  0  0
  139.1673   71.0729  225.8015 H   0  0  0  0  0  0  0  0  0  0  0  0
  140.5827   69.3020  227.4978 H   0  0  0  0  0  0  0  0  0  0  0  0
  138.8726   69.6656  227.6772 H   0  0  0  0  0  0  0  0  0  0  0  0
  139.9605   67.1628  226.9619 H   0  0  0  0  0  0  0  0  0  0  0  0
  138.2792   67.5891  226.7239 H   0  0  0  0  0  0  0  0  0  0  0  0
  140.6481   67.9000  224.7720 H   0  0  0  0  0  0  0  0  0  0  0  0
  139.0898   67.1967  224.4087 H   0  0  0  0  0  0  0  0  0  0  0  0
  142.9616   76.9148  220.5938 H   0  0  0  0  0  0  0  0  0  0  0  0
  141.7765   76.1961  219.4809 H   0  0  0  0  0  0  0  0  0  0  0  0
  141.6093   78.6719  219.3566 H   0  0  0  0  0  0  0  0  0  0  0  0
  140.1332   78.0616  220.1213 H   0  0  0  0  0  0  0  0  0  0  0  0
  142.3235   80.6533  220.4524 H   0  0  0  0  0  0  0  0  0  0  0  0
  142.8556   81.8285  222.6003 H   0  0  0  0  0  0  0  0  0  0  0  0
  142.3804   80.7200  224.7434 H   0  0  0  0  0  0  0  0  0  0  0  0
  141.3858   78.4621  224.8381 H   0  0  0  0  0  0  0  0  0  0  0  0
  140.9035   76.4102  223.5826 H   0  0  0  0  0  0  0  0  0  0  0  0
  139.6137   77.0371  222.4711 H   0  0  0  0  0  0  0  0  0  0  0  0
  141.9754   70.0554  220.7197 H   0  0  0  0  0  0  0  0  0  0  0  0
  141.9425   70.5137  218.9421 H   0  0  0  0  0  0  0  0  0  0  0  0
  1  2  2  0
  2  3  1  0
  3  4  2  0
  4  5  1  0
  5  6  2  0
  5  7  1  0
  7  8  1  0
  8  9  1  0
  9 10  1  0
 10 11  2  0
 11 12  1  0
 12 13  1  0
 13 14  1  0
 14 15  1  0
 15 16  1  0
 16 17  1  0
 17 18  1  0
 18 19  1  0
 19 20  1  0
 20 21  1  0
 21 22  1  0
 22 23  1  0
 23 24  1  0
 12 25  2  0
 25 26  1  0
 26 27  1  0
 27 28  1  0
 28 29  1  0
 29 30  1  0
 30 31  2  0
 31 32  1  0
 32 33  2  0
 33 34  1  0
 34 35  2  0
 35 36  1  0
 26 37  2  0
  9 38  1  0
  6  1  1  0
 37 10  1  0
 38  4  1  0
 19 14  1  0
 24 20  1  0
 36 27  1  0
 35 30  1  0
  1 39  1  0
  2 40  1  0
  3 41  1  0
  6 42  1  0
  7 43  1  0
  7 44  1  0
  8 45  1  0
  8 46  1  0
 13 47  1  0
 14 48  1  6
 15 49  1  0
 15 50  1  0
 16 51  1  0
 16 52  1  0
 17 53  1  0
 17 54  1  0
 18 55  1  0
 18 56  1  0
 19 57  1  1
 21 58  1  0
 21 59  1  0
 22 60  1  0
 22 61  1  0
 23 62  1  0
 23 63  1  0
 24 64  1  0
 24 65  1  0
 28 66  1  0
 28 67  1  0
 29 68  1  0
 29 69  1  0
 31 70  1  0
 32 71  1  0
 33 72  1  0
 34 73  1  0
 36 74  1  0
 36 75  1  0
 38 76  1  0
 38 77  1  0
M  END
>  <smiles>  (21) 
c1ccc2c(c1)CCN(c1nc(N[C@@H]3CCCC[C@@H]3N3CCCC3)nc(N3CCc4ccccc4C3)n1)C2

>  <score_type>  (21) 
oracle

>  <origin>  (21) 
autodockgpu

>  <m_score__min__energy>  (21) 
-10.83

>  <m_primary>  (21) 
energy

>  <rmsd>  (21) 
10.045699118465876

>  <m_score__min__rmsd>  (21) 
10.045699118465876

>  <meeko>  (21) 
{"free_energy": -10.31, "intermolecular_energy": -11.8, "internal_energy": -1.69, "cluster_size": 25, "cluster_id": 2, "rank_in_cluster": 5}

>  <energy>  (21) 
-9.65

>  <cluster_rmsd>  (21) 
1.25

>  <cluster>  (21) 
1

$$$$

     RDKit          3D

 77 83  0  0  0  0  0  0  0  0999 V2000
  145.9940   68.0600  219.1740 C   0  0  0  0  0  0  0  0  0  0  0  0
  144.7480   67.5120  219.4360 C   0  0  0  0  0  0  0  0  0  0  0  0
  143.6830   68.3560  219.6450 C   0  0  0  0  0  0  0  0  0  0  0  0
  143.8550   69.7250  219.5940 C   0  0  0  0  0  0  0  0  0  0  0  0
  145.0690   70.2900  219.3380 C   0  0  0  0  0  0  0  0  0  0  0  0
  146.1380   69.4300  219.1280 C   0  0  0  0  0  0  0  0  0  0  0  0
  145.3240   71.7280  219.2680 C   0  0  0  0  0  0  0  0  0  0  0  0
  144.2510   72.6080  219.7990 C   0  0  0  0  0  0  0  0  0  0  0  0
  143.0140   71.9580  220.1270 N   0  0  0  0  0  0  0  0  0  0  0  0
  142.0250   72.7380  220.8090 C   0  0  0  0  0  0  0  0  0  0  0  0
  140.9910   72.1640  221.4490 N   0  0  0  0  0  0  0  0  0  0  0  0
  140.0290   72.8530  222.1060 C   0  0  0  0  0  0  0  0  0  0  0  0
  138.9560   72.1750  222.7630 N   0  0  0  0  0  0  0  0  0  0  0  0
  139.2220   71.3230  223.8730 C   0  0  2  0  0  0  0  0  0  0  0  0
  140.6830   71.1350  224.2010 C   0  0  0  0  0  0  0  0  0  0  0  0
  140.7290   70.7230  225.6810 C   0  0  0  0  0  0  0  0  0  0  0  0
  139.9880   69.4160  225.8630 C   0  0  0  0  0  0  0  0  0  0  0  0
  138.5990   69.4880  225.3190 C   0  0  0  0  0  0  0  0  0  0  0  0
  138.5560   69.9930  223.8690 C   0  0  2  0  0  0  0  0  0  0  0  0
  139.2050   68.9760  223.0810 N   0  0  0  0  0  0  0  0  0  0  0  0
  139.3670   69.2930  221.6910 C   0  0  0  0  0  0  0  0  0  0  0  0
  139.5870   67.9630  220.9830 C   0  0  0  0  0  0  0  0  0  0  0  0
  139.1750   66.9440  221.9930 C   0  0  0  0  0  0  0  0  0  0  0  0
  138.4340   67.7740  223.0340 C   0  0  0  0  0  0  0  0  0  0  0  0
  140.1490   74.1920  222.0960 N   0  0  0  0  0  0  0  0  0  0  0  0
  141.1620   74.8170  221.4720 C   0  0  0  0  0  0  0  0  0  0  0  0
  141.2670   76.2340  221.4760 N   0  0  0  0  0  0  0  0  0  0  0  0
  141.8430   76.9340  220.3320 C   0  0  0  0  0  0  0  0  0  0  0  0
  141.1760   78.3030  220.2690 C   0  0  0  0  0  0  0  0  0  0  0  0
  141.5960   79.0180  221.5010 C   0  0  0  0  0  0  0  0  0  0  0  0
  142.1500   80.2750  221.4560 C   0  0  0  0  0  0  0  0  0  0  0  0
  142.5180   80.8810  222.6510 C   0  0  0  0  0  0  0  0  0  0  0  0
  142.3210   80.2150  223.8350 C   0  0  0  0  0  0  0  0  0  0  0  0
  141.7660   78.9540  223.8860 C   0  0  0  0  0  0  0  0  0  0  0  0
  141.3950   78.3400  222.7020 C   0  0  0  0  0  0  0  0  0  0  0  0
  140.7920   76.9910  222.6380 C   0  0  0  0  0  0  0  0  0  0  0  0
  142.0730   74.0890  220.8450 N   0  0  0  0  0  0  0  0  0  0  0  0
  142.6930   70.5870  219.8220 C   0  0  0  0  0  0  0  0  0  0  0  0
  146.8619   67.4060  219.0039 H   0  0  0  0  0  0  0  0  0  0  0  0
  144.6137   66.4210  219.4760 H   0  0  0  0  0  0  0  0  0  0  0  0
  142.6873   67.9378  219.8542 H   0  0  0  0  0  0  0  0  0  0  0  0
  147.1307   69.8549  218.9184 H   0  0  0  0  0  0  0  0  0  0  0  0
  146.2415   71.9349  219.8384 H   0  0  0  0  0  0  0  0  0  0  0  0
  145.3965   71.9637  218.1960 H   0  0  0  0  0  0  0  0  0  0  0  0
  144.6311   73.0902  220.7117 H   0  0  0  0  0  0  0  0  0  0  0  0
  144.0126   73.3108  218.9871 H   0  0  0  0  0  0  0  0  0  0  0  0
  138.0100   72.3330  222.4030 H   0  0  0  0  0  0  0  0  0  0  0  0
  138.7510   71.9168  224.6702 H   0  0  0  0  0  0  0  0  0  0  0  0
  141.1191   70.3466  223.5700 H   0  0  0  0  0  0  0  0  0  0  0  0
  141.2610   72.0528  224.0176 H   0  0  0  0  0  0  0  0  0  0  0  0
  141.7759   70.5979  225.9946 H   0  0  0  0  0  0  0  0  0  0  0  0
  140.2538   71.5029  226.2941 H   0  0  0  0  0  0  0  0  0  0  0  0
  140.5357   68.6196  225.3378 H   0  0  0  0  0  0  0  0  0  0  0  0
  139.9236   69.2056  226.9408 H   0  0  0  0  0  0  0  0  0  0  0  0
  138.1544   68.4825  225.3548 H   0  0  0  0  0  0  0  0  0  0  0  0
  138.0367   70.2035  225.9370 H   0  0  0  0  0  0  0  0  0  0  0  0
  137.5557   70.1446  223.4372 H   0  0  0  0  0  0  0  0  0  0  0  0
  138.4643   69.7880  221.3036 H   0  0  0  0  0  0  0  0  0  0  0  0
  140.2097   69.9812  221.5291 H   0  0  0  0  0  0  0  0  0  0  0  0
  138.9630   67.8929  220.0798 H   0  0  0  0  0  0  0  0  0  0  0  0
  140.6256   67.8294  220.6460 H   0  0  0  0  0  0  0  0  0  0  0  0
  138.5127   66.1886  221.5451 H   0  0  0  0  0  0  0  0  0  0  0  0
  140.0222   66.3803  222.4107 H   0  0  0  0  0  0  0  0  0  0  0  0
  137.4004   67.9774  222.7172 H   0  0  0  0  0  0  0  0  0  0  0  0
  138.3443   67.2735  224.0094 H   0  0  0  0  0  0  0  0  0  0  0  0
  142.9289   77.0481  220.4659 H   0  0  0  0  0  0  0  0  0  0  0  0
  141.6762   76.3716  219.4015 H   0  0  0  0  0  0  0  0  0  0  0  0
  141.5107   78.8509  219.3758 H   0  0  0  0  0  0  0  0  0  0  0  0
  140.0812   78.2161  220.2060 H   0  0  0  0  0  0  0  0  0  0  0  0
  142.2987   80.7898  220.4954 H   0  0  0  0  0  0  0  0  0  0  0  0
  142.9638   81.8866  222.6482 H   0  0  0  0  0  0  0  0  0  0  0  0
  142.6160   80.7040  224.7751 H   0  0  0  0  0  0  0  0  0  0  0  0
  141.6206   78.4449  224.8502 H   0  0  0  0  0  0  0  0  0  0  0  0
  141.0553   76.4401  223.5530 H   0  0  0  0  0  0  0  0  0  0  0  0
  139.7023   77.1090  222.5455 H   0  0  0  0  0  0  0  0  0  0  0  0
  142.1190   70.1734  220.6643 H   0  0  0  0  0  0  0  0  0  0  0  0
  142.1260   70.6018  218.8795 H   0  0  0  0  0  0  0  0  0  0  0  0
  1  2  2  0
  2  3  1  0
  3  4  2  0
  4  5  1  0
  5  6  2  0
  5  7  1  0
  7  8  1  0
  8  9  1  0
  9 10  1  0
 10 11  2  0
 11 12  1  0
 12 13  1  0
 13 14  1  0
 14 15  1  0
 15 16  1  0
 16 17  1  0
 17 18  1  0
 18 19  1  0
 19 20  1  0
 20 21  1  0
 21 22  1  0
 22 23  1  0
 23 24  1  0
 12 25  2  0
 25 26  1  0
 26 27  1  0
 27 28  1  0
 28 29  1  0
 29 30  1  0
 30 31  2  0
 31 32  1  0
 32 33  2  0
 33 34  1  0
 34 35  2  0
 35 36  1  0
 26 37  2  0
  9 38  1  0
  6  1  1  0
 37 10  1  0
 38  4  1  0
 19 14  1  0
 24 20  1  0
 36 27  1  0
 35 30  1  0
  1 39  1  0
  2 40  1  0
  3 41  1  0
  6 42  1  0
  7 43  1  0
  7 44  1  0
  8 45  1  0
  8 46  1  0
 13 47  1  0
 14 48  1  1
 15 49  1  0
 15 50  1  0
 16 51  1  0
 16 52  1  0
 17 53  1  0
 17 54  1  0
 18 55  1  0
 18 56  1  0
 19 57  1  6
 21 58  1  0
 21 59  1  0
 22 60  1  0
 22 61  1  0
 23 62  1  0
 23 63  1  0
 24 64  1  0
 24 65  1  0
 28 66  1  0
 28 67  1  0
 29 68  1  0
 29 69  1  0
 31 70  1  0
 32 71  1  0
 33 72  1  0
 34 73  1  0
 36 74  1  0
 36 75  1  0
 38 76  1  0
 38 77  1  0
M  END
>  <smiles>  (22) 
c1ccc2c(c1)CCN(c1nc(N[C@@H]3CCCC[C@@H]3N3CCCC3)nc(N3CCc4ccccc4C3)n1)C2

>  <score_type>  (22) 
oracle

>  <origin>  (22) 
autodockgpu

>  <m_score__min__energy>  (22) 
-10.83

>  <m_primary>  (22) 
energy

>  <rmsd>  (22) 
10.131463009948495

>  <m_score__min__rmsd>  (22) 
10.131463009948495

>  <meeko>  (22) 
{"free_energy": -10.31, "intermolecular_energy": -11.8, "internal_energy": -1.98, "cluster_size": 25, "cluster_id": 2, "rank_in_cluster": 6}

>  <energy>  (22) 
-9.62

>  <cluster_rmsd>  (22) 
1.4

>  <cluster>  (22) 
1

$$$$

     RDKit          3D

 77 83  0  0  0  0  0  0  0  0999 V2000
  140.2560   69.0110  227.6890 C   0  0  0  0  0  0  0  0  0  0  0  0
  141.0680   70.1220  227.8520 C   0  0  0  0  0  0  0  0  0  0  0  0
  141.1170   71.0610  226.8480 C   0  0  0  0  0  0  0  0  0  0  0  0
  140.3690   70.8960  225.7000 C   0  0  0  0  0  0  0  0  0  0  0  0
  139.5630   69.8130  225.5140 C   0  0  0  0  0  0  0  0  0  0  0  0
  139.5200   68.8710  226.5320 C   0  0  0  0  0  0  0  0  0  0  0  0
  138.7440   69.5730  224.3260 C   0  0  0  0  0  0  0  0  0  0  0  0
  139.0480   70.4210  223.1430 C   0  0  0  0  0  0  0  0  0  0  0  0
  139.9610   71.5050  223.3670 N   0  0  0  0  0  0  0  0  0  0  0  0
  140.4150   72.2260  222.2160 C   0  0  0  0  0  0  0  0  0  0  0  0
  140.7800   71.5950  221.0860 N   0  0  0  0  0  0  0  0  0  0  0  0
  141.2180   72.2280  219.9720 C   0  0  0  0  0  0  0  0  0  0  0  0
  141.5910   71.4910  218.8060 N   0  0  0  0  0  0  0  0  0  0  0  0
  142.8650   70.8560  218.7380 C   0  0  2  0  0  0  0  0  0  0  0  0
  143.1740   69.9170  219.8780 C   0  0  0  0  0  0  0  0  0  0  0  0
  144.2360   68.9450  219.3410 C   0  0  0  0  0  0  0  0  0  0  0  0
  145.4800   69.7180  218.9580 C   0  0  0  0  0  0  0  0  0  0  0  0
  145.1700   70.8280  218.0090 C   0  0  0  0  0  0  0  0  0  0  0  0
  144.0400   71.7390  218.5110 C   0  0  2  0  0  0  0  0  0  0  0  0
  144.5590   72.3960  219.6850 N   0  0  0  0  0  0  0  0  0  0  0  0
  144.0760   73.7290  219.9000 C   0  0  0  0  0  0  0  0  0  0  0  0
  145.0780   74.3880  220.8390 C   0  0  0  0  0  0  0  0  0  0  0  0
  146.2600   73.4770  220.8040 C   0  0  0  0  0  0  0  0  0  0  0  0
  145.9720   72.5900  219.5980 C   0  0  0  0  0  0  0  0  0  0  0  0
  141.2790   73.5690  220.0390 N   0  0  0  0  0  0  0  0  0  0  0  0
  140.9260   74.2490  221.1440 C   0  0  0  0  0  0  0  0  0  0  0  0
  140.9990   75.6670  221.1880 N   0  0  0  0  0  0  0  0  0  0  0  0
  141.5200   76.4140  220.0470 C   0  0  0  0  0  0  0  0  0  0  0  0
  140.8200   77.7690  220.0480 C   0  0  0  0  0  0  0  0  0  0  0  0
  141.2640   78.4570  221.2860 C   0  0  0  0  0  0  0  0  0  0  0  0
  141.7880   79.7270  221.2620 C   0  0  0  0  0  0  0  0  0  0  0  0
  142.1820   80.3070  222.4610 C   0  0  0  0  0  0  0  0  0  0  0  0
  142.0390   79.6010  223.6310 C   0  0  0  0  0  0  0  0  0  0  0  0
  141.5150   78.3260  223.6610 C   0  0  0  0  0  0  0  0  0  0  0  0
  141.1190   77.7390  222.4720 C   0  0  0  0  0  0  0  0  0  0  0  0
  140.5460   76.3780  222.3870 C   0  0  0  0  0  0  0  0  0  0  0  0
  140.5050   73.5750  222.2020 N   0  0  0  0  0  0  0  0  0  0  0  0
  140.4510   71.9210  224.6560 C   0  0  0  0  0  0  0  0  0  0  0  0
  140.1992   68.2461  228.4775 H   0  0  0  0  0  0  0  0  0  0  0  0
  141.6629   70.2508  228.7682 H   0  0  0  0  0  0  0  0  0  0  0  0
  141.7564   71.9489  226.9609 H   0  0  0  0  0  0  0  0  0  0  0  0
  138.8788   67.9853  226.4120 H   0  0  0  0  0  0  0  0  0  0  0  0
  138.8793   68.5221  224.0306 H   0  0  0  0  0  0  0  0  0  0  0  0
  137.7150   69.8293  224.6183 H   0  0  0  0  0  0  0  0  0  0  0  0
  139.4786   69.7729  222.3655 H   0  0  0  0  0  0  0  0  0  0  0  0
  138.0939   70.8892  222.8593 H   0  0  0  0  0  0  0  0  0  0  0  0
  140.9100   71.4430  218.0420 H   0  0  0  0  0  0  0  0  0  0  0  0
  142.7226   70.2674  217.8197 H   0  0  0  0  0  0  0  0  0  0  0  0
  143.5670   70.4764  220.7397 H   0  0  0  0  0  0  0  0  0  0  0  0
  142.2741   69.3855  220.2211 H   0  0  0  0  0  0  0  0  0  0  0  0
  144.4866   68.2092  220.1193 H   0  0  0  0  0  0  0  0  0  0  0  0
  143.8417   68.4232  218.4565 H   0  0  0  0  0  0  0  0  0  0  0  0
  145.9304   70.1420  219.8676 H   0  0  0  0  0  0  0  0  0  0  0  0
  146.1745   69.0252  218.4603 H   0  0  0  0  0  0  0  0  0  0  0  0
  146.0764   71.4356  217.8701 H   0  0  0  0  0  0  0  0  0  0  0  0
  144.8358   70.3739  217.0645 H   0  0  0  0  0  0  0  0  0  0  0  0
  143.7100   72.5286  217.8200 H   0  0  0  0  0  0  0  0  0  0  0  0
  144.0266   74.2767  218.9473 H   0  0  0  0  0  0  0  0  0  0  0  0
  143.0621   73.7280  220.3265 H   0  0  0  0  0  0  0  0  0  0  0  0
  145.3478   75.3923  220.4804 H   0  0  0  0  0  0  0  0  0  0  0  0
  144.6791   74.5247  221.8550 H   0  0  0  0  0  0  0  0  0  0  0  0
  147.1923   74.0438  220.6645 H   0  0  0  0  0  0  0  0  0  0  0  0
  146.3988   72.9101  221.7364 H   0  0  0  0  0  0  0  0  0  0  0  0
  146.2467   73.0940  218.6596 H   0  0  0  0  0  0  0  0  0  0  0  0
  146.5438   71.6503  219.5992 H   0  0  0  0  0  0  0  0  0  0  0  0
  142.6069   76.5496  220.1480 H   0  0  0  0  0  0  0  0  0  0  0  0
  141.3345   75.8756  219.1059 H   0  0  0  0  0  0  0  0  0  0  0  0
  141.1121   78.3509  219.1614 H   0  0  0  0  0  0  0  0  0  0  0  0
  139.7260   77.6577  220.0187 H   0  0  0  0  0  0  0  0  0  0  0  0
  141.8933   80.2730  220.3129 H   0  0  0  0  0  0  0  0  0  0  0  0
  142.6047   81.3224  222.4737 H   0  0  0  0  0  0  0  0  0  0  0  0
  142.3532   80.0688  224.5757 H   0  0  0  0  0  0  0  0  0  0  0  0
  141.4135   77.7849  224.6133 H   0  0  0  0  0  0  0  0  0  0  0  0
  140.8526   75.8071  223.2759 H   0  0  0  0  0  0  0  0  0  0  0  0
  139.4513   76.4722  222.3337 H   0  0  0  0  0  0  0  0  0  0  0  0
  141.5056   72.2131  224.5442 H   0  0  0  0  0  0  0  0  0  0  0  0
  139.8057   72.7501  224.9819 H   0  0  0  0  0  0  0  0  0  0  0  0
  1  2  2  0
  2  3  1  0
  3  4  2  0
  4  5  1  0
  5  6  2  0
  5  7  1  0
  7  8  1  0
  8  9  1  0
  9 10  1  0
 10 11  2  0
 11 12  1  0
 12 13  1  0
 13 14  1  0
 14 15  1  0
 15 16  1  0
 16 17  1  0
 17 18  1  0
 18 19  1  0
 19 20  1  0
 20 21  1  0
 21 22  1  0
 22 23  1  0
 23 24  1  0
 12 25  2  0
 25 26  1  0
 26 27  1  0
 27 28  1  0
 28 29  1  0
 29 30  1  0
 30 31  2  0
 31 32  1  0
 32 33  2  0
 33 34  1  0
 34 35  2  0
 35 36  1  0
 26 37  2  0
  9 38  1  0
  6  1  1  0
 37 10  1  0
 38  4  1  0
 19 14  1  0
 24 20  1  0
 36 27  1  0
 35 30  1  0
  1 39  1  0
  2 40  1  0
  3 41  1  0
  6 42  1  0
  7 43  1  0
  7 44  1  0
  8 45  1  0
  8 46  1  0
 13 47  1  0
 14 48  1  6
 15 49  1  0
 15 50  1  0
 16 51  1  0
 16 52  1  0
 17 53  1  0
 17 54  1  0
 18 55  1  0
 18 56  1  0
 19 57  1  6
 21 58  1  0
 21 59  1  0
 22 60  1  0
 22 61  1  0
 23 62  1  0
 23 63  1  0
 24 64  1  0
 24 65  1  0
 28 66  1  0
 28 67  1  0
 29 68  1  0
 29 69  1  0
 31 70  1  0
 32 71  1  0
 33 72  1  0
 34 73  1  0
 36 74  1  0
 36 75  1  0
 38 76  1  0
 38 77  1  0
M  END
>  <smiles>  (23) 
c1ccc2c(c1)CCN(c1nc(N[C@@H]3CCCC[C@@H]3N3CCCC3)nc(N3CCc4ccccc4C3)n1)C2

>  <score_type>  (23) 
oracle

>  <origin>  (23) 
autodockgpu

>  <m_score__min__energy>  (23) 
-10.83

>  <m_primary>  (23) 
energy

>  <rmsd>  (23) 
7.942400977814581

>  <m_score__min__rmsd>  (23) 
7.942400977814581

>  <meeko>  (23) 
{"free_energy": -10.64, "intermolecular_energy": -12.13, "internal_energy": -1.9, "cluster_size": 24, "cluster_id": 1, "rank_in_cluster": 7}

>  <energy>  (23) 
-9.49

>  <cluster_rmsd>  (23) 
1.52

>  <cluster>  (23) 
1

$$$$

     RDKit          3D

 77 83  0  0  0  0  0  0  0  0999 V2000
  140.0260   68.8410  227.5670 C   0  0  0  0  0  0  0  0  0  0  0  0
  141.0760   69.7290  227.7400 C   0  0  0  0  0  0  0  0  0  0  0  0
  141.2700   70.7170  226.8040 C   0  0  0  0  0  0  0  0  0  0  0  0
  140.4330   70.8200  225.7120 C   0  0  0  0  0  0  0  0  0  0  0  0
  139.3930   69.9610  225.5170 C   0  0  0  0  0  0  0  0  0  0  0  0
  139.2040   68.9670  226.4670 C   0  0  0  0  0  0  0  0  0  0  0  0
  138.4670   70.0100  224.3860 C   0  0  0  0  0  0  0  0  0  0  0  0
  138.8770   70.8690  223.2450 C   0  0  0  0  0  0  0  0  0  0  0  0
  140.0230   71.7020  223.4680 N   0  0  0  0  0  0  0  0  0  0  0  0
  140.5540   72.4030  222.3370 C   0  0  0  0  0  0  0  0  0  0  0  0
  141.0100   71.7510  221.2530 N   0  0  0  0  0  0  0  0  0  0  0  0
  141.5220   72.3630  220.1600 C   0  0  0  0  0  0  0  0  0  0  0  0
  141.9900   71.6040  219.0430 N   0  0  0  0  0  0  0  0  0  0  0  0
  142.8330   72.2120  218.0680 C   0  0  2  0  0  0  0  0  0  0  0  0
  143.8890   71.3070  217.4820 C   0  0  0  0  0  0  0  0  0  0  0  0
  144.2520   71.9200  216.1200 C   0  0  0  0  0  0  0  0  0  0  0  0
  144.8200   73.3080  216.3270 C   0  0  0  0  0  0  0  0  0  0  0  0
  143.8980   74.1670  217.1270 C   0  0  0  0  0  0  0  0  0  0  0  0
  143.4630   73.5060  218.4430 C   0  0  2  0  0  0  0  0  0  0  0  0
  144.6570   73.4060  219.2440 N   0  0  0  0  0  0  0  0  0  0  0  0
  144.6770   72.3130  220.1730 C   0  0  0  0  0  0  0  0  0  0  0  0
  145.7280   72.6710  221.2150 C   0  0  0  0  0  0  0  0  0  0  0  0
  145.9790   74.1250  220.9900 C   0  0  0  0  0  0  0  0  0  0  0  0
  144.8140   74.5390  220.1000 C   0  0  0  0  0  0  0  0  0  0  0  0
  141.5620   73.7060  220.1990 N   0  0  0  0  0  0  0  0  0  0  0  0
  141.1200   74.4070  221.2570 C   0  0  0  0  0  0  0  0  0  0  0  0
  141.1720   75.8270  221.2730 N   0  0  0  0  0  0  0  0  0  0  0  0
  141.7790   76.5540  220.1610 C   0  0  0  0  0  0  0  0  0  0  0  0
  141.0670   77.8980  220.0700 C   0  0  0  0  0  0  0  0  0  0  0  0
  141.3970   78.6210  221.3240 C   0  0  0  0  0  0  0  0  0  0  0  0
  141.9060   79.8970  221.3120 C   0  0  0  0  0  0  0  0  0  0  0  0
  142.1910   80.5100  222.5260 C   0  0  0  0  0  0  0  0  0  0  0  0
  141.9590   79.8300  223.6960 C   0  0  0  0  0  0  0  0  0  0  0  0
  141.4480   78.5500  223.7140 C   0  0  0  0  0  0  0  0  0  0  0  0
  141.1610   77.9300  222.5110 C   0  0  0  0  0  0  0  0  0  0  0  0
  140.6120   76.5600  222.4120 C   0  0  0  0  0  0  0  0  0  0  0  0
  140.6290   73.7530  222.2980 N   0  0  0  0  0  0  0  0  0  0  0  0
  140.6760   71.8880  224.7390 C   0  0  0  0  0  0  0  0  0  0  0  0
  139.8497   68.0416  228.3018 H   0  0  0  0  0  0  0  0  0  0  0  0
  141.7425   69.6447  228.6110 H   0  0  0  0  0  0  0  0  0  0  0  0
  142.0983   71.4304  226.9265 H   0  0  0  0  0  0  0  0  0  0  0  0
  138.3729   68.2579  226.3385 H   0  0  0  0  0  0  0  0  0  0  0  0
  138.3432   68.9845  224.0077 H   0  0  0  0  0  0  0  0  0  0  0  0
  137.5430   70.4596  224.7786 H   0  0  0  0  0  0  0  0  0  0  0  0
  139.0990   70.2119  222.3912 H   0  0  0  0  0  0  0  0  0  0  0  0
  138.0368   71.5582  223.0744 H   0  0  0  0  0  0  0  0  0  0  0  0
  141.6960   70.6240  218.9840 H   0  0  0  0  0  0  0  0  0  0  0  0
  142.0825   72.4325  217.2946 H   0  0  0  0  0  0  0  0  0  0  0  0
  144.7728   71.2750  218.1361 H   0  0  0  0  0  0  0  0  0  0  0  0
  143.5266   70.2735  217.3788 H   0  0  0  0  0  0  0  0  0  0  0  0
  145.0013   71.2877  215.6213 H   0  0  0  0  0  0  0  0  0  0  0  0
  143.3499   71.9825  215.4937 H   0  0  0  0  0  0  0  0  0  0  0  0
  145.7802   73.2250  216.8572 H   0  0  0  0  0  0  0  0  0  0  0  0
  144.9544   73.7747  215.3400 H   0  0  0  0  0  0  0  0  0  0  0  0
  144.4112   75.1115  217.3606 H   0  0  0  0  0  0  0  0  0  0  0  0
  142.9930   74.3335  216.5243 H   0  0  0  0  0  0  0  0  0  0  0  0
  142.7203   74.0553  219.0402 H   0  0  0  0  0  0  0  0  0  0  0  0
  143.6916   72.1961  220.6478 H   0  0  0  0  0  0  0  0  0  0  0  0
  144.9114   71.3617  219.6728 H   0  0  0  0  0  0  0  0  0  0  0  0
  145.3474   72.4926  222.2315 H   0  0  0  0  0  0  0  0  0  0  0  0
  146.6408   72.0644  221.1214 H   0  0  0  0  0  0  0  0  0  0  0  0
  145.9679   74.6799  221.9397 H   0  0  0  0  0  0  0  0  0  0  0  0
  146.9621   74.3314  220.5418 H   0  0  0  0  0  0  0  0  0  0  0  0
  143.9050   74.7173  220.6933 H   0  0  0  0  0  0  0  0  0  0  0  0
  144.9923   75.4776  219.5548 H   0  0  0  0  0  0  0  0  0  0  0  0
  142.8520   76.7063  220.3493 H   0  0  0  0  0  0  0  0  0  0  0  0
  141.6793   75.9911  219.2212 H   0  0  0  0  0  0  0  0  0  0  0  0
  141.4265   78.4628  219.1972 H   0  0  0  0  0  0  0  0  0  0  0  0
  139.9807   77.7715  219.9515 H   0  0  0  0  0  0  0  0  0  0  0  0
  142.0841   80.4220  220.3619 H   0  0  0  0  0  0  0  0  0  0  0  0
  142.5990   81.5313  222.5495 H   0  0  0  0  0  0  0  0  0  0  0  0
  142.1888   80.3236  224.6518 H   0  0  0  0  0  0  0  0  0  0  0  0
  141.2716   78.0309  224.6676 H   0  0  0  0  0  0  0  0  0  0  0  0
  140.8491   76.0143  223.3372 H   0  0  0  0  0  0  0  0  0  0  0  0
  139.5247   76.6386  222.2651 H   0  0  0  0  0  0  0  0  0  0  0  0
  141.7598   71.9506  224.5619 H   0  0  0  0  0  0  0  0  0  0  0  0
  140.2558   72.8070  225.1736 H   0  0  0  0  0  0  0  0  0  0  0  0
  1  2  2  0
  2  3  1  0
  3  4  2  0
  4  5  1  0
  5  6  2  0
  5  7  1  0
  7  8  1  0
  8  9  1  0
  9 10  1  0
 10 11  2  0
 11 12  1  0
 12 13  1  0
 13 14  1  0
 14 15  1  0
 15 16  1  0
 16 17  1  0
 17 18  1  0
 18 19  1  0
 19 20  1  0
 20 21  1  0
 21 22  1  0
 22 23  1  0
 23 24  1  0
 12 25  2  0
 25 26  1  0
 26 27  1  0
 27 28  1  0
 28 29  1  0
 29 30  1  0
 30 31  2  0
 31 32  1  0
 32 33  2  0
 33 34  1  0
 34 35  2  0
 35 36  1  0
 26 37  2  0
  9 38  1  0
  6  1  1  0
 37 10  1  0
 38  4  1  0
 19 14  1  0
 24 20  1  0
 36 27  1  0
 35 30  1  0
  1 39  1  0
  2 40  1  0
  3 41  1  0
  6 42  1  0
  7 43  1  0
  7 44  1  0
  8 45  1  0
  8 46  1  0
 13 47  1  0
 14 48  1  6
 15 49  1  0
 15 50  1  0
 16 51  1  0
 16 52  1  0
 17 53  1  0
 17 54  1  0
 18 55  1  0
 18 56  1  0
 19 57  1  1
 21 58  1  0
 21 59  1  0
 22 60  1  0
 22 61  1  0
 23 62  1  0
 23 63  1  0
 24 64  1  0
 24 65  1  0
 28 66  1  0
 28 67  1  0
 29 68  1  0
 29 69  1  0
 31 70  1  0
 32 71  1  0
 33 72  1  0
 34 73  1  0
 36 74  1  0
 36 75  1  0
 38 76  1  0
 38 77  1  0
M  END
>  <smiles>  (24) 
c1ccc2c(c1)CCN(c1nc(N[C@@H]3CCCC[C@@H]3N3CCCC3)nc(N3CCc4ccccc4C3)n1)C2

>  <score_type>  (24) 
oracle

>  <origin>  (24) 
autodockgpu

>  <m_score__min__energy>  (24) 
-10.83

>  <m_primary>  (24) 
energy

>  <rmsd>  (24) 
7.2799925101264416

>  <m_score__min__rmsd>  (24) 
7.2799925101264416

>  <meeko>  (24) 
{"free_energy": -10.13, "intermolecular_energy": -11.62, "internal_energy": -1.65, "cluster_size": 24, "cluster_id": 1, "rank_in_cluster": 16}

>  <energy>  (24) 
-9.46

>  <cluster_rmsd>  (24) 
1.46

>  <cluster>  (24) 
1

$$$$

     RDKit          3D

 77 83  0  0  0  0  0  0  0  0999 V2000
  139.8770   68.5730  226.9710 C   0  0  0  0  0  0  0  0  0  0  0  0
  141.0400   69.3130  227.1150 C   0  0  0  0  0  0  0  0  0  0  0  0
  141.2540   70.3820  226.2770 C   0  0  0  0  0  0  0  0  0  0  0  0
  140.3240   70.7100  225.3120 C   0  0  0  0  0  0  0  0  0  0  0  0
  139.1720   70.0000  225.1490 C   0  0  0  0  0  0  0  0  0  0  0  0
  138.9650   68.9220  225.9990 C   0  0  0  0  0  0  0  0  0  0  0  0
  138.1450   70.2890  224.1490 C   0  0  0  0  0  0  0  0  0  0  0  0
  138.5330   71.2330  223.0690 C   0  0  0  0  0  0  0  0  0  0  0  0
  139.7890   71.9030  223.2450 N   0  0  0  0  0  0  0  0  0  0  0  0
  140.2790   72.6770  222.1430 C   0  0  0  0  0  0  0  0  0  0  0  0
  140.6410   72.1020  220.9830 N   0  0  0  0  0  0  0  0  0  0  0  0
  141.1110   72.7850  219.9130 C   0  0  0  0  0  0  0  0  0  0  0  0
  141.4800   72.1060  218.7110 N   0  0  0  0  0  0  0  0  0  0  0  0
  142.5750   71.1940  218.7110 C   0  0  2  0  0  0  0  0  0  0  0  0
  142.5870   70.2090  219.8530 C   0  0  0  0  0  0  0  0  0  0  0  0
  143.4280   69.0180  219.3670 C   0  0  0  0  0  0  0  0  0  0  0  0
  144.8380   69.4830  219.0730 C   0  0  0  0  0  0  0  0  0  0  0  0
  144.8520   70.6350  218.1230 C   0  0  0  0  0  0  0  0  0  0  0  0
  143.9340   71.7820  218.5690 C   0  0  2  0  0  0  0  0  0  0  0  0
  144.5150   72.3010  219.7820 N   0  0  0  0  0  0  0  0  0  0  0  0
  144.2300   73.6800  220.0530 C   0  0  0  0  0  0  0  0  0  0  0  0
  145.2950   74.1400  221.0390 C   0  0  0  0  0  0  0  0  0  0  0  0
  146.3300   73.0660  220.9800 C   0  0  0  0  0  0  0  0  0  0  0  0
  145.9430   72.2860  219.7290 C   0  0  0  0  0  0  0  0  0  0  0  0
  141.2070   74.1180  220.0580 N   0  0  0  0  0  0  0  0  0  0  0  0
  140.8590   74.7430  221.1950 C   0  0  0  0  0  0  0  0  0  0  0  0
  140.9690   76.1530  221.3230 N   0  0  0  0  0  0  0  0  0  0  0  0
  141.4110   76.9630  220.1910 C   0  0  0  0  0  0  0  0  0  0  0  0
  140.7480   78.3270  220.3360 C   0  0  0  0  0  0  0  0  0  0  0  0
  141.3090   78.9250  221.5730 C   0  0  0  0  0  0  0  0  0  0  0  0
  141.8600   80.1840  221.5850 C   0  0  0  0  0  0  0  0  0  0  0  0
  142.3650   80.6780  222.7810 C   0  0  0  0  0  0  0  0  0  0  0  0
  142.3030   79.9010  223.9110 C   0  0  0  0  0  0  0  0  0  0  0  0
  141.7520   78.6370  223.9060 C   0  0  0  0  0  0  0  0  0  0  0  0
  141.2450   78.1350  222.7200 C   0  0  0  0  0  0  0  0  0  0  0  0
  140.6340   76.7940  222.5980 C   0  0  0  0  0  0  0  0  0  0  0  0
  140.4060   74.0210  222.2080 N   0  0  0  0  0  0  0  0  0  0  0  0
  140.5910   71.8570  224.4410 C   0  0  0  0  0  0  0  0  0  0  0  0
  139.6833   67.7126  227.6285 H   0  0  0  0  0  0  0  0  0  0  0  0
  141.7789   69.0498  227.8862 H   0  0  0  0  0  0  0  0  0  0  0  0
  142.1723   70.9793  226.3766 H   0  0  0  0  0  0  0  0  0  0  0  0
  138.0449   68.3285  225.8932 H   0  0  0  0  0  0  0  0  0  0  0  0
  137.8580   69.3377  223.6771 H   0  0  0  0  0  0  0  0  0  0  0  0
  137.3299   70.7846  224.6966 H   0  0  0  0  0  0  0  0  0  0  0  0
  138.5821   70.6664  222.1274 H   0  0  0  0  0  0  0  0  0  0  0  0
  137.7693   72.0246  223.0765 H   0  0  0  0  0  0  0  0  0  0  0  0
  140.9270   72.3030  217.8710 H   0  0  0  0  0  0  0  0  0  0  0  0
  142.3588   70.6546  217.7770 H   0  0  0  0  0  0  0  0  0  0  0  0
  143.0436   70.6621  220.7453 H   0  0  0  0  0  0  0  0  0  0  0  0
  141.5691   69.8997  220.1327 H   0  0  0  0  0  0  0  0  0  0  0  0
  143.4526   68.2435  220.1478 H   0  0  0  0  0  0  0  0  0  0  0  0
  142.9807   68.6021  218.4522 H   0  0  0  0  0  0  0  0  0  0  0  0
  145.3154   69.7915  220.0147 H   0  0  0  0  0  0  0  0  0  0  0  0
  145.3848   68.6489  218.6091 H   0  0  0  0  0  0  0  0  0  0  0  0
  145.8809   71.0167  218.0479 H   0  0  0  0  0  0  0  0  0  0  0  0
  144.4814   70.2707  217.1535 H   0  0  0  0  0  0  0  0  0  0  0  0
  143.8397   72.6269  217.8709 H   0  0  0  0  0  0  0  0  0  0  0  0
  144.2849   74.2712  219.1270 H   0  0  0  0  0  0  0  0  0  0  0  0
  143.2173   73.8104  220.4622 H   0  0  0  0  0  0  0  0  0  0  0  0
  145.7184   75.1082  220.7336 H   0  0  0  0  0  0  0  0  0  0  0  0
  144.8967   74.2887  222.0535 H   0  0  0  0  0  0  0  0  0  0  0  0
  147.3387   73.4938  220.8830 H   0  0  0  0  0  0  0  0  0  0  0  0
  146.3615   72.4438  221.8866 H   0  0  0  0  0  0  0  0  0  0  0  0
  146.3119   72.7842  218.8204 H   0  0  0  0  0  0  0  0  0  0  0  0
  146.3691   71.2724  219.6960 H   0  0  0  0  0  0  0  0  0  0  0  0
  142.5056   77.0709  220.2078 H   0  0  0  0  0  0  0  0  0  0  0  0
  141.1339   76.4904  219.2371 H   0  0  0  0  0  0  0  0  0  0  0  0
  140.9803   78.9593  219.4664 H   0  0  0  0  0  0  0  0  0  0  0  0
  139.6530   78.2389  220.3918 H   0  0  0  0  0  0  0  0  0  0  0  0
  141.9003   80.7880  220.6665 H   0  0  0  0  0  0  0  0  0  0  0  0
  142.8106   81.6828  222.8223 H   0  0  0  0  0  0  0  0  0  0  0  0
  142.7068   80.3005  224.8530 H   0  0  0  0  0  0  0  0  0  0  0  0
  141.7160   78.0383  224.8281 H   0  0  0  0  0  0  0  0  0  0  0  0
  140.9987   76.1612  223.4205 H   0  0  0  0  0  0  0  0  0  0  0  0
  139.5413   76.9126  222.6424 H   0  0  0  0  0  0  0  0  0  0  0  0
  141.6493   71.8222  224.1430 H   0  0  0  0  0  0  0  0  0  0  0  0
  140.3350   72.7552  225.0221 H   0  0  0  0  0  0  0  0  0  0  0  0
  1  2  2  0
  2  3  1  0
  3  4  2  0
  4  5  1  0
  5  6  2  0
  5  7  1  0
  7  8  1  0
  8  9  1  0
  9 10  1  0
 10 11  2  0
 11 12  1  0
 12 13  1  0
 13 14  1  0
 14 15  1  0
 15 16  1  0
 16 17  1  0
 17 18  1  0
 18 19  1  0
 19 20  1  0
 20 21  1  0
 21 22  1  0
 22 23  1  0
 23 24  1  0
 12 25  2  0
 25 26  1  0
 26 27  1  0
 27 28  1  0
 28 29  1  0
 29 30  1  0
 30 31  2  0
 31 32  1  0
 32 33  2  0
 33 34  1  0
 34 35  2  0
 35 36  1  0
 26 37  2  0
  9 38  1  0
  6  1  1  0
 37 10  1  0
 38  4  1  0
 19 14  1  0
 24 20  1  0
 36 27  1  0
 35 30  1  0
  1 39  1  0
  2 40  1  0
  3 41  1  0
  6 42  1  0
  7 43  1  0
  7 44  1  0
  8 45  1  0
  8 46  1  0
 13 47  1  0
 14 48  1  6
 15 49  1  0
 15 50  1  0
 16 51  1  0
 16 52  1  0
 17 53  1  0
 17 54  1  0
 18 55  1  0
 18 56  1  0
 19 57  1  6
 21 58  1  0
 21 59  1  0
 22 60  1  0
 22 61  1  0
 23 62  1  0
 23 63  1  0
 24 64  1  0
 24 65  1  0
 28 66  1  0
 28 67  1  0
 29 68  1  0
 29 69  1  0
 31 70  1  0
 32 71  1  0
 33 72  1  0
 34 73  1  0
 36 74  1  0
 36 75  1  0
 38 76  1  0
 38 77  1  0
M  END
>  <smiles>  (25) 
c1ccc2c(c1)CCN(c1nc(N[C@@H]3CCCC[C@@H]3N3CCCC3)nc(N3CCc4ccccc4C3)n1)C2

>  <score_type>  (25) 
oracle

>  <origin>  (25) 
autodockgpu

>  <m_score__min__energy>  (25) 
-10.83

>  <m_primary>  (25) 
energy

>  <rmsd>  (25) 
7.81569474743502

>  <m_score__min__rmsd>  (25) 
7.81569474743502

>  <meeko>  (25) 
{"free_energy": -10.52, "intermolecular_energy": -12.02, "internal_energy": -1.94, "cluster_size": 24, "cluster_id": 1, "rank_in_cluster": 9}

>  <energy>  (25) 
-10.42

>  <cluster_rmsd>  (25) 
0.0

>  <cluster>  (25) 
2

$$$$

     RDKit          3D

 77 83  0  0  0  0  0  0  0  0999 V2000
  145.6340   67.9010  219.0940 C   0  0  0  0  0  0  0  0  0  0  0  0
  144.3630   67.4070  219.3420 C   0  0  0  0  0  0  0  0  0  0  0  0
  143.3420   68.2960  219.5870 C   0  0  0  0  0  0  0  0  0  0  0  0
  143.5830   69.6550  219.5860 C   0  0  0  0  0  0  0  0  0  0  0  0
  144.8230   70.1660  219.3460 C   0  0  0  0  0  0  0  0  0  0  0  0
  145.8470   69.2620  219.0990 C   0  0  0  0  0  0  0  0  0  0  0  0
  145.1510   71.5920  219.3280 C   0  0  0  0  0  0  0  0  0  0  0  0
  144.1250   72.5040  219.8970 C   0  0  0  0  0  0  0  0  0  0  0  0
  142.8580   71.9060  220.2060 N   0  0  0  0  0  0  0  0  0  0  0  0
  141.9120   72.7090  220.9220 C   0  0  0  0  0  0  0  0  0  0  0  0
  140.9070   72.1580  221.6250 N   0  0  0  0  0  0  0  0  0  0  0  0
  139.9860   72.8690  222.3160 C   0  0  0  0  0  0  0  0  0  0  0  0
  138.9420   72.2140  223.0400 N   0  0  0  0  0  0  0  0  0  0  0  0
  139.2610   71.2580  224.0470 C   0  0  2  0  0  0  0  0  0  0  0  0
  140.7360   71.0630  224.3000 C   0  0  0  0  0  0  0  0  0  0  0  0
  140.8420   70.5030  225.7270 C   0  0  0  0  0  0  0  0  0  0  0  0
  140.1260   69.1720  225.8020 C   0  0  0  0  0  0  0  0  0  0  0  0
  138.7170   69.2760  225.3180 C   0  0  0  0  0  0  0  0  0  0  0  0
  138.6120   69.9250  223.9310 C   0  0  2  0  0  0  0  0  0  0  0  0
  139.2450   69.0040  223.0190 N   0  0  0  0  0  0  0  0  0  0  0  0
  139.3370   69.4580  221.6620 C   0  0  0  0  0  0  0  0  0  0  0  0
  139.5500   68.2080  220.8190 C   0  0  0  0  0  0  0  0  0  0  0  0
  139.2050   67.0870  221.7410 C   0  0  0  0  0  0  0  0  0  0  0  0
  138.4960   67.7940  222.8890 C   0  0  0  0  0  0  0  0  0  0  0  0
  140.1170   74.2060  222.2730 N   0  0  0  0  0  0  0  0  0  0  0  0
  141.1030   74.8090  221.5860 C   0  0  0  0  0  0  0  0  0  0  0  0
  141.2200   76.2240  221.5570 N   0  0  0  0  0  0  0  0  0  0  0  0
  141.8240   76.8900  220.4070 C   0  0  0  0  0  0  0  0  0  0  0  0
  141.1710   78.2630  220.2960 C   0  0  0  0  0  0  0  0  0  0  0  0
  141.5740   79.0050  221.5170 C   0  0  0  0  0  0  0  0  0  0  0  0
  142.1400   80.2560  221.4520 C   0  0  0  0  0  0  0  0  0  0  0  0
  142.4900   80.8890  222.6370 C   0  0  0  0  0  0  0  0  0  0  0  0
  142.2640   80.2550  223.8340 C   0  0  0  0  0  0  0  0  0  0  0  0
  141.6970   79.0010  223.9060 C   0  0  0  0  0  0  0  0  0  0  0  0
  141.3430   78.3600  222.7310 C   0  0  0  0  0  0  0  0  0  0  0  0
  140.7300   77.0150  222.6900 C   0  0  0  0  0  0  0  0  0  0  0  0
  141.9740   74.0600  220.9290 N   0  0  0  0  0  0  0  0  0  0  0  0
  142.4680   70.5650  219.8520 C   0  0  0  0  0  0  0  0  0  0  0  0
  146.4671   67.2109  218.8945 H   0  0  0  0  0  0  0  0  0  0  0  0
  144.1740   66.3234  219.3429 H   0  0  0  0  0  0  0  0  0  0  0  0
  142.3269   67.9212  219.7850 H   0  0  0  0  0  0  0  0  0  0  0  0
  146.8594   69.6440  218.9012 H   0  0  0  0  0  0  0  0  0  0  0  0
  146.0796   71.7309  219.9010 H   0  0  0  0  0  0  0  0  0  0  0  0
  145.2327   71.8640  218.2653 H   0  0  0  0  0  0  0  0  0  0  0  0
  144.5315   72.9313  220.8255 H   0  0  0  0  0  0  0  0  0  0  0  0
  143.9200   73.2479  219.1131 H   0  0  0  0  0  0  0  0  0  0  0  0
  137.9770   72.4660  222.8040 H   0  0  0  0  0  0  0  0  0  0  0  0
  138.8134   71.7585  224.9183 H   0  0  0  0  0  0  0  0  0  0  0  0
  141.1586   70.3508  223.5760 H   0  0  0  0  0  0  0  0  0  0  0  0
  141.2949   72.0041  224.1904 H   0  0  0  0  0  0  0  0  0  0  0  0
  141.9014   70.3645  225.9886 H   0  0  0  0  0  0  0  0  0  0  0  0
  140.3788   71.2084  226.4326 H   0  0  0  0  0  0  0  0  0  0  0  0
  140.6640   68.4420  225.1795 H   0  0  0  0  0  0  0  0  0  0  0  0
  140.1049   68.8522  226.8543 H   0  0  0  0  0  0  0  0  0  0  0  0
  138.2873   68.2647  225.2665 H   0  0  0  0  0  0  0  0  0  0  0  0
  138.1696   69.9158  226.0258 H   0  0  0  0  0  0  0  0  0  0  0  0
  137.5940   70.1030  223.5541 H   0  0  0  0  0  0  0  0  0  0  0  0
  138.4081   69.9667  221.3646 H   0  0  0  0  0  0  0  0  0  0  0  0
  140.1577   70.1787  221.5313 H   0  0  0  0  0  0  0  0  0  0  0  0
  138.8867   68.2106  219.9415 H   0  0  0  0  0  0  0  0  0  0  0  0
  140.5745   68.1324  220.4258 H   0  0  0  0  0  0  0  0  0  0  0  0
  138.5381   66.3626  221.2506 H   0  0  0  0  0  0  0  0  0  0  0  0
  140.0814   66.5062  222.0645 H   0  0  0  0  0  0  0  0  0  0  0  0
  137.4452   68.0022  222.6389 H   0  0  0  0  0  0  0  0  0  0  0  0
  138.4603   67.1997  223.8139 H   0  0  0  0  0  0  0  0  0  0  0  0
  142.9081   76.9981  220.5590 H   0  0  0  0  0  0  0  0  0  0  0  0
  141.6696   76.3055  219.4880 H   0  0  0  0  0  0  0  0  0  0  0  0
  141.5280   78.7848  219.3959 H   0  0  0  0  0  0  0  0  0  0  0  0
  140.0769   78.1844  220.2138 H   0  0  0  0  0  0  0  0  0  0  0  0
  142.3119   80.7451  220.4818 H   0  0  0  0  0  0  0  0  0  0  0  0
  142.9447   81.8904  222.6172 H   0  0  0  0  0  0  0  0  0  0  0  0
  142.5451   80.7654  224.7670 H   0  0  0  0  0  0  0  0  0  0  0  0
  141.5287   78.5179  224.8798 H   0  0  0  0  0  0  0  0  0  0  0  0
  140.9713   76.4858  223.6237 H   0  0  0  0  0  0  0  0  0  0  0  0
  139.6433   77.1396  222.5736 H   0  0  0  0  0  0  0  0  0  0  0  0
  141.8769   70.1496  220.6815 H   0  0  0  0  0  0  0  0  0  0  0  0
  141.8999   70.6437  218.9134 H   0  0  0  0  0  0  0  0  0  0  0  0
  1  2  2  0
  2  3  1  0
  3  4  2  0
  4  5  1  0
  5  6  2  0
  5  7  1  0
  7  8  1  0
  8  9  1  0
  9 10  1  0
 10 11  2  0
 11 12  1  0
 12 13  1  0
 13 14  1  0
 14 15  1  0
 15 16  1  0
 16 17  1  0
 17 18  1  0
 18 19  1  0
 19 20  1  0
 20 21  1  0
 21 22  1  0
 22 23  1  0
 23 24  1  0
 12 25  2  0
 25 26  1  0
 26 27  1  0
 27 28  1  0
 28 29  1  0
 29 30  1  0
 30 31  2  0
 31 32  1  0
 32 33  2  0
 33 34  1  0
 34 35  2  0
 35 36  1  0
 26 37  2  0
  9 38  1  0
  6  1  1  0
 37 10  1  0
 38  4  1  0
 19 14  1  0
 24 20  1  0
 36 27  1  0
 35 30  1  0
  1 39  1  0
  2 40  1  0
  3 41  1  0
  6 42  1  0
  7 43  1  0
  7 44  1  0
  8 45  1  0
  8 46  1  0
 13 47  1  0
 14 48  1  1
 15 49  1  0
 15 50  1  0
 16 51  1  0
 16 52  1  0
 17 53  1  0
 17 54  1  0
 18 55  1  0
 18 56  1  0
 19 57  1  6
 21 58  1  0
 21 59  1  0
 22 60  1  0
 22 61  1  0
 23 62  1  0
 23 63  1  0
 24 64  1  0
 24 65  1  0
 28 66  1  0
 28 67  1  0
 29 68  1  0
 29 69  1  0
 31 70  1  0
 32 71  1  0
 33 72  1  0
 34 73  1  0
 36 74  1  0
 36 75  1  0
 38 76  1  0
 38 77  1  0
M  END
>  <smiles>  (26) 
c1ccc2c(c1)CCN(c1nc(N[C@@H]3CCCC[C@@H]3N3CCCC3)nc(N3CCc4ccccc4C3)n1)C2

>  <score_type>  (26) 
oracle

>  <origin>  (26) 
autodockgpu

>  <m_score__min__energy>  (26) 
-10.83

>  <m_primary>  (26) 
energy

>  <rmsd>  (26) 
10.121066714907172

>  <m_score__min__rmsd>  (26) 
10.121066714907172

>  <meeko>  (26) 
{"free_energy": -10.26, "intermolecular_energy": -11.75, "internal_energy": -2.07, "cluster_size": 25, "cluster_id": 2, "rank_in_cluster": 14}

>  <energy>  (26) 
-10.42

>  <cluster_rmsd>  (26) 
0.05

>  <cluster>  (26) 
2

$$$$

     RDKit          3D

 77 83  0  0  0  0  0  0  0  0999 V2000
  139.9680   68.9630  227.8150 C   0  0  0  0  0  0  0  0  0  0  0  0
  140.9110   69.9610  228.0060 C   0  0  0  0  0  0  0  0  0  0  0  0
  141.0920   70.9010  227.0180 C   0  0  0  0  0  0  0  0  0  0  0  0
  140.3470   70.8480  225.8580 C   0  0  0  0  0  0  0  0  0  0  0  0
  139.4140   69.8770  225.6440 C   0  0  0  0  0  0  0  0  0  0  0  0
  139.2380   68.9340  226.6460 C   0  0  0  0  0  0  0  0  0  0  0  0
  138.5890   69.7590  224.4420 C   0  0  0  0  0  0  0  0  0  0  0  0
  139.0140   70.5780  223.2770 C   0  0  0  0  0  0  0  0  0  0  0  0
  140.0530   71.5360  223.5300 N   0  0  0  0  0  0  0  0  0  0  0  0
  140.6120   72.2110  222.3960 C   0  0  0  0  0  0  0  0  0  0  0  0
  141.1260   71.5330  221.3540 N   0  0  0  0  0  0  0  0  0  0  0  0
  141.6670   72.1210  220.2620 C   0  0  0  0  0  0  0  0  0  0  0  0
  142.1970   71.3360  219.1910 N   0  0  0  0  0  0  0  0  0  0  0  0
  142.9590   71.9560  218.1600 C   0  0  2  0  0  0  0  0  0  0  0  0
  144.0530   71.1000  217.5690 C   0  0  0  0  0  0  0  0  0  0  0  0
  144.3230   71.6760  216.1700 C   0  0  0  0  0  0  0  0  0  0  0  0
  144.8000   73.1070  216.2970 C   0  0  0  0  0  0  0  0  0  0  0  0
  143.8500   73.9360  217.0970 C   0  0  0  0  0  0  0  0  0  0  0  0
  143.5110   73.3050  218.4550 C   0  0  2  0  0  0  0  0  0  0  0  0
  144.7380   73.3220  219.2120 N   0  0  0  0  0  0  0  0  0  0  0  0
  144.9170   72.2140  220.1050 C   0  0  0  0  0  0  0  0  0  0  0  0
  145.9590   72.6630  221.1210 C   0  0  0  0  0  0  0  0  0  0  0  0
  146.0330   74.1410  220.9330 C   0  0  0  0  0  0  0  0  0  0  0  0
  144.7960   74.4420  220.0960 C   0  0  0  0  0  0  0  0  0  0  0  0
  141.6720   73.4650  220.2540 N   0  0  0  0  0  0  0  0  0  0  0  0
  141.1720   74.1900  221.2690 C   0  0  0  0  0  0  0  0  0  0  0  0
  141.1890   75.6100  221.2360 N   0  0  0  0  0  0  0  0  0  0  0  0
  141.7600   76.3140  220.0920 C   0  0  0  0  0  0  0  0  0  0  0  0
  141.0130   77.6360  219.9680 C   0  0  0  0  0  0  0  0  0  0  0  0
  141.3450   78.4090  221.1910 C   0  0  0  0  0  0  0  0  0  0  0  0
  141.8220   79.6960  221.1290 C   0  0  0  0  0  0  0  0  0  0  0  0
  142.1100   80.3570  222.3160 C   0  0  0  0  0  0  0  0  0  0  0  0
  141.9130   79.7110  223.5120 C   0  0  0  0  0  0  0  0  0  0  0  0
  141.4350   78.4200  223.5810 C   0  0  0  0  0  0  0  0  0  0  0  0
  141.1440   77.7530  222.4040 C   0  0  0  0  0  0  0  0  0  0  0  0
  140.6280   76.3670  222.3600 C   0  0  0  0  0  0  0  0  0  0  0  0
  140.6550   73.5590  222.3120 N   0  0  0  0  0  0  0  0  0  0  0  0
  140.5720   71.8680  224.8320 C   0  0  0  0  0  0  0  0  0  0  0  0
  139.8035   68.2001  228.5902 H   0  0  0  0  0  0  0  0  0  0  0  0
  141.5042   70.0006  228.9315 H   0  0  0  0  0  0  0  0  0  0  0  0
  141.8356   71.7001  227.1538 H   0  0  0  0  0  0  0  0  0  0  0  0
  138.4924   68.1379  226.5032 H   0  0  0  0  0  0  0  0  0  0  0  0
  138.5954   68.7037  224.1317 H   0  0  0  0  0  0  0  0  0  0  0  0
  137.5963   70.1390  224.7252 H   0  0  0  0  0  0  0  0  0  0  0  0
  139.3713   69.8919  222.4950 H   0  0  0  0  0  0  0  0  0  0  0  0
  138.1305   71.1662  222.9882 H   0  0  0  0  0  0  0  0  0  0  0  0
  142.0070   70.3290  219.2070 H   0  0  0  0  0  0  0  0  0  0  0  0
  142.1661   72.0907  217.4095 H   0  0  0  0  0  0  0  0  0  0  0  0
  144.9604   71.1560  218.1883 H   0  0  0  0  0  0  0  0  0  0  0  0
  143.7587   70.0411  217.5219 H   0  0  0  0  0  0  0  0  0  0  0  0
  145.0960   71.0749  215.6689 H   0  0  0  0  0  0  0  0  0  0  0  0
  143.3966   71.6495  215.5775 H   0  0  0  0  0  0  0  0  0  0  0  0
  145.7824   73.1129  216.7918 H   0  0  0  0  0  0  0  0  0  0  0  0
  144.8652   73.5380  215.2871 H   0  0  0  0  0  0  0  0  0  0  0  0
  144.3044   74.9225  217.2710 H   0  0  0  0  0  0  0  0  0  0  0  0
  142.9141   74.0143  216.5243 H   0  0  0  0  0  0  0  0  0  0  0  0
  142.7541   73.8283  219.0577 H   0  0  0  0  0  0  0  0  0  0  0  0
  143.9699   71.9718  220.6093 H   0  0  0  0  0  0  0  0  0  0  0  0
  145.2390   71.3096  219.5680 H   0  0  0  0  0  0  0  0  0  0  0  0
  145.6401   72.4145  222.1440 H   0  0  0  0  0  0  0  0  0  0  0  0
  146.9311   72.1687  220.9771 H   0  0  0  0  0  0  0  0  0  0  0  0
  145.9936   74.6650  221.8994 H   0  0  0  0  0  0  0  0  0  0  0  0
  146.9687   74.4714  220.4583 H   0  0  0  0  0  0  0  0  0  0  0  0
  143.8952   74.4987  220.7248 H   0  0  0  0  0  0  0  0  0  0  0  0
  144.8455   75.4091  219.5742 H   0  0  0  0  0  0  0  0  0  0  0  0
  142.8315   76.4991  220.2581 H   0  0  0  0  0  0  0  0  0  0  0  0
  141.6603   75.7178  219.1730 H   0  0  0  0  0  0  0  0  0  0  0  0
  141.3439   78.1794  219.0707 H   0  0  0  0  0  0  0  0  0  0  0  0
  139.9285   77.4789  219.8723 H   0  0  0  0  0  0  0  0  0  0  0  0
  141.9727   80.1926  220.1591 H   0  0  0  0  0  0  0  0  0  0  0  0
  142.4923   81.3883  222.2985 H   0  0  0  0  0  0  0  0  0  0  0  0
  142.1447   80.2422  224.4470 H   0  0  0  0  0  0  0  0  0  0  0  0
  141.2875   77.9288  224.5541 H   0  0  0  0  0  0  0  0  0  0  0  0
  140.8934   75.8588  223.2988 H   0  0  0  0  0  0  0  0  0  0  0  0
  139.5368   76.4135  222.2289 H   0  0  0  0  0  0  0  0  0  0  0  0
  141.6565   72.0266  224.7384 H   0  0  0  0  0  0  0  0  0  0  0  0
  140.0305   72.7665  225.1628 H   0  0  0  0  0  0  0  0  0  0  0  0
  1  2  2  0
  2  3  1  0
  3  4  2  0
  4  5  1  0
  5  6  2  0
  5  7  1  0
  7  8  1  0
  8  9  1  0
  9 10  1  0
 10 11  2  0
 11 12  1  0
 12 13  1  0
 13 14  1  0
 14 15  1  0
 15 16  1  0
 16 17  1  0
 17 18  1  0
 18 19  1  0
 19 20  1  0
 20 21  1  0
 21 22  1  0
 22 23  1  0
 23 24  1  0
 12 25  2  0
 25 26  1  0
 26 27  1  0
 27 28  1  0
 28 29  1  0
 29 30  1  0
 30 31  2  0
 31 32  1  0
 32 33  2  0
 33 34  1  0
 34 35  2  0
 35 36  1  0
 26 37  2  0
  9 38  1  0
  6  1  1  0
 37 10  1  0
 38  4  1  0
 19 14  1  0
 24 20  1  0
 36 27  1  0
 35 30  1  0
  1 39  1  0
  2 40  1  0
  3 41  1  0
  6 42  1  0
  7 43  1  0
  7 44  1  0
  8 45  1  0
  8 46  1  0
 13 47  1  0
 14 48  1  6
 15 49  1  0
 15 50  1  0
 16 51  1  0
 16 52  1  0
 17 53  1  0
 17 54  1  0
 18 55  1  0
 18 56  1  0
 19 57  1  1
 21 58  1  0
 21 59  1  0
 22 60  1  0
 22 61  1  0
 23 62  1  0
 23 63  1  0
 24 64  1  0
 24 65  1  0
 28 66  1  0
 28 67  1  0
 29 68  1  0
 29 69  1  0
 31 70  1  0
 32 71  1  0
 33 72  1  0
 34 73  1  0
 36 74  1  0
 36 75  1  0
 38 76  1  0
 38 77  1  0
M  END
>  <smiles>  (27) 
c1ccc2c(c1)CCN(c1nc(N[C@@H]3CCCC[C@@H]3N3CCCC3)nc(N3CCc4ccccc4C3)n1)C2

>  <score_type>  (27) 
oracle

>  <origin>  (27) 
autodockgpu

>  <m_score__min__energy>  (27) 
-10.83

>  <m_primary>  (27) 
energy

>  <rmsd>  (27) 
7.437192377663435

>  <m_score__min__rmsd>  (27) 
7.437192377663435

>  <meeko>  (27) 
{"free_energy": -10.19, "intermolecular_energy": -11.68, "internal_energy": -1.53, "cluster_size": 24, "cluster_id": 1, "rank_in_cluster": 15}

>  <energy>  (27) 
-10.38

>  <cluster_rmsd>  (27) 
0.19

>  <cluster>  (27) 
2

$$$$

     RDKit          3D

 77 83  0  0  0  0  0  0  0  0999 V2000
  139.8660   68.6190  227.0030 C   0  0  0  0  0  0  0  0  0  0  0  0
  141.0380   69.3470  227.1340 C   0  0  0  0  0  0  0  0  0  0  0  0
  141.2630   70.4010  226.2810 C   0  0  0  0  0  0  0  0  0  0  0  0
  140.3350   70.7280  225.3130 C   0  0  0  0  0  0  0  0  0  0  0  0
  139.1740   70.0290  225.1630 C   0  0  0  0  0  0  0  0  0  0  0  0
  138.9560   68.9660  226.0280 C   0  0  0  0  0  0  0  0  0  0  0  0
  138.1470   70.3170  224.1610 C   0  0  0  0  0  0  0  0  0  0  0  0
  138.5440   71.2410  223.0670 C   0  0  0  0  0  0  0  0  0  0  0  0
  139.8100   71.8980  223.2310 N   0  0  0  0  0  0  0  0  0  0  0  0
  140.3060   72.6500  222.1170 C   0  0  0  0  0  0  0  0  0  0  0  0
  140.6510   72.0550  220.9610 N   0  0  0  0  0  0  0  0  0  0  0  0
  141.1260   72.7170  219.8810 C   0  0  0  0  0  0  0  0  0  0  0  0
  141.4750   72.0180  218.6840 N   0  0  0  0  0  0  0  0  0  0  0  0
  142.5940   71.1370  218.6700 C   0  0  2  0  0  0  0  0  0  0  0  0
  142.6390   70.1410  219.8030 C   0  0  0  0  0  0  0  0  0  0  0  0
  143.5100   68.9790  219.3010 C   0  0  0  0  0  0  0  0  0  0  0  0
  144.9060   69.4860  219.0050 C   0  0  0  0  0  0  0  0  0  0  0  0
  144.8830   70.6470  218.0680 C   0  0  0  0  0  0  0  0  0  0  0  0
  143.9360   71.7640  218.5280 C   0  0  2  0  0  0  0  0  0  0  0  0
  144.5080   72.2870  219.7440 N   0  0  0  0  0  0  0  0  0  0  0  0
  144.2280   73.6690  220.0040 C   0  0  0  0  0  0  0  0  0  0  0  0
  145.2860   74.1280  220.9980 C   0  0  0  0  0  0  0  0  0  0  0  0
  146.3150   73.0480  220.9560 C   0  0  0  0  0  0  0  0  0  0  0  0
  145.9360   72.2630  219.7060 C   0  0  0  0  0  0  0  0  0  0  0  0
  141.2470   74.0490  220.0090 N   0  0  0  0  0  0  0  0  0  0  0  0
  140.9170   74.6940  221.1420 C   0  0  0  0  0  0  0  0  0  0  0  0
  141.0530   76.1040  221.2520 N   0  0  0  0  0  0  0  0  0  0  0  0
  141.6730   76.8700  220.1750 C   0  0  0  0  0  0  0  0  0  0  0  0
  141.0390   78.2560  220.1970 C   0  0  0  0  0  0  0  0  0  0  0  0
  141.4440   78.8700  221.4860 C   0  0  0  0  0  0  0  0  0  0  0  0
  142.0270   80.1130  221.5460 C   0  0  0  0  0  0  0  0  0  0  0  0
  142.3800   80.6230  222.7890 C   0  0  0  0  0  0  0  0  0  0  0  0
  142.1380   79.8780  223.9170 C   0  0  0  0  0  0  0  0  0  0  0  0
  141.5540   78.6300  223.8640 C   0  0  0  0  0  0  0  0  0  0  0  0
  141.1980   78.1130  222.6300 C   0  0  0  0  0  0  0  0  0  0  0  0
  140.5670   76.7870  222.4550 C   0  0  0  0  0  0  0  0  0  0  0  0
  140.4580   73.9930  222.1660 N   0  0  0  0  0  0  0  0  0  0  0  0
  140.6140   71.8590  224.4250 C   0  0  0  0  0  0  0  0  0  0  0  0
  139.6635   67.7701  227.6726 H   0  0  0  0  0  0  0  0  0  0  0  0
  141.7754   69.0858  227.9073 H   0  0  0  0  0  0  0  0  0  0  0  0
  142.1890   70.9880  226.3704 H   0  0  0  0  0  0  0  0  0  0  0  0
  138.0284   68.3825  225.9325 H   0  0  0  0  0  0  0  0  0  0  0  0
  137.8468   69.3629  223.7031 H   0  0  0  0  0  0  0  0  0  0  0  0
  137.3395   70.8302  224.7037 H   0  0  0  0  0  0  0  0  0  0  0  0
  138.5836   70.6608  222.1333 H   0  0  0  0  0  0  0  0  0  0  0  0
  137.7903   72.0422  223.0652 H   0  0  0  0  0  0  0  0  0  0  0  0
  140.8890   72.1780  217.8580 H   0  0  0  0  0  0  0  0  0  0  0  0
  142.3880   70.6010  217.7318 H   0  0  0  0  0  0  0  0  0  0  0  0
  143.0875   70.5978  220.6976 H   0  0  0  0  0  0  0  0  0  0  0  0
  141.6316   69.8009  220.0847 H   0  0  0  0  0  0  0  0  0  0  0  0
  143.5598   68.1976  220.0736 H   0  0  0  0  0  0  0  0  0  0  0  0
  143.0698   68.5602  218.3840 H   0  0  0  0  0  0  0  0  0  0  0  0
  145.3797   69.7977  219.9476 H   0  0  0  0  0  0  0  0  0  0  0  0
  145.4734   68.6722  218.5297 H   0  0  0  0  0  0  0  0  0  0  0  0
  145.9006   71.0579  217.9924 H   0  0  0  0  0  0  0  0  0  0  0  0
  144.5173   70.2817  217.0970 H   0  0  0  0  0  0  0  0  0  0  0  0
  143.8154   72.6125  217.8385 H   0  0  0  0  0  0  0  0  0  0  0  0
  144.2956   74.2546  219.0753 H   0  0  0  0  0  0  0  0  0  0  0  0
  143.2120   73.8078  220.4020 H   0  0  0  0  0  0  0  0  0  0  0  0
  145.7183   75.0919  220.6914 H   0  0  0  0  0  0  0  0  0  0  0  0
  144.8782   74.2846  222.0075 H   0  0  0  0  0  0  0  0  0  0  0  0
  147.3272   73.4694  220.8667 H   0  0  0  0  0  0  0  0  0  0  0  0
  146.3339   72.4311  221.8665 H   0  0  0  0  0  0  0  0  0  0  0  0
  146.3174   72.7535  218.7982 H   0  0  0  0  0  0  0  0  0  0  0  0
  146.3561   71.2466  219.6835 H   0  0  0  0  0  0  0  0  0  0  0  0
  142.7576   76.9473  220.3414 H   0  0  0  0  0  0  0  0  0  0  0  0
  141.5165   76.3804  219.2025 H   0  0  0  0  0  0  0  0  0  0  0  0
  141.4079   78.8586  219.3539 H   0  0  0  0  0  0  0  0  0  0  0  0
  139.9444   78.2002  220.1033 H   0  0  0  0  0  0  0  0  0  0  0  0
  142.2103   80.6920  220.6289 H   0  0  0  0  0  0  0  0  0  0  0  0
  142.8492   81.6147  222.8690 H   0  0  0  0  0  0  0  0  0  0  0  0
  142.4198   80.2912  224.8967 H   0  0  0  0  0  0  0  0  0  0  0  0
  141.3743   78.0559  224.7849 H   0  0  0  0  0  0  0  0  0  0  0  0
  140.7958   76.1657  223.3334 H   0  0  0  0  0  0  0  0  0  0  0  0
  139.4827   76.9374  222.3467 H   0  0  0  0  0  0  0  0  0  0  0  0
  141.6710   71.8067  224.1250 H   0  0  0  0  0  0  0  0  0  0  0  0
  140.3706   72.7685  224.9938 H   0  0  0  0  0  0  0  0  0  0  0  0
  1  2  2  0
  2  3  1  0
  3  4  2  0
  4  5  1  0
  5  6  2  0
  5  7  1  0
  7  8  1  0
  8  9  1  0
  9 10  1  0
 10 11  2  0
 11 12  1  0
 12 13  1  0
 13 14  1  0
 14 15  1  0
 15 16  1  0
 16 17  1  0
 17 18  1  0
 18 19  1  0
 19 20  1  0
 20 21  1  0
 21 22  1  0
 22 23  1  0
 23 24  1  0
 12 25  2  0
 25 26  1  0
 26 27  1  0
 27 28  1  0
 28 29  1  0
 29 30  1  0
 30 31  2  0
 31 32  1  0
 32 33  2  0
 33 34  1  0
 34 35  2  0
 35 36  1  0
 26 37  2  0
  9 38  1  0
  6  1  1  0
 37 10  1  0
 38  4  1  0
 19 14  1  0
 24 20  1  0
 36 27  1  0
 35 30  1  0
  1 39  1  0
  2 40  1  0
  3 41  1  0
  6 42  1  0
  7 43  1  0
  7 44  1  0
  8 45  1  0
  8 46  1  0
 13 47  1  0
 14 48  1  6
 15 49  1  0
 15 50  1  0
 16 51  1  0
 16 52  1  0
 17 53  1  0
 17 54  1  0
 18 55  1  0
 18 56  1  0
 19 57  1  6
 21 58  1  0
 21 59  1  0
 22 60  1  0
 22 61  1  0
 23 62  1  0
 23 63  1  0
 24 64  1  0
 24 65  1  0
 28 66  1  0
 28 67  1  0
 29 68  1  0
 29 69  1  0
 31 70  1  0
 32 71  1  0
 33 72  1  0
 34 73  1  0
 36 74  1  0
 36 75  1  0
 38 76  1  0
 38 77  1  0
M  END
>  <smiles>  (28) 
c1ccc2c(c1)CCN(c1nc(N[C@@H]3CCCC[C@@H]3N3CCCC3)nc(N3CCc4ccccc4C3)n1)C2

>  <score_type>  (28) 
oracle

>  <origin>  (28) 
autodockgpu

>  <m_score__min__energy>  (28) 
-10.83

>  <m_primary>  (28) 
energy

>  <rmsd>  (28) 
7.8530804581901545

>  <m_score__min__rmsd>  (28) 
7.8530804581901545

>  <meeko>  (28) 
{"free_energy": -10.61, "intermolecular_energy": -12.1, "internal_energy": -1.95, "cluster_size": 24, "cluster_id": 1, "rank_in_cluster": 8}

>  <energy>  (28) 
-10.31

>  <cluster_rmsd>  (28) 
0.92

>  <cluster>  (28) 
2

$$$$

     RDKit          3D

 77 83  0  0  0  0  0  0  0  0999 V2000
  140.9380   80.4290  223.4480 C   0  0  0  0  0  0  0  0  0  0  0  0
  142.1400   79.9520  222.9480 C   0  0  0  0  0  0  0  0  0  0  0  0
  142.1630   78.7170  222.3440 C   0  0  0  0  0  0  0  0  0  0  0  0
  141.0090   77.9680  222.2380 C   0  0  0  0  0  0  0  0  0  0  0  0
  139.8140   78.4140  222.7200 C   0  0  0  0  0  0  0  0  0  0  0  0
  139.8000   79.6610  223.3280 C   0  0  0  0  0  0  0  0  0  0  0  0
  138.5540   77.6760  222.6430 C   0  0  0  0  0  0  0  0  0  0  0  0
  138.6600   76.2390  222.2790 C   0  0  0  0  0  0  0  0  0  0  0  0
  139.9550   75.7960  221.8480 N   0  0  0  0  0  0  0  0  0  0  0  0
  140.1390   74.3870  221.6660 C   0  0  0  0  0  0  0  0  0  0  0  0
  140.4200   73.8630  220.4600 N   0  0  0  0  0  0  0  0  0  0  0  0
  140.6010   72.5410  220.2320 C   0  0  0  0  0  0  0  0  0  0  0  0
  140.8950   72.0540  218.9210 N   0  0  0  0  0  0  0  0  0  0  0  0
  142.0250   71.2140  218.7070 C   0  0  2  0  0  0  0  0  0  0  0  0
  142.2470   70.1580  219.7620 C   0  0  0  0  0  0  0  0  0  0  0  0
  143.0740   69.0560  219.0810 C   0  0  0  0  0  0  0  0  0  0  0  0
  144.4040   69.6250  218.6340 C   0  0  0  0  0  0  0  0  0  0  0  0
  144.2250   70.8360  217.7790 C   0  0  0  0  0  0  0  0  0  0  0  0
  143.3190   71.8920  218.4270 C   0  0  2  0  0  0  0  0  0  0  0  0
  144.0350   72.3660  219.5850 N   0  0  0  0  0  0  0  0  0  0  0  0
  143.7290   73.7090  219.9830 C   0  0  0  0  0  0  0  0  0  0  0  0
  144.8960   74.1620  220.8500 C   0  0  0  0  0  0  0  0  0  0  0  0
  145.9590   73.1490  220.5840 C   0  0  0  0  0  0  0  0  0  0  0  0
  145.4420   72.4290  219.3440 C   0  0  0  0  0  0  0  0  0  0  0  0
  140.4850   71.7350  221.3010 N   0  0  0  0  0  0  0  0  0  0  0  0
  140.2050   72.2070  222.5290 C   0  0  0  0  0  0  0  0  0  0  0  0
  140.0890   71.3340  223.6430 N   0  0  0  0  0  0  0  0  0  0  0  0
  139.0000   70.3630  223.7080 C   0  0  0  0  0  0  0  0  0  0  0  0
  139.5160   69.1720  224.5060 C   0  0  0  0  0  0  0  0  0  0  0  0
  139.7610   69.6760  225.8800 C   0  0  0  0  0  0  0  0  0  0  0  0
  139.2340   69.0530  226.9860 C   0  0  0  0  0  0  0  0  0  0  0  0
  139.5070   69.5830  228.2410 C   0  0  0  0  0  0  0  0  0  0  0  0
  140.2890   70.7080  228.3430 C   0  0  0  0  0  0  0  0  0  0  0  0
  140.8190   71.3380  227.2380 C   0  0  0  0  0  0  0  0  0  0  0  0
  140.5540   70.8180  225.9830 C   0  0  0  0  0  0  0  0  0  0  0  0
  141.0700   71.4120  224.7300 C   0  0  0  0  0  0  0  0  0  0  0  0
  140.0390   73.5100  222.6900 N   0  0  0  0  0  0  0  0  0  0  0  0
  141.0800   76.6590  221.5870 C   0  0  0  0  0  0  0  0  0  0  0  0
  140.8930   81.4133  223.9369 H   0  0  0  0  0  0  0  0  0  0  0  0
  143.0588   80.5509  223.0330 H   0  0  0  0  0  0  0  0  0  0  0  0
  143.1083   78.3232  221.9423 H   0  0  0  0  0  0  0  0  0  0  0  0
  138.8510   80.0488  223.7267 H   0  0  0  0  0  0  0  0  0  0  0  0
  138.0671   77.7385  223.6274 H   0  0  0  0  0  0  0  0  0  0  0  0
  137.9850   78.1465  221.8276 H   0  0  0  0  0  0  0  0  0  0  0  0
  138.3772   75.6460  223.1613 H   0  0  0  0  0  0  0  0  0  0  0  0
  137.9948   76.1010  221.4139 H   0  0  0  0  0  0  0  0  0  0  0  0
  140.2640   72.3320  218.1630 H   0  0  0  0  0  0  0  0  0  0  0  0
  141.7092   70.7255  217.7734 H   0  0  0  0  0  0  0  0  0  0  0  0
  142.7984   70.5789  220.6157 H   0  0  0  0  0  0  0  0  0  0  0  0
  141.2953   69.7683  220.1524 H   0  0  0  0  0  0  0  0  0  0  0  0
  143.2471   68.2351  219.7925 H   0  0  0  0  0  0  0  0  0  0  0  0
  142.5264   68.6746  218.2066 H   0  0  0  0  0  0  0  0  0  0  0  0
  144.9916   69.8992  219.5226 H   0  0  0  0  0  0  0  0  0  0  0  0
  144.9237   68.8586  218.0401 H   0  0  0  0  0  0  0  0  0  0  0  0
  145.2120   71.2851  217.5944 H   0  0  0  0  0  0  0  0  0  0  0  0
  143.7426   70.5137  216.8445 H   0  0  0  0  0  0  0  0  0  0  0  0
  143.0844   72.7730  217.8116 H   0  0  0  0  0  0  0  0  0  0  0  0
  143.6337   74.3578  219.0998 H   0  0  0  0  0  0  0  0  0  0  0  0
  142.7754   73.7618  220.5287 H   0  0  0  0  0  0  0  0  0  0  0  0
  145.2326   75.1677  220.5580 H   0  0  0  0  0  0  0  0  0  0  0  0
  144.6310   74.2273  221.9156 H   0  0  0  0  0  0  0  0  0  0  0  0
  146.9264   73.6335  220.3856 H   0  0  0  0  0  0  0  0  0  0  0  0
  146.1384   72.4746  221.4343 H   0  0  0  0  0  0  0  0  0  0  0  0
  145.6634   73.0013  218.4311 H   0  0  0  0  0  0  0  0  0  0  0  0
  145.9037   71.4432  219.1857 H   0  0  0  0  0  0  0  0  0  0  0  0
  138.1277   70.8060  224.2109 H   0  0  0  0  0  0  0  0  0  0  0  0
  138.6863   70.0551  222.6996 H   0  0  0  0  0  0  0  0  0  0  0  0
  138.7652   68.3683  224.5219 H   0  0  0  0  0  0  0  0  0  0  0  0
  140.4311   68.7545  224.0607 H   0  0  0  0  0  0  0  0  0  0  0  0
  138.6093   68.1538  226.8798 H   0  0  0  0  0  0  0  0  0  0  0  0
  139.1006   69.1060  229.1450 H   0  0  0  0  0  0  0  0  0  0  0  0
  140.4992   71.1200  229.3410 H   0  0  0  0  0  0  0  0  0  0  0  0
  141.4414   72.2379  227.3513 H   0  0  0  0  0  0  0  0  0  0  0  0
  141.3156   72.4687  224.9122 H   0  0  0  0  0  0  0  0  0  0  0  0
  141.9617   70.8443  224.4257 H   0  0  0  0  0  0  0  0  0  0  0  0
  141.9905   76.1508  221.9372 H   0  0  0  0  0  0  0  0  0  0  0  0
  141.0812   76.8498  220.5037 H   0  0  0  0  0  0  0  0  0  0  0  0
  1  2  2  0
  2  3  1  0
  3  4  2  0
  4  5  1  0
  5  6  2  0
  5  7  1  0
  7  8  1  0
  8  9  1  0
  9 10  1  0
 10 11  2  0
 11 12  1  0
 12 13  1  0
 13 14  1  0
 14 15  1  0
 15 16  1  0
 16 17  1  0
 17 18  1  0
 18 19  1  0
 19 20  1  0
 20 21  1  0
 21 22  1  0
 22 23  1  0
 23 24  1  0
 12 25  2  0
 25 26  1  0
 26 27  1  0
 27 28  1  0
 28 29  1  0
 29 30  1  0
 30 31  2  0
 31 32  1  0
 32 33  2  0
 33 34  1  0
 34 35  2  0
 35 36  1  0
 26 37  2  0
  9 38  1  0
  6  1  1  0
 37 10  1  0
 38  4  1  0
 19 14  1  0
 24 20  1  0
 36 27  1  0
 35 30  1  0
  1 39  1  0
  2 40  1  0
  3 41  1  0
  6 42  1  0
  7 43  1  0
  7 44  1  0
  8 45  1  0
  8 46  1  0
 13 47  1  0
 14 48  1  6
 15 49  1  0
 15 50  1  0
 16 51  1  0
 16 52  1  0
 17 53  1  0
 17 54  1  0
 18 55  1  0
 18 56  1  0
 19 57  1  6
 21 58  1  0
 21 59  1  0
 22 60  1  0
 22 61  1  0
 23 62  1  0
 23 63  1  0
 24 64  1  0
 24 65  1  0
 28 66  1  0
 28 67  1  0
 29 68  1  0
 29 69  1  0
 31 70  1  0
 32 71  1  0
 33 72  1  0
 34 73  1  0
 36 74  1  0
 36 75  1  0
 38 76  1  0
 38 77  1  0
M  END
>  <smiles>  (29) 
c1ccc2c(c1)CCN(c1nc(N[C@@H]3CCCC[C@@H]3N3CCCC3)nc(N3CCc4ccccc4C3)n1)C2

>  <score_type>  (29) 
oracle

>  <origin>  (29) 
autodockgpu

>  <m_score__min__energy>  (29) 
-10.83

>  <m_primary>  (29) 
energy

>  <rmsd>  (29) 
7.587000482847807

>  <m_score__min__rmsd>  (29) 
7.587000482847807

>  <meeko>  (29) 
{"free_energy": -10.39, "intermolecular_energy": -11.88, "internal_energy": -1.85, "cluster_size": 24, "cluster_id": 1, "rank_in_cluster": 12}

>  <energy>  (29) 
-10.31

>  <cluster_rmsd>  (29) 
0.72

>  <cluster>  (29) 
2

$$$$

     RDKit          3D

 77 83  0  0  0  0  0  0  0  0999 V2000
  145.3020   67.9430  219.2320 C   0  0  0  0  0  0  0  0  0  0  0  0
  143.9920   67.5080  219.3680 C   0  0  0  0  0  0  0  0  0  0  0  0
  143.0000   68.4420  219.5520 C   0  0  0  0  0  0  0  0  0  0  0  0
  143.3050   69.7870  219.5990 C   0  0  0  0  0  0  0  0  0  0  0  0
  144.5830   70.2410  219.4680 C   0  0  0  0  0  0  0  0  0  0  0  0
  145.5780   69.2920  219.2830 C   0  0  0  0  0  0  0  0  0  0  0  0
  144.9800   71.6480  219.5080 C   0  0  0  0  0  0  0  0  0  0  0  0
  143.9570   72.6000  220.0140 C   0  0  0  0  0  0  0  0  0  0  0  0
  142.6420   72.0600  220.2100 N   0  0  0  0  0  0  0  0  0  0  0  0
  141.6810   72.8960  220.8660 C   0  0  0  0  0  0  0  0  0  0  0  0
  140.5940   72.3840  221.4680 N   0  0  0  0  0  0  0  0  0  0  0  0
  139.6560   73.1270  222.1000 C   0  0  0  0  0  0  0  0  0  0  0  0
  138.5220   72.5130  222.7170 N   0  0  0  0  0  0  0  0  0  0  0  0
  138.4460   71.0950  222.8210 C   0  0  2  0  0  0  0  0  0  0  0  0
  137.1790   70.5650  223.4460 C   0  0  0  0  0  0  0  0  0  0  0  0
  137.0340   69.1220  222.9380 C   0  0  0  0  0  0  0  0  0  0  0  0
  138.2190   68.3030  223.4030 C   0  0  0  0  0  0  0  0  0  0  0  0
  139.5140   68.9340  223.0110 C   0  0  0  0  0  0  0  0  0  0  0  0
  139.6110   70.4060  223.4380 C   0  0  2  0  0  0  0  0  0  0  0  0
  139.6310   70.3940  224.8800 N   0  0  0  0  0  0  0  0  0  0  0  0
  140.3320   71.4880  225.4880 C   0  0  0  0  0  0  0  0  0  0  0  0
  140.6610   71.0360  226.9050 C   0  0  0  0  0  0  0  0  0  0  0  0
  140.4270   69.5630  226.8770 C   0  0  0  0  0  0  0  0  0  0  0  0
  140.3350   69.2580  225.3870 C   0  0  0  0  0  0  0  0  0  0  0  0
  139.8590   74.4560  222.1050 N   0  0  0  0  0  0  0  0  0  0  0  0
  140.9290   75.0210  221.5180 C   0  0  0  0  0  0  0  0  0  0  0  0
  141.1210   76.4280  221.5380 N   0  0  0  0  0  0  0  0  0  0  0  0
  141.8160   77.0920  220.4390 C   0  0  0  0  0  0  0  0  0  0  0  0
  141.2420   78.5000  220.3380 C   0  0  0  0  0  0  0  0  0  0  0  0
  141.6200   79.1860  221.5990 C   0  0  0  0  0  0  0  0  0  0  0  0
  142.2530   80.4060  221.6000 C   0  0  0  0  0  0  0  0  0  0  0  0
  142.5760   80.9870  222.8200 C   0  0  0  0  0  0  0  0  0  0  0  0
  142.2570   80.3330  223.9840 C   0  0  0  0  0  0  0  0  0  0  0  0
  141.6220   79.1090  223.9900 C   0  0  0  0  0  0  0  0  0  0  0  0
  141.2960   78.5210  222.7800 C   0  0  0  0  0  0  0  0  0  0  0  0
  140.6160   77.2120  222.6690 C   0  0  0  0  0  0  0  0  0  0  0  0
  141.8130   74.2410  220.9150 N   0  0  0  0  0  0  0  0  0  0  0  0
  142.2170   70.7470  219.7970 C   0  0  0  0  0  0  0  0  0  0  0  0
  146.1146   67.2164  219.0845 H   0  0  0  0  0  0  0  0  0  0  0  0
  143.7512   66.4354  219.3293 H   0  0  0  0  0  0  0  0  0  0  0  0
  141.9556   68.1148  219.6626 H   0  0  0  0  0  0  0  0  0  0  0  0
  146.6200   69.6271  219.1736 H   0  0  0  0  0  0  0  0  0  0  0  0
  145.8652   71.7295  220.1559 H   0  0  0  0  0  0  0  0  0  0  0  0
  145.1599   71.9350  218.4614 H   0  0  0  0  0  0  0  0  0  0  0  0
  144.3086   72.9906  220.9803 H   0  0  0  0  0  0  0  0  0  0  0  0
  143.8509   73.3667  219.2324 H   0  0  0  0  0  0  0  0  0  0  0  0
  137.7880   73.1330  223.0740 H   0  0  0  0  0  0  0  0  0  0  0  0
  138.4504   70.8383  221.7514 H   0  0  0  0  0  0  0  0  0  0  0  0
  137.2581   70.5788  224.5431 H   0  0  0  0  0  0  0  0  0  0  0  0
  136.3069   71.1788  223.1765 H   0  0  0  0  0  0  0  0  0  0  0  0
  136.1067   68.6844  223.3362 H   0  0  0  0  0  0  0  0  0  0  0  0
  136.9964   69.1219  221.8386 H   0  0  0  0  0  0  0  0  0  0  0  0
  138.1830   68.2141  224.4988 H   0  0  0  0  0  0  0  0  0  0  0  0
  138.1609   67.3139  222.9253 H   0  0  0  0  0  0  0  0  0  0  0  0
  140.3349   68.3756  223.4847 H   0  0  0  0  0  0  0  0  0  0  0  0
  139.5796   68.9021  221.9134 H   0  0  0  0  0  0  0  0  0  0  0  0
  140.5085   70.9490  223.1070 H   0  0  0  0  0  0  0  0  0  0  0  0
  141.2555   71.7072  224.9320 H   0  0  0  0  0  0  0  0  0  0  0  0
  139.7267   72.4065  225.4870 H   0  0  0  0  0  0  0  0  0  0  0  0
  141.7086   71.2609  227.1539 H   0  0  0  0  0  0  0  0  0  0  0  0
  140.0517   71.5473  227.6648 H   0  0  0  0  0  0  0  0  0  0  0  0
  141.2645   69.0209  227.3404 H   0  0  0  0  0  0  0  0  0  0  0  0
  139.5321   69.2558  227.4381 H   0  0  0  0  0  0  0  0  0  0  0  0
  141.3349   69.1764  224.9357 H   0  0  0  0  0  0  0  0  0  0  0  0
  139.8395   68.3012  225.1657 H   0  0  0  0  0  0  0  0  0  0  0  0
  142.8953   77.1376  220.6466 H   0  0  0  0  0  0  0  0  0  0  0  0
  141.6776   76.5421  219.4964 H   0  0  0  0  0  0  0  0  0  0  0  0
  141.6709   79.0267  219.4727 H   0  0  0  0  0  0  0  0  0  0  0  0
  140.1508   78.4819  220.2000 H   0  0  0  0  0  0  0  0  0  0  0  0
  142.4988   80.9118  220.6546 H   0  0  0  0  0  0  0  0  0  0  0  0
  143.0830   81.9626  222.8529 H   0  0  0  0  0  0  0  0  0  0  0  0
  142.5168   80.8014  224.9448 H   0  0  0  0  0  0  0  0  0  0  0  0
  141.3789   78.6089  224.9391 H   0  0  0  0  0  0  0  0  0  0  0  0
  140.7820   76.6452  223.5970 H   0  0  0  0  0  0  0  0  0  0  0  0
  139.5444   77.3974  222.5039 H   0  0  0  0  0  0  0  0  0  0  0  0
  141.5425   70.3466  220.5682 H   0  0  0  0  0  0  0  0  0  0  0  0
  141.7295   70.8711  218.8187 H   0  0  0  0  0  0  0  0  0  0  0  0
  1  2  2  0
  2  3  1  0
  3  4  2  0
  4  5  1  0
  5  6  2  0
  5  7  1  0
  7  8  1  0
  8  9  1  0
  9 10  1  0
 10 11  2  0
 11 12  1  0
 12 13  1  0
 13 14  1  0
 14 15  1  0
 15 16  1  0
 16 17  1  0
 17 18  1  0
 18 19  1  0
 19 20  1  0
 20 21  1  0
 21 22  1  0
 22 23  1  0
 23 24  1  0
 12 25  2  0
 25 26  1  0
 26 27  1  0
 27 28  1  0
 28 29  1  0
 29 30  1  0
 30 31  2  0
 31 32  1  0
 32 33  2  0
 33 34  1  0
 34 35  2  0
 35 36  1  0
 26 37  2  0
  9 38  1  0
  6  1  1  0
 37 10  1  0
 38  4  1  0
 19 14  1  0
 24 20  1  0
 36 27  1  0
 35 30  1  0
  1 39  1  0
  2 40  1  0
  3 41  1  0
  6 42  1  0
  7 43  1  0
  7 44  1  0
  8 45  1  0
  8 46  1  0
 13 47  1  0
 14 48  1  6
 15 49  1  0
 15 50  1  0
 16 51  1  0
 16 52  1  0
 17 53  1  0
 17 54  1  0
 18 55  1  0
 18 56  1  0
 19 57  1  6
 21 58  1  0
 21 59  1  0
 22 60  1  0
 22 61  1  0
 23 62  1  0
 23 63  1  0
 24 64  1  0
 24 65  1  0
 28 66  1  0
 28 67  1  0
 29 68  1  0
 29 69  1  0
 31 70  1  0
 32 71  1  0
 33 72  1  0
 34 73  1  0
 36 74  1  0
 36 75  1  0
 38 76  1  0
 38 77  1  0
M  END
>  <smiles>  (30) 
c1ccc2c(c1)CCN(c1nc(N[C@@H]3CCCC[C@@H]3N3CCCC3)nc(N3CCc4ccccc4C3)n1)C2

>  <score_type>  (30) 
oracle

>  <origin>  (30) 
autodockgpu

>  <m_score__min__energy>  (30) 
-10.83

>  <m_primary>  (30) 
energy

>  <rmsd>  (30) 
9.493445482617444

>  <m_score__min__rmsd>  (30) 
9.493445482617444

>  <meeko>  (30) 
{"free_energy": -10.42, "intermolecular_energy": -11.91, "internal_energy": -1.76, "cluster_size": 25, "cluster_id": 2, "rank_in_cluster": 2}

>  <energy>  (30) 
-10.31

>  <cluster_rmsd>  (30) 
0.92

>  <cluster>  (30) 
2

$$$$

     RDKit          3D

 77 83  0  0  0  0  0  0  0  0999 V2000
  140.2410   68.1910  227.7380 C   0  0  0  0  0  0  0  0  0  0  0  0
  140.8230   69.3940  228.1030 C   0  0  0  0  0  0  0  0  0  0  0  0
  140.7920   70.4430  227.2150 C   0  0  0  0  0  0  0  0  0  0  0  0
  140.1910   70.2970  225.9810 C   0  0  0  0  0  0  0  0  0  0  0  0
  139.6110   69.1250  225.5970 C   0  0  0  0  0  0  0  0  0  0  0  0
  139.6470   68.0720  226.5000 C   0  0  0  0  0  0  0  0  0  0  0  0
  138.9570   68.8990  224.3080 C   0  0  0  0  0  0  0  0  0  0  0  0
  139.2070   69.9230  223.2600 C   0  0  0  0  0  0  0  0  0  0  0  0
  139.8880   71.1090  223.6950 N   0  0  0  0  0  0  0  0  0  0  0  0
  140.3070   72.0310  222.6820 C   0  0  0  0  0  0  0  0  0  0  0  0
  141.0470   71.6370  221.6300 N   0  0  0  0  0  0  0  0  0  0  0  0
  141.4700   72.4670  220.6480 C   0  0  0  0  0  0  0  0  0  0  0  0
  142.2570   71.9770  219.5600 N   0  0  0  0  0  0  0  0  0  0  0  0
  143.6330   72.3280  219.4580 C   0  0  2  0  0  0  0  0  0  0  0  0
  144.2120   73.0100  220.6730 C   0  0  0  0  0  0  0  0  0  0  0  0
  145.7270   72.7620  220.6090 C   0  0  0  0  0  0  0  0  0  0  0  0
  146.2880   73.3890  219.3500 C   0  0  0  0  0  0  0  0  0  0  0  0
  145.5660   72.9190  218.1310 C   0  0  0  0  0  0  0  0  0  0  0  0
  144.0430   73.0820  218.2430 C   0  0  2  0  0  0  0  0  0  0  0  0
  143.8040   74.5030  218.2850 N   0  0  0  0  0  0  0  0  0  0  0  0
  142.4460   74.8840  218.5490 C   0  0  0  0  0  0  0  0  0  0  0  0
  142.3160   76.3220  218.0640 C   0  0  0  0  0  0  0  0  0  0  0  0
  143.5330   76.5330  217.2270 C   0  0  0  0  0  0  0  0  0  0  0  0
  144.0550   75.1160  217.0190 C   0  0  0  0  0  0  0  0  0  0  0  0
  141.1080   73.7560  220.7660 N   0  0  0  0  0  0  0  0  0  0  0  0
  140.3700   74.2030  221.7960 C   0  0  0  0  0  0  0  0  0  0  0  0
  140.0000   75.5700  221.8970 N   0  0  0  0  0  0  0  0  0  0  0  0
  138.6440   75.9940  221.5580 C   0  0  0  0  0  0  0  0  0  0  0  0
  138.3340   77.2130  222.4180 C   0  0  0  0  0  0  0  0  0  0  0  0
  139.2690   78.2760  221.9720 C   0  0  0  0  0  0  0  0  0  0  0  0
  138.8280   79.5270  221.6130 C   0  0  0  0  0  0  0  0  0  0  0  0
  139.7630   80.4710  221.2060 C   0  0  0  0  0  0  0  0  0  0  0  0
  141.0930   80.1320  221.1730 C   0  0  0  0  0  0  0  0  0  0  0  0
  141.5420   78.8780  221.5320 C   0  0  0  0  0  0  0  0  0  0  0  0
  140.6190   77.9310  221.9390 C   0  0  0  0  0  0  0  0  0  0  0  0
  140.9880   76.5570  222.3440 C   0  0  0  0  0  0  0  0  0  0  0  0
  139.9850   73.3440  222.7270 N   0  0  0  0  0  0  0  0  0  0  0  0
  140.1800   71.4400  225.0660 C   0  0  0  0  0  0  0  0  0  0  0  0
  140.2528   67.3370  228.4312 H   0  0  0  0  0  0  0  0  0  0  0  0
  141.3018   69.5079  229.0867 H   0  0  0  0  0  0  0  0  0  0  0  0
  141.2492   71.4051  227.4897 H   0  0  0  0  0  0  0  0  0  0  0  0
  139.1874   67.1129  226.2192 H   0  0  0  0  0  0  0  0  0  0  0  0
  139.3038   67.9297  223.9204 H   0  0  0  0  0  0  0  0  0  0  0  0
  137.8771   68.9429  224.5126 H   0  0  0  0  0  0  0  0  0  0  0  0
  139.8136   69.4562  222.4700 H   0  0  0  0  0  0  0  0  0  0  0  0
  138.2136   70.2553  222.9242 H   0  0  0  0  0  0  0  0  0  0  0  0
  141.7890   71.3740  218.8760 H   0  0  0  0  0  0  0  0  0  0  0  0
  144.0672   71.3209  219.3730 H   0  0  0  0  0  0  0  0  0  0  0  0
  143.9988   74.0888  220.6450 H   0  0  0  0  0  0  0  0  0  0  0  0
  143.7762   72.6181  221.6039 H   0  0  0  0  0  0  0  0  0  0  0  0
  146.2098   73.2117  221.4892 H   0  0  0  0  0  0  0  0  0  0  0  0
  145.9213   71.6794  220.5976 H   0  0  0  0  0  0  0  0  0  0  0  0
  146.1912   74.4823  219.4225 H   0  0  0  0  0  0  0  0  0  0  0  0
  147.3433   73.0922  219.2596 H   0  0  0  0  0  0  0  0  0  0  0  0
  145.9193   73.5006  217.2668 H   0  0  0  0  0  0  0  0  0  0  0  0
  145.7770   71.8458  218.0136 H   0  0  0  0  0  0  0  0  0  0  0  0
  143.4492   72.6798  217.4089 H   0  0  0  0  0  0  0  0  0  0  0  0
  141.7515   74.2306  218.0006 H   0  0  0  0  0  0  0  0  0  0  0  0
  142.2009   74.7937  219.6175 H   0  0  0  0  0  0  0  0  0  0  0  0
  141.4025   76.4514  217.4651 H   0  0  0  0  0  0  0  0  0  0  0  0
  142.2418   77.0426  218.8918 H   0  0  0  0  0  0  0  0  0  0  0  0
  143.2759   77.0047  216.2671 H   0  0  0  0  0  0  0  0  0  0  0  0
  144.2701   77.2026  217.6943 H   0  0  0  0  0  0  0  0  0  0  0  0
  143.5062   74.6047  216.2144 H   0  0  0  0  0  0  0  0  0  0  0  0
  145.1119   75.0789  216.7165 H   0  0  0  0  0  0  0  0  0  0  0  0
  138.5857   76.2584  220.4918 H   0  0  0  0  0  0  0  0  0  0  0  0
  137.9206   75.1864  221.7440 H   0  0  0  0  0  0  0  0  0  0  0  0
  137.2922   77.5323  222.2673 H   0  0  0  0  0  0  0  0  0  0  0  0
  138.4555   76.9924  223.4888 H   0  0  0  0  0  0  0  0  0  0  0  0
  137.7571   79.7760  221.6471 H   0  0  0  0  0  0  0  0  0  0  0  0
  139.4404   81.4809  220.9128 H   0  0  0  0  0  0  0  0  0  0  0  0
  141.8256   80.8860  220.8493 H   0  0  0  0  0  0  0  0  0  0  0  0
  142.6143   78.6354  221.4954 H   0  0  0  0  0  0  0  0  0  0  0  0
  141.9645   76.3069  221.9037 H   0  0  0  0  0  0  0  0  0  0  0  0
  141.0279   76.5251  223.4428 H   0  0  0  0  0  0  0  0  0  0  0  0
  141.1710   71.9162  225.1002 H   0  0  0  0  0  0  0  0  0  0  0  0
  139.3703   72.1027  225.4055 H   0  0  0  0  0  0  0  0  0  0  0  0
  1  2  2  0
  2  3  1  0
  3  4  2  0
  4  5  1  0
  5  6  2  0
  5  7  1  0
  7  8  1  0
  8  9  1  0
  9 10  1  0
 10 11  2  0
 11 12  1  0
 12 13  1  0
 13 14  1  0
 14 15  1  0
 15 16  1  0
 16 17  1  0
 17 18  1  0
 18 19  1  0
 19 20  1  0
 20 21  1  0
 21 22  1  0
 22 23  1  0
 23 24  1  0
 12 25  2  0
 25 26  1  0
 26 27  1  0
 27 28  1  0
 28 29  1  0
 29 30  1  0
 30 31  2  0
 31 32  1  0
 32 33  2  0
 33 34  1  0
 34 35  2  0
 35 36  1  0
 26 37  2  0
  9 38  1  0
  6  1  1  0
 37 10  1  0
 38  4  1  0
 19 14  1  0
 24 20  1  0
 36 27  1  0
 35 30  1  0
  1 39  1  0
  2 40  1  0
  3 41  1  0
  6 42  1  0
  7 43  1  0
  7 44  1  0
  8 45  1  0
  8 46  1  0
 13 47  1  0
 14 48  1  6
 15 49  1  0
 15 50  1  0
 16 51  1  0
 16 52  1  0
 17 53  1  0
 17 54  1  0
 18 55  1  0
 18 56  1  0
 19 57  1  6
 21 58  1  0
 21 59  1  0
 22 60  1  0
 22 61  1  0
 23 62  1  0
 23 63  1  0
 24 64  1  0
 24 65  1  0
 28 66  1  0
 28 67  1  0
 29 68  1  0
 29 69  1  0
 31 70  1  0
 32 71  1  0
 33 72  1  0
 34 73  1  0
 36 74  1  0
 36 75  1  0
 38 76  1  0
 38 77  1  0
M  END
>  <smiles>  (31) 
c1ccc2c(c1)CCN(c1nc(N[C@@H]3CCCC[C@@H]3N3CCCC3)nc(N3CCc4ccccc4C3)n1)C2

>  <score_type>  (31) 
oracle

>  <origin>  (31) 
autodockgpu

>  <m_score__min__energy>  (31) 
-10.83

>  <m_primary>  (31) 
energy

>  <rmsd>  (31) 
6.6777515942104415

>  <m_score__min__rmsd>  (31) 
6.6777515942104415

>  <meeko>  (31) 
{"free_energy": -9.49, "intermolecular_energy": -10.98, "internal_energy": -1.98, "cluster_size": 24, "cluster_id": 1, "rank_in_cluster": 23}

>  <energy>  (31) 
-10.3

>  <cluster_rmsd>  (31) 
0.92

>  <cluster>  (31) 
2

$$$$

     RDKit          3D

 77 83  0  0  0  0  0  0  0  0999 V2000
  145.9050   67.9700  219.1070 C   0  0  0  0  0  0  0  0  0  0  0  0
  144.6750   67.4230  219.4360 C   0  0  0  0  0  0  0  0  0  0  0  0
  143.6210   68.2690  219.6920 C   0  0  0  0  0  0  0  0  0  0  0  0
  143.7890   69.6370  219.6200 C   0  0  0  0  0  0  0  0  0  0  0  0
  144.9880   70.2000  219.2990 C   0  0  0  0  0  0  0  0  0  0  0  0
  146.0460   69.3390  219.0430 C   0  0  0  0  0  0  0  0  0  0  0  0
  145.2390   71.6380  219.2050 C   0  0  0  0  0  0  0  0  0  0  0  0
  144.1930   72.5220  219.7820 C   0  0  0  0  0  0  0  0  0  0  0  0
  142.9750   71.8750  220.1770 N   0  0  0  0  0  0  0  0  0  0  0  0
  142.0210   72.6600  220.9020 C   0  0  0  0  0  0  0  0  0  0  0  0
  141.0440   72.0900  221.6300 N   0  0  0  0  0  0  0  0  0  0  0  0
  140.1180   72.7840  222.3310 C   0  0  0  0  0  0  0  0  0  0  0  0
  139.1050   72.1100  223.0810 N   0  0  0  0  0  0  0  0  0  0  0  0
  138.6970   70.7960  222.7120 C   0  0  2  0  0  0  0  0  0  0  0  0
  137.2250   70.5120  222.8810 C   0  0  0  0  0  0  0  0  0  0  0  0
  136.9120   69.3520  221.9230 C   0  0  0  0  0  0  0  0  0  0  0  0
  137.7200   68.1360  222.3220 C   0  0  0  0  0  0  0  0  0  0  0  0
  139.1780   68.4470  222.4080 C   0  0  0  0  0  0  0  0  0  0  0  0
  139.4740   69.6680  223.2910 C   0  0  2  0  0  0  0  0  0  0  0  0
  139.1030   69.2810  224.6300 N   0  0  0  0  0  0  0  0  0  0  0  0
  139.6790   70.0780  225.6750 C   0  0  0  0  0  0  0  0  0  0  0  0
  139.5840   69.2360  226.9400 C   0  0  0  0  0  0  0  0  0  0  0  0
  139.2760   67.8640  226.4390 C   0  0  0  0  0  0  0  0  0  0  0  0
  139.5720   67.9700  224.9480 C   0  0  0  0  0  0  0  0  0  0  0  0
  140.2120   74.1240  222.2710 N   0  0  0  0  0  0  0  0  0  0  0  0
  141.1690   74.7450  221.5590 C   0  0  0  0  0  0  0  0  0  0  0  0
  141.2470   76.1620  221.5130 N   0  0  0  0  0  0  0  0  0  0  0  0
  141.8370   76.8300  220.3570 C   0  0  0  0  0  0  0  0  0  0  0  0
  141.1480   78.1830  220.2270 C   0  0  0  0  0  0  0  0  0  0  0  0
  141.5250   78.9510  221.4400 C   0  0  0  0  0  0  0  0  0  0  0  0
  142.0570   80.2160  221.3610 C   0  0  0  0  0  0  0  0  0  0  0  0
  142.3870   80.8730  222.5400 C   0  0  0  0  0  0  0  0  0  0  0  0
  142.1740   80.2480  223.7440 C   0  0  0  0  0  0  0  0  0  0  0  0
  141.6400   78.9790  223.8290 C   0  0  0  0  0  0  0  0  0  0  0  0
  141.3080   78.3150  222.6610 C   0  0  0  0  0  0  0  0  0  0  0  0
  140.7320   76.9530  222.6350 C   0  0  0  0  0  0  0  0  0  0  0  0
  142.0470   74.0120  220.8940 N   0  0  0  0  0  0  0  0  0  0  0  0
  142.6400   70.5010  219.9000 C   0  0  0  0  0  0  0  0  0  0  0  0
  146.7637   67.3150  218.8982 H   0  0  0  0  0  0  0  0  0  0  0  0
  144.5439   66.3322  219.4914 H   0  0  0  0  0  0  0  0  0  0  0  0
  142.6377   67.8524  219.9559 H   0  0  0  0  0  0  0  0  0  0  0  0
  147.0269   69.7625  218.7811 H   0  0  0  0  0  0  0  0  0  0  0  0
  146.1837   71.8494  219.7274 H   0  0  0  0  0  0  0  0  0  0  0  0
  145.2583   71.8655  218.1290 H   0  0  0  0  0  0  0  0  0  0  0  0
  144.6180   73.0119  220.6704 H   0  0  0  0  0  0  0  0  0  0  0  0
  143.9135   73.2177  218.9771 H   0  0  0  0  0  0  0  0  0  0  0  0
  138.7020   72.6090  223.8800 H   0  0  0  0  0  0  0  0  0  0  0  0
  138.9326   70.8304  221.6381 H   0  0  0  0  0  0  0  0  0  0  0  0
  137.0073   70.2212  223.9193 H   0  0  0  0  0  0  0  0  0  0  0  0
  136.6126   71.3983  222.6587 H   0  0  0  0  0  0  0  0  0  0  0  0
  135.8396   69.1128  221.9749 H   0  0  0  0  0  0  0  0  0  0  0  0
  137.1731   69.6446  220.8953 H   0  0  0  0  0  0  0  0  0  0  0  0
  137.3720   67.7830  223.3040 H   0  0  0  0  0  0  0  0  0  0  0  0
  137.5787   67.3623  221.5529 H   0  0  0  0  0  0  0  0  0  0  0  0
  139.6995   67.5744  222.8283 H   0  0  0  0  0  0  0  0  0  0  0  0
  139.5278   68.6803  221.3915 H   0  0  0  0  0  0  0  0  0  0  0  0
  140.5230   69.9969  223.3298 H   0  0  0  0  0  0  0  0  0  0  0  0
  140.7301   70.3080  225.4461 H   0  0  0  0  0  0  0  0  0  0  0  0
  139.1541   71.0381  225.7877 H   0  0  0  0  0  0  0  0  0  0  0  0
  140.5370   69.2468  227.4892 H   0  0  0  0  0  0  0  0  0  0  0  0
  138.8242   69.6107  227.6417 H   0  0  0  0  0  0  0  0  0  0  0  0
  139.9221   67.1137  226.9181 H   0  0  0  0  0  0  0  0  0  0  0  0
  138.2459   67.5443  226.6551 H   0  0  0  0  0  0  0  0  0  0  0  0
  140.6497   67.8747  224.7493 H   0  0  0  0  0  0  0  0  0  0  0  0
  139.0969   67.1783  224.3501 H   0  0  0  0  0  0  0  0  0  0  0  0
  142.9172   76.9691  220.5113 H   0  0  0  0  0  0  0  0  0  0  0  0
  141.7016   76.2304  219.4448 H   0  0  0  0  0  0  0  0  0  0  0  0
  141.4946   78.7033  219.3219 H   0  0  0  0  0  0  0  0  0  0  0  0
  140.0568   78.0735  220.1419 H   0  0  0  0  0  0  0  0  0  0  0  0
  142.2180   80.6978  220.3853 H   0  0  0  0  0  0  0  0  0  0  0  0
  142.8154   81.8857  222.5091 H   0  0  0  0  0  0  0  0  0  0  0  0
  142.4380   80.7769  224.6716 H   0  0  0  0  0  0  0  0  0  0  0  0
  141.4808   78.5032  224.8079 H   0  0  0  0  0  0  0  0  0  0  0  0
  140.9849   76.4421  223.5758 H   0  0  0  0  0  0  0  0  0  0  0  0
  139.6426   77.0462  222.5142 H   0  0  0  0  0  0  0  0  0  0  0  0
  142.1100   70.0943  220.7739 H   0  0  0  0  0  0  0  0  0  0  0  0
  142.0260   70.5081  218.9873 H   0  0  0  0  0  0  0  0  0  0  0  0
  1  2  2  0
  2  3  1  0
  3  4  2  0
  4  5  1  0
  5  6  2  0
  5  7  1  0
  7  8  1  0
  8  9  1  0
  9 10  1  0
 10 11  2  0
 11 12  1  0
 12 13  1  0
 13 14  1  0
 14 15  1  0
 15 16  1  0
 16 17  1  0
 17 18  1  0
 18 19  1  0
 19 20  1  0
 20 21  1  0
 21 22  1  0
 22 23  1  0
 23 24  1  0
 12 25  2  0
 25 26  1  0
 26 27  1  0
 27 28  1  0
 28 29  1  0
 29 30  1  0
 30 31  2  0
 31 32  1  0
 32 33  2  0
 33 34  1  0
 34 35  2  0
 35 36  1  0
 26 37  2  0
  9 38  1  0
  6  1  1  0
 37 10  1  0
 38  4  1  0
 19 14  1  0
 24 20  1  0
 36 27  1  0
 35 30  1  0
  1 39  1  0
  2 40  1  0
  3 41  1  0
  6 42  1  0
  7 43  1  0
  7 44  1  0
  8 45  1  0
  8 46  1  0
 13 47  1  0
 14 48  1  6
 15 49  1  0
 15 50  1  0
 16 51  1  0
 16 52  1  0
 17 53  1  0
 17 54  1  0
 18 55  1  0
 18 56  1  0
 19 57  1  1
 21 58  1  0
 21 59  1  0
 22 60  1  0
 22 61  1  0
 23 62  1  0
 23 63  1  0
 24 64  1  0
 24 65  1  0
 28 66  1  0
 28 67  1  0
 29 68  1  0
 29 69  1  0
 31 70  1  0
 32 71  1  0
 33 72  1  0
 34 73  1  0
 36 74  1  0
 36 75  1  0
 38 76  1  0
 38 77  1  0
M  END
>  <smiles>  (32) 
c1ccc2c(c1)CCN(c1nc(N[C@@H]3CCCC[C@@H]3N3CCCC3)nc(N3CCc4ccccc4C3)n1)C2

>  <score_type>  (32) 
oracle

>  <origin>  (32) 
autodockgpu

>  <m_score__min__energy>  (32) 
-10.83

>  <m_primary>  (32) 
energy

>  <rmsd>  (32) 
10.027768989850886

>  <m_score__min__rmsd>  (32) 
10.027768989850886

>  <meeko>  (32) 
{"free_energy": -10.28, "intermolecular_energy": -11.78, "internal_energy": -1.68, "cluster_size": 25, "cluster_id": 2, "rank_in_cluster": 10}

>  <energy>  (32) 
-10.3

>  <cluster_rmsd>  (32) 
0.92

>  <cluster>  (32) 
2

$$$$

     RDKit          3D

 77 83  0  0  0  0  0  0  0  0999 V2000
  140.7470   80.6360  223.5120 C   0  0  0  0  0  0  0  0  0  0  0  0
  141.9680   80.1950  223.0260 C   0  0  0  0  0  0  0  0  0  0  0  0
  142.0300   78.9690  222.4040 C   0  0  0  0  0  0  0  0  0  0  0  0
  140.8950   78.1960  222.2680 C   0  0  0  0  0  0  0  0  0  0  0  0
  139.6830   78.6070  222.7370 C   0  0  0  0  0  0  0  0  0  0  0  0
  139.6300   79.8440  223.3620 C   0  0  0  0  0  0  0  0  0  0  0  0
  138.4410   77.8420  222.6280 C   0  0  0  0  0  0  0  0  0  0  0  0
  138.5860   76.4130  222.2450 C   0  0  0  0  0  0  0  0  0  0  0  0
  139.8990   76.0060  221.8300 N   0  0  0  0  0  0  0  0  0  0  0  0
  140.1180   74.6050  221.6300 C   0  0  0  0  0  0  0  0  0  0  0  0
  140.5000   74.1130  220.4380 N   0  0  0  0  0  0  0  0  0  0  0  0
  140.7180   72.8000  220.1960 C   0  0  0  0  0  0  0  0  0  0  0  0
  141.1210   72.3480  218.9010 N   0  0  0  0  0  0  0  0  0  0  0  0
  142.1450   71.3660  218.7720 C   0  0  2  0  0  0  0  0  0  0  0  0
  142.2220   70.3700  219.9030 C   0  0  0  0  0  0  0  0  0  0  0  0
  142.9200   69.1310  219.3210 C   0  0  0  0  0  0  0  0  0  0  0  0
  144.3150   69.5040  218.8660 C   0  0  0  0  0  0  0  0  0  0  0  0
  144.2960   70.6620  217.9240 C   0  0  0  0  0  0  0  0  0  0  0  0
  143.5150   71.8630  218.4750 C   0  0  2  0  0  0  0  0  0  0  0  0
  144.2660   72.3300  219.6140 N   0  0  0  0  0  0  0  0  0  0  0  0
  144.0050   73.6860  220.0010 C   0  0  0  0  0  0  0  0  0  0  0  0
  145.2010   74.1170  220.8400 C   0  0  0  0  0  0  0  0  0  0  0  0
  146.2300   73.0700  220.5670 C   0  0  0  0  0  0  0  0  0  0  0  0
  145.6690   72.3500  219.3460 C   0  0  0  0  0  0  0  0  0  0  0  0
  140.5320   71.9670  221.2340 N   0  0  0  0  0  0  0  0  0  0  0  0
  140.1500   72.4050  222.4460 C   0  0  0  0  0  0  0  0  0  0  0  0
  139.9610   71.5050  223.5280 N   0  0  0  0  0  0  0  0  0  0  0  0
  138.6890   70.8070  223.6910 C   0  0  0  0  0  0  0  0  0  0  0  0
  138.9980   69.4750  224.3640 C   0  0  0  0  0  0  0  0  0  0  0  0
  139.5120   69.8100  225.7160 C   0  0  0  0  0  0  0  0  0  0  0  0
  138.9850   69.2460  226.8530 C   0  0  0  0  0  0  0  0  0  0  0  0
  139.5190   69.6080  228.0830 C   0  0  0  0  0  0  0  0  0  0  0  0
  140.5500   70.5140  228.1320 C   0  0  0  0  0  0  0  0  0  0  0  0
  141.0820   71.0830  226.9950 C   0  0  0  0  0  0  0  0  0  0  0  0
  140.5590   70.7290  225.7630 C   0  0  0  0  0  0  0  0  0  0  0  0
  141.0520   71.2780  224.4810 C   0  0  0  0  0  0  0  0  0  0  0  0
  139.9520   73.7020  222.6230 N   0  0  0  0  0  0  0  0  0  0  0  0
  141.0070   76.8980  221.6000 C   0  0  0  0  0  0  0  0  0  0  0  0
  140.6706   81.6118  224.0140 H   0  0  0  0  0  0  0  0  0  0  0  0
  142.8709   80.8137  223.1355 H   0  0  0  0  0  0  0  0  0  0  0  0
  142.9906   78.6028  222.0127 H   0  0  0  0  0  0  0  0  0  0  0  0
  138.6657   80.2039  223.7501 H   0  0  0  0  0  0  0  0  0  0  0  0
  137.9365   77.8789  223.6048 H   0  0  0  0  0  0  0  0  0  0  0  0
  137.8748   78.3117  221.8102 H   0  0  0  0  0  0  0  0  0  0  0  0
  138.3019   75.8006  223.1135 H   0  0  0  0  0  0  0  0  0  0  0  0
  137.9389   76.2727  221.3666 H   0  0  0  0  0  0  0  0  0  0  0  0
  140.6440   72.7560  218.0910 H   0  0  0  0  0  0  0  0  0  0  0  0
  141.7871   70.8526  217.8674 H   0  0  0  0  0  0  0  0  0  0  0  0
  142.8071   70.7827  220.7380 H   0  0  0  0  0  0  0  0  0  0  0  0
  141.2244   70.1258  220.2968 H   0  0  0  0  0  0  0  0  0  0  0  0
  142.9828   68.3494  220.0925 H   0  0  0  0  0  0  0  0  0  0  0  0
  142.3432   68.7545  218.4633 H   0  0  0  0  0  0  0  0  0  0  0  0
  144.9181   69.7703  219.7465 H   0  0  0  0  0  0  0  0  0  0  0  0
  144.7471   68.6401  218.3396 H   0  0  0  0  0  0  0  0  0  0  0  0
  145.3326   70.9753  217.7309 H   0  0  0  0  0  0  0  0  0  0  0  0
  143.7917   70.3325  217.0036 H   0  0  0  0  0  0  0  0  0  0  0  0
  143.3978   72.7190  217.7941 H   0  0  0  0  0  0  0  0  0  0  0  0
  143.9105   74.3265  219.1117 H   0  0  0  0  0  0  0  0  0  0  0  0
  143.0640   73.7718  220.5642 H   0  0  0  0  0  0  0  0  0  0  0  0
  145.5602   75.1089  220.5283 H   0  0  0  0  0  0  0  0  0  0  0  0
  144.9587   74.2037  221.9095 H   0  0  0  0  0  0  0  0  0  0  0  0
  147.2069   73.5240  220.3444 H   0  0  0  0  0  0  0  0  0  0  0  0
  146.4062   72.4012  221.4223 H   0  0  0  0  0  0  0  0  0  0  0  0
  145.8890   72.9047  218.4219 H   0  0  0  0  0  0  0  0  0  0  0  0
  146.0995   71.3496  219.1917 H   0  0  0  0  0  0  0  0  0  0  0  0
  138.0099   71.4004  224.3208 H   0  0  0  0  0  0  0  0  0  0  0  0
  138.1974   70.6524  222.7192 H   0  0  0  0  0  0  0  0  0  0  0  0
  138.0857   68.8653  224.4420 H   0  0  0  0  0  0  0  0  0  0  0  0
  139.7310   68.8921  223.7870 H   0  0  0  0  0  0  0  0  0  0  0  0
  138.1580   68.5234  226.7903 H   0  0  0  0  0  0  0  0  0  0  0  0
  139.1193   69.1725  229.0106 H   0  0  0  0  0  0  0  0  0  0  0  0
  140.9650   70.7949  229.1113 H   0  0  0  0  0  0  0  0  0  0  0  0
  141.9080   71.8060  227.0652 H   0  0  0  0  0  0  0  0  0  0  0  0
  141.5593   72.2345  224.6753 H   0  0  0  0  0  0  0  0  0  0  0  0
  141.7434   70.5451  224.0396 H   0  0  0  0  0  0  0  0  0  0  0  0
  141.9233   76.4060  221.9582 H   0  0  0  0  0  0  0  0  0  0  0  0
  141.0213   77.1043  220.5196 H   0  0  0  0  0  0  0  0  0  0  0  0
  1  2  2  0
  2  3  1  0
  3  4  2  0
  4  5  1  0
  5  6  2  0
  5  7  1  0
  7  8  1  0
  8  9  1  0
  9 10  1  0
 10 11  2  0
 11 12  1  0
 12 13  1  0
 13 14  1  0
 14 15  1  0
 15 16  1  0
 16 17  1  0
 17 18  1  0
 18 19  1  0
 19 20  1  0
 20 21  1  0
 21 22  1  0
 22 23  1  0
 23 24  1  0
 12 25  2  0
 25 26  1  0
 26 27  1  0
 27 28  1  0
 28 29  1  0
 29 30  1  0
 30 31  2  0
 31 32  1  0
 32 33  2  0
 33 34  1  0
 34 35  2  0
 35 36  1  0
 26 37  2  0
  9 38  1  0
  6  1  1  0
 37 10  1  0
 38  4  1  0
 19 14  1  0
 24 20  1  0
 36 27  1  0
 35 30  1  0
  1 39  1  0
  2 40  1  0
  3 41  1  0
  6 42  1  0
  7 43  1  0
  7 44  1  0
  8 45  1  0
  8 46  1  0
 13 47  1  0
 14 48  1  6
 15 49  1  0
 15 50  1  0
 16 51  1  0
 16 52  1  0
 17 53  1  0
 17 54  1  0
 18 55  1  0
 18 56  1  0
 19 57  1  6
 21 58  1  0
 21 59  1  0
 22 60  1  0
 22 61  1  0
 23 62  1  0
 23 63  1  0
 24 64  1  0
 24 65  1  0
 28 66  1  0
 28 67  1  0
 29 68  1  0
 29 69  1  0
 31 70  1  0
 32 71  1  0
 33 72  1  0
 34 73  1  0
 36 74  1  0
 36 75  1  0
 38 76  1  0
 38 77  1  0
M  END
>  <smiles>  (33) 
c1ccc2c(c1)CCN(c1nc(N[C@@H]3CCCC[C@@H]3N3CCCC3)nc(N3CCc4ccccc4C3)n1)C2

>  <score_type>  (33) 
oracle

>  <origin>  (33) 
autodockgpu

>  <m_score__min__energy>  (33) 
-10.83

>  <m_primary>  (33) 
energy

>  <rmsd>  (33) 
7.615236120907994

>  <m_score__min__rmsd>  (33) 
7.615236120907994

>  <meeko>  (33) 
{"free_energy": -10.36, "intermolecular_energy": -11.85, "internal_energy": -1.66, "cluster_size": 24, "cluster_id": 1, "rank_in_cluster": 13}

>  <energy>  (33) 
-10.29

>  <cluster_rmsd>  (33) 
0.92

>  <cluster>  (33) 
2

$$$$

     RDKit          3D

 77 83  0  0  0  0  0  0  0  0999 V2000
  139.8650   68.5570  226.8880 C   0  0  0  0  0  0  0  0  0  0  0  0
  141.0370   69.2830  227.0310 C   0  0  0  0  0  0  0  0  0  0  0  0
  141.2590   70.3540  226.1980 C   0  0  0  0  0  0  0  0  0  0  0  0
  140.3280   70.6990  225.2390 C   0  0  0  0  0  0  0  0  0  0  0  0
  139.1680   70.0030  225.0770 C   0  0  0  0  0  0  0  0  0  0  0  0
  138.9530   68.9220  225.9220 C   0  0  0  0  0  0  0  0  0  0  0  0
  138.1390   70.3100  224.0840 C   0  0  0  0  0  0  0  0  0  0  0  0
  138.5330   71.2560  223.0080 C   0  0  0  0  0  0  0  0  0  0  0  0
  139.7980   71.9100  223.1820 N   0  0  0  0  0  0  0  0  0  0  0  0
  140.2920   72.6850  222.0820 C   0  0  0  0  0  0  0  0  0  0  0  0
  140.6610   72.1100  220.9240 N   0  0  0  0  0  0  0  0  0  0  0  0
  141.1340   72.7940  219.8560 C   0  0  0  0  0  0  0  0  0  0  0  0
  141.5100   72.1160  218.6550 N   0  0  0  0  0  0  0  0  0  0  0  0
  142.5950   71.1930  218.6650 C   0  0  2  0  0  0  0  0  0  0  0  0
  142.5810   70.2010  219.8020 C   0  0  0  0  0  0  0  0  0  0  0  0
  143.4160   69.0030  219.3210 C   0  0  0  0  0  0  0  0  0  0  0  0
  144.8350   69.4550  219.0470 C   0  0  0  0  0  0  0  0  0  0  0  0
  144.8730   70.6120  218.1040 C   0  0  0  0  0  0  0  0  0  0  0  0
  143.9620   71.7670  218.5440 C   0  0  2  0  0  0  0  0  0  0  0  0
  144.5330   72.2720  219.7680 N   0  0  0  0  0  0  0  0  0  0  0  0
  144.2410   73.6480  220.0520 C   0  0  0  0  0  0  0  0  0  0  0  0
  145.2980   74.0990  221.0520 C   0  0  0  0  0  0  0  0  0  0  0  0
  146.3360   73.0280  220.9880 C   0  0  0  0  0  0  0  0  0  0  0  0
  145.9610   72.2630  219.7250 C   0  0  0  0  0  0  0  0  0  0  0  0
  141.2270   74.1270  220.0010 N   0  0  0  0  0  0  0  0  0  0  0  0
  140.8720   74.7520  221.1370 C   0  0  0  0  0  0  0  0  0  0  0  0
  140.9790   76.1630  221.2650 N   0  0  0  0  0  0  0  0  0  0  0  0
  141.4050   76.9750  220.1290 C   0  0  0  0  0  0  0  0  0  0  0  0
  140.7380   78.3370  220.2830 C   0  0  0  0  0  0  0  0  0  0  0  0
  141.3120   78.9350  221.5140 C   0  0  0  0  0  0  0  0  0  0  0  0
  141.8590   80.1960  221.5210 C   0  0  0  0  0  0  0  0  0  0  0  0
  142.3770   80.6900  222.7120 C   0  0  0  0  0  0  0  0  0  0  0  0
  142.3310   79.9110  223.8420 C   0  0  0  0  0  0  0  0  0  0  0  0
  141.7850   78.6460  223.8410 C   0  0  0  0  0  0  0  0  0  0  0  0
  141.2650   78.1440  222.6610 C   0  0  0  0  0  0  0  0  0  0  0  0
  140.6570   76.8000  222.5450 C   0  0  0  0  0  0  0  0  0  0  0  0
  140.4150   74.0300  222.1480 N   0  0  0  0  0  0  0  0  0  0  0  0
  140.6050   71.8480  224.3740 C   0  0  0  0  0  0  0  0  0  0  0  0
  139.6644   67.6952  227.5414 H   0  0  0  0  0  0  0  0  0  0  0  0
  141.7764   69.0072  227.7973 H   0  0  0  0  0  0  0  0  0  0  0  0
  142.1848   70.9399  226.2964 H   0  0  0  0  0  0  0  0  0  0  0  0
  138.0260   68.3393  225.8168 H   0  0  0  0  0  0  0  0  0  0  0  0
  137.8384   69.3651  223.6078 H   0  0  0  0  0  0  0  0  0  0  0  0
  137.3322   70.8115  224.6386 H   0  0  0  0  0  0  0  0  0  0  0  0
  138.5708   70.6947  222.0627 H   0  0  0  0  0  0  0  0  0  0  0  0
  137.7788   72.0566  223.0241 H   0  0  0  0  0  0  0  0  0  0  0  0
  140.9690   72.3220  217.8100 H   0  0  0  0  0  0  0  0  0  0  0  0
  142.3858   70.6611  217.7251 H   0  0  0  0  0  0  0  0  0  0  0  0
  143.0302   70.6443  220.7030 H   0  0  0  0  0  0  0  0  0  0  0  0
  141.5561   69.9011  220.0658 H   0  0  0  0  0  0  0  0  0  0  0  0
  143.4226   68.2248  220.0984 H   0  0  0  0  0  0  0  0  0  0  0  0
  142.9761   68.5958  218.3987 H   0  0  0  0  0  0  0  0  0  0  0  0
  145.3039   69.7532  219.9963 H   0  0  0  0  0  0  0  0  0  0  0  0
  145.3787   68.6178  218.5850 H   0  0  0  0  0  0  0  0  0  0  0  0
  145.9069   70.9829  218.0439 H   0  0  0  0  0  0  0  0  0  0  0  0
  144.5102   70.2566  217.1283 H   0  0  0  0  0  0  0  0  0  0  0  0
  143.8861   72.6169  217.8498 H   0  0  0  0  0  0  0  0  0  0  0  0
  144.3014   74.2499  219.1333 H   0  0  0  0  0  0  0  0  0  0  0  0
  143.2246   73.7715  220.4541 H   0  0  0  0  0  0  0  0  0  0  0  0
  145.7214   75.0717  220.7614 H   0  0  0  0  0  0  0  0  0  0  0  0
  144.8917   74.2348  222.0652 H   0  0  0  0  0  0  0  0  0  0  0  0
  147.3445   73.4592  220.9044 H   0  0  0  0  0  0  0  0  0  0  0  0
  146.3617   72.3947  221.8871 H   0  0  0  0  0  0  0  0  0  0  0  0
  146.3345   72.7742  218.8254 H   0  0  0  0  0  0  0  0  0  0  0  0
  146.3912   71.2515  219.6820 H   0  0  0  0  0  0  0  0  0  0  0  0
  142.4993   77.0871  220.1334 H   0  0  0  0  0  0  0  0  0  0  0  0
  141.1192   76.5020  219.1779 H   0  0  0  0  0  0  0  0  0  0  0  0
  140.9576   78.9712  219.4114 H   0  0  0  0  0  0  0  0  0  0  0  0
  139.6440   78.2452  220.3513 H   0  0  0  0  0  0  0  0  0  0  0  0
  141.8861   80.8014  220.6030 H   0  0  0  0  0  0  0  0  0  0  0  0
  142.8200   81.6962  222.7494 H   0  0  0  0  0  0  0  0  0  0  0  0
  142.7441   80.3106  224.7799 H   0  0  0  0  0  0  0  0  0  0  0  0
  141.7628   78.0455  224.7623 H   0  0  0  0  0  0  0  0  0  0  0  0
  141.0343   76.1673  223.3619 H   0  0  0  0  0  0  0  0  0  0  0  0
  139.5645   76.9139  222.6037 H   0  0  0  0  0  0  0  0  0  0  0  0
  141.6615   71.8025  224.0710 H   0  0  0  0  0  0  0  0  0  0  0  0
  140.3627   72.7459  224.9614 H   0  0  0  0  0  0  0  0  0  0  0  0
  1  2  2  0
  2  3  1  0
  3  4  2  0
  4  5  1  0
  5  6  2  0
  5  7  1  0
  7  8  1  0
  8  9  1  0
  9 10  1  0
 10 11  2  0
 11 12  1  0
 12 13  1  0
 13 14  1  0
 14 15  1  0
 15 16  1  0
 16 17  1  0
 17 18  1  0
 18 19  1  0
 19 20  1  0
 20 21  1  0
 21 22  1  0
 22 23  1  0
 23 24  1  0
 12 25  2  0
 25 26  1  0
 26 27  1  0
 27 28  1  0
 28 29  1  0
 29 30  1  0
 30 31  2  0
 31 32  1  0
 32 33  2  0
 33 34  1  0
 34 35  2  0
 35 36  1  0
 26 37  2  0
  9 38  1  0
  6  1  1  0
 37 10  1  0
 38  4  1  0
 19 14  1  0
 24 20  1  0
 36 27  1  0
 35 30  1  0
  1 39  1  0
  2 40  1  0
  3 41  1  0
  6 42  1  0
  7 43  1  0
  7 44  1  0
  8 45  1  0
  8 46  1  0
 13 47  1  0
 14 48  1  6
 15 49  1  0
 15 50  1  0
 16 51  1  0
 16 52  1  0
 17 53  1  0
 17 54  1  0
 18 55  1  0
 18 56  1  0
 19 57  1  6
 21 58  1  0
 21 59  1  0
 22 60  1  0
 22 61  1  0
 23 62  1  0
 23 63  1  0
 24 64  1  0
 24 65  1  0
 28 66  1  0
 28 67  1  0
 29 68  1  0
 29 69  1  0
 31 70  1  0
 32 71  1  0
 33 72  1  0
 34 73  1  0
 36 74  1  0
 36 75  1  0
 38 76  1  0
 38 77  1  0
M  END
>  <smiles>  (34) 
c1ccc2c(c1)CCN(c1nc(N[C@@H]3CCCC[C@@H]3N3CCCC3)nc(N3CCc4ccccc4C3)n1)C2

>  <score_type>  (34) 
oracle

>  <origin>  (34) 
autodockgpu

>  <m_score__min__energy>  (34) 
-10.83

>  <m_primary>  (34) 
energy

>  <rmsd>  (34) 
7.832384927025151

>  <m_score__min__rmsd>  (34) 
7.832384927025151

>  <meeko>  (34) 
{"free_energy": -10.51, "intermolecular_energy": -12.0, "internal_energy": -1.95, "cluster_size": 24, "cluster_id": 1, "rank_in_cluster": 10}

>  <energy>  (34) 
-10.28

>  <cluster_rmsd>  (34) 
0.76

>  <cluster>  (34) 
2

$$$$

     RDKit          3D

 77 83  0  0  0  0  0  0  0  0999 V2000
  145.5000   67.8130  219.1290 C   0  0  0  0  0  0  0  0  0  0  0  0
  144.2100   67.3520  219.3420 C   0  0  0  0  0  0  0  0  0  0  0  0
  143.2110   68.2650  219.5820 C   0  0  0  0  0  0  0  0  0  0  0  0
  143.4900   69.6160  219.6100 C   0  0  0  0  0  0  0  0  0  0  0  0
  144.7490   70.0970  219.4040 C   0  0  0  0  0  0  0  0  0  0  0  0
  145.7510   69.1680  219.1620 C   0  0  0  0  0  0  0  0  0  0  0  0
  145.1170   71.5120  219.4190 C   0  0  0  0  0  0  0  0  0  0  0  0
  144.1060   72.4440  219.9830 C   0  0  0  0  0  0  0  0  0  0  0  0
  142.8160   71.8770  220.2560 N   0  0  0  0  0  0  0  0  0  0  0  0
  141.8780   72.6940  220.9660 C   0  0  0  0  0  0  0  0  0  0  0  0
  140.8690   72.1580  221.6750 N   0  0  0  0  0  0  0  0  0  0  0  0
  139.9560   72.8830  222.3620 C   0  0  0  0  0  0  0  0  0  0  0  0
  138.9070   72.2440  223.0930 N   0  0  0  0  0  0  0  0  0  0  0  0
  139.2030   71.1560  223.9630 C   0  0  2  0  0  0  0  0  0  0  0  0
  140.6650   70.9740  224.2880 C   0  0  0  0  0  0  0  0  0  0  0  0
  140.7050   70.2060  225.6190 C   0  0  0  0  0  0  0  0  0  0  0  0
  140.0450   68.8550  225.4410 C   0  0  0  0  0  0  0  0  0  0  0  0
  138.6670   68.9840  224.8800 C   0  0  0  0  0  0  0  0  0  0  0  0
  138.6230   69.8340  223.6030 C   0  0  2  0  0  0  0  0  0  0  0  0
  139.3540   69.0870  222.6100 N   0  0  0  0  0  0  0  0  0  0  0  0
  139.2690   69.6040  221.2740 C   0  0  0  0  0  0  0  0  0  0  0  0
  139.6550   68.4520  220.3570 C   0  0  0  0  0  0  0  0  0  0  0  0
  139.5860   67.2490  221.2380 C   0  0  0  0  0  0  0  0  0  0  0  0
  138.8360   67.7640  222.4600 C   0  0  0  0  0  0  0  0  0  0  0  0
  140.0990   74.2180  222.3070 N   0  0  0  0  0  0  0  0  0  0  0  0
  141.0890   74.8070  221.6140 C   0  0  0  0  0  0  0  0  0  0  0  0
  141.2190   76.2200  221.5730 N   0  0  0  0  0  0  0  0  0  0  0  0
  141.8470   76.8700  220.4260 C   0  0  0  0  0  0  0  0  0  0  0  0
  141.2080   78.2470  220.2920 C   0  0  0  0  0  0  0  0  0  0  0  0
  141.5970   78.9980  221.5120 C   0  0  0  0  0  0  0  0  0  0  0  0
  142.1750   80.2430  221.4440 C   0  0  0  0  0  0  0  0  0  0  0  0
  142.5130   80.8850  222.6280 C   0  0  0  0  0  0  0  0  0  0  0  0
  142.2620   80.2640  223.8270 C   0  0  0  0  0  0  0  0  0  0  0  0
  141.6830   79.0160  223.9020 C   0  0  0  0  0  0  0  0  0  0  0  0
  141.3420   78.3670  222.7280 C   0  0  0  0  0  0  0  0  0  0  0  0
  140.7180   77.0260  222.6900 C   0  0  0  0  0  0  0  0  0  0  0  0
  141.9530   74.0440  220.9610 N   0  0  0  0  0  0  0  0  0  0  0  0
  142.3950   70.5540  219.8700 C   0  0  0  0  0  0  0  0  0  0  0  0
  146.3172   67.1027  218.9351 H   0  0  0  0  0  0  0  0  0  0  0  0
  143.9898   66.2745  219.3193 H   0  0  0  0  0  0  0  0  0  0  0  0
  142.1819   67.9162  219.7530 H   0  0  0  0  0  0  0  0  0  0  0  0
  146.7777   69.5240  218.9912 H   0  0  0  0  0  0  0  0  0  0  0  0
  146.0368   71.6139  220.0136 H   0  0  0  0  0  0  0  0  0  0  0  0
  145.2281   71.7999  218.3632 H   0  0  0  0  0  0  0  0  0  0  0  0
  144.5053   72.8439  220.9268 H   0  0  0  0  0  0  0  0  0  0  0  0
  143.9387   73.2069  219.2084 H   0  0  0  0  0  0  0  0  0  0  0  0
  137.9570   72.6030  222.9620 H   0  0  0  0  0  0  0  0  0  0  0  0
  138.6775   71.5030  224.8649 H   0  0  0  0  0  0  0  0  0  0  0  0
  141.1643   70.3956  223.4967 H   0  0  0  0  0  0  0  0  0  0  0  0
  141.1869   71.9395  224.3615 H   0  0  0  0  0  0  0  0  0  0  0  0
  141.7507   70.0653  225.9301 H   0  0  0  0  0  0  0  0  0  0  0  0
  140.1676   70.7784  226.3894 H   0  0  0  0  0  0  0  0  0  0  0  0
  140.6540   68.2482  224.7548 H   0  0  0  0  0  0  0  0  0  0  0  0
  139.9701   68.3767  226.4287 H   0  0  0  0  0  0  0  0  0  0  0  0
  138.2869   67.9785  224.6464 H   0  0  0  0  0  0  0  0  0  0  0  0
  138.0472   69.4886  225.6358 H   0  0  0  0  0  0  0  0  0  0  0  0
  137.6241   70.0320  223.1872 H   0  0  0  0  0  0  0  0  0  0  0  0
  138.2438   69.9387  221.0575 H   0  0  0  0  0  0  0  0  0  0  0  0
  139.9301   70.4718  221.1334 H   0  0  0  0  0  0  0  0  0  0  0  0
  138.9467   68.3646  219.5200 H   0  0  0  0  0  0  0  0  0  0  0  0
  140.6477   68.5873  219.9029 H   0  0  0  0  0  0  0  0  0  0  0  0
  139.0338   66.4323  220.7500 H   0  0  0  0  0  0  0  0  0  0  0  0
  140.5742   66.8305  221.4796 H   0  0  0  0  0  0  0  0  0  0  0  0
  137.7507   67.7805  222.2818 H   0  0  0  0  0  0  0  0  0  0  0  0
  138.9731   67.1370  223.3534 H   0  0  0  0  0  0  0  0  0  0  0  0
  142.9295   76.9702  220.5940 H   0  0  0  0  0  0  0  0  0  0  0  0
  141.7019   76.2781  219.5102 H   0  0  0  0  0  0  0  0  0  0  0  0
  141.5839   78.7571  219.3929 H   0  0  0  0  0  0  0  0  0  0  0  0
  140.1147   78.1764  220.1933 H   0  0  0  0  0  0  0  0  0  0  0  0
  142.3659   80.7210  220.4719 H   0  0  0  0  0  0  0  0  0  0  0  0
  142.9775   81.8818  222.6058 H   0  0  0  0  0  0  0  0  0  0  0  0
  142.5325   80.7808  224.7596 H   0  0  0  0  0  0  0  0  0  0  0  0
  141.4951   78.5438  224.8776 H   0  0  0  0  0  0  0  0  0  0  0  0
  140.9399   76.5040  223.6325 H   0  0  0  0  0  0  0  0  0  0  0  0
  139.6344   77.1586  222.5548 H   0  0  0  0  0  0  0  0  0  0  0  0
  141.7751   70.1415  220.6797 H   0  0  0  0  0  0  0  0  0  0  0  0
  141.8488   70.6654  218.9217 H   0  0  0  0  0  0  0  0  0  0  0  0
  1  2  2  0
  2  3  1  0
  3  4  2  0
  4  5  1  0
  5  6  2  0
  5  7  1  0
  7  8  1  0
  8  9  1  0
  9 10  1  0
 10 11  2  0
 11 12  1  0
 12 13  1  0
 13 14  1  0
 14 15  1  0
 15 16  1  0
 16 17  1  0
 17 18  1  0
 18 19  1  0
 19 20  1  0
 20 21  1  0
 21 22  1  0
 22 23  1  0
 23 24  1  0
 12 25  2  0
 25 26  1  0
 26 27  1  0
 27 28  1  0
 28 29  1  0
 29 30  1  0
 30 31  2  0
 31 32  1  0
 32 33  2  0
 33 34  1  0
 34 35  2  0
 35 36  1  0
 26 37  2  0
  9 38  1  0
  6  1  1  0
 37 10  1  0
 38  4  1  0
 19 14  1  0
 24 20  1  0
 36 27  1  0
 35 30  1  0
  1 39  1  0
  2 40  1  0
  3 41  1  0
  6 42  1  0
  7 43  1  0
  7 44  1  0
  8 45  1  0
  8 46  1  0
 13 47  1  0
 14 48  1  1
 15 49  1  0
 15 50  1  0
 16 51  1  0
 16 52  1  0
 17 53  1  0
 17 54  1  0
 18 55  1  0
 18 56  1  0
 19 57  1  6
 21 58  1  0
 21 59  1  0
 22 60  1  0
 22 61  1  0
 23 62  1  0
 23 63  1  0
 24 64  1  0
 24 65  1  0
 28 66  1  0
 28 67  1  0
 29 68  1  0
 29 69  1  0
 31 70  1  0
 32 71  1  0
 33 72  1  0
 34 73  1  0
 36 74  1  0
 36 75  1  0
 38 76  1  0
 38 77  1  0
M  END
>  <smiles>  (35) 
c1ccc2c(c1)CCN(c1nc(N[C@@H]3CCCC[C@@H]3N3CCCC3)nc(N3CCc4ccccc4C3)n1)C2

>  <score_type>  (35) 
oracle

>  <origin>  (35) 
autodockgpu

>  <m_score__min__energy>  (35) 
-10.83

>  <m_primary>  (35) 
energy

>  <rmsd>  (35) 
10.078011409530735

>  <m_score__min__rmsd>  (35) 
10.078011409530735

>  <meeko>  (35) 
{"free_energy": -10.03, "intermolecular_energy": -11.52, "internal_energy": -2.21, "cluster_size": 25, "cluster_id": 2, "rank_in_cluster": 23}

>  <energy>  (35) 
-10.28

>  <cluster_rmsd>  (35) 
0.93

>  <cluster>  (35) 
2

$$$$

     RDKit          3D

 77 83  0  0  0  0  0  0  0  0999 V2000
  145.9660   68.1040  219.1880 C   0  0  0  0  0  0  0  0  0  0  0  0
  144.7220   67.5560  219.4590 C   0  0  0  0  0  0  0  0  0  0  0  0
  143.6580   68.4000  219.6720 C   0  0  0  0  0  0  0  0  0  0  0  0
  143.8290   69.7690  219.6150 C   0  0  0  0  0  0  0  0  0  0  0  0
  145.0410   70.3330  219.3510 C   0  0  0  0  0  0  0  0  0  0  0  0
  146.1090   69.4730  219.1370 C   0  0  0  0  0  0  0  0  0  0  0  0
  145.2950   71.7710  219.2750 C   0  0  0  0  0  0  0  0  0  0  0  0
  144.2250   72.6520  219.8100 C   0  0  0  0  0  0  0  0  0  0  0  0
  142.9900   72.0030  220.1470 N   0  0  0  0  0  0  0  0  0  0  0  0
  142.0040   72.7850  220.8320 C   0  0  0  0  0  0  0  0  0  0  0  0
  140.9760   72.2120  221.4820 N   0  0  0  0  0  0  0  0  0  0  0  0
  140.0180   72.9030  222.1430 C   0  0  0  0  0  0  0  0  0  0  0  0
  138.9500   72.2260  222.8100 N   0  0  0  0  0  0  0  0  0  0  0  0
  139.2300   71.3410  223.8900 C   0  0  2  0  0  0  0  0  0  0  0  0
  140.6940   71.1540  224.2030 C   0  0  0  0  0  0  0  0  0  0  0  0
  140.7530   70.6950  225.6680 C   0  0  0  0  0  0  0  0  0  0  0  0
  140.0220   69.3770  225.8140 C   0  0  0  0  0  0  0  0  0  0  0  0
  138.6300   69.4560  225.2810 C   0  0  0  0  0  0  0  0  0  0  0  0
  138.5730   70.0070  223.8490 C   0  0  2  0  0  0  0  0  0  0  0  0
  139.2250   69.0200  223.0240 N   0  0  0  0  0  0  0  0  0  0  0  0
  139.3940   69.3920  221.6490 C   0  0  0  0  0  0  0  0  0  0  0  0
  139.6160   68.0900  220.8900 C   0  0  0  0  0  0  0  0  0  0  0  0
  139.1970   67.0330  221.8560 C   0  0  0  0  0  0  0  0  0  0  0  0
  138.4520   67.8220  222.9260 C   0  0  0  0  0  0  0  0  0  0  0  0
  140.1360   74.2420  222.1260 N   0  0  0  0  0  0  0  0  0  0  0  0
  141.1440   74.8650  221.4920 C   0  0  0  0  0  0  0  0  0  0  0  0
  141.2470   76.2820  221.4900 N   0  0  0  0  0  0  0  0  0  0  0  0
  141.8380   76.9760  220.3500 C   0  0  0  0  0  0  0  0  0  0  0  0
  141.1710   78.3440  220.2690 C   0  0  0  0  0  0  0  0  0  0  0  0
  141.5710   79.0670  221.5020 C   0  0  0  0  0  0  0  0  0  0  0  0
  142.1250   80.3240  221.4590 C   0  0  0  0  0  0  0  0  0  0  0  0
  142.4750   80.9390  222.6550 C   0  0  0  0  0  0  0  0  0  0  0  0
  142.2610   80.2790  223.8400 C   0  0  0  0  0  0  0  0  0  0  0  0
  141.7060   79.0170  223.8900 C   0  0  0  0  0  0  0  0  0  0  0  0
  141.3540   78.3960  222.7040 C   0  0  0  0  0  0  0  0  0  0  0  0
  140.7540   77.0460  222.6400 C   0  0  0  0  0  0  0  0  0  0  0  0
  142.0520   74.1360  220.8620 N   0  0  0  0  0  0  0  0  0  0  0  0
  142.6680   70.6310  219.8480 C   0  0  0  0  0  0  0  0  0  0  0  0
  146.8333   67.4499  219.0148 H   0  0  0  0  0  0  0  0  0  0  0  0
  144.5885   66.4650  219.5029 H   0  0  0  0  0  0  0  0  0  0  0  0
  142.6640   67.9821  219.8892 H   0  0  0  0  0  0  0  0  0  0  0  0
  147.1002   69.8977  218.9200 H   0  0  0  0  0  0  0  0  0  0  0  0
  146.2160   71.9801  219.8390 H   0  0  0  0  0  0  0  0  0  0  0  0
  145.3607   72.0035  218.2019 H   0  0  0  0  0  0  0  0  0  0  0  0
  144.6104   73.1366  220.7192 H   0  0  0  0  0  0  0  0  0  0  0  0
  143.9816   73.3525  218.9976 H   0  0  0  0  0  0  0  0  0  0  0  0
  137.9980   72.4090  222.4790 H   0  0  0  0  0  0  0  0  0  0  0  0
  138.7601   71.9060  224.7085 H   0  0  0  0  0  0  0  0  0  0  0  0
  141.1321   70.3898  223.5441 H   0  0  0  0  0  0  0  0  0  0  0  0
  141.2635   72.0819  224.0460 H   0  0  0  0  0  0  0  0  0  0  0  0
  141.8029   70.5674  225.9702 H   0  0  0  0  0  0  0  0  0  0  0  0
  140.2763   71.4515  226.3087 H   0  0  0  0  0  0  0  0  0  0  0  0
  140.5719   68.6012  225.2612 H   0  0  0  0  0  0  0  0  0  0  0  0
  139.9658   69.1327  226.8851 H   0  0  0  0  0  0  0  0  0  0  0  0
  138.1933   68.4464  225.2870 H   0  0  0  0  0  0  0  0  0  0  0  0
  138.0669   70.1473  225.9252 H   0  0  0  0  0  0  0  0  0  0  0  0
  137.5683   70.1651  223.4300 H   0  0  0  0  0  0  0  0  0  0  0  0
  138.4937   69.9032  221.2772 H   0  0  0  0  0  0  0  0  0  0  0  0
  140.2380   70.0853  221.5184 H   0  0  0  0  0  0  0  0  0  0  0  0
  138.9970   68.0567  219.9813 H   0  0  0  0  0  0  0  0  0  0  0  0
  140.6563   67.9680  220.5539 H   0  0  0  0  0  0  0  0  0  0  0  0
  138.5356   66.2974  221.3748 H   0  0  0  0  0  0  0  0  0  0  0  0
  140.0411   66.4515  222.2552 H   0  0  0  0  0  0  0  0  0  0  0  0
  137.4202   68.0396  222.6128 H   0  0  0  0  0  0  0  0  0  0  0  0
  138.3566   67.2833  223.8803 H   0  0  0  0  0  0  0  0  0  0  0  0
  142.9218   77.0919  220.4983 H   0  0  0  0  0  0  0  0  0  0  0  0
  141.6843   76.4078  219.4208 H   0  0  0  0  0  0  0  0  0  0  0  0
  141.5188   78.8868  219.3777 H   0  0  0  0  0  0  0  0  0  0  0  0
  140.0774   78.2554  220.1904 H   0  0  0  0  0  0  0  0  0  0  0  0
  142.2880   80.8329  220.4975 H   0  0  0  0  0  0  0  0  0  0  0  0
  142.9194   81.9452  222.6525 H   0  0  0  0  0  0  0  0  0  0  0  0
  142.5417   80.7735  224.7816 H   0  0  0  0  0  0  0  0  0  0  0  0
  141.5461   78.5134  224.8548 H   0  0  0  0  0  0  0  0  0  0  0  0
  141.0046   76.5015  223.5624 H   0  0  0  0  0  0  0  0  0  0  0  0
  139.6656   77.1618  222.5307 H   0  0  0  0  0  0  0  0  0  0  0  0
  142.0997   70.2195  220.6952 H   0  0  0  0  0  0  0  0  0  0  0  0
  142.0950   70.6428  218.9091 H   0  0  0  0  0  0  0  0  0  0  0  0
  1  2  2  0
  2  3  1  0
  3  4  2  0
  4  5  1  0
  5  6  2  0
  5  7  1  0
  7  8  1  0
  8  9  1  0
  9 10  1  0
 10 11  2  0
 11 12  1  0
 12 13  1  0
 13 14  1  0
 14 15  1  0
 15 16  1  0
 16 17  1  0
 17 18  1  0
 18 19  1  0
 19 20  1  0
 20 21  1  0
 21 22  1  0
 22 23  1  0
 23 24  1  0
 12 25  2  0
 25 26  1  0
 26 27  1  0
 27 28  1  0
 28 29  1  0
 29 30  1  0
 30 31  2  0
 31 32  1  0
 32 33  2  0
 33 34  1  0
 34 35  2  0
 35 36  1  0
 26 37  2  0
  9 38  1  0
  6  1  1  0
 37 10  1  0
 38  4  1  0
 19 14  1  0
 24 20  1  0
 36 27  1  0
 35 30  1  0
  1 39  1  0
  2 40  1  0
  3 41  1  0
  6 42  1  0
  7 43  1  0
  7 44  1  0
  8 45  1  0
  8 46  1  0
 13 47  1  0
 14 48  1  1
 15 49  1  0
 15 50  1  0
 16 51  1  0
 16 52  1  0
 17 53  1  0
 17 54  1  0
 18 55  1  0
 18 56  1  0
 19 57  1  6
 21 58  1  0
 21 59  1  0
 22 60  1  0
 22 61  1  0
 23 62  1  0
 23 63  1  0
 24 64  1  0
 24 65  1  0
 28 66  1  0
 28 67  1  0
 29 68  1  0
 29 69  1  0
 31 70  1  0
 32 71  1  0
 33 72  1  0
 34 73  1  0
 36 74  1  0
 36 75  1  0
 38 76  1  0
 38 77  1  0
M  END
>  <smiles>  (36) 
c1ccc2c(c1)CCN(c1nc(N[C@@H]3CCCC[C@@H]3N3CCCC3)nc(N3CCc4ccccc4C3)n1)C2

>  <score_type>  (36) 
oracle

>  <origin>  (36) 
autodockgpu

>  <m_score__min__energy>  (36) 
-10.83

>  <m_primary>  (36) 
energy

>  <rmsd>  (36) 
10.078670255175732

>  <m_score__min__rmsd>  (36) 
10.078670255175732

>  <meeko>  (36) 
{"free_energy": -10.29, "intermolecular_energy": -11.78, "internal_energy": -2.0, "cluster_size": 25, "cluster_id": 2, "rank_in_cluster": 9}

>  <energy>  (36) 
-10.27

>  <cluster_rmsd>  (36) 
0.92

>  <cluster>  (36) 
2

$$$$

     RDKit          3D

 77 83  0  0  0  0  0  0  0  0999 V2000
  145.4820   67.8250  219.1060 C   0  0  0  0  0  0  0  0  0  0  0  0
  144.1970   67.3560  219.3290 C   0  0  0  0  0  0  0  0  0  0  0  0
  143.1940   68.2640  219.5750 C   0  0  0  0  0  0  0  0  0  0  0  0
  143.4650   69.6170  219.5980 C   0  0  0  0  0  0  0  0  0  0  0  0
  144.7200   70.1040  219.3830 C   0  0  0  0  0  0  0  0  0  0  0  0
  145.7260   69.1810  219.1360 C   0  0  0  0  0  0  0  0  0  0  0  0
  145.0800   71.5210  219.3930 C   0  0  0  0  0  0  0  0  0  0  0  0
  144.0670   72.4480  219.9630 C   0  0  0  0  0  0  0  0  0  0  0  0
  142.7830   71.8740  220.2450 N   0  0  0  0  0  0  0  0  0  0  0  0
  141.8450   72.6880  220.9600 C   0  0  0  0  0  0  0  0  0  0  0  0
  140.8390   72.1470  221.6690 N   0  0  0  0  0  0  0  0  0  0  0  0
  139.9260   72.8680  222.3610 C   0  0  0  0  0  0  0  0  0  0  0  0
  138.8790   72.2240  223.0920 N   0  0  0  0  0  0  0  0  0  0  0  0
  139.1860   71.1740  224.0040 C   0  0  2  0  0  0  0  0  0  0  0  0
  140.6560   70.9720  224.2780 C   0  0  0  0  0  0  0  0  0  0  0  0
  140.7340   70.2720  225.6430 C   0  0  0  0  0  0  0  0  0  0  0  0
  140.0360   68.9310  225.5620 C   0  0  0  0  0  0  0  0  0  0  0  0
  138.6390   69.0660  225.0530 C   0  0  0  0  0  0  0  0  0  0  0  0
  138.5610   69.8510  223.7360 C   0  0  2  0  0  0  0  0  0  0  0  0
  139.2320   69.0360  222.7530 N   0  0  0  0  0  0  0  0  0  0  0  0
  139.2810   69.5920  221.4320 C   0  0  0  0  0  0  0  0  0  0  0  0
  139.5520   68.4210  220.4980 C   0  0  0  0  0  0  0  0  0  0  0  0
  139.2810   67.2180  221.3380 C   0  0  0  0  0  0  0  0  0  0  0  0
  138.5490   67.7990  222.5420 C   0  0  0  0  0  0  0  0  0  0  0  0
  140.0670   74.2040  222.3110 N   0  0  0  0  0  0  0  0  0  0  0  0
  141.0540   74.7960  221.6180 C   0  0  0  0  0  0  0  0  0  0  0  0
  141.1820   76.2100  221.5820 N   0  0  0  0  0  0  0  0  0  0  0  0
  141.8100   76.8650  220.4390 C   0  0  0  0  0  0  0  0  0  0  0  0
  141.1690   78.2410  220.3090 C   0  0  0  0  0  0  0  0  0  0  0  0
  141.5550   78.9890  221.5320 C   0  0  0  0  0  0  0  0  0  0  0  0
  142.1310   80.2350  221.4690 C   0  0  0  0  0  0  0  0  0  0  0  0
  142.4650   80.8730  222.6560 C   0  0  0  0  0  0  0  0  0  0  0  0
  142.2140   80.2480  223.8530 C   0  0  0  0  0  0  0  0  0  0  0  0
  141.6370   78.9980  223.9220 C   0  0  0  0  0  0  0  0  0  0  0  0
  141.2990   78.3530  222.7450 C   0  0  0  0  0  0  0  0  0  0  0  0
  140.6770   77.0110  222.7020 C   0  0  0  0  0  0  0  0  0  0  0  0
  141.9180   74.0380  220.9610 N   0  0  0  0  0  0  0  0  0  0  0  0
  142.3670   70.5490  219.8640 C   0  0  0  0  0  0  0  0  0  0  0  0
  146.3019   67.1194  218.9063 H   0  0  0  0  0  0  0  0  0  0  0  0
  143.9834   66.2771  219.3096 H   0  0  0  0  0  0  0  0  0  0  0  0
  142.1684   67.9094  219.7547 H   0  0  0  0  0  0  0  0  0  0  0  0
  146.7496   69.5426  218.9587 H   0  0  0  0  0  0  0  0  0  0  0  0
  146.0034   71.6293  219.9809 H   0  0  0  0  0  0  0  0  0  0  0  0
  145.1822   71.8079  218.3360 H   0  0  0  0  0  0  0  0  0  0  0  0
  144.4702   72.8512  220.9037 H   0  0  0  0  0  0  0  0  0  0  0  0
  143.8900   73.2091  219.1888 H   0  0  0  0  0  0  0  0  0  0  0  0
  137.9220   72.5520  222.9290 H   0  0  0  0  0  0  0  0  0  0  0  0
  138.7071   71.5786  224.9078 H   0  0  0  0  0  0  0  0  0  0  0  0
  141.1082   70.3420  223.4979 H   0  0  0  0  0  0  0  0  0  0  0  0
  141.2027   71.9265  224.2803 H   0  0  0  0  0  0  0  0  0  0  0  0
  141.7883   70.1208  225.9180 H   0  0  0  0  0  0  0  0  0  0  0  0
  140.2429   70.8961  226.4041 H   0  0  0  0  0  0  0  0  0  0  0  0
  140.6010   68.2753  224.8831 H   0  0  0  0  0  0  0  0  0  0  0  0
  139.9923   68.5052  226.5753 H   0  0  0  0  0  0  0  0  0  0  0  0
  138.2260   68.0600  224.8879 H   0  0  0  0  0  0  0  0  0  0  0  0
  138.0635   69.6237  225.8065 H   0  0  0  0  0  0  0  0  0  0  0  0
  137.5505   70.0528  223.3511 H   0  0  0  0  0  0  0  0  0  0  0  0
  138.3215   70.0679  221.1810 H   0  0  0  0  0  0  0  0  0  0  0  0
  140.0586   70.3654  221.3472 H   0  0  0  0  0  0  0  0  0  0  0  0
  138.8786   68.4505  219.6287 H   0  0  0  0  0  0  0  0  0  0  0  0
  140.5742   68.4317  220.0917 H   0  0  0  0  0  0  0  0  0  0  0  0
  138.6485   66.4954  220.8015 H   0  0  0  0  0  0  0  0  0  0  0  0
  140.1920   66.6647  221.6099 H   0  0  0  0  0  0  0  0  0  0  0  0
  137.4851   67.9658  222.3177 H   0  0  0  0  0  0  0  0  0  0  0  0
  138.5582   67.1380  223.4212 H   0  0  0  0  0  0  0  0  0  0  0  0
  142.8920   76.9665  220.6089 H   0  0  0  0  0  0  0  0  0  0  0  0
  141.6671   76.2762  219.5209 H   0  0  0  0  0  0  0  0  0  0  0  0
  141.5451   78.7547  219.4120 H   0  0  0  0  0  0  0  0  0  0  0  0
  140.0760   78.1686  220.2089 H   0  0  0  0  0  0  0  0  0  0  0  0
  142.3233   80.7166  220.4989 H   0  0  0  0  0  0  0  0  0  0  0  0
  142.9270   81.8711  222.6379 H   0  0  0  0  0  0  0  0  0  0  0  0
  142.4824   80.7620  224.7877 H   0  0  0  0  0  0  0  0  0  0  0  0
  141.4485   78.5215  224.8954 H   0  0  0  0  0  0  0  0  0  0  0  0
  140.8984   76.4861  223.6430 H   0  0  0  0  0  0  0  0  0  0  0  0
  139.5932   77.1417  222.5664 H   0  0  0  0  0  0  0  0  0  0  0  0
  141.7549   70.1343  220.6785 H   0  0  0  0  0  0  0  0  0  0  0  0
  141.8138   70.6560  218.9193 H   0  0  0  0  0  0  0  0  0  0  0  0
  1  2  2  0
  2  3  1  0
  3  4  2  0
  4  5  1  0
  5  6  2  0
  5  7  1  0
  7  8  1  0
  8  9  1  0
  9 10  1  0
 10 11  2  0
 11 12  1  0
 12 13  1  0
 13 14  1  0
 14 15  1  0
 15 16  1  0
 16 17  1  0
 17 18  1  0
 18 19  1  0
 19 20  1  0
 20 21  1  0
 21 22  1  0
 22 23  1  0
 23 24  1  0
 12 25  2  0
 25 26  1  0
 26 27  1  0
 27 28  1  0
 28 29  1  0
 29 30  1  0
 30 31  2  0
 31 32  1  0
 32 33  2  0
 33 34  1  0
 34 35  2  0
 35 36  1  0
 26 37  2  0
  9 38  1  0
  6  1  1  0
 37 10  1  0
 38  4  1  0
 19 14  1  0
 24 20  1  0
 36 27  1  0
 35 30  1  0
  1 39  1  0
  2 40  1  0
  3 41  1  0
  6 42  1  0
  7 43  1  0
  7 44  1  0
  8 45  1  0
  8 46  1  0
 13 47  1  0
 14 48  1  1
 15 49  1  0
 15 50  1  0
 16 51  1  0
 16 52  1  0
 17 53  1  0
 17 54  1  0
 18 55  1  0
 18 56  1  0
 19 57  1  6
 21 58  1  0
 21 59  1  0
 22 60  1  0
 22 61  1  0
 23 62  1  0
 23 63  1  0
 24 64  1  0
 24 65  1  0
 28 66  1  0
 28 67  1  0
 29 68  1  0
 29 69  1  0
 31 70  1  0
 32 71  1  0
 33 72  1  0
 34 73  1  0
 36 74  1  0
 36 75  1  0
 38 76  1  0
 38 77  1  0
M  END
>  <smiles>  (37) 
c1ccc2c(c1)CCN(c1nc(N[C@@H]3CCCC[C@@H]3N3CCCC3)nc(N3CCc4ccccc4C3)n1)C2

>  <score_type>  (37) 
oracle

>  <origin>  (37) 
autodockgpu

>  <m_score__min__energy>  (37) 
-10.83

>  <m_primary>  (37) 
energy

>  <rmsd>  (37) 
10.077528072611166

>  <m_score__min__rmsd>  (37) 
10.077528072611166

>  <meeko>  (37) 
{"free_energy": -10.11, "intermolecular_energy": -11.6, "internal_energy": -2.13, "cluster_size": 25, "cluster_id": 2, "rank_in_cluster": 20}

>  <energy>  (37) 
-10.26

>  <cluster_rmsd>  (37) 
0.89

>  <cluster>  (37) 
2

$$$$

     RDKit          3D

 77 83  0  0  0  0  0  0  0  0999 V2000
  141.4690   80.9020  223.8460 C   0  0  0  0  0  0  0  0  0  0  0  0
  142.5820   80.4390  223.1620 C   0  0  0  0  0  0  0  0  0  0  0  0
  142.4700   79.2900  222.4150 C   0  0  0  0  0  0  0  0  0  0  0  0
  141.2700   78.6120  222.3500 C   0  0  0  0  0  0  0  0  0  0  0  0
  140.1610   79.0450  223.0130 C   0  0  0  0  0  0  0  0  0  0  0  0
  140.2820   80.2060  223.7640 C   0  0  0  0  0  0  0  0  0  0  0  0
  138.8590   78.3790  222.9900 C   0  0  0  0  0  0  0  0  0  0  0  0
  138.8430   76.9960  222.4470 C   0  0  0  0  0  0  0  0  0  0  0  0
  140.0580   76.5540  221.8240 N   0  0  0  0  0  0  0  0  0  0  0  0
  140.1400   75.1720  221.4550 C   0  0  0  0  0  0  0  0  0  0  0  0
  140.4150   74.7940  220.1940 N   0  0  0  0  0  0  0  0  0  0  0  0
  140.5020   73.5050  219.7910 C   0  0  0  0  0  0  0  0  0  0  0  0
  140.7960   73.1770  218.4310 N   0  0  0  0  0  0  0  0  0  0  0  0
  141.8170   73.8810  217.7300 C   0  0  2  0  0  0  0  0  0  0  0  0
  142.6260   73.0460  216.7690 C   0  0  0  0  0  0  0  0  0  0  0  0
  143.2060   74.0350  215.7440 C   0  0  0  0  0  0  0  0  0  0  0  0
  144.1060   75.0250  216.4520 C   0  0  0  0  0  0  0  0  0  0  0  0
  143.4030   75.6990  217.5840 C   0  0  0  0  0  0  0  0  0  0  0  0
  142.7450   74.7050  218.5510 C   0  0  2  0  0  0  0  0  0  0  0  0
  143.8290   73.9850  219.1710 N   0  0  0  0  0  0  0  0  0  0  0  0
  143.4480   72.7880  219.8620 C   0  0  0  0  0  0  0  0  0  0  0  0
  144.5890   72.4810  220.8230 C   0  0  0  0  0  0  0  0  0  0  0  0
  145.3840   73.7430  220.8550 C   0  0  0  0  0  0  0  0  0  0  0  0
  144.4470   74.7540  220.2050 C   0  0  0  0  0  0  0  0  0  0  0  0
  140.2950   72.5740  220.7390 N   0  0  0  0  0  0  0  0  0  0  0  0
  140.0170   72.8970  222.0140 C   0  0  0  0  0  0  0  0  0  0  0  0
  139.8040   71.8940  222.9960 N   0  0  0  0  0  0  0  0  0  0  0  0
  138.4890   71.2770  223.1450 C   0  0  0  0  0  0  0  0  0  0  0  0
  138.7210   69.8570  223.6490 C   0  0  0  0  0  0  0  0  0  0  0  0
  139.3160   69.9970  225.0020 C   0  0  0  0  0  0  0  0  0  0  0  0
  138.7940   69.3450  226.0940 C   0  0  0  0  0  0  0  0  0  0  0  0
  139.4050   69.5240  227.3290 C   0  0  0  0  0  0  0  0  0  0  0  0
  140.5050   70.3410  227.4260 C   0  0  0  0  0  0  0  0  0  0  0  0
  141.0320   70.9970  226.3340 C   0  0  0  0  0  0  0  0  0  0  0  0
  140.4320   70.8260  225.0990 C   0  0  0  0  0  0  0  0  0  0  0  0
  140.9120   71.4810  223.8620 C   0  0  0  0  0  0  0  0  0  0  0  0
  139.9450   74.1760  222.3480 N   0  0  0  0  0  0  0  0  0  0  0  0
  141.1960   77.3920  221.5430 C   0  0  0  0  0  0  0  0  0  0  0  0
  141.5325   81.8189  224.4503 H   0  0  0  0  0  0  0  0  0  0  0  0
  143.5377   80.9809  223.2158 H   0  0  0  0  0  0  0  0  0  0  0  0
  143.3432   78.9087  221.8653 H   0  0  0  0  0  0  0  0  0  0  0  0
  139.4043   80.5820  224.3102 H   0  0  0  0  0  0  0  0  0  0  0  0
  138.4834   78.3390  224.0231 H   0  0  0  0  0  0  0  0  0  0  0  0
  138.2348   78.9728  222.3060 H   0  0  0  0  0  0  0  0  0  0  0  0
  138.6212   76.3101  223.2779 H   0  0  0  0  0  0  0  0  0  0  0  0
  138.0833   76.9969  221.6515 H   0  0  0  0  0  0  0  0  0  0  0  0
  140.2490   72.4250  218.0010 H   0  0  0  0  0  0  0  0  0  0  0  0
  141.1906   74.5791  217.1553 H   0  0  0  0  0  0  0  0  0  0  0  0
  143.4363   72.5260  217.3011 H   0  0  0  0  0  0  0  0  0  0  0  0
  142.0102   72.2739  216.2845 H   0  0  0  0  0  0  0  0  0  0  0  0
  143.7881   73.4835  214.9910 H   0  0  0  0  0  0  0  0  0  0  0  0
  142.3848   74.5744  215.2494 H   0  0  0  0  0  0  0  0  0  0  0  0
  144.9839   74.4911  216.8448 H   0  0  0  0  0  0  0  0  0  0  0  0
  144.4054   75.7958  215.7266 H   0  0  0  0  0  0  0  0  0  0  0  0
  144.1340   76.3017  218.1429 H   0  0  0  0  0  0  0  0  0  0  0  0
  142.6044   76.3217  217.1545 H   0  0  0  0  0  0  0  0  0  0  0  0
  142.1441   75.1426  219.3618 H   0  0  0  0  0  0  0  0  0  0  0  0
  142.5122   72.9481  220.4175 H   0  0  0  0  0  0  0  0  0  0  0  0
  143.2727   71.9564  219.1637 H   0  0  0  0  0  0  0  0  0  0  0  0
  144.2025   72.2370  221.8235 H   0  0  0  0  0  0  0  0  0  0  0  0
  145.1860   71.6127  220.5074 H   0  0  0  0  0  0  0  0  0  0  0  0
  145.6236   74.0334  221.8886 H   0  0  0  0  0  0  0  0  0  0  0  0
  146.3535   73.6581  220.3424 H   0  0  0  0  0  0  0  0  0  0  0  0
  143.7016   75.1243  220.9242 H   0  0  0  0  0  0  0  0  0  0  0  0
  144.9617   75.6527  219.8342 H   0  0  0  0  0  0  0  0  0  0  0  0
  137.8859   71.8423  223.8708 H   0  0  0  0  0  0  0  0  0  0  0  0
  137.9458   71.2716  222.1885 H   0  0  0  0  0  0  0  0  0  0  0  0
  137.7680   69.3105  223.7049 H   0  0  0  0  0  0  0  0  0  0  0  0
  139.3810   69.2920  222.9743 H   0  0  0  0  0  0  0  0  0  0  0  0
  137.9119   68.6958  225.9922 H   0  0  0  0  0  0  0  0  0  0  0  0
  139.0112   69.0158  228.2215 H   0  0  0  0  0  0  0  0  0  0  0  0
  140.9815   70.4764  228.4082 H   0  0  0  0  0  0  0  0  0  0  0  0
  141.9141   71.6451  226.4426 H   0  0  0  0  0  0  0  0  0  0  0  0
  141.4998   72.3697  224.1354 H   0  0  0  0  0  0  0  0  0  0  0  0
  141.5249   70.7548  223.3079 H   0  0  0  0  0  0  0  0  0  0  0  0
  142.1079   76.8044  221.7253 H   0  0  0  0  0  0  0  0  0  0  0  0
  141.0930   77.7164  220.4970 H   0  0  0  0  0  0  0  0  0  0  0  0
  1  2  2  0
  2  3  1  0
  3  4  2  0
  4  5  1  0
  5  6  2  0
  5  7  1  0
  7  8  1  0
  8  9  1  0
  9 10  1  0
 10 11  2  0
 11 12  1  0
 12 13  1  0
 13 14  1  0
 14 15  1  0
 15 16  1  0
 16 17  1  0
 17 18  1  0
 18 19  1  0
 19 20  1  0
 20 21  1  0
 21 22  1  0
 22 23  1  0
 23 24  1  0
 12 25  2  0
 25 26  1  0
 26 27  1  0
 27 28  1  0
 28 29  1  0
 29 30  1  0
 30 31  2  0
 31 32  1  0
 32 33  2  0
 33 34  1  0
 34 35  2  0
 35 36  1  0
 26 37  2  0
  9 38  1  0
  6  1  1  0
 37 10  1  0
 38  4  1  0
 19 14  1  0
 24 20  1  0
 36 27  1  0
 35 30  1  0
  1 39  1  0
  2 40  1  0
  3 41  1  0
  6 42  1  0
  7 43  1  0
  7 44  1  0
  8 45  1  0
  8 46  1  0
 13 47  1  0
 14 48  1  6
 15 49  1  0
 15 50  1  0
 16 51  1  0
 16 52  1  0
 17 53  1  0
 17 54  1  0
 18 55  1  0
 18 56  1  0
 19 57  1  1
 21 58  1  0
 21 59  1  0
 22 60  1  0
 22 61  1  0
 23 62  1  0
 23 63  1  0
 24 64  1  0
 24 65  1  0
 28 66  1  0
 28 67  1  0
 29 68  1  0
 29 69  1  0
 31 70  1  0
 32 71  1  0
 33 72  1  0
 34 73  1  0
 36 74  1  0
 36 75  1  0
 38 76  1  0
 38 77  1  0
M  END
>  <smiles>  (38) 
c1ccc2c(c1)CCN(c1nc(N[C@@H]3CCCC[C@@H]3N3CCCC3)nc(N3CCc4ccccc4C3)n1)C2

>  <score_type>  (38) 
oracle

>  <origin>  (38) 
autodockgpu

>  <m_score__min__energy>  (38) 
-10.83

>  <m_primary>  (38) 
energy

>  <rmsd>  (38) 
6.324183309336814

>  <m_score__min__rmsd>  (38) 
6.324183309336814

>  <meeko>  (38) 
{"free_energy": -9.96, "intermolecular_energy": -11.46, "internal_energy": -1.99, "cluster_size": 24, "cluster_id": 1, "rank_in_cluster": 18}

>  <energy>  (38) 
-10.26

>  <cluster_rmsd>  (38) 
0.89

>  <cluster>  (38) 
2

$$$$

     RDKit          3D

 77 83  0  0  0  0  0  0  0  0999 V2000
  145.9920   68.0900  219.1790 C   0  0  0  0  0  0  0  0  0  0  0  0
  144.7540   67.5350  219.4640 C   0  0  0  0  0  0  0  0  0  0  0  0
  143.6850   68.3730  219.6790 C   0  0  0  0  0  0  0  0  0  0  0  0
  143.8450   69.7420  219.6100 C   0  0  0  0  0  0  0  0  0  0  0  0
  145.0510   70.3130  219.3310 C   0  0  0  0  0  0  0  0  0  0  0  0
  146.1240   69.4600  219.1170 C   0  0  0  0  0  0  0  0  0  0  0  0
  145.2940   71.7530  219.2430 C   0  0  0  0  0  0  0  0  0  0  0  0
  144.2210   72.6300  219.7790 C   0  0  0  0  0  0  0  0  0  0  0  0
  142.9940   71.9740  220.1310 N   0  0  0  0  0  0  0  0  0  0  0  0
  142.0080   72.7540  220.8180 C   0  0  0  0  0  0  0  0  0  0  0  0
  140.9790   72.1790  221.4650 N   0  0  0  0  0  0  0  0  0  0  0  0
  140.0200   72.8680  222.1270 C   0  0  0  0  0  0  0  0  0  0  0  0
  138.9520   72.1890  222.7910 N   0  0  0  0  0  0  0  0  0  0  0  0
  139.2280   71.3210  223.8860 C   0  0  2  0  0  0  0  0  0  0  0  0
  140.6910   71.1360  224.2040 C   0  0  0  0  0  0  0  0  0  0  0  0
  140.7460   70.7010  225.6770 C   0  0  0  0  0  0  0  0  0  0  0  0
  140.0130   69.3870  225.8420 C   0  0  0  0  0  0  0  0  0  0  0  0
  138.6220   69.4600  225.3050 C   0  0  0  0  0  0  0  0  0  0  0  0
  138.5690   69.9870  223.8640 C   0  0  2  0  0  0  0  0  0  0  0  0
  139.2210   68.9870  223.0560 N   0  0  0  0  0  0  0  0  0  0  0  0
  139.3770   69.3290  221.6720 C   0  0  0  0  0  0  0  0  0  0  0  0
  139.6010   68.0120  220.9410 C   0  0  0  0  0  0  0  0  0  0  0  0
  139.1970   66.9740  221.9340 C   0  0  0  0  0  0  0  0  0  0  0  0
  138.4550   67.7820  222.9910 C   0  0  0  0  0  0  0  0  0  0  0  0
  140.1390   74.2070  222.1150 N   0  0  0  0  0  0  0  0  0  0  0  0
  141.1480   74.8320  221.4840 C   0  0  0  0  0  0  0  0  0  0  0  0
  141.2510   76.2490  221.4870 N   0  0  0  0  0  0  0  0  0  0  0  0
  141.8220   76.9480  220.3400 C   0  0  0  0  0  0  0  0  0  0  0  0
  141.1540   78.3170  220.2770 C   0  0  0  0  0  0  0  0  0  0  0  0
  141.5770   79.0340  221.5070 C   0  0  0  0  0  0  0  0  0  0  0  0
  142.1300   80.2910  221.4590 C   0  0  0  0  0  0  0  0  0  0  0  0
  142.5010   80.8990  222.6520 C   0  0  0  0  0  0  0  0  0  0  0  0
  142.3070   80.2340  223.8370 C   0  0  0  0  0  0  0  0  0  0  0  0
  141.7540   78.9730  223.8910 C   0  0  0  0  0  0  0  0  0  0  0  0
  141.3800   78.3570  222.7090 C   0  0  0  0  0  0  0  0  0  0  0  0
  140.7780   77.0070  222.6490 C   0  0  0  0  0  0  0  0  0  0  0  0
  142.0560   74.1050  220.8530 N   0  0  0  0  0  0  0  0  0  0  0  0
  142.6800   70.5970  219.8450 C   0  0  0  0  0  0  0  0  0  0  0  0
  146.8628   67.4411  219.0036 H   0  0  0  0  0  0  0  0  0  0  0  0
  144.6289   66.4434  219.5172 H   0  0  0  0  0  0  0  0  0  0  0  0
  142.6959   67.9493  219.9075 H   0  0  0  0  0  0  0  0  0  0  0  0
  147.1106   69.8908  218.8909 H   0  0  0  0  0  0  0  0  0  0  0  0
  146.2172   71.9728  219.7992 H   0  0  0  0  0  0  0  0  0  0  0  0
  145.3509   71.9783  218.1678 H   0  0  0  0  0  0  0  0  0  0  0  0
  144.6094   73.1253  220.6811 H   0  0  0  0  0  0  0  0  0  0  0  0
  143.9657   73.3217  218.9627 H   0  0  0  0  0  0  0  0  0  0  0  0
  138.0020   72.3590  222.4470 H   0  0  0  0  0  0  0  0  0  0  0  0
  138.7576   71.8995  224.6948 H   0  0  0  0  0  0  0  0  0  0  0  0
  141.1284   70.3600  223.5586 H   0  0  0  0  0  0  0  0  0  0  0  0
  141.2632   72.0597  224.0323 H   0  0  0  0  0  0  0  0  0  0  0  0
  141.7950   70.5769  225.9839 H   0  0  0  0  0  0  0  0  0  0  0  0
  140.2692   71.4685  226.3044 H   0  0  0  0  0  0  0  0  0  0  0  0
  140.5628   68.6018  225.3024 H   0  0  0  0  0  0  0  0  0  0  0  0
  139.9544   69.1594  226.9166 H   0  0  0  0  0  0  0  0  0  0  0  0
  138.1831   68.4516  225.3271 H   0  0  0  0  0  0  0  0  0  0  0  0
  138.0590   70.1632  225.9364 H   0  0  0  0  0  0  0  0  0  0  0  0
  137.5654   70.1387  223.4399 H   0  0  0  0  0  0  0  0  0  0  0  0
  138.4708   69.8263  221.2960 H   0  0  0  0  0  0  0  0  0  0  0  0
  140.2156   70.0242  221.5192 H   0  0  0  0  0  0  0  0  0  0  0  0
  138.9747   67.9544  220.0386 H   0  0  0  0  0  0  0  0  0  0  0  0
  140.6393   67.8891  220.5991 H   0  0  0  0  0  0  0  0  0  0  0  0
  138.5372   66.2231  221.4749 H   0  0  0  0  0  0  0  0  0  0  0  0
  140.0481   66.4074  222.3396 H   0  0  0  0  0  0  0  0  0  0  0  0
  137.4195   67.9858  222.6808 H   0  0  0  0  0  0  0  0  0  0  0  0
  138.3701   67.2645  223.9580 H   0  0  0  0  0  0  0  0  0  0  0  0
  142.9083   77.0629  220.4697 H   0  0  0  0  0  0  0  0  0  0  0  0
  141.6517   76.3841  219.4110 H   0  0  0  0  0  0  0  0  0  0  0  0
  141.4861   78.8638  219.3822 H   0  0  0  0  0  0  0  0  0  0  0  0
  140.0591   78.2295  220.2172 H   0  0  0  0  0  0  0  0  0  0  0  0
  142.2758   80.8046  220.4973 H   0  0  0  0  0  0  0  0  0  0  0  0
  142.9464   81.9048  222.6469 H   0  0  0  0  0  0  0  0  0  0  0  0
  142.6032   80.7246  224.7759 H   0  0  0  0  0  0  0  0  0  0  0  0
  141.6122   78.4648  224.8562 H   0  0  0  0  0  0  0  0  0  0  0  0
  141.0442   76.4579  223.5642 H   0  0  0  0  0  0  0  0  0  0  0  0
  139.6879   77.1234  222.5594 H   0  0  0  0  0  0  0  0  0  0  0  0
  142.1211   70.1880  220.6996 H   0  0  0  0  0  0  0  0  0  0  0  0
  142.1001   70.5973  218.9103 H   0  0  0  0  0  0  0  0  0  0  0  0
  1  2  2  0
  2  3  1  0
  3  4  2  0
  4  5  1  0
  5  6  2  0
  5  7  1  0
  7  8  1  0
  8  9  1  0
  9 10  1  0
 10 11  2  0
 11 12  1  0
 12 13  1  0
 13 14  1  0
 14 15  1  0
 15 16  1  0
 16 17  1  0
 17 18  1  0
 18 19  1  0
 19 20  1  0
 20 21  1  0
 21 22  1  0
 22 23  1  0
 23 24  1  0
 12 25  2  0
 25 26  1  0
 26 27  1  0
 27 28  1  0
 28 29  1  0
 29 30  1  0
 30 31  2  0
 31 32  1  0
 32 33  2  0
 33 34  1  0
 34 35  2  0
 35 36  1  0
 26 37  2  0
  9 38  1  0
  6  1  1  0
 37 10  1  0
 38  4  1  0
 19 14  1  0
 24 20  1  0
 36 27  1  0
 35 30  1  0
  1 39  1  0
  2 40  1  0
  3 41  1  0
  6 42  1  0
  7 43  1  0
  7 44  1  0
  8 45  1  0
  8 46  1  0
 13 47  1  0
 14 48  1  1
 15 49  1  0
 15 50  1  0
 16 51  1  0
 16 52  1  0
 17 53  1  0
 17 54  1  0
 18 55  1  0
 18 56  1  0
 19 57  1  6
 21 58  1  0
 21 59  1  0
 22 60  1  0
 22 61  1  0
 23 62  1  0
 23 63  1  0
 24 64  1  0
 24 65  1  0
 28 66  1  0
 28 67  1  0
 29 68  1  0
 29 69  1  0
 31 70  1  0
 32 71  1  0
 33 72  1  0
 34 73  1  0
 36 74  1  0
 36 75  1  0
 38 76  1  0
 38 77  1  0
M  END
>  <smiles>  (39) 
c1ccc2c(c1)CCN(c1nc(N[C@@H]3CCCC[C@@H]3N3CCCC3)nc(N3CCc4ccccc4C3)n1)C2

>  <score_type>  (39) 
oracle

>  <origin>  (39) 
autodockgpu

>  <m_score__min__energy>  (39) 
-10.83

>  <m_primary>  (39) 
energy

>  <rmsd>  (39) 
10.116605872286

>  <m_score__min__rmsd>  (39) 
10.116605872286

>  <meeko>  (39) 
{"free_energy": -10.3, "intermolecular_energy": -11.79, "internal_energy": -2.0, "cluster_size": 25, "cluster_id": 2, "rank_in_cluster": 7}

>  <energy>  (39) 
-10.25

>  <cluster_rmsd>  (39) 
0.9

>  <cluster>  (39) 
2

$$$$

     RDKit          3D

 77 83  0  0  0  0  0  0  0  0999 V2000
  145.6240   67.9150  219.1030 C   0  0  0  0  0  0  0  0  0  0  0  0
  144.3540   67.4190  219.3540 C   0  0  0  0  0  0  0  0  0  0  0  0
  143.3320   68.3050  219.5990 C   0  0  0  0  0  0  0  0  0  0  0  0
  143.5690   69.6650  219.5920 C   0  0  0  0  0  0  0  0  0  0  0  0
  144.8070   70.1790  219.3480 C   0  0  0  0  0  0  0  0  0  0  0  0
  145.8320   69.2770  219.1030 C   0  0  0  0  0  0  0  0  0  0  0  0
  145.1310   71.6050  219.3250 C   0  0  0  0  0  0  0  0  0  0  0  0
  144.1030   72.5170  219.8930 C   0  0  0  0  0  0  0  0  0  0  0  0
  142.8380   71.9160  220.2060 N   0  0  0  0  0  0  0  0  0  0  0  0
  141.8910   72.7190  220.9200 C   0  0  0  0  0  0  0  0  0  0  0  0
  140.8850   72.1680  221.6210 N   0  0  0  0  0  0  0  0  0  0  0  0
  139.9630   72.8790  222.3110 C   0  0  0  0  0  0  0  0  0  0  0  0
  138.9180   72.2240  223.0340 N   0  0  0  0  0  0  0  0  0  0  0  0
  139.2350   71.2710  224.0430 C   0  0  2  0  0  0  0  0  0  0  0  0
  140.7090   71.0760  224.2990 C   0  0  0  0  0  0  0  0  0  0  0  0
  140.8140   70.5200  225.7280 C   0  0  0  0  0  0  0  0  0  0  0  0
  140.0970   69.1890  225.8060 C   0  0  0  0  0  0  0  0  0  0  0  0
  138.6890   69.2920  225.3200 C   0  0  0  0  0  0  0  0  0  0  0  0
  138.5860   69.9370  223.9310 C   0  0  2  0  0  0  0  0  0  0  0  0
  139.2200   69.0140  223.0220 N   0  0  0  0  0  0  0  0  0  0  0  0
  139.3110   69.4620  221.6630 C   0  0  0  0  0  0  0  0  0  0  0  0
  139.5260   68.2100  220.8240 C   0  0  0  0  0  0  0  0  0  0  0  0
  139.1820   67.0910  221.7510 C   0  0  0  0  0  0  0  0  0  0  0  0
  138.4730   67.8020  222.8970 C   0  0  0  0  0  0  0  0  0  0  0  0
  140.0940   74.2160  222.2690 N   0  0  0  0  0  0  0  0  0  0  0  0
  141.0810   74.8190  221.5830 C   0  0  0  0  0  0  0  0  0  0  0  0
  141.1980   76.2340  221.5550 N   0  0  0  0  0  0  0  0  0  0  0  0
  141.8260   76.8990  220.4160 C   0  0  0  0  0  0  0  0  0  0  0  0
  141.1750   78.2710  220.2900 C   0  0  0  0  0  0  0  0  0  0  0  0
  141.5510   79.0150  221.5180 C   0  0  0  0  0  0  0  0  0  0  0  0
  142.1180   80.2660  221.4630 C   0  0  0  0  0  0  0  0  0  0  0  0
  142.4430   80.9020  222.6550 C   0  0  0  0  0  0  0  0  0  0  0  0
  142.1920   80.2690  223.8480 C   0  0  0  0  0  0  0  0  0  0  0  0
  141.6240   79.0140  223.9090 C   0  0  0  0  0  0  0  0  0  0  0  0
  141.2950   78.3720  222.7280 C   0  0  0  0  0  0  0  0  0  0  0  0
  140.6830   77.0260  222.6760 C   0  0  0  0  0  0  0  0  0  0  0  0
  141.9530   74.0700  220.9270 N   0  0  0  0  0  0  0  0  0  0  0  0
  142.4510   70.5730  219.8570 C   0  0  0  0  0  0  0  0  0  0  0  0
  146.4589   67.2267  218.9054 H   0  0  0  0  0  0  0  0  0  0  0  0
  144.1673   66.3350  219.3571 H   0  0  0  0  0  0  0  0  0  0  0  0
  142.3188   67.9279  219.8019 H   0  0  0  0  0  0  0  0  0  0  0  0
  146.8430   69.6613  218.9023 H   0  0  0  0  0  0  0  0  0  0  0  0
  146.0602   71.7481  219.8961 H   0  0  0  0  0  0  0  0  0  0  0  0
  145.2101   71.8737  218.2612 H   0  0  0  0  0  0  0  0  0  0  0  0
  144.5098   72.9485  220.8194 H   0  0  0  0  0  0  0  0  0  0  0  0
  143.8949   73.2581  219.1073 H   0  0  0  0  0  0  0  0  0  0  0  0
  137.9530   72.4730  222.7940 H   0  0  0  0  0  0  0  0  0  0  0  0
  138.7854   71.7749  224.9113 H   0  0  0  0  0  0  0  0  0  0  0  0
  141.1322   70.3615  223.5776 H   0  0  0  0  0  0  0  0  0  0  0  0
  141.2679   72.0169  224.1878 H   0  0  0  0  0  0  0  0  0  0  0  0
  141.8732   70.3818  225.9907 H   0  0  0  0  0  0  0  0  0  0  0  0
  140.3509   71.2275  226.4315 H   0  0  0  0  0  0  0  0  0  0  0  0
  140.6356   68.4569  225.1863 H   0  0  0  0  0  0  0  0  0  0  0  0
  140.0744   68.8724  226.8592 H   0  0  0  0  0  0  0  0  0  0  0  0
  138.2591   68.2807  225.2709 H   0  0  0  0  0  0  0  0  0  0  0  0
  138.1408   69.9340  226.0253 H   0  0  0  0  0  0  0  0  0  0  0  0
  137.5681   70.1135  223.5532 H   0  0  0  0  0  0  0  0  0  0  0  0
  138.3812   69.9679  221.3639 H   0  0  0  0  0  0  0  0  0  0  0  0
  140.1310   70.1830  221.5297 H   0  0  0  0  0  0  0  0  0  0  0  0
  138.8628   68.2087  219.9464 H   0  0  0  0  0  0  0  0  0  0  0  0
  140.5505   68.1345  220.4307 H   0  0  0  0  0  0  0  0  0  0  0  0
  138.5154   66.3644  221.2636 H   0  0  0  0  0  0  0  0  0  0  0  0
  140.0589   66.5119  222.0761 H   0  0  0  0  0  0  0  0  0  0  0  0
  137.4217   68.0075  222.6470 H   0  0  0  0  0  0  0  0  0  0  0  0
  138.4395   67.2113  223.8243 H   0  0  0  0  0  0  0  0  0  0  0  0
  142.9067   77.0077  220.5902 H   0  0  0  0  0  0  0  0  0  0  0  0
  141.6911   76.3132  219.4948 H   0  0  0  0  0  0  0  0  0  0  0  0
  141.5507   78.7920  219.3970 H   0  0  0  0  0  0  0  0  0  0  0  0
  140.0829   78.1913  220.1850 H   0  0  0  0  0  0  0  0  0  0  0  0
  142.3104   80.7534  220.4958 H   0  0  0  0  0  0  0  0  0  0  0  0
  142.8973   81.9037  222.6433 H   0  0  0  0  0  0  0  0  0  0  0  0
  142.4529   80.7805  224.7863 H   0  0  0  0  0  0  0  0  0  0  0  0
  141.4357   78.5316  224.8795 H   0  0  0  0  0  0  0  0  0  0  0  0
  140.9042   76.4983  223.6155 H   0  0  0  0  0  0  0  0  0  0  0  0
  139.5989   77.1497  222.5362 H   0  0  0  0  0  0  0  0  0  0  0  0
  141.8624   70.1586  220.6887 H   0  0  0  0  0  0  0  0  0  0  0  0
  141.8809   70.6470  218.9192 H   0  0  0  0  0  0  0  0  0  0  0  0
  1  2  2  0
  2  3  1  0
  3  4  2  0
  4  5  1  0
  5  6  2  0
  5  7  1  0
  7  8  1  0
  8  9  1  0
  9 10  1  0
 10 11  2  0
 11 12  1  0
 12 13  1  0
 13 14  1  0
 14 15  1  0
 15 16  1  0
 16 17  1  0
 17 18  1  0
 18 19  1  0
 19 20  1  0
 20 21  1  0
 21 22  1  0
 22 23  1  0
 23 24  1  0
 12 25  2  0
 25 26  1  0
 26 27  1  0
 27 28  1  0
 28 29  1  0
 29 30  1  0
 30 31  2  0
 31 32  1  0
 32 33  2  0
 33 34  1  0
 34 35  2  0
 35 36  1  0
 26 37  2  0
  9 38  1  0
  6  1  1  0
 37 10  1  0
 38  4  1  0
 19 14  1  0
 24 20  1  0
 36 27  1  0
 35 30  1  0
  1 39  1  0
  2 40  1  0
  3 41  1  0
  6 42  1  0
  7 43  1  0
  7 44  1  0
  8 45  1  0
  8 46  1  0
 13 47  1  0
 14 48  1  1
 15 49  1  0
 15 50  1  0
 16 51  1  0
 16 52  1  0
 17 53  1  0
 17 54  1  0
 18 55  1  0
 18 56  1  0
 19 57  1  6
 21 58  1  0
 21 59  1  0
 22 60  1  0
 22 61  1  0
 23 62  1  0
 23 63  1  0
 24 64  1  0
 24 65  1  0
 28 66  1  0
 28 67  1  0
 29 68  1  0
 29 69  1  0
 31 70  1  0
 32 71  1  0
 33 72  1  0
 34 73  1  0
 36 74  1  0
 36 75  1  0
 38 76  1  0
 38 77  1  0
M  END
>  <smiles>  (40) 
c1ccc2c(c1)CCN(c1nc(N[C@@H]3CCCC[C@@H]3N3CCCC3)nc(N3CCc4ccccc4C3)n1)C2

>  <score_type>  (40) 
oracle

>  <origin>  (40) 
autodockgpu

>  <m_score__min__energy>  (40) 
-10.83

>  <m_primary>  (40) 
energy

>  <rmsd>  (40) 
10.11672686340645

>  <m_score__min__rmsd>  (40) 
10.11672686340645

>  <meeko>  (40) 
{"free_energy": -10.26, "intermolecular_energy": -11.75, "internal_energy": -2.07, "cluster_size": 25, "cluster_id": 2, "rank_in_cluster": 13}

>  <energy>  (40) 
-10.24

>  <cluster_rmsd>  (40) 
0.91

>  <cluster>  (40) 
2

$$$$

     RDKit          3D

 77 83  0  0  0  0  0  0  0  0999 V2000
  139.7350   68.4860  227.0910 C   0  0  0  0  0  0  0  0  0  0  0  0
  140.9450   69.1530  227.2020 C   0  0  0  0  0  0  0  0  0  0  0  0
  141.2140   70.1880  226.3370 C   0  0  0  0  0  0  0  0  0  0  0  0
  140.2930   70.5530  225.3760 C   0  0  0  0  0  0  0  0  0  0  0  0
  139.0960   69.9140  225.2450 C   0  0  0  0  0  0  0  0  0  0  0  0
  138.8330   68.8710  226.1230 C   0  0  0  0  0  0  0  0  0  0  0  0
  138.0740   70.2460  224.2530 C   0  0  0  0  0  0  0  0  0  0  0  0
  138.5060   71.1390  223.1460 C   0  0  0  0  0  0  0  0  0  0  0  0
  139.8050   71.7300  223.2890 N   0  0  0  0  0  0  0  0  0  0  0  0
  140.3270   72.4460  222.1630 C   0  0  0  0  0  0  0  0  0  0  0  0
  140.6820   71.8160  221.0290 N   0  0  0  0  0  0  0  0  0  0  0  0
  141.1810   72.4430  219.9390 C   0  0  0  0  0  0  0  0  0  0  0  0
  141.5390   71.7070  218.7670 N   0  0  0  0  0  0  0  0  0  0  0  0
  142.7960   71.0390  218.6980 C   0  0  2  0  0  0  0  0  0  0  0  0
  143.0690   70.0700  219.8220 C   0  0  0  0  0  0  0  0  0  0  0  0
  144.1090   69.0800  219.2750 C   0  0  0  0  0  0  0  0  0  0  0  0
  145.3770   69.8260  218.9180 C   0  0  0  0  0  0  0  0  0  0  0  0
  145.1050   70.9620  217.9890 C   0  0  0  0  0  0  0  0  0  0  0  0
  143.9970   71.8940  218.4980 C   0  0  2  0  0  0  0  0  0  0  0  0
  144.5220   72.5140  219.6890 N   0  0  0  0  0  0  0  0  0  0  0  0
  144.1850   73.8980  219.8550 C   0  0  0  0  0  0  0  0  0  0  0  0
  145.2030   74.4600  220.8380 C   0  0  0  0  0  0  0  0  0  0  0  0
  146.2720   73.4200  220.8850 C   0  0  0  0  0  0  0  0  0  0  0  0
  145.9510   72.5440  219.6800 C   0  0  0  0  0  0  0  0  0  0  0  0
  141.3160   73.7770  220.0330 N   0  0  0  0  0  0  0  0  0  0  0  0
  140.9770   74.4560  221.1420 C   0  0  0  0  0  0  0  0  0  0  0  0
  141.1280   75.8660  221.2160 N   0  0  0  0  0  0  0  0  0  0  0  0
  141.8230   76.5890  220.1550 C   0  0  0  0  0  0  0  0  0  0  0  0
  141.2110   77.9830  220.0950 C   0  0  0  0  0  0  0  0  0  0  0  0
  141.5470   78.6330  221.3870 C   0  0  0  0  0  0  0  0  0  0  0  0
  142.1450   79.8690  221.4430 C   0  0  0  0  0  0  0  0  0  0  0  0
  142.4290   80.4140  222.6890 C   0  0  0  0  0  0  0  0  0  0  0  0
  142.1090   79.7090  223.8230 C   0  0  0  0  0  0  0  0  0  0  0  0
  141.5090   78.4690  223.7730 C   0  0  0  0  0  0  0  0  0  0  0  0
  141.2210   77.9170  222.5370 C   0  0  0  0  0  0  0  0  0  0  0  0
  140.5810   76.5940  222.3650 C   0  0  0  0  0  0  0  0  0  0  0  0
  140.4940   73.7880  222.1780 N   0  0  0  0  0  0  0  0  0  0  0  0
  140.6200   71.6600  224.4760 C   0  0  0  0  0  0  0  0  0  0  0  0
  139.4964   67.6550  227.7710 H   0  0  0  0  0  0  0  0  0  0  0  0
  141.6774   68.8597  227.9685 H   0  0  0  0  0  0  0  0  0  0  0  0
  142.1693   70.7283  226.4116 H   0  0  0  0  0  0  0  0  0  0  0  0
  137.8753   68.3357  226.0434 H   0  0  0  0  0  0  0  0  0  0  0  0
  137.7193   69.3049  223.8073 H   0  0  0  0  0  0  0  0  0  0  0  0
  137.3003   70.8048  224.8000 H   0  0  0  0  0  0  0  0  0  0  0  0
  138.5042   70.5496  222.2172 H   0  0  0  0  0  0  0  0  0  0  0  0
  137.7952   71.9785  223.1459 H   0  0  0  0  0  0  0  0  0  0  0  0
  140.8600   71.6840  218.0000 H   0  0  0  0  0  0  0  0  0  0  0  0
  142.6461   70.4722  217.7673 H   0  0  0  0  0  0  0  0  0  0  0  0
  143.4693   70.6017  220.6978 H   0  0  0  0  0  0  0  0  0  0  0  0
  142.1519   69.5568  220.1470 H   0  0  0  0  0  0  0  0  0  0  0  0
  144.3324   68.3226  220.0407 H   0  0  0  0  0  0  0  0  0  0  0  0
  143.7087   68.5866  218.3770 H   0  0  0  0  0  0  0  0  0  0  0  0
  145.8307   70.2196  219.8395 H   0  0  0  0  0  0  0  0  0  0  0  0
  146.0573   69.1246  218.4127 H   0  0  0  0  0  0  0  0  0  0  0  0
  146.0288   71.5470  217.8691 H   0  0  0  0  0  0  0  0  0  0  0  0
  144.7658   70.5349  217.0338 H   0  0  0  0  0  0  0  0  0  0  0  0
  143.6960   72.7056  217.8192 H   0  0  0  0  0  0  0  0  0  0  0  0
  144.2508   74.4260  218.8923 H   0  0  0  0  0  0  0  0  0  0  0  0
  143.1561   74.0219  220.2239 H   0  0  0  0  0  0  0  0  0  0  0  0
  145.6056   75.4185  220.4787 H   0  0  0  0  0  0  0  0  0  0  0  0
  144.7678   74.6647  221.8273 H   0  0  0  0  0  0  0  0  0  0  0  0
  147.2695   73.8737  220.7895 H   0  0  0  0  0  0  0  0  0  0  0  0
  146.2931   72.8625  221.8330 H   0  0  0  0  0  0  0  0  0  0  0  0
  146.3331   72.9915  218.7506 H   0  0  0  0  0  0  0  0  0  0  0  0
  146.4102   71.5457  219.7298 H   0  0  0  0  0  0  0  0  0  0  0  0
  142.8967   76.6568  220.3841 H   0  0  0  0  0  0  0  0  0  0  0  0
  141.7170   76.0706  219.1906 H   0  0  0  0  0  0  0  0  0  0  0  0
  141.6396   78.5529  219.2575 H   0  0  0  0  0  0  0  0  0  0  0  0
  140.1233   77.9392  219.9367 H   0  0  0  0  0  0  0  0  0  0  0  0
  142.3935   80.4152  220.5211 H   0  0  0  0  0  0  0  0  0  0  0  0
  142.9062   81.4021  222.7664 H   0  0  0  0  0  0  0  0  0  0  0  0
  142.3392   80.1487  224.8047 H   0  0  0  0  0  0  0  0  0  0  0  0
  141.2636   77.9280  224.6988 H   0  0  0  0  0  0  0  0  0  0  0  0
  140.7465   75.9982  223.2748 H   0  0  0  0  0  0  0  0  0  0  0  0
  139.5078   76.7558  222.1859 H   0  0  0  0  0  0  0  0  0  0  0  0
  141.6696   71.5509  224.1654 H   0  0  0  0  0  0  0  0  0  0  0  0
  140.4302   72.5857  225.0391 H   0  0  0  0  0  0  0  0  0  0  0  0
  1  2  2  0
  2  3  1  0
  3  4  2  0
  4  5  1  0
  5  6  2  0
  5  7  1  0
  7  8  1  0
  8  9  1  0
  9 10  1  0
 10 11  2  0
 11 12  1  0
 12 13  1  0
 13 14  1  0
 14 15  1  0
 15 16  1  0
 16 17  1  0
 17 18  1  0
 18 19  1  0
 19 20  1  0
 20 21  1  0
 21 22  1  0
 22 23  1  0
 23 24  1  0
 12 25  2  0
 25 26  1  0
 26 27  1  0
 27 28  1  0
 28 29  1  0
 29 30  1  0
 30 31  2  0
 31 32  1  0
 32 33  2  0
 33 34  1  0
 34 35  2  0
 35 36  1  0
 26 37  2  0
  9 38  1  0
  6  1  1  0
 37 10  1  0
 38  4  1  0
 19 14  1  0
 24 20  1  0
 36 27  1  0
 35 30  1  0
  1 39  1  0
  2 40  1  0
  3 41  1  0
  6 42  1  0
  7 43  1  0
  7 44  1  0
  8 45  1  0
  8 46  1  0
 13 47  1  0
 14 48  1  6
 15 49  1  0
 15 50  1  0
 16 51  1  0
 16 52  1  0
 17 53  1  0
 17 54  1  0
 18 55  1  0
 18 56  1  0
 19 57  1  6
 21 58  1  0
 21 59  1  0
 22 60  1  0
 22 61  1  0
 23 62  1  0
 23 63  1  0
 24 64  1  0
 24 65  1  0
 28 66  1  0
 28 67  1  0
 29 68  1  0
 29 69  1  0
 31 70  1  0
 32 71  1  0
 33 72  1  0
 34 73  1  0
 36 74  1  0
 36 75  1  0
 38 76  1  0
 38 77  1  0
M  END
>  <smiles>  (41) 
c1ccc2c(c1)CCN(c1nc(N[C@@H]3CCCC[C@@H]3N3CCCC3)nc(N3CCc4ccccc4C3)n1)C2

>  <score_type>  (41) 
oracle

>  <origin>  (41) 
autodockgpu

>  <m_score__min__energy>  (41) 
-10.83

>  <m_primary>  (41) 
energy

>  <rmsd>  (41) 
7.843615499295657

>  <m_score__min__rmsd>  (41) 
7.843615499295657

>  <meeko>  (41) 
{"free_energy": -10.75, "intermolecular_energy": -12.24, "internal_energy": -1.84, "cluster_size": 24, "cluster_id": 1, "rank_in_cluster": 3}

>  <energy>  (41) 
-10.24

>  <cluster_rmsd>  (41) 
0.9

>  <cluster>  (41) 
2

$$$$

     RDKit          3D

 77 83  0  0  0  0  0  0  0  0999 V2000
  140.1160   68.9380  227.7150 C   0  0  0  0  0  0  0  0  0  0  0  0
  140.9920   69.9930  227.9170 C   0  0  0  0  0  0  0  0  0  0  0  0
  141.1240   70.9430  226.9330 C   0  0  0  0  0  0  0  0  0  0  0  0
  140.3950   70.8460  225.7650 C   0  0  0  0  0  0  0  0  0  0  0  0
  139.5260   69.8200  225.5410 C   0  0  0  0  0  0  0  0  0  0  0  0
  139.4000   68.8650  226.5400 C   0  0  0  0  0  0  0  0  0  0  0  0
  138.7220   69.6530  224.3310 C   0  0  0  0  0  0  0  0  0  0  0  0
  139.1060   70.4990  223.1710 C   0  0  0  0  0  0  0  0  0  0  0  0
  140.0800   71.5190  223.4350 N   0  0  0  0  0  0  0  0  0  0  0  0
  140.6070   72.2300  222.3080 C   0  0  0  0  0  0  0  0  0  0  0  0
  141.0720   71.5870  221.2230 N   0  0  0  0  0  0  0  0  0  0  0  0
  141.5800   72.2090  220.1340 C   0  0  0  0  0  0  0  0  0  0  0  0
  142.0590   71.4590  219.0150 N   0  0  0  0  0  0  0  0  0  0  0  0
  142.9830   72.0460  218.1030 C   0  0  2  0  0  0  0  0  0  0  0  0
  144.0940   71.1360  217.6410 C   0  0  0  0  0  0  0  0  0  0  0  0
  144.5750   71.7130  216.3000 C   0  0  0  0  0  0  0  0  0  0  0  0
  145.1120   73.1120  216.5170 C   0  0  0  0  0  0  0  0  0  0  0  0
  144.1150   73.9840  217.2050 C   0  0  0  0  0  0  0  0  0  0  0  0
  143.5670   73.3570  218.4950 C   0  0  2  0  0  0  0  0  0  0  0  0
  144.6850   73.2910  219.4040 N   0  0  0  0  0  0  0  0  0  0  0  0
  144.5710   72.3030  220.4370 C   0  0  0  0  0  0  0  0  0  0  0  0
  145.5500   72.7240  221.5250 C   0  0  0  0  0  0  0  0  0  0  0  0
  145.8930   74.1330  221.1760 C   0  0  0  0  0  0  0  0  0  0  0  0
  144.8290   74.5010  220.1490 C   0  0  0  0  0  0  0  0  0  0  0  0
  141.6060   73.5520  220.1770 N   0  0  0  0  0  0  0  0  0  0  0  0
  141.1540   74.2440  221.2370 C   0  0  0  0  0  0  0  0  0  0  0  0
  141.1910   75.6640  221.2580 N   0  0  0  0  0  0  0  0  0  0  0  0
  141.7890   76.4010  220.1500 C   0  0  0  0  0  0  0  0  0  0  0  0
  141.0620   77.7380  220.0640 C   0  0  0  0  0  0  0  0  0  0  0  0
  141.3850   78.4600  221.3210 C   0  0  0  0  0  0  0  0  0  0  0  0
  141.8810   79.7420  221.3140 C   0  0  0  0  0  0  0  0  0  0  0  0
  142.1600   80.3530  222.5300 C   0  0  0  0  0  0  0  0  0  0  0  0
  141.9350   79.6660  223.6980 C   0  0  0  0  0  0  0  0  0  0  0  0
  141.4390   78.3800  223.7110 C   0  0  0  0  0  0  0  0  0  0  0  0
  141.1570   77.7620  222.5050 C   0  0  0  0  0  0  0  0  0  0  0  0
  140.6230   76.3860  222.4010 C   0  0  0  0  0  0  0  0  0  0  0  0
  140.6670   73.5800  222.2740 N   0  0  0  0  0  0  0  0  0  0  0  0
  140.5650   71.8810  224.7430 C   0  0  0  0  0  0  0  0  0  0  0  0
  139.9932   68.1644  228.4873 H   0  0  0  0  0  0  0  0  0  0  0  0
  141.5715   70.0685  228.8489 H   0  0  0  0  0  0  0  0  0  0  0  0
  141.8153   71.7864  227.0771 H   0  0  0  0  0  0  0  0  0  0  0  0
  138.7073   68.0239  226.3892 H   0  0  0  0  0  0  0  0  0  0  0  0
  138.7974   68.6007  224.0195 H   0  0  0  0  0  0  0  0  0  0  0  0
  137.7049   69.9699  224.6050 H   0  0  0  0  0  0  0  0  0  0  0  0
  139.5129   69.8379  222.3917 H   0  0  0  0  0  0  0  0  0  0  0  0
  138.1902   71.0313  222.8744 H   0  0  0  0  0  0  0  0  0  0  0  0
  141.7130   70.5000  218.9080 H   0  0  0  0  0  0  0  0  0  0  0  0
  142.3039   72.2354  217.2587 H   0  0  0  0  0  0  0  0  0  0  0  0
  144.9151   71.1313  218.3730 H   0  0  0  0  0  0  0  0  0  0  0  0
  143.7495   70.0967  217.5352 H   0  0  0  0  0  0  0  0  0  0  0  0
  145.3710   71.0740  215.8901 H   0  0  0  0  0  0  0  0  0  0  0  0
  143.7333   71.7486  215.5927 H   0  0  0  0  0  0  0  0  0  0  0  0
  146.0208   73.0536  217.1340 H   0  0  0  0  0  0  0  0  0  0  0  0
  145.3320   73.5519  215.5331 H   0  0  0  0  0  0  0  0  0  0  0  0
  144.5981   74.9398  217.4563 H   0  0  0  0  0  0  0  0  0  0  0  0
  143.2672   74.1238  216.5183 H   0  0  0  0  0  0  0  0  0  0  0  0
  142.7693   73.9164  219.0057 H   0  0  0  0  0  0  0  0  0  0  0  0
  143.5451   72.2799  220.8331 H   0  0  0  0  0  0  0  0  0  0  0  0
  144.7956   71.2947  220.0589 H   0  0  0  0  0  0  0  0  0  0  0  0
  145.0784   72.6707  222.5173 H   0  0  0  0  0  0  0  0  0  0  0  0
  146.4349   72.0724  221.5736 H   0  0  0  0  0  0  0  0  0  0  0  0
  145.8318   74.7852  222.0597 H   0  0  0  0  0  0  0  0  0  0  0  0
  146.9192   74.2480  220.7970 H   0  0  0  0  0  0  0  0  0  0  0  0
  143.8845   74.7810  220.6384 H   0  0  0  0  0  0  0  0  0  0  0  0
  145.1005   75.3677  219.5284 H   0  0  0  0  0  0  0  0  0  0  0  0
  142.8603   76.5644  220.3388 H   0  0  0  0  0  0  0  0  0  0  0  0
  141.6953   75.8405  219.2081 H   0  0  0  0  0  0  0  0  0  0  0  0
  141.4149   78.3098  219.1931 H   0  0  0  0  0  0  0  0  0  0  0  0
  139.9771   77.6003  219.9453 H   0  0  0  0  0  0  0  0  0  0  0  0
  142.0533   80.2726  220.3660 H   0  0  0  0  0  0  0  0  0  0  0  0
  142.5577   81.3782  222.5573 H   0  0  0  0  0  0  0  0  0  0  0  0
  142.1583   80.1590  224.6557 H   0  0  0  0  0  0  0  0  0  0  0  0
  141.2703   77.8544  224.6625 H   0  0  0  0  0  0  0  0  0  0  0  0
  140.8668   75.8392  223.3238 H   0  0  0  0  0  0  0  0  0  0  0  0
  139.5347   76.4527  222.2554 H   0  0  0  0  0  0  0  0  0  0  0  0
  141.6381   72.1082  224.6601 H   0  0  0  0  0  0  0  0  0  0  0  0
  139.9651   72.7431  225.0700 H   0  0  0  0  0  0  0  0  0  0  0  0
  1  2  2  0
  2  3  1  0
  3  4  2  0
  4  5  1  0
  5  6  2  0
  5  7  1  0
  7  8  1  0
  8  9  1  0
  9 10  1  0
 10 11  2  0
 11 12  1  0
 12 13  1  0
 13 14  1  0
 14 15  1  0
 15 16  1  0
 16 17  1  0
 17 18  1  0
 18 19  1  0
 19 20  1  0
 20 21  1  0
 21 22  1  0
 22 23  1  0
 23 24  1  0
 12 25  2  0
 25 26  1  0
 26 27  1  0
 27 28  1  0
 28 29  1  0
 29 30  1  0
 30 31  2  0
 31 32  1  0
 32 33  2  0
 33 34  1  0
 34 35  2  0
 35 36  1  0
 26 37  2  0
  9 38  1  0
  6  1  1  0
 37 10  1  0
 38  4  1  0
 19 14  1  0
 24 20  1  0
 36 27  1  0
 35 30  1  0
  1 39  1  0
  2 40  1  0
  3 41  1  0
  6 42  1  0
  7 43  1  0
  7 44  1  0
  8 45  1  0
  8 46  1  0
 13 47  1  0
 14 48  1  6
 15 49  1  0
 15 50  1  0
 16 51  1  0
 16 52  1  0
 17 53  1  0
 17 54  1  0
 18 55  1  0
 18 56  1  0
 19 57  1  1
 21 58  1  0
 21 59  1  0
 22 60  1  0
 22 61  1  0
 23 62  1  0
 23 63  1  0
 24 64  1  0
 24 65  1  0
 28 66  1  0
 28 67  1  0
 29 68  1  0
 29 69  1  0
 31 70  1  0
 32 71  1  0
 33 72  1  0
 34 73  1  0
 36 74  1  0
 36 75  1  0
 38 76  1  0
 38 77  1  0
M  END
>  <smiles>  (42) 
c1ccc2c(c1)CCN(c1nc(N[C@@H]3CCCC[C@@H]3N3CCCC3)nc(N3CCc4ccccc4C3)n1)C2

>  <score_type>  (42) 
oracle

>  <origin>  (42) 
autodockgpu

>  <m_score__min__energy>  (42) 
-10.83

>  <m_primary>  (42) 
energy

>  <rmsd>  (42) 
7.371668143893205

>  <m_score__min__rmsd>  (42) 
7.371668143893205

>  <meeko>  (42) 
{"free_energy": -10.03, "intermolecular_energy": -11.52, "internal_energy": -1.69, "cluster_size": 24, "cluster_id": 1, "rank_in_cluster": 17}

>  <energy>  (42) 
-10.23

>  <cluster_rmsd>  (42) 
0.91

>  <cluster>  (42) 
2

$$$$

     RDKit          3D

 77 83  0  0  0  0  0  0  0  0999 V2000
  139.8880   68.6660  227.0530 C   0  0  0  0  0  0  0  0  0  0  0  0
  141.0590   69.3970  227.1740 C   0  0  0  0  0  0  0  0  0  0  0  0
  141.2810   70.4410  226.3070 C   0  0  0  0  0  0  0  0  0  0  0  0
  140.3520   70.7520  225.3350 C   0  0  0  0  0  0  0  0  0  0  0  0
  139.1930   70.0500  225.1940 C   0  0  0  0  0  0  0  0  0  0  0  0
  138.9770   68.9980  226.0740 C   0  0  0  0  0  0  0  0  0  0  0  0
  138.1650   70.3220  224.1900 C   0  0  0  0  0  0  0  0  0  0  0  0
  138.5600   71.2320  223.0830 C   0  0  0  0  0  0  0  0  0  0  0  0
  139.8240   71.8940  223.2370 N   0  0  0  0  0  0  0  0  0  0  0  0
  140.3190   72.6320  222.1130 C   0  0  0  0  0  0  0  0  0  0  0  0
  140.6540   72.0230  220.9620 N   0  0  0  0  0  0  0  0  0  0  0  0
  141.1270   72.6720  219.8720 C   0  0  0  0  0  0  0  0  0  0  0  0
  141.4650   71.9590  218.6800 N   0  0  0  0  0  0  0  0  0  0  0  0
  142.5970   71.0940  218.6610 C   0  0  2  0  0  0  0  0  0  0  0  0
  142.6690   70.1080  219.8010 C   0  0  0  0  0  0  0  0  0  0  0  0
  143.5520   68.9540  219.2980 C   0  0  0  0  0  0  0  0  0  0  0  0
  144.9360   69.4790  218.9830 C   0  0  0  0  0  0  0  0  0  0  0  0
  144.8860   70.6330  218.0370 C   0  0  0  0  0  0  0  0  0  0  0  0
  143.9280   71.7390  218.5000 C   0  0  2  0  0  0  0  0  0  0  0  0
  144.5060   72.2800  219.7050 N   0  0  0  0  0  0  0  0  0  0  0  0
  144.2440   73.6710  219.9350 C   0  0  0  0  0  0  0  0  0  0  0  0
  145.3070   74.1370  220.9210 C   0  0  0  0  0  0  0  0  0  0  0  0
  146.3210   73.0420  220.9030 C   0  0  0  0  0  0  0  0  0  0  0  0
  145.9330   72.2370  219.6690 C   0  0  0  0  0  0  0  0  0  0  0  0
  141.2560   74.0050  219.9870 N   0  0  0  0  0  0  0  0  0  0  0  0
  140.9360   74.6630  221.1140 C   0  0  0  0  0  0  0  0  0  0  0  0
  141.0810   76.0720  221.2100 N   0  0  0  0  0  0  0  0  0  0  0  0
  141.7120   76.8230  220.1280 C   0  0  0  0  0  0  0  0  0  0  0  0
  141.0880   78.2130  220.1300 C   0  0  0  0  0  0  0  0  0  0  0  0
  141.4880   78.8390  221.4150 C   0  0  0  0  0  0  0  0  0  0  0  0
  142.0790   80.0780  221.4650 C   0  0  0  0  0  0  0  0  0  0  0  0
  142.4260   80.6000  222.7050 C   0  0  0  0  0  0  0  0  0  0  0  0
  142.1720   79.8690  223.8400 C   0  0  0  0  0  0  0  0  0  0  0  0
  141.5800   78.6250  223.7960 C   0  0  0  0  0  0  0  0  0  0  0  0
  141.2300   78.0960  222.5660 C   0  0  0  0  0  0  0  0  0  0  0  0
  140.5910   76.7720  222.4010 C   0  0  0  0  0  0  0  0  0  0  0  0
  140.4780   73.9740  222.1480 N   0  0  0  0  0  0  0  0  0  0  0  0
  140.6290   71.8720  224.4320 C   0  0  0  0  0  0  0  0  0  0  0  0
  139.6870   67.8260  227.7342 H   0  0  0  0  0  0  0  0  0  0  0  0
  141.7977   69.1466  227.9497 H   0  0  0  0  0  0  0  0  0  0  0  0
  142.2051   71.0321  226.3887 H   0  0  0  0  0  0  0  0  0  0  0  0
  138.0504   68.4117  225.9870 H   0  0  0  0  0  0  0  0  0  0  0  0
  137.8661   69.3612  223.7455 H   0  0  0  0  0  0  0  0  0  0  0  0
  137.3566   70.8407  224.7262 H   0  0  0  0  0  0  0  0  0  0  0  0
  138.6006   70.6390  222.1574 H   0  0  0  0  0  0  0  0  0  0  0  0
  137.8046   72.0315  223.0707 H   0  0  0  0  0  0  0  0  0  0  0  0
  140.8630   72.0970  217.8630 H   0  0  0  0  0  0  0  0  0  0  0  0
  142.3885   70.5478  217.7292 H   0  0  0  0  0  0  0  0  0  0  0  0
  143.1205   70.5784  220.6869 H   0  0  0  0  0  0  0  0  0  0  0  0
  141.6698   69.7555  220.0966 H   0  0  0  0  0  0  0  0  0  0  0  0
  143.6218   68.1795  220.0760 H   0  0  0  0  0  0  0  0  0  0  0  0
  143.1080   68.5214  218.3893 H   0  0  0  0  0  0  0  0  0  0  0  0
  145.4152   69.8048  219.9180 H   0  0  0  0  0  0  0  0  0  0  0  0
  145.5099   68.6700  218.5075 H   0  0  0  0  0  0  0  0  0  0  0  0
  145.8966   71.0580  217.9470 H   0  0  0  0  0  0  0  0  0  0  0  0
  144.5154   70.2555  217.0726 H   0  0  0  0  0  0  0  0  0  0  0  0
  143.7870   72.5807  217.8060 H   0  0  0  0  0  0  0  0  0  0  0  0
  144.3206   74.2357  218.9941 H   0  0  0  0  0  0  0  0  0  0  0  0
  143.2293   73.8318  220.3282 H   0  0  0  0  0  0  0  0  0  0  0  0
  145.7529   75.0882  220.5947 H   0  0  0  0  0  0  0  0  0  0  0  0
  144.9004   74.3210  221.9264 H   0  0  0  0  0  0  0  0  0  0  0  0
  147.3391   73.4473  220.8068 H   0  0  0  0  0  0  0  0  0  0  0  0
  146.3299   72.4438  221.8261 H   0  0  0  0  0  0  0  0  0  0  0  0
  146.3213   72.7041  218.7519 H   0  0  0  0  0  0  0  0  0  0  0  0
  146.3400   71.2151  219.6675 H   0  0  0  0  0  0  0  0  0  0  0  0
  142.7961   76.8950  220.2999 H   0  0  0  0  0  0  0  0  0  0  0  0
  141.5570   76.3237  219.1602 H   0  0  0  0  0  0  0  0  0  0  0  0
  141.4671   78.8034  219.2828 H   0  0  0  0  0  0  0  0  0  0  0  0
  139.9937   78.1636  220.0292 H   0  0  0  0  0  0  0  0  0  0  0  0
  142.2735   80.6450  220.5427 H   0  0  0  0  0  0  0  0  0  0  0  0
  142.9000   81.5900  222.7772 H   0  0  0  0  0  0  0  0  0  0  0  0
  142.4505   80.2907  224.8170 H   0  0  0  0  0  0  0  0  0  0  0  0
  141.3892   78.0628  224.7220 H   0  0  0  0  0  0  0  0  0  0  0  0
  140.8088   76.1592  223.2882 H   0  0  0  0  0  0  0  0  0  0  0  0
  139.5087   76.9288  222.2825 H   0  0  0  0  0  0  0  0  0  0  0  0
  141.6860   71.8175  224.1324 H   0  0  0  0  0  0  0  0  0  0  0  0
  140.3843   72.7885  224.9889 H   0  0  0  0  0  0  0  0  0  0  0  0
  1  2  2  0
  2  3  1  0
  3  4  2  0
  4  5  1  0
  5  6  2  0
  5  7  1  0
  7  8  1  0
  8  9  1  0
  9 10  1  0
 10 11  2  0
 11 12  1  0
 12 13  1  0
 13 14  1  0
 14 15  1  0
 15 16  1  0
 16 17  1  0
 17 18  1  0
 18 19  1  0
 19 20  1  0
 20 21  1  0
 21 22  1  0
 22 23  1  0
 23 24  1  0
 12 25  2  0
 25 26  1  0
 26 27  1  0
 27 28  1  0
 28 29  1  0
 29 30  1  0
 30 31  2  0
 31 32  1  0
 32 33  2  0
 33 34  1  0
 34 35  2  0
 35 36  1  0
 26 37  2  0
  9 38  1  0
  6  1  1  0
 37 10  1  0
 38  4  1  0
 19 14  1  0
 24 20  1  0
 36 27  1  0
 35 30  1  0
  1 39  1  0
  2 40  1  0
  3 41  1  0
  6 42  1  0
  7 43  1  0
  7 44  1  0
  8 45  1  0
  8 46  1  0
 13 47  1  0
 14 48  1  6
 15 49  1  0
 15 50  1  0
 16 51  1  0
 16 52  1  0
 17 53  1  0
 17 54  1  0
 18 55  1  0
 18 56  1  0
 19 57  1  6
 21 58  1  0
 21 59  1  0
 22 60  1  0
 22 61  1  0
 23 62  1  0
 23 63  1  0
 24 64  1  0
 24 65  1  0
 28 66  1  0
 28 67  1  0
 29 68  1  0
 29 69  1  0
 31 70  1  0
 32 71  1  0
 33 72  1  0
 34 73  1  0
 36 74  1  0
 36 75  1  0
 38 76  1  0
 38 77  1  0
M  END
>  <smiles>  (43) 
c1ccc2c(c1)CCN(c1nc(N[C@@H]3CCCC[C@@H]3N3CCCC3)nc(N3CCc4ccccc4C3)n1)C2

>  <score_type>  (43) 
oracle

>  <origin>  (43) 
autodockgpu

>  <m_score__min__energy>  (43) 
-10.83

>  <m_primary>  (43) 
energy

>  <rmsd>  (43) 
7.881084044528397

>  <m_score__min__rmsd>  (43) 
7.881084044528397

>  <meeko>  (43) 
{"free_energy": -10.67, "intermolecular_energy": -12.16, "internal_energy": -1.94, "cluster_size": 24, "cluster_id": 1, "rank_in_cluster": 6}

>  <energy>  (43) 
-10.23

>  <cluster_rmsd>  (43) 
0.92

>  <cluster>  (43) 
2

$$$$

     RDKit          3D

 77 83  0  0  0  0  0  0  0  0999 V2000
  145.4510   67.7880  219.0970 C   0  0  0  0  0  0  0  0  0  0  0  0
  144.1560   67.3380  219.2960 C   0  0  0  0  0  0  0  0  0  0  0  0
  143.1640   68.2600  219.5380 C   0  0  0  0  0  0  0  0  0  0  0  0
  143.4570   69.6080  219.5810 C   0  0  0  0  0  0  0  0  0  0  0  0
  144.7220   70.0770  219.3880 C   0  0  0  0  0  0  0  0  0  0  0  0
  145.7160   69.1400  219.1450 C   0  0  0  0  0  0  0  0  0  0  0  0
  145.1050   71.4880  219.4190 C   0  0  0  0  0  0  0  0  0  0  0  0
  144.0990   72.4250  219.9840 C   0  0  0  0  0  0  0  0  0  0  0  0
  142.8010   71.8690  220.2420 N   0  0  0  0  0  0  0  0  0  0  0  0
  141.8670   72.6890  220.9540 C   0  0  0  0  0  0  0  0  0  0  0  0
  140.8580   72.1560  221.6640 N   0  0  0  0  0  0  0  0  0  0  0  0
  139.9470   72.8840  222.3520 C   0  0  0  0  0  0  0  0  0  0  0  0
  138.8980   72.2480  223.0850 N   0  0  0  0  0  0  0  0  0  0  0  0
  139.1920   71.1620  223.9580 C   0  0  2  0  0  0  0  0  0  0  0  0
  140.6550   70.9760  224.2790 C   0  0  0  0  0  0  0  0  0  0  0  0
  140.6950   70.2120  225.6120 C   0  0  0  0  0  0  0  0  0  0  0  0
  140.0300   68.8630  225.4400 C   0  0  0  0  0  0  0  0  0  0  0  0
  138.6510   68.9950  224.8820 C   0  0  0  0  0  0  0  0  0  0  0  0
  138.6070   69.8420  223.6020 C   0  0  2  0  0  0  0  0  0  0  0  0
  139.3320   69.0890  222.6090 N   0  0  0  0  0  0  0  0  0  0  0  0
  139.2520   69.6060  221.2740 C   0  0  0  0  0  0  0  0  0  0  0  0
  139.6290   68.4510  220.3570 C   0  0  0  0  0  0  0  0  0  0  0  0
  139.5510   67.2490  221.2380 C   0  0  0  0  0  0  0  0  0  0  0  0
  138.8040   67.7690  222.4600 C   0  0  0  0  0  0  0  0  0  0  0  0
  140.0950   74.2190  222.2970 N   0  0  0  0  0  0  0  0  0  0  0  0
  141.0850   74.8040  221.6020 C   0  0  0  0  0  0  0  0  0  0  0  0
  141.2190   76.2170  221.5600 N   0  0  0  0  0  0  0  0  0  0  0  0
  141.8590   76.8630  220.4180 C   0  0  0  0  0  0  0  0  0  0  0  0
  141.2250   78.2420  220.2760 C   0  0  0  0  0  0  0  0  0  0  0  0
  141.6050   78.9940  221.4990 C   0  0  0  0  0  0  0  0  0  0  0  0
  142.1870   80.2370  221.4340 C   0  0  0  0  0  0  0  0  0  0  0  0
  142.5150   80.8800  222.6210 C   0  0  0  0  0  0  0  0  0  0  0  0
  142.2520   80.2620  223.8190 C   0  0  0  0  0  0  0  0  0  0  0  0
  141.6680   79.0150  223.8900 C   0  0  0  0  0  0  0  0  0  0  0  0
  141.3370   78.3650  222.7130 C   0  0  0  0  0  0  0  0  0  0  0  0
  140.7100   77.0260  222.6720 C   0  0  0  0  0  0  0  0  0  0  0  0
  141.9460   74.0390  220.9490 N   0  0  0  0  0  0  0  0  0  0  0  0
  142.3700   70.5540  219.8410 C   0  0  0  0  0  0  0  0  0  0  0  0
  146.2624   67.0713  218.9020 H   0  0  0  0  0  0  0  0  0  0  0  0
  143.9251   66.2631  219.2612 H   0  0  0  0  0  0  0  0  0  0  0  0
  142.1301   67.9204  219.6983 H   0  0  0  0  0  0  0  0  0  0  0  0
  146.7477   69.4868  218.9857 H   0  0  0  0  0  0  0  0  0  0  0  0
  146.0211   71.5747  220.0217 H   0  0  0  0  0  0  0  0  0  0  0  0
  145.2278   71.7846  218.3669 H   0  0  0  0  0  0  0  0  0  0  0  0
  144.4951   72.8120  220.9344 H   0  0  0  0  0  0  0  0  0  0  0  0
  143.9453   73.1965  219.2151 H   0  0  0  0  0  0  0  0  0  0  0  0
  137.9480   72.6090  222.9530 H   0  0  0  0  0  0  0  0  0  0  0  0
  138.6705   71.5124  224.8609 H   0  0  0  0  0  0  0  0  0  0  0  0
  141.1500   70.3934  223.4881 H   0  0  0  0  0  0  0  0  0  0  0  0
  141.1811   71.9396  224.3477 H   0  0  0  0  0  0  0  0  0  0  0  0
  141.7408   70.0686  225.9213 H   0  0  0  0  0  0  0  0  0  0  0  0
  140.1611   70.7888  226.3816 H   0  0  0  0  0  0  0  0  0  0  0  0
  140.6352   68.2519  224.7543 H   0  0  0  0  0  0  0  0  0  0  0  0
  139.9559   68.3882  226.4295 H   0  0  0  0  0  0  0  0  0  0  0  0
  138.2669   67.9902  224.6522 H   0  0  0  0  0  0  0  0  0  0  0  0
  138.0346   69.5037  225.6378 H   0  0  0  0  0  0  0  0  0  0  0  0
  137.6083   70.0431  223.1871 H   0  0  0  0  0  0  0  0  0  0  0  0
  138.2296   69.9490  221.0570 H   0  0  0  0  0  0  0  0  0  0  0  0
  139.9204   70.4683  221.1337 H   0  0  0  0  0  0  0  0  0  0  0  0
  138.9198   68.3689  219.5201 H   0  0  0  0  0  0  0  0  0  0  0  0
  140.6226   68.5786  219.9026 H   0  0  0  0  0  0  0  0  0  0  0  0
  138.9933   66.4362  220.7498 H   0  0  0  0  0  0  0  0  0  0  0  0
  140.5362   66.8238  221.4801 H   0  0  0  0  0  0  0  0  0  0  0  0
  137.7188   67.7930  222.2817 H   0  0  0  0  0  0  0  0  0  0  0  0
  138.9359   67.1413  223.3536 H   0  0  0  0  0  0  0  0  0  0  0  0
  142.9402   76.9603  220.5956 H   0  0  0  0  0  0  0  0  0  0  0  0
  141.7205   76.2700  219.5019 H   0  0  0  0  0  0  0  0  0  0  0  0
  141.6107   78.7497  219.3796 H   0  0  0  0  0  0  0  0  0  0  0  0
  140.1325   78.1744  220.1673 H   0  0  0  0  0  0  0  0  0  0  0  0
  142.3889   80.7127  220.4630 H   0  0  0  0  0  0  0  0  0  0  0  0
  142.9815   81.8760  222.6015 H   0  0  0  0  0  0  0  0  0  0  0  0
  142.5161   80.7792  224.7532 H   0  0  0  0  0  0  0  0  0  0  0  0
  141.4686   78.5449  224.8643 H   0  0  0  0  0  0  0  0  0  0  0  0
  140.9225   76.5049  223.6171 H   0  0  0  0  0  0  0  0  0  0  0  0
  139.6279   77.1609  222.5277 H   0  0  0  0  0  0  0  0  0  0  0  0
  141.7399   70.1405  220.6423 H   0  0  0  0  0  0  0  0  0  0  0  0
  141.8322   70.6793  218.8896 H   0  0  0  0  0  0  0  0  0  0  0  0
  1  2  2  0
  2  3  1  0
  3  4  2  0
  4  5  1  0
  5  6  2  0
  5  7  1  0
  7  8  1  0
  8  9  1  0
  9 10  1  0
 10 11  2  0
 11 12  1  0
 12 13  1  0
 13 14  1  0
 14 15  1  0
 15 16  1  0
 16 17  1  0
 17 18  1  0
 18 19  1  0
 19 20  1  0
 20 21  1  0
 21 22  1  0
 22 23  1  0
 23 24  1  0
 12 25  2  0
 25 26  1  0
 26 27  1  0
 27 28  1  0
 28 29  1  0
 29 30  1  0
 30 31  2  0
 31 32  1  0
 32 33  2  0
 33 34  1  0
 34 35  2  0
 35 36  1  0
 26 37  2  0
  9 38  1  0
  6  1  1  0
 37 10  1  0
 38  4  1  0
 19 14  1  0
 24 20  1  0
 36 27  1  0
 35 30  1  0
  1 39  1  0
  2 40  1  0
  3 41  1  0
  6 42  1  0
  7 43  1  0
  7 44  1  0
  8 45  1  0
  8 46  1  0
 13 47  1  0
 14 48  1  1
 15 49  1  0
 15 50  1  0
 16 51  1  0
 16 52  1  0
 17 53  1  0
 17 54  1  0
 18 55  1  0
 18 56  1  0
 19 57  1  6
 21 58  1  0
 21 59  1  0
 22 60  1  0
 22 61  1  0
 23 62  1  0
 23 63  1  0
 24 64  1  0
 24 65  1  0
 28 66  1  0
 28 67  1  0
 29 68  1  0
 29 69  1  0
 31 70  1  0
 32 71  1  0
 33 72  1  0
 34 73  1  0
 36 74  1  0
 36 75  1  0
 38 76  1  0
 38 77  1  0
M  END
>  <smiles>  (44) 
c1ccc2c(c1)CCN(c1nc(N[C@@H]3CCCC[C@@H]3N3CCCC3)nc(N3CCc4ccccc4C3)n1)C2

>  <score_type>  (44) 
oracle

>  <origin>  (44) 
autodockgpu

>  <m_score__min__energy>  (44) 
-10.83

>  <m_primary>  (44) 
energy

>  <rmsd>  (44) 
10.074268671782775

>  <m_score__min__rmsd>  (44) 
10.074268671782775

>  <meeko>  (44) 
{"free_energy": -10.04, "intermolecular_energy": -11.53, "internal_energy": -2.21, "cluster_size": 25, "cluster_id": 2, "rank_in_cluster": 22}

>  <energy>  (44) 
-10.11

>  <cluster_rmsd>  (44) 
0.95

>  <cluster>  (44) 
2

$$$$

     RDKit          3D

 77 83  0  0  0  0  0  0  0  0999 V2000
  145.9090   68.0490  219.1810 C   0  0  0  0  0  0  0  0  0  0  0  0
  144.6600   67.5140  219.4550 C   0  0  0  0  0  0  0  0  0  0  0  0
  143.6050   68.3690  219.6730 C   0  0  0  0  0  0  0  0  0  0  0  0
  143.7900   69.7360  219.6190 C   0  0  0  0  0  0  0  0  0  0  0  0
  145.0070   70.2880  219.3510 C   0  0  0  0  0  0  0  0  0  0  0  0
  146.0660   69.4180  219.1320 C   0  0  0  0  0  0  0  0  0  0  0  0
  145.2760   71.7240  219.2770 C   0  0  0  0  0  0  0  0  0  0  0  0
  144.2170   72.6150  219.8180 C   0  0  0  0  0  0  0  0  0  0  0  0
  142.9770   71.9780  220.1580 N   0  0  0  0  0  0  0  0  0  0  0  0
  142.0020   72.7680  220.8480 C   0  0  0  0  0  0  0  0  0  0  0  0
  140.9740   72.2050  221.5070 N   0  0  0  0  0  0  0  0  0  0  0  0
  140.0250   72.9040  222.1730 C   0  0  0  0  0  0  0  0  0  0  0  0
  138.9580   72.2360  222.8490 N   0  0  0  0  0  0  0  0  0  0  0  0
  139.2400   71.3310  223.9120 C   0  0  2  0  0  0  0  0  0  0  0  0
  140.7050   71.1400  224.2180 C   0  0  0  0  0  0  0  0  0  0  0  0
  140.7670   70.6540  225.6750 C   0  0  0  0  0  0  0  0  0  0  0  0
  140.0370   69.3330  225.7970 C   0  0  0  0  0  0  0  0  0  0  0  0
  138.6440   69.4210  225.2680 C   0  0  0  0  0  0  0  0  0  0  0  0
  138.5850   69.9980  223.8460 C   0  0  2  0  0  0  0  0  0  0  0  0
  139.2360   69.0270  223.0020 N   0  0  0  0  0  0  0  0  0  0  0  0
  139.4110   69.4290  221.6360 C   0  0  0  0  0  0  0  0  0  0  0  0
  139.6300   68.1430  220.8500 C   0  0  0  0  0  0  0  0  0  0  0  0
  139.2060   67.0660  221.7910 C   0  0  0  0  0  0  0  0  0  0  0  0
  138.4600   67.8350  222.8760 C   0  0  0  0  0  0  0  0  0  0  0  0
  140.1530   74.2420  222.1520 N   0  0  0  0  0  0  0  0  0  0  0  0
  141.1620   74.8570  221.5100 C   0  0  0  0  0  0  0  0  0  0  0  0
  141.2750   76.2720  221.5040 N   0  0  0  0  0  0  0  0  0  0  0  0
  141.8830   76.9580  220.3670 C   0  0  0  0  0  0  0  0  0  0  0  0
  141.2270   78.3300  220.2750 C   0  0  0  0  0  0  0  0  0  0  0  0
  141.6200   79.0550  221.5090 C   0  0  0  0  0  0  0  0  0  0  0  0
  142.1830   80.3080  221.4670 C   0  0  0  0  0  0  0  0  0  0  0  0
  142.5250   80.9240  222.6640 C   0  0  0  0  0  0  0  0  0  0  0  0
  142.2940   80.2700  223.8500 C   0  0  0  0  0  0  0  0  0  0  0  0
  141.7300   79.0130  223.8990 C   0  0  0  0  0  0  0  0  0  0  0  0
  141.3850   78.3900  222.7120 C   0  0  0  0  0  0  0  0  0  0  0  0
  140.7760   77.0440  222.6460 C   0  0  0  0  0  0  0  0  0  0  0  0
  142.0590   74.1190  220.8750 N   0  0  0  0  0  0  0  0  0  0  0  0
  142.6400   70.6090  219.8570 C   0  0  0  0  0  0  0  0  0  0  0  0
  146.7688   67.3862  219.0039 H   0  0  0  0  0  0  0  0  0  0  0  0
  144.5151   66.4244  219.4974 H   0  0  0  0  0  0  0  0  0  0  0  0
  142.6072   67.9609  219.8918 H   0  0  0  0  0  0  0  0  0  0  0  0
  147.0607   69.8332  218.9127 H   0  0  0  0  0  0  0  0  0  0  0  0
  146.2012   71.9222  219.8380 H   0  0  0  0  0  0  0  0  0  0  0  0
  145.3403   71.9582  218.2041 H   0  0  0  0  0  0  0  0  0  0  0  0
  144.6107   73.0935  220.7269 H   0  0  0  0  0  0  0  0  0  0  0  0
  143.9779   73.3199  219.0081 H   0  0  0  0  0  0  0  0  0  0  0  0
  138.0030   72.4410  222.5380 H   0  0  0  0  0  0  0  0  0  0  0  0
  138.7705   71.8787  224.7424 H   0  0  0  0  0  0  0  0  0  0  0  0
  141.1425   70.3885  223.5443 H   0  0  0  0  0  0  0  0  0  0  0  0
  141.2735   72.0710  224.0766 H   0  0  0  0  0  0  0  0  0  0  0  0
  141.8175   70.5215  225.9731 H   0  0  0  0  0  0  0  0  0  0  0  0
  140.2913   71.3982  226.3307 H   0  0  0  0  0  0  0  0  0  0  0  0
  140.5865   68.5682  225.2285 H   0  0  0  0  0  0  0  0  0  0  0  0
  139.9827   69.0685  226.8633 H   0  0  0  0  0  0  0  0  0  0  0  0
  138.2076   68.4113  225.2564 H   0  0  0  0  0  0  0  0  0  0  0  0
  138.0813   70.1000  225.9255 H   0  0  0  0  0  0  0  0  0  0  0  0
  137.5800   70.1627  223.4302 H   0  0  0  0  0  0  0  0  0  0  0  0
  138.5141   69.9520  221.2727 H   0  0  0  0  0  0  0  0  0  0  0  0
  140.2579   70.1218  221.5231 H   0  0  0  0  0  0  0  0  0  0  0  0
  139.0127   68.1317  219.9396 H   0  0  0  0  0  0  0  0  0  0  0  0
  140.6708   68.0251  220.5141 H   0  0  0  0  0  0  0  0  0  0  0  0
  138.5439   66.3429  221.2922 H   0  0  0  0  0  0  0  0  0  0  0  0
  140.0471   66.4730  222.1795 H   0  0  0  0  0  0  0  0  0  0  0  0
  137.4299   68.0628  222.5645 H   0  0  0  0  0  0  0  0  0  0  0  0
  138.3600   67.2763  223.8183 H   0  0  0  0  0  0  0  0  0  0  0  0
  142.9660   77.0665  220.5258 H   0  0  0  0  0  0  0  0  0  0  0  0
  141.7347   76.3878  219.4381 H   0  0  0  0  0  0  0  0  0  0  0  0
  141.5872   78.8670  219.3851 H   0  0  0  0  0  0  0  0  0  0  0  0
  140.1336   78.2487  220.1864 H   0  0  0  0  0  0  0  0  0  0  0  0
  142.3591   80.8125  220.5055 H   0  0  0  0  0  0  0  0  0  0  0  0
  142.9769   81.9269  222.6624 H   0  0  0  0  0  0  0  0  0  0  0  0
  142.5684   80.7663  224.7926 H   0  0  0  0  0  0  0  0  0  0  0  0
  141.5572   78.5141  224.8640 H   0  0  0  0  0  0  0  0  0  0  0  0
  141.0129   76.5009  223.5728 H   0  0  0  0  0  0  0  0  0  0  0  0
  139.6897   77.1676  222.5245 H   0  0  0  0  0  0  0  0  0  0  0  0
  142.0699   70.2017  220.7050 H   0  0  0  0  0  0  0  0  0  0  0  0
  142.0648   70.6288  218.9196 H   0  0  0  0  0  0  0  0  0  0  0  0
  1  2  2  0
  2  3  1  0
  3  4  2  0
  4  5  1  0
  5  6  2  0
  5  7  1  0
  7  8  1  0
  8  9  1  0
  9 10  1  0
 10 11  2  0
 11 12  1  0
 12 13  1  0
 13 14  1  0
 14 15  1  0
 15 16  1  0
 16 17  1  0
 17 18  1  0
 18 19  1  0
 19 20  1  0
 20 21  1  0
 21 22  1  0
 22 23  1  0
 23 24  1  0
 12 25  2  0
 25 26  1  0
 26 27  1  0
 27 28  1  0
 28 29  1  0
 29 30  1  0
 30 31  2  0
 31 32  1  0
 32 33  2  0
 33 34  1  0
 34 35  2  0
 35 36  1  0
 26 37  2  0
  9 38  1  0
  6  1  1  0
 37 10  1  0
 38  4  1  0
 19 14  1  0
 24 20  1  0
 36 27  1  0
 35 30  1  0
  1 39  1  0
  2 40  1  0
  3 41  1  0
  6 42  1  0
  7 43  1  0
  7 44  1  0
  8 45  1  0
  8 46  1  0
 13 47  1  0
 14 48  1  1
 15 49  1  0
 15 50  1  0
 16 51  1  0
 16 52  1  0
 17 53  1  0
 17 54  1  0
 18 55  1  0
 18 56  1  0
 19 57  1  6
 21 58  1  0
 21 59  1  0
 22 60  1  0
 22 61  1  0
 23 62  1  0
 23 63  1  0
 24 64  1  0
 24 65  1  0
 28 66  1  0
 28 67  1  0
 29 68  1  0
 29 69  1  0
 31 70  1  0
 32 71  1  0
 33 72  1  0
 34 73  1  0
 36 74  1  0
 36 75  1  0
 38 76  1  0
 38 77  1  0
M  END
>  <smiles>  (45) 
c1ccc2c(c1)CCN(c1nc(N[C@@H]3CCCC[C@@H]3N3CCCC3)nc(N3CCc4ccccc4C3)n1)C2

>  <score_type>  (45) 
oracle

>  <origin>  (45) 
autodockgpu

>  <m_score__min__energy>  (45) 
-10.83

>  <m_primary>  (45) 
energy

>  <rmsd>  (45) 
10.068765976859094

>  <m_score__min__rmsd>  (45) 
10.068765976859094

>  <meeko>  (45) 
{"free_energy": -10.27, "intermolecular_energy": -11.77, "internal_energy": -2.03, "cluster_size": 25, "cluster_id": 2, "rank_in_cluster": 12}

>  <energy>  (45) 
-10.06

>  <cluster_rmsd>  (45) 
0.97

>  <cluster>  (45) 
2

$$$$

     RDKit          3D

 77 83  0  0  0  0  0  0  0  0999 V2000
  140.7530   80.5680  223.4760 C   0  0  0  0  0  0  0  0  0  0  0  0
  141.9770   80.1170  223.0050 C   0  0  0  0  0  0  0  0  0  0  0  0
  142.0410   78.8840  222.4000 C   0  0  0  0  0  0  0  0  0  0  0  0
  140.9060   78.1120  222.2640 C   0  0  0  0  0  0  0  0  0  0  0  0
  139.6910   78.5310  222.7180 C   0  0  0  0  0  0  0  0  0  0  0  0
  139.6350   79.7760  223.3280 C   0  0  0  0  0  0  0  0  0  0  0  0
  138.4480   77.7670  222.6090 C   0  0  0  0  0  0  0  0  0  0  0  0
  138.5930   76.3340  222.2450 C   0  0  0  0  0  0  0  0  0  0  0  0
  139.9070   75.9190  221.8460 N   0  0  0  0  0  0  0  0  0  0  0  0
  140.1250   74.5140  221.6650 C   0  0  0  0  0  0  0  0  0  0  0  0
  140.4520   73.9990  220.4670 N   0  0  0  0  0  0  0  0  0  0  0  0
  140.6660   72.6820  220.2420 C   0  0  0  0  0  0  0  0  0  0  0  0
  141.0100   72.2040  218.9390 N   0  0  0  0  0  0  0  0  0  0  0  0
  142.0850   71.2860  218.7740 C   0  0  2  0  0  0  0  0  0  0  0  0
  142.2320   70.2670  219.8780 C   0  0  0  0  0  0  0  0  0  0  0  0
  142.9910   69.0850  219.2560 C   0  0  0  0  0  0  0  0  0  0  0  0
  144.3580   69.5480  218.7970 C   0  0  0  0  0  0  0  0  0  0  0  0
  144.2630   70.7270  217.8860 C   0  0  0  0  0  0  0  0  0  0  0  0
  143.4210   71.8670  218.4760 C   0  0  2  0  0  0  0  0  0  0  0  0
  144.1590   72.3460  219.6190 N   0  0  0  0  0  0  0  0  0  0  0  0
  143.8740   73.6980  220.0040 C   0  0  0  0  0  0  0  0  0  0  0  0
  145.0570   74.1490  220.8490 C   0  0  0  0  0  0  0  0  0  0  0  0
  146.1050   73.1200  220.5820 C   0  0  0  0  0  0  0  0  0  0  0  0
  145.5630   72.3900  219.3590 C   0  0  0  0  0  0  0  0  0  0  0  0
  140.5350   71.8710  221.3050 N   0  0  0  0  0  0  0  0  0  0  0  0
  140.2090   72.3330  222.5250 C   0  0  0  0  0  0  0  0  0  0  0  0
  140.0770   71.4550  223.6330 N   0  0  0  0  0  0  0  0  0  0  0  0
  138.9630   70.5140  223.6980 C   0  0  0  0  0  0  0  0  0  0  0  0
  139.4520   69.3020  224.4830 C   0  0  0  0  0  0  0  0  0  0  0  0
  139.7200   69.7890  225.8600 C   0  0  0  0  0  0  0  0  0  0  0  0
  139.1850   69.1710  226.9650 C   0  0  0  0  0  0  0  0  0  0  0  0
  139.4810   69.6830  228.2220 C   0  0  0  0  0  0  0  0  0  0  0  0
  140.2930   70.7860  228.3270 C   0  0  0  0  0  0  0  0  0  0  0  0
  140.8330   71.4100  227.2220 C   0  0  0  0  0  0  0  0  0  0  0  0
  140.5450   70.9070  225.9650 C   0  0  0  0  0  0  0  0  0  0  0  0
  141.0670   71.4970  224.7130 C   0  0  0  0  0  0  0  0  0  0  0  0
  140.0120   73.6320  222.6840 N   0  0  0  0  0  0  0  0  0  0  0  0
  141.0190   76.8050  221.6130 C   0  0  0  0  0  0  0  0  0  0  0  0
  140.6752   81.5507  223.9641 H   0  0  0  0  0  0  0  0  0  0  0  0
  142.8806   80.7348  223.1136 H   0  0  0  0  0  0  0  0  0  0  0  0
  143.0041   78.5106  222.0218 H   0  0  0  0  0  0  0  0  0  0  0  0
  138.6686   80.1420  223.7050 H   0  0  0  0  0  0  0  0  0  0  0  0
  137.9361   77.8169  223.5814 H   0  0  0  0  0  0  0  0  0  0  0  0
  137.8889   78.2277  221.7812 H   0  0  0  0  0  0  0  0  0  0  0  0
  138.3005   75.7330  223.1186 H   0  0  0  0  0  0  0  0  0  0  0  0
  137.9529   76.1845  221.3630 H   0  0  0  0  0  0  0  0  0  0  0  0
  140.4520   72.5480  218.1510 H   0  0  0  0  0  0  0  0  0  0  0  0
  141.7453   70.7765  217.8602 H   0  0  0  0  0  0  0  0  0  0  0  0
  142.8034   70.6906  220.7171 H   0  0  0  0  0  0  0  0  0  0  0  0
  141.2547   69.9569  220.2764 H   0  0  0  0  0  0  0  0  0  0  0  0
  143.1063   68.2881  220.0055 H   0  0  0  0  0  0  0  0  0  0  0  0
  142.4262   68.6992  218.3945 H   0  0  0  0  0  0  0  0  0  0  0  0
  144.9552   69.8252  219.6782 H   0  0  0  0  0  0  0  0  0  0  0  0
  144.8320   68.7238  218.2439 H   0  0  0  0  0  0  0  0  0  0  0  0
  145.2780   71.1038  217.6915 H   0  0  0  0  0  0  0  0  0  0  0  0
  143.7682   70.3932  216.9620 H   0  0  0  0  0  0  0  0  0  0  0  0
  143.2465   72.7319  217.8191 H   0  0  0  0  0  0  0  0  0  0  0  0
  143.7741   74.3364  219.1138 H   0  0  0  0  0  0  0  0  0  0  0  0
  142.9287   73.7684  220.5621 H   0  0  0  0  0  0  0  0  0  0  0  0
  145.4009   75.1468  220.5392 H   0  0  0  0  0  0  0  0  0  0  0  0
  144.8072   74.2315  221.9171 H   0  0  0  0  0  0  0  0  0  0  0  0
  147.0751   73.5906  220.3641 H   0  0  0  0  0  0  0  0  0  0  0  0
  146.2883   72.4548  221.4387 H   0  0  0  0  0  0  0  0  0  0  0  0
  145.7786   72.9478  218.4357 H   0  0  0  0  0  0  0  0  0  0  0  0
  146.0113   71.3969  219.2080 H   0  0  0  0  0  0  0  0  0  0  0  0
  138.1067   70.9764  224.2108 H   0  0  0  0  0  0  0  0  0  0  0  0
  138.6340   70.2232  222.6894 H   0  0  0  0  0  0  0  0  0  0  0  0
  138.6797   68.5189  224.4978 H   0  0  0  0  0  0  0  0  0  0  0  0
  140.3521   68.8629  224.0280 H   0  0  0  0  0  0  0  0  0  0  0  0
  138.5361   68.2895  226.8563 H   0  0  0  0  0  0  0  0  0  0  0  0
  139.0688   69.2094  229.1252 H   0  0  0  0  0  0  0  0  0  0  0  0
  140.5203   71.1852  229.3265 H   0  0  0  0  0  0  0  0  0  0  0  0
  141.4808   72.2915  227.3375 H   0  0  0  0  0  0  0  0  0  0  0  0
  141.3425   72.5450  224.9019 H   0  0  0  0  0  0  0  0  0  0  0  0
  141.9403   70.9073  224.3972 H   0  0  0  0  0  0  0  0  0  0  0  0
  141.9313   76.3150  221.9840 H   0  0  0  0  0  0  0  0  0  0  0  0
  141.0415   76.9978  220.5303 H   0  0  0  0  0  0  0  0  0  0  0  0
  1  2  2  0
  2  3  1  0
  3  4  2  0
  4  5  1  0
  5  6  2  0
  5  7  1  0
  7  8  1  0
  8  9  1  0
  9 10  1  0
 10 11  2  0
 11 12  1  0
 12 13  1  0
 13 14  1  0
 14 15  1  0
 15 16  1  0
 16 17  1  0
 17 18  1  0
 18 19  1  0
 19 20  1  0
 20 21  1  0
 21 22  1  0
 22 23  1  0
 23 24  1  0
 12 25  2  0
 25 26  1  0
 26 27  1  0
 27 28  1  0
 28 29  1  0
 29 30  1  0
 30 31  2  0
 31 32  1  0
 32 33  2  0
 33 34  1  0
 34 35  2  0
 35 36  1  0
 26 37  2  0
  9 38  1  0
  6  1  1  0
 37 10  1  0
 38  4  1  0
 19 14  1  0
 24 20  1  0
 36 27  1  0
 35 30  1  0
  1 39  1  0
  2 40  1  0
  3 41  1  0
  6 42  1  0
  7 43  1  0
  7 44  1  0
  8 45  1  0
  8 46  1  0
 13 47  1  0
 14 48  1  6
 15 49  1  0
 15 50  1  0
 16 51  1  0
 16 52  1  0
 17 53  1  0
 17 54  1  0
 18 55  1  0
 18 56  1  0
 19 57  1  6
 21 58  1  0
 21 59  1  0
 22 60  1  0
 22 61  1  0
 23 62  1  0
 23 63  1  0
 24 64  1  0
 24 65  1  0
 28 66  1  0
 28 67  1  0
 29 68  1  0
 29 69  1  0
 31 70  1  0
 32 71  1  0
 33 72  1  0
 34 73  1  0
 36 74  1  0
 36 75  1  0
 38 76  1  0
 38 77  1  0
M  END
>  <smiles>  (46) 
c1ccc2c(c1)CCN(c1nc(N[C@@H]3CCCC[C@@H]3N3CCCC3)nc(N3CCc4ccccc4C3)n1)C2

>  <score_type>  (46) 
oracle

>  <origin>  (46) 
autodockgpu

>  <m_score__min__energy>  (46) 
-10.83

>  <m_primary>  (46) 
energy

>  <rmsd>  (46) 
7.603718405179268

>  <m_score__min__rmsd>  (46) 
7.603718405179268

>  <meeko>  (46) 
{"free_energy": -10.46, "intermolecular_energy": -11.95, "internal_energy": -1.76, "cluster_size": 24, "cluster_id": 1, "rank_in_cluster": 11}

>  <energy>  (46) 
-10.04

>  <cluster_rmsd>  (46) 
0.97

>  <cluster>  (46) 
2

$$$$

     RDKit          3D

 77 83  0  0  0  0  0  0  0  0999 V2000
  139.9220   68.7050  227.0900 C   0  0  0  0  0  0  0  0  0  0  0  0
  141.0730   69.4660  227.2200 C   0  0  0  0  0  0  0  0  0  0  0  0
  141.2870   70.5000  226.3380 C   0  0  0  0  0  0  0  0  0  0  0  0
  140.3690   70.7720  225.3440 C   0  0  0  0  0  0  0  0  0  0  0  0
  139.2300   70.0400  225.1950 C   0  0  0  0  0  0  0  0  0  0  0  0
  139.0230   68.9980  226.0880 C   0  0  0  0  0  0  0  0  0  0  0  0
  138.2150   70.2700  224.1670 C   0  0  0  0  0  0  0  0  0  0  0  0
  138.6100   71.1710  223.0520 C   0  0  0  0  0  0  0  0  0  0  0  0
  139.8550   71.8640  223.2180 N   0  0  0  0  0  0  0  0  0  0  0  0
  140.3530   72.5950  222.0910 C   0  0  0  0  0  0  0  0  0  0  0  0
  140.6770   71.9810  220.9390 N   0  0  0  0  0  0  0  0  0  0  0  0
  141.1530   72.6220  219.8460 C   0  0  0  0  0  0  0  0  0  0  0  0
  141.4800   71.9020  218.6550 N   0  0  0  0  0  0  0  0  0  0  0  0
  142.6390   71.0750  218.6140 C   0  0  2  0  0  0  0  0  0  0  0  0
  142.7490   70.0720  219.7360 C   0  0  0  0  0  0  0  0  0  0  0  0
  143.6650   68.9560  219.2080 C   0  0  0  0  0  0  0  0  0  0  0  0
  145.0300   69.5300  218.8940 C   0  0  0  0  0  0  0  0  0  0  0  0
  144.9370   70.6980  217.9680 C   0  0  0  0  0  0  0  0  0  0  0  0
  143.9470   71.7650  218.4560 C   0  0  2  0  0  0  0  0  0  0  0  0
  144.5150   72.3030  219.6670 N   0  0  0  0  0  0  0  0  0  0  0  0
  144.2580   73.6950  219.8940 C   0  0  0  0  0  0  0  0  0  0  0  0
  145.3140   74.1560  220.8900 C   0  0  0  0  0  0  0  0  0  0  0  0
  146.3220   73.0560  220.8830 C   0  0  0  0  0  0  0  0  0  0  0  0
  145.9430   72.2520  219.6460 C   0  0  0  0  0  0  0  0  0  0  0  0
  141.2960   73.9530  219.9570 N   0  0  0  0  0  0  0  0  0  0  0  0
  140.9870   74.6170  221.0850 C   0  0  0  0  0  0  0  0  0  0  0  0
  141.1470   76.0250  221.1760 N   0  0  0  0  0  0  0  0  0  0  0  0
  141.8230   76.7610  220.1120 C   0  0  0  0  0  0  0  0  0  0  0  0
  141.2170   78.1590  220.0850 C   0  0  0  0  0  0  0  0  0  0  0  0
  141.5830   78.7880  221.3790 C   0  0  0  0  0  0  0  0  0  0  0  0
  142.1880   80.0200  221.4410 C   0  0  0  0  0  0  0  0  0  0  0  0
  142.5010   80.5450  222.6880 C   0  0  0  0  0  0  0  0  0  0  0  0
  142.2010   79.8250  223.8180 C   0  0  0  0  0  0  0  0  0  0  0  0
  141.5940   78.5880  223.7620 C   0  0  0  0  0  0  0  0  0  0  0  0
  141.2780   78.0560  222.5250 C   0  0  0  0  0  0  0  0  0  0  0  0
  140.6280   76.7390  222.3470 C   0  0  0  0  0  0  0  0  0  0  0  0
  140.5260   73.9350  222.1210 N   0  0  0  0  0  0  0  0  0  0  0  0
  140.6370   71.8830  224.4280 C   0  0  0  0  0  0  0  0  0  0  0  0
  139.7275   67.8726  227.7823 H   0  0  0  0  0  0  0  0  0  0  0  0
  141.8022   69.2473  228.0140 H   0  0  0  0  0  0  0  0  0  0  0  0
  142.1956   71.1138  226.4256 H   0  0  0  0  0  0  0  0  0  0  0  0
  138.1131   68.3872  225.9928 H   0  0  0  0  0  0  0  0  0  0  0  0
  137.9479   69.2950  223.7335 H   0  0  0  0  0  0  0  0  0  0  0  0
  137.3840   70.7775  224.6786 H   0  0  0  0  0  0  0  0  0  0  0  0
  138.6813   70.5641  222.1373 H   0  0  0  0  0  0  0  0  0  0  0  0
  137.8370   71.9526  223.0125 H   0  0  0  0  0  0  0  0  0  0  0  0
  140.8500   72.0090  217.8540 H   0  0  0  0  0  0  0  0  0  0  0  0
  142.4432   70.5388  217.6737 H   0  0  0  0  0  0  0  0  0  0  0  0
  143.1906   70.5409  220.6277 H   0  0  0  0  0  0  0  0  0  0  0  0
  141.7633   69.6828  220.0307 H   0  0  0  0  0  0  0  0  0  0  0  0
  143.7643   68.1709  219.9720 H   0  0  0  0  0  0  0  0  0  0  0  0
  143.2292   68.5255  218.2944 H   0  0  0  0  0  0  0  0  0  0  0  0
  145.5046   69.8550  219.8316 H   0  0  0  0  0  0  0  0  0  0  0  0
  145.6265   68.7479  218.4015 H   0  0  0  0  0  0  0  0  0  0  0  0
  145.9329   71.1566  217.8792 H   0  0  0  0  0  0  0  0  0  0  0  0
  144.5723   70.3253  216.9994 H   0  0  0  0  0  0  0  0  0  0  0  0
  143.7749   72.6136  217.7775 H   0  0  0  0  0  0  0  0  0  0  0  0
  144.3465   74.2590  218.9537 H   0  0  0  0  0  0  0  0  0  0  0  0
  143.2405   73.8611  220.2775 H   0  0  0  0  0  0  0  0  0  0  0  0
  145.7681   75.1045  220.5673 H   0  0  0  0  0  0  0  0  0  0  0  0
  144.8985   74.3429  221.8912 H   0  0  0  0  0  0  0  0  0  0  0  0
  147.3431   73.4560  220.7970 H   0  0  0  0  0  0  0  0  0  0  0  0
  146.3180   72.4584  221.8065 H   0  0  0  0  0  0  0  0  0  0  0  0
  146.3436   72.7160  218.7326 H   0  0  0  0  0  0  0  0  0  0  0  0
  146.3445   71.2279  219.6497 H   0  0  0  0  0  0  0  0  0  0  0  0
  142.9016   76.8204  220.3197 H   0  0  0  0  0  0  0  0  0  0  0  0
  141.6940   76.2577  219.1424 H   0  0  0  0  0  0  0  0  0  0  0  0
  141.6312   78.7391  219.2472 H   0  0  0  0  0  0  0  0  0  0  0  0
  140.1261   78.1230  219.9485 H   0  0  0  0  0  0  0  0  0  0  0  0
  142.4196   80.5788  220.5222 H   0  0  0  0  0  0  0  0  0  0  0  0
  142.9852   81.5293  222.7698 H   0  0  0  0  0  0  0  0  0  0  0  0
  142.4533   80.2492  224.8011 H   0  0  0  0  0  0  0  0  0  0  0  0
  141.3652   78.0343  224.6846 H   0  0  0  0  0  0  0  0  0  0  0  0
  140.8095   76.1291  223.2443 H   0  0  0  0  0  0  0  0  0  0  0  0
  139.5522   76.9087  222.1927 H   0  0  0  0  0  0  0  0  0  0  0  0
  141.7007   71.8495  224.1498 H   0  0  0  0  0  0  0  0  0  0  0  0
  140.3603   72.8029  224.9639 H   0  0  0  0  0  0  0  0  0  0  0  0
  1  2  2  0
  2  3  1  0
  3  4  2  0
  4  5  1  0
  5  6  2  0
  5  7  1  0
  7  8  1  0
  8  9  1  0
  9 10  1  0
 10 11  2  0
 11 12  1  0
 12 13  1  0
 13 14  1  0
 14 15  1  0
 15 16  1  0
 16 17  1  0
 17 18  1  0
 18 19  1  0
 19 20  1  0
 20 21  1  0
 21 22  1  0
 22 23  1  0
 23 24  1  0
 12 25  2  0
 25 26  1  0
 26 27  1  0
 27 28  1  0
 28 29  1  0
 29 30  1  0
 30 31  2  0
 31 32  1  0
 32 33  2  0
 33 34  1  0
 34 35  2  0
 35 36  1  0
 26 37  2  0
  9 38  1  0
  6  1  1  0
 37 10  1  0
 38  4  1  0
 19 14  1  0
 24 20  1  0
 36 27  1  0
 35 30  1  0
  1 39  1  0
  2 40  1  0
  3 41  1  0
  6 42  1  0
  7 43  1  0
  7 44  1  0
  8 45  1  0
  8 46  1  0
 13 47  1  0
 14 48  1  6
 15 49  1  0
 15 50  1  0
 16 51  1  0
 16 52  1  0
 17 53  1  0
 17 54  1  0
 18 55  1  0
 18 56  1  0
 19 57  1  6
 21 58  1  0
 21 59  1  0
 22 60  1  0
 22 61  1  0
 23 62  1  0
 23 63  1  0
 24 64  1  0
 24 65  1  0
 28 66  1  0
 28 67  1  0
 29 68  1  0
 29 69  1  0
 31 70  1  0
 32 71  1  0
 33 72  1  0
 34 73  1  0
 36 74  1  0
 36 75  1  0
 38 76  1  0
 38 77  1  0
M  END
>  <smiles>  (47) 
c1ccc2c(c1)CCN(c1nc(N[C@@H]3CCCC[C@@H]3N3CCCC3)nc(N3CCc4ccccc4C3)n1)C2

>  <score_type>  (47) 
oracle

>  <origin>  (47) 
autodockgpu

>  <m_score__min__energy>  (47) 
-10.83

>  <m_primary>  (47) 
energy

>  <rmsd>  (47) 
7.898225760399441

>  <m_score__min__rmsd>  (47) 
7.898225760399441

>  <meeko>  (47) 
{"free_energy": -10.71, "intermolecular_energy": -12.21, "internal_energy": -1.92, "cluster_size": 24, "cluster_id": 1, "rank_in_cluster": 5}

>  <energy>  (47) 
-10.03

>  <cluster_rmsd>  (47) 
0.97

>  <cluster>  (47) 
2

$$$$

     RDKit          3D

 77 83  0  0  0  0  0  0  0  0999 V2000
  145.5030   68.1000  219.3000 C   0  0  0  0  0  0  0  0  0  0  0  0
  144.2170   67.6250  219.5070 C   0  0  0  0  0  0  0  0  0  0  0  0
  143.1970   68.5300  219.6850 C   0  0  0  0  0  0  0  0  0  0  0  0
  143.4520   69.8860  219.6570 C   0  0  0  0  0  0  0  0  0  0  0  0
  144.7070   70.3790  219.4560 C   0  0  0  0  0  0  0  0  0  0  0  0
  145.7300   69.4590  219.2770 C   0  0  0  0  0  0  0  0  0  0  0  0
  145.0510   71.8000  219.4140 C   0  0  0  0  0  0  0  0  0  0  0  0
  144.0120   72.7380  219.9140 C   0  0  0  0  0  0  0  0  0  0  0  0
  142.7270   72.1610  220.1860 N   0  0  0  0  0  0  0  0  0  0  0  0
  141.7600   72.9920  220.8390 C   0  0  0  0  0  0  0  0  0  0  0  0
  140.6800   72.4740  221.4500 N   0  0  0  0  0  0  0  0  0  0  0  0
  139.7370   73.2130  222.0790 C   0  0  0  0  0  0  0  0  0  0  0  0
  138.6130   72.5920  222.7060 N   0  0  0  0  0  0  0  0  0  0  0  0
  138.5230   71.1720  222.7690 C   0  0  2  0  0  0  0  0  0  0  0  0
  137.2390   70.6370  223.3530 C   0  0  0  0  0  0  0  0  0  0  0  0
  137.0940   69.2090  222.8030 C   0  0  0  0  0  0  0  0  0  0  0  0
  138.2630   68.3670  223.2700 C   0  0  0  0  0  0  0  0  0  0  0  0
  139.5700   68.9990  222.9220 C   0  0  0  0  0  0  0  0  0  0  0  0
  139.6690   70.4570  223.3920 C   0  0  2  0  0  0  0  0  0  0  0  0
  139.6600   70.4060  224.8330 N   0  0  0  0  0  0  0  0  0  0  0  0
  140.3240   71.4970  225.4850 C   0  0  0  0  0  0  0  0  0  0  0  0
  140.6320   71.0130  226.8960 C   0  0  0  0  0  0  0  0  0  0  0  0
  140.4290   69.5360  226.8230 C   0  0  0  0  0  0  0  0  0  0  0  0
  140.3750   69.2710  225.3240 C   0  0  0  0  0  0  0  0  0  0  0  0
  139.9260   74.5430  222.0710 N   0  0  0  0  0  0  0  0  0  0  0  0
  140.9880   75.1140  221.4760 C   0  0  0  0  0  0  0  0  0  0  0  0
  141.1650   76.5230  221.4830 N   0  0  0  0  0  0  0  0  0  0  0  0
  141.9030   77.1780  220.4070 C   0  0  0  0  0  0  0  0  0  0  0  0
  141.3210   78.5790  220.2590 C   0  0  0  0  0  0  0  0  0  0  0  0
  141.6350   79.2870  221.5250 C   0  0  0  0  0  0  0  0  0  0  0  0
  142.2550   80.5130  221.5360 C   0  0  0  0  0  0  0  0  0  0  0  0
  142.5170   81.1160  222.7600 C   0  0  0  0  0  0  0  0  0  0  0  0
  142.1510   80.4750  223.9190 C   0  0  0  0  0  0  0  0  0  0  0  0
  141.5280   79.2450  223.9140 C   0  0  0  0  0  0  0  0  0  0  0  0
  141.2630   78.6360  222.7000 C   0  0  0  0  0  0  0  0  0  0  0  0
  140.6010   77.3190  222.5780 C   0  0  0  0  0  0  0  0  0  0  0  0
  141.8770   74.3390  220.8760 N   0  0  0  0  0  0  0  0  0  0  0  0
  142.3370   70.8150  219.8520 C   0  0  0  0  0  0  0  0  0  0  0  0
  146.3364   67.3968  219.1551 H   0  0  0  0  0  0  0  0  0  0  0  0
  144.0162   66.5437  219.5285 H   0  0  0  0  0  0  0  0  0  0  0  0
  142.1707   68.1706  219.8509 H   0  0  0  0  0  0  0  0  0  0  0  0
  146.7538   69.8257  219.1116 H   0  0  0  0  0  0  0  0  0  0  0  0
  145.9559   71.9451  220.0223 H   0  0  0  0  0  0  0  0  0  0  0  0
  145.1804   72.0420  218.3488 H   0  0  0  0  0  0  0  0  0  0  0  0
  144.3841   73.1875  220.8465 H   0  0  0  0  0  0  0  0  0  0  0  0
  143.8480   73.4617  219.1020 H   0  0  0  0  0  0  0  0  0  0  0  0
  137.8940   73.2080  223.0990 H   0  0  0  0  0  0  0  0  0  0  0  0
  138.5477   70.9436  221.6933 H   0  0  0  0  0  0  0  0  0  0  0  0
  137.2949   70.6209  224.4515 H   0  0  0  0  0  0  0  0  0  0  0  0
  136.3776   71.2653  223.0824 H   0  0  0  0  0  0  0  0  0  0  0  0
  136.1551   68.7684  223.1697 H   0  0  0  0  0  0  0  0  0  0  0  0
  137.0800   69.2392  221.7035 H   0  0  0  0  0  0  0  0  0  0  0  0
  138.2036   68.2482  224.3620 H   0  0  0  0  0  0  0  0  0  0  0  0
  138.2075   67.3914  222.7648 H   0  0  0  0  0  0  0  0  0  0  0  0
  140.3772   68.4212  223.3960 H   0  0  0  0  0  0  0  0  0  0  0  0
  139.6573   68.9976  221.8255 H   0  0  0  0  0  0  0  0  0  0  0  0
  140.5775   71.0019  223.0957 H   0  0  0  0  0  0  0  0  0  0  0  0
  141.2543   71.7505  224.9556 H   0  0  0  0  0  0  0  0  0  0  0  0
  139.6996   72.4025  225.4953 H   0  0  0  0  0  0  0  0  0  0  0  0
  141.6692   71.2519  227.1737 H   0  0  0  0  0  0  0  0  0  0  0  0
  139.9962   71.4909  227.6559 H   0  0  0  0  0  0  0  0  0  0  0  0
  141.2675   68.9982  227.2896 H   0  0  0  0  0  0  0  0  0  0  0  0
  139.5291   69.1954  227.3560 H   0  0  0  0  0  0  0  0  0  0  0  0
  141.3857   69.2213  224.8928 H   0  0  0  0  0  0  0  0  0  0  0  0
  139.9034   68.3113  225.0659 H   0  0  0  0  0  0  0  0  0  0  0  0
  142.9712   77.2373  220.6627 H   0  0  0  0  0  0  0  0  0  0  0  0
  141.8128   76.6132  219.4674 H   0  0  0  0  0  0  0  0  0  0  0  0
  141.7837   79.0972  219.4061 H   0  0  0  0  0  0  0  0  0  0  0  0
  140.2374   78.5480  220.0722 H   0  0  0  0  0  0  0  0  0  0  0  0
  142.5382   81.0071  220.5949 H   0  0  0  0  0  0  0  0  0  0  0  0
  143.0127   82.0971  222.8008 H   0  0  0  0  0  0  0  0  0  0  0  0
  142.3622   80.9596  224.8836 H   0  0  0  0  0  0  0  0  0  0  0  0
  141.2466   78.7564  224.8585 H   0  0  0  0  0  0  0  0  0  0  0  0
  140.7293   76.7677  223.5212 H   0  0  0  0  0  0  0  0  0  0  0  0
  139.5364   77.4913  222.3612 H   0  0  0  0  0  0  0  0  0  0  0  0
  141.7073   70.4284  220.6669 H   0  0  0  0  0  0  0  0  0  0  0  0
  141.8094   70.8741  218.8886 H   0  0  0  0  0  0  0  0  0  0  0  0
  1  2  2  0
  2  3  1  0
  3  4  2  0
  4  5  1  0
  5  6  2  0
  5  7  1  0
  7  8  1  0
  8  9  1  0
  9 10  1  0
 10 11  2  0
 11 12  1  0
 12 13  1  0
 13 14  1  0
 14 15  1  0
 15 16  1  0
 16 17  1  0
 17 18  1  0
 18 19  1  0
 19 20  1  0
 20 21  1  0
 21 22  1  0
 22 23  1  0
 23 24  1  0
 12 25  2  0
 25 26  1  0
 26 27  1  0
 27 28  1  0
 28 29  1  0
 29 30  1  0
 30 31  2  0
 31 32  1  0
 32 33  2  0
 33 34  1  0
 34 35  2  0
 35 36  1  0
 26 37  2  0
  9 38  1  0
  6  1  1  0
 37 10  1  0
 38  4  1  0
 19 14  1  0
 24 20  1  0
 36 27  1  0
 35 30  1  0
  1 39  1  0
  2 40  1  0
  3 41  1  0
  6 42  1  0
  7 43  1  0
  7 44  1  0
  8 45  1  0
  8 46  1  0
 13 47  1  0
 14 48  1  6
 15 49  1  0
 15 50  1  0
 16 51  1  0
 16 52  1  0
 17 53  1  0
 17 54  1  0
 18 55  1  0
 18 56  1  0
 19 57  1  1
 21 58  1  0
 21 59  1  0
 22 60  1  0
 22 61  1  0
 23 62  1  0
 23 63  1  0
 24 64  1  0
 24 65  1  0
 28 66  1  0
 28 67  1  0
 29 68  1  0
 29 69  1  0
 31 70  1  0
 32 71  1  0
 33 72  1  0
 34 73  1  0
 36 74  1  0
 36 75  1  0
 38 76  1  0
 38 77  1  0
M  END
>  <smiles>  (48) 
c1ccc2c(c1)CCN(c1nc(N[C@@H]3CCCC[C@@H]3N3CCCC3)nc(N3CCc4ccccc4C3)n1)C2

>  <score_type>  (48) 
oracle

>  <origin>  (48) 
autodockgpu

>  <m_score__min__energy>  (48) 
-10.83

>  <m_primary>  (48) 
energy

>  <rmsd>  (48) 
9.421582082204843

>  <m_score__min__rmsd>  (48) 
9.421582082204843

>  <meeko>  (48) 
{"free_energy": -10.38, "intermolecular_energy": -11.87, "internal_energy": -1.77, "cluster_size": 25, "cluster_id": 2, "rank_in_cluster": 3}

>  <energy>  (48) 
-10.0

>  <cluster_rmsd>  (48) 
0.98

>  <cluster>  (48) 
2

$$$$

     RDKit          3D

 77 83  0  0  0  0  0  0  0  0999 V2000
  145.9150   68.0460  219.1520 C   0  0  0  0  0  0  0  0  0  0  0  0
  144.6700   67.5060  219.4380 C   0  0  0  0  0  0  0  0  0  0  0  0
  143.6140   68.3570  219.6620 C   0  0  0  0  0  0  0  0  0  0  0  0
  143.7920   69.7250  219.6020 C   0  0  0  0  0  0  0  0  0  0  0  0
  145.0040   70.2820  219.3220 C   0  0  0  0  0  0  0  0  0  0  0  0
  146.0650   69.4150  219.0980 C   0  0  0  0  0  0  0  0  0  0  0  0
  145.2660   71.7180  219.2420 C   0  0  0  0  0  0  0  0  0  0  0  0
  144.2070   72.6060  219.7880 C   0  0  0  0  0  0  0  0  0  0  0  0
  142.9720   71.9650  220.1400 N   0  0  0  0  0  0  0  0  0  0  0  0
  142.0000   72.7530  220.8360 C   0  0  0  0  0  0  0  0  0  0  0  0
  140.9700   72.1870  221.4900 N   0  0  0  0  0  0  0  0  0  0  0  0
  140.0230   72.8850  222.1600 C   0  0  0  0  0  0  0  0  0  0  0  0
  138.9540   72.2150  222.8320 N   0  0  0  0  0  0  0  0  0  0  0  0
  139.2330   71.3050  223.8910 C   0  0  2  0  0  0  0  0  0  0  0  0
  140.6970   71.1110  224.2000 C   0  0  0  0  0  0  0  0  0  0  0  0
  140.7550   70.6180  225.6540 C   0  0  0  0  0  0  0  0  0  0  0  0
  140.0250   69.2970  225.7690 C   0  0  0  0  0  0  0  0  0  0  0  0
  138.6320   69.3890  225.2370 C   0  0  0  0  0  0  0  0  0  0  0  0
  138.5760   69.9730  223.8180 C   0  0  2  0  0  0  0  0  0  0  0  0
  139.2290   69.0050  222.9710 N   0  0  0  0  0  0  0  0  0  0  0  0
  139.4150   69.4160  221.6090 C   0  0  0  0  0  0  0  0  0  0  0  0
  139.6340   68.1360  220.8140 C   0  0  0  0  0  0  0  0  0  0  0  0
  139.1970   67.0540  221.7440 C   0  0  0  0  0  0  0  0  0  0  0  0
  138.4470   67.8180  222.8300 C   0  0  0  0  0  0  0  0  0  0  0  0
  140.1550   74.2220  222.1490 N   0  0  0  0  0  0  0  0  0  0  0  0
  141.1650   74.8390  221.5110 C   0  0  0  0  0  0  0  0  0  0  0  0
  141.2820   76.2540  221.5150 N   0  0  0  0  0  0  0  0  0  0  0  0
  141.8620   76.9490  220.3700 C   0  0  0  0  0  0  0  0  0  0  0  0
  141.2080   78.3240  220.3070 C   0  0  0  0  0  0  0  0  0  0  0  0
  141.6350   79.0360  221.5380 C   0  0  0  0  0  0  0  0  0  0  0  0
  142.2010   80.2880  221.4920 C   0  0  0  0  0  0  0  0  0  0  0  0
  142.5750   80.8920  222.6860 C   0  0  0  0  0  0  0  0  0  0  0  0
  142.3730   80.2270  223.8710 C   0  0  0  0  0  0  0  0  0  0  0  0
  141.8070   78.9720  223.9230 C   0  0  0  0  0  0  0  0  0  0  0  0
  141.4300   78.3600  222.7390 C   0  0  0  0  0  0  0  0  0  0  0  0
  140.8150   77.0160  222.6770 C   0  0  0  0  0  0  0  0  0  0  0  0
  142.0610   74.1030  220.8720 N   0  0  0  0  0  0  0  0  0  0  0  0
  142.6390   70.5940  219.8460 C   0  0  0  0  0  0  0  0  0  0  0  0
  146.7763   67.3866  218.9696 H   0  0  0  0  0  0  0  0  0  0  0  0
  144.5300   66.4159  219.4848 H   0  0  0  0  0  0  0  0  0  0  0  0
  142.6199   67.9452  219.8907 H   0  0  0  0  0  0  0  0  0  0  0  0
  147.0564   69.8338  218.8703 H   0  0  0  0  0  0  0  0  0  0  0  0
  146.1943   71.9218  219.7958 H   0  0  0  0  0  0  0  0  0  0  0  0
  145.3216   71.9494  218.1680 H   0  0  0  0  0  0  0  0  0  0  0  0
  144.6055   73.0895  220.6921 H   0  0  0  0  0  0  0  0  0  0  0  0
  143.9585   73.3066  218.9772 H   0  0  0  0  0  0  0  0  0  0  0  0
  138.0000   72.4230  222.5200 H   0  0  0  0  0  0  0  0  0  0  0  0
  138.7626   71.8499  224.7228 H   0  0  0  0  0  0  0  0  0  0  0  0
  141.1355   70.3624  223.5237 H   0  0  0  0  0  0  0  0  0  0  0  0
  141.2667   72.0422  224.0647 H   0  0  0  0  0  0  0  0  0  0  0  0
  141.8048   70.4840  225.9540 H   0  0  0  0  0  0  0  0  0  0  0  0
  140.2772   71.3592  226.3115 H   0  0  0  0  0  0  0  0  0  0  0  0
  140.5752   68.5345  225.1982 H   0  0  0  0  0  0  0  0  0  0  0  0
  139.9689   69.0270  226.8339 H   0  0  0  0  0  0  0  0  0  0  0  0
  138.1948   68.3798  225.2195 H   0  0  0  0  0  0  0  0  0  0  0  0
  138.0688   70.0655  225.8967 H   0  0  0  0  0  0  0  0  0  0  0  0
  137.5718   70.1409  223.4016 H   0  0  0  0  0  0  0  0  0  0  0  0
  138.5227   69.9455  221.2437 H   0  0  0  0  0  0  0  0  0  0  0  0
  140.2660   70.1055  221.5075 H   0  0  0  0  0  0  0  0  0  0  0  0
  139.0238   68.1350  219.8988 H   0  0  0  0  0  0  0  0  0  0  0  0
  140.6766   68.0155  220.4845 H   0  0  0  0  0  0  0  0  0  0  0  0
  138.5347   66.3384  221.2348 H   0  0  0  0  0  0  0  0  0  0  0  0
  140.0323   66.4538  222.1341 H   0  0  0  0  0  0  0  0  0  0  0  0
  137.4204   68.0539  222.5130 H   0  0  0  0  0  0  0  0  0  0  0  0
  138.3368   67.2523  223.7669 H   0  0  0  0  0  0  0  0  0  0  0  0
  142.9491   77.0532  220.5020 H   0  0  0  0  0  0  0  0  0  0  0  0
  141.6878   76.3879  219.4401 H   0  0  0  0  0  0  0  0  0  0  0  0
  141.5473   78.8682  219.4133 H   0  0  0  0  0  0  0  0  0  0  0  0
  140.1124   78.2470  220.2451 H   0  0  0  0  0  0  0  0  0  0  0  0
  142.3544   80.8004  220.5308 H   0  0  0  0  0  0  0  0  0  0  0  0
  143.0289   81.8940  222.6825 H   0  0  0  0  0  0  0  0  0  0  0  0
  142.6735   80.7133  224.8108 H   0  0  0  0  0  0  0  0  0  0  0  0
  141.6572   78.4650  224.8876 H   0  0  0  0  0  0  0  0  0  0  0  0
  141.0746   76.4636  223.5921 H   0  0  0  0  0  0  0  0  0  0  0  0
  139.7262   77.1433  222.5859 H   0  0  0  0  0  0  0  0  0  0  0  0
  142.0772   70.1869  220.6996 H   0  0  0  0  0  0  0  0  0  0  0  0
  142.0566   70.6081  218.9130 H   0  0  0  0  0  0  0  0  0  0  0  0
  1  2  2  0
  2  3  1  0
  3  4  2  0
  4  5  1  0
  5  6  2  0
  5  7  1  0
  7  8  1  0
  8  9  1  0
  9 10  1  0
 10 11  2  0
 11 12  1  0
 12 13  1  0
 13 14  1  0
 14 15  1  0
 15 16  1  0
 16 17  1  0
 17 18  1  0
 18 19  1  0
 19 20  1  0
 20 21  1  0
 21 22  1  0
 22 23  1  0
 23 24  1  0
 12 25  2  0
 25 26  1  0
 26 27  1  0
 27 28  1  0
 28 29  1  0
 29 30  1  0
 30 31  2  0
 31 32  1  0
 32 33  2  0
 33 34  1  0
 34 35  2  0
 35 36  1  0
 26 37  2  0
  9 38  1  0
  6  1  1  0
 37 10  1  0
 38  4  1  0
 19 14  1  0
 24 20  1  0
 36 27  1  0
 35 30  1  0
  1 39  1  0
  2 40  1  0
  3 41  1  0
  6 42  1  0
  7 43  1  0
  7 44  1  0
  8 45  1  0
  8 46  1  0
 13 47  1  0
 14 48  1  1
 15 49  1  0
 15 50  1  0
 16 51  1  0
 16 52  1  0
 17 53  1  0
 17 54  1  0
 18 55  1  0
 18 56  1  0
 19 57  1  6
 21 58  1  0
 21 59  1  0
 22 60  1  0
 22 61  1  0
 23 62  1  0
 23 63  1  0
 24 64  1  0
 24 65  1  0
 28 66  1  0
 28 67  1  0
 29 68  1  0
 29 69  1  0
 31 70  1  0
 32 71  1  0
 33 72  1  0
 34 73  1  0
 36 74  1  0
 36 75  1  0
 38 76  1  0
 38 77  1  0
M  END
>  <smiles>  (49) 
c1ccc2c(c1)CCN(c1nc(N[C@@H]3CCCC[C@@H]3N3CCCC3)nc(N3CCc4ccccc4C3)n1)C2

>  <score_type>  (49) 
oracle

>  <origin>  (49) 
autodockgpu

>  <m_score__min__energy>  (49) 
-10.83

>  <m_primary>  (49) 
energy

>  <rmsd>  (49) 
10.075021636084102

>  <m_score__min__rmsd>  (49) 
10.075021636084102

>  <meeko>  (49) 
{"free_energy": -10.28, "intermolecular_energy": -11.77, "internal_energy": -2.03, "cluster_size": 25, "cluster_id": 2, "rank_in_cluster": 11}

>  <energy>  (49) 
-9.13

>  <cluster_rmsd>  (49) 
1.43

>  <cluster>  (49) 
2

$$$$

     RDKit          3D

 77 83  0  0  0  0  0  0  0  0999 V2000
  145.5150   67.8340  219.0780 C   0  0  0  0  0  0  0  0  0  0  0  0
  144.2350   67.3580  219.3180 C   0  0  0  0  0  0  0  0  0  0  0  0
  143.2280   68.2600  219.5680 C   0  0  0  0  0  0  0  0  0  0  0  0
  143.4900   69.6150  219.5790 C   0  0  0  0  0  0  0  0  0  0  0  0
  144.7390   70.1100  219.3470 C   0  0  0  0  0  0  0  0  0  0  0  0
  145.7490   69.1920  219.0950 C   0  0  0  0  0  0  0  0  0  0  0  0
  145.0900   71.5300  219.3430 C   0  0  0  0  0  0  0  0  0  0  0  0
  144.0760   72.4530  219.9170 C   0  0  0  0  0  0  0  0  0  0  0  0
  142.7990   71.8720  220.2170 N   0  0  0  0  0  0  0  0  0  0  0  0
  141.8630   72.6840  220.9370 C   0  0  0  0  0  0  0  0  0  0  0  0
  140.8570   72.1420  221.6460 N   0  0  0  0  0  0  0  0  0  0  0  0
  139.9460   72.8620  222.3410 C   0  0  0  0  0  0  0  0  0  0  0  0
  138.9010   72.2160  223.0720 N   0  0  0  0  0  0  0  0  0  0  0  0
  139.2150   71.2180  224.0380 C   0  0  2  0  0  0  0  0  0  0  0  0
  140.6880   71.0130  224.2920 C   0  0  0  0  0  0  0  0  0  0  0  0
  140.7870   70.3940  225.6950 C   0  0  0  0  0  0  0  0  0  0  0  0
  140.0710   69.0600  225.7090 C   0  0  0  0  0  0  0  0  0  0  0  0
  138.6650   69.1840  225.2220 C   0  0  0  0  0  0  0  0  0  0  0  0
  138.5680   69.8910  223.8630 C   0  0  2  0  0  0  0  0  0  0  0  0
  139.2060   69.0100  222.9170 N   0  0  0  0  0  0  0  0  0  0  0  0
  139.2610   69.5000  221.5700 C   0  0  0  0  0  0  0  0  0  0  0  0
  139.4900   68.2770  220.6910 C   0  0  0  0  0  0  0  0  0  0  0  0
  139.1900   67.1250  221.5900 C   0  0  0  0  0  0  0  0  0  0  0  0
  138.4860   67.7850  222.7690 C   0  0  0  0  0  0  0  0  0  0  0  0
  140.0880   74.1970  222.2960 N   0  0  0  0  0  0  0  0  0  0  0  0
  141.0750   74.7910  221.6020 C   0  0  0  0  0  0  0  0  0  0  0  0
  141.2040   76.2050  221.5710 N   0  0  0  0  0  0  0  0  0  0  0  0
  141.8300   76.8630  220.4280 C   0  0  0  0  0  0  0  0  0  0  0  0
  141.1900   78.2400  220.3040 C   0  0  0  0  0  0  0  0  0  0  0  0
  141.5800   78.9830  221.5290 C   0  0  0  0  0  0  0  0  0  0  0  0
  142.1570   80.2290  221.4690 C   0  0  0  0  0  0  0  0  0  0  0  0
  142.4940   80.8640  222.6570 C   0  0  0  0  0  0  0  0  0  0  0  0
  142.2460   80.2350  223.8530 C   0  0  0  0  0  0  0  0  0  0  0  0
  141.6670   78.9850  223.9190 C   0  0  0  0  0  0  0  0  0  0  0  0
  141.3260   78.3440  222.7410 C   0  0  0  0  0  0  0  0  0  0  0  0
  140.7030   77.0030  222.6950 C   0  0  0  0  0  0  0  0  0  0  0  0
  141.9370   74.0340  220.9420 N   0  0  0  0  0  0  0  0  0  0  0  0
  142.3880   70.5410  219.8500 C   0  0  0  0  0  0  0  0  0  0  0  0
  146.3379   67.1326  218.8755 H   0  0  0  0  0  0  0  0  0  0  0  0
  144.0288   66.2775  219.3085 H   0  0  0  0  0  0  0  0  0  0  0  0
  142.2068   67.8994  219.7605 H   0  0  0  0  0  0  0  0  0  0  0  0
  146.7677   69.5598  218.9029 H   0  0  0  0  0  0  0  0  0  0  0  0
  146.0186   71.6489  219.9205 H   0  0  0  0  0  0  0  0  0  0  0  0
  145.1803   71.8104  218.2832 H   0  0  0  0  0  0  0  0  0  0  0  0
  144.4861   72.8660  220.8504 H   0  0  0  0  0  0  0  0  0  0  0  0
  143.8850   73.2067  219.1389 H   0  0  0  0  0  0  0  0  0  0  0  0
  137.9390   72.5050  222.8690 H   0  0  0  0  0  0  0  0  0  0  0  0
  138.7613   71.6817  224.9263 H   0  0  0  0  0  0  0  0  0  0  0  0
  141.1153   70.3318  223.5414 H   0  0  0  0  0  0  0  0  0  0  0  0
  141.2464   71.9584  224.2255 H   0  0  0  0  0  0  0  0  0  0  0  0
  141.8451   70.2451  225.9564 H   0  0  0  0  0  0  0  0  0  0  0  0
  140.3201   71.0688  226.4276 H   0  0  0  0  0  0  0  0  0  0  0  0
  140.6130   68.3574  225.0589 H   0  0  0  0  0  0  0  0  0  0  0  0
  140.0442   68.6955  226.7465 H   0  0  0  0  0  0  0  0  0  0  0  0
  138.2360   68.1757  225.1253 H   0  0  0  0  0  0  0  0  0  0  0  0
  138.1131   69.7931  225.9531 H   0  0  0  0  0  0  0  0  0  0  0  0
  137.5520   70.0844  223.4885 H   0  0  0  0  0  0  0  0  0  0  0  0
  138.3141   69.9917  221.3026 H   0  0  0  0  0  0  0  0  0  0  0  0
  140.0606   70.2446  221.4430 H   0  0  0  0  0  0  0  0  0  0  0  0
  138.8110   68.2848  219.8256 H   0  0  0  0  0  0  0  0  0  0  0  0
  140.5087   68.2374  220.2778 H   0  0  0  0  0  0  0  0  0  0  0  0
  138.5317   66.3970  221.0935 H   0  0  0  0  0  0  0  0  0  0  0  0
  140.0863   66.5581  221.8822 H   0  0  0  0  0  0  0  0  0  0  0  0
  137.4257   67.9725  222.5439 H   0  0  0  0  0  0  0  0  0  0  0  0
  138.4837   67.1666  223.6787 H   0  0  0  0  0  0  0  0  0  0  0  0
  142.9126   76.9629  220.5954 H   0  0  0  0  0  0  0  0  0  0  0  0
  141.6843   76.2772  219.5084 H   0  0  0  0  0  0  0  0  0  0  0  0
  141.5645   78.7565  219.4079 H   0  0  0  0  0  0  0  0  0  0  0  0
  140.0967   78.1694  220.2059 H   0  0  0  0  0  0  0  0  0  0  0  0
  142.3479   80.7132  220.4999 H   0  0  0  0  0  0  0  0  0  0  0  0
  142.9557   81.8623  222.6407 H   0  0  0  0  0  0  0  0  0  0  0  0
  142.5182   80.7452  224.7887 H   0  0  0  0  0  0  0  0  0  0  0  0
  141.4795   78.5059  224.8913 H   0  0  0  0  0  0  0  0  0  0  0  0
  140.9265   76.4747  223.6336 H   0  0  0  0  0  0  0  0  0  0  0  0
  139.6190   77.1352  222.5626 H   0  0  0  0  0  0  0  0  0  0  0  0
  141.7877   70.1279  220.6740 H   0  0  0  0  0  0  0  0  0  0  0  0
  141.8237   70.6371  218.9107 H   0  0  0  0  0  0  0  0  0  0  0  0
  1  2  2  0
  2  3  1  0
  3  4  2  0
  4  5  1  0
  5  6  2  0
  5  7  1  0
  7  8  1  0
  8  9  1  0
  9 10  1  0
 10 11  2  0
 11 12  1  0
 12 13  1  0
 13 14  1  0
 14 15  1  0
 15 16  1  0
 16 17  1  0
 17 18  1  0
 18 19  1  0
 19 20  1  0
 20 21  1  0
 21 22  1  0
 22 23  1  0
 23 24  1  0
 12 25  2  0
 25 26  1  0
 26 27  1  0
 27 28  1  0
 28 29  1  0
 29 30  1  0
 30 31  2  0
 31 32  1  0
 32 33  2  0
 33 34  1  0
 34 35  2  0
 35 36  1  0
 26 37  2  0
  9 38  1  0
  6  1  1  0
 37 10  1  0
 38  4  1  0
 19 14  1  0
 24 20  1  0
 36 27  1  0
 35 30  1  0
  1 39  1  0
  2 40  1  0
  3 41  1  0
  6 42  1  0
  7 43  1  0
  7 44  1  0
  8 45  1  0
  8 46  1  0
 13 47  1  0
 14 48  1  1
 15 49  1  0
 15 50  1  0
 16 51  1  0
 16 52  1  0
 17 53  1  0
 17 54  1  0
 18 55  1  0
 18 56  1  0
 19 57  1  6
 21 58  1  0
 21 59  1  0
 22 60  1  0
 22 61  1  0
 23 62  1  0
 23 63  1  0
 24 64  1  0
 24 65  1  0
 28 66  1  0
 28 67  1  0
 29 68  1  0
 29 69  1  0
 31 70  1  0
 32 71  1  0
 33 72  1  0
 34 73  1  0
 36 74  1  0
 36 75  1  0
 38 76  1  0
 38 77  1  0
M  END
>  <smiles>  (50) 
c1ccc2c(c1)CCN(c1nc(N[C@@H]3CCCC[C@@H]3N3CCCC3)nc(N3CCc4ccccc4C3)n1)C2

>  <score_type>  (50) 
oracle

>  <origin>  (50) 
autodockgpu

>  <m_score__min__energy>  (50) 
-10.83

>  <m_primary>  (50) 
energy

>  <rmsd>  (50) 
10.118093742820106

>  <m_score__min__rmsd>  (50) 
10.118093742820106

>  <meeko>  (50) 
{"free_energy": -10.23, "intermolecular_energy": -11.72, "internal_energy": -2.1, "cluster_size": 25, "cluster_id": 2, "rank_in_cluster": 19}

>  <energy>  (50) 
-9.95

>  <cluster_rmsd>  (50) 
0.0

>  <cluster>  (50) 
3

$$$$
