
     RDKit          3D

 58 62  0  0  0  0  0  0  0  0999 V2000
  137.8540   69.8030  222.0040 O   0  0  0  0  0  0  0  0  0  0  0  0
  138.2890   70.6500  222.8110 C   0  0  0  0  0  0  0  0  0  0  0  0
  138.1660   72.0250  222.5030 N   0  0  0  0  0  0  0  0  0  0  0  0
  137.5750   72.5640  221.3240 C   0  0  0  0  0  0  0  0  0  0  0  0
  138.5310   72.7790  220.2160 C   0  0  0  0  0  0  0  0  0  0  0  0
  138.6010   72.0410  219.1960 O   0  0  0  0  0  0  0  0  0  0  0  0
  139.4230   73.8890  220.3190 N   0  0  0  0  0  0  0  0  0  0  0  0
  139.6350   74.7290  219.1600 C   0  0  0  0  0  0  0  0  0  0  0  0
  141.0090   75.3020  219.0710 C   0  0  0  0  0  0  0  0  0  0  0  0
  142.0350   74.8130  220.0110 C   0  0  0  0  0  0  0  0  0  0  0  0
  141.5920   74.0740  221.2260 C   0  0  0  0  0  0  0  0  0  0  0  0
  140.1240   74.2100  221.5280 C   0  0  1  0  0  0  0  0  0  0  0  0
  139.8890   75.5860  221.9970 C   0  0  0  0  0  0  0  0  0  0  0  0
  138.6840   76.1740  222.3300 C   0  0  0  0  0  0  0  0  0  0  0  0
  138.8880   77.4530  222.7160 N   0  0  0  0  0  0  0  0  0  0  0  0
  140.2120   77.6710  222.6290 C   0  0  0  0  0  0  0  0  0  0  0  0
  140.8610   78.9220  222.9540 C   0  0  0  0  0  0  0  0  0  0  0  0
  140.2600   80.1480  222.7670 C   0  0  0  0  0  0  0  0  0  0  0  0
  140.8750   81.3430  223.0750 C   0  0  0  0  0  0  0  0  0  0  0  0
  142.1680   81.3510  223.6030 C   0  0  0  0  0  0  0  0  0  0  0  0
  142.7720   80.1320  223.7910 C   0  0  0  0  0  0  0  0  0  0  0  0
  142.1510   78.9390  223.4810 C   0  0  0  0  0  0  0  0  0  0  0  0
  140.8090   76.5660  222.2020 N   0  0  0  0  0  0  0  0  0  0  0  0
  138.9330   70.2650  224.0850 C   0  0  0  0  0  0  0  0  0  0  0  0
  138.9440   68.9810  224.5420 C   0  0  0  0  0  0  0  0  0  0  0  0
  139.5420   68.6000  225.7340 C   0  0  0  0  0  0  0  0  0  0  0  0
  140.1550   69.5870  226.4870 C   0  0  0  0  0  0  0  0  0  0  0  0
  140.7830   69.3420  227.6870 C   0  0  0  0  0  0  0  0  0  0  0  0
  141.3900   70.3610  228.4200 C   0  0  0  0  0  0  0  0  0  0  0  0
  141.3740   71.6660  227.9470 C   0  0  0  0  0  0  0  0  0  0  0  0
  140.7410   71.9150  226.7380 C   0  0  0  0  0  0  0  0  0  0  0  0
  140.1460   70.8890  226.0300 C   0  0  0  0  0  0  0  0  0  0  0  0
  139.5470   71.2080  224.8560 N   0  0  0  0  0  0  0  0  0  0  0  0
  138.5470   72.7220  223.2110 H   0  0  0  0  0  0  0  0  0  0  0  0
  136.7959   71.8685  220.9786 H   0  0  0  0  0  0  0  0  0  0  0  0
  137.1722   73.5516  221.5929 H   0  0  0  0  0  0  0  0  0  0  0  0
  139.4520   74.1268  218.2579 H   0  0  0  0  0  0  0  0  0  0  0  0
  138.9408   75.5776  219.2499 H   0  0  0  0  0  0  0  0  0  0  0  0
  141.3787   75.1040  218.0541 H   0  0  0  0  0  0  0  0  0  0  0  0
  140.8785   76.3606  219.3398 H   0  0  0  0  0  0  0  0  0  0  0  0
  142.6987   74.1415  219.4466 H   0  0  0  0  0  0  0  0  0  0  0  0
  142.4960   75.7299  220.4070 H   0  0  0  0  0  0  0  0  0  0  0  0
  141.8175   73.0070  221.0825 H   0  0  0  0  0  0  0  0  0  0  0  0
  142.1325   74.5122  222.0779 H   0  0  0  0  0  0  0  0  0  0  0  0
  139.7674   73.5338  222.3189 H   0  0  0  0  0  0  0  0  0  0  0  0
  137.7044   75.6754  222.2873 H   0  0  0  0  0  0  0  0  0  0  0  0
  138.1690   78.1440  223.0240 H   0  0  0  0  0  0  0  0  0  0  0  0
  139.2415   80.1745  222.3524 H   0  0  0  0  0  0  0  0  0  0  0  0
  140.3461   82.2923  222.9045 H   0  0  0  0  0  0  0  0  0  0  0  0
  142.6795   82.2912  223.8568 H   0  0  0  0  0  0  0  0  0  0  0  0
  143.7908   80.1054  224.2049 H   0  0  0  0  0  0  0  0  0  0  0  0
  142.6807   77.9902  223.6520 H   0  0  0  0  0  0  0  0  0  0  0  0
  138.4532   68.2068  223.9340 H   0  0  0  0  0  0  0  0  0  0  0  0
  139.5297   67.5523  226.0688 H   0  0  0  0  0  0  0  0  0  0  0  0
  140.8067   68.3143  228.0784 H   0  0  0  0  0  0  0  0  0  0  0  0
  141.8830   70.1301  229.3759 H   0  0  0  0  0  0  0  0  0  0  0  0
  141.8496   72.4794  228.5146 H   0  0  0  0  0  0  0  0  0  0  0  0
  140.7126   72.9398  226.3392 H   0  0  0  0  0  0  0  0  0  0  0  0
  1  2  2  0
  2  3  1  0
  3  4  1  0
  4  5  1  0
  5  6  2  0
  5  7  1  0
  7  8  1  0
  8  9  1  0
  9 10  1  0
 10 11  1  0
 11 12  1  0
 12 13  1  0
 13 14  2  0
 14 15  1  0
 15 16  1  0
 16 17  1  0
 17 18  2  0
 18 19  1  0
 19 20  2  0
 20 21  1  0
 21 22  2  0
 16 23  2  0
  2 24  1  0
 24 25  2  0
 25 26  1  0
 26 27  2  0
 27 28  1  0
 28 29  2  0
 29 30  1  0
 30 31  2  0
 31 32  1  0
 32 33  2  0
 12  7  1  0
 23 13  1  0
 33 24  1  0
 22 17  1  0
 32 27  1  0
  3 34  1  0
  4 35  1  0
  4 36  1  0
  8 37  1  0
  8 38  1  0
  9 39  1  0
  9 40  1  0
 10 41  1  0
 10 42  1  0
 11 43  1  0
 11 44  1  0
 12 45  1  1
 14 46  1  0
 15 47  1  0
 18 48  1  0
 19 49  1  0
 20 50  1  0
 21 51  1  0
 22 52  1  0
 25 53  1  0
 26 54  1  0
 28 55  1  0
 29 56  1  0
 30 57  1  0
 31 58  1  0
M  END
>  <smiles>  (1) 
O=C(NCC(=O)N1CCCC[C@H]1c1c[nH]c(-c2ccccc2)n1)c1ccc2ccccc2n1

>  <score_type>  (1) 
oracle

>  <origin>  (1) 
autodockgpu

>  <m_score__min__energy>  (1) 
-9.9100000000000001

>  <m_primary>  (1) 
energy

>  <rmsd>  (1) 
2.7159690113740256

>  <m_score__min__rmsd>  (1) 
2.7159690113740256

>  <meeko>  (1) 
{"free_energy": -8.99, "intermolecular_energy": -10.78, "internal_energy": -2.06, "cluster_size": 12, "cluster_id": 2, "rank_in_cluster": 11}

>  <energy>  (1) 
-9.91

>  <cluster_rmsd>  (1) 
0.0

>  <cluster>  (1) 
1

$$$$

     RDKit          3D

 58 62  0  0  0  0  0  0  0  0999 V2000
  137.0460   76.1270  222.7030 O   0  0  0  0  0  0  0  0  0  0  0  0
  138.2670   76.3110  222.5160 C   0  0  0  0  0  0  0  0  0  0  0  0
  139.0720   75.2290  222.0900 N   0  0  0  0  0  0  0  0  0  0  0  0
  138.6170   73.9010  221.8400 C   0  0  0  0  0  0  0  0  0  0  0  0
  139.6920   72.9610  221.4530 C   0  0  0  0  0  0  0  0  0  0  0  0
  139.7790   71.7800  221.8840 O   0  0  0  0  0  0  0  0  0  0  0  0
  140.6820   73.4300  220.5390 N   0  0  0  0  0  0  0  0  0  0  0  0
  140.4190   73.3540  219.1180 C   0  0  0  0  0  0  0  0  0  0  0  0
  141.6340   73.1170  218.2890 C   0  0  0  0  0  0  0  0  0  0  0  0
  142.8970   72.7860  218.9740 C   0  0  0  0  0  0  0  0  0  0  0  0
  143.0100   73.0670  220.4320 C   0  0  0  0  0  0  0  0  0  0  0  0
  141.9360   73.9760  220.9670 C   0  0  1  0  0  0  0  0  0  0  0  0
  142.1970   75.3300  220.4510 C   0  0  0  0  0  0  0  0  0  0  0  0
  143.3460   75.7980  219.8430 C   0  0  0  0  0  0  0  0  0  0  0  0
  143.1920   77.0980  219.5090 N   0  0  0  0  0  0  0  0  0  0  0  0
  141.9560   77.4500  219.9030 C   0  0  0  0  0  0  0  0  0  0  0  0
  141.3830   78.7670  219.7350 C   0  0  0  0  0  0  0  0  0  0  0  0
  142.1490   79.9090  219.6330 C   0  0  0  0  0  0  0  0  0  0  0  0
  141.6070   81.1670  219.4710 C   0  0  0  0  0  0  0  0  0  0  0  0
  140.2210   81.3310  219.4050 C   0  0  0  0  0  0  0  0  0  0  0  0
  139.4540   80.1970  219.5060 C   0  0  0  0  0  0  0  0  0  0  0  0
  140.0020   78.9400  219.6670 C   0  0  0  0  0  0  0  0  0  0  0  0
  141.3620   76.4030  220.4630 N   0  0  0  0  0  0  0  0  0  0  0  0
  138.9060   77.6280  222.7270 C   0  0  0  0  0  0  0  0  0  0  0  0
  138.1900   78.7830  222.8250 C   0  0  0  0  0  0  0  0  0  0  0  0
  138.7710   80.0270  223.0230 C   0  0  0  0  0  0  0  0  0  0  0  0
  140.1510   80.0810  223.1230 C   0  0  0  0  0  0  0  0  0  0  0  0
  140.8490   81.2500  223.3200 C   0  0  0  0  0  0  0  0  0  0  0  0
  142.2400   81.2680  223.4160 C   0  0  0  0  0  0  0  0  0  0  0  0
  142.9610   80.0870  223.3140 C   0  0  0  0  0  0  0  0  0  0  0  0
  142.2600   78.9070  223.1170 C   0  0  0  0  0  0  0  0  0  0  0  0
  140.8810   78.9150  223.0240 C   0  0  0  0  0  0  0  0  0  0  0  0
  140.2640   77.7230  222.8310 N   0  0  0  0  0  0  0  0  0  0  0  0
  140.1080   75.4180  221.9390 H   0  0  0  0  0  0  0  0  0  0  0  0
  138.1378   73.5214  222.7544 H   0  0  0  0  0  0  0  0  0  0  0  0
  137.9211   73.9570  220.9900 H   0  0  0  0  0  0  0  0  0  0  0  0
  139.7128   72.5295  218.9405 H   0  0  0  0  0  0  0  0  0  0  0  0
  140.0135   74.3311  218.8165 H   0  0  0  0  0  0  0  0  0  0  0  0
  141.4055   72.2840  217.6079 H   0  0  0  0  0  0  0  0  0  0  0  0
  141.8310   74.0894  217.8140 H   0  0  0  0  0  0  0  0  0  0  0  0
  143.0677   71.7080  218.8370 H   0  0  0  0  0  0  0  0  0  0  0  0
  143.6370   73.4565  218.5127 H   0  0  0  0  0  0  0  0  0  0  0  0
  142.9550   72.1111  220.9735 H   0  0  0  0  0  0  0  0  0  0  0  0
  143.9685   73.5853  220.5821 H   0  0  0  0  0  0  0  0  0  0  0  0
  141.9188   74.0472  222.0646 H   0  0  0  0  0  0  0  0  0  0  0  0
  144.2513   75.2011  219.6584 H   0  0  0  0  0  0  0  0  0  0  0  0
  143.8880   77.7190  219.0390 H   0  0  0  0  0  0  0  0  0  0  0  0
  143.2436   79.8123  219.6832 H   0  0  0  0  0  0  0  0  0  0  0  0
  142.2675   82.0432  219.3936 H   0  0  0  0  0  0  0  0  0  0  0  0
  139.7650   82.3239  219.2779 H   0  0  0  0  0  0  0  0  0  0  0  0
  138.3594   80.2936  219.4567 H   0  0  0  0  0  0  0  0  0  0  0  0
  139.3404   78.0645  219.7425 H   0  0  0  0  0  0  0  0  0  0  0  0
  137.0945   78.7261  222.7429 H   0  0  0  0  0  0  0  0  0  0  0  0
  138.1579   80.9372  223.0978 H   0  0  0  0  0  0  0  0  0  0  0  0
  140.2947   82.1964  223.4041 H   0  0  0  0  0  0  0  0  0  0  0  0
  142.7669   82.2207  223.5730 H   0  0  0  0  0  0  0  0  0  0  0  0
  144.0585   80.0868  223.3874 H   0  0  0  0  0  0  0  0  0  0  0  0
  142.8063   77.9559  223.0340 H   0  0  0  0  0  0  0  0  0  0  0  0
  1  2  2  0
  2  3  1  0
  3  4  1  0
  4  5  1  0
  5  6  2  0
  5  7  1  0
  7  8  1  0
  8  9  1  0
  9 10  1  0
 10 11  1  0
 11 12  1  0
 12 13  1  0
 13 14  2  0
 14 15  1  0
 15 16  1  0
 16 17  1  0
 17 18  2  0
 18 19  1  0
 19 20  2  0
 20 21  1  0
 21 22  2  0
 16 23  2  0
  2 24  1  0
 24 25  2  0
 25 26  1  0
 26 27  2  0
 27 28  1  0
 28 29  2  0
 29 30  1  0
 30 31  2  0
 31 32  1  0
 32 33  2  0
 12  7  1  0
 23 13  1  0
 33 24  1  0
 22 17  1  0
 32 27  1  0
  3 34  1  0
  4 35  1  0
  4 36  1  0
  8 37  1  0
  8 38  1  0
  9 39  1  0
  9 40  1  0
 10 41  1  0
 10 42  1  0
 11 43  1  0
 11 44  1  0
 12 45  1  1
 14 46  1  0
 15 47  1  0
 18 48  1  0
 19 49  1  0
 20 50  1  0
 21 51  1  0
 22 52  1  0
 25 53  1  0
 26 54  1  0
 28 55  1  0
 29 56  1  0
 30 57  1  0
 31 58  1  0
M  END
>  <smiles>  (2) 
O=C(NCC(=O)N1CCCC[C@H]1c1c[nH]c(-c2ccccc2)n1)c1ccc2ccccc2n1

>  <score_type>  (2) 
oracle

>  <origin>  (2) 
autodockgpu

>  <m_score__min__energy>  (2) 
-9.9100000000000001

>  <m_primary>  (2) 
energy

>  <rmsd>  (2) 
6.674777669926316

>  <m_score__min__rmsd>  (2) 
6.674777669926316

>  <meeko>  (2) 
{"free_energy": -6.52, "intermolecular_energy": -8.31, "internal_energy": -4.59, "cluster_size": 22, "cluster_id": 5, "rank_in_cluster": 21}

>  <energy>  (2) 
-9.9

>  <cluster_rmsd>  (2) 
0.14

>  <cluster>  (2) 
1

$$$$

     RDKit          3D

 58 62  0  0  0  0  0  0  0  0999 V2000
  137.3800   75.7960  222.7190 O   0  0  0  0  0  0  0  0  0  0  0  0
  138.5800   76.0750  222.5160 C   0  0  0  0  0  0  0  0  0  0  0  0
  139.4710   75.0500  222.1200 N   0  0  0  0  0  0  0  0  0  0  0  0
  139.1280   73.6810  221.9190 C   0  0  0  0  0  0  0  0  0  0  0  0
  140.2640   72.8340  221.4940 C   0  0  0  0  0  0  0  0  0  0  0  0
  140.4930   71.6840  221.9570 O   0  0  0  0  0  0  0  0  0  0  0  0
  141.1450   73.3590  220.5020 N   0  0  0  0  0  0  0  0  0  0  0  0
  140.7590   73.2850  219.1100 C   0  0  0  0  0  0  0  0  0  0  0  0
  141.9060   73.1150  218.1720 C   0  0  0  0  0  0  0  0  0  0  0  0
  143.2400   72.8390  218.7370 C   0  0  0  0  0  0  0  0  0  0  0  0
  143.4690   73.1100  220.1840 C   0  0  0  0  0  0  0  0  0  0  0  0
  142.4050   73.9610  220.8260 C   0  0  1  0  0  0  0  0  0  0  0  0
  142.5550   75.3300  220.3080 C   0  0  0  0  0  0  0  0  0  0  0  0
  143.6450   75.8770  219.6590 C   0  0  0  0  0  0  0  0  0  0  0  0
  143.3920   77.1650  219.3390 N   0  0  0  0  0  0  0  0  0  0  0  0
  142.1510   77.4310  219.7820 C   0  0  0  0  0  0  0  0  0  0  0  0
  141.4850   78.7080  219.6430 C   0  0  0  0  0  0  0  0  0  0  0  0
  142.1670   79.9030  219.5580 C   0  0  0  0  0  0  0  0  0  0  0  0
  141.5370   81.1220  219.4250 C   0  0  0  0  0  0  0  0  0  0  0  0
  140.1420   81.1880  219.3720 C   0  0  0  0  0  0  0  0  0  0  0  0
  139.4580   80.0010  219.4560 C   0  0  0  0  0  0  0  0  0  0  0  0
  140.0950   78.7830  219.5890 C   0  0  0  0  0  0  0  0  0  0  0  0
  141.6510   76.3450  220.3570 N   0  0  0  0  0  0  0  0  0  0  0  0
  139.1080   77.4470  222.6780 C   0  0  0  0  0  0  0  0  0  0  0  0
  138.2980   78.5410  222.7390 C   0  0  0  0  0  0  0  0  0  0  0  0
  138.7730   79.8350  222.8900 C   0  0  0  0  0  0  0  0  0  0  0  0
  140.1440   80.0080  222.9810 C   0  0  0  0  0  0  0  0  0  0  0  0
  140.7420   81.2380  223.1320 C   0  0  0  0  0  0  0  0  0  0  0  0
  142.1270   81.3750  223.2200 C   0  0  0  0  0  0  0  0  0  0  0  0
  142.9440   80.2550  223.1570 C   0  0  0  0  0  0  0  0  0  0  0  0
  142.3430   79.0150  223.0040 C   0  0  0  0  0  0  0  0  0  0  0  0
  140.9690   78.9040  222.9190 C   0  0  0  0  0  0  0  0  0  0  0  0
  140.4530   77.6590  222.7710 N   0  0  0  0  0  0  0  0  0  0  0  0
  140.4860   75.3200  221.9550 H   0  0  0  0  0  0  0  0  0  0  0  0
  138.7324   73.2808  222.8642 H   0  0  0  0  0  0  0  0  0  0  0  0
  138.3879   73.6536  221.1057 H   0  0  0  0  0  0  0  0  0  0  0  0
  140.0793   72.4293  218.9843 H   0  0  0  0  0  0  0  0  0  0  0  0
  140.2821   74.2442  218.8600 H   0  0  0  0  0  0  0  0  0  0  0  0
  141.6571   72.2785  217.5024 H   0  0  0  0  0  0  0  0  0  0  0  0
  142.0133   74.1005  217.6952 H   0  0  0  0  0  0  0  0  0  0  0  0
  143.4493   71.7722  218.5693 H   0  0  0  0  0  0  0  0  0  0  0  0
  143.9030   73.5496  218.2217 H   0  0  0  0  0  0  0  0  0  0  0  0
  143.5075   72.1469  220.7140 H   0  0  0  0  0  0  0  0  0  0  0  0
  144.4115   73.6725  220.2562 H   0  0  0  0  0  0  0  0  0  0  0  0
  142.4820   74.0205  221.9217 H   0  0  0  0  0  0  0  0  0  0  0  0
  144.5804   75.3429  219.4358 H   0  0  0  0  0  0  0  0  0  0  0  0
  144.0260   77.8330  218.8460 H   0  0  0  0  0  0  0  0  0  0  0  0
  143.2661   79.8829  219.5982 H   0  0  0  0  0  0  0  0  0  0  0  0
  142.1332   82.0441  219.3605 H   0  0  0  0  0  0  0  0  0  0  0  0
  139.6157   82.1483  219.2676 H   0  0  0  0  0  0  0  0  0  0  0  0
  138.3589   80.0207  219.4158 H   0  0  0  0  0  0  0  0  0  0  0  0
  139.4979   77.8614  219.6531 H   0  0  0  0  0  0  0  0  0  0  0  0
  137.2110   78.3899  222.6646 H   0  0  0  0  0  0  0  0  0  0  0  0
  138.0859   80.6928  222.9358 H   0  0  0  0  0  0  0  0  0  0  0  0
  140.1107   82.1373  223.1847 H   0  0  0  0  0  0  0  0  0  0  0  0
  142.5730   82.3734  223.3397 H   0  0  0  0  0  0  0  0  0  0  0  0
  144.0378   80.3484  223.2265 H   0  0  0  0  0  0  0  0  0  0  0  0
  142.9667   78.1106  222.9498 H   0  0  0  0  0  0  0  0  0  0  0  0
  1  2  2  0
  2  3  1  0
  3  4  1  0
  4  5  1  0
  5  6  2  0
  5  7  1  0
  7  8  1  0
  8  9  1  0
  9 10  1  0
 10 11  1  0
 11 12  1  0
 12 13  1  0
 13 14  2  0
 14 15  1  0
 15 16  1  0
 16 17  1  0
 17 18  2  0
 18 19  1  0
 19 20  2  0
 20 21  1  0
 21 22  2  0
 16 23  2  0
  2 24  1  0
 24 25  2  0
 25 26  1  0
 26 27  2  0
 27 28  1  0
 28 29  2  0
 29 30  1  0
 30 31  2  0
 31 32  1  0
 32 33  2  0
 12  7  1  0
 23 13  1  0
 33 24  1  0
 22 17  1  0
 32 27  1  0
  3 34  1  0
  4 35  1  0
  4 36  1  0
  8 37  1  0
  8 38  1  0
  9 39  1  0
  9 40  1  0
 10 41  1  0
 10 42  1  0
 11 43  1  0
 11 44  1  0
 12 45  1  1
 14 46  1  0
 15 47  1  0
 18 48  1  0
 19 49  1  0
 20 50  1  0
 21 51  1  0
 22 52  1  0
 25 53  1  0
 26 54  1  0
 28 55  1  0
 29 56  1  0
 30 57  1  0
 31 58  1  0
M  END
>  <smiles>  (3) 
O=C(NCC(=O)N1CCCC[C@H]1c1c[nH]c(-c2ccccc2)n1)c1ccc2ccccc2n1

>  <score_type>  (3) 
oracle

>  <origin>  (3) 
autodockgpu

>  <m_score__min__energy>  (3) 
-9.9100000000000001

>  <m_primary>  (3) 
energy

>  <rmsd>  (3) 
6.689025901202403

>  <m_score__min__rmsd>  (3) 
6.689025901202403

>  <meeko>  (3) 
{"free_energy": -6.6, "intermolecular_energy": -8.39, "internal_energy": -4.55, "cluster_size": 22, "cluster_id": 5, "rank_in_cluster": 19}

>  <energy>  (3) 
-9.89

>  <cluster_rmsd>  (3) 
0.39

>  <cluster>  (3) 
1

$$$$

     RDKit          3D

 58 62  0  0  0  0  0  0  0  0999 V2000
  140.3480   73.0360  222.5340 O   0  0  0  0  0  0  0  0  0  0  0  0
  139.5910   72.2050  223.0750 C   0  0  0  0  0  0  0  0  0  0  0  0
  138.2940   72.0040  222.5480 N   0  0  0  0  0  0  0  0  0  0  0  0
  137.7410   72.6770  221.4200 C   0  0  0  0  0  0  0  0  0  0  0  0
  136.6490   73.6170  221.7560 C   0  0  0  0  0  0  0  0  0  0  0  0
  135.4420   73.2740  221.8780 O   0  0  0  0  0  0  0  0  0  0  0  0
  136.9930   74.9880  221.9490 N   0  0  0  0  0  0  0  0  0  0  0  0
  136.5750   75.6520  223.1650 C   0  0  0  0  0  0  0  0  0  0  0  0
  136.2750   77.1020  222.9900 C   0  0  0  0  0  0  0  0  0  0  0  0
  136.2290   77.6490  221.6220 C   0  0  0  0  0  0  0  0  0  0  0  0
  136.8410   76.8570  220.5180 C   0  0  0  0  0  0  0  0  0  0  0  0
  137.7400   75.7430  220.9860 C   0  0  1  0  0  0  0  0  0  0  0  0
  138.9610   76.3550  221.5340 C   0  0  0  0  0  0  0  0  0  0  0  0
  140.1630   75.7370  221.8230 C   0  0  0  0  0  0  0  0  0  0  0  0
  141.0400   76.6410  222.3110 N   0  0  0  0  0  0  0  0  0  0  0  0
  140.3980   77.8220  222.3300 C   0  0  0  0  0  0  0  0  0  0  0  0
  140.9800   79.0660  222.7860 C   0  0  0  0  0  0  0  0  0  0  0  0
  140.3590   80.2860  222.6250 C   0  0  0  0  0  0  0  0  0  0  0  0
  140.9090   81.4740  223.0580 C   0  0  0  0  0  0  0  0  0  0  0  0
  142.1540   81.4800  223.6930 C   0  0  0  0  0  0  0  0  0  0  0  0
  142.7770   80.2670  223.8550 C   0  0  0  0  0  0  0  0  0  0  0  0
  142.2200   79.0810  223.4200 C   0  0  0  0  0  0  0  0  0  0  0  0
  139.1640   77.6560  221.8700 N   0  0  0  0  0  0  0  0  0  0  0  0
  140.0040   71.4170  224.2570 C   0  0  0  0  0  0  0  0  0  0  0  0
  140.9330   71.8630  225.1480 C   0  0  0  0  0  0  0  0  0  0  0  0
  141.3330   71.1400  226.2610 C   0  0  0  0  0  0  0  0  0  0  0  0
  140.7480   69.9010  226.4640 C   0  0  0  0  0  0  0  0  0  0  0  0
  141.0560   69.0850  227.5280 C   0  0  0  0  0  0  0  0  0  0  0  0
  140.4480   67.8430  227.7020 C   0  0  0  0  0  0  0  0  0  0  0  0
  139.5020   67.3960  226.7900 C   0  0  0  0  0  0  0  0  0  0  0  0
  139.1900   68.2160  225.7160 C   0  0  0  0  0  0  0  0  0  0  0  0
  139.8070   69.4430  225.5660 C   0  0  0  0  0  0  0  0  0  0  0  0
  139.4510   70.1920  224.4920 N   0  0  0  0  0  0  0  0  0  0  0  0
  137.6730   71.2890  223.0320 H   0  0  0  0  0  0  0  0  0  0  0  0
  138.5449   73.2428  220.9264 H   0  0  0  0  0  0  0  0  0  0  0  0
  137.3064   71.9037  220.7695 H   0  0  0  0  0  0  0  0  0  0  0  0
  135.6681   75.1533  223.5375 H   0  0  0  0  0  0  0  0  0  0  0  0
  137.4156   75.5832  223.8711 H   0  0  0  0  0  0  0  0  0  0  0  0
  135.2922   77.2881  223.4477 H   0  0  0  0  0  0  0  0  0  0  0  0
  137.1302   77.6129  223.4565 H   0  0  0  0  0  0  0  0  0  0  0  0
  135.1692   77.7965  221.3668 H   0  0  0  0  0  0  0  0  0  0  0  0
  136.8460   78.5581  221.6749 H   0  0  0  0  0  0  0  0  0  0  0  0
  136.0307   76.4179  219.9175 H   0  0  0  0  0  0  0  0  0  0  0  0
  137.4697   77.5507  219.9405 H   0  0  0  0  0  0  0  0  0  0  0  0
  138.0545   75.0568  220.1859 H   0  0  0  0  0  0  0  0  0  0  0  0
  140.3742   74.6674  221.6772 H   0  0  0  0  0  0  0  0  0  0  0  0
  142.0230   76.4700  222.6160 H   0  0  0  0  0  0  0  0  0  0  0  0
  139.3783   80.3132  222.1276 H   0  0  0  0  0  0  0  0  0  0  0  0
  140.3669   82.4186  222.9034 H   0  0  0  0  0  0  0  0  0  0  0  0
  142.6141   82.4143  224.0471 H   0  0  0  0  0  0  0  0  0  0  0  0
  143.7585   80.2392  224.3509 H   0  0  0  0  0  0  0  0  0  0  0  0
  142.7620   78.1366  223.5760 H   0  0  0  0  0  0  0  0  0  0  0  0
  141.3897   72.8487  224.9751 H   0  0  0  0  0  0  0  0  0  0  0  0
  142.0871   71.5356  226.9573 H   0  0  0  0  0  0  0  0  0  0  0  0
  141.8029   69.4222  228.2618 H   0  0  0  0  0  0  0  0  0  0  0  0
  140.7185   67.2156  228.5641 H   0  0  0  0  0  0  0  0  0  0  0  0
  139.0134   66.4185  226.9156 H   0  0  0  0  0  0  0  0  0  0  0  0
  138.4447   67.8866  224.9771 H   0  0  0  0  0  0  0  0  0  0  0  0
  1  2  2  0
  2  3  1  0
  3  4  1  0
  4  5  1  0
  5  6  2  0
  5  7  1  0
  7  8  1  0
  8  9  1  0
  9 10  1  0
 10 11  1  0
 11 12  1  0
 12 13  1  0
 13 14  2  0
 14 15  1  0
 15 16  1  0
 16 17  1  0
 17 18  2  0
 18 19  1  0
 19 20  2  0
 20 21  1  0
 21 22  2  0
 16 23  2  0
  2 24  1  0
 24 25  2  0
 25 26  1  0
 26 27  2  0
 27 28  1  0
 28 29  2  0
 29 30  1  0
 30 31  2  0
 31 32  1  0
 32 33  2  0
 12  7  1  0
 23 13  1  0
 33 24  1  0
 22 17  1  0
 32 27  1  0
  3 34  1  0
  4 35  1  0
  4 36  1  0
  8 37  1  0
  8 38  1  0
  9 39  1  0
  9 40  1  0
 10 41  1  0
 10 42  1  0
 11 43  1  0
 11 44  1  0
 12 45  1  6
 14 46  1  0
 15 47  1  0
 18 48  1  0
 19 49  1  0
 20 50  1  0
 21 51  1  0
 22 52  1  0
 25 53  1  0
 26 54  1  0
 28 55  1  0
 29 56  1  0
 30 57  1  0
 31 58  1  0
M  END
>  <smiles>  (4) 
O=C(NCC(=O)N1CCCC[C@H]1c1c[nH]c(-c2ccccc2)n1)c1ccc2ccccc2n1

>  <score_type>  (4) 
oracle

>  <origin>  (4) 
autodockgpu

>  <m_score__min__energy>  (4) 
-9.9100000000000001

>  <m_primary>  (4) 
energy

>  <rmsd>  (4) 
4.057888345789797

>  <m_score__min__rmsd>  (4) 
4.057888345789797

>  <meeko>  (4) 
{"free_energy": -9.4, "intermolecular_energy": -11.19, "internal_energy": -1.98, "cluster_size": 12, "cluster_id": 2, "rank_in_cluster": 4}

>  <energy>  (4) 
-9.86

>  <cluster_rmsd>  (4) 
0.05

>  <cluster>  (4) 
1

$$$$

     RDKit          3D

 58 62  0  0  0  0  0  0  0  0999 V2000
  137.3660   75.7890  222.6870 O   0  0  0  0  0  0  0  0  0  0  0  0
  138.5660   76.0570  222.4730 C   0  0  0  0  0  0  0  0  0  0  0  0
  139.4370   75.0340  222.0320 N   0  0  0  0  0  0  0  0  0  0  0  0
  139.0720   73.6760  221.7970 C   0  0  0  0  0  0  0  0  0  0  0  0
  140.2050   72.8100  221.4010 C   0  0  0  0  0  0  0  0  0  0  0  0
  140.3890   71.6470  221.8500 O   0  0  0  0  0  0  0  0  0  0  0  0
  141.1370   73.3330  220.4550 N   0  0  0  0  0  0  0  0  0  0  0  0
  140.8370   73.2330  219.0440 C   0  0  0  0  0  0  0  0  0  0  0  0
  142.0400   73.0650  218.1790 C   0  0  0  0  0  0  0  0  0  0  0  0
  143.3400   72.8150  218.8270 C   0  0  0  0  0  0  0  0  0  0  0  0
  143.4790   73.1120  220.2810 C   0  0  0  0  0  0  0  0  0  0  0  0
  142.3680   73.9570  220.8450 C   0  0  1  0  0  0  0  0  0  0  0  0
  142.5310   75.3200  220.3160 C   0  0  0  0  0  0  0  0  0  0  0  0
  143.6250   75.8500  219.6580 C   0  0  0  0  0  0  0  0  0  0  0  0
  143.3850   77.1380  219.3300 N   0  0  0  0  0  0  0  0  0  0  0  0
  142.1480   77.4210  219.7760 C   0  0  0  0  0  0  0  0  0  0  0  0
  141.4960   78.7050  219.6300 C   0  0  0  0  0  0  0  0  0  0  0  0
  142.1920   79.8920  219.5420 C   0  0  0  0  0  0  0  0  0  0  0  0
  141.5740   81.1170  219.4020 C   0  0  0  0  0  0  0  0  0  0  0  0
  140.1810   81.1980  219.3440 C   0  0  0  0  0  0  0  0  0  0  0  0
  139.4830   80.0180  219.4300 C   0  0  0  0  0  0  0  0  0  0  0  0
  140.1070   78.7940  219.5700 C   0  0  0  0  0  0  0  0  0  0  0  0
  141.6390   76.3450  220.3610 N   0  0  0  0  0  0  0  0  0  0  0  0
  139.1150   77.4180  222.6670 C   0  0  0  0  0  0  0  0  0  0  0  0
  138.3210   78.5190  222.7810 C   0  0  0  0  0  0  0  0  0  0  0  0
  138.8160   79.8010  222.9630 C   0  0  0  0  0  0  0  0  0  0  0  0
  140.1900   79.9540  223.0290 C   0  0  0  0  0  0  0  0  0  0  0  0
  140.8070   81.1710  223.2060 C   0  0  0  0  0  0  0  0  0  0  0  0
  142.1950   81.2890  223.2680 C   0  0  0  0  0  0  0  0  0  0  0  0
  142.9970   80.1610  223.1510 C   0  0  0  0  0  0  0  0  0  0  0  0
  142.3770   78.9340  222.9720 C   0  0  0  0  0  0  0  0  0  0  0  0
  141.0000   78.8430  222.9130 C   0  0  0  0  0  0  0  0  0  0  0  0
  140.4640   77.6100  222.7370 N   0  0  0  0  0  0  0  0  0  0  0  0
  140.4530   75.2950  221.8590 H   0  0  0  0  0  0  0  0  0  0  0  0
  138.6327   73.2707  222.7205 H   0  0  0  0  0  0  0  0  0  0  0  0
  138.3623   73.6772  220.9566 H   0  0  0  0  0  0  0  0  0  0  0  0
  140.1772   72.3662  218.8912 H   0  0  0  0  0  0  0  0  0  0  0  0
  140.3641   74.1819  218.7510 H   0  0  0  0  0  0  0  0  0  0  0  0
  141.8423   72.2158  217.5084 H   0  0  0  0  0  0  0  0  0  0  0  0
  142.1635   74.0447  217.6944 H   0  0  0  0  0  0  0  0  0  0  0  0
  143.5713   71.7484  218.6899 H   0  0  0  0  0  0  0  0  0  0  0  0
  144.0243   73.5257  218.3405 H   0  0  0  0  0  0  0  0  0  0  0  0
  143.4990   72.1579  220.8280 H   0  0  0  0  0  0  0  0  0  0  0  0
  144.4078   73.6893  220.3993 H   0  0  0  0  0  0  0  0  0  0  0  0
  142.3784   74.0332  221.9423 H   0  0  0  0  0  0  0  0  0  0  0  0
  144.5533   75.3038  219.4347 H   0  0  0  0  0  0  0  0  0  0  0  0
  144.0240   77.7950  218.8290 H   0  0  0  0  0  0  0  0  0  0  0  0
  143.2907   79.8605  219.5855 H   0  0  0  0  0  0  0  0  0  0  0  0
  142.1799   82.0327  219.3358 H   0  0  0  0  0  0  0  0  0  0  0  0
  139.6657   82.1636  219.2343 H   0  0  0  0  0  0  0  0  0  0  0  0
  138.3843   80.0493  219.3856 H   0  0  0  0  0  0  0  0  0  0  0  0
  139.5003   77.8787  219.6349 H   0  0  0  0  0  0  0  0  0  0  0  0
  137.2307   78.3838  222.7258 H   0  0  0  0  0  0  0  0  0  0  0  0
  138.1413   80.6653  223.0517 H   0  0  0  0  0  0  0  0  0  0  0  0
  140.1884   82.0756  223.3012 H   0  0  0  0  0  0  0  0  0  0  0  0
  142.6559   82.2777  223.4099 H   0  0  0  0  0  0  0  0  0  0  0  0
  144.0932   80.2390  223.1990 H   0  0  0  0  0  0  0  0  0  0  0  0
  142.9876   78.0241  222.8760 H   0  0  0  0  0  0  0  0  0  0  0  0
  1  2  2  0
  2  3  1  0
  3  4  1  0
  4  5  1  0
  5  6  2  0
  5  7  1  0
  7  8  1  0
  8  9  1  0
  9 10  1  0
 10 11  1  0
 11 12  1  0
 12 13  1  0
 13 14  2  0
 14 15  1  0
 15 16  1  0
 16 17  1  0
 17 18  2  0
 18 19  1  0
 19 20  2  0
 20 21  1  0
 21 22  2  0
 16 23  2  0
  2 24  1  0
 24 25  2  0
 25 26  1  0
 26 27  2  0
 27 28  1  0
 28 29  2  0
 29 30  1  0
 30 31  2  0
 31 32  1  0
 32 33  2  0
 12  7  1  0
 23 13  1  0
 33 24  1  0
 22 17  1  0
 32 27  1  0
  3 34  1  0
  4 35  1  0
  4 36  1  0
  8 37  1  0
  8 38  1  0
  9 39  1  0
  9 40  1  0
 10 41  1  0
 10 42  1  0
 11 43  1  0
 11 44  1  0
 12 45  1  1
 14 46  1  0
 15 47  1  0
 18 48  1  0
 19 49  1  0
 20 50  1  0
 21 51  1  0
 22 52  1  0
 25 53  1  0
 26 54  1  0
 28 55  1  0
 29 56  1  0
 30 57  1  0
 31 58  1  0
M  END
>  <smiles>  (5) 
O=C(NCC(=O)N1CCCC[C@H]1c1c[nH]c(-c2ccccc2)n1)c1ccc2ccccc2n1

>  <score_type>  (5) 
oracle

>  <origin>  (5) 
autodockgpu

>  <m_score__min__energy>  (5) 
-9.9100000000000001

>  <m_primary>  (5) 
energy

>  <rmsd>  (5) 
6.668745528153665

>  <m_score__min__rmsd>  (5) 
6.668745528153665

>  <meeko>  (5) 
{"free_energy": -6.62, "intermolecular_energy": -8.41, "internal_energy": -4.57, "cluster_size": 22, "cluster_id": 5, "rank_in_cluster": 10}

>  <energy>  (5) 
-9.86

>  <cluster_rmsd>  (5) 
0.1

>  <cluster>  (5) 
1

$$$$

     RDKit          3D

 58 62  0  0  0  0  0  0  0  0999 V2000
  140.0680   73.0020  222.7000 O   0  0  0  0  0  0  0  0  0  0  0  0
  139.2880   72.0400  222.8570 C   0  0  0  0  0  0  0  0  0  0  0  0
  138.1910   71.8890  221.9780 N   0  0  0  0  0  0  0  0  0  0  0  0
  137.8720   72.7510  220.8880 C   0  0  0  0  0  0  0  0  0  0  0  0
  136.7320   73.6560  221.1520 C   0  0  0  0  0  0  0  0  0  0  0  0
  135.5250   73.3290  220.9900 O   0  0  0  0  0  0  0  0  0  0  0  0
  137.0270   74.9740  221.6140 N   0  0  0  0  0  0  0  0  0  0  0  0
  136.6190   75.3570  222.9480 C   0  0  0  0  0  0  0  0  0  0  0  0
  136.2570   76.7980  223.0800 C   0  0  0  0  0  0  0  0  0  0  0  0
  136.1490   77.6090  221.8530 C   0  0  0  0  0  0  0  0  0  0  0  0
  136.7590   77.0850  220.5990 C   0  0  0  0  0  0  0  0  0  0  0  0
  137.7140   75.9410  220.8100 C   0  0  1  0  0  0  0  0  0  0  0  0
  138.9260   76.4830  221.4460 C   0  0  0  0  0  0  0  0  0  0  0  0
  140.0580   75.7940  221.8390 C   0  0  0  0  0  0  0  0  0  0  0  0
  140.9510   76.6490  222.3830 N   0  0  0  0  0  0  0  0  0  0  0  0
  140.3890   77.8690  222.3350 C   0  0  0  0  0  0  0  0  0  0  0  0
  141.0140   79.0810  222.8180 C   0  0  0  0  0  0  0  0  0  0  0  0
  142.2450   79.0920  223.4400 C   0  0  0  0  0  0  0  0  0  0  0  0
  142.8440   80.2440  223.9010 C   0  0  0  0  0  0  0  0  0  0  0  0
  142.2040   81.4770  223.7510 C   0  0  0  0  0  0  0  0  0  0  0  0
  140.9780   81.4720  223.1330 C   0  0  0  0  0  0  0  0  0  0  0  0
  140.3830   80.3140  222.6720 C   0  0  0  0  0  0  0  0  0  0  0  0
  139.1880   77.7750  221.7790 N   0  0  0  0  0  0  0  0  0  0  0  0
  139.4700   71.0470  223.9390 C   0  0  0  0  0  0  0  0  0  0  0  0
  139.0610   69.7530  223.8220 C   0  0  0  0  0  0  0  0  0  0  0  0
  139.2230   68.8080  224.8240 C   0  0  0  0  0  0  0  0  0  0  0  0
  139.8320   69.2160  225.9970 C   0  0  0  0  0  0  0  0  0  0  0  0
  140.0520   68.3780  227.0660 C   0  0  0  0  0  0  0  0  0  0  0  0
  140.6690   68.8240  228.2350 C   0  0  0  0  0  0  0  0  0  0  0  0
  141.0820   70.1440  228.3450 C   0  0  0  0  0  0  0  0  0  0  0  0
  140.8620   70.9910  227.2690 C   0  0  0  0  0  0  0  0  0  0  0  0
  140.2480   70.5260  226.1220 C   0  0  0  0  0  0  0  0  0  0  0  0
  140.0660   71.4110  225.1110 N   0  0  0  0  0  0  0  0  0  0  0  0
  137.5440   71.0590  222.1380 H   0  0  0  0  0  0  0  0  0  0  0  0
  138.7563   73.3650  220.6620 H   0  0  0  0  0  0  0  0  0  0  0  0
  137.5788   72.1059  220.0466 H   0  0  0  0  0  0  0  0  0  0  0  0
  135.7437   74.7530  223.2291 H   0  0  0  0  0  0  0  0  0  0  0  0
  137.4820   75.1833  223.6076 H   0  0  0  0  0  0  0  0  0  0  0  0
  135.2817   76.8433  223.5867 H   0  0  0  0  0  0  0  0  0  0  0  0
  137.1045   77.2411  223.6234 H   0  0  0  0  0  0  0  0  0  0  0  0
  135.0772   77.7577  221.6553 H   0  0  0  0  0  0  0  0  0  0  0  0
  136.7305   78.5155  222.0771 H   0  0  0  0  0  0  0  0  0  0  0  0
  135.9492   76.7413  219.9386 H   0  0  0  0  0  0  0  0  0  0  0  0
  137.3432   77.9087  220.1629 H   0  0  0  0  0  0  0  0  0  0  0  0
  138.0310   75.4465  219.8799 H   0  0  0  0  0  0  0  0  0  0  0  0
  140.2091   74.7104  221.7256 H   0  0  0  0  0  0  0  0  0  0  0  0
  141.8940   76.4200  222.7680 H   0  0  0  0  0  0  0  0  0  0  0  0
  142.7732   78.1365  223.5743 H   0  0  0  0  0  0  0  0  0  0  0  0
  143.8288   80.1929  224.3885 H   0  0  0  0  0  0  0  0  0  0  0  0
  142.6619   82.4098  224.1119 H   0  0  0  0  0  0  0  0  0  0  0  0
  140.4491   82.4273  222.9999 H   0  0  0  0  0  0  0  0  0  0  0  0
  139.3988   80.3662  222.1836 H   0  0  0  0  0  0  0  0  0  0  0  0
  138.5773   69.4415  222.8845 H   0  0  0  0  0  0  0  0  0  0  0  0
  138.8796   67.7715  224.6908 H   0  0  0  0  0  0  0  0  0  0  0  0
  139.7326   67.3277  226.9969 H   0  0  0  0  0  0  0  0  0  0  0  0
  140.8284   68.1276  229.0714 H   0  0  0  0  0  0  0  0  0  0  0  0
  141.5706   70.5088  229.2606 H   0  0  0  0  0  0  0  0  0  0  0  0
  141.1792   72.0425  227.3294 H   0  0  0  0  0  0  0  0  0  0  0  0
  1  2  2  0
  2  3  1  0
  3  4  1  0
  4  5  1  0
  5  6  2  0
  5  7  1  0
  7  8  1  0
  8  9  1  0
  9 10  1  0
 10 11  1  0
 11 12  1  0
 12 13  1  0
 13 14  2  0
 14 15  1  0
 15 16  1  0
 16 17  1  0
 17 18  2  0
 18 19  1  0
 19 20  2  0
 20 21  1  0
 21 22  2  0
 16 23  2  0
  2 24  1  0
 24 25  2  0
 25 26  1  0
 26 27  2  0
 27 28  1  0
 28 29  2  0
 29 30  1  0
 30 31  2  0
 31 32  1  0
 32 33  2  0
 12  7  1  0
 23 13  1  0
 33 24  1  0
 22 17  1  0
 32 27  1  0
  3 34  1  0
  4 35  1  0
  4 36  1  0
  8 37  1  0
  8 38  1  0
  9 39  1  0
  9 40  1  0
 10 41  1  0
 10 42  1  0
 11 43  1  0
 11 44  1  0
 12 45  1  6
 14 46  1  0
 15 47  1  0
 18 48  1  0
 19 49  1  0
 20 50  1  0
 21 51  1  0
 22 52  1  0
 25 53  1  0
 26 54  1  0
 28 55  1  0
 29 56  1  0
 30 57  1  0
 31 58  1  0
M  END
>  <smiles>  (6) 
O=C(NCC(=O)N1CCCC[C@H]1c1c[nH]c(-c2ccccc2)n1)c1ccc2ccccc2n1

>  <score_type>  (6) 
oracle

>  <origin>  (6) 
autodockgpu

>  <m_score__min__energy>  (6) 
-9.9100000000000001

>  <m_primary>  (6) 
energy

>  <rmsd>  (6) 
3.5566676997935263

>  <m_score__min__rmsd>  (6) 
3.5566676997935263

>  <meeko>  (6) 
{"free_energy": -9.36, "intermolecular_energy": -11.15, "internal_energy": -1.74, "cluster_size": 12, "cluster_id": 2, "rank_in_cluster": 6}

>  <energy>  (6) 
-9.81

>  <cluster_rmsd>  (6) 
0.23

>  <cluster>  (6) 
1

$$$$

     RDKit          3D

 58 62  0  0  0  0  0  0  0  0999 V2000
  139.2340   78.3100  222.9800 O   0  0  0  0  0  0  0  0  0  0  0  0
  140.1040   77.5600  222.4910 C   0  0  0  0  0  0  0  0  0  0  0  0
  141.3840   78.0830  222.1980 N   0  0  0  0  0  0  0  0  0  0  0  0
  141.8010   79.4300  222.4130 C   0  0  0  0  0  0  0  0  0  0  0  0
  141.6610   80.2990  221.2250 C   0  0  0  0  0  0  0  0  0  0  0  0
  141.5540   81.5540  221.2820 O   0  0  0  0  0  0  0  0  0  0  0  0
  141.6450   79.6700  219.9440 N   0  0  0  0  0  0  0  0  0  0  0  0
  142.5630   80.1300  218.9240 C   0  0  0  0  0  0  0  0  0  0  0  0
  142.0280   80.0260  217.5360 C   0  0  0  0  0  0  0  0  0  0  0  0
  140.6060   79.6810  217.3570 C   0  0  0  0  0  0  0  0  0  0  0  0
  139.8670   79.0890  218.5070 C   0  0  0  0  0  0  0  0  0  0  0  0
  140.7540   78.5950  219.6190 C   0  0  1  0  0  0  0  0  0  0  0  0
  141.4400   77.3850  219.1390 C   0  0  0  0  0  0  0  0  0  0  0  0
  141.2190   76.6950  217.9630 C   0  0  0  0  0  0  0  0  0  0  0  0
  142.0540   75.6350  217.8870 N   0  0  0  0  0  0  0  0  0  0  0  0
  142.7980   75.6560  219.0070 C   0  0  0  0  0  0  0  0  0  0  0  0
  143.8250   74.6890  219.3280 C   0  0  0  0  0  0  0  0  0  0  0  0
  144.5870   74.7590  220.4750 C   0  0  0  0  0  0  0  0  0  0  0  0
  145.5660   73.8400  220.7860 C   0  0  0  0  0  0  0  0  0  0  0  0
  145.8280   72.7740  219.9210 C   0  0  0  0  0  0  0  0  0  0  0  0
  145.0720   72.6990  218.7770 C   0  0  0  0  0  0  0  0  0  0  0  0
  144.0920   73.6230  218.4720 C   0  0  0  0  0  0  0  0  0  0  0  0
  142.4360   76.6920  219.7520 N   0  0  0  0  0  0  0  0  0  0  0  0
  139.8410   76.1330  222.2030 C   0  0  0  0  0  0  0  0  0  0  0  0
  138.5870   75.5990  222.2290 C   0  0  0  0  0  0  0  0  0  0  0  0
  138.3210   74.2640  221.9620 C   0  0  0  0  0  0  0  0  0  0  0  0
  139.3940   73.4450  221.6570 C   0  0  0  0  0  0  0  0  0  0  0  0
  139.2650   72.1050  221.3730 C   0  0  0  0  0  0  0  0  0  0  0  0
  140.3690   71.3080  221.0690 C   0  0  0  0  0  0  0  0  0  0  0  0
  141.6420   71.8610  221.0460 C   0  0  0  0  0  0  0  0  0  0  0  0
  141.7750   73.2120  221.3310 C   0  0  0  0  0  0  0  0  0  0  0  0
  140.6660   73.9790  221.6300 C   0  0  0  0  0  0  0  0  0  0  0  0
  140.8720   75.2930  221.8980 N   0  0  0  0  0  0  0  0  0  0  0  0
  142.1030   77.4190  221.7820 H   0  0  0  0  0  0  0  0  0  0  0  0
  141.1937   79.8547  223.2259 H   0  0  0  0  0  0  0  0  0  0  0  0
  142.8727   79.3964  222.6586 H   0  0  0  0  0  0  0  0  0  0  0  0
  142.8027   81.1847  219.1243 H   0  0  0  0  0  0  0  0  0  0  0  0
  143.4476   79.4781  218.9741 H   0  0  0  0  0  0  0  0  0  0  0  0
  142.1899   81.0000  217.0512 H   0  0  0  0  0  0  0  0  0  0  0  0
  142.5700   79.1737  217.1003 H   0  0  0  0  0  0  0  0  0  0  0  0
  140.0808   80.6055  217.0750 H   0  0  0  0  0  0  0  0  0  0  0  0
  140.6166   78.8799  216.6032 H   0  0  0  0  0  0  0  0  0  0  0  0
  139.1939   79.8564  218.9170 H   0  0  0  0  0  0  0  0  0  0  0  0
  139.3264   78.2129  218.1195 H   0  0  0  0  0  0  0  0  0  0  0  0
  140.2099   78.3161  220.5334 H   0  0  0  0  0  0  0  0  0  0  0  0
  140.4738   76.9678  217.2012 H   0  0  0  0  0  0  0  0  0  0  0  0
  142.1190   74.9330  217.1170 H   0  0  0  0  0  0  0  0  0  0  0  0
  144.4050   75.5877  221.1751 H   0  0  0  0  0  0  0  0  0  0  0  0
  146.1423   73.9458  221.7170 H   0  0  0  0  0  0  0  0  0  0  0  0
  146.6049   72.0286  220.1464 H   0  0  0  0  0  0  0  0  0  0  0  0
  145.2541   71.8708  218.0764 H   0  0  0  0  0  0  0  0  0  0  0  0
  143.5151   73.5159  217.5416 H   0  0  0  0  0  0  0  0  0  0  0  0
  137.7430   76.2605  222.4742 H   0  0  0  0  0  0  0  0  0  0  0  0
  137.2942   73.8706  221.9917 H   0  0  0  0  0  0  0  0  0  0  0  0
  138.2638   71.6495  221.3860 H   0  0  0  0  0  0  0  0  0  0  0  0
  140.2304   70.2395  220.8472 H   0  0  0  0  0  0  0  0  0  0  0  0
  142.5215   71.2446  220.8082 H   0  0  0  0  0  0  0  0  0  0  0  0
  142.7721   73.6764  221.3187 H   0  0  0  0  0  0  0  0  0  0  0  0
  1  2  2  0
  2  3  1  0
  3  4  1  0
  4  5  1  0
  5  6  2  0
  5  7  1  0
  7  8  1  0
  8  9  1  0
  9 10  1  0
 10 11  1  0
 11 12  1  0
 12 13  1  0
 13 14  2  0
 14 15  1  0
 15 16  1  0
 16 17  1  0
 17 18  2  0
 18 19  1  0
 19 20  2  0
 20 21  1  0
 21 22  2  0
 16 23  2  0
  2 24  1  0
 24 25  2  0
 25 26  1  0
 26 27  2  0
 27 28  1  0
 28 29  2  0
 29 30  1  0
 30 31  2  0
 31 32  1  0
 32 33  2  0
 12  7  1  0
 23 13  1  0
 33 24  1  0
 22 17  1  0
 32 27  1  0
  3 34  1  0
  4 35  1  0
  4 36  1  0
  8 37  1  0
  8 38  1  0
  9 39  1  0
  9 40  1  0
 10 41  1  0
 10 42  1  0
 11 43  1  0
 11 44  1  0
 12 45  1  1
 14 46  1  0
 15 47  1  0
 18 48  1  0
 19 49  1  0
 20 50  1  0
 21 51  1  0
 22 52  1  0
 25 53  1  0
 26 54  1  0
 28 55  1  0
 29 56  1  0
 30 57  1  0
 31 58  1  0
M  END
>  <smiles>  (7) 
O=C(NCC(=O)N1CCCC[C@H]1c1c[nH]c(-c2ccccc2)n1)c1ccc2ccccc2n1

>  <score_type>  (7) 
oracle

>  <origin>  (7) 
autodockgpu

>  <m_score__min__energy>  (7) 
-9.9100000000000001

>  <m_primary>  (7) 
energy

>  <rmsd>  (7) 
6.890717593397245

>  <m_score__min__rmsd>  (7) 
6.890717593397245

>  <meeko>  (7) 
{"free_energy": -6.57, "intermolecular_energy": -8.36, "internal_energy": -3.81, "cluster_size": 1, "cluster_id": 6, "rank_in_cluster": 1}

>  <energy>  (7) 
-9.55

>  <cluster_rmsd>  (7) 
0.53

>  <cluster>  (7) 
1

$$$$

     RDKit          3D

 58 62  0  0  0  0  0  0  0  0999 V2000
  137.3750   69.7190  222.2320 O   0  0  0  0  0  0  0  0  0  0  0  0
  137.9430   70.3790  223.1270 C   0  0  0  0  0  0  0  0  0  0  0  0
  137.9010   71.7910  223.0770 N   0  0  0  0  0  0  0  0  0  0  0  0
  137.2520   72.5700  222.0750 C   0  0  0  0  0  0  0  0  0  0  0  0
  136.3960   73.6500  222.6130 C   0  0  0  0  0  0  0  0  0  0  0  0
  135.3080   73.4470  223.2160 O   0  0  0  0  0  0  0  0  0  0  0  0
  136.8370   74.9950  222.4320 N   0  0  0  0  0  0  0  0  0  0  0  0
  136.4370   76.0010  223.3920 C   0  0  0  0  0  0  0  0  0  0  0  0
  136.2520   77.3590  222.8040 C   0  0  0  0  0  0  0  0  0  0  0  0
  136.2860   77.4990  221.3370 C   0  0  0  0  0  0  0  0  0  0  0  0
  136.8660   76.3890  220.5300 C   0  0  0  0  0  0  0  0  0  0  0  0
  137.6650   75.3980  221.3330 C   0  0  1  0  0  0  0  0  0  0  0  0
  138.9130   76.0590  221.7470 C   0  0  0  0  0  0  0  0  0  0  0  0
  140.1700   75.4970  221.8700 C   0  0  0  0  0  0  0  0  0  0  0  0
  141.0550   76.4350  222.2740 N   0  0  0  0  0  0  0  0  0  0  0  0
  140.3640   77.5800  222.4050 C   0  0  0  0  0  0  0  0  0  0  0  0
  140.9360   78.8420  222.8220 C   0  0  0  0  0  0  0  0  0  0  0  0
  142.1930   78.9460  223.3790 C   0  0  0  0  0  0  0  0  0  0  0  0
  142.7420   80.1460  223.7780 C   0  0  0  0  0  0  0  0  0  0  0  0
  142.0210   81.3330  223.6260 C   0  0  0  0  0  0  0  0  0  0  0  0
  140.7690   81.2350  223.0720 C   0  0  0  0  0  0  0  0  0  0  0  0
  140.2240   80.0300  222.6740 C   0  0  0  0  0  0  0  0  0  0  0  0
  139.0930   77.3610  222.0930 N   0  0  0  0  0  0  0  0  0  0  0  0
  138.6640   69.7320  224.2440 C   0  0  0  0  0  0  0  0  0  0  0  0
  138.8220   68.3810  224.3300 C   0  0  0  0  0  0  0  0  0  0  0  0
  139.4950   67.7560  225.3700 C   0  0  0  0  0  0  0  0  0  0  0  0
  140.0270   68.5590  226.3630 C   0  0  0  0  0  0  0  0  0  0  0  0
  140.7160   68.0650  227.4470 C   0  0  0  0  0  0  0  0  0  0  0  0
  141.2390   68.9030  228.4310 C   0  0  0  0  0  0  0  0  0  0  0  0
  141.0730   70.2780  228.3350 C   0  0  0  0  0  0  0  0  0  0  0  0
  140.3790   70.7790  227.2440 C   0  0  0  0  0  0  0  0  0  0  0  0
  139.8700   69.9270  226.2820 C   0  0  0  0  0  0  0  0  0  0  0  0
  139.2040   70.4890  225.2430 N   0  0  0  0  0  0  0  0  0  0  0  0
  138.3940   72.3250  223.8540 H   0  0  0  0  0  0  0  0  0  0  0  0
  138.0238   73.0256  221.4372 H   0  0  0  0  0  0  0  0  0  0  0  0
  136.5919   71.8877  221.5193 H   0  0  0  0  0  0  0  0  0  0  0  0
  135.4851   75.6876  223.8456 H   0  0  0  0  0  0  0  0  0  0  0  0
  137.2503   76.0804  224.1283 H   0  0  0  0  0  0  0  0  0  0  0  0
  135.2735   77.7296  223.1433 H   0  0  0  0  0  0  0  0  0  0  0  0
  137.1297   77.9249  223.1497 H   0  0  0  0  0  0  0  0  0  0  0  0
  135.2481   77.6375  220.9999 H   0  0  0  0  0  0  0  0  0  0  0  0
  136.9689   78.3436  221.1630 H   0  0  0  0  0  0  0  0  0  0  0  0
  136.0414   75.8512  220.0393 H   0  0  0  0  0  0  0  0  0  0  0  0
  137.5606   76.8486  219.8114 H   0  0  0  0  0  0  0  0  0  0  0  0
  137.9492   74.4958  220.7716 H   0  0  0  0  0  0  0  0  0  0  0  0
  140.4136   74.4433  221.6690 H   0  0  0  0  0  0  0  0  0  0  0  0
  142.0760   76.3070  222.4520 H   0  0  0  0  0  0  0  0  0  0  0  0
  142.7854   78.0286  223.5112 H   0  0  0  0  0  0  0  0  0  0  0  0
  143.7503   80.1690  224.2171 H   0  0  0  0  0  0  0  0  0  0  0  0
  142.4379   82.3025  223.9363 H   0  0  0  0  0  0  0  0  0  0  0  0
  140.1764   82.1523  222.9398 H   0  0  0  0  0  0  0  0  0  0  0  0
  139.2157   80.0082  222.2349 H   0  0  0  0  0  0  0  0  0  0  0  0
  138.3940   67.7539  223.5340 H   0  0  0  0  0  0  0  0  0  0  0  0
  139.6017   66.6617  225.4037 H   0  0  0  0  0  0  0  0  0  0  0  0
  140.8582   66.9782  227.5398 H   0  0  0  0  0  0  0  0  0  0  0  0
  141.7840   68.4740  229.2848 H   0  0  0  0  0  0  0  0  0  0  0  0
  141.4808   70.9515  229.1032 H   0  0  0  0  0  0  0  0  0  0  0  0
  140.2322   71.8645  227.1432 H   0  0  0  0  0  0  0  0  0  0  0  0
  1  2  2  0
  2  3  1  0
  3  4  1  0
  4  5  1  0
  5  6  2  0
  5  7  1  0
  7  8  1  0
  8  9  1  0
  9 10  1  0
 10 11  1  0
 11 12  1  0
 12 13  1  0
 13 14  2  0
 14 15  1  0
 15 16  1  0
 16 17  1  0
 17 18  2  0
 18 19  1  0
 19 20  2  0
 20 21  1  0
 21 22  2  0
 16 23  2  0
  2 24  1  0
 24 25  2  0
 25 26  1  0
 26 27  2  0
 27 28  1  0
 28 29  2  0
 29 30  1  0
 30 31  2  0
 31 32  1  0
 32 33  2  0
 12  7  1  0
 23 13  1  0
 33 24  1  0
 22 17  1  0
 32 27  1  0
  3 34  1  0
  4 35  1  0
  4 36  1  0
  8 37  1  0
  8 38  1  0
  9 39  1  0
  9 40  1  0
 10 41  1  0
 10 42  1  0
 11 43  1  0
 11 44  1  0
 12 45  1  6
 14 46  1  0
 15 47  1  0
 18 48  1  0
 19 49  1  0
 20 50  1  0
 21 51  1  0
 22 52  1  0
 25 53  1  0
 26 54  1  0
 28 55  1  0
 29 56  1  0
 30 57  1  0
 31 58  1  0
M  END
>  <smiles>  (8) 
O=C(NCC(=O)N1CCCC[C@H]1c1c[nH]c(-c2ccccc2)n1)c1ccc2ccccc2n1

>  <score_type>  (8) 
oracle

>  <origin>  (8) 
autodockgpu

>  <m_score__min__energy>  (8) 
-9.9100000000000001

>  <m_primary>  (8) 
energy

>  <rmsd>  (8) 
3.6846987753631457

>  <m_score__min__rmsd>  (8) 
3.6846987753631457

>  <meeko>  (8) 
{"free_energy": -9.46, "intermolecular_energy": -11.25, "internal_energy": -1.76, "cluster_size": 12, "cluster_id": 2, "rank_in_cluster": 3}

>  <energy>  (8) 
-9.46

>  <cluster_rmsd>  (8) 
0.93

>  <cluster>  (8) 
1

$$$$

     RDKit          3D

 58 62  0  0  0  0  0  0  0  0999 V2000
  140.9980   73.3240  221.9460 O   0  0  0  0  0  0  0  0  0  0  0  0
  139.9580   72.9690  222.5370 C   0  0  0  0  0  0  0  0  0  0  0  0
  138.7600   73.6890  222.3230 N   0  0  0  0  0  0  0  0  0  0  0  0
  138.6110   74.8210  221.4690 C   0  0  0  0  0  0  0  0  0  0  0  0
  138.8960   76.1130  222.1290 C   0  0  0  0  0  0  0  0  0  0  0  0
  138.1590   76.6280  223.0130 O   0  0  0  0  0  0  0  0  0  0  0  0
  140.0770   76.8110  221.7340 N   0  0  0  0  0  0  0  0  0  0  0  0
  141.0150   77.2360  222.7490 C   0  0  0  0  0  0  0  0  0  0  0  0
  141.7240   78.5070  222.4250 C   0  0  0  0  0  0  0  0  0  0  0  0
  141.2710   79.2850  221.2580 C   0  0  0  0  0  0  0  0  0  0  0  0
  140.4060   78.6130  220.2480 C   0  0  0  0  0  0  0  0  0  0  0  0
  140.3770   77.1120  220.3640 C   0  0  1  0  0  0  0  0  0  0  0  0
  141.6850   76.6030  219.9220 C   0  0  0  0  0  0  0  0  0  0  0  0
  142.5350   77.1540  218.9820 C   0  0  0  0  0  0  0  0  0  0  0  0
  143.6410   76.3880  218.8580 N   0  0  0  0  0  0  0  0  0  0  0  0
  143.4930   75.3620  219.7130 C   0  0  0  0  0  0  0  0  0  0  0  0
  144.4570   74.3000  219.8970 C   0  0  0  0  0  0  0  0  0  0  0  0
  145.4590   74.3540  220.8430 C   0  0  0  0  0  0  0  0  0  0  0  0
  146.3800   73.3440  221.0230 C   0  0  0  0  0  0  0  0  0  0  0  0
  146.3280   72.1970  220.2270 C   0  0  0  0  0  0  0  0  0  0  0  0
  145.3320   72.1370  219.2830 C   0  0  0  0  0  0  0  0  0  0  0  0
  144.4120   73.1520  219.1080 C   0  0  0  0  0  0  0  0  0  0  0  0
  142.3330   75.4860  220.3460 N   0  0  0  0  0  0  0  0  0  0  0  0
  139.9330   71.8140  223.4610 C   0  0  0  0  0  0  0  0  0  0  0  0
  139.4010   70.6090  223.1140 C   0  0  0  0  0  0  0  0  0  0  0  0
  139.3680   69.5150  223.9660 C   0  0  0  0  0  0  0  0  0  0  0  0
  139.9080   69.6710  225.2310 C   0  0  0  0  0  0  0  0  0  0  0  0
  139.9390   68.6660  226.1700 C   0  0  0  0  0  0  0  0  0  0  0  0
  140.4910   68.8590  227.4360 C   0  0  0  0  0  0  0  0  0  0  0  0
  141.0310   70.0900  227.7810 C   0  0  0  0  0  0  0  0  0  0  0  0
  141.0010   71.1050  226.8360 C   0  0  0  0  0  0  0  0  0  0  0  0
  140.4480   70.8900  225.5890 C   0  0  0  0  0  0  0  0  0  0  0  0
  140.4560   71.9280  224.7170 N   0  0  0  0  0  0  0  0  0  0  0  0
  137.8910   73.3620  222.8420 H   0  0  0  0  0  0  0  0  0  0  0  0
  139.3005   74.7068  220.6196 H   0  0  0  0  0  0  0  0  0  0  0  0
  137.5564   74.8483  221.1573 H   0  0  0  0  0  0  0  0  0  0  0  0
  140.4649   77.3771  223.6911 H   0  0  0  0  0  0  0  0  0  0  0  0
  141.7834   76.4521  222.8207 H   0  0  0  0  0  0  0  0  0  0  0  0
  141.6375   79.1610  223.3052 H   0  0  0  0  0  0  0  0  0  0  0  0
  142.7423   78.1879  222.1582 H   0  0  0  0  0  0  0  0  0  0  0  0
  140.7100   80.1497  221.6421 H   0  0  0  0  0  0  0  0  0  0  0  0
  142.1973   79.5130  220.7103 H   0  0  0  0  0  0  0  0  0  0  0  0
  139.3791   78.9886  220.3681 H   0  0  0  0  0  0  0  0  0  0  0  0
  140.8313   78.8465  219.2608 H   0  0  0  0  0  0  0  0  0  0  0  0
  139.6145   76.6308  219.7338 H   0  0  0  0  0  0  0  0  0  0  0  0
  142.3402   78.0785  218.4187 H   0  0  0  0  0  0  0  0  0  0  0  0
  144.4570   76.5500  218.2260 H   0  0  0  0  0  0  0  0  0  0  0  0
  145.5266   75.2451  221.4843 H   0  0  0  0  0  0  0  0  0  0  0  0
  147.1575   73.4415  221.7950 H   0  0  0  0  0  0  0  0  0  0  0  0
  147.0524   71.3785  220.3507 H   0  0  0  0  0  0  0  0  0  0  0  0
  145.2646   71.2459  218.6415 H   0  0  0  0  0  0  0  0  0  0  0  0
  143.6342   73.0532  218.3365 H   0  0  0  0  0  0  0  0  0  0  0  0
  138.9755   70.4977  222.1058 H   0  0  0  0  0  0  0  0  0  0  0  0
  138.9286   68.5580  223.6480 H   0  0  0  0  0  0  0  0  0  0  0  0
  139.5166   67.6828  225.9151 H   0  0  0  0  0  0  0  0  0  0  0  0
  140.4984   68.0335  228.1630 H   0  0  0  0  0  0  0  0  0  0  0  0
  141.4704   70.2561  228.7757 H   0  0  0  0  0  0  0  0  0  0  0  0
  141.4219   72.0910  227.0824 H   0  0  0  0  0  0  0  0  0  0  0  0
  1  2  2  0
  2  3  1  0
  3  4  1  0
  4  5  1  0
  5  6  2  0
  5  7  1  0
  7  8  1  0
  8  9  1  0
  9 10  1  0
 10 11  1  0
 11 12  1  0
 12 13  1  0
 13 14  2  0
 14 15  1  0
 15 16  1  0
 16 17  1  0
 17 18  2  0
 18 19  1  0
 19 20  2  0
 20 21  1  0
 21 22  2  0
 16 23  2  0
  2 24  1  0
 24 25  2  0
 25 26  1  0
 26 27  2  0
 27 28  1  0
 28 29  2  0
 29 30  1  0
 30 31  2  0
 31 32  1  0
 32 33  2  0
 12  7  1  0
 23 13  1  0
 33 24  1  0
 22 17  1  0
 32 27  1  0
  3 34  1  0
  4 35  1  0
  4 36  1  0
  8 37  1  0
  8 38  1  0
  9 39  1  0
  9 40  1  0
 10 41  1  0
 10 42  1  0
 11 43  1  0
 11 44  1  0
 12 45  1  6
 14 46  1  0
 15 47  1  0
 18 48  1  0
 19 49  1  0
 20 50  1  0
 21 51  1  0
 22 52  1  0
 25 53  1  0
 26 54  1  0
 28 55  1  0
 29 56  1  0
 30 57  1  0
 31 58  1  0
M  END
>  <smiles>  (9) 
O=C(NCC(=O)N1CCCC[C@H]1c1c[nH]c(-c2ccccc2)n1)c1ccc2ccccc2n1

>  <score_type>  (9) 
oracle

>  <origin>  (9) 
autodockgpu

>  <m_score__min__energy>  (9) 
-9.9100000000000001

>  <m_primary>  (9) 
energy

>  <rmsd>  (9) 
5.412756633953271

>  <m_score__min__rmsd>  (9) 
5.412756633953271

>  <meeko>  (9) 
{"free_energy": -9.9, "intermolecular_energy": -11.69, "internal_energy": -1.91, "cluster_size": 10, "cluster_id": 1, "rank_in_cluster": 2}

>  <energy>  (9) 
-9.34

>  <cluster_rmsd>  (9) 
0.44

>  <cluster>  (9) 
1

$$$$

     RDKit          3D

 58 62  0  0  0  0  0  0  0  0999 V2000
  137.7290   75.5290  222.4970 O   0  0  0  0  0  0  0  0  0  0  0  0
  138.9230   75.8670  222.3630 C   0  0  0  0  0  0  0  0  0  0  0  0
  139.8720   74.9030  221.9510 N   0  0  0  0  0  0  0  0  0  0  0  0
  139.5970   73.5340  221.6630 C   0  0  0  0  0  0  0  0  0  0  0  0
  140.7650   72.7810  221.1550 C   0  0  0  0  0  0  0  0  0  0  0  0
  141.0440   71.6020  221.5030 O   0  0  0  0  0  0  0  0  0  0  0  0
  141.6190   73.4370  220.2190 N   0  0  0  0  0  0  0  0  0  0  0  0
  141.3550   73.2900  218.8040 C   0  0  0  0  0  0  0  0  0  0  0  0
  142.5800   73.3050  217.9550 C   0  0  0  0  0  0  0  0  0  0  0  0
  143.8950   73.2570  218.6190 C   0  0  0  0  0  0  0  0  0  0  0  0
  143.9690   73.5740  220.0730 C   0  0  0  0  0  0  0  0  0  0  0  0
  142.7350   74.2420  220.6200 C   0  0  1  0  0  0  0  0  0  0  0  0
  142.6960   75.6130  220.0870 C   0  0  0  0  0  0  0  0  0  0  0  0
  143.5950   76.2160  219.2280 C   0  0  0  0  0  0  0  0  0  0  0  0
  143.2070   77.4850  218.9730 N   0  0  0  0  0  0  0  0  0  0  0  0
  142.0720   77.6830  219.6650 C   0  0  0  0  0  0  0  0  0  0  0  0
  141.3190   78.9190  219.6710 C   0  0  0  0  0  0  0  0  0  0  0  0
  139.9470   78.9600  219.5490 C   0  0  0  0  0  0  0  0  0  0  0  0
  139.2250   80.1350  219.5560 C   0  0  0  0  0  0  0  0  0  0  0  0
  139.8830   81.3610  219.6900 C   0  0  0  0  0  0  0  0  0  0  0  0
  141.2490   81.3260  219.8120 C   0  0  0  0  0  0  0  0  0  0  0  0
  141.9660   80.1450  219.8040 C   0  0  0  0  0  0  0  0  0  0  0  0
  141.7650   76.5750  220.3270 N   0  0  0  0  0  0  0  0  0  0  0  0
  139.3840   77.2490  222.6200 C   0  0  0  0  0  0  0  0  0  0  0  0
  138.5220   78.2930  222.7680 C   0  0  0  0  0  0  0  0  0  0  0  0
  138.9340   79.5950  223.0100 C   0  0  0  0  0  0  0  0  0  0  0  0
  140.2960   79.8290  223.1020 C   0  0  0  0  0  0  0  0  0  0  0  0
  140.8340   81.0730  223.3390 C   0  0  0  0  0  0  0  0  0  0  0  0
  142.2120   81.2730  223.4260 C   0  0  0  0  0  0  0  0  0  0  0  0
  143.0830   80.2030  223.2730 C   0  0  0  0  0  0  0  0  0  0  0  0
  142.5420   78.9480  223.0350 C   0  0  0  0  0  0  0  0  0  0  0  0
  141.1740   78.7760  222.9530 C   0  0  0  0  0  0  0  0  0  0  0  0
  140.7180   77.5200  222.7180 N   0  0  0  0  0  0  0  0  0  0  0  0
  140.8810   75.2220  221.8450 H   0  0  0  0  0  0  0  0  0  0  0  0
  139.2477   73.0493  222.5866 H   0  0  0  0  0  0  0  0  0  0  0  0
  138.8386   73.5218  220.8663 H   0  0  0  0  0  0  0  0  0  0  0  0
  140.8363   72.3329  218.6463 H   0  0  0  0  0  0  0  0  0  0  0  0
  140.7471   74.1554  218.5016 H   0  0  0  0  0  0  0  0  0  0  0  0
  142.5220   72.4342  217.2855 H   0  0  0  0  0  0  0  0  0  0  0  0
  142.5592   74.2914  217.4686 H   0  0  0  0  0  0  0  0  0  0  0  0
  144.2878   72.2378  218.4884 H   0  0  0  0  0  0  0  0  0  0  0  0
  144.4692   74.0627  218.1381 H   0  0  0  0  0  0  0  0  0  0  0  0
  144.1264   72.6349  220.6238 H   0  0  0  0  0  0  0  0  0  0  0  0
  144.7981   74.2855  220.2009 H   0  0  0  0  0  0  0  0  0  0  0  0
  142.7195   74.3222  221.7170 H   0  0  0  0  0  0  0  0  0  0  0  0
  144.4930   75.7345  218.8134 H   0  0  0  0  0  0  0  0  0  0  0  0
  143.6860   78.1830  218.3620 H   0  0  0  0  0  0  0  0  0  0  0  0
  139.4019   78.0107  219.4409 H   0  0  0  0  0  0  0  0  0  0  0  0
  138.1299   80.1074  219.4560 H   0  0  0  0  0  0  0  0  0  0  0  0
  139.3299   82.3118  219.6973 H   0  0  0  0  0  0  0  0  0  0  0  0
  141.7946   82.2750  219.9204 H   0  0  0  0  0  0  0  0  0  0  0  0
  143.0611   80.1735  219.9039 H   0  0  0  0  0  0  0  0  0  0  0  0
  137.4430   78.0932  222.6917 H   0  0  0  0  0  0  0  0  0  0  0  0
  138.2060   80.4116  223.1246 H   0  0  0  0  0  0  0  0  0  0  0  0
  140.1595   81.9330  223.4632 H   0  0  0  0  0  0  0  0  0  0  0  0
  142.6092   82.2810  223.6163 H   0  0  0  0  0  0  0  0  0  0  0  0
  144.1716   80.3463  223.3386 H   0  0  0  0  0  0  0  0  0  0  0  0
  143.2086   78.0819  222.9105 H   0  0  0  0  0  0  0  0  0  0  0  0
  1  2  2  0
  2  3  1  0
  3  4  1  0
  4  5  1  0
  5  6  2  0
  5  7  1  0
  7  8  1  0
  8  9  1  0
  9 10  1  0
 10 11  1  0
 11 12  1  0
 12 13  1  0
 13 14  2  0
 14 15  1  0
 15 16  1  0
 16 17  1  0
 17 18  2  0
 18 19  1  0
 19 20  2  0
 20 21  1  0
 21 22  2  0
 16 23  2  0
  2 24  1  0
 24 25  2  0
 25 26  1  0
 26 27  2  0
 27 28  1  0
 28 29  2  0
 29 30  1  0
 30 31  2  0
 31 32  1  0
 32 33  2  0
 12  7  1  0
 23 13  1  0
 33 24  1  0
 22 17  1  0
 32 27  1  0
  3 34  1  0
  4 35  1  0
  4 36  1  0
  8 37  1  0
  8 38  1  0
  9 39  1  0
  9 40  1  0
 10 41  1  0
 10 42  1  0
 11 43  1  0
 11 44  1  0
 12 45  1  1
 14 46  1  0
 15 47  1  0
 18 48  1  0
 19 49  1  0
 20 50  1  0
 21 51  1  0
 22 52  1  0
 25 53  1  0
 26 54  1  0
 28 55  1  0
 29 56  1  0
 30 57  1  0
 31 58  1  0
M  END
>  <smiles>  (10) 
O=C(NCC(=O)N1CCCC[C@H]1c1c[nH]c(-c2ccccc2)n1)c1ccc2ccccc2n1

>  <score_type>  (10) 
oracle

>  <origin>  (10) 
autodockgpu

>  <m_score__min__energy>  (10) 
-9.9100000000000001

>  <m_primary>  (10) 
energy

>  <rmsd>  (10) 
6.512121635889172

>  <m_score__min__rmsd>  (10) 
6.512121635889172

>  <meeko>  (10) 
{"free_energy": -6.61, "intermolecular_energy": -8.4, "internal_energy": -4.47, "cluster_size": 22, "cluster_id": 5, "rank_in_cluster": 16}

>  <energy>  (10) 
-9.18

>  <cluster_rmsd>  (10) 
0.67

>  <cluster>  (10) 
1

$$$$

     RDKit          3D

 58 62  0  0  0  0  0  0  0  0999 V2000
  137.6530   69.5070  222.0480 O   0  0  0  0  0  0  0  0  0  0  0  0
  137.9100   70.2850  222.9900 C   0  0  0  0  0  0  0  0  0  0  0  0
  137.4870   71.6320  222.9100 N   0  0  0  0  0  0  0  0  0  0  0  0
  136.7690   72.2160  221.8260 C   0  0  0  0  0  0  0  0  0  0  0  0
  137.5820   72.4190  220.6070 C   0  0  0  0  0  0  0  0  0  0  0  0
  137.3440   71.8580  219.5030 O   0  0  0  0  0  0  0  0  0  0  0  0
  138.6990   73.3030  220.6980 N   0  0  0  0  0  0  0  0  0  0  0  0
  139.2910   73.8130  219.4800 C   0  0  0  0  0  0  0  0  0  0  0  0
  140.7620   74.0400  219.5710 C   0  0  0  0  0  0  0  0  0  0  0  0
  141.4750   73.5470  220.7630 C   0  0  0  0  0  0  0  0  0  0  0  0
  140.6800   73.1950  221.9720 C   0  0  0  0  0  0  0  0  0  0  0  0
  139.2660   73.7100  221.9500 C   0  0  1  0  0  0  0  0  0  0  0  0
  139.3180   75.1700  222.1270 C   0  0  0  0  0  0  0  0  0  0  0  0
  138.2590   76.0540  222.1970 C   0  0  0  0  0  0  0  0  0  0  0  0
  138.7210   77.3130  222.3650 N   0  0  0  0  0  0  0  0  0  0  0  0
  140.0620   77.2250  222.4000 C   0  0  0  0  0  0  0  0  0  0  0  0
  140.9550   78.3510  222.5660 C   0  0  0  0  0  0  0  0  0  0  0  0
  141.4790   78.7170  223.7870 C   0  0  0  0  0  0  0  0  0  0  0  0
  142.3310   79.7890  223.9490 C   0  0  0  0  0  0  0  0  0  0  0  0
  142.7010   80.5650  222.8480 C   0  0  0  0  0  0  0  0  0  0  0  0
  142.1810   80.2050  221.6290 C   0  0  0  0  0  0  0  0  0  0  0  0
  141.3290   79.1300  221.4720 C   0  0  0  0  0  0  0  0  0  0  0  0
  140.4200   75.9550  222.2590 N   0  0  0  0  0  0  0  0  0  0  0  0
  138.6470   69.8460  224.1950 C   0  0  0  0  0  0  0  0  0  0  0  0
  138.8090   68.5320  224.5160 C   0  0  0  0  0  0  0  0  0  0  0  0
  139.4970   68.1000  225.6410 C   0  0  0  0  0  0  0  0  0  0  0  0
  140.0410   69.0670  226.4700 C   0  0  0  0  0  0  0  0  0  0  0  0
  140.7450   68.7720  227.6140 C   0  0  0  0  0  0  0  0  0  0  0  0
  141.2790   69.7720  228.4270 C   0  0  0  0  0  0  0  0  0  0  0  0
  141.1090   71.1080  228.0910 C   0  0  0  0  0  0  0  0  0  0  0  0
  140.3990   71.4080  226.9380 C   0  0  0  0  0  0  0  0  0  0  0  0
  139.8790   70.3990  226.1500 C   0  0  0  0  0  0  0  0  0  0  0  0
  139.1980   70.7680  225.0370 N   0  0  0  0  0  0  0  0  0  0  0  0
  137.7210   72.2700  223.7290 H   0  0  0  0  0  0  0  0  0  0  0  0
  135.9259   71.5560  221.5738 H   0  0  0  0  0  0  0  0  0  0  0  0
  136.4416   73.2116  222.1602 H   0  0  0  0  0  0  0  0  0  0  0  0
  139.1017   73.0892  218.6736 H   0  0  0  0  0  0  0  0  0  0  0  0
  138.8286   74.7922  219.2864 H   0  0  0  0  0  0  0  0  0  0  0  0
  141.2203   73.5574  218.6952 H   0  0  0  0  0  0  0  0  0  0  0  0
  140.8637   75.1338  219.6283 H   0  0  0  0  0  0  0  0  0  0  0  0
  142.0250   72.6433  220.4617 H   0  0  0  0  0  0  0  0  0  0  0  0
  142.0874   74.4028  221.0834 H   0  0  0  0  0  0  0  0  0  0  0  0
  140.6469   72.0987  222.0564 H   0  0  0  0  0  0  0  0  0  0  0  0
  141.1779   73.6727  222.8287 H   0  0  0  0  0  0  0  0  0  0  0  0
  138.6335   73.3104  222.7564 H   0  0  0  0  0  0  0  0  0  0  0  0
  137.1974   75.7748  222.1265 H   0  0  0  0  0  0  0  0  0  0  0  0
  138.1590   78.1880  222.4510 H   0  0  0  0  0  0  0  0  0  0  0  0
  141.2048   78.1264  224.6736 H   0  0  0  0  0  0  0  0  0  0  0  0
  142.7204   80.0338  224.9482 H   0  0  0  0  0  0  0  0  0  0  0  0
  143.3782   81.4255  222.9527 H   0  0  0  0  0  0  0  0  0  0  0  0
  142.4541   80.7965  220.7427 H   0  0  0  0  0  0  0  0  0  0  0  0
  140.9408   78.8854  220.4723 H   0  0  0  0  0  0  0  0  0  0  0  0
  138.3719   67.7744  223.8490 H   0  0  0  0  0  0  0  0  0  0  0  0
  139.6063   67.0288  225.8661 H   0  0  0  0  0  0  0  0  0  0  0  0
  140.8910   67.7187  227.8957 H   0  0  0  0  0  0  0  0  0  0  0  0
  141.8359   69.5012  229.3361 H   0  0  0  0  0  0  0  0  0  0  0  0
  141.5259   71.9069  228.7219 H   0  0  0  0  0  0  0  0  0  0  0  0
  140.2485   72.4584  226.6483 H   0  0  0  0  0  0  0  0  0  0  0  0
  1  2  2  0
  2  3  1  0
  3  4  1  0
  4  5  1  0
  5  6  2  0
  5  7  1  0
  7  8  1  0
  8  9  1  0
  9 10  1  0
 10 11  1  0
 11 12  1  0
 12 13  1  0
 13 14  2  0
 14 15  1  0
 15 16  1  0
 16 17  1  0
 17 18  2  0
 18 19  1  0
 19 20  2  0
 20 21  1  0
 21 22  2  0
 16 23  2  0
  2 24  1  0
 24 25  2  0
 25 26  1  0
 26 27  2  0
 27 28  1  0
 28 29  2  0
 29 30  1  0
 30 31  2  0
 31 32  1  0
 32 33  2  0
 12  7  1  0
 23 13  1  0
 33 24  1  0
 22 17  1  0
 32 27  1  0
  3 34  1  0
  4 35  1  0
  4 36  1  0
  8 37  1  0
  8 38  1  0
  9 39  1  0
  9 40  1  0
 10 41  1  0
 10 42  1  0
 11 43  1  0
 11 44  1  0
 12 45  1  1
 14 46  1  0
 15 47  1  0
 18 48  1  0
 19 49  1  0
 20 50  1  0
 21 51  1  0
 22 52  1  0
 25 53  1  0
 26 54  1  0
 28 55  1  0
 29 56  1  0
 30 57  1  0
 31 58  1  0
M  END
>  <smiles>  (11) 
O=C(NCC(=O)N1CCCC[C@H]1c1c[nH]c(-c2ccccc2)n1)c1ccc2ccccc2n1

>  <score_type>  (11) 
oracle

>  <origin>  (11) 
autodockgpu

>  <m_score__min__energy>  (11) 
-9.9100000000000001

>  <m_primary>  (11) 
energy

>  <rmsd>  (11) 
3.0650806646827813

>  <m_score__min__rmsd>  (11) 
3.0650806646827813

>  <meeko>  (11) 
{"free_energy": -9.01, "intermolecular_energy": -10.8, "internal_energy": -2.13, "cluster_size": 12, "cluster_id": 2, "rank_in_cluster": 10}

>  <energy>  (11) 
-9.53

>  <cluster_rmsd>  (11) 
0.0

>  <cluster>  (11) 
2

$$$$

     RDKit          3D

 58 62  0  0  0  0  0  0  0  0999 V2000
  137.7250   75.5860  222.5410 O   0  0  0  0  0  0  0  0  0  0  0  0
  138.9120   75.9340  222.3710 C   0  0  0  0  0  0  0  0  0  0  0  0
  139.8530   74.9820  221.9160 N   0  0  0  0  0  0  0  0  0  0  0  0
  139.5780   73.6160  221.6170 C   0  0  0  0  0  0  0  0  0  0  0  0
  140.7610   72.8470  221.1750 C   0  0  0  0  0  0  0  0  0  0  0  0
  141.0250   71.6780  221.5660 O   0  0  0  0  0  0  0  0  0  0  0  0
  141.6500   73.4750  220.2510 N   0  0  0  0  0  0  0  0  0  0  0  0
  141.4260   73.3030  218.8330 C   0  0  0  0  0  0  0  0  0  0  0  0
  142.6750   73.2880  218.0190 C   0  0  0  0  0  0  0  0  0  0  0  0
  143.9700   73.2380  218.7230 C   0  0  0  0  0  0  0  0  0  0  0  0
  144.0050   73.5830  220.1720 C   0  0  0  0  0  0  0  0  0  0  0  0
  142.7640   74.2750  220.6700 C   0  0  1  0  0  0  0  0  0  0  0  0
  142.7560   75.6360  220.1100 C   0  0  0  0  0  0  0  0  0  0  0  0
  143.6690   76.2000  219.2400 C   0  0  0  0  0  0  0  0  0  0  0  0
  143.3110   77.4720  218.9590 N   0  0  0  0  0  0  0  0  0  0  0  0
  142.1800   77.7110  219.6470 C   0  0  0  0  0  0  0  0  0  0  0  0
  141.4570   78.9640  219.6290 C   0  0  0  0  0  0  0  0  0  0  0  0
  140.0810   79.0330  219.5930 C   0  0  0  0  0  0  0  0  0  0  0  0
  139.3870   80.2240  219.5770 C   0  0  0  0  0  0  0  0  0  0  0  0
  140.0780   81.4390  219.5950 C   0  0  0  0  0  0  0  0  0  0  0  0
  141.4490   81.3760  219.6310 C   0  0  0  0  0  0  0  0  0  0  0  0
  142.1380   80.1790  219.6470 C   0  0  0  0  0  0  0  0  0  0  0  0
  141.8480   76.6240  220.3310 N   0  0  0  0  0  0  0  0  0  0  0  0
  139.3720   77.3150  222.6330 C   0  0  0  0  0  0  0  0  0  0  0  0
  138.5090   78.3530  222.8160 C   0  0  0  0  0  0  0  0  0  0  0  0
  138.9210   79.6540  223.0620 C   0  0  0  0  0  0  0  0  0  0  0  0
  140.2830   79.8950  223.1210 C   0  0  0  0  0  0  0  0  0  0  0  0
  140.8210   81.1390  223.3570 C   0  0  0  0  0  0  0  0  0  0  0  0
  142.1990   81.3450  223.4100 C   0  0  0  0  0  0  0  0  0  0  0  0
  143.0720   80.2820  223.2220 C   0  0  0  0  0  0  0  0  0  0  0  0
  142.5310   79.0270  222.9830 C   0  0  0  0  0  0  0  0  0  0  0  0
  141.1630   78.8480  222.9350 C   0  0  0  0  0  0  0  0  0  0  0  0
  140.7070   77.5930  222.6980 N   0  0  0  0  0  0  0  0  0  0  0  0
  140.8560   75.3100  221.7810 H   0  0  0  0  0  0  0  0  0  0  0  0
  139.1734   73.1386  222.5217 H   0  0  0  0  0  0  0  0  0  0  0  0
  138.8643   73.6109  220.7800 H   0  0  0  0  0  0  0  0  0  0  0  0
  140.9013   72.3485  218.6790 H   0  0  0  0  0  0  0  0  0  0  0  0
  140.8373   74.1692  218.4965 H   0  0  0  0  0  0  0  0  0  0  0  0
  142.6262   72.4052  217.3646 H   0  0  0  0  0  0  0  0  0  0  0  0
  142.6798   74.2646  217.5127 H   0  0  0  0  0  0  0  0  0  0  0  0
  144.3540   72.2120  218.6241 H   0  0  0  0  0  0  0  0  0  0  0  0
  144.5678   74.0272  218.2437 H   0  0  0  0  0  0  0  0  0  0  0  0
  144.1356   72.6533  220.7453 H   0  0  0  0  0  0  0  0  0  0  0  0
  144.8380   74.2881  220.3098 H   0  0  0  0  0  0  0  0  0  0  0  0
  142.7182   74.3761  221.7644 H   0  0  0  0  0  0  0  0  0  0  0  0
  144.5556   75.6893  218.8361 H   0  0  0  0  0  0  0  0  0  0  0  0
  143.8060   78.1470  218.3350 H   0  0  0  0  0  0  0  0  0  0  0  0
  139.5095   78.0933  219.5763 H   0  0  0  0  0  0  0  0  0  0  0  0
  138.2873   80.2182  219.5500 H   0  0  0  0  0  0  0  0  0  0  0  0
  139.5471   82.4023  219.5810 H   0  0  0  0  0  0  0  0  0  0  0  0
  142.0210   82.3154  219.6477 H   0  0  0  0  0  0  0  0  0  0  0  0
  143.2376   80.1853  219.6743 H   0  0  0  0  0  0  0  0  0  0  0  0
  137.4293   78.1485  222.7660 H   0  0  0  0  0  0  0  0  0  0  0  0
  138.1920   80.4652  223.2051 H   0  0  0  0  0  0  0  0  0  0  0  0
  140.1458   81.9942  223.5079 H   0  0  0  0  0  0  0  0  0  0  0  0
  142.5957   82.3530  223.6014 H   0  0  0  0  0  0  0  0  0  0  0  0
  144.1612   80.4305  223.2614 H   0  0  0  0  0  0  0  0  0  0  0  0
  143.1986   78.1662  222.8303 H   0  0  0  0  0  0  0  0  0  0  0  0
  1  2  2  0
  2  3  1  0
  3  4  1  0
  4  5  1  0
  5  6  2  0
  5  7  1  0
  7  8  1  0
  8  9  1  0
  9 10  1  0
 10 11  1  0
 11 12  1  0
 12 13  1  0
 13 14  2  0
 14 15  1  0
 15 16  1  0
 16 17  1  0
 17 18  2  0
 18 19  1  0
 19 20  2  0
 20 21  1  0
 21 22  2  0
 16 23  2  0
  2 24  1  0
 24 25  2  0
 25 26  1  0
 26 27  2  0
 27 28  1  0
 28 29  2  0
 29 30  1  0
 30 31  2  0
 31 32  1  0
 32 33  2  0
 12  7  1  0
 23 13  1  0
 33 24  1  0
 22 17  1  0
 32 27  1  0
  3 34  1  0
  4 35  1  0
  4 36  1  0
  8 37  1  0
  8 38  1  0
  9 39  1  0
  9 40  1  0
 10 41  1  0
 10 42  1  0
 11 43  1  0
 11 44  1  0
 12 45  1  1
 14 46  1  0
 15 47  1  0
 18 48  1  0
 19 49  1  0
 20 50  1  0
 21 51  1  0
 22 52  1  0
 25 53  1  0
 26 54  1  0
 28 55  1  0
 29 56  1  0
 30 57  1  0
 31 58  1  0
M  END
>  <smiles>  (12) 
O=C(NCC(=O)N1CCCC[C@H]1c1c[nH]c(-c2ccccc2)n1)c1ccc2ccccc2n1

>  <score_type>  (12) 
oracle

>  <origin>  (12) 
autodockgpu

>  <m_score__min__energy>  (12) 
-9.9100000000000001

>  <m_primary>  (12) 
energy

>  <rmsd>  (12) 
6.556473705278488

>  <m_score__min__rmsd>  (12) 
6.556473705278488

>  <meeko>  (12) 
{"free_energy": -6.7, "intermolecular_energy": -8.49, "internal_energy": -4.44, "cluster_size": 22, "cluster_id": 5, "rank_in_cluster": 6}

>  <energy>  (12) 
-9.5

>  <cluster_rmsd>  (12) 
0.78

>  <cluster>  (12) 
2

$$$$

     RDKit          3D

 58 62  0  0  0  0  0  0  0  0999 V2000
  137.7290   75.6210  222.5370 O   0  0  0  0  0  0  0  0  0  0  0  0
  138.9200   75.9600  222.3800 C   0  0  0  0  0  0  0  0  0  0  0  0
  139.8590   75.0030  221.9320 N   0  0  0  0  0  0  0  0  0  0  0  0
  139.5770   73.6390  221.6300 C   0  0  0  0  0  0  0  0  0  0  0  0
  140.7540   72.8690  221.1730 C   0  0  0  0  0  0  0  0  0  0  0  0
  141.0110   71.6920  221.5460 O   0  0  0  0  0  0  0  0  0  0  0  0
  141.6460   73.5050  220.2580 N   0  0  0  0  0  0  0  0  0  0  0  0
  141.4360   73.3310  218.8370 C   0  0  0  0  0  0  0  0  0  0  0  0
  142.6930   73.3270  218.0350 C   0  0  0  0  0  0  0  0  0  0  0  0
  143.9820   73.2890  218.7510 C   0  0  0  0  0  0  0  0  0  0  0  0
  144.0000   73.6340  220.2000 C   0  0  0  0  0  0  0  0  0  0  0  0
  142.7490   74.3150  220.6870 C   0  0  1  0  0  0  0  0  0  0  0  0
  142.7330   75.6760  220.1270 C   0  0  0  0  0  0  0  0  0  0  0  0
  143.6340   76.2390  219.2430 C   0  0  0  0  0  0  0  0  0  0  0  0
  143.2730   77.5120  218.9670 N   0  0  0  0  0  0  0  0  0  0  0  0
  142.1520   77.7510  219.6710 C   0  0  0  0  0  0  0  0  0  0  0  0
  141.4300   79.0040  219.6640 C   0  0  0  0  0  0  0  0  0  0  0  0
  142.0560   80.2300  219.7380 C   0  0  0  0  0  0  0  0  0  0  0  0
  141.3720   81.4270  219.7300 C   0  0  0  0  0  0  0  0  0  0  0  0
  139.9770   81.4370  219.6460 C   0  0  0  0  0  0  0  0  0  0  0  0
  139.3480   80.2190  219.5730 C   0  0  0  0  0  0  0  0  0  0  0  0
  140.0390   79.0240  219.5800 C   0  0  0  0  0  0  0  0  0  0  0  0
  141.8290   76.6640  220.3600 N   0  0  0  0  0  0  0  0  0  0  0  0
  139.3870   77.3380  222.6470 C   0  0  0  0  0  0  0  0  0  0  0  0
  138.5300   78.3850  222.8060 C   0  0  0  0  0  0  0  0  0  0  0  0
  138.9480   79.6830  223.0580 C   0  0  0  0  0  0  0  0  0  0  0  0
  140.3110   79.9110  223.1480 C   0  0  0  0  0  0  0  0  0  0  0  0
  140.8550   81.1510  223.3930 C   0  0  0  0  0  0  0  0  0  0  0  0
  142.2340   81.3440  223.4770 C   0  0  0  0  0  0  0  0  0  0  0  0
  143.1000   80.2720  223.3140 C   0  0  0  0  0  0  0  0  0  0  0  0
  142.5530   79.0210  223.0670 C   0  0  0  0  0  0  0  0  0  0  0  0
  141.1840   78.8550  222.9870 C   0  0  0  0  0  0  0  0  0  0  0  0
  140.7220   77.6040  222.7440 N   0  0  0  0  0  0  0  0  0  0  0  0
  140.8660   75.3230  221.8080 H   0  0  0  0  0  0  0  0  0  0  0  0
  139.1801   73.1588  222.5366 H   0  0  0  0  0  0  0  0  0  0  0  0
  138.8547   73.6392  220.8003 H   0  0  0  0  0  0  0  0  0  0  0  0
  140.9211   72.3720  218.6782 H   0  0  0  0  0  0  0  0  0  0  0  0
  140.8425   74.1917  218.4949 H   0  0  0  0  0  0  0  0  0  0  0  0
  142.6584   72.4435  217.3806 H   0  0  0  0  0  0  0  0  0  0  0  0
  142.6937   74.3036  217.5287 H   0  0  0  0  0  0  0  0  0  0  0  0
  144.3766   72.2666  218.6556 H   0  0  0  0  0  0  0  0  0  0  0  0
  144.5770   74.0837  218.2773 H   0  0  0  0  0  0  0  0  0  0  0  0
  144.1333   72.7053  220.7742 H   0  0  0  0  0  0  0  0  0  0  0  0
  144.8252   74.3466  220.3454 H   0  0  0  0  0  0  0  0  0  0  0  0
  142.6933   74.4159  221.7809 H   0  0  0  0  0  0  0  0  0  0  0  0
  144.5139   75.7273  218.8261 H   0  0  0  0  0  0  0  0  0  0  0  0
  143.7590   78.1860  218.3350 H   0  0  0  0  0  0  0  0  0  0  0  0
  143.1536   80.2544  219.8067 H   0  0  0  0  0  0  0  0  0  0  0  0
  141.9252   82.3759  219.7898 H   0  0  0  0  0  0  0  0  0  0  0  0
  139.4085   82.3787  219.6387 H   0  0  0  0  0  0  0  0  0  0  0  0
  138.2503   80.1943  219.5063 H   0  0  0  0  0  0  0  0  0  0  0  0
  139.4849   78.0758  219.5185 H   0  0  0  0  0  0  0  0  0  0  0  0
  137.4499   78.1906  222.7305 H   0  0  0  0  0  0  0  0  0  0  0  0
  138.2236   80.5014  223.1819 H   0  0  0  0  0  0  0  0  0  0  0  0
  140.1847   82.0129  223.5262 H   0  0  0  0  0  0  0  0  0  0  0  0
  142.6361   82.3489  223.6730 H   0  0  0  0  0  0  0  0  0  0  0  0
  144.1894   80.4101  223.3788 H   0  0  0  0  0  0  0  0  0  0  0  0
  143.2157   78.1533  222.9336 H   0  0  0  0  0  0  0  0  0  0  0  0
  1  2  2  0
  2  3  1  0
  3  4  1  0
  4  5  1  0
  5  6  2  0
  5  7  1  0
  7  8  1  0
  8  9  1  0
  9 10  1  0
 10 11  1  0
 11 12  1  0
 12 13  1  0
 13 14  2  0
 14 15  1  0
 15 16  1  0
 16 17  1  0
 17 18  2  0
 18 19  1  0
 19 20  2  0
 20 21  1  0
 21 22  2  0
 16 23  2  0
  2 24  1  0
 24 25  2  0
 25 26  1  0
 26 27  2  0
 27 28  1  0
 28 29  2  0
 29 30  1  0
 30 31  2  0
 31 32  1  0
 32 33  2  0
 12  7  1  0
 23 13  1  0
 33 24  1  0
 22 17  1  0
 32 27  1  0
  3 34  1  0
  4 35  1  0
  4 36  1  0
  8 37  1  0
  8 38  1  0
  9 39  1  0
  9 40  1  0
 10 41  1  0
 10 42  1  0
 11 43  1  0
 11 44  1  0
 12 45  1  1
 14 46  1  0
 15 47  1  0
 18 48  1  0
 19 49  1  0
 20 50  1  0
 21 51  1  0
 22 52  1  0
 25 53  1  0
 26 54  1  0
 28 55  1  0
 29 56  1  0
 30 57  1  0
 31 58  1  0
M  END
>  <smiles>  (13) 
O=C(NCC(=O)N1CCCC[C@H]1c1c[nH]c(-c2ccccc2)n1)c1ccc2ccccc2n1

>  <score_type>  (13) 
oracle

>  <origin>  (13) 
autodockgpu

>  <m_score__min__energy>  (13) 
-9.9100000000000001

>  <m_primary>  (13) 
energy

>  <rmsd>  (13) 
6.621003717050786

>  <m_score__min__rmsd>  (13) 
6.621003717050786

>  <meeko>  (13) 
{"free_energy": -6.71, "intermolecular_energy": -8.5, "internal_energy": -4.44, "cluster_size": 22, "cluster_id": 5, "rank_in_cluster": 5}

>  <energy>  (13) 
-9.46

>  <cluster_rmsd>  (13) 
0.86

>  <cluster>  (13) 
2

$$$$

     RDKit          3D

 58 62  0  0  0  0  0  0  0  0999 V2000
  137.3510   75.7620  222.7570 O   0  0  0  0  0  0  0  0  0  0  0  0
  138.5460   76.0390  222.5290 C   0  0  0  0  0  0  0  0  0  0  0  0
  139.4220   75.0180  222.0940 N   0  0  0  0  0  0  0  0  0  0  0  0
  139.0690   73.6540  221.8790 C   0  0  0  0  0  0  0  0  0  0  0  0
  140.2020   72.7970  221.4660 C   0  0  0  0  0  0  0  0  0  0  0  0
  140.4070   71.6390  221.9190 O   0  0  0  0  0  0  0  0  0  0  0  0
  141.1110   73.3240  220.4990 N   0  0  0  0  0  0  0  0  0  0  0  0
  140.7660   73.2450  219.0970 C   0  0  0  0  0  0  0  0  0  0  0  0
  141.9410   73.0780  218.1940 C   0  0  0  0  0  0  0  0  0  0  0  0
  143.2580   72.8080  218.7980 C   0  0  0  0  0  0  0  0  0  0  0  0
  143.4430   73.0830  220.2510 C   0  0  0  0  0  0  0  0  0  0  0  0
  142.3580   73.9310  220.8590 C   0  0  1  0  0  0  0  0  0  0  0  0
  142.5180   75.3000  220.3430 C   0  0  0  0  0  0  0  0  0  0  0  0
  143.6210   75.8460  219.7140 C   0  0  0  0  0  0  0  0  0  0  0  0
  143.3740   77.1340  219.3890 N   0  0  0  0  0  0  0  0  0  0  0  0
  142.1240   77.4000  219.8070 C   0  0  0  0  0  0  0  0  0  0  0  0
  141.4610   78.6770  219.6540 C   0  0  0  0  0  0  0  0  0  0  0  0
  140.0890   78.8070  219.6080 C   0  0  0  0  0  0  0  0  0  0  0  0
  139.4530   80.0220  219.4630 C   0  0  0  0  0  0  0  0  0  0  0  0
  140.2010   81.1970  219.3530 C   0  0  0  0  0  0  0  0  0  0  0  0
  141.5670   81.0730  219.3980 C   0  0  0  0  0  0  0  0  0  0  0  0
  142.1990   79.8530  219.5440 C   0  0  0  0  0  0  0  0  0  0  0  0
  141.6130   76.3150  220.3730 N   0  0  0  0  0  0  0  0  0  0  0  0
  139.0830   77.4070  222.6990 C   0  0  0  0  0  0  0  0  0  0  0  0
  138.2800   78.5040  222.7850 C   0  0  0  0  0  0  0  0  0  0  0  0
  138.7650   79.7940  222.9450 C   0  0  0  0  0  0  0  0  0  0  0  0
  140.1380   79.9580  223.0180 C   0  0  0  0  0  0  0  0  0  0  0  0
  140.7450   81.1830  223.1760 C   0  0  0  0  0  0  0  0  0  0  0  0
  142.1310   81.3120  223.2470 C   0  0  0  0  0  0  0  0  0  0  0  0
  142.9420   80.1880  223.1580 C   0  0  0  0  0  0  0  0  0  0  0  0
  142.3320   78.9530  222.9990 C   0  0  0  0  0  0  0  0  0  0  0  0
  140.9560   78.8510  222.9320 C   0  0  0  0  0  0  0  0  0  0  0  0
  140.4310   77.6100  222.7760 N   0  0  0  0  0  0  0  0  0  0  0  0
  140.4350   75.2860  221.9080 H   0  0  0  0  0  0  0  0  0  0  0  0
  138.6548   73.2522  222.8155 H   0  0  0  0  0  0  0  0  0  0  0  0
  138.3419   73.6398  221.0537 H   0  0  0  0  0  0  0  0  0  0  0  0
  140.0941   72.3860  218.9535 H   0  0  0  0  0  0  0  0  0  0  0  0
  140.2919   74.2011  218.8305 H   0  0  0  0  0  0  0  0  0  0  0  0
  141.7152   72.2396  217.5186 H   0  0  0  0  0  0  0  0  0  0  0  0
  142.0587   74.0634  217.7194 H   0  0  0  0  0  0  0  0  0  0  0  0
  143.4759   71.7416  218.6389 H   0  0  0  0  0  0  0  0  0  0  0  0
  143.9336   73.5195  218.3008 H   0  0  0  0  0  0  0  0  0  0  0  0
  143.4692   72.1211  220.7840 H   0  0  0  0  0  0  0  0  0  0  0  0
  144.3809   73.6491  220.3498 H   0  0  0  0  0  0  0  0  0  0  0  0
  142.4025   73.9929  221.9563 H   0  0  0  0  0  0  0  0  0  0  0  0
  144.5602   75.3115  219.5086 H   0  0  0  0  0  0  0  0  0  0  0  0
  144.0170   77.8010  218.9070 H   0  0  0  0  0  0  0  0  0  0  0  0
  139.4732   77.8993  219.6908 H   0  0  0  0  0  0  0  0  0  0  0  0
  138.3543   80.0662  219.4339 H   0  0  0  0  0  0  0  0  0  0  0  0
  139.7166   82.1776  219.2356 H   0  0  0  0  0  0  0  0  0  0  0  0
  142.1830   81.9805  219.3145 H   0  0  0  0  0  0  0  0  0  0  0  0
  143.2978   79.8101  219.5737 H   0  0  0  0  0  0  0  0  0  0  0  0
  137.1912   78.3597  222.7245 H   0  0  0  0  0  0  0  0  0  0  0  0
  138.0837   80.6550  223.0114 H   0  0  0  0  0  0  0  0  0  0  0  0
  140.1193   82.0848  223.2482 H   0  0  0  0  0  0  0  0  0  0  0  0
  142.5837   82.3065  223.3738 H   0  0  0  0  0  0  0  0  0  0  0  0
  144.0372   80.2751  223.2121 H   0  0  0  0  0  0  0  0  0  0  0  0
  142.9497   78.0458  222.9255 H   0  0  0  0  0  0  0  0  0  0  0  0
  1  2  2  0
  2  3  1  0
  3  4  1  0
  4  5  1  0
  5  6  2  0
  5  7  1  0
  7  8  1  0
  8  9  1  0
  9 10  1  0
 10 11  1  0
 11 12  1  0
 12 13  1  0
 13 14  2  0
 14 15  1  0
 15 16  1  0
 16 17  1  0
 17 18  2  0
 18 19  1  0
 19 20  2  0
 20 21  1  0
 21 22  2  0
 16 23  2  0
  2 24  1  0
 24 25  2  0
 25 26  1  0
 26 27  2  0
 27 28  1  0
 28 29  2  0
 29 30  1  0
 30 31  2  0
 31 32  1  0
 32 33  2  0
 12  7  1  0
 23 13  1  0
 33 24  1  0
 22 17  1  0
 32 27  1  0
  3 34  1  0
  4 35  1  0
  4 36  1  0
  8 37  1  0
  8 38  1  0
  9 39  1  0
  9 40  1  0
 10 41  1  0
 10 42  1  0
 11 43  1  0
 11 44  1  0
 12 45  1  1
 14 46  1  0
 15 47  1  0
 18 48  1  0
 19 49  1  0
 20 50  1  0
 21 51  1  0
 22 52  1  0
 25 53  1  0
 26 54  1  0
 28 55  1  0
 29 56  1  0
 30 57  1  0
 31 58  1  0
M  END
>  <smiles>  (14) 
O=C(NCC(=O)N1CCCC[C@H]1c1c[nH]c(-c2ccccc2)n1)c1ccc2ccccc2n1

>  <score_type>  (14) 
oracle

>  <origin>  (14) 
autodockgpu

>  <m_score__min__energy>  (14) 
-9.9100000000000001

>  <m_primary>  (14) 
energy

>  <rmsd>  (14) 
6.589772148233949

>  <m_score__min__rmsd>  (14) 
6.589772148233949

>  <meeko>  (14) 
{"free_energy": -6.61, "intermolecular_energy": -8.4, "internal_energy": -4.58, "cluster_size": 22, "cluster_id": 5, "rank_in_cluster": 17}

>  <energy>  (14) 
-9.4

>  <cluster_rmsd>  (14) 
0.9

>  <cluster>  (14) 
2

$$$$

     RDKit          3D

 58 62  0  0  0  0  0  0  0  0999 V2000
  137.3190   75.8840  222.7210 O   0  0  0  0  0  0  0  0  0  0  0  0
  138.5220   76.1390  222.5080 C   0  0  0  0  0  0  0  0  0  0  0  0
  139.3850   75.1010  222.0870 N   0  0  0  0  0  0  0  0  0  0  0  0
  139.0100   73.7430  221.8720 C   0  0  0  0  0  0  0  0  0  0  0  0
  140.1300   72.8680  221.4620 C   0  0  0  0  0  0  0  0  0  0  0  0
  140.3150   71.7060  221.9140 O   0  0  0  0  0  0  0  0  0  0  0  0
  141.0500   73.3800  220.4980 N   0  0  0  0  0  0  0  0  0  0  0  0
  140.7180   73.2900  219.0930 C   0  0  0  0  0  0  0  0  0  0  0  0
  141.9000   73.1070  218.2020 C   0  0  0  0  0  0  0  0  0  0  0  0
  143.2100   72.8360  218.8220 C   0  0  0  0  0  0  0  0  0  0  0  0
  143.3840   73.1250  220.2730 C   0  0  0  0  0  0  0  0  0  0  0  0
  142.2980   73.9850  220.8620 C   0  0  1  0  0  0  0  0  0  0  0  0
  142.4690   75.3480  220.3340 C   0  0  0  0  0  0  0  0  0  0  0  0
  143.5710   75.8740  219.6870 C   0  0  0  0  0  0  0  0  0  0  0  0
  143.3370   77.1630  219.3550 N   0  0  0  0  0  0  0  0  0  0  0  0
  142.0970   77.4490  219.7890 C   0  0  0  0  0  0  0  0  0  0  0  0
  141.4500   78.7340  219.6360 C   0  0  0  0  0  0  0  0  0  0  0  0
  140.0800   78.8820  219.5960 C   0  0  0  0  0  0  0  0  0  0  0  0
  139.4590   80.1040  219.4510 C   0  0  0  0  0  0  0  0  0  0  0  0
  140.2210   81.2690  219.3350 C   0  0  0  0  0  0  0  0  0  0  0  0
  141.5860   81.1280  219.3740 C   0  0  0  0  0  0  0  0  0  0  0  0
  142.2030   79.9010  219.5200 C   0  0  0  0  0  0  0  0  0  0  0  0
  141.5790   76.3750  220.3700 N   0  0  0  0  0  0  0  0  0  0  0  0
  139.0810   77.4980  222.6810 C   0  0  0  0  0  0  0  0  0  0  0  0
  138.2960   78.6080  222.7710 C   0  0  0  0  0  0  0  0  0  0  0  0
  138.8020   79.8890  222.9340 C   0  0  0  0  0  0  0  0  0  0  0  0
  140.1770   80.0310  223.0060 C   0  0  0  0  0  0  0  0  0  0  0  0
  140.8040   81.2450  223.1670 C   0  0  0  0  0  0  0  0  0  0  0  0
  142.1930   81.3510  223.2350 C   0  0  0  0  0  0  0  0  0  0  0  0
  142.9850   80.2150  223.1420 C   0  0  0  0  0  0  0  0  0  0  0  0
  142.3550   78.9900  222.9810 C   0  0  0  0  0  0  0  0  0  0  0  0
  140.9770   78.9110  222.9150 C   0  0  0  0  0  0  0  0  0  0  0  0
  140.4320   77.6790  222.7570 N   0  0  0  0  0  0  0  0  0  0  0  0
  140.4040   75.3510  221.9130 H   0  0  0  0  0  0  0  0  0  0  0  0
  138.5873   73.3484  222.8077 H   0  0  0  0  0  0  0  0  0  0  0  0
  138.2843   73.7399  221.0454 H   0  0  0  0  0  0  0  0  0  0  0  0
  140.0419   72.4340  218.9513 H   0  0  0  0  0  0  0  0  0  0  0  0
  140.2532   74.2470  218.8134 H   0  0  0  0  0  0  0  0  0  0  0  0
  141.6757   72.2628  217.5334 H   0  0  0  0  0  0  0  0  0  0  0  0
  142.0275   74.0862  217.7173 H   0  0  0  0  0  0  0  0  0  0  0  0
  143.4231   71.7667  218.6762 H   0  0  0  0  0  0  0  0  0  0  0  0
  143.8938   73.5391  218.3239 H   0  0  0  0  0  0  0  0  0  0  0  0
  143.4004   72.1687  220.8163 H   0  0  0  0  0  0  0  0  0  0  0  0
  144.3242   73.6869  220.3744 H   0  0  0  0  0  0  0  0  0  0  0  0
  142.3338   74.0583  221.9590 H   0  0  0  0  0  0  0  0  0  0  0  0
  144.5002   75.3253  219.4739 H   0  0  0  0  0  0  0  0  0  0  0  0
  143.9830   77.8170  218.8600 H   0  0  0  0  0  0  0  0  0  0  0  0
  139.4529   77.9826  219.6839 H   0  0  0  0  0  0  0  0  0  0  0  0
  138.3608   80.1619  219.4266 H   0  0  0  0  0  0  0  0  0  0  0  0
  139.7484   82.2553  219.2177 H   0  0  0  0  0  0  0  0  0  0  0  0
  142.2129   82.0275  219.2855 H   0  0  0  0  0  0  0  0  0  0  0  0
  143.3013   79.8442  219.5450 H   0  0  0  0  0  0  0  0  0  0  0  0
  137.2049   78.4817  222.7113 H   0  0  0  0  0  0  0  0  0  0  0  0
  138.1347   80.7607  223.0036 H   0  0  0  0  0  0  0  0  0  0  0  0
  140.1933   82.1566  223.2442 H   0  0  0  0  0  0  0  0  0  0  0  0
  142.6621   82.3377  223.3627 H   0  0  0  0  0  0  0  0  0  0  0  0
  144.0816   80.2843  223.1945 H   0  0  0  0  0  0  0  0  0  0  0  0
  142.9577   78.0730  222.9052 H   0  0  0  0  0  0  0  0  0  0  0  0
  1  2  2  0
  2  3  1  0
  3  4  1  0
  4  5  1  0
  5  6  2  0
  5  7  1  0
  7  8  1  0
  8  9  1  0
  9 10  1  0
 10 11  1  0
 11 12  1  0
 12 13  1  0
 13 14  2  0
 14 15  1  0
 15 16  1  0
 16 17  1  0
 17 18  2  0
 18 19  1  0
 19 20  2  0
 20 21  1  0
 21 22  2  0
 16 23  2  0
  2 24  1  0
 24 25  2  0
 25 26  1  0
 26 27  2  0
 27 28  1  0
 28 29  2  0
 29 30  1  0
 30 31  2  0
 31 32  1  0
 32 33  2  0
 12  7  1  0
 23 13  1  0
 33 24  1  0
 22 17  1  0
 32 27  1  0
  3 34  1  0
  4 35  1  0
  4 36  1  0
  8 37  1  0
  8 38  1  0
  9 39  1  0
  9 40  1  0
 10 41  1  0
 10 42  1  0
 11 43  1  0
 11 44  1  0
 12 45  1  1
 14 46  1  0
 15 47  1  0
 18 48  1  0
 19 49  1  0
 20 50  1  0
 21 51  1  0
 22 52  1  0
 25 53  1  0
 26 54  1  0
 28 55  1  0
 29 56  1  0
 30 57  1  0
 31 58  1  0
M  END
>  <smiles>  (15) 
O=C(NCC(=O)N1CCCC[C@H]1c1c[nH]c(-c2ccccc2)n1)c1ccc2ccccc2n1

>  <score_type>  (15) 
oracle

>  <origin>  (15) 
autodockgpu

>  <m_score__min__energy>  (15) 
-9.9100000000000001

>  <m_primary>  (15) 
energy

>  <rmsd>  (15) 
6.616109062066254

>  <m_score__min__rmsd>  (15) 
6.616109062066254

>  <meeko>  (15) 
{"free_energy": -6.61, "intermolecular_energy": -8.4, "internal_energy": -4.57, "cluster_size": 22, "cluster_id": 5, "rank_in_cluster": 14}

>  <energy>  (15) 
-9.37

>  <cluster_rmsd>  (15) 
0.81

>  <cluster>  (15) 
2

$$$$

     RDKit          3D

 58 62  0  0  0  0  0  0  0  0999 V2000
  139.3710   70.9680  221.5670 O   0  0  0  0  0  0  0  0  0  0  0  0
  138.8890   71.2940  222.6720 C   0  0  0  0  0  0  0  0  0  0  0  0
  137.8550   72.2570  222.7190 N   0  0  0  0  0  0  0  0  0  0  0  0
  137.2820   72.9190  221.5930 C   0  0  0  0  0  0  0  0  0  0  0  0
  136.3060   73.9720  221.9480 C   0  0  0  0  0  0  0  0  0  0  0  0
  135.0750   73.7590  222.1190 O   0  0  0  0  0  0  0  0  0  0  0  0
  136.7970   75.3030  222.1010 N   0  0  0  0  0  0  0  0  0  0  0  0
  136.4540   76.0450  223.2950 C   0  0  0  0  0  0  0  0  0  0  0  0
  136.3130   77.5130  223.0760 C   0  0  0  0  0  0  0  0  0  0  0  0
  136.3250   78.0200  221.6920 C   0  0  0  0  0  0  0  0  0  0  0  0
  136.8460   77.1340  220.6140 C   0  0  0  0  0  0  0  0  0  0  0  0
  137.6190   75.9440  221.1170 C   0  0  1  0  0  0  0  0  0  0  0  0
  138.9000   76.4360  221.6490 C   0  0  0  0  0  0  0  0  0  0  0  0
  140.0420   75.7070  221.9190 C   0  0  0  0  0  0  0  0  0  0  0  0
  141.0070   76.5230  222.3960 N   0  0  0  0  0  0  0  0  0  0  0  0
  140.4790   77.7590  222.4290 C   0  0  0  0  0  0  0  0  0  0  0  0
  141.1820   78.9410  222.8790 C   0  0  0  0  0  0  0  0  0  0  0  0
  142.5530   79.0650  222.8190 C   0  0  0  0  0  0  0  0  0  0  0  0
  143.2270   80.1890  223.2460 C   0  0  0  0  0  0  0  0  0  0  0  0
  142.5190   81.2730  223.7730 C   0  0  0  0  0  0  0  0  0  0  0  0
  141.1530   81.1550  223.8360 C   0  0  0  0  0  0  0  0  0  0  0  0
  140.4840   80.0260  223.4050 C   0  0  0  0  0  0  0  0  0  0  0  0
  139.2290   77.7110  221.9860 N   0  0  0  0  0  0  0  0  0  0  0  0
  139.3650   70.7050  223.9430 C   0  0  0  0  0  0  0  0  0  0  0  0
  139.2970   69.3700  224.2030 C   0  0  0  0  0  0  0  0  0  0  0  0
  139.7380   68.7990  225.3880 C   0  0  0  0  0  0  0  0  0  0  0  0
  140.2720   69.6440  226.3460 C   0  0  0  0  0  0  0  0  0  0  0  0
  140.7450   69.2050  227.5610 C   0  0  0  0  0  0  0  0  0  0  0  0
  141.2770   70.0840  228.5030 C   0  0  0  0  0  0  0  0  0  0  0  0
  141.3420   71.4440  228.2300 C   0  0  0  0  0  0  0  0  0  0  0  0
  140.8670   71.8880  227.0050 C   0  0  0  0  0  0  0  0  0  0  0  0
  140.3440   70.9980  226.0880 C   0  0  0  0  0  0  0  0  0  0  0  0
  139.8990   71.5050  224.9120 N   0  0  0  0  0  0  0  0  0  0  0  0
  137.4650   72.5130  223.6750 H   0  0  0  0  0  0  0  0  0  0  0  0
  138.0943   73.3813  221.0130 H   0  0  0  0  0  0  0  0  0  0  0  0
  136.7340   72.1566  221.0199 H   0  0  0  0  0  0  0  0  0  0  0  0
  135.4984   75.6591  223.6797 H   0  0  0  0  0  0  0  0  0  0  0  0
  137.2827   75.9069  224.0051 H   0  0  0  0  0  0  0  0  0  0  0  0
  135.3568   77.8185  223.5259 H   0  0  0  0  0  0  0  0  0  0  0  0
  137.2191   77.9420  223.5288 H   0  0  0  0  0  0  0  0  0  0  0  0
  135.2871   78.2736  221.4303 H   0  0  0  0  0  0  0  0  0  0  0  0
  137.0371   78.8579  221.7189 H   0  0  0  0  0  0  0  0  0  0  0  0
  135.9922   76.7676  220.0251 H   0  0  0  0  0  0  0  0  0  0  0  0
  137.5455   77.7378  220.0173 H   0  0  0  0  0  0  0  0  0  0  0  0
  137.8553   75.2044  220.3378 H   0  0  0  0  0  0  0  0  0  0  0  0
  140.1495   74.6227  221.7679 H   0  0  0  0  0  0  0  0  0  0  0  0
  141.9750   76.2590  222.6870 H   0  0  0  0  0  0  0  0  0  0  0  0
  143.1374   78.2272  222.4109 H   0  0  0  0  0  0  0  0  0  0  0  0
  144.3236   80.2330  223.1720 H   0  0  0  0  0  0  0  0  0  0  0  0
  143.0338   82.1804  224.1217 H   0  0  0  0  0  0  0  0  0  0  0  0
  140.5684   81.9919  224.2456 H   0  0  0  0  0  0  0  0  0  0  0  0
  139.3873   79.9830  223.4779 H   0  0  0  0  0  0  0  0  0  0  0  0
  138.8702   68.7100  223.4334 H   0  0  0  0  0  0  0  0  0  0  0  0
  139.6661   67.7149  225.5601 H   0  0  0  0  0  0  0  0  0  0  0  0
  140.7022   68.1311  227.7955 H   0  0  0  0  0  0  0  0  0  0  0  0
  141.6463   69.6994  229.4651 H   0  0  0  0  0  0  0  0  0  0  0  0
  141.7584   72.1491  228.9645 H   0  0  0  0  0  0  0  0  0  0  0  0
  140.9073   72.9599  226.7615 H   0  0  0  0  0  0  0  0  0  0  0  0
  1  2  2  0
  2  3  1  0
  3  4  1  0
  4  5  1  0
  5  6  2  0
  5  7  1  0
  7  8  1  0
  8  9  1  0
  9 10  1  0
 10 11  1  0
 11 12  1  0
 12 13  1  0
 13 14  2  0
 14 15  1  0
 15 16  1  0
 16 17  1  0
 17 18  2  0
 18 19  1  0
 19 20  2  0
 20 21  1  0
 21 22  2  0
 16 23  2  0
  2 24  1  0
 24 25  2  0
 25 26  1  0
 26 27  2  0
 27 28  1  0
 28 29  2  0
 29 30  1  0
 30 31  2  0
 31 32  1  0
 32 33  2  0
 12  7  1  0
 23 13  1  0
 33 24  1  0
 22 17  1  0
 32 27  1  0
  3 34  1  0
  4 35  1  0
  4 36  1  0
  8 37  1  0
  8 38  1  0
  9 39  1  0
  9 40  1  0
 10 41  1  0
 10 42  1  0
 11 43  1  0
 11 44  1  0
 12 45  1  6
 14 46  1  0
 15 47  1  0
 18 48  1  0
 19 49  1  0
 20 50  1  0
 21 51  1  0
 22 52  1  0
 25 53  1  0
 26 54  1  0
 28 55  1  0
 29 56  1  0
 30 57  1  0
 31 58  1  0
M  END
>  <smiles>  (16) 
O=C(NCC(=O)N1CCCC[C@H]1c1c[nH]c(-c2ccccc2)n1)c1ccc2ccccc2n1

>  <score_type>  (16) 
oracle

>  <origin>  (16) 
autodockgpu

>  <m_score__min__energy>  (16) 
-9.9100000000000001

>  <m_primary>  (16) 
energy

>  <rmsd>  (16) 
3.74649125275058

>  <m_score__min__rmsd>  (16) 
3.74649125275058

>  <meeko>  (16) 
{"free_energy": -9.53, "intermolecular_energy": -11.32, "internal_energy": -1.64, "cluster_size": 12, "cluster_id": 2, "rank_in_cluster": 1}

>  <energy>  (16) 
-9.36

>  <cluster_rmsd>  (16) 
0.84

>  <cluster>  (16) 
2

$$$$

     RDKit          3D

 58 62  0  0  0  0  0  0  0  0999 V2000
  139.4190   72.4180  220.5080 O   0  0  0  0  0  0  0  0  0  0  0  0
  139.2600   72.7100  221.7110 C   0  0  0  0  0  0  0  0  0  0  0  0
  138.8320   74.0130  222.0560 N   0  0  0  0  0  0  0  0  0  0  0  0
  138.5500   75.0670  221.1390 C   0  0  0  0  0  0  0  0  0  0  0  0
  138.7940   76.4200  221.6840 C   0  0  0  0  0  0  0  0  0  0  0  0
  137.9550   77.0600  222.3730 O   0  0  0  0  0  0  0  0  0  0  0  0
  140.0560   77.0260  221.4080 N   0  0  0  0  0  0  0  0  0  0  0  0
  140.9580   77.3020  222.5040 C   0  0  0  0  0  0  0  0  0  0  0  0
  141.7970   78.5190  222.3070 C   0  0  0  0  0  0  0  0  0  0  0  0
  141.4940   79.4020  221.1660 C   0  0  0  0  0  0  0  0  0  0  0  0
  140.6420   78.8740  220.0640 C   0  0  0  0  0  0  0  0  0  0  0  0
  140.4720   77.3780  220.0820 C   0  0  1  0  0  0  0  0  0  0  0  0
  141.7570   76.7770  219.6880 C   0  0  0  0  0  0  0  0  0  0  0  0
  142.6260   77.2030  218.7030 C   0  0  0  0  0  0  0  0  0  0  0  0
  143.6990   76.3840  218.6500 N   0  0  0  0  0  0  0  0  0  0  0  0
  143.5100   75.4470  219.5950 C   0  0  0  0  0  0  0  0  0  0  0  0
  144.4310   74.3670  219.8770 C   0  0  0  0  0  0  0  0  0  0  0  0
  144.3790   73.1510  219.2270 C   0  0  0  0  0  0  0  0  0  0  0  0
  145.2550   72.1200  219.4910 C   0  0  0  0  0  0  0  0  0  0  0  0
  146.2530   72.2760  220.4570 C   0  0  0  0  0  0  0  0  0  0  0  0
  146.3080   73.4840  221.1070 C   0  0  0  0  0  0  0  0  0  0  0  0
  145.4280   74.5140  220.8370 C   0  0  0  0  0  0  0  0  0  0  0  0
  142.3590   75.6770  220.2140 N   0  0  0  0  0  0  0  0  0  0  0  0
  139.5070   71.7360  222.7960 C   0  0  0  0  0  0  0  0  0  0  0  0
  139.2200   70.4100  222.6700 C   0  0  0  0  0  0  0  0  0  0  0  0
  139.4440   69.4810  223.6760 C   0  0  0  0  0  0  0  0  0  0  0  0
  139.9870   69.9410  224.8630 C   0  0  0  0  0  0  0  0  0  0  0  0
  140.2570   69.1250  225.9370 C   0  0  0  0  0  0  0  0  0  0  0  0
  140.8040   69.6220  227.1190 C   0  0  0  0  0  0  0  0  0  0  0  0
  141.0930   70.9750  227.2390 C   0  0  0  0  0  0  0  0  0  0  0  0
  140.8210   71.8000  226.1580 C   0  0  0  0  0  0  0  0  0  0  0  0
  140.2780   71.2830  224.9980 C   0  0  0  0  0  0  0  0  0  0  0  0
  140.0400   72.1500  223.9820 N   0  0  0  0  0  0  0  0  0  0  0  0
  138.7060   74.2300  223.0900 H   0  0  0  0  0  0  0  0  0  0  0  0
  139.1851   74.9321  220.2511 H   0  0  0  0  0  0  0  0  0  0  0  0
  137.4768   75.0069  220.9054 H   0  0  0  0  0  0  0  0  0  0  0  0
  140.3608   77.4377  223.4177 H   0  0  0  0  0  0  0  0  0  0  0  0
  141.6475   76.4476  222.5718 H   0  0  0  0  0  0  0  0  0  0  0  0
  141.7092   79.1259  223.2202 H   0  0  0  0  0  0  0  0  0  0  0  0
  142.7991   78.1236  222.0844 H   0  0  0  0  0  0  0  0  0  0  0  0
  140.9882   80.2916  221.5695 H   0  0  0  0  0  0  0  0  0  0  0  0
  142.4716   79.5732  220.6916 H   0  0  0  0  0  0  0  0  0  0  0  0
  139.6469   79.3359  220.1449 H   0  0  0  0  0  0  0  0  0  0  0  0
  141.1509   79.1244  219.1215 H   0  0  0  0  0  0  0  0  0  0  0  0
  139.7129   77.0071  219.3776 H   0  0  0  0  0  0  0  0  0  0  0  0
  142.4679   78.0794  218.0572 H   0  0  0  0  0  0  0  0  0  0  0  0
  144.5190   76.4540  218.0070 H   0  0  0  0  0  0  0  0  0  0  0  0
  143.6027   72.9973  218.4630 H   0  0  0  0  0  0  0  0  0  0  0  0
  145.1684   71.1719  218.9399 H   0  0  0  0  0  0  0  0  0  0  0  0
  146.9625   71.4672  220.6862 H   0  0  0  0  0  0  0  0  0  0  0  0
  147.0829   73.6377  221.8725 H   0  0  0  0  0  0  0  0  0  0  0  0
  145.5163   75.4622  221.3876 H   0  0  0  0  0  0  0  0  0  0  0  0
  138.7883   70.0577  221.7215 H   0  0  0  0  0  0  0  0  0  0  0  0
  139.1990   68.4179  223.5352 H   0  0  0  0  0  0  0  0  0  0  0  0
  140.0351   68.0503  225.8610 H   0  0  0  0  0  0  0  0  0  0  0  0
  141.0072   68.9409  227.9586 H   0  0  0  0  0  0  0  0  0  0  0  0
  141.5255   71.3809  228.1654 H   0  0  0  0  0  0  0  0  0  0  0  0
  141.0397   72.8760  226.2250 H   0  0  0  0  0  0  0  0  0  0  0  0
  1  2  2  0
  2  3  1  0
  3  4  1  0
  4  5  1  0
  5  6  2  0
  5  7  1  0
  7  8  1  0
  8  9  1  0
  9 10  1  0
 10 11  1  0
 11 12  1  0
 12 13  1  0
 13 14  2  0
 14 15  1  0
 15 16  1  0
 16 17  1  0
 17 18  2  0
 18 19  1  0
 19 20  2  0
 20 21  1  0
 21 22  2  0
 16 23  2  0
  2 24  1  0
 24 25  2  0
 25 26  1  0
 26 27  2  0
 27 28  1  0
 28 29  2  0
 29 30  1  0
 30 31  2  0
 31 32  1  0
 32 33  2  0
 12  7  1  0
 23 13  1  0
 33 24  1  0
 22 17  1  0
 32 27  1  0
  3 34  1  0
  4 35  1  0
  4 36  1  0
  8 37  1  0
  8 38  1  0
  9 39  1  0
  9 40  1  0
 10 41  1  0
 10 42  1  0
 11 43  1  0
 11 44  1  0
 12 45  1  6
 14 46  1  0
 15 47  1  0
 18 48  1  0
 19 49  1  0
 20 50  1  0
 21 51  1  0
 22 52  1  0
 25 53  1  0
 26 54  1  0
 28 55  1  0
 29 56  1  0
 30 57  1  0
 31 58  1  0
M  END
>  <smiles>  (17) 
O=C(NCC(=O)N1CCCC[C@H]1c1c[nH]c(-c2ccccc2)n1)c1ccc2ccccc2n1

>  <score_type>  (17) 
oracle

>  <origin>  (17) 
autodockgpu

>  <m_score__min__energy>  (17) 
-9.9100000000000001

>  <m_primary>  (17) 
energy

>  <rmsd>  (17) 
5.33123652959777

>  <m_score__min__rmsd>  (17) 
5.33123652959777

>  <meeko>  (17) 
{"free_energy": -9.18, "intermolecular_energy": -10.97, "internal_energy": -1.97, "cluster_size": 10, "cluster_id": 1, "rank_in_cluster": 10}

>  <energy>  (17) 
-9.28

>  <cluster_rmsd>  (17) 
0.98

>  <cluster>  (17) 
2

$$$$

     RDKit          3D

 58 62  0  0  0  0  0  0  0  0999 V2000
  139.0060   75.2400  221.6850 O   0  0  0  0  0  0  0  0  0  0  0  0
  140.1080   75.7870  221.8940 C   0  0  0  0  0  0  0  0  0  0  0  0
  141.2980   75.0600  221.6590 N   0  0  0  0  0  0  0  0  0  0  0  0
  141.3720   73.7150  221.1900 C   0  0  0  0  0  0  0  0  0  0  0  0
  142.2050   73.5470  219.9790 C   0  0  0  0  0  0  0  0  0  0  0  0
  143.1120   72.6780  219.8670 O   0  0  0  0  0  0  0  0  0  0  0  0
  141.9600   74.4250  218.8810 N   0  0  0  0  0  0  0  0  0  0  0  0
  140.6040   74.5970  218.4080 C   0  0  0  0  0  0  0  0  0  0  0  0
  140.5000   74.8430  216.9410 C   0  0  0  0  0  0  0  0  0  0  0  0
  141.7120   74.6830  216.1160 C   0  0  0  0  0  0  0  0  0  0  0  0
  143.0370   74.6610  216.7960 C   0  0  0  0  0  0  0  0  0  0  0  0
  143.0060   75.1490  218.2200 C   0  0  1  0  0  0  0  0  0  0  0  0
  142.7870   76.6040  218.1890 C   0  0  0  0  0  0  0  0  0  0  0  0
  143.3100   77.5220  217.2980 C   0  0  0  0  0  0  0  0  0  0  0  0
  142.8710   78.7620  217.6040 N   0  0  0  0  0  0  0  0  0  0  0  0
  142.0750   78.6300  218.6800 C   0  0  0  0  0  0  0  0  0  0  0  0
  141.3940   79.7240  219.3370 C   0  0  0  0  0  0  0  0  0  0  0  0
  140.0330   79.7320  219.5600 C   0  0  0  0  0  0  0  0  0  0  0  0
  139.3800   80.7720  220.1860 C   0  0  0  0  0  0  0  0  0  0  0  0
  140.0970   81.8870  220.6280 C   0  0  0  0  0  0  0  0  0  0  0  0
  141.4520   81.8840  220.4080 C   0  0  0  0  0  0  0  0  0  0  0  0
  142.1010   80.8390  219.7800 C   0  0  0  0  0  0  0  0  0  0  0  0
  142.0230   77.3510  219.0300 N   0  0  0  0  0  0  0  0  0  0  0  0
  140.2160   77.1790  222.3820 C   0  0  0  0  0  0  0  0  0  0  0  0
  139.1250   77.9290  222.7050 C   0  0  0  0  0  0  0  0  0  0  0  0
  139.2050   79.2350  223.1650 C   0  0  0  0  0  0  0  0  0  0  0  0
  140.4660   79.7920  223.2960 C   0  0  0  0  0  0  0  0  0  0  0  0
  140.6820   81.0760  223.7410 C   0  0  0  0  0  0  0  0  0  0  0  0
  141.9670   81.6050  223.8600 C   0  0  0  0  0  0  0  0  0  0  0  0
  143.0720   80.8340  223.5290 C   0  0  0  0  0  0  0  0  0  0  0  0
  142.8570   79.5400  223.0800 C   0  0  0  0  0  0  0  0  0  0  0  0
  141.5740   79.0380  222.9700 C   0  0  0  0  0  0  0  0  0  0  0  0
  141.4410   77.7640  222.5250 N   0  0  0  0  0  0  0  0  0  0  0  0
  142.2210   75.5540  221.8460 H   0  0  0  0  0  0  0  0  0  0  0  0
  141.7960   73.0918  221.9911 H   0  0  0  0  0  0  0  0  0  0  0  0
  140.3492   73.4152  220.9179 H   0  0  0  0  0  0  0  0  0  0  0  0
  140.0361   73.6858  218.6470 H   0  0  0  0  0  0  0  0  0  0  0  0
  140.2028   75.4900  218.9097 H   0  0  0  0  0  0  0  0  0  0  0  0
  139.7442   74.1475  216.5472 H   0  0  0  0  0  0  0  0  0  0  0  0
  140.2584   75.9133  216.8624 H   0  0  0  0  0  0  0  0  0  0  0  0
  141.6108   73.7327  215.5712 H   0  0  0  0  0  0  0  0  0  0  0  0
  141.7406   75.5940  215.5001 H   0  0  0  0  0  0  0  0  0  0  0  0
  143.4092   73.6259  216.7937 H   0  0  0  0  0  0  0  0  0  0  0  0
  143.6904   75.3490  216.2394 H   0  0  0  0  0  0  0  0  0  0  0  0
  143.9416   74.9750  218.7717 H   0  0  0  0  0  0  0  0  0  0  0  0
  143.9839   77.2787  216.4633 H   0  0  0  0  0  0  0  0  0  0  0  0
  143.0970   79.6540  217.1110 H   0  0  0  0  0  0  0  0  0  0  0  0
  139.4412   78.8683  219.2226 H   0  0  0  0  0  0  0  0  0  0  0  0
  138.2916   80.7241  220.3380 H   0  0  0  0  0  0  0  0  0  0  0  0
  139.5981   82.7293  221.1297 H   0  0  0  0  0  0  0  0  0  0  0  0
  142.0440   82.7476  220.7451 H   0  0  0  0  0  0  0  0  0  0  0  0
  143.1893   80.8880  219.6279 H   0  0  0  0  0  0  0  0  0  0  0  0
  138.1291   77.4750  222.5952 H   0  0  0  0  0  0  0  0  0  0  0  0
  138.2999   79.8074  223.4165 H   0  0  0  0  0  0  0  0  0  0  0  0
  139.8183   81.7018  224.0100 H   0  0  0  0  0  0  0  0  0  0  0  0
  142.1048   82.6362  224.2172 H   0  0  0  0  0  0  0  0  0  0  0  0
  144.0909   81.2384  223.6203 H   0  0  0  0  0  0  0  0  0  0  0  0
  143.7151   78.9073  222.8089 H   0  0  0  0  0  0  0  0  0  0  0  0
  1  2  2  0
  2  3  1  0
  3  4  1  0
  4  5  1  0
  5  6  2  0
  5  7  1  0
  7  8  1  0
  8  9  1  0
  9 10  1  0
 10 11  1  0
 11 12  1  0
 12 13  1  0
 13 14  2  0
 14 15  1  0
 15 16  1  0
 16 17  1  0
 17 18  2  0
 18 19  1  0
 19 20  2  0
 20 21  1  0
 21 22  2  0
 16 23  2  0
  2 24  1  0
 24 25  2  0
 25 26  1  0
 26 27  2  0
 27 28  1  0
 28 29  2  0
 29 30  1  0
 30 31  2  0
 31 32  1  0
 32 33  2  0
 12  7  1  0
 23 13  1  0
 33 24  1  0
 22 17  1  0
 32 27  1  0
  3 34  1  0
  4 35  1  0
  4 36  1  0
  8 37  1  0
  8 38  1  0
  9 39  1  0
  9 40  1  0
 10 41  1  0
 10 42  1  0
 11 43  1  0
 11 44  1  0
 12 45  1  1
 14 46  1  0
 15 47  1  0
 18 48  1  0
 19 49  1  0
 20 50  1  0
 21 51  1  0
 22 52  1  0
 25 53  1  0
 26 54  1  0
 28 55  1  0
 29 56  1  0
 30 57  1  0
 31 58  1  0
M  END
>  <smiles>  (18) 
O=C(NCC(=O)N1CCCC[C@H]1c1c[nH]c(-c2ccccc2)n1)c1ccc2ccccc2n1

>  <score_type>  (18) 
oracle

>  <origin>  (18) 
autodockgpu

>  <m_score__min__energy>  (18) 
-9.9100000000000001

>  <m_primary>  (18) 
energy

>  <rmsd>  (18) 
6.43630128306462

>  <m_score__min__rmsd>  (18) 
6.43630128306462

>  <meeko>  (18) 
{"free_energy": -7.01, "intermolecular_energy": -8.8, "internal_energy": -3.94, "cluster_size": 22, "cluster_id": 5, "rank_in_cluster": 2}

>  <energy>  (18) 
-9.05

>  <cluster_rmsd>  (18) 
1.82

>  <cluster>  (18) 
2

$$$$

     RDKit          3D

 58 62  0  0  0  0  0  0  0  0999 V2000
  137.4230   75.7880  222.6930 O   0  0  0  0  0  0  0  0  0  0  0  0
  138.6230   76.0670  222.4960 C   0  0  0  0  0  0  0  0  0  0  0  0
  139.5110   75.0490  222.0780 N   0  0  0  0  0  0  0  0  0  0  0  0
  139.1640   73.6860  221.8470 C   0  0  0  0  0  0  0  0  0  0  0  0
  140.3030   72.8370  221.4360 C   0  0  0  0  0  0  0  0  0  0  0  0
  140.5110   71.6770  221.8830 O   0  0  0  0  0  0  0  0  0  0  0  0
  141.2160   73.3740  220.4790 N   0  0  0  0  0  0  0  0  0  0  0  0
  140.9100   73.2500  219.0710 C   0  0  0  0  0  0  0  0  0  0  0  0
  142.1120   73.1050  218.2000 C   0  0  0  0  0  0  0  0  0  0  0  0
  143.4230   72.8980  218.8430 C   0  0  0  0  0  0  0  0  0  0  0  0
  143.5620   73.2150  220.2930 C   0  0  0  0  0  0  0  0  0  0  0  0
  142.4310   74.0360  220.8530 C   0  0  1  0  0  0  0  0  0  0  0  0
  142.5540   75.3970  220.3080 C   0  0  0  0  0  0  0  0  0  0  0  0
  143.6100   75.9340  219.5970 C   0  0  0  0  0  0  0  0  0  0  0  0
  143.3400   77.2170  219.2710 N   0  0  0  0  0  0  0  0  0  0  0  0
  142.1230   77.4890  219.7710 C   0  0  0  0  0  0  0  0  0  0  0  0
  141.4500   78.7640  219.6460 C   0  0  0  0  0  0  0  0  0  0  0  0
  140.0770   78.8850  219.6100 C   0  0  0  0  0  0  0  0  0  0  0  0
  139.4320   80.0980  219.4930 C   0  0  0  0  0  0  0  0  0  0  0  0
  140.1700   81.2800  219.4010 C   0  0  0  0  0  0  0  0  0  0  0  0
  141.5380   81.1650  219.4360 C   0  0  0  0  0  0  0  0  0  0  0  0
  142.1790   79.9480  219.5550 C   0  0  0  0  0  0  0  0  0  0  0  0
  141.6530   76.4120  220.3870 N   0  0  0  0  0  0  0  0  0  0  0  0
  139.1550   77.4350  222.6880 C   0  0  0  0  0  0  0  0  0  0  0  0
  138.3480   78.5270  222.7950 C   0  0  0  0  0  0  0  0  0  0  0  0
  138.8270   79.8160  222.9750 C   0  0  0  0  0  0  0  0  0  0  0  0
  140.1990   79.9850  223.0450 C   0  0  0  0  0  0  0  0  0  0  0  0
  140.8010   81.2090  223.2210 C   0  0  0  0  0  0  0  0  0  0  0  0
  142.1880   81.3440  223.2880 C   0  0  0  0  0  0  0  0  0  0  0  0
  143.0030   80.2250  223.1770 C   0  0  0  0  0  0  0  0  0  0  0  0
  142.3980   78.9900  223.0000 C   0  0  0  0  0  0  0  0  0  0  0  0
  141.0220   78.8830  222.9370 C   0  0  0  0  0  0  0  0  0  0  0  0
  140.5020   77.6430  222.7630 N   0  0  0  0  0  0  0  0  0  0  0  0
  140.5270   75.3190  221.9180 H   0  0  0  0  0  0  0  0  0  0  0  0
  138.7429   73.2740  222.7759 H   0  0  0  0  0  0  0  0  0  0  0  0
  138.4440   73.6773  221.0154 H   0  0  0  0  0  0  0  0  0  0  0  0
  140.2731   72.3640  218.9321 H   0  0  0  0  0  0  0  0  0  0  0  0
  140.4096   74.1823  218.7705 H   0  0  0  0  0  0  0  0  0  0  0  0
  141.9336   72.2430  217.5403 H   0  0  0  0  0  0  0  0  0  0  0  0
  142.2056   74.0820  217.7033 H   0  0  0  0  0  0  0  0  0  0  0  0
  143.6829   71.8367  218.7163 H   0  0  0  0  0  0  0  0  0  0  0  0
  144.0847   73.6217  218.3445 H   0  0  0  0  0  0  0  0  0  0  0  0
  143.6108   72.2681  220.8507 H   0  0  0  0  0  0  0  0  0  0  0  0
  144.4756   73.8181  220.4001 H   0  0  0  0  0  0  0  0  0  0  0  0
  142.4451   74.1257  221.9492 H   0  0  0  0  0  0  0  0  0  0  0  0
  144.5335   75.3967  219.3352 H   0  0  0  0  0  0  0  0  0  0  0  0
  143.9480   77.8760  218.7360 H   0  0  0  0  0  0  0  0  0  0  0  0
  139.4680   77.9715  219.6778 H   0  0  0  0  0  0  0  0  0  0  0  0
  138.3328   80.1348  219.4721 H   0  0  0  0  0  0  0  0  0  0  0  0
  139.6777   82.2590  219.3048 H   0  0  0  0  0  0  0  0  0  0  0  0
  142.1470   82.0784  219.3665 H   0  0  0  0  0  0  0  0  0  0  0  0
  143.2782   79.9126  219.5782 H   0  0  0  0  0  0  0  0  0  0  0  0
  137.2597   78.3788  222.7355 H   0  0  0  0  0  0  0  0  0  0  0  0
  138.1419   80.6725  223.0591 H   0  0  0  0  0  0  0  0  0  0  0  0
  140.1714   82.1065  223.3114 H   0  0  0  0  0  0  0  0  0  0  0  0
  142.6368   82.3384  223.4290 H   0  0  0  0  0  0  0  0  0  0  0  0
  144.0981   80.3159  223.2281 H   0  0  0  0  0  0  0  0  0  0  0  0
  143.0194   78.0869  222.9089 H   0  0  0  0  0  0  0  0  0  0  0  0
  1  2  2  0
  2  3  1  0
  3  4  1  0
  4  5  1  0
  5  6  2  0
  5  7  1  0
  7  8  1  0
  8  9  1  0
  9 10  1  0
 10 11  1  0
 11 12  1  0
 12 13  1  0
 13 14  2  0
 14 15  1  0
 15 16  1  0
 16 17  1  0
 17 18  2  0
 18 19  1  0
 19 20  2  0
 20 21  1  0
 21 22  2  0
 16 23  2  0
  2 24  1  0
 24 25  2  0
 25 26  1  0
 26 27  2  0
 27 28  1  0
 28 29  2  0
 29 30  1  0
 30 31  2  0
 31 32  1  0
 32 33  2  0
 12  7  1  0
 23 13  1  0
 33 24  1  0
 22 17  1  0
 32 27  1  0
  3 34  1  0
  4 35  1  0
  4 36  1  0
  8 37  1  0
  8 38  1  0
  9 39  1  0
  9 40  1  0
 10 41  1  0
 10 42  1  0
 11 43  1  0
 11 44  1  0
 12 45  1  1
 14 46  1  0
 15 47  1  0
 18 48  1  0
 19 49  1  0
 20 50  1  0
 21 51  1  0
 22 52  1  0
 25 53  1  0
 26 54  1  0
 28 55  1  0
 29 56  1  0
 30 57  1  0
 31 58  1  0
M  END
>  <smiles>  (19) 
O=C(NCC(=O)N1CCCC[C@H]1c1c[nH]c(-c2ccccc2)n1)c1ccc2ccccc2n1

>  <score_type>  (19) 
oracle

>  <origin>  (19) 
autodockgpu

>  <m_score__min__energy>  (19) 
-9.9100000000000001

>  <m_primary>  (19) 
energy

>  <rmsd>  (19) 
6.598028695187066

>  <m_score__min__rmsd>  (19) 
6.598028695187066

>  <meeko>  (19) 
{"free_energy": -6.61, "intermolecular_energy": -8.4, "internal_energy": -4.55, "cluster_size": 22, "cluster_id": 5, "rank_in_cluster": 15}

>  <energy>  (19) 
-9.03

>  <cluster_rmsd>  (19) 
1.98

>  <cluster>  (19) 
2

$$$$

     RDKit          3D

 58 62  0  0  0  0  0  0  0  0999 V2000
  138.1670   69.8990  221.9020 O   0  0  0  0  0  0  0  0  0  0  0  0
  138.1620   70.6170  222.9240 C   0  0  0  0  0  0  0  0  0  0  0  0
  137.4850   71.8580  222.8950 N   0  0  0  0  0  0  0  0  0  0  0  0
  136.7800   72.3950  221.7790 C   0  0  0  0  0  0  0  0  0  0  0  0
  137.6230   72.6090  220.5820 C   0  0  0  0  0  0  0  0  0  0  0  0
  137.4130   72.0580  219.4680 O   0  0  0  0  0  0  0  0  0  0  0  0
  138.7380   73.4920  220.7080 N   0  0  0  0  0  0  0  0  0  0  0  0
  139.3200   74.0640  219.5140 C   0  0  0  0  0  0  0  0  0  0  0  0
  140.7900   74.2910  219.6050 C   0  0  0  0  0  0  0  0  0  0  0  0
  141.5140   73.7430  220.7670 C   0  0  0  0  0  0  0  0  0  0  0  0
  140.7280   73.3290  221.9630 C   0  0  0  0  0  0  0  0  0  0  0  0
  139.3120   73.8390  221.9750 C   0  0  1  0  0  0  0  0  0  0  0  0
  139.3600   75.2890  222.2230 C   0  0  0  0  0  0  0  0  0  0  0  0
  138.3030   76.1430  222.4690 C   0  0  0  0  0  0  0  0  0  0  0  0
  138.7600   77.4020  222.6470 N   0  0  0  0  0  0  0  0  0  0  0  0
  140.0960   77.3450  222.5150 C   0  0  0  0  0  0  0  0  0  0  0  0
  140.9830   78.4820  222.6320 C   0  0  0  0  0  0  0  0  0  0  0  0
  141.5010   78.9060  223.8380 C   0  0  0  0  0  0  0  0  0  0  0  0
  142.3470   79.9880  223.9540 C   0  0  0  0  0  0  0  0  0  0  0  0
  142.7180   80.7140  222.8190 C   0  0  0  0  0  0  0  0  0  0  0  0
  142.2050   80.2960  221.6160 C   0  0  0  0  0  0  0  0  0  0  0  0
  141.3580   79.2110  221.5060 C   0  0  0  0  0  0  0  0  0  0  0  0
  140.4570   76.0930  222.2640 N   0  0  0  0  0  0  0  0  0  0  0  0
  138.8440   70.2120  224.1730 C   0  0  0  0  0  0  0  0  0  0  0  0
  138.8810   68.9190  224.6020 C   0  0  0  0  0  0  0  0  0  0  0  0
  139.5150   68.5210  225.7700 C   0  0  0  0  0  0  0  0  0  0  0  0
  140.1370   69.4980  226.5270 C   0  0  0  0  0  0  0  0  0  0  0  0
  140.8000   69.2350  227.7030 C   0  0  0  0  0  0  0  0  0  0  0  0
  141.4160   70.2450  228.4420 C   0  0  0  0  0  0  0  0  0  0  0  0
  141.3730   71.5590  227.9970 C   0  0  0  0  0  0  0  0  0  0  0  0
  140.7060   71.8270  226.8110 C   0  0  0  0  0  0  0  0  0  0  0  0
  140.1030   70.8090  226.0980 C   0  0  0  0  0  0  0  0  0  0  0  0
  139.4690   71.1460  224.9470 N   0  0  0  0  0  0  0  0  0  0  0  0
  137.4990   72.4450  223.7820 H   0  0  0  0  0  0  0  0  0  0  0  0
  135.9714   71.6984  221.5127 H   0  0  0  0  0  0  0  0  0  0  0  0
  136.4042   73.3826  222.0847 H   0  0  0  0  0  0  0  0  0  0  0  0
  139.1269   73.3809  218.6737 H   0  0  0  0  0  0  0  0  0  0  0  0
  138.8538   75.0504  219.3739 H   0  0  0  0  0  0  0  0  0  0  0  0
  141.2431   73.8529  218.7035 H   0  0  0  0  0  0  0  0  0  0  0  0
  140.8888   75.3811  219.7146 H   0  0  0  0  0  0  0  0  0  0  0  0
  142.0653   72.8574  220.4181 H   0  0  0  0  0  0  0  0  0  0  0  0
  142.1259   74.5843  221.1246 H   0  0  0  0  0  0  0  0  0  0  0  0
  140.6994   72.2298  221.9939 H   0  0  0  0  0  0  0  0  0  0  0  0
  141.2298   73.7661  222.8389 H   0  0  0  0  0  0  0  0  0  0  0  0
  138.6863   73.3976  222.7647 H   0  0  0  0  0  0  0  0  0  0  0  0
  137.2457   75.8428  222.5134 H   0  0  0  0  0  0  0  0  0  0  0  0
  138.1970   78.2580  222.8470 H   0  0  0  0  0  0  0  0  0  0  0  0
  141.2262   78.3550  224.7496 H   0  0  0  0  0  0  0  0  0  0  0  0
  142.7310   80.2807  224.9423 H   0  0  0  0  0  0  0  0  0  0  0  0
  143.3909   81.5815  222.8864 H   0  0  0  0  0  0  0  0  0  0  0  0
  142.4794   80.8469  220.7043 H   0  0  0  0  0  0  0  0  0  0  0  0
  140.9748   78.9189  220.5171 H   0  0  0  0  0  0  0  0  0  0  0  0
  138.3828   68.1519  223.9910 H   0  0  0  0  0  0  0  0  0  0  0  0
  139.5229   67.4665  226.0831 H   0  0  0  0  0  0  0  0  0  0  0  0
  140.8457   68.1994  228.0710 H   0  0  0  0  0  0  0  0  0  0  0  0
  141.9369   69.9996  229.3793 H   0  0  0  0  0  0  0  0  0  0  0  0
  141.8547   72.3655  228.5692 H   0  0  0  0  0  0  0  0  0  0  0  0
  140.6567   72.8595  226.4347 H   0  0  0  0  0  0  0  0  0  0  0  0
  1  2  2  0
  2  3  1  0
  3  4  1  0
  4  5  1  0
  5  6  2  0
  5  7  1  0
  7  8  1  0
  8  9  1  0
  9 10  1  0
 10 11  1  0
 11 12  1  0
 12 13  1  0
 13 14  2  0
 14 15  1  0
 15 16  1  0
 16 17  1  0
 17 18  2  0
 18 19  1  0
 19 20  2  0
 20 21  1  0
 21 22  2  0
 16 23  2  0
  2 24  1  0
 24 25  2  0
 25 26  1  0
 26 27  2  0
 27 28  1  0
 28 29  2  0
 29 30  1  0
 30 31  2  0
 31 32  1  0
 32 33  2  0
 12  7  1  0
 23 13  1  0
 33 24  1  0
 22 17  1  0
 32 27  1  0
  3 34  1  0
  4 35  1  0
  4 36  1  0
  8 37  1  0
  8 38  1  0
  9 39  1  0
  9 40  1  0
 10 41  1  0
 10 42  1  0
 11 43  1  0
 11 44  1  0
 12 45  1  1
 14 46  1  0
 15 47  1  0
 18 48  1  0
 19 49  1  0
 20 50  1  0
 21 51  1  0
 22 52  1  0
 25 53  1  0
 26 54  1  0
 28 55  1  0
 29 56  1  0
 30 57  1  0
 31 58  1  0
M  END
>  <smiles>  (20) 
O=C(NCC(=O)N1CCCC[C@H]1c1c[nH]c(-c2ccccc2)n1)c1ccc2ccccc2n1

>  <score_type>  (20) 
oracle

>  <origin>  (20) 
autodockgpu

>  <m_score__min__energy>  (20) 
-9.9100000000000001

>  <m_primary>  (20) 
energy

>  <rmsd>  (20) 
2.9978214348014967

>  <m_score__min__rmsd>  (20) 
2.9978214348014967

>  <meeko>  (20) 
{"free_energy": -9.05, "intermolecular_energy": -10.84, "internal_energy": -2.08, "cluster_size": 12, "cluster_id": 2, "rank_in_cluster": 8}

>  <energy>  (20) 
-9.01

>  <cluster_rmsd>  (20) 
1.87

>  <cluster>  (20) 
2

$$$$

     RDKit          3D

 58 62  0  0  0  0  0  0  0  0999 V2000
  137.8800   69.8450  221.8530 O   0  0  0  0  0  0  0  0  0  0  0  0
  138.3060   70.6640  222.6930 C   0  0  0  0  0  0  0  0  0  0  0  0
  138.2180   72.0480  222.4160 N   0  0  0  0  0  0  0  0  0  0  0  0
  137.6700   72.6270  221.2340 C   0  0  0  0  0  0  0  0  0  0  0  0
  138.6570   72.8260  220.1500 C   0  0  0  0  0  0  0  0  0  0  0  0
  138.7850   72.0480  219.1660 O   0  0  0  0  0  0  0  0  0  0  0  0
  139.5100   73.9670  220.2340 N   0  0  0  0  0  0  0  0  0  0  0  0
  139.6230   74.8450  219.0900 C   0  0  0  0  0  0  0  0  0  0  0  0
  140.9660   75.4750  218.9400 C   0  0  0  0  0  0  0  0  0  0  0  0
  142.0630   75.0030  219.8050 C   0  0  0  0  0  0  0  0  0  0  0  0
  141.7190   74.2150  221.0210 C   0  0  0  0  0  0  0  0  0  0  0  0
  140.2660   74.2840  221.4090 C   0  0  1  0  0  0  0  0  0  0  0  0
  140.0070   75.6360  221.9310 C   0  0  0  0  0  0  0  0  0  0  0  0
  138.7900   76.1920  222.2760 C   0  0  0  0  0  0  0  0  0  0  0  0
  138.9710   77.4570  222.7150 N   0  0  0  0  0  0  0  0  0  0  0  0
  140.2920   77.6990  222.6480 C   0  0  0  0  0  0  0  0  0  0  0  0
  140.9190   78.9460  223.0280 C   0  0  0  0  0  0  0  0  0  0  0  0
  140.2290   80.1370  223.1080 C   0  0  0  0  0  0  0  0  0  0  0  0
  140.8220   81.3270  223.4700 C   0  0  0  0  0  0  0  0  0  0  0  0
  142.1850   81.3680  223.7750 C   0  0  0  0  0  0  0  0  0  0  0  0
  142.8770   80.1850  223.6970 C   0  0  0  0  0  0  0  0  0  0  0  0
  142.2770   78.9950  223.3340 C   0  0  0  0  0  0  0  0  0  0  0  0
  140.9100   76.6210  222.1830 N   0  0  0  0  0  0  0  0  0  0  0  0
  138.9060   70.2360  223.9750 C   0  0  0  0  0  0  0  0  0  0  0  0
  138.8690   68.9450  224.4070 C   0  0  0  0  0  0  0  0  0  0  0  0
  139.4250   68.5240  225.6060 C   0  0  0  0  0  0  0  0  0  0  0  0
  140.0460   69.4790  226.3940 C   0  0  0  0  0  0  0  0  0  0  0  0
  140.6360   69.1930  227.6040 C   0  0  0  0  0  0  0  0  0  0  0  0
  141.2520   70.1800  228.3720 C   0  0  0  0  0  0  0  0  0  0  0  0
  141.2840   71.4930  227.9250 C   0  0  0  0  0  0  0  0  0  0  0  0
  140.6910   71.7840  226.7060 C   0  0  0  0  0  0  0  0  0  0  0  0
  140.0860   70.7890  225.9630 C   0  0  0  0  0  0  0  0  0  0  0  0
  139.5270   71.1470  224.7800 N   0  0  0  0  0  0  0  0  0  0  0  0
  138.5890   72.7200  223.1510 H   0  0  0  0  0  0  0  0  0  0  0  0
  136.8747   71.9650  220.8608 H   0  0  0  0  0  0  0  0  0  0  0  0
  137.2953   73.6234  221.5111 H   0  0  0  0  0  0  0  0  0  0  0  0
  139.4120   74.2600  218.1827 H   0  0  0  0  0  0  0  0  0  0  0  0
  138.9031   75.6624  219.2436 H   0  0  0  0  0  0  0  0  0  0  0  0
  141.2835   75.3197  217.8983 H   0  0  0  0  0  0  0  0  0  0  0  0
  140.8102   76.5197  219.2471 H   0  0  0  0  0  0  0  0  0  0  0  0
  142.7182   74.3738  219.1846 H   0  0  0  0  0  0  0  0  0  0  0  0
  142.5115   75.9265  220.2000 H   0  0  0  0  0  0  0  0  0  0  0  0
  141.9768   73.1621  220.8344 H   0  0  0  0  0  0  0  0  0  0  0  0
  142.2901   74.6519  221.8535 H   0  0  0  0  0  0  0  0  0  0  0  0
  139.9806   73.5732  222.1985 H   0  0  0  0  0  0  0  0  0  0  0  0
  137.8186   75.6810  222.2040 H   0  0  0  0  0  0  0  0  0  0  0  0
  138.2390   78.1250  223.0440 H   0  0  0  0  0  0  0  0  0  0  0  0
  139.1547   80.1373  222.8718 H   0  0  0  0  0  0  0  0  0  0  0  0
  140.2209   82.2469  223.5190 H   0  0  0  0  0  0  0  0  0  0  0  0
  142.6812   82.3061  224.0646 H   0  0  0  0  0  0  0  0  0  0  0  0
  143.9514   80.1847  223.9328 H   0  0  0  0  0  0  0  0  0  0  0  0
  142.8786   78.0753  223.2860 H   0  0  0  0  0  0  0  0  0  0  0  0
  138.3722   68.1969  223.7718 H   0  0  0  0  0  0  0  0  0  0  0  0
  139.3746   67.4708  225.9194 H   0  0  0  0  0  0  0  0  0  0  0  0
  140.6211   68.1576  227.9752 H   0  0  0  0  0  0  0  0  0  0  0  0
  141.7140   69.9170  229.3350 H   0  0  0  0  0  0  0  0  0  0  0  0
  141.7665   72.2814  228.5213 H   0  0  0  0  0  0  0  0  0  0  0  0
  140.7024   72.8166  226.3271 H   0  0  0  0  0  0  0  0  0  0  0  0
  1  2  2  0
  2  3  1  0
  3  4  1  0
  4  5  1  0
  5  6  2  0
  5  7  1  0
  7  8  1  0
  8  9  1  0
  9 10  1  0
 10 11  1  0
 11 12  1  0
 12 13  1  0
 13 14  2  0
 14 15  1  0
 15 16  1  0
 16 17  1  0
 17 18  2  0
 18 19  1  0
 19 20  2  0
 20 21  1  0
 21 22  2  0
 16 23  2  0
  2 24  1  0
 24 25  2  0
 25 26  1  0
 26 27  2  0
 27 28  1  0
 28 29  2  0
 29 30  1  0
 30 31  2  0
 31 32  1  0
 32 33  2  0
 12  7  1  0
 23 13  1  0
 33 24  1  0
 22 17  1  0
 32 27  1  0
  3 34  1  0
  4 35  1  0
  4 36  1  0
  8 37  1  0
  8 38  1  0
  9 39  1  0
  9 40  1  0
 10 41  1  0
 10 42  1  0
 11 43  1  0
 11 44  1  0
 12 45  1  1
 14 46  1  0
 15 47  1  0
 18 48  1  0
 19 49  1  0
 20 50  1  0
 21 51  1  0
 22 52  1  0
 25 53  1  0
 26 54  1  0
 28 55  1  0
 29 56  1  0
 30 57  1  0
 31 58  1  0
M  END
>  <smiles>  (21) 
O=C(NCC(=O)N1CCCC[C@H]1c1c[nH]c(-c2ccccc2)n1)c1ccc2ccccc2n1

>  <score_type>  (21) 
oracle

>  <origin>  (21) 
autodockgpu

>  <m_score__min__energy>  (21) 
-9.9100000000000001

>  <m_primary>  (21) 
energy

>  <rmsd>  (21) 
2.620825022123455

>  <m_score__min__rmsd>  (21) 
2.620825022123455

>  <meeko>  (21) 
{"free_energy": -9.03, "intermolecular_energy": -10.82, "internal_energy": -2.04, "cluster_size": 12, "cluster_id": 2, "rank_in_cluster": 9}

>  <energy>  (21) 
-8.99

>  <cluster_rmsd>  (21) 
1.96

>  <cluster>  (21) 
2

$$$$

     RDKit          3D

 58 62  0  0  0  0  0  0  0  0999 V2000
  139.2100   74.1280  222.3430 O   0  0  0  0  0  0  0  0  0  0  0  0
  140.1450   74.6590  221.7090 C   0  0  0  0  0  0  0  0  0  0  0  0
  140.0830   76.0400  221.4120 N   0  0  0  0  0  0  0  0  0  0  0  0
  139.0250   76.9230  221.7760 C   0  0  0  0  0  0  0  0  0  0  0  0
  139.4760   78.1460  222.4750 C   0  0  0  0  0  0  0  0  0  0  0  0
  138.9260   78.6030  223.5130 O   0  0  0  0  0  0  0  0  0  0  0  0
  140.5990   78.8410  221.9340 N   0  0  0  0  0  0  0  0  0  0  0  0
  141.8830   78.7170  222.5880 C   0  0  0  0  0  0  0  0  0  0  0  0
  142.7300   79.9410  222.4950 C   0  0  0  0  0  0  0  0  0  0  0  0
  142.1260   81.1730  221.9560 C   0  0  0  0  0  0  0  0  0  0  0  0
  140.8530   81.0640  221.1890 C   0  0  0  0  0  0  0  0  0  0  0  0
  140.5100   79.6620  220.7620 C   0  0  1  0  0  0  0  0  0  0  0  0
  141.4520   79.2750  219.6990 C   0  0  0  0  0  0  0  0  0  0  0  0
  142.2110   80.1050  218.8960 C   0  0  0  0  0  0  0  0  0  0  0  0
  142.9520   79.3660  218.0420 N   0  0  0  0  0  0  0  0  0  0  0  0
  142.6640   78.0790  218.3020 C   0  0  0  0  0  0  0  0  0  0  0  0
  143.2440   76.9510  217.6070 C   0  0  0  0  0  0  0  0  0  0  0  0
  143.3870   75.7080  218.1860 C   0  0  0  0  0  0  0  0  0  0  0  0
  143.9380   74.6290  217.5270 C   0  0  0  0  0  0  0  0  0  0  0  0
  144.3860   74.7650  216.2110 C   0  0  0  0  0  0  0  0  0  0  0  0
  144.2470   76.0010  215.6290 C   0  0  0  0  0  0  0  0  0  0  0  0
  143.6930   77.0780  216.2940 C   0  0  0  0  0  0  0  0  0  0  0  0
  141.7750   78.0210  219.2850 N   0  0  0  0  0  0  0  0  0  0  0  0
  141.3240   73.8900  221.2530 C   0  0  0  0  0  0  0  0  0  0  0  0
  141.2420   72.5870  220.8620 C   0  0  0  0  0  0  0  0  0  0  0  0
  142.3350   71.8500  220.4310 C   0  0  0  0  0  0  0  0  0  0  0  0
  143.5660   72.4840  220.4050 C   0  0  0  0  0  0  0  0  0  0  0  0
  144.7260   71.8650  219.9990 C   0  0  0  0  0  0  0  0  0  0  0  0
  145.9490   72.5350  219.9850 C   0  0  0  0  0  0  0  0  0  0  0  0
  146.0230   73.8610  220.3860 C   0  0  0  0  0  0  0  0  0  0  0  0
  144.8550   74.4870  220.7950 C   0  0  0  0  0  0  0  0  0  0  0  0
  143.6550   73.8020  220.8010 C   0  0  0  0  0  0  0  0  0  0  0  0
  142.5540   74.4790  221.2120 N   0  0  0  0  0  0  0  0  0  0  0  0
  140.8950   76.4630  220.8710 H   0  0  0  0  0  0  0  0  0  0  0  0
  138.4947   77.2235  220.8603 H   0  0  0  0  0  0  0  0  0  0  0  0
  138.3800   76.3745  222.4782 H   0  0  0  0  0  0  0  0  0  0  0  0
  141.7099   78.4957  223.6515 H   0  0  0  0  0  0  0  0  0  0  0  0
  142.4274   77.9124  222.0720 H   0  0  0  0  0  0  0  0  0  0  0  0
  143.0833   80.1698  223.5113 H   0  0  0  0  0  0  0  0  0  0  0  0
  143.5060   79.6773  221.7614 H   0  0  0  0  0  0  0  0  0  0  0  0
  141.9352   81.8411  222.8088 H   0  0  0  0  0  0  0  0  0  0  0  0
  142.8570   81.5296  221.2154 H   0  0  0  0  0  0  0  0  0  0  0  0
  140.0358   81.4422  221.8207 H   0  0  0  0  0  0  0  0  0  0  0  0
  140.9862   81.6518  220.2688 H   0  0  0  0  0  0  0  0  0  0  0  0
  139.4960   79.5574  220.3486 H   0  0  0  0  0  0  0  0  0  0  0  0
  142.2116   81.2039  218.9450 H   0  0  0  0  0  0  0  0  0  0  0  0
  143.6200   79.7140  217.3180 H   0  0  0  0  0  0  0  0  0  0  0  0
  143.0455   75.5703  219.2225 H   0  0  0  0  0  0  0  0  0  0  0  0
  144.0249   73.6592  218.0389 H   0  0  0  0  0  0  0  0  0  0  0  0
  144.8304   73.9197  215.6651 H   0  0  0  0  0  0  0  0  0  0  0  0
  144.5901   76.1390  214.5930 H   0  0  0  0  0  0  0  0  0  0  0  0
  143.6054   78.0471  215.7809 H   0  0  0  0  0  0  0  0  0  0  0  0
  140.2587   72.0947  220.8897 H   0  0  0  0  0  0  0  0  0  0  0  0
  142.2280   70.8000  220.1211 H   0  0  0  0  0  0  0  0  0  0  0  0
  144.6876   70.8139  219.6770 H   0  0  0  0  0  0  0  0  0  0  0  0
  146.8578   72.0105  219.6550 H   0  0  0  0  0  0  0  0  0  0  0  0
  146.9814   74.4009  220.3797 H   0  0  0  0  0  0  0  0  0  0  0  0
  144.8842   75.5383  221.1175 H   0  0  0  0  0  0  0  0  0  0  0  0
  1  2  2  0
  2  3  1  0
  3  4  1  0
  4  5  1  0
  5  6  2  0
  5  7  1  0
  7  8  1  0
  8  9  1  0
  9 10  1  0
 10 11  1  0
 11 12  1  0
 12 13  1  0
 13 14  2  0
 14 15  1  0
 15 16  1  0
 16 17  1  0
 17 18  2  0
 18 19  1  0
 19 20  2  0
 20 21  1  0
 21 22  2  0
 16 23  2  0
  2 24  1  0
 24 25  2  0
 25 26  1  0
 26 27  2  0
 27 28  1  0
 28 29  2  0
 29 30  1  0
 30 31  2  0
 31 32  1  0
 32 33  2  0
 12  7  1  0
 23 13  1  0
 33 24  1  0
 22 17  1  0
 32 27  1  0
  3 34  1  0
  4 35  1  0
  4 36  1  0
  8 37  1  0
  8 38  1  0
  9 39  1  0
  9 40  1  0
 10 41  1  0
 10 42  1  0
 11 43  1  0
 11 44  1  0
 12 45  1  6
 14 46  1  0
 15 47  1  0
 18 48  1  0
 19 49  1  0
 20 50  1  0
 21 51  1  0
 22 52  1  0
 25 53  1  0
 26 54  1  0
 28 55  1  0
 29 56  1  0
 30 57  1  0
 31 58  1  0
M  END
>  <smiles>  (22) 
O=C(NCC(=O)N1CCCC[C@H]1c1c[nH]c(-c2ccccc2)n1)c1ccc2ccccc2n1

>  <score_type>  (22) 
oracle

>  <origin>  (22) 
autodockgpu

>  <m_score__min__energy>  (22) 
-9.9100000000000001

>  <m_primary>  (22) 
energy

>  <rmsd>  (22) 
6.640243699603268

>  <m_score__min__rmsd>  (22) 
6.640243699603268

>  <meeko>  (22) 
{"free_energy": -7.7, "intermolecular_energy": -9.49, "internal_energy": -3.35, "cluster_size": 4, "cluster_id": 4, "rank_in_cluster": 1}

>  <energy>  (22) 
-8.73

>  <cluster_rmsd>  (22) 
1.18

>  <cluster>  (22) 
2

$$$$

     RDKit          3D

 58 62  0  0  0  0  0  0  0  0999 V2000
  139.3690   74.7180  221.9650 O   0  0  0  0  0  0  0  0  0  0  0  0
  140.3610   75.4750  221.9250 C   0  0  0  0  0  0  0  0  0  0  0  0
  141.5880   74.9820  221.4230 N   0  0  0  0  0  0  0  0  0  0  0  0
  141.8180   73.6620  220.9380 C   0  0  0  0  0  0  0  0  0  0  0  0
  141.1050   73.3510  219.6800 C   0  0  0  0  0  0  0  0  0  0  0  0
  140.4430   72.2950  219.4910 O   0  0  0  0  0  0  0  0  0  0  0  0
  141.1780   74.3090  218.6240 N   0  0  0  0  0  0  0  0  0  0  0  0
  139.9610   74.7080  217.9520 C   0  0  0  0  0  0  0  0  0  0  0  0
  140.1460   75.0380  216.5100 C   0  0  0  0  0  0  0  0  0  0  0  0
  141.4470   74.7380  215.8830 C   0  0  0  0  0  0  0  0  0  0  0  0
  142.6190   74.4820  216.7650 C   0  0  0  0  0  0  0  0  0  0  0  0
  142.4130   74.8980  218.1970 C   0  0  1  0  0  0  0  0  0  0  0  0
  142.4110   76.3690  218.2400 C   0  0  0  0  0  0  0  0  0  0  0  0
  143.2120   77.2400  217.5260 C   0  0  0  0  0  0  0  0  0  0  0  0
  142.9020   78.5160  217.8440 N   0  0  0  0  0  0  0  0  0  0  0  0
  141.9120   78.4530  218.7510 C   0  0  0  0  0  0  0  0  0  0  0  0
  141.2820   79.6040  219.3600 C   0  0  0  0  0  0  0  0  0  0  0  0
  139.9310   79.6650  219.6250 C   0  0  0  0  0  0  0  0  0  0  0  0
  139.3260   80.7590  220.2070 C   0  0  0  0  0  0  0  0  0  0  0  0
  140.0870   81.8780  220.5550 C   0  0  0  0  0  0  0  0  0  0  0  0
  141.4330   81.8230  220.2930 C   0  0  0  0  0  0  0  0  0  0  0  0
  142.0330   80.7240  219.7110 C   0  0  0  0  0  0  0  0  0  0  0  0
  141.6180   77.1820  218.9890 N   0  0  0  0  0  0  0  0  0  0  0  0
  140.3000   76.8780  222.3890 C   0  0  0  0  0  0  0  0  0  0  0  0
  139.1240   77.5070  222.6680 C   0  0  0  0  0  0  0  0  0  0  0  0
  139.0460   78.8220  223.1040 C   0  0  0  0  0  0  0  0  0  0  0  0
  140.2330   79.5170  223.2580 C   0  0  0  0  0  0  0  0  0  0  0  0
  140.2930   80.8250  223.6820 C   0  0  0  0  0  0  0  0  0  0  0  0
  141.5070   81.4950  223.8260 C   0  0  0  0  0  0  0  0  0  0  0  0
  142.7000   80.8470  223.5390 C   0  0  0  0  0  0  0  0  0  0  0  0
  142.6420   79.5290  223.1110 C   0  0  0  0  0  0  0  0  0  0  0  0
  141.4270   78.8860  222.9760 C   0  0  0  0  0  0  0  0  0  0  0  0
  141.4480   77.5980  222.5530 N   0  0  0  0  0  0  0  0  0  0  0  0
  142.4140   75.6510  221.4020 H   0  0  0  0  0  0  0  0  0  0  0  0
  142.8972   73.5408  220.7631 H   0  0  0  0  0  0  0  0  0  0  0  0
  141.4326   72.9705  221.7018 H   0  0  0  0  0  0  0  0  0  0  0  0
  139.2372   73.8832  218.0282 H   0  0  0  0  0  0  0  0  0  0  0  0
  139.6101   75.6258  218.4465 H   0  0  0  0  0  0  0  0  0  0  0  0
  139.3791   74.4842  215.9487 H   0  0  0  0  0  0  0  0  0  0  0  0
  140.0743   76.1350  216.4723 H   0  0  0  0  0  0  0  0  0  0  0  0
  141.3081   73.8424  215.2596 H   0  0  0  0  0  0  0  0  0  0  0  0
  141.7086   75.6639  215.3498 H   0  0  0  0  0  0  0  0  0  0  0  0
  142.8364   73.4039  216.7463 H   0  0  0  0  0  0  0  0  0  0  0  0
  143.4487   75.0895  216.3744 H   0  0  0  0  0  0  0  0  0  0  0  0
  143.2061   74.5569  218.8787 H   0  0  0  0  0  0  0  0  0  0  0  0
  143.9870   76.9390  216.8057 H   0  0  0  0  0  0  0  0  0  0  0  0
  143.3380   79.3870  217.4660 H   0  0  0  0  0  0  0  0  0  0  0  0
  139.3055   78.7999  219.3597 H   0  0  0  0  0  0  0  0  0  0  0  0
  138.2427   80.7507  220.3976 H   0  0  0  0  0  0  0  0  0  0  0  0
  139.6277   82.7636  221.0183 H   0  0  0  0  0  0  0  0  0  0  0  0
  142.0585   82.6885  220.5570 H   0  0  0  0  0  0  0  0  0  0  0  0
  143.1166   80.7327  219.5222 H   0  0  0  0  0  0  0  0  0  0  0  0
  138.1880   76.9432  222.5410 H   0  0  0  0  0  0  0  0  0  0  0  0
  138.0764   79.2948  223.3194 H   0  0  0  0  0  0  0  0  0  0  0  0
  139.3579   81.3560  223.9135 H   0  0  0  0  0  0  0  0  0  0  0  0
  141.5192   82.5404  224.1681 H   0  0  0  0  0  0  0  0  0  0  0  0
  143.6647   81.3642  223.6479 H   0  0  0  0  0  0  0  0  0  0  0  0
  143.5723   78.9907  222.8769 H   0  0  0  0  0  0  0  0  0  0  0  0
  1  2  2  0
  2  3  1  0
  3  4  1  0
  4  5  1  0
  5  6  2  0
  5  7  1  0
  7  8  1  0
  8  9  1  0
  9 10  1  0
 10 11  1  0
 11 12  1  0
 12 13  1  0
 13 14  2  0
 14 15  1  0
 15 16  1  0
 16 17  1  0
 17 18  2  0
 18 19  1  0
 19 20  2  0
 20 21  1  0
 21 22  2  0
 16 23  2  0
  2 24  1  0
 24 25  2  0
 25 26  1  0
 26 27  2  0
 27 28  1  0
 28 29  2  0
 29 30  1  0
 30 31  2  0
 31 32  1  0
 32 33  2  0
 12  7  1  0
 23 13  1  0
 33 24  1  0
 22 17  1  0
 32 27  1  0
  3 34  1  0
  4 35  1  0
  4 36  1  0
  8 37  1  0
  8 38  1  0
  9 39  1  0
  9 40  1  0
 10 41  1  0
 10 42  1  0
 11 43  1  0
 11 44  1  0
 12 45  1  1
 14 46  1  0
 15 47  1  0
 18 48  1  0
 19 49  1  0
 20 50  1  0
 21 51  1  0
 22 52  1  0
 25 53  1  0
 26 54  1  0
 28 55  1  0
 29 56  1  0
 30 57  1  0
 31 58  1  0
M  END
>  <smiles>  (23) 
O=C(NCC(=O)N1CCCC[C@H]1c1c[nH]c(-c2ccccc2)n1)c1ccc2ccccc2n1

>  <score_type>  (23) 
oracle

>  <origin>  (23) 
autodockgpu

>  <m_score__min__energy>  (23) 
-9.9100000000000001

>  <m_primary>  (23) 
energy

>  <rmsd>  (23) 
6.309073541952462

>  <m_score__min__rmsd>  (23) 
6.309073541952462

>  <meeko>  (23) 
{"free_energy": -6.77, "intermolecular_energy": -8.56, "internal_energy": -4.05, "cluster_size": 22, "cluster_id": 5, "rank_in_cluster": 4}

>  <energy>  (23) 
-9.19

>  <cluster_rmsd>  (23) 
0.0

>  <cluster>  (23) 
3

$$$$

     RDKit          3D

 58 62  0  0  0  0  0  0  0  0999 V2000
  137.2510   69.7830  222.3860 O   0  0  0  0  0  0  0  0  0  0  0  0
  137.9770   70.4590  223.1440 C   0  0  0  0  0  0  0  0  0  0  0  0
  138.1300   71.8440  222.9030 N   0  0  0  0  0  0  0  0  0  0  0  0
  137.5180   72.5770  221.8450 C   0  0  0  0  0  0  0  0  0  0  0  0
  136.5200   73.5690  222.3000 C   0  0  0  0  0  0  0  0  0  0  0  0
  135.3530   73.2700  222.6720 O   0  0  0  0  0  0  0  0  0  0  0  0
  136.9110   74.9420  222.3120 N   0  0  0  0  0  0  0  0  0  0  0  0
  136.5210   75.7730  223.4300 C   0  0  0  0  0  0  0  0  0  0  0  0
  136.2690   77.1960  223.0680 C   0  0  0  0  0  0  0  0  0  0  0  0
  136.2340   77.5610  221.6390 C   0  0  0  0  0  0  0  0  0  0  0  0
  136.8130   76.6110  220.6490 C   0  0  0  0  0  0  0  0  0  0  0  0
  137.6770   75.5390  221.2570 C   0  0  1  0  0  0  0  0  0  0  0  0
  138.9200   76.1750  221.7200 C   0  0  0  0  0  0  0  0  0  0  0  0
  140.1530   75.5830  221.9180 C   0  0  0  0  0  0  0  0  0  0  0  0
  141.0430   76.5050  222.3470 N   0  0  0  0  0  0  0  0  0  0  0  0
  140.3780   77.6710  222.4190 C   0  0  0  0  0  0  0  0  0  0  0  0
  140.9640   78.9260  222.8390 C   0  0  0  0  0  0  0  0  0  0  0  0
  140.3040   80.1310  222.7360 C   0  0  0  0  0  0  0  0  0  0  0  0
  140.8580   81.3290  223.1350 C   0  0  0  0  0  0  0  0  0  0  0  0
  142.1470   81.3620  223.6720 C   0  0  0  0  0  0  0  0  0  0  0  0
  142.8090   80.1640  223.7770 C   0  0  0  0  0  0  0  0  0  0  0  0
  142.2490   78.9670  223.3760 C   0  0  0  0  0  0  0  0  0  0  0  0
  139.1190   77.4800  222.0480 N   0  0  0  0  0  0  0  0  0  0  0  0
  138.6880   69.8590  224.2940 C   0  0  0  0  0  0  0  0  0  0  0  0
  138.8120   68.5110  224.4580 C   0  0  0  0  0  0  0  0  0  0  0  0
  139.4740   67.9300  225.5280 C   0  0  0  0  0  0  0  0  0  0  0  0
  140.0330   68.7750  226.4710 C   0  0  0  0  0  0  0  0  0  0  0  0
  140.7160   68.3260  227.5780 C   0  0  0  0  0  0  0  0  0  0  0  0
  141.2660   69.2060  228.5090 C   0  0  0  0  0  0  0  0  0  0  0  0
  141.1360   70.5770  228.3350 C   0  0  0  0  0  0  0  0  0  0  0  0
  140.4480   71.0320  227.2200 C   0  0  0  0  0  0  0  0  0  0  0  0
  139.9110   70.1400  226.3120 C   0  0  0  0  0  0  0  0  0  0  0  0
  139.2530   70.6580  225.2450 N   0  0  0  0  0  0  0  0  0  0  0  0
  138.7550   72.3920  223.5670 H   0  0  0  0  0  0  0  0  0  0  0  0
  138.3061   73.1081  221.2910 H   0  0  0  0  0  0  0  0  0  0  0  0
  136.9805   71.8474  221.2214 H   0  0  0  0  0  0  0  0  0  0  0  0
  135.5995   75.3582  223.8645 H   0  0  0  0  0  0  0  0  0  0  0  0
  137.3624   75.7689  224.1385 H   0  0  0  0  0  0  0  0  0  0  0  0
  135.2955   77.4735  223.4984 H   0  0  0  0  0  0  0  0  0  0  0  0
  137.1431   77.7343  223.4631 H   0  0  0  0  0  0  0  0  0  0  0  0
  135.1785   77.7098  221.3675 H   0  0  0  0  0  0  0  0  0  0  0  0
  136.8810   78.4481  221.5715 H   0  0  0  0  0  0  0  0  0  0  0  0
  135.9852   76.1243  220.1126 H   0  0  0  0  0  0  0  0  0  0  0  0
  137.4613   77.2016  219.9850 H   0  0  0  0  0  0  0  0  0  0  0  0
  137.9641   74.7449  220.5520 H   0  0  0  0  0  0  0  0  0  0  0  0
  140.3768   74.5190  221.7511 H   0  0  0  0  0  0  0  0  0  0  0  0
  142.0490   76.3540  222.5800 H   0  0  0  0  0  0  0  0  0  0  0  0
  139.2875   80.1377  222.3158 H   0  0  0  0  0  0  0  0  0  0  0  0
  140.2834   82.2611  223.0301 H   0  0  0  0  0  0  0  0  0  0  0  0
  142.6107   82.3053  223.9961 H   0  0  0  0  0  0  0  0  0  0  0  0
  143.8256   80.1572  224.1971 H   0  0  0  0  0  0  0  0  0  0  0  0
  142.8240   78.0353  223.4818 H   0  0  0  0  0  0  0  0  0  0  0  0
  138.3632   67.8503  223.7016 H   0  0  0  0  0  0  0  0  0  0  0  0
  139.5523   66.8370  225.6243 H   0  0  0  0  0  0  0  0  0  0  0  0
  140.8312   67.2430  227.7326 H   0  0  0  0  0  0  0  0  0  0  0  0
  141.8045   68.8128  229.3839 H   0  0  0  0  0  0  0  0  0  0  0  0
  141.5664   71.2826  229.0609 H   0  0  0  0  0  0  0  0  0  0  0  0
  140.3288   72.1133  227.0571 H   0  0  0  0  0  0  0  0  0  0  0  0
  1  2  2  0
  2  3  1  0
  3  4  1  0
  4  5  1  0
  5  6  2  0
  5  7  1  0
  7  8  1  0
  8  9  1  0
  9 10  1  0
 10 11  1  0
 11 12  1  0
 12 13  1  0
 13 14  2  0
 14 15  1  0
 15 16  1  0
 16 17  1  0
 17 18  2  0
 18 19  1  0
 19 20  2  0
 20 21  1  0
 21 22  2  0
 16 23  2  0
  2 24  1  0
 24 25  2  0
 25 26  1  0
 26 27  2  0
 27 28  1  0
 28 29  2  0
 29 30  1  0
 30 31  2  0
 31 32  1  0
 32 33  2  0
 12  7  1  0
 23 13  1  0
 33 24  1  0
 22 17  1  0
 32 27  1  0
  3 34  1  0
  4 35  1  0
  4 36  1  0
  8 37  1  0
  8 38  1  0
  9 39  1  0
  9 40  1  0
 10 41  1  0
 10 42  1  0
 11 43  1  0
 11 44  1  0
 12 45  1  6
 14 46  1  0
 15 47  1  0
 18 48  1  0
 19 49  1  0
 20 50  1  0
 21 51  1  0
 22 52  1  0
 25 53  1  0
 26 54  1  0
 28 55  1  0
 29 56  1  0
 30 57  1  0
 31 58  1  0
M  END
>  <smiles>  (24) 
O=C(NCC(=O)N1CCCC[C@H]1c1c[nH]c(-c2ccccc2)n1)c1ccc2ccccc2n1

>  <score_type>  (24) 
oracle

>  <origin>  (24) 
autodockgpu

>  <m_score__min__energy>  (24) 
-9.9100000000000001

>  <m_primary>  (24) 
energy

>  <rmsd>  (24) 
3.6547078808737172

>  <m_score__min__rmsd>  (24) 
3.6547078808737172

>  <meeko>  (24) 
{"free_energy": -9.37, "intermolecular_energy": -11.16, "internal_energy": -1.78, "cluster_size": 12, "cluster_id": 2, "rank_in_cluster": 5}

>  <energy>  (24) 
-7.7

>  <cluster_rmsd>  (24) 
0.0

>  <cluster>  (24) 
4

$$$$

     RDKit          3D

 58 62  0  0  0  0  0  0  0  0999 V2000
  137.2250   75.9560  222.6610 O   0  0  0  0  0  0  0  0  0  0  0  0
  138.4360   76.1900  222.4680 C   0  0  0  0  0  0  0  0  0  0  0  0
  139.2850   75.1420  222.0440 N   0  0  0  0  0  0  0  0  0  0  0  0
  138.8860   73.7940  221.8050 C   0  0  0  0  0  0  0  0  0  0  0  0
  139.9980   72.8990  221.4170 C   0  0  0  0  0  0  0  0  0  0  0  0
  140.1480   71.7310  221.8680 O   0  0  0  0  0  0  0  0  0  0  0  0
  140.9510   73.3970  220.4780 N   0  0  0  0  0  0  0  0  0  0  0  0
  140.6550   73.3100  219.0650 C   0  0  0  0  0  0  0  0  0  0  0  0
  141.8570   73.1090  218.2060 C   0  0  0  0  0  0  0  0  0  0  0  0
  143.1460   72.8190  218.8600 C   0  0  0  0  0  0  0  0  0  0  0  0
  143.2860   73.1070  220.3150 C   0  0  0  0  0  0  0  0  0  0  0  0
  142.1970   73.9830  220.8760 C   0  0  1  0  0  0  0  0  0  0  0  0
  142.4030   75.3430  220.3520 C   0  0  0  0  0  0  0  0  0  0  0  0
  143.5340   75.8560  219.7470 C   0  0  0  0  0  0  0  0  0  0  0  0
  143.3270   77.1460  219.4040 N   0  0  0  0  0  0  0  0  0  0  0  0
  142.0740   77.4470  219.7890 C   0  0  0  0  0  0  0  0  0  0  0  0
  141.4460   78.7370  219.6080 C   0  0  0  0  0  0  0  0  0  0  0  0
  140.0790   78.9150  219.6320 C   0  0  0  0  0  0  0  0  0  0  0  0
  139.4770   80.1430  219.4620 C   0  0  0  0  0  0  0  0  0  0  0  0
  140.2560   81.2830  219.2500 C   0  0  0  0  0  0  0  0  0  0  0  0
  141.6170   81.1120  219.2240 C   0  0  0  0  0  0  0  0  0  0  0  0
  142.2150   79.8790  219.3960 C   0  0  0  0  0  0  0  0  0  0  0  0
  141.5220   76.3790  220.3510 N   0  0  0  0  0  0  0  0  0  0  0  0
  139.0200   77.5350  222.6690 C   0  0  0  0  0  0  0  0  0  0  0  0
  138.2530   78.6520  222.8180 C   0  0  0  0  0  0  0  0  0  0  0  0
  138.7810   79.9200  223.0070 C   0  0  0  0  0  0  0  0  0  0  0  0
  140.1600   80.0410  223.0430 C   0  0  0  0  0  0  0  0  0  0  0  0
  140.8090   81.2410  223.2230 C   0  0  0  0  0  0  0  0  0  0  0  0
  142.2000   81.3270  223.2530 C   0  0  0  0  0  0  0  0  0  0  0  0
  142.9730   80.1840  223.1000 C   0  0  0  0  0  0  0  0  0  0  0  0
  142.3210   78.9740  222.9180 C   0  0  0  0  0  0  0  0  0  0  0  0
  140.9410   78.9140  222.8910 C   0  0  0  0  0  0  0  0  0  0  0  0
  140.3740   77.6960  222.7100 N   0  0  0  0  0  0  0  0  0  0  0  0
  140.3110   75.3730  221.8880 H   0  0  0  0  0  0  0  0  0  0  0  0
  138.4291   73.3999  222.7247 H   0  0  0  0  0  0  0  0  0  0  0  0
  138.1830   73.8146  220.9592 H   0  0  0  0  0  0  0  0  0  0  0  0
  139.9706   72.4636  218.9062 H   0  0  0  0  0  0  0  0  0  0  0  0
  140.2115   74.2731  218.7723 H   0  0  0  0  0  0  0  0  0  0  0  0
  141.6379   72.2678  217.5319 H   0  0  0  0  0  0  0  0  0  0  0  0
  142.0118   74.0861  217.7250 H   0  0  0  0  0  0  0  0  0  0  0  0
  143.3467   71.7465  218.7206 H   0  0  0  0  0  0  0  0  0  0  0  0
  143.8533   73.5110  218.3794 H   0  0  0  0  0  0  0  0  0  0  0  0
  143.2749   72.1510  220.8590 H   0  0  0  0  0  0  0  0  0  0  0  0
  144.2309   73.6562  220.4402 H   0  0  0  0  0  0  0  0  0  0  0  0
  142.2039   74.0556  221.9736 H   0  0  0  0  0  0  0  0  0  0  0  0
  144.4648   75.2970  219.5707 H   0  0  0  0  0  0  0  0  0  0  0  0
  143.9980   77.7930  218.9340 H   0  0  0  0  0  0  0  0  0  0  0  0
  139.4387   78.0354  219.7945 H   0  0  0  0  0  0  0  0  0  0  0  0
  138.3806   80.2257  219.4933 H   0  0  0  0  0  0  0  0  0  0  0  0
  139.7986   82.2736  219.1101 H   0  0  0  0  0  0  0  0  0  0  0  0
  142.2570   81.9914  219.0597 H   0  0  0  0  0  0  0  0  0  0  0  0
  143.3116   79.7978  219.3652 H   0  0  0  0  0  0  0  0  0  0  0  0
  137.1590   78.5417  222.7867 H   0  0  0  0  0  0  0  0  0  0  0  0
  138.1284   80.7977  223.1241 H   0  0  0  0  0  0  0  0  0  0  0  0
  140.2137   82.1577  223.3466 H   0  0  0  0  0  0  0  0  0  0  0  0
  142.6864   82.3029  223.3983 H   0  0  0  0  0  0  0  0  0  0  0  0
  144.0715   80.2368  223.1225 H   0  0  0  0  0  0  0  0  0  0  0  0
  142.9085   78.0523  222.7938 H   0  0  0  0  0  0  0  0  0  0  0  0
  1  2  2  0
  2  3  1  0
  3  4  1  0
  4  5  1  0
  5  6  2  0
  5  7  1  0
  7  8  1  0
  8  9  1  0
  9 10  1  0
 10 11  1  0
 11 12  1  0
 12 13  1  0
 13 14  2  0
 14 15  1  0
 15 16  1  0
 16 17  1  0
 17 18  2  0
 18 19  1  0
 19 20  2  0
 20 21  1  0
 21 22  2  0
 16 23  2  0
  2 24  1  0
 24 25  2  0
 25 26  1  0
 26 27  2  0
 27 28  1  0
 28 29  2  0
 29 30  1  0
 30 31  2  0
 31 32  1  0
 32 33  2  0
 12  7  1  0
 23 13  1  0
 33 24  1  0
 22 17  1  0
 32 27  1  0
  3 34  1  0
  4 35  1  0
  4 36  1  0
  8 37  1  0
  8 38  1  0
  9 39  1  0
  9 40  1  0
 10 41  1  0
 10 42  1  0
 11 43  1  0
 11 44  1  0
 12 45  1  1
 14 46  1  0
 15 47  1  0
 18 48  1  0
 19 49  1  0
 20 50  1  0
 21 51  1  0
 22 52  1  0
 25 53  1  0
 26 54  1  0
 28 55  1  0
 29 56  1  0
 30 57  1  0
 31 58  1  0
M  END
>  <smiles>  (25) 
O=C(NCC(=O)N1CCCC[C@H]1c1c[nH]c(-c2ccccc2)n1)c1ccc2ccccc2n1

>  <score_type>  (25) 
oracle

>  <origin>  (25) 
autodockgpu

>  <m_score__min__energy>  (25) 
-9.9100000000000001

>  <m_primary>  (25) 
energy

>  <rmsd>  (25) 
6.61668129726671

>  <m_score__min__rmsd>  (25) 
6.61668129726671

>  <meeko>  (25) 
{"free_energy": -6.61, "intermolecular_energy": -8.4, "internal_energy": -4.57, "cluster_size": 22, "cluster_id": 5, "rank_in_cluster": 13}

>  <energy>  (25) 
-7.69

>  <cluster_rmsd>  (25) 
0.06

>  <cluster>  (25) 
4

$$$$

     RDKit          3D

 58 62  0  0  0  0  0  0  0  0999 V2000
  138.1400   75.4460  222.4890 O   0  0  0  0  0  0  0  0  0  0  0  0
  139.3010   75.8830  222.3520 C   0  0  0  0  0  0  0  0  0  0  0  0
  140.3190   75.0130  221.9000 N   0  0  0  0  0  0  0  0  0  0  0  0
  140.1520   73.6360  221.5710 C   0  0  0  0  0  0  0  0  0  0  0  0
  141.3710   72.9940  221.0340 C   0  0  0  0  0  0  0  0  0  0  0  0
  141.7830   71.8580  221.3950 O   0  0  0  0  0  0  0  0  0  0  0  0
  142.1170   73.7110  220.0510 N   0  0  0  0  0  0  0  0  0  0  0  0
  141.8280   73.4910  218.6510 C   0  0  0  0  0  0  0  0  0  0  0  0
  143.0170   73.6150  217.7600 C   0  0  0  0  0  0  0  0  0  0  0  0
  144.3490   73.7340  218.3800 C   0  0  0  0  0  0  0  0  0  0  0  0
  144.4320   74.1020  219.8210 C   0  0  0  0  0  0  0  0  0  0  0  0
  143.1490   74.6460  220.3910 C   0  0  1  0  0  0  0  0  0  0  0  0
  142.9400   75.9870  219.8230 C   0  0  0  0  0  0  0  0  0  0  0  0
  143.5630   76.5490  218.7250 C   0  0  0  0  0  0  0  0  0  0  0  0
  143.0960   77.8010  218.5210 N   0  0  0  0  0  0  0  0  0  0  0  0
  142.1850   78.0280  219.4830 C   0  0  0  0  0  0  0  0  0  0  0  0
  141.4370   79.2580  219.6320 C   0  0  0  0  0  0  0  0  0  0  0  0
  140.0590   79.3010  219.6380 C   0  0  0  0  0  0  0  0  0  0  0  0
  139.3430   80.4700  219.7810 C   0  0  0  0  0  0  0  0  0  0  0  0
  140.0110   81.6890  219.9270 C   0  0  0  0  0  0  0  0  0  0  0  0
  141.3840   81.6520  219.9210 C   0  0  0  0  0  0  0  0  0  0  0  0
  142.0950   80.4770  219.7780 C   0  0  0  0  0  0  0  0  0  0  0  0
  142.0890   76.9550  220.2570 N   0  0  0  0  0  0  0  0  0  0  0  0
  139.6530   77.2890  222.6490 C   0  0  0  0  0  0  0  0  0  0  0  0
  138.7110   78.2550  222.8420 C   0  0  0  0  0  0  0  0  0  0  0  0
  139.0210   79.5780  223.1210 C   0  0  0  0  0  0  0  0  0  0  0  0
  140.3600   79.9190  223.2040 C   0  0  0  0  0  0  0  0  0  0  0  0
  140.8000   81.1940  223.4740 C   0  0  0  0  0  0  0  0  0  0  0  0
  142.1580   81.5020  223.5500 C   0  0  0  0  0  0  0  0  0  0  0  0
  143.1100   80.5120  223.3520 C   0  0  0  0  0  0  0  0  0  0  0  0
  142.6690   79.2260  223.0790 C   0  0  0  0  0  0  0  0  0  0  0  0
  141.3180   78.9450  223.0090 C   0  0  0  0  0  0  0  0  0  0  0  0
  140.9620   77.6650  222.7390 N   0  0  0  0  0  0  0  0  0  0  0  0
  141.2980   75.4150  221.7940 H   0  0  0  0  0  0  0  0  0  0  0  0
  139.8495   73.0971  222.4810 H   0  0  0  0  0  0  0  0  0  0  0  0
  139.3913   73.5882  220.7779 H   0  0  0  0  0  0  0  0  0  0  0  0
  141.4152   72.4777  218.5380 H   0  0  0  0  0  0  0  0  0  0  0  0
  141.1181   74.2738  218.3455 H   0  0  0  0  0  0  0  0  0  0  0  0
  143.0361   72.7225  217.1173 H   0  0  0  0  0  0  0  0  0  0  0  0
  142.8709   74.5770  217.2470 H   0  0  0  0  0  0  0  0  0  0  0  0
  144.8492   72.7612  218.2640 H   0  0  0  0  0  0  0  0  0  0  0  0
  144.8140   74.5833  217.8580 H   0  0  0  0  0  0  0  0  0  0  0  0
  144.7100   73.2036  220.3916 H   0  0  0  0  0  0  0  0  0  0  0  0
  145.1802   74.9043  219.9011 H   0  0  0  0  0  0  0  0  0  0  0  0
  143.1598   74.7575  221.4853 H   0  0  0  0  0  0  0  0  0  0  0  0
  144.3259   76.0513  218.1084 H   0  0  0  0  0  0  0  0  0  0  0  0
  143.3790   78.4680  217.7700 H   0  0  0  0  0  0  0  0  0  0  0  0
  139.5048   78.3578  219.5232 H   0  0  0  0  0  0  0  0  0  0  0  0
  138.2433   80.4435  219.7802 H   0  0  0  0  0  0  0  0  0  0  0  0
  139.4619   82.6353  220.0415 H   0  0  0  0  0  0  0  0  0  0  0  0
  141.9387   82.5951  220.0345 H   0  0  0  0  0  0  0  0  0  0  0  0
  143.1947   80.5039  219.7794 H   0  0  0  0  0  0  0  0  0  0  0  0
  137.6506   77.9709  222.7730 H   0  0  0  0  0  0  0  0  0  0  0  0
  138.2313   80.3290  223.2709 H   0  0  0  0  0  0  0  0  0  0  0  0
  140.0605   81.9924  223.6343 H   0  0  0  0  0  0  0  0  0  0  0  0
  142.4754   82.5325  223.7675 H   0  0  0  0  0  0  0  0  0  0  0  0
  144.1843   80.7410  223.4100 H   0  0  0  0  0  0  0  0  0  0  0  0
  143.4018   78.4218  222.9166 H   0  0  0  0  0  0  0  0  0  0  0  0
  1  2  2  0
  2  3  1  0
  3  4  1  0
  4  5  1  0
  5  6  2  0
  5  7  1  0
  7  8  1  0
  8  9  1  0
  9 10  1  0
 10 11  1  0
 11 12  1  0
 12 13  1  0
 13 14  2  0
 14 15  1  0
 15 16  1  0
 16 17  1  0
 17 18  2  0
 18 19  1  0
 19 20  2  0
 20 21  1  0
 21 22  2  0
 16 23  2  0
  2 24  1  0
 24 25  2  0
 25 26  1  0
 26 27  2  0
 27 28  1  0
 28 29  2  0
 29 30  1  0
 30 31  2  0
 31 32  1  0
 32 33  2  0
 12  7  1  0
 23 13  1  0
 33 24  1  0
 22 17  1  0
 32 27  1  0
  3 34  1  0
  4 35  1  0
  4 36  1  0
  8 37  1  0
  8 38  1  0
  9 39  1  0
  9 40  1  0
 10 41  1  0
 10 42  1  0
 11 43  1  0
 11 44  1  0
 12 45  1  1
 14 46  1  0
 15 47  1  0
 18 48  1  0
 19 49  1  0
 20 50  1  0
 21 51  1  0
 22 52  1  0
 25 53  1  0
 26 54  1  0
 28 55  1  0
 29 56  1  0
 30 57  1  0
 31 58  1  0
M  END
>  <smiles>  (26) 
O=C(NCC(=O)N1CCCC[C@H]1c1c[nH]c(-c2ccccc2)n1)c1ccc2ccccc2n1

>  <score_type>  (26) 
oracle

>  <origin>  (26) 
autodockgpu

>  <m_score__min__energy>  (26) 
-9.9100000000000001

>  <m_primary>  (26) 
energy

>  <rmsd>  (26) 
6.561200878506572

>  <m_score__min__rmsd>  (26) 
6.561200878506572

>  <meeko>  (26) 
{"free_energy": -6.95, "intermolecular_energy": -8.74, "internal_energy": -4.18, "cluster_size": 22, "cluster_id": 5, "rank_in_cluster": 3}

>  <energy>  (26) 
-7.3

>  <cluster_rmsd>  (26) 
0.76

>  <cluster>  (26) 
4

$$$$

     RDKit          3D

 58 62  0  0  0  0  0  0  0  0999 V2000
  140.2300   71.5760  221.2460 O   0  0  0  0  0  0  0  0  0  0  0  0
  139.6190   71.9200  222.2790 C   0  0  0  0  0  0  0  0  0  0  0  0
  138.7400   73.0270  222.2260 N   0  0  0  0  0  0  0  0  0  0  0  0
  138.4690   73.8200  221.0730 C   0  0  0  0  0  0  0  0  0  0  0  0
  138.2090   75.2450  221.3720 C   0  0  0  0  0  0  0  0  0  0  0  0
  137.0620   75.7170  221.5960 O   0  0  0  0  0  0  0  0  0  0  0  0
  139.3300   76.1280  221.4030 N   0  0  0  0  0  0  0  0  0  0  0  0
  139.9180   76.4710  222.6800 C   0  0  0  0  0  0  0  0  0  0  0  0
  140.4820   77.8500  222.7350 C   0  0  0  0  0  0  0  0  0  0  0  0
  140.2120   78.7650  221.6110 C   0  0  0  0  0  0  0  0  0  0  0  0
  139.7310   78.1870  220.3250 C   0  0  0  0  0  0  0  0  0  0  0  0
  139.9040   76.6950  220.2180 C   0  0  1  0  0  0  0  0  0  0  0  0
  141.3420   76.4210  220.0690 C   0  0  0  0  0  0  0  0  0  0  0  0
  142.3480   77.3150  219.7580 C   0  0  0  0  0  0  0  0  0  0  0  0
  143.5360   76.6740  219.7150 N   0  0  0  0  0  0  0  0  0  0  0  0
  143.2840   75.3840  219.9980 C   0  0  0  0  0  0  0  0  0  0  0  0
  144.2880   74.3440  220.0580 C   0  0  0  0  0  0  0  0  0  0  0  0
  144.1740   73.1530  219.3730 C   0  0  0  0  0  0  0  0  0  0  0  0
  145.1290   72.1600  219.4260 C   0  0  0  0  0  0  0  0  0  0  0  0
  146.2790   72.3330  220.2000 C   0  0  0  0  0  0  0  0  0  0  0  0
  146.3980   73.5170  220.8840 C   0  0  0  0  0  0  0  0  0  0  0  0
  145.4380   74.5090  220.8270 C   0  0  0  0  0  0  0  0  0  0  0  0
  141.9830   75.2300  220.2090 N   0  0  0  0  0  0  0  0  0  0  0  0
  139.7820   71.2070  223.5650 C   0  0  0  0  0  0  0  0  0  0  0  0
  139.4140   69.9060  223.7330 C   0  0  0  0  0  0  0  0  0  0  0  0
  139.5590   69.2210  224.9300 C   0  0  0  0  0  0  0  0  0  0  0  0
  140.1070   69.9080  226.0000 C   0  0  0  0  0  0  0  0  0  0  0  0
  140.3050   69.3450  227.2390 C   0  0  0  0  0  0  0  0  0  0  0  0
  140.8600   70.0670  228.2950 C   0  0  0  0  0  0  0  0  0  0  0  0
  141.2320   71.3920  228.1140 C   0  0  0  0  0  0  0  0  0  0  0  0
  141.0340   71.9620  226.8660 C   0  0  0  0  0  0  0  0  0  0  0  0
  140.4820   71.2260  225.8350 C   0  0  0  0  0  0  0  0  0  0  0  0
  140.3190   71.8500  224.6420 N   0  0  0  0  0  0  0  0  0  0  0  0
  138.2340   73.2950  223.1230 H   0  0  0  0  0  0  0  0  0  0  0  0
  139.3371   73.7603  220.4000 H   0  0  0  0  0  0  0  0  0  0  0  0
  137.5522   73.4174  220.6175 H   0  0  0  0  0  0  0  0  0  0  0  0
  139.1409   76.3836  223.4536 H   0  0  0  0  0  0  0  0  0  0  0  0
  140.7558   75.7769  222.8422 H   0  0  0  0  0  0  0  0  0  0  0  0
  140.0866   78.3267  223.6441 H   0  0  0  0  0  0  0  0  0  0  0  0
  141.5709   77.6974  222.7029 H   0  0  0  0  0  0  0  0  0  0  0  0
  139.4492   79.4810  221.9509 H   0  0  0  0  0  0  0  0  0  0  0  0
  141.1972   79.1880  221.3649 H   0  0  0  0  0  0  0  0  0  0  0  0
  138.6608   78.4189  220.2211 H   0  0  0  0  0  0  0  0  0  0  0  0
  140.3425   78.6349  219.5278 H   0  0  0  0  0  0  0  0  0  0  0  0
  139.3996   76.2483  219.3485 H   0  0  0  0  0  0  0  0  0  0  0  0
  142.2031   78.3896  219.5728 H   0  0  0  0  0  0  0  0  0  0  0  0
  144.4720   77.0870  219.5060 H   0  0  0  0  0  0  0  0  0  0  0  0
  143.2791   72.9872  218.7552 H   0  0  0  0  0  0  0  0  0  0  0  0
  144.9851   71.2294  218.8575 H   0  0  0  0  0  0  0  0  0  0  0  0
  147.0545   71.5551  220.2587 H   0  0  0  0  0  0  0  0  0  0  0  0
  147.2929   73.6826  221.5019 H   0  0  0  0  0  0  0  0  0  0  0  0
  145.5833   75.4396  221.3952 H   0  0  0  0  0  0  0  0  0  0  0  0
  138.9796   69.3716  222.8752 H   0  0  0  0  0  0  0  0  0  0  0  0
  139.2498   68.1697  225.0260 H   0  0  0  0  0  0  0  0  0  0  0  0
  140.0175   68.2958  227.4016 H   0  0  0  0  0  0  0  0  0  0  0  0
  141.0033   69.5855  229.2736 H   0  0  0  0  0  0  0  0  0  0  0  0
  141.6716   71.9734  228.9378 H   0  0  0  0  0  0  0  0  0  0  0  0
  141.3191   73.0105  226.6947 H   0  0  0  0  0  0  0  0  0  0  0  0
  1  2  2  0
  2  3  1  0
  3  4  1  0
  4  5  1  0
  5  6  2  0
  5  7  1  0
  7  8  1  0
  8  9  1  0
  9 10  1  0
 10 11  1  0
 11 12  1  0
 12 13  1  0
 13 14  2  0
 14 15  1  0
 15 16  1  0
 16 17  1  0
 17 18  2  0
 18 19  1  0
 19 20  2  0
 20 21  1  0
 21 22  2  0
 16 23  2  0
  2 24  1  0
 24 25  2  0
 25 26  1  0
 26 27  2  0
 27 28  1  0
 28 29  2  0
 29 30  1  0
 30 31  2  0
 31 32  1  0
 32 33  2  0
 12  7  1  0
 23 13  1  0
 33 24  1  0
 22 17  1  0
 32 27  1  0
  3 34  1  0
  4 35  1  0
  4 36  1  0
  8 37  1  0
  8 38  1  0
  9 39  1  0
  9 40  1  0
 10 41  1  0
 10 42  1  0
 11 43  1  0
 11 44  1  0
 12 45  1  6
 14 46  1  0
 15 47  1  0
 18 48  1  0
 19 49  1  0
 20 50  1  0
 21 51  1  0
 22 52  1  0
 25 53  1  0
 26 54  1  0
 28 55  1  0
 29 56  1  0
 30 57  1  0
 31 58  1  0
M  END
>  <smiles>  (27) 
O=C(NCC(=O)N1CCCC[C@H]1c1c[nH]c(-c2ccccc2)n1)c1ccc2ccccc2n1

>  <score_type>  (27) 
oracle

>  <origin>  (27) 
autodockgpu

>  <m_score__min__energy>  (27) 
-9.9100000000000001

>  <m_primary>  (27) 
energy

>  <rmsd>  (27) 
5.252284550717555

>  <m_score__min__rmsd>  (27) 
5.252284550717555

>  <meeko>  (27) 
{"free_energy": -9.46, "intermolecular_energy": -11.25, "internal_energy": -1.77, "cluster_size": 10, "cluster_id": 1, "rank_in_cluster": 8}

>  <energy>  (27) 
-6.76

>  <cluster_rmsd>  (27) 
0.89

>  <cluster>  (27) 
4

$$$$

     RDKit          3D

 58 62  0  0  0  0  0  0  0  0999 V2000
  137.3020   75.7770  222.6670 O   0  0  0  0  0  0  0  0  0  0  0  0
  138.5040   76.0480  222.4680 C   0  0  0  0  0  0  0  0  0  0  0  0
  139.3750   75.0350  222.0050 N   0  0  0  0  0  0  0  0  0  0  0  0
  139.0090   73.6850  221.7310 C   0  0  0  0  0  0  0  0  0  0  0  0
  140.1500   72.8150  221.3700 C   0  0  0  0  0  0  0  0  0  0  0  0
  140.3090   71.6460  221.8160 O   0  0  0  0  0  0  0  0  0  0  0  0
  141.1210   73.3390  220.4660 N   0  0  0  0  0  0  0  0  0  0  0  0
  140.8990   73.2060  219.0420 C   0  0  0  0  0  0  0  0  0  0  0  0
  142.1500   73.0470  218.2470 C   0  0  0  0  0  0  0  0  0  0  0  0
  143.4190   72.8370  218.9690 C   0  0  0  0  0  0  0  0  0  0  0  0
  143.4730   73.1640  220.4210 C   0  0  0  0  0  0  0  0  0  0  0  0
  142.3160   73.9960  220.9080 C   0  0  1  0  0  0  0  0  0  0  0  0
  142.4800   75.3520  220.3610 C   0  0  0  0  0  0  0  0  0  0  0  0
  143.5690   75.8690  219.6850 C   0  0  0  0  0  0  0  0  0  0  0  0
  143.3320   77.1540  219.3440 N   0  0  0  0  0  0  0  0  0  0  0  0
  142.1020   77.4490  219.7990 C   0  0  0  0  0  0  0  0  0  0  0  0
  141.4540   78.7330  219.6450 C   0  0  0  0  0  0  0  0  0  0  0  0
  142.1540   79.9100  219.4880 C   0  0  0  0  0  0  0  0  0  0  0  0
  141.5410   81.1360  219.3390 C   0  0  0  0  0  0  0  0  0  0  0  0
  140.1470   81.2290  219.3450 C   0  0  0  0  0  0  0  0  0  0  0  0
  139.4450   80.0600  219.5010 C   0  0  0  0  0  0  0  0  0  0  0  0
  140.0650   78.8340  219.6490 C   0  0  0  0  0  0  0  0  0  0  0  0
  141.5930   76.3820  220.4030 N   0  0  0  0  0  0  0  0  0  0  0  0
  139.0550   77.4020  222.7010 C   0  0  0  0  0  0  0  0  0  0  0  0
  138.2610   78.4950  222.8770 C   0  0  0  0  0  0  0  0  0  0  0  0
  138.7580   79.7710  223.0970 C   0  0  0  0  0  0  0  0  0  0  0  0
  140.1330   79.9250  223.1370 C   0  0  0  0  0  0  0  0  0  0  0  0
  140.7520   81.1360  223.3470 C   0  0  0  0  0  0  0  0  0  0  0  0
  142.1410   81.2550  223.3810 C   0  0  0  0  0  0  0  0  0  0  0  0
  142.9420   80.1350  223.2010 C   0  0  0  0  0  0  0  0  0  0  0  0
  142.3200   78.9140  222.9890 C   0  0  0  0  0  0  0  0  0  0  0  0
  140.9420   78.8220  222.9590 C   0  0  0  0  0  0  0  0  0  0  0  0
  140.4050   77.5950  222.7480 N   0  0  0  0  0  0  0  0  0  0  0  0
  140.3930   75.2980  221.8450 H   0  0  0  0  0  0  0  0  0  0  0  0
  138.5262   73.2685  222.6273 H   0  0  0  0  0  0  0  0  0  0  0  0
  138.3370   73.7072  220.8604 H   0  0  0  0  0  0  0  0  0  0  0  0
  140.2658   72.3229  218.8714 H   0  0  0  0  0  0  0  0  0  0  0  0
  140.4233   74.1388  218.7049 H   0  0  0  0  0  0  0  0  0  0  0  0
  142.0060   72.1810  217.5841 H   0  0  0  0  0  0  0  0  0  0  0  0
  142.2797   74.0198  217.7503 H   0  0  0  0  0  0  0  0  0  0  0  0
  143.6791   71.7732  218.8658 H   0  0  0  0  0  0  0  0  0  0  0  0
  144.1140   73.5528  218.5057 H   0  0  0  0  0  0  0  0  0  0  0  0
  143.4827   72.2210  220.9872 H   0  0  0  0  0  0  0  0  0  0  0  0
  144.3822   73.7632  220.5773 H   0  0  0  0  0  0  0  0  0  0  0  0
  142.2657   74.0933  222.0025 H   0  0  0  0  0  0  0  0  0  0  0  0
  144.4922   75.3156  219.4583 H   0  0  0  0  0  0  0  0  0  0  0  0
  143.9690   77.8020  218.8290 H   0  0  0  0  0  0  0  0  0  0  0  0
  143.2532   79.8693  219.4813 H   0  0  0  0  0  0  0  0  0  0  0  0
  142.1509   82.0430  219.2151 H   0  0  0  0  0  0  0  0  0  0  0  0
  139.6350   82.1958  219.2299 H   0  0  0  0  0  0  0  0  0  0  0  0
  138.3458   80.1006  219.5085 H   0  0  0  0  0  0  0  0  0  0  0  0
  139.4544   77.9273  219.7714 H   0  0  0  0  0  0  0  0  0  0  0  0
  137.1700   78.3585  222.8429 H   0  0  0  0  0  0  0  0  0  0  0  0
  138.0840   80.6294  223.2347 H   0  0  0  0  0  0  0  0  0  0  0  0
  140.1343   82.0346  223.4920 H   0  0  0  0  0  0  0  0  0  0  0  0
  142.6034   82.2386  223.5508 H   0  0  0  0  0  0  0  0  0  0  0  0
  144.0389   80.2142  223.2259 H   0  0  0  0  0  0  0  0  0  0  0  0
  142.9297   78.0101  222.8433 H   0  0  0  0  0  0  0  0  0  0  0  0
  1  2  2  0
  2  3  1  0
  3  4  1  0
  4  5  1  0
  5  6  2  0
  5  7  1  0
  7  8  1  0
  8  9  1  0
  9 10  1  0
 10 11  1  0
 11 12  1  0
 12 13  1  0
 13 14  2  0
 14 15  1  0
 15 16  1  0
 16 17  1  0
 17 18  2  0
 18 19  1  0
 19 20  2  0
 20 21  1  0
 21 22  2  0
 16 23  2  0
  2 24  1  0
 24 25  2  0
 25 26  1  0
 26 27  2  0
 27 28  1  0
 28 29  2  0
 29 30  1  0
 30 31  2  0
 31 32  1  0
 32 33  2  0
 12  7  1  0
 23 13  1  0
 33 24  1  0
 22 17  1  0
 32 27  1  0
  3 34  1  0
  4 35  1  0
  4 36  1  0
  8 37  1  0
  8 38  1  0
  9 39  1  0
  9 40  1  0
 10 41  1  0
 10 42  1  0
 11 43  1  0
 11 44  1  0
 12 45  1  1
 14 46  1  0
 15 47  1  0
 18 48  1  0
 19 49  1  0
 20 50  1  0
 21 51  1  0
 22 52  1  0
 25 53  1  0
 26 54  1  0
 28 55  1  0
 29 56  1  0
 30 57  1  0
 31 58  1  0
M  END
>  <smiles>  (28) 
O=C(NCC(=O)N1CCCC[C@H]1c1c[nH]c(-c2ccccc2)n1)c1ccc2ccccc2n1

>  <score_type>  (28) 
oracle

>  <origin>  (28) 
autodockgpu

>  <m_score__min__energy>  (28) 
-9.9100000000000001

>  <m_primary>  (28) 
energy

>  <rmsd>  (28) 
6.646062128689958

>  <m_score__min__rmsd>  (28) 
6.646062128689958

>  <meeko>  (28) 
{"free_energy": -6.63, "intermolecular_energy": -8.42, "internal_energy": -4.53, "cluster_size": 22, "cluster_id": 5, "rank_in_cluster": 7}

>  <energy>  (28) 
-7.18

>  <cluster_rmsd>  (28) 
0.0

>  <cluster>  (28) 
5

$$$$

     RDKit          3D

 58 62  0  0  0  0  0  0  0  0999 V2000
  137.3200   75.8040  222.6890 O   0  0  0  0  0  0  0  0  0  0  0  0
  138.5220   76.0680  222.4840 C   0  0  0  0  0  0  0  0  0  0  0  0
  139.3910   75.0410  222.0470 N   0  0  0  0  0  0  0  0  0  0  0  0
  139.0220   73.6860  221.8050 C   0  0  0  0  0  0  0  0  0  0  0  0
  140.1520   72.8170  221.4110 C   0  0  0  0  0  0  0  0  0  0  0  0
  140.3270   71.6500  221.8540 O   0  0  0  0  0  0  0  0  0  0  0  0
  141.0940   73.3400  220.4750 N   0  0  0  0  0  0  0  0  0  0  0  0
  140.8120   73.2330  219.0600 C   0  0  0  0  0  0  0  0  0  0  0  0
  142.0270   73.0680  218.2120 C   0  0  0  0  0  0  0  0  0  0  0  0
  143.3200   72.8280  218.8780 C   0  0  0  0  0  0  0  0  0  0  0  0
  143.4390   73.1310  220.3320 C   0  0  0  0  0  0  0  0  0  0  0  0
  142.3160   73.9730  220.8770 C   0  0  1  0  0  0  0  0  0  0  0  0
  142.4780   75.3350  220.3450 C   0  0  0  0  0  0  0  0  0  0  0  0
  143.5780   75.8680  219.7000 C   0  0  0  0  0  0  0  0  0  0  0  0
  143.3350   77.1530  219.3630 N   0  0  0  0  0  0  0  0  0  0  0  0
  142.0910   77.4310  219.7890 C   0  0  0  0  0  0  0  0  0  0  0  0
  141.4330   78.7100  219.6280 C   0  0  0  0  0  0  0  0  0  0  0  0
  140.0620   78.8500  219.6180 C   0  0  0  0  0  0  0  0  0  0  0  0
  139.4310   80.0660  219.4660 C   0  0  0  0  0  0  0  0  0  0  0  0
  140.1840   81.2330  219.3110 C   0  0  0  0  0  0  0  0  0  0  0  0
  141.5500   81.0990  219.3200 C   0  0  0  0  0  0  0  0  0  0  0  0
  142.1770   79.8770  219.4730 C   0  0  0  0  0  0  0  0  0  0  0  0
  141.5790   76.3550  220.3730 N   0  0  0  0  0  0  0  0  0  0  0  0
  139.0760   77.4250  222.6850 C   0  0  0  0  0  0  0  0  0  0  0  0
  138.2860   78.5290  222.8040 C   0  0  0  0  0  0  0  0  0  0  0  0
  138.7860   79.8080  222.9930 C   0  0  0  0  0  0  0  0  0  0  0  0
  140.1610   79.9560  223.0610 C   0  0  0  0  0  0  0  0  0  0  0  0
  140.7820   81.1690  223.2450 C   0  0  0  0  0  0  0  0  0  0  0  0
  142.1710   81.2810  223.3080 C   0  0  0  0  0  0  0  0  0  0  0  0
  142.9680   80.1520  223.1850 C   0  0  0  0  0  0  0  0  0  0  0  0
  142.3440   78.9270  223.0000 C   0  0  0  0  0  0  0  0  0  0  0  0
  140.9660   78.8420  222.9400 C   0  0  0  0  0  0  0  0  0  0  0  0
  140.4260   77.6120  222.7570 N   0  0  0  0  0  0  0  0  0  0  0  0
  140.4100   75.2980  221.8810 H   0  0  0  0  0  0  0  0  0  0  0  0
  138.5768   73.2790  222.7248 H   0  0  0  0  0  0  0  0  0  0  0  0
  138.3166   73.6937  220.9610 H   0  0  0  0  0  0  0  0  0  0  0  0
  140.1587   72.3622  218.9020 H   0  0  0  0  0  0  0  0  0  0  0  0
  140.3374   74.1780  218.7570 H   0  0  0  0  0  0  0  0  0  0  0  0
  141.8428   72.2148  217.5426 H   0  0  0  0  0  0  0  0  0  0  0  0
  142.1514   74.0464  217.7250 H   0  0  0  0  0  0  0  0  0  0  0  0
  143.5591   71.7622  218.7480 H   0  0  0  0  0  0  0  0  0  0  0  0
  144.0062   73.5412  218.3978 H   0  0  0  0  0  0  0  0  0  0  0  0
  143.4564   72.1792  220.8832 H   0  0  0  0  0  0  0  0  0  0  0  0
  144.3637   73.7126  220.4608 H   0  0  0  0  0  0  0  0  0  0  0  0
  142.3120   74.0549  221.9739 H   0  0  0  0  0  0  0  0  0  0  0  0
  144.5124   75.3262  219.4920 H   0  0  0  0  0  0  0  0  0  0  0  0
  143.9780   77.8110  218.8680 H   0  0  0  0  0  0  0  0  0  0  0  0
  139.4422   77.9490  219.7369 H   0  0  0  0  0  0  0  0  0  0  0  0
  138.3322   80.1180  219.4667 H   0  0  0  0  0  0  0  0  0  0  0  0
  139.7036   82.2148  219.1873 H   0  0  0  0  0  0  0  0  0  0  0  0
  142.1701   81.9997  219.2007 H   0  0  0  0  0  0  0  0  0  0  0  0
  143.2758   79.8255  219.4724 H   0  0  0  0  0  0  0  0  0  0  0  0
  137.1952   78.3985  222.7472 H   0  0  0  0  0  0  0  0  0  0  0  0
  138.1145   80.6743  223.0856 H   0  0  0  0  0  0  0  0  0  0  0  0
  140.1669   82.0754  223.3452 H   0  0  0  0  0  0  0  0  0  0  0  0
  142.6357   82.2670  223.4556 H   0  0  0  0  0  0  0  0  0  0  0  0
  144.0644   80.2262  223.2329 H   0  0  0  0  0  0  0  0  0  0  0  0
  142.9513   78.0153  222.9002 H   0  0  0  0  0  0  0  0  0  0  0  0
  1  2  2  0
  2  3  1  0
  3  4  1  0
  4  5  1  0
  5  6  2  0
  5  7  1  0
  7  8  1  0
  8  9  1  0
  9 10  1  0
 10 11  1  0
 11 12  1  0
 12 13  1  0
 13 14  2  0
 14 15  1  0
 15 16  1  0
 16 17  1  0
 17 18  2  0
 18 19  1  0
 19 20  2  0
 20 21  1  0
 21 22  2  0
 16 23  2  0
  2 24  1  0
 24 25  2  0
 25 26  1  0
 26 27  2  0
 27 28  1  0
 28 29  2  0
 29 30  1  0
 30 31  2  0
 31 32  1  0
 32 33  2  0
 12  7  1  0
 23 13  1  0
 33 24  1  0
 22 17  1  0
 32 27  1  0
  3 34  1  0
  4 35  1  0
  4 36  1  0
  8 37  1  0
  8 38  1  0
  9 39  1  0
  9 40  1  0
 10 41  1  0
 10 42  1  0
 11 43  1  0
 11 44  1  0
 12 45  1  1
 14 46  1  0
 15 47  1  0
 18 48  1  0
 19 49  1  0
 20 50  1  0
 21 51  1  0
 22 52  1  0
 25 53  1  0
 26 54  1  0
 28 55  1  0
 29 56  1  0
 30 57  1  0
 31 58  1  0
M  END
>  <smiles>  (29) 
O=C(NCC(=O)N1CCCC[C@H]1c1c[nH]c(-c2ccccc2)n1)c1ccc2ccccc2n1

>  <score_type>  (29) 
oracle

>  <origin>  (29) 
autodockgpu

>  <m_score__min__energy>  (29) 
-9.9100000000000001

>  <m_primary>  (29) 
energy

>  <rmsd>  (29) 
6.581732427149216

>  <m_score__min__rmsd>  (29) 
6.581732427149216

>  <meeko>  (29) 
{"free_energy": -6.62, "intermolecular_energy": -8.41, "internal_energy": -4.57, "cluster_size": 22, "cluster_id": 5, "rank_in_cluster": 12}

>  <energy>  (29) 
-7.01

>  <cluster_rmsd>  (29) 
0.46

>  <cluster>  (29) 
5

$$$$

     RDKit          3D

 58 62  0  0  0  0  0  0  0  0999 V2000
  140.3890   73.0100  222.4950 O   0  0  0  0  0  0  0  0  0  0  0  0
  139.6280   72.1640  223.0080 C   0  0  0  0  0  0  0  0  0  0  0  0
  138.3680   71.9160  222.4160 N   0  0  0  0  0  0  0  0  0  0  0  0
  137.8570   72.5560  221.2490 C   0  0  0  0  0  0  0  0  0  0  0  0
  136.7420   73.4900  221.5160 C   0  0  0  0  0  0  0  0  0  0  0  0
  135.5270   73.1530  221.5070 O   0  0  0  0  0  0  0  0  0  0  0  0
  137.0710   74.8500  221.7970 N   0  0  0  0  0  0  0  0  0  0  0  0
  136.7010   75.4120  223.0770 C   0  0  0  0  0  0  0  0  0  0  0  0
  136.3680   76.8650  223.0270 C   0  0  0  0  0  0  0  0  0  0  0  0
  136.2480   77.5120  221.7080 C   0  0  0  0  0  0  0  0  0  0  0  0
  136.8190   76.8170  220.5200 C   0  0  0  0  0  0  0  0  0  0  0  0
  137.7580   75.6900  220.8600 C   0  0  1  0  0  0  0  0  0  0  0  0
  138.9940   76.2840  221.3960 C   0  0  0  0  0  0  0  0  0  0  0  0
  140.2040   75.6580  221.6270 C   0  0  0  0  0  0  0  0  0  0  0  0
  141.0930   76.5460  222.1240 N   0  0  0  0  0  0  0  0  0  0  0  0
  140.4510   77.7240  222.2060 C   0  0  0  0  0  0  0  0  0  0  0  0
  141.0440   78.9510  222.6910 C   0  0  0  0  0  0  0  0  0  0  0  0
  142.0070   78.9780  223.6770 C   0  0  0  0  0  0  0  0  0  0  0  0
  142.5760   80.1450  224.1420 C   0  0  0  0  0  0  0  0  0  0  0  0
  142.1800   81.3770  223.6140 C   0  0  0  0  0  0  0  0  0  0  0  0
  141.2210   81.3560  222.6320 C   0  0  0  0  0  0  0  0  0  0  0  0
  140.6560   80.1830  222.1700 C   0  0  0  0  0  0  0  0  0  0  0  0
  139.2050   77.5720  221.7750 N   0  0  0  0  0  0  0  0  0  0  0  0
  140.0000   71.4050  224.2230 C   0  0  0  0  0  0  0  0  0  0  0  0
  140.8540   71.8990  225.1620 C   0  0  0  0  0  0  0  0  0  0  0  0
  141.2150   71.2040  226.3070 C   0  0  0  0  0  0  0  0  0  0  0  0
  140.6710   69.9440  226.4890 C   0  0  0  0  0  0  0  0  0  0  0  0
  140.9470   69.1520  227.5800 C   0  0  0  0  0  0  0  0  0  0  0  0
  140.3810   67.8870  227.7320 C   0  0  0  0  0  0  0  0  0  0  0  0
  139.5120   67.3910  226.7690 C   0  0  0  0  0  0  0  0  0  0  0  0
  139.2320   68.1880  225.6680 C   0  0  0  0  0  0  0  0  0  0  0  0
  139.8060   69.4380  225.5410 C   0  0  0  0  0  0  0  0  0  0  0  0
  139.4850   70.1600  224.4390 N   0  0  0  0  0  0  0  0  0  0  0  0
  137.7440   71.1890  222.8770 H   0  0  0  0  0  0  0  0  0  0  0  0
  138.6752   73.1197  220.7770 H   0  0  0  0  0  0  0  0  0  0  0  0
  137.4596   71.7629  220.5986 H   0  0  0  0  0  0  0  0  0  0  0  0
  135.8217   74.8681  223.4526 H   0  0  0  0  0  0  0  0  0  0  0  0
  137.5759   75.3080  223.7356 H   0  0  0  0  0  0  0  0  0  0  0  0
  135.4049   76.9958  223.5421 H   0  0  0  0  0  0  0  0  0  0  0  0
  137.2352   77.3571  223.4915 H   0  0  0  0  0  0  0  0  0  0  0  0
  135.1750   77.6576  221.5143 H   0  0  0  0  0  0  0  0  0  0  0  0
  136.8523   78.4264  221.8009 H   0  0  0  0  0  0  0  0  0  0  0  0
  135.9881   76.4074  219.9269 H   0  0  0  0  0  0  0  0  0  0  0  0
  137.4072   77.5644  219.9674 H   0  0  0  0  0  0  0  0  0  0  0  0
  138.0452   75.0725  219.9962 H   0  0  0  0  0  0  0  0  0  0  0  0
  140.4125   74.5951  221.4349 H   0  0  0  0  0  0  0  0  0  0  0  0
  142.0850   76.3650  222.3940 H   0  0  0  0  0  0  0  0  0  0  0  0
  142.3371   78.0238  224.1135 H   0  0  0  0  0  0  0  0  0  0  0  0
  143.3428   80.1061  224.9297 H   0  0  0  0  0  0  0  0  0  0  0  0
  142.6174   82.3216  223.9696 H   0  0  0  0  0  0  0  0  0  0  0  0
  140.8896   82.3100  222.1961 H   0  0  0  0  0  0  0  0  0  0  0  0
  139.8904   80.2225  221.3811 H   0  0  0  0  0  0  0  0  0  0  0  0
  141.2795   72.9010  225.0042 H   0  0  0  0  0  0  0  0  0  0  0  0
  141.9078   71.6379  227.0430 H   0  0  0  0  0  0  0  0  0  0  0  0
  141.6331   69.5274  228.3535 H   0  0  0  0  0  0  0  0  0  0  0  0
  140.6234   67.2803  228.6169 H   0  0  0  0  0  0  0  0  0  0  0  0
  139.0584   66.3946  226.8759 H   0  0  0  0  0  0  0  0  0  0  0  0
  138.5469   67.8211  224.8895 H   0  0  0  0  0  0  0  0  0  0  0  0
  1  2  2  0
  2  3  1  0
  3  4  1  0
  4  5  1  0
  5  6  2  0
  5  7  1  0
  7  8  1  0
  8  9  1  0
  9 10  1  0
 10 11  1  0
 11 12  1  0
 12 13  1  0
 13 14  2  0
 14 15  1  0
 15 16  1  0
 16 17  1  0
 17 18  2  0
 18 19  1  0
 19 20  2  0
 20 21  1  0
 21 22  2  0
 16 23  2  0
  2 24  1  0
 24 25  2  0
 25 26  1  0
 26 27  2  0
 27 28  1  0
 28 29  2  0
 29 30  1  0
 30 31  2  0
 31 32  1  0
 32 33  2  0
 12  7  1  0
 23 13  1  0
 33 24  1  0
 22 17  1  0
 32 27  1  0
  3 34  1  0
  4 35  1  0
  4 36  1  0
  8 37  1  0
  8 38  1  0
  9 39  1  0
  9 40  1  0
 10 41  1  0
 10 42  1  0
 11 43  1  0
 11 44  1  0
 12 45  1  6
 14 46  1  0
 15 47  1  0
 18 48  1  0
 19 49  1  0
 20 50  1  0
 21 51  1  0
 22 52  1  0
 25 53  1  0
 26 54  1  0
 28 55  1  0
 29 56  1  0
 30 57  1  0
 31 58  1  0
M  END
>  <smiles>  (30) 
O=C(NCC(=O)N1CCCC[C@H]1c1c[nH]c(-c2ccccc2)n1)c1ccc2ccccc2n1

>  <score_type>  (30) 
oracle

>  <origin>  (30) 
autodockgpu

>  <m_score__min__energy>  (30) 
-9.9100000000000001

>  <m_primary>  (30) 
energy

>  <rmsd>  (30) 
4.021728256335168

>  <m_score__min__rmsd>  (30) 
4.021728256335168

>  <meeko>  (30) 
{"free_energy": -9.28, "intermolecular_energy": -11.07, "internal_energy": -1.98, "cluster_size": 12, "cluster_id": 2, "rank_in_cluster": 7}

>  <energy>  (30) 
-6.95

>  <cluster_rmsd>  (30) 
0.93

>  <cluster>  (30) 
5

$$$$

     RDKit          3D

 58 62  0  0  0  0  0  0  0  0999 V2000
  140.5730   73.1800  221.1180 O   0  0  0  0  0  0  0  0  0  0  0  0
  139.7900   73.0840  222.0850 C   0  0  0  0  0  0  0  0  0  0  0  0
  138.7800   74.0590  222.2570 N   0  0  0  0  0  0  0  0  0  0  0  0
  138.5540   75.1820  221.4090 C   0  0  0  0  0  0  0  0  0  0  0  0
  138.8680   76.4830  222.0380 C   0  0  0  0  0  0  0  0  0  0  0  0
  138.1140   77.0620  222.8660 O   0  0  0  0  0  0  0  0  0  0  0  0
  140.0980   77.1120  221.6780 N   0  0  0  0  0  0  0  0  0  0  0  0
  141.0650   77.4060  222.7130 C   0  0  0  0  0  0  0  0  0  0  0  0
  141.8670   78.6370  222.4600 C   0  0  0  0  0  0  0  0  0  0  0  0
  141.4740   79.5130  221.3410 C   0  0  0  0  0  0  0  0  0  0  0  0
  140.5610   78.9670  220.2980 C   0  0  0  0  0  0  0  0  0  0  0  0
  140.4200   77.4690  220.3270 C   0  0  1  0  0  0  0  0  0  0  0  0
  141.6860   76.8900  219.8510 C   0  0  0  0  0  0  0  0  0  0  0  0
  142.5450   77.4000  218.8960 C   0  0  0  0  0  0  0  0  0  0  0  0
  143.6020   76.5730  218.7400 N   0  0  0  0  0  0  0  0  0  0  0  0
  143.4140   75.5490  219.5900 C   0  0  0  0  0  0  0  0  0  0  0  0
  144.3190   74.4310  219.7430 C   0  0  0  0  0  0  0  0  0  0  0  0
  144.6710   73.6040  218.6980 C   0  0  0  0  0  0  0  0  0  0  0  0
  145.5350   72.5380  218.8390 C   0  0  0  0  0  0  0  0  0  0  0  0
  146.0980   72.2520  220.0850 C   0  0  0  0  0  0  0  0  0  0  0  0
  145.7510   73.0720  221.1300 C   0  0  0  0  0  0  0  0  0  0  0  0
  144.8860   74.1390  220.9820 C   0  0  0  0  0  0  0  0  0  0  0  0
  142.2780   75.7330  220.2510 N   0  0  0  0  0  0  0  0  0  0  0  0
  139.8810   71.9800  223.0650 C   0  0  0  0  0  0  0  0  0  0  0  0
  139.5030   70.7050  222.7700 C   0  0  0  0  0  0  0  0  0  0  0  0
  139.5810   69.6560  223.6740 C   0  0  0  0  0  0  0  0  0  0  0  0
  140.0710   69.9360  224.9390 C   0  0  0  0  0  0  0  0  0  0  0  0
  140.1990   68.9880  225.9270 C   0  0  0  0  0  0  0  0  0  0  0  0
  140.6960   69.3050  227.1910 C   0  0  0  0  0  0  0  0  0  0  0  0
  141.0780   70.6070  227.4830 C   0  0  0  0  0  0  0  0  0  0  0  0
  140.9500   71.5650  226.4880 C   0  0  0  0  0  0  0  0  0  0  0  0
  140.4550   71.2260  225.2440 C   0  0  0  0  0  0  0  0  0  0  0  0
  140.3590   72.2150  224.3220 N   0  0  0  0  0  0  0  0  0  0  0  0
  138.1290   73.9490  223.0910 H   0  0  0  0  0  0  0  0  0  0  0  0
  139.1818   75.0706  220.5127 H   0  0  0  0  0  0  0  0  0  0  0  0
  137.4793   75.1928  221.1745 H   0  0  0  0  0  0  0  0  0  0  0  0
  140.5265   77.5330  223.6637 H   0  0  0  0  0  0  0  0  0  0  0  0
  141.7724   76.5640  222.7368 H   0  0  0  0  0  0  0  0  0  0  0  0
  141.8291   79.2438  223.3767 H   0  0  0  0  0  0  0  0  0  0  0  0
  142.8588   78.2587  222.1714 H   0  0  0  0  0  0  0  0  0  0  0  0
  140.9798   80.3940  221.7763 H   0  0  0  0  0  0  0  0  0  0  0  0
  142.4149   79.7018  220.8034 H   0  0  0  0  0  0  0  0  0  0  0  0
  139.5651   79.4105  220.4444 H   0  0  0  0  0  0  0  0  0  0  0  0
  141.0023   79.2250  219.3240 H   0  0  0  0  0  0  0  0  0  0  0  0
  139.6238   77.0839  219.6730 H   0  0  0  0  0  0  0  0  0  0  0  0
  142.3911   78.3395  218.3449 H   0  0  0  0  0  0  0  0  0  0  0  0
  144.4120   76.6950  218.0920 H   0  0  0  0  0  0  0  0  0  0  0  0
  144.2427   73.8035  217.7047 H   0  0  0  0  0  0  0  0  0  0  0  0
  145.7811   71.9120  217.9686 H   0  0  0  0  0  0  0  0  0  0  0  0
  146.7888   71.4071  220.2228 H   0  0  0  0  0  0  0  0  0  0  0  0
  146.1783   72.8717  222.1236 H   0  0  0  0  0  0  0  0  0  0  0  0
  144.6419   74.7655  221.8526 H   0  0  0  0  0  0  0  0  0  0  0  0
  139.1156   70.4964  221.7619 H   0  0  0  0  0  0  0  0  0  0  0  0
  139.2654   68.6394  223.3967 H   0  0  0  0  0  0  0  0  0  0  0  0
  139.9011   67.9507  225.7144 H   0  0  0  0  0  0  0  0  0  0  0  0
  140.7854   68.5216  227.9580 H   0  0  0  0  0  0  0  0  0  0  0  0
  141.4712   70.8718  228.4756 H   0  0  0  0  0  0  0  0  0  0  0  0
  141.2456   72.6048  226.6917 H   0  0  0  0  0  0  0  0  0  0  0  0
  1  2  2  0
  2  3  1  0
  3  4  1  0
  4  5  1  0
  5  6  2  0
  5  7  1  0
  7  8  1  0
  8  9  1  0
  9 10  1  0
 10 11  1  0
 11 12  1  0
 12 13  1  0
 13 14  2  0
 14 15  1  0
 15 16  1  0
 16 17  1  0
 17 18  2  0
 18 19  1  0
 19 20  2  0
 20 21  1  0
 21 22  2  0
 16 23  2  0
  2 24  1  0
 24 25  2  0
 25 26  1  0
 26 27  2  0
 27 28  1  0
 28 29  2  0
 29 30  1  0
 30 31  2  0
 31 32  1  0
 32 33  2  0
 12  7  1  0
 23 13  1  0
 33 24  1  0
 22 17  1  0
 32 27  1  0
  3 34  1  0
  4 35  1  0
  4 36  1  0
  8 37  1  0
  8 38  1  0
  9 39  1  0
  9 40  1  0
 10 41  1  0
 10 42  1  0
 11 43  1  0
 11 44  1  0
 12 45  1  6
 14 46  1  0
 15 47  1  0
 18 48  1  0
 19 49  1  0
 20 50  1  0
 21 51  1  0
 22 52  1  0
 25 53  1  0
 26 54  1  0
 28 55  1  0
 29 56  1  0
 30 57  1  0
 31 58  1  0
M  END
>  <smiles>  (31) 
O=C(NCC(=O)N1CCCC[C@H]1c1c[nH]c(-c2ccccc2)n1)c1ccc2ccccc2n1

>  <score_type>  (31) 
oracle

>  <origin>  (31) 
autodockgpu

>  <m_score__min__energy>  (31) 
-9.9100000000000001

>  <m_primary>  (31) 
energy

>  <rmsd>  (31) 
5.404173346223403

>  <m_score__min__rmsd>  (31) 
5.404173346223403

>  <meeko>  (31) 
{"free_energy": -9.34, "intermolecular_energy": -11.13, "internal_energy": -1.99, "cluster_size": 10, "cluster_id": 1, "rank_in_cluster": 9}

>  <energy>  (31) 
-6.77

>  <cluster_rmsd>  (31) 
0.86

>  <cluster>  (31) 
5

$$$$

     RDKit          3D

 58 62  0  0  0  0  0  0  0  0999 V2000
  140.9530   73.3840  221.9680 O   0  0  0  0  0  0  0  0  0  0  0  0
  139.9090   73.0040  222.5380 C   0  0  0  0  0  0  0  0  0  0  0  0
  138.7060   73.7170  222.3280 N   0  0  0  0  0  0  0  0  0  0  0  0
  138.5550   74.8680  221.5010 C   0  0  0  0  0  0  0  0  0  0  0  0
  138.8940   76.1410  222.1750 C   0  0  0  0  0  0  0  0  0  0  0  0
  138.2330   76.6250  223.1330 O   0  0  0  0  0  0  0  0  0  0  0  0
  140.0360   76.8550  221.7030 N   0  0  0  0  0  0  0  0  0  0  0  0
  140.9730   77.3950  222.6640 C   0  0  0  0  0  0  0  0  0  0  0  0
  141.6200   78.6660  222.2300 C   0  0  0  0  0  0  0  0  0  0  0  0
  141.1140   79.3320  221.0160 C   0  0  0  0  0  0  0  0  0  0  0  0
  140.2620   78.5490  220.0780 C   0  0  0  0  0  0  0  0  0  0  0  0
  140.2990   77.0620  220.3090 C   0  0  1  0  0  0  0  0  0  0  0  0
  141.6200   76.5760  219.8800 C   0  0  0  0  0  0  0  0  0  0  0  0
  142.5020   77.1790  219.0030 C   0  0  0  0  0  0  0  0  0  0  0  0
  143.6100   76.4180  218.8690 N   0  0  0  0  0  0  0  0  0  0  0  0
  143.4320   75.3430  219.6550 C   0  0  0  0  0  0  0  0  0  0  0  0
  144.3880   74.2680  219.8060 C   0  0  0  0  0  0  0  0  0  0  0  0
  144.3680   73.1320  219.0240 C   0  0  0  0  0  0  0  0  0  0  0  0
  145.2780   72.1060  219.1640 C   0  0  0  0  0  0  0  0  0  0  0  0
  146.2800   72.1840  220.1350 C   0  0  0  0  0  0  0  0  0  0  0  0
  146.3050   73.3130  220.9160 C   0  0  0  0  0  0  0  0  0  0  0  0
  145.3910   74.3380  220.7710 C   0  0  0  0  0  0  0  0  0  0  0  0
  142.2520   75.4330  220.2570 N   0  0  0  0  0  0  0  0  0  0  0  0
  139.8860   71.8260  223.4320 C   0  0  0  0  0  0  0  0  0  0  0  0
  139.3330   70.6360  223.0630 C   0  0  0  0  0  0  0  0  0  0  0  0
  139.3020   69.5210  223.8870 C   0  0  0  0  0  0  0  0  0  0  0  0
  139.8640   69.6380  225.1460 C   0  0  0  0  0  0  0  0  0  0  0  0
  139.8980   68.6080  226.0580 C   0  0  0  0  0  0  0  0  0  0  0  0
  140.4730   68.7620  227.3190 C   0  0  0  0  0  0  0  0  0  0  0  0
  141.0330   69.9770  227.6870 C   0  0  0  0  0  0  0  0  0  0  0  0
  141.0000   71.0170  226.7700 C   0  0  0  0  0  0  0  0  0  0  0  0
  140.4250   70.8400  225.5260 C   0  0  0  0  0  0  0  0  0  0  0  0
  140.4300   71.9010  224.6810 N   0  0  0  0  0  0  0  0  0  0  0  0
  137.8350   73.3680  222.8270 H   0  0  0  0  0  0  0  0  0  0  0  0
  139.2119   74.7540  220.6260 H   0  0  0  0  0  0  0  0  0  0  0  0
  137.4913   74.9260  221.2268 H   0  0  0  0  0  0  0  0  0  0  0  0
  140.4342   77.5843  223.6041 H   0  0  0  0  0  0  0  0  0  0  0  0
  141.7757   76.6517  222.7789 H   0  0  0  0  0  0  0  0  0  0  0  0
  141.5195   79.3817  223.0593 H   0  0  0  0  0  0  0  0  0  0  0  0
  142.6468   78.3707  221.9681 H   0  0  0  0  0  0  0  0  0  0  0  0
  140.5229   80.1997  221.3442 H   0  0  0  0  0  0  0  0  0  0  0  0
  142.0203   79.5551  220.4339 H   0  0  0  0  0  0  0  0  0  0  0  0
  139.2221   78.8900  220.1894 H   0  0  0  0  0  0  0  0  0  0  0  0
  140.6604   78.7229  219.0676 H   0  0  0  0  0  0  0  0  0  0  0  0
  139.5468   76.5023  219.7338 H   0  0  0  0  0  0  0  0  0  0  0  0
  142.3275   78.1364  218.4903 H   0  0  0  0  0  0  0  0  0  0  0  0
  144.4460   76.6150  218.2750 H   0  0  0  0  0  0  0  0  0  0  0  0
  143.5894   73.0404  218.2524 H   0  0  0  0  0  0  0  0  0  0  0  0
  145.2153   71.2239  218.5099 H   0  0  0  0  0  0  0  0  0  0  0  0
  147.0157   71.3771  220.2677 H   0  0  0  0  0  0  0  0  0  0  0  0
  147.0837   73.4046  221.6875 H   0  0  0  0  0  0  0  0  0  0  0  0
  145.4554   75.2202  221.4249 H   0  0  0  0  0  0  0  0  0  0  0  0
  138.8884   70.5560  222.0600 H   0  0  0  0  0  0  0  0  0  0  0  0
  138.8469   68.5773  223.5517 H   0  0  0  0  0  0  0  0  0  0  0  0
  139.4597   67.6368  225.7848 H   0  0  0  0  0  0  0  0  0  0  0  0
  140.4827   67.9178  228.0241 H   0  0  0  0  0  0  0  0  0  0  0  0
  141.4904   70.1116  228.6783 H   0  0  0  0  0  0  0  0  0  0  0  0
  141.4355   71.9916  227.0354 H   0  0  0  0  0  0  0  0  0  0  0  0
  1  2  2  0
  2  3  1  0
  3  4  1  0
  4  5  1  0
  5  6  2  0
  5  7  1  0
  7  8  1  0
  8  9  1  0
  9 10  1  0
 10 11  1  0
 11 12  1  0
 12 13  1  0
 13 14  2  0
 14 15  1  0
 15 16  1  0
 16 17  1  0
 17 18  2  0
 18 19  1  0
 19 20  2  0
 20 21  1  0
 21 22  2  0
 16 23  2  0
  2 24  1  0
 24 25  2  0
 25 26  1  0
 26 27  2  0
 27 28  1  0
 28 29  2  0
 29 30  1  0
 30 31  2  0
 31 32  1  0
 32 33  2  0
 12  7  1  0
 23 13  1  0
 33 24  1  0
 22 17  1  0
 32 27  1  0
  3 34  1  0
  4 35  1  0
  4 36  1  0
  8 37  1  0
  8 38  1  0
  9 39  1  0
  9 40  1  0
 10 41  1  0
 10 42  1  0
 11 43  1  0
 11 44  1  0
 12 45  1  6
 14 46  1  0
 15 47  1  0
 18 48  1  0
 19 49  1  0
 20 50  1  0
 21 51  1  0
 22 52  1  0
 25 53  1  0
 26 54  1  0
 28 55  1  0
 29 56  1  0
 30 57  1  0
 31 58  1  0
M  END
>  <smiles>  (32) 
O=C(NCC(=O)N1CCCC[C@H]1c1c[nH]c(-c2ccccc2)n1)c1ccc2ccccc2n1

>  <score_type>  (32) 
oracle

>  <origin>  (32) 
autodockgpu

>  <m_score__min__energy>  (32) 
-9.9100000000000001

>  <m_primary>  (32) 
energy

>  <rmsd>  (32) 
5.388743898078144

>  <m_score__min__rmsd>  (32) 
5.388743898078144

>  <meeko>  (32) 
{"free_energy": -9.86, "intermolecular_energy": -11.65, "internal_energy": -1.88, "cluster_size": 10, "cluster_id": 1, "rank_in_cluster": 5}

>  <energy>  (32) 
-6.71

>  <cluster_rmsd>  (32) 
1.21

>  <cluster>  (32) 
5

$$$$

     RDKit          3D

 58 62  0  0  0  0  0  0  0  0999 V2000
  139.1790   70.3480  221.6850 O   0  0  0  0  0  0  0  0  0  0  0  0
  138.9650   71.1430  222.6230 C   0  0  0  0  0  0  0  0  0  0  0  0
  138.1460   72.2730  222.3990 N   0  0  0  0  0  0  0  0  0  0  0  0
  137.5150   72.6130  221.1670 C   0  0  0  0  0  0  0  0  0  0  0  0
  138.4600   72.9420  220.0780 C   0  0  0  0  0  0  0  0  0  0  0  0
  138.4670   72.3660  218.9570 O   0  0  0  0  0  0  0  0  0  0  0  0
  139.4160   73.9730  220.3230 N   0  0  0  0  0  0  0  0  0  0  0  0
  139.8760   74.7810  219.2140 C   0  0  0  0  0  0  0  0  0  0  0  0
  141.2910   75.2350  219.3420 C   0  0  0  0  0  0  0  0  0  0  0  0
  142.1140   74.6700  220.4280 C   0  0  0  0  0  0  0  0  0  0  0  0
  141.4260   73.9830  221.5570 C   0  0  0  0  0  0  0  0  0  0  0  0
  139.9460   74.2460  221.6270 C   0  0  1  0  0  0  0  0  0  0  0  0
  139.7590   75.6400  222.0590 C   0  0  0  0  0  0  0  0  0  0  0  0
  138.5700   76.3040  222.2920 C   0  0  0  0  0  0  0  0  0  0  0  0
  138.8200   77.5750  222.6760 N   0  0  0  0  0  0  0  0  0  0  0  0
  140.1570   77.7140  222.6880 C   0  0  0  0  0  0  0  0  0  0  0  0
  140.8540   78.9300  223.0450 C   0  0  0  0  0  0  0  0  0  0  0  0
  140.2040   80.0640  223.4840 C   0  0  0  0  0  0  0  0  0  0  0  0
  140.8640   81.2250  223.8260 C   0  0  0  0  0  0  0  0  0  0  0  0
  142.2560   81.2930  223.7360 C   0  0  0  0  0  0  0  0  0  0  0  0
  142.9090   80.1670  223.2990 C   0  0  0  0  0  0  0  0  0  0  0  0
  142.2420   79.0070  222.9580 C   0  0  0  0  0  0  0  0  0  0  0  0
  140.7180   76.5680  222.3220 N   0  0  0  0  0  0  0  0  0  0  0  0
  139.5420   70.9430  223.9710 C   0  0  0  0  0  0  0  0  0  0  0  0
  140.3490   71.8640  224.5670 C   0  0  0  0  0  0  0  0  0  0  0  0
  140.8990   71.6950  225.8290 C   0  0  0  0  0  0  0  0  0  0  0  0
  140.6030   70.5240  226.5050 C   0  0  0  0  0  0  0  0  0  0  0  0
  141.0840   70.2340  227.7610 C   0  0  0  0  0  0  0  0  0  0  0  0
  140.7670   69.0430  228.4130 C   0  0  0  0  0  0  0  0  0  0  0  0
  139.9440   68.1090  227.7980 C   0  0  0  0  0  0  0  0  0  0  0  0
  139.4580   68.3990  226.5320 C   0  0  0  0  0  0  0  0  0  0  0  0
  139.7870   69.5860  225.9060 C   0  0  0  0  0  0  0  0  0  0  0  0
  139.2740   69.8010  224.6690 N   0  0  0  0  0  0  0  0  0  0  0  0
  137.9830   72.9310  223.2190 H   0  0  0  0  0  0  0  0  0  0  0  0
  136.9007   71.7589  220.8457 H   0  0  0  0  0  0  0  0  0  0  0  0
  136.9178   73.5176  221.3543 H   0  0  0  0  0  0  0  0  0  0  0  0
  139.7848   74.1877  218.2922 H   0  0  0  0  0  0  0  0  0  0  0  0
  139.2509   75.6860  219.1979 H   0  0  0  0  0  0  0  0  0  0  0  0
  141.7958   74.9971  218.3941 H   0  0  0  0  0  0  0  0  0  0  0  0
  141.2105   76.3032  219.5918 H   0  0  0  0  0  0  0  0  0  0  0  0
  142.7974   73.9391  219.9710 H   0  0  0  0  0  0  0  0  0  0  0  0
  142.5852   75.5481  220.8938 H   0  0  0  0  0  0  0  0  0  0  0  0
  141.5793   72.8993  221.4467 H   0  0  0  0  0  0  0  0  0  0  0  0
  141.8629   74.3821  222.4843 H   0  0  0  0  0  0  0  0  0  0  0  0
  139.4144   73.6102  222.3503 H   0  0  0  0  0  0  0  0  0  0  0  0
  137.5683   75.8632  222.1813 H   0  0  0  0  0  0  0  0  0  0  0  0
  138.1220   78.3130  222.9200 H   0  0  0  0  0  0  0  0  0  0  0  0
  139.1072   80.0412  223.5651 H   0  0  0  0  0  0  0  0  0  0  0  0
  140.2930   82.0998  224.1706 H   0  0  0  0  0  0  0  0  0  0  0  0
  142.8049   82.2080  224.0033 H   0  0  0  0  0  0  0  0  0  0  0  0
  144.0057   80.1899  223.2174 H   0  0  0  0  0  0  0  0  0  0  0  0
  142.8140   78.1329  222.6133 H   0  0  0  0  0  0  0  0  0  0  0  0
  140.5765   72.7902  224.0189 H   0  0  0  0  0  0  0  0  0  0  0  0
  141.5467   72.4634  226.2762 H   0  0  0  0  0  0  0  0  0  0  0  0
  141.7368   70.9620  228.2648 H   0  0  0  0  0  0  0  0  0  0  0  0
  141.1698   68.8429  229.4168 H   0  0  0  0  0  0  0  0  0  0  0  0
  139.6848   67.1656  228.3008 H   0  0  0  0  0  0  0  0  0  0  0  0
  138.8041   67.6769  226.0211 H   0  0  0  0  0  0  0  0  0  0  0  0
  1  2  2  0
  2  3  1  0
  3  4  1  0
  4  5  1  0
  5  6  2  0
  5  7  1  0
  7  8  1  0
  8  9  1  0
  9 10  1  0
 10 11  1  0
 11 12  1  0
 12 13  1  0
 13 14  2  0
 14 15  1  0
 15 16  1  0
 16 17  1  0
 17 18  2  0
 18 19  1  0
 19 20  2  0
 20 21  1  0
 21 22  2  0
 16 23  2  0
  2 24  1  0
 24 25  2  0
 25 26  1  0
 26 27  2  0
 27 28  1  0
 28 29  2  0
 29 30  1  0
 30 31  2  0
 31 32  1  0
 32 33  2  0
 12  7  1  0
 23 13  1  0
 33 24  1  0
 22 17  1  0
 32 27  1  0
  3 34  1  0
  4 35  1  0
  4 36  1  0
  8 37  1  0
  8 38  1  0
  9 39  1  0
  9 40  1  0
 10 41  1  0
 10 42  1  0
 11 43  1  0
 11 44  1  0
 12 45  1  1
 14 46  1  0
 15 47  1  0
 18 48  1  0
 19 49  1  0
 20 50  1  0
 21 51  1  0
 22 52  1  0
 25 53  1  0
 26 54  1  0
 28 55  1  0
 29 56  1  0
 30 57  1  0
 31 58  1  0
M  END
>  <smiles>  (33) 
O=C(NCC(=O)N1CCCC[C@H]1c1c[nH]c(-c2ccccc2)n1)c1ccc2ccccc2n1

>  <score_type>  (33) 
oracle

>  <origin>  (33) 
autodockgpu

>  <m_score__min__energy>  (33) 
-9.9100000000000001

>  <m_primary>  (33) 
energy

>  <rmsd>  (33) 
3.24498840236219

>  <m_score__min__rmsd>  (33) 
3.24498840236219

>  <meeko>  (33) 
{"free_energy": -9.19, "intermolecular_energy": -10.98, "internal_energy": -1.82, "cluster_size": 1, "cluster_id": 3, "rank_in_cluster": 1}

>  <energy>  (33) 
-6.7

>  <cluster_rmsd>  (33) 
1.22

>  <cluster>  (33) 
5

$$$$

     RDKit          3D

 58 62  0  0  0  0  0  0  0  0999 V2000
  140.9980   73.4130  221.9740 O   0  0  0  0  0  0  0  0  0  0  0  0
  139.9480   73.0290  222.5290 C   0  0  0  0  0  0  0  0  0  0  0  0
  138.7470   73.7420  222.3080 N   0  0  0  0  0  0  0  0  0  0  0  0
  138.6040   74.8970  221.4850 C   0  0  0  0  0  0  0  0  0  0  0  0
  138.9500   76.1650  222.1640 C   0  0  0  0  0  0  0  0  0  0  0  0
  138.2940   76.6480  223.1250 O   0  0  0  0  0  0  0  0  0  0  0  0
  140.0960   76.8740  221.6930 N   0  0  0  0  0  0  0  0  0  0  0  0
  141.0390   77.4020  222.6550 C   0  0  0  0  0  0  0  0  0  0  0  0
  141.6940   78.6710  222.2280 C   0  0  0  0  0  0  0  0  0  0  0  0
  141.1880   79.3500  221.0200 C   0  0  0  0  0  0  0  0  0  0  0  0
  140.3270   78.5790  220.0800 C   0  0  0  0  0  0  0  0  0  0  0  0
  140.3560   77.0900  220.3000 C   0  0  1  0  0  0  0  0  0  0  0  0
  141.6720   76.5980  219.8630 C   0  0  0  0  0  0  0  0  0  0  0  0
  142.5450   77.1900  218.9690 C   0  0  0  0  0  0  0  0  0  0  0  0
  143.6510   76.4270  218.8330 N   0  0  0  0  0  0  0  0  0  0  0  0
  143.4810   75.3610  219.6340 C   0  0  0  0  0  0  0  0  0  0  0  0
  144.4380   74.2880  219.7890 C   0  0  0  0  0  0  0  0  0  0  0  0
  144.4710   73.1890  218.9570 C   0  0  0  0  0  0  0  0  0  0  0  0
  145.3830   72.1650  219.0990 C   0  0  0  0  0  0  0  0  0  0  0  0
  146.3310   72.2060  220.1250 C   0  0  0  0  0  0  0  0  0  0  0  0
  146.3020   73.2980  220.9570 C   0  0  0  0  0  0  0  0  0  0  0  0
  145.3870   74.3220  220.8080 C   0  0  0  0  0  0  0  0  0  0  0  0
  142.3080   75.4590  220.2470 N   0  0  0  0  0  0  0  0  0  0  0  0
  139.9160   71.8460  223.4180 C   0  0  0  0  0  0  0  0  0  0  0  0
  139.3480   70.6650  223.0450 C   0  0  0  0  0  0  0  0  0  0  0  0
  139.3080   69.5460  223.8630 C   0  0  0  0  0  0  0  0  0  0  0  0
  139.8780   69.6510  225.1200 C   0  0  0  0  0  0  0  0  0  0  0  0
  139.9040   68.6160  226.0270 C   0  0  0  0  0  0  0  0  0  0  0  0
  140.4870   68.7560  227.2860 C   0  0  0  0  0  0  0  0  0  0  0  0
  141.0620   69.9640  227.6570 C   0  0  0  0  0  0  0  0  0  0  0  0
  141.0370   71.0080  226.7450 C   0  0  0  0  0  0  0  0  0  0  0  0
  140.4530   70.8450  225.5040 C   0  0  0  0  0  0  0  0  0  0  0  0
  140.4670   71.9090  224.6640 N   0  0  0  0  0  0  0  0  0  0  0  0
  137.8700   73.3890  222.7960 H   0  0  0  0  0  0  0  0  0  0  0  0
  139.2612   74.7823  220.6104 H   0  0  0  0  0  0  0  0  0  0  0  0
  137.5410   74.9626  221.2098 H   0  0  0  0  0  0  0  0  0  0  0  0
  140.5035   77.5892  223.5975 H   0  0  0  0  0  0  0  0  0  0  0  0
  141.8369   76.6526  222.7629 H   0  0  0  0  0  0  0  0  0  0  0  0
  141.6021   79.3813  223.0629 H   0  0  0  0  0  0  0  0  0  0  0  0
  142.7176   78.3700  221.9602 H   0  0  0  0  0  0  0  0  0  0  0  0
  140.6042   80.2194  221.3565 H   0  0  0  0  0  0  0  0  0  0  0  0
  142.0935   79.5716  220.4361 H   0  0  0  0  0  0  0  0  0  0  0  0
  139.2897   78.9255  220.1985 H   0  0  0  0  0  0  0  0  0  0  0  0
  140.7220   78.7579  219.0691 H   0  0  0  0  0  0  0  0  0  0  0  0
  139.5985   76.5396  219.7227 H   0  0  0  0  0  0  0  0  0  0  0  0
  142.3654   78.1410  218.4463 H   0  0  0  0  0  0  0  0  0  0  0  0
  144.4810   76.6170  218.2290 H   0  0  0  0  0  0  0  0  0  0  0  0
  143.7352   73.1264  218.1418 H   0  0  0  0  0  0  0  0  0  0  0  0
  145.3645   71.3135  218.4029 H   0  0  0  0  0  0  0  0  0  0  0  0
  147.0672   71.3999  220.2600 H   0  0  0  0  0  0  0  0  0  0  0  0
  147.0360   73.3597  221.7740 H   0  0  0  0  0  0  0  0  0  0  0  0
  145.4080   75.1747  221.5026 H   0  0  0  0  0  0  0  0  0  0  0  0
  138.8981   70.5957  222.0436 H   0  0  0  0  0  0  0  0  0  0  0  0
  138.8405   68.6093  223.5254 H   0  0  0  0  0  0  0  0  0  0  0  0
  139.4524   67.6517  225.7511 H   0  0  0  0  0  0  0  0  0  0  0  0
  140.4913   67.9078  227.9864 H   0  0  0  0  0  0  0  0  0  0  0  0
  141.5246   70.0893  228.6471 H   0  0  0  0  0  0  0  0  0  0  0  0
  141.4867   71.9756  227.0124 H   0  0  0  0  0  0  0  0  0  0  0  0
  1  2  2  0
  2  3  1  0
  3  4  1  0
  4  5  1  0
  5  6  2  0
  5  7  1  0
  7  8  1  0
  8  9  1  0
  9 10  1  0
 10 11  1  0
 11 12  1  0
 12 13  1  0
 13 14  2  0
 14 15  1  0
 15 16  1  0
 16 17  1  0
 17 18  2  0
 18 19  1  0
 19 20  2  0
 20 21  1  0
 21 22  2  0
 16 23  2  0
  2 24  1  0
 24 25  2  0
 25 26  1  0
 26 27  2  0
 27 28  1  0
 28 29  2  0
 29 30  1  0
 30 31  2  0
 31 32  1  0
 32 33  2  0
 12  7  1  0
 23 13  1  0
 33 24  1  0
 22 17  1  0
 32 27  1  0
  3 34  1  0
  4 35  1  0
  4 36  1  0
  8 37  1  0
  8 38  1  0
  9 39  1  0
  9 40  1  0
 10 41  1  0
 10 42  1  0
 11 43  1  0
 11 44  1  0
 12 45  1  6
 14 46  1  0
 15 47  1  0
 18 48  1  0
 19 49  1  0
 20 50  1  0
 21 51  1  0
 22 52  1  0
 25 53  1  0
 26 54  1  0
 28 55  1  0
 29 56  1  0
 30 57  1  0
 31 58  1  0
M  END
>  <smiles>  (34) 
O=C(NCC(=O)N1CCCC[C@H]1c1c[nH]c(-c2ccccc2)n1)c1ccc2ccccc2n1

>  <score_type>  (34) 
oracle

>  <origin>  (34) 
autodockgpu

>  <m_score__min__energy>  (34) 
-9.9100000000000001

>  <m_primary>  (34) 
energy

>  <rmsd>  (34) 
5.402632545967463

>  <m_score__min__rmsd>  (34) 
5.402632545967463

>  <meeko>  (34) 
{"free_energy": -9.86, "intermolecular_energy": -11.65, "internal_energy": -1.88, "cluster_size": 10, "cluster_id": 1, "rank_in_cluster": 4}

>  <energy>  (34) 
-6.63

>  <cluster_rmsd>  (34) 
1.49

>  <cluster>  (34) 
5

$$$$

     RDKit          3D

 58 62  0  0  0  0  0  0  0  0999 V2000
  141.0060   73.3800  221.9030 O   0  0  0  0  0  0  0  0  0  0  0  0
  139.9660   73.0350  222.5010 C   0  0  0  0  0  0  0  0  0  0  0  0
  138.7620   73.7350  222.2540 N   0  0  0  0  0  0  0  0  0  0  0  0
  138.6060   74.8330  221.3590 C   0  0  0  0  0  0  0  0  0  0  0  0
  138.8360   76.1540  221.9830 C   0  0  0  0  0  0  0  0  0  0  0  0
  138.0240   76.7080  222.7710 O   0  0  0  0  0  0  0  0  0  0  0  0
  140.0510   76.8330  221.6650 N   0  0  0  0  0  0  0  0  0  0  0  0
  140.9780   77.1480  222.7300 C   0  0  0  0  0  0  0  0  0  0  0  0
  141.7410   78.4110  222.5140 C   0  0  0  0  0  0  0  0  0  0  0  0
  141.3450   79.2870  221.3970 C   0  0  0  0  0  0  0  0  0  0  0  0
  140.4820   78.7230  220.3220 C   0  0  0  0  0  0  0  0  0  0  0  0
  140.3960   77.2200  220.3280 C   0  0  1  0  0  0  0  0  0  0  0  0
  141.6950   76.6950  219.8790 C   0  0  0  0  0  0  0  0  0  0  0  0
  142.5480   77.2350  218.9360 C   0  0  0  0  0  0  0  0  0  0  0  0
  143.6430   76.4560  218.8060 N   0  0  0  0  0  0  0  0  0  0  0  0
  143.4850   75.4300  219.6610 C   0  0  0  0  0  0  0  0  0  0  0  0
  144.4370   74.3560  219.8390 C   0  0  0  0  0  0  0  0  0  0  0  0
  144.4530   73.2300  219.0440 C   0  0  0  0  0  0  0  0  0  0  0  0
  145.3590   72.2040  219.2100 C   0  0  0  0  0  0  0  0  0  0  0  0
  146.3190   72.2730  220.2230 C   0  0  0  0  0  0  0  0  0  0  0  0
  146.3080   73.3920  221.0170 C   0  0  0  0  0  0  0  0  0  0  0  0
  145.3990   74.4170  220.8460 C   0  0  0  0  0  0  0  0  0  0  0  0
  142.3310   75.5690  220.2990 N   0  0  0  0  0  0  0  0  0  0  0  0
  139.9470   71.9140  223.4670 C   0  0  0  0  0  0  0  0  0  0  0  0
  139.4400   70.6880  223.1560 C   0  0  0  0  0  0  0  0  0  0  0  0
  139.4140   69.6260  224.0470 C   0  0  0  0  0  0  0  0  0  0  0  0
  139.9330   69.8380  225.3130 C   0  0  0  0  0  0  0  0  0  0  0  0
  139.9670   68.8680  226.2880 C   0  0  0  0  0  0  0  0  0  0  0  0
  140.4980   69.1160  227.5540 C   0  0  0  0  0  0  0  0  0  0  0  0
  141.0120   70.3680  227.8610 C   0  0  0  0  0  0  0  0  0  0  0  0
  140.9790   71.3470  226.8800 C   0  0  0  0  0  0  0  0  0  0  0  0
  140.4480   71.0770  225.6330 C   0  0  0  0  0  0  0  0  0  0  0  0
  140.4500   72.0830  224.7240 N   0  0  0  0  0  0  0  0  0  0  0  0
  137.8930   73.4170  222.7790 H   0  0  0  0  0  0  0  0  0  0  0  0
  139.3224   74.7109  220.5333 H   0  0  0  0  0  0  0  0  0  0  0  0
  137.5604   74.8196  221.0175 H   0  0  0  0  0  0  0  0  0  0  0  0
  140.4096   77.2428  223.6670 H   0  0  0  0  0  0  0  0  0  0  0  0
  141.7148   76.3319  222.7633 H   0  0  0  0  0  0  0  0  0  0  0  0
  141.6574   79.0033  223.4372 H   0  0  0  0  0  0  0  0  0  0  0  0
  142.7531   78.0730  222.2468 H   0  0  0  0  0  0  0  0  0  0  0  0
  140.8061   80.1423  221.8306 H   0  0  0  0  0  0  0  0  0  0  0  0
  142.2922   79.5183  220.8878 H   0  0  0  0  0  0  0  0  0  0  0  0
  139.4667   79.1276  220.4462 H   0  0  0  0  0  0  0  0  0  0  0  0
  140.9398   79.0107  219.3641 H   0  0  0  0  0  0  0  0  0  0  0  0
  139.6326   76.8144  219.6478 H   0  0  0  0  0  0  0  0  0  0  0  0
  142.3625   78.1624  218.3742 H   0  0  0  0  0  0  0  0  0  0  0  0
  144.4580   76.6080  218.1710 H   0  0  0  0  0  0  0  0  0  0  0  0
  143.7078   73.1461  218.2392 H   0  0  0  0  0  0  0  0  0  0  0  0
  145.3260   71.3294  218.5437 H   0  0  0  0  0  0  0  0  0  0  0  0
  147.0508   71.4663  220.3770 H   0  0  0  0  0  0  0  0  0  0  0  0
  147.0531   73.4758  221.8219 H   0  0  0  0  0  0  0  0  0  0  0  0
  145.4343   75.2918  221.5120 H   0  0  0  0  0  0  0  0  0  0  0  0
  139.0306   70.5330  222.1469 H   0  0  0  0  0  0  0  0  0  0  0  0
  138.9961   68.6502  223.7585 H   0  0  0  0  0  0  0  0  0  0  0  0
  139.5644   67.8693  226.0631 H   0  0  0  0  0  0  0  0  0  0  0  0
  140.5093   68.3175  228.3105 H   0  0  0  0  0  0  0  0  0  0  0  0
  141.4338   70.5777  228.8550 H   0  0  0  0  0  0  0  0  0  0  0  0
  141.3794   72.3485  227.0963 H   0  0  0  0  0  0  0  0  0  0  0  0
  1  2  2  0
  2  3  1  0
  3  4  1  0
  4  5  1  0
  5  6  2  0
  5  7  1  0
  7  8  1  0
  8  9  1  0
  9 10  1  0
 10 11  1  0
 11 12  1  0
 12 13  1  0
 13 14  2  0
 14 15  1  0
 15 16  1  0
 16 17  1  0
 17 18  2  0
 18 19  1  0
 19 20  2  0
 20 21  1  0
 21 22  2  0
 16 23  2  0
  2 24  1  0
 24 25  2  0
 25 26  1  0
 26 27  2  0
 27 28  1  0
 28 29  2  0
 29 30  1  0
 30 31  2  0
 31 32  1  0
 32 33  2  0
 12  7  1  0
 23 13  1  0
 33 24  1  0
 22 17  1  0
 32 27  1  0
  3 34  1  0
  4 35  1  0
  4 36  1  0
  8 37  1  0
  8 38  1  0
  9 39  1  0
  9 40  1  0
 10 41  1  0
 10 42  1  0
 11 43  1  0
 11 44  1  0
 12 45  1  6
 14 46  1  0
 15 47  1  0
 18 48  1  0
 19 49  1  0
 20 50  1  0
 21 51  1  0
 22 52  1  0
 25 53  1  0
 26 54  1  0
 28 55  1  0
 29 56  1  0
 30 57  1  0
 31 58  1  0
M  END
>  <smiles>  (35) 
O=C(NCC(=O)N1CCCC[C@H]1c1c[nH]c(-c2ccccc2)n1)c1ccc2ccccc2n1

>  <score_type>  (35) 
oracle

>  <origin>  (35) 
autodockgpu

>  <m_score__min__energy>  (35) 
-9.9100000000000001

>  <m_primary>  (35) 
energy

>  <rmsd>  (35) 
5.382772609304336

>  <m_score__min__rmsd>  (35) 
5.382772609304336

>  <meeko>  (35) 
{"free_energy": -9.81, "intermolecular_energy": -11.6, "internal_energy": -1.94, "cluster_size": 10, "cluster_id": 1, "rank_in_cluster": 6}

>  <energy>  (35) 
-6.62

>  <cluster_rmsd>  (35) 
1.5

>  <cluster>  (35) 
5

$$$$

     RDKit          3D

 58 62  0  0  0  0  0  0  0  0999 V2000
  137.3210   75.8310  222.6640 O   0  0  0  0  0  0  0  0  0  0  0  0
  138.5250   76.0940  222.4650 C   0  0  0  0  0  0  0  0  0  0  0  0
  139.4020   75.0610  222.0640 N   0  0  0  0  0  0  0  0  0  0  0  0
  139.0420   73.6970  221.8540 C   0  0  0  0  0  0  0  0  0  0  0  0
  140.1710   72.8320  221.4510 C   0  0  0  0  0  0  0  0  0  0  0  0
  140.3660   71.6740  221.9090 O   0  0  0  0  0  0  0  0  0  0  0  0
  141.0880   73.3490  220.4870 N   0  0  0  0  0  0  0  0  0  0  0  0
  140.7550   73.2570  219.0820 C   0  0  0  0  0  0  0  0  0  0  0  0
  141.9370   73.0800  218.1900 C   0  0  0  0  0  0  0  0  0  0  0  0
  143.2490   72.8150  218.8080 C   0  0  0  0  0  0  0  0  0  0  0  0
  143.4230   73.1040  220.2590 C   0  0  0  0  0  0  0  0  0  0  0  0
  142.3330   73.9580  220.8510 C   0  0  1  0  0  0  0  0  0  0  0  0
  142.4990   75.3220  220.3230 C   0  0  0  0  0  0  0  0  0  0  0  0
  143.5970   75.8540  219.6750 C   0  0  0  0  0  0  0  0  0  0  0  0
  143.3580   77.1410  219.3450 N   0  0  0  0  0  0  0  0  0  0  0  0
  142.1170   77.4230  219.7790 C   0  0  0  0  0  0  0  0  0  0  0  0
  141.4640   78.7050  219.6270 C   0  0  0  0  0  0  0  0  0  0  0  0
  142.1580   79.8940  219.5620 C   0  0  0  0  0  0  0  0  0  0  0  0
  141.5400   81.1180  219.4160 C   0  0  0  0  0  0  0  0  0  0  0  0
  140.1470   81.1950  219.3290 C   0  0  0  0  0  0  0  0  0  0  0  0
  139.4520   80.0130  219.3940 C   0  0  0  0  0  0  0  0  0  0  0  0
  140.0770   78.7900  219.5390 C   0  0  0  0  0  0  0  0  0  0  0  0
  141.6040   76.3460  220.3600 N   0  0  0  0  0  0  0  0  0  0  0  0
  139.0710   77.4590  222.6360 C   0  0  0  0  0  0  0  0  0  0  0  0
  138.2760   78.5640  222.6980 C   0  0  0  0  0  0  0  0  0  0  0  0
  138.7690   79.8500  222.8580 C   0  0  0  0  0  0  0  0  0  0  0  0
  140.1410   80.0030  222.9570 C   0  0  0  0  0  0  0  0  0  0  0  0
  140.7560   81.2240  223.1170 C   0  0  0  0  0  0  0  0  0  0  0  0
  142.1420   81.3410  223.2120 C   0  0  0  0  0  0  0  0  0  0  0  0
  142.9440   80.2100  223.1470 C   0  0  0  0  0  0  0  0  0  0  0  0
  142.3270   78.9790  222.9860 C   0  0  0  0  0  0  0  0  0  0  0  0
  140.9510   78.8880  222.8930 C   0  0  0  0  0  0  0  0  0  0  0  0
  140.4180   77.6510  222.7370 N   0  0  0  0  0  0  0  0  0  0  0  0
  140.4220   75.3170  221.9020 H   0  0  0  0  0  0  0  0  0  0  0  0
  138.6211   73.3023  222.7905 H   0  0  0  0  0  0  0  0  0  0  0  0
  138.3188   73.6828  221.0252 H   0  0  0  0  0  0  0  0  0  0  0  0
  140.0832   72.3974  218.9411 H   0  0  0  0  0  0  0  0  0  0  0  0
  140.2849   74.2115  218.8026 H   0  0  0  0  0  0  0  0  0  0  0  0
  141.7160   72.2350  217.5213 H   0  0  0  0  0  0  0  0  0  0  0  0
  142.0594   74.0602  217.7061 H   0  0  0  0  0  0  0  0  0  0  0  0
  143.4672   71.7469  218.6613 H   0  0  0  0  0  0  0  0  0  0  0  0
  143.9289   73.5215  218.3095 H   0  0  0  0  0  0  0  0  0  0  0  0
  143.4453   72.1473  220.8015 H   0  0  0  0  0  0  0  0  0  0  0  0
  144.3601   73.6713  220.3592 H   0  0  0  0  0  0  0  0  0  0  0  0
  142.3682   74.0294  221.9481 H   0  0  0  0  0  0  0  0  0  0  0  0
  144.5282   75.3095  219.4598 H   0  0  0  0  0  0  0  0  0  0  0  0
  144.0010   77.7990  218.8500 H   0  0  0  0  0  0  0  0  0  0  0  0
  143.2555   79.8652  219.6297 H   0  0  0  0  0  0  0  0  0  0  0  0
  142.1445   82.0358  219.3679 H   0  0  0  0  0  0  0  0  0  0  0  0
  139.6309   82.1595  219.2136 H   0  0  0  0  0  0  0  0  0  0  0  0
  138.3543   80.0410  219.3280 H   0  0  0  0  0  0  0  0  0  0  0  0
  139.4721   77.8725  219.5855 H   0  0  0  0  0  0  0  0  0  0  0  0
  137.1874   78.4288  222.6170 H   0  0  0  0  0  0  0  0  0  0  0  0
  138.0941   80.7173  222.9046 H   0  0  0  0  0  0  0  0  0  0  0  0
  140.1373   82.1319  223.1714 H   0  0  0  0  0  0  0  0  0  0  0  0
  142.6013   82.3325  223.3388 H   0  0  0  0  0  0  0  0  0  0  0  0
  144.0387   80.2882  223.2212 H   0  0  0  0  0  0  0  0  0  0  0  0
  142.9383   78.0661  222.9317 H   0  0  0  0  0  0  0  0  0  0  0  0
  1  2  2  0
  2  3  1  0
  3  4  1  0
  4  5  1  0
  5  6  2  0
  5  7  1  0
  7  8  1  0
  8  9  1  0
  9 10  1  0
 10 11  1  0
 11 12  1  0
 12 13  1  0
 13 14  2  0
 14 15  1  0
 15 16  1  0
 16 17  1  0
 17 18  2  0
 18 19  1  0
 19 20  2  0
 20 21  1  0
 21 22  2  0
 16 23  2  0
  2 24  1  0
 24 25  2  0
 25 26  1  0
 26 27  2  0
 27 28  1  0
 28 29  2  0
 29 30  1  0
 30 31  2  0
 31 32  1  0
 32 33  2  0
 12  7  1  0
 23 13  1  0
 33 24  1  0
 22 17  1  0
 32 27  1  0
  3 34  1  0
  4 35  1  0
  4 36  1  0
  8 37  1  0
  8 38  1  0
  9 39  1  0
  9 40  1  0
 10 41  1  0
 10 42  1  0
 11 43  1  0
 11 44  1  0
 12 45  1  1
 14 46  1  0
 15 47  1  0
 18 48  1  0
 19 49  1  0
 20 50  1  0
 21 51  1  0
 22 52  1  0
 25 53  1  0
 26 54  1  0
 28 55  1  0
 29 56  1  0
 30 57  1  0
 31 58  1  0
M  END
>  <smiles>  (36) 
O=C(NCC(=O)N1CCCC[C@H]1c1c[nH]c(-c2ccccc2)n1)c1ccc2ccccc2n1

>  <score_type>  (36) 
oracle

>  <origin>  (36) 
autodockgpu

>  <m_score__min__energy>  (36) 
-9.9100000000000001

>  <m_primary>  (36) 
energy

>  <rmsd>  (36) 
6.688129578932315

>  <m_score__min__rmsd>  (36) 
6.688129578932315

>  <meeko>  (36) 
{"free_energy": -6.61, "intermolecular_energy": -8.4, "internal_energy": -4.58, "cluster_size": 22, "cluster_id": 5, "rank_in_cluster": 18}

>  <energy>  (36) 
-6.62

>  <cluster_rmsd>  (36) 
1.48

>  <cluster>  (36) 
5

$$$$

     RDKit          3D

 58 62  0  0  0  0  0  0  0  0999 V2000
  138.2990   74.6110  222.2310 O   0  0  0  0  0  0  0  0  0  0  0  0
  139.4040   75.1060  221.9280 C   0  0  0  0  0  0  0  0  0  0  0  0
  139.5890   76.5040  222.0330 N   0  0  0  0  0  0  0  0  0  0  0  0
  138.6080   77.4430  222.4650 C   0  0  0  0  0  0  0  0  0  0  0  0
  139.1590   78.7710  222.8130 C   0  0  0  0  0  0  0  0  0  0  0  0
  138.5700   79.6020  223.5560 O   0  0  0  0  0  0  0  0  0  0  0  0
  140.4310   79.1210  222.2690 N   0  0  0  0  0  0  0  0  0  0  0  0
  141.6290   78.6080  222.8980 C   0  0  0  0  0  0  0  0  0  0  0  0
  142.7960   79.5310  222.8200 C   0  0  0  0  0  0  0  0  0  0  0  0
  142.5750   80.9020  222.3230 C   0  0  0  0  0  0  0  0  0  0  0  0
  141.3190   81.1930  221.5770 C   0  0  0  0  0  0  0  0  0  0  0  0
  140.5760   79.9660  221.1200 C   0  0  1  0  0  0  0  0  0  0  0  0
  141.3530   79.3520  220.0320 C   0  0  0  0  0  0  0  0  0  0  0  0
  142.1920   79.9790  219.1300 C   0  0  0  0  0  0  0  0  0  0  0  0
  142.7220   79.0680  218.2850 N   0  0  0  0  0  0  0  0  0  0  0  0
  142.2230   77.8740  218.6490 C   0  0  0  0  0  0  0  0  0  0  0  0
  142.5350   76.6200  217.9990 C   0  0  0  0  0  0  0  0  0  0  0  0
  141.6630   75.5530  217.9720 C   0  0  0  0  0  0  0  0  0  0  0  0
  141.9560   74.3560  217.3530 C   0  0  0  0  0  0  0  0  0  0  0  0
  143.1860   74.1800  216.7140 C   0  0  0  0  0  0  0  0  0  0  0  0
  144.0590   75.2390  216.7380 C   0  0  0  0  0  0  0  0  0  0  0  0
  143.7590   76.4350  217.3600 C   0  0  0  0  0  0  0  0  0  0  0  0
  141.4100   78.0380  219.6850 N   0  0  0  0  0  0  0  0  0  0  0  0
  140.5360   74.2760  221.4590 C   0  0  0  0  0  0  0  0  0  0  0  0
  140.4420   72.9250  221.3100 C   0  0  0  0  0  0  0  0  0  0  0  0
  141.4900   72.1300  220.8720 C   0  0  0  0  0  0  0  0  0  0  0  0
  142.6890   72.7570  220.5760 C   0  0  0  0  0  0  0  0  0  0  0  0
  143.8040   72.0840  220.1340 C   0  0  0  0  0  0  0  0  0  0  0  0
  144.9960   72.7480  219.8440 C   0  0  0  0  0  0  0  0  0  0  0  0
  145.0830   74.1250  219.9990 C   0  0  0  0  0  0  0  0  0  0  0  0
  143.9600   74.8050  220.4450 C   0  0  0  0  0  0  0  0  0  0  0  0
  142.7910   74.1250  220.7260 C   0  0  0  0  0  0  0  0  0  0  0  0
  141.7330   74.8560  221.1570 N   0  0  0  0  0  0  0  0  0  0  0  0
  140.5420   76.8940  221.7670 H   0  0  0  0  0  0  0  0  0  0  0  0
  137.8745   77.5740  221.6558 H   0  0  0  0  0  0  0  0  0  0  0  0
  138.1583   77.0346  223.3820 H   0  0  0  0  0  0  0  0  0  0  0  0
  141.4086   78.4176  223.9587 H   0  0  0  0  0  0  0  0  0  0  0  0
  141.9085   77.6941  222.3534 H   0  0  0  0  0  0  0  0  0  0  0  0
  143.2114   79.6162  223.8350 H   0  0  0  0  0  0  0  0  0  0  0  0
  143.4526   79.0729  222.0657 H   0  0  0  0  0  0  0  0  0  0  0  0
  142.5971   81.5714  223.1956 H   0  0  0  0  0  0  0  0  0  0  0  0
  143.3712   81.0506  221.5787 H   0  0  0  0  0  0  0  0  0  0  0  0
  140.6546   81.7745  222.2331 H   0  0  0  0  0  0  0  0  0  0  0  0
  141.6096   81.7435  220.6700 H   0  0  0  0  0  0  0  0  0  0  0  0
  139.5723   80.1751  220.7215 H   0  0  0  0  0  0  0  0  0  0  0  0
  142.3976   81.0593  219.1041 H   0  0  0  0  0  0  0  0  0  0  0  0
  143.3880   79.2430  217.5000 H   0  0  0  0  0  0  0  0  0  0  0  0
  140.6870   75.6613  218.4677 H   0  0  0  0  0  0  0  0  0  0  0  0
  141.2201   73.5384  217.3623 H   0  0  0  0  0  0  0  0  0  0  0  0
  143.4434   73.2347  216.2139 H   0  0  0  0  0  0  0  0  0  0  0  0
  145.0352   75.1309  216.2427 H   0  0  0  0  0  0  0  0  0  0  0  0
  144.4958   77.2518  217.3507 H   0  0  0  0  0  0  0  0  0  0  0  0
  139.4845   72.4396  221.5498 H   0  0  0  0  0  0  0  0  0  0  0  0
  141.3736   71.0416  220.7636 H   0  0  0  0  0  0  0  0  0  0  0  0
  143.7545   70.9926  220.0057 H   0  0  0  0  0  0  0  0  0  0  0  0
  145.8692   72.1793  219.4917 H   0  0  0  0  0  0  0  0  0  0  0  0
  146.0167   74.6614  219.7742 H   0  0  0  0  0  0  0  0  0  0  0  0
  144.0004   75.8964  220.5763 H   0  0  0  0  0  0  0  0  0  0  0  0
  1  2  2  0
  2  3  1  0
  3  4  1  0
  4  5  1  0
  5  6  2  0
  5  7  1  0
  7  8  1  0
  8  9  1  0
  9 10  1  0
 10 11  1  0
 11 12  1  0
 12 13  1  0
 13 14  2  0
 14 15  1  0
 15 16  1  0
 16 17  1  0
 17 18  2  0
 18 19  1  0
 19 20  2  0
 20 21  1  0
 21 22  2  0
 16 23  2  0
  2 24  1  0
 24 25  2  0
 25 26  1  0
 26 27  2  0
 27 28  1  0
 28 29  2  0
 29 30  1  0
 30 31  2  0
 31 32  1  0
 32 33  2  0
 12  7  1  0
 23 13  1  0
 33 24  1  0
 22 17  1  0
 32 27  1  0
  3 34  1  0
  4 35  1  0
  4 36  1  0
  8 37  1  0
  8 38  1  0
  9 39  1  0
  9 40  1  0
 10 41  1  0
 10 42  1  0
 11 43  1  0
 11 44  1  0
 12 45  1  6
 14 46  1  0
 15 47  1  0
 18 48  1  0
 19 49  1  0
 20 50  1  0
 21 51  1  0
 22 52  1  0
 25 53  1  0
 26 54  1  0
 28 55  1  0
 29 56  1  0
 30 57  1  0
 31 58  1  0
M  END
>  <smiles>  (37) 
O=C(NCC(=O)N1CCCC[C@H]1c1c[nH]c(-c2ccccc2)n1)c1ccc2ccccc2n1

>  <score_type>  (37) 
oracle

>  <origin>  (37) 
autodockgpu

>  <m_score__min__energy>  (37) 
-9.9100000000000001

>  <m_primary>  (37) 
energy

>  <rmsd>  (37) 
6.573619250223694

>  <m_score__min__rmsd>  (37) 
6.573619250223694

>  <meeko>  (37) 
{"free_energy": -6.76, "intermolecular_energy": -8.55, "internal_energy": -3.97, "cluster_size": 4, "cluster_id": 4, "rank_in_cluster": 4}

>  <energy>  (37) 
-6.62

>  <cluster_rmsd>  (37) 
1.47

>  <cluster>  (37) 
5

$$$$

     RDKit          3D

 58 62  0  0  0  0  0  0  0  0999 V2000
  137.3270   75.8670  222.6550 O   0  0  0  0  0  0  0  0  0  0  0  0
  138.5390   76.1190  222.4940 C   0  0  0  0  0  0  0  0  0  0  0  0
  139.4190   75.0740  222.1280 N   0  0  0  0  0  0  0  0  0  0  0  0
  139.0530   73.7130  221.9150 C   0  0  0  0  0  0  0  0  0  0  0  0
  140.1790   72.8450  221.5060 C   0  0  0  0  0  0  0  0  0  0  0  0
  140.3770   71.6890  221.9660 O   0  0  0  0  0  0  0  0  0  0  0  0
  141.0890   73.3580  220.5320 N   0  0  0  0  0  0  0  0  0  0  0  0
  140.7390   73.2730  219.1310 C   0  0  0  0  0  0  0  0  0  0  0  0
  141.9100   73.0900  218.2260 C   0  0  0  0  0  0  0  0  0  0  0  0
  143.2270   72.8130  218.8290 C   0  0  0  0  0  0  0  0  0  0  0  0
  143.4190   73.0970  220.2780 C   0  0  0  0  0  0  0  0  0  0  0  0
  142.3420   73.9580  220.8840 C   0  0  1  0  0  0  0  0  0  0  0  0
  142.5110   75.3220  220.3580 C   0  0  0  0  0  0  0  0  0  0  0  0
  143.6110   75.8510  219.7110 C   0  0  0  0  0  0  0  0  0  0  0  0
  143.3760   77.1400  219.3820 N   0  0  0  0  0  0  0  0  0  0  0  0
  142.1360   77.4240  219.8170 C   0  0  0  0  0  0  0  0  0  0  0  0
  141.4860   78.7080  219.6660 C   0  0  0  0  0  0  0  0  0  0  0  0
  142.1830   79.8940  219.5850 C   0  0  0  0  0  0  0  0  0  0  0  0
  141.5690   81.1200  219.4410 C   0  0  0  0  0  0  0  0  0  0  0  0
  140.1760   81.2030  219.3710 C   0  0  0  0  0  0  0  0  0  0  0  0
  139.4760   80.0240  219.4510 C   0  0  0  0  0  0  0  0  0  0  0  0
  140.0980   78.7990  219.5950 C   0  0  0  0  0  0  0  0  0  0  0  0
  141.6200   76.3480  220.3960 N   0  0  0  0  0  0  0  0  0  0  0  0
  139.0910   77.4790  222.6740 C   0  0  0  0  0  0  0  0  0  0  0  0
  138.3000   78.5840  222.7690 C   0  0  0  0  0  0  0  0  0  0  0  0
  138.7990   79.8680  222.9380 C   0  0  0  0  0  0  0  0  0  0  0  0
  140.1730   80.0160  223.0120 C   0  0  0  0  0  0  0  0  0  0  0  0
  140.7940   81.2330  223.1780 C   0  0  0  0  0  0  0  0  0  0  0  0
  142.1820   81.3460  223.2470 C   0  0  0  0  0  0  0  0  0  0  0  0
  142.9800   80.2150  223.1490 C   0  0  0  0  0  0  0  0  0  0  0  0
  142.3570   78.9870  222.9810 C   0  0  0  0  0  0  0  0  0  0  0  0
  140.9790   78.9010  222.9150 C   0  0  0  0  0  0  0  0  0  0  0  0
  140.4400   77.6670  222.7510 N   0  0  0  0  0  0  0  0  0  0  0  0
  140.4460   75.3210  221.9990 H   0  0  0  0  0  0  0  0  0  0  0  0
  138.6331   73.3169  222.8514 H   0  0  0  0  0  0  0  0  0  0  0  0
  138.3271   73.7038  221.0886 H   0  0  0  0  0  0  0  0  0  0  0  0
  140.0593   72.4189  218.9950 H   0  0  0  0  0  0  0  0  0  0  0  0
  140.2723   74.2314  218.8596 H   0  0  0  0  0  0  0  0  0  0  0  0
  141.6754   72.2489  217.5570 H   0  0  0  0  0  0  0  0  0  0  0  0
  142.0347   74.0709  217.7441 H   0  0  0  0  0  0  0  0  0  0  0  0
  143.4351   71.7436  218.6774 H   0  0  0  0  0  0  0  0  0  0  0  0
  143.9071   73.5152  218.3246 H   0  0  0  0  0  0  0  0  0  0  0  0
  143.4399   72.1389  220.8180 H   0  0  0  0  0  0  0  0  0  0  0  0
  144.3615   73.6569  220.3693 H   0  0  0  0  0  0  0  0  0  0  0  0
  142.3904   74.0272  221.9808 H   0  0  0  0  0  0  0  0  0  0  0  0
  144.5405   75.3037  219.4956 H   0  0  0  0  0  0  0  0  0  0  0  0
  144.0200   77.7960  218.8870 H   0  0  0  0  0  0  0  0  0  0  0  0
  143.2812   79.8610  219.6378 H   0  0  0  0  0  0  0  0  0  0  0  0
  142.1770   82.0347  219.3811 H   0  0  0  0  0  0  0  0  0  0  0  0
  139.6629   82.1693  219.2569 H   0  0  0  0  0  0  0  0  0  0  0  0
  138.3777   80.0565  219.3984 H   0  0  0  0  0  0  0  0  0  0  0  0
  139.4898   77.8844  219.6543 H   0  0  0  0  0  0  0  0  0  0  0  0
  137.2096   78.4518  222.7087 H   0  0  0  0  0  0  0  0  0  0  0  0
  138.1272   80.7360  223.0105 H   0  0  0  0  0  0  0  0  0  0  0  0
  140.1786   82.1412  223.2584 H   0  0  0  0  0  0  0  0  0  0  0  0
  142.6458   82.3346  223.3795 H   0  0  0  0  0  0  0  0  0  0  0  0
  144.0761   80.2901  223.2030 H   0  0  0  0  0  0  0  0  0  0  0  0
  142.9648   78.0738  222.8996 H   0  0  0  0  0  0  0  0  0  0  0  0
  1  2  2  0
  2  3  1  0
  3  4  1  0
  4  5  1  0
  5  6  2  0
  5  7  1  0
  7  8  1  0
  8  9  1  0
  9 10  1  0
 10 11  1  0
 11 12  1  0
 12 13  1  0
 13 14  2  0
 14 15  1  0
 15 16  1  0
 16 17  1  0
 17 18  2  0
 18 19  1  0
 19 20  2  0
 20 21  1  0
 21 22  2  0
 16 23  2  0
  2 24  1  0
 24 25  2  0
 25 26  1  0
 26 27  2  0
 27 28  1  0
 28 29  2  0
 29 30  1  0
 30 31  2  0
 31 32  1  0
 32 33  2  0
 12  7  1  0
 23 13  1  0
 33 24  1  0
 22 17  1  0
 32 27  1  0
  3 34  1  0
  4 35  1  0
  4 36  1  0
  8 37  1  0
  8 38  1  0
  9 39  1  0
  9 40  1  0
 10 41  1  0
 10 42  1  0
 11 43  1  0
 11 44  1  0
 12 45  1  1
 14 46  1  0
 15 47  1  0
 18 48  1  0
 19 49  1  0
 20 50  1  0
 21 51  1  0
 22 52  1  0
 25 53  1  0
 26 54  1  0
 28 55  1  0
 29 56  1  0
 30 57  1  0
 31 58  1  0
M  END
>  <smiles>  (38) 
O=C(NCC(=O)N1CCCC[C@H]1c1c[nH]c(-c2ccccc2)n1)c1ccc2ccccc2n1

>  <score_type>  (38) 
oracle

>  <origin>  (38) 
autodockgpu

>  <m_score__min__energy>  (38) 
-9.9100000000000001

>  <m_primary>  (38) 
energy

>  <rmsd>  (38) 
6.692394502497496

>  <m_score__min__rmsd>  (38) 
6.692394502497496

>  <meeko>  (38) 
{"free_energy": -6.62, "intermolecular_energy": -8.41, "internal_energy": -4.56, "cluster_size": 22, "cluster_id": 5, "rank_in_cluster": 9}

>  <energy>  (38) 
-6.62

>  <cluster_rmsd>  (38) 
1.5

>  <cluster>  (38) 
5

$$$$

     RDKit          3D

 58 62  0  0  0  0  0  0  0  0999 V2000
  140.6380   72.4840  222.0230 O   0  0  0  0  0  0  0  0  0  0  0  0
  139.7750   71.7960  222.6070 C   0  0  0  0  0  0  0  0  0  0  0  0
  138.5280   71.5730  221.9790 N   0  0  0  0  0  0  0  0  0  0  0  0
  138.1380   72.0690  220.7010 C   0  0  0  0  0  0  0  0  0  0  0  0
  137.0120   73.0260  220.7450 C   0  0  0  0  0  0  0  0  0  0  0  0
  135.8550   72.7690  220.3150 O   0  0  0  0  0  0  0  0  0  0  0  0
  137.2600   74.3140  221.3090 N   0  0  0  0  0  0  0  0  0  0  0  0
  136.8770   74.5660  222.6810 C   0  0  0  0  0  0  0  0  0  0  0  0
  136.4540   75.9710  222.9430 C   0  0  0  0  0  0  0  0  0  0  0  0
  136.2700   76.8740  221.7920 C   0  0  0  0  0  0  0  0  0  0  0  0
  136.8640   76.4870  220.4820 C   0  0  0  0  0  0  0  0  0  0  0  0
  137.8770   75.3770  220.5700 C   0  0  1  0  0  0  0  0  0  0  0  0
  139.0820   75.9210  221.2160 C   0  0  0  0  0  0  0  0  0  0  0  0
  140.1630   75.2240  221.7190 C   0  0  0  0  0  0  0  0  0  0  0  0
  141.0680   76.0860  222.2320 N   0  0  0  0  0  0  0  0  0  0  0  0
  140.5640   77.3190  222.0540 C   0  0  0  0  0  0  0  0  0  0  0  0
  141.2200   78.5420  222.4640 C   0  0  0  0  0  0  0  0  0  0  0  0
  141.6200   78.7780  223.7620 C   0  0  0  0  0  0  0  0  0  0  0  0
  142.2460   79.9410  224.1570 C   0  0  0  0  0  0  0  0  0  0  0  0
  142.5020   80.9510  223.2260 C   0  0  0  0  0  0  0  0  0  0  0  0
  142.1050   80.7210  221.9320 C   0  0  0  0  0  0  0  0  0  0  0  0
  141.4780   79.5540  221.5420 C   0  0  0  0  0  0  0  0  0  0  0  0
  139.3850   77.2260  221.4520 N   0  0  0  0  0  0  0  0  0  0  0  0
  140.0120   71.2030  223.9410 C   0  0  0  0  0  0  0  0  0  0  0  0
  140.6730   71.8660  224.9310 C   0  0  0  0  0  0  0  0  0  0  0  0
  140.9040   71.3270  226.1880 C   0  0  0  0  0  0  0  0  0  0  0  0
  140.4340   70.0490  226.4330 C   0  0  0  0  0  0  0  0  0  0  0  0
  140.5980   69.4010  227.6360 C   0  0  0  0  0  0  0  0  0  0  0  0
  140.1120   68.1120  227.8490 C   0  0  0  0  0  0  0  0  0  0  0  0
  139.4400   67.4440  226.8340 C   0  0  0  0  0  0  0  0  0  0  0  0
  139.2730   68.0940  225.6210 C   0  0  0  0  0  0  0  0  0  0  0  0
  139.7650   69.3720  225.4340 C   0  0  0  0  0  0  0  0  0  0  0  0
  139.5640   69.9450  224.2220 N   0  0  0  0  0  0  0  0  0  0  0  0
  137.8140   70.9830  222.5020 H   0  0  0  0  0  0  0  0  0  0  0  0
  139.0035   72.5740  220.2472 H   0  0  0  0  0  0  0  0  0  0  0  0
  137.7969   71.2033  220.1144 H   0  0  0  0  0  0  0  0  0  0  0  0
  136.0395   73.8994  222.9345 H   0  0  0  0  0  0  0  0  0  0  0  0
  137.7675   74.3806  223.2996 H   0  0  0  0  0  0  0  0  0  0  0  0
  135.4942   75.9272  223.4787 H   0  0  0  0  0  0  0  0  0  0  0  0
  137.2972   76.4083  223.4977 H   0  0  0  0  0  0  0  0  0  0  0  0
  135.1867   76.9855  221.6369 H   0  0  0  0  0  0  0  0  0  0  0  0
  136.8157   77.7860  222.0758 H   0  0  0  0  0  0  0  0  0  0  0  0
  136.0508   76.1605  219.8170 H   0  0  0  0  0  0  0  0  0  0  0  0
  137.3953   77.3716  220.1011 H   0  0  0  0  0  0  0  0  0  0  0  0
  138.1870   74.9780  219.5930 H   0  0  0  0  0  0  0  0  0  0  0  0
  140.2711   74.1294  221.7041 H   0  0  0  0  0  0  0  0  0  0  0  0
  141.9820   75.8530  222.6810 H   0  0  0  0  0  0  0  0  0  0  0  0
  141.4307   78.0018  224.5181 H   0  0  0  0  0  0  0  0  0  0  0  0
  142.5446   80.0741  225.2073 H   0  0  0  0  0  0  0  0  0  0  0  0
  142.9992   81.8882  223.5167 H   0  0  0  0  0  0  0  0  0  0  0  0
  142.2939   81.4972  221.1758 H   0  0  0  0  0  0  0  0  0  0  0  0
  141.1790   79.4221  220.4917 H   0  0  0  0  0  0  0  0  0  0  0  0
  141.0425   72.8809  224.7226 H   0  0  0  0  0  0  0  0  0  0  0  0
  141.4413   71.8949  226.9618 H   0  0  0  0  0  0  0  0  0  0  0  0
  141.1273   69.9145  228.4522 H   0  0  0  0  0  0  0  0  0  0  0  0
  140.2611   67.6231  228.8230 H   0  0  0  0  0  0  0  0  0  0  0  0
  139.0508   66.4268  226.9882 H   0  0  0  0  0  0  0  0  0  0  0  0
  138.7441   67.5881  224.7999 H   0  0  0  0  0  0  0  0  0  0  0  0
  1  2  2  0
  2  3  1  0
  3  4  1  0
  4  5  1  0
  5  6  2  0
  5  7  1  0
  7  8  1  0
  8  9  1  0
  9 10  1  0
 10 11  1  0
 11 12  1  0
 12 13  1  0
 13 14  2  0
 14 15  1  0
 15 16  1  0
 16 17  1  0
 17 18  2  0
 18 19  1  0
 19 20  2  0
 20 21  1  0
 21 22  2  0
 16 23  2  0
  2 24  1  0
 24 25  2  0
 25 26  1  0
 26 27  2  0
 27 28  1  0
 28 29  2  0
 29 30  1  0
 30 31  2  0
 31 32  1  0
 32 33  2  0
 12  7  1  0
 23 13  1  0
 33 24  1  0
 22 17  1  0
 32 27  1  0
  3 34  1  0
  4 35  1  0
  4 36  1  0
  8 37  1  0
  8 38  1  0
  9 39  1  0
  9 40  1  0
 10 41  1  0
 10 42  1  0
 11 43  1  0
 11 44  1  0
 12 45  1  6
 14 46  1  0
 15 47  1  0
 18 48  1  0
 19 49  1  0
 20 50  1  0
 21 51  1  0
 22 52  1  0
 25 53  1  0
 26 54  1  0
 28 55  1  0
 29 56  1  0
 30 57  1  0
 31 58  1  0
M  END
>  <smiles>  (39) 
O=C(NCC(=O)N1CCCC[C@H]1c1c[nH]c(-c2ccccc2)n1)c1ccc2ccccc2n1

>  <score_type>  (39) 
oracle

>  <origin>  (39) 
autodockgpu

>  <m_score__min__energy>  (39) 
-9.9100000000000001

>  <m_primary>  (39) 
energy

>  <rmsd>  (39) 
3.9325190168994397

>  <m_score__min__rmsd>  (39) 
3.9325190168994397

>  <meeko>  (39) 
{"free_energy": -8.73, "intermolecular_energy": -10.52, "internal_energy": -2.01, "cluster_size": 12, "cluster_id": 2, "rank_in_cluster": 12}

>  <energy>  (39) 
-6.62

>  <cluster_rmsd>  (39) 
1.49

>  <cluster>  (39) 
5

$$$$

     RDKit          3D

 58 62  0  0  0  0  0  0  0  0999 V2000
  137.2920   75.8770  222.6860 O   0  0  0  0  0  0  0  0  0  0  0  0
  138.4960   76.1320  222.4770 C   0  0  0  0  0  0  0  0  0  0  0  0
  139.3560   75.0990  222.0370 N   0  0  0  0  0  0  0  0  0  0  0  0
  138.9770   73.7460  221.7970 C   0  0  0  0  0  0  0  0  0  0  0  0
  140.1030   72.8650  221.4170 C   0  0  0  0  0  0  0  0  0  0  0  0
  140.2650   71.7000  221.8700 O   0  0  0  0  0  0  0  0  0  0  0  0
  141.0550   73.3740  220.4840 N   0  0  0  0  0  0  0  0  0  0  0  0
  140.7720   73.2760  219.0680 C   0  0  0  0  0  0  0  0  0  0  0  0
  141.9850   73.0910  218.2200 C   0  0  0  0  0  0  0  0  0  0  0  0
  143.2730   72.8250  218.8870 C   0  0  0  0  0  0  0  0  0  0  0  0
  143.3950   73.1220  220.3420 C   0  0  0  0  0  0  0  0  0  0  0  0
  142.2880   73.9830  220.8890 C   0  0  1  0  0  0  0  0  0  0  0  0
  142.4760   75.3430  220.3600 C   0  0  0  0  0  0  0  0  0  0  0  0
  143.5900   75.8610  219.7270 C   0  0  0  0  0  0  0  0  0  0  0  0
  143.3690   77.1500  219.3900 N   0  0  0  0  0  0  0  0  0  0  0  0
  142.1250   77.4460  219.8050 C   0  0  0  0  0  0  0  0  0  0  0  0
  141.4880   78.7340  219.6400 C   0  0  0  0  0  0  0  0  0  0  0  0
  142.1980   79.9090  219.5120 C   0  0  0  0  0  0  0  0  0  0  0  0
  141.5960   81.1390  219.3530 C   0  0  0  0  0  0  0  0  0  0  0  0
  140.2030   81.2390  219.3180 C   0  0  0  0  0  0  0  0  0  0  0  0
  139.4910   80.0720  219.4450 C   0  0  0  0  0  0  0  0  0  0  0  0
  140.1000   78.8420  219.6030 C   0  0  0  0  0  0  0  0  0  0  0  0
  141.5920   76.3760  220.3810 N   0  0  0  0  0  0  0  0  0  0  0  0
  139.0600   77.4850  222.6760 C   0  0  0  0  0  0  0  0  0  0  0  0
  138.2780   78.5940  222.7980 C   0  0  0  0  0  0  0  0  0  0  0  0
  138.7880   79.8710  222.9850 C   0  0  0  0  0  0  0  0  0  0  0  0
  140.1640   80.0080  223.0480 C   0  0  0  0  0  0  0  0  0  0  0  0
  140.7950   81.2170  223.2300 C   0  0  0  0  0  0  0  0  0  0  0  0
  142.1840   81.3200  223.2890 C   0  0  0  0  0  0  0  0  0  0  0  0
  142.9730   80.1840  223.1640 C   0  0  0  0  0  0  0  0  0  0  0  0
  142.3390   78.9640  222.9800 C   0  0  0  0  0  0  0  0  0  0  0  0
  140.9610   78.8890  222.9250 C   0  0  0  0  0  0  0  0  0  0  0  0
  140.4120   77.6620  222.7440 N   0  0  0  0  0  0  0  0  0  0  0  0
  140.3760   75.3490  221.8680 H   0  0  0  0  0  0  0  0  0  0  0  0
  138.5196   73.3468  222.7143 H   0  0  0  0  0  0  0  0  0  0  0  0
  138.2796   73.7565  220.9464 H   0  0  0  0  0  0  0  0  0  0  0  0
  140.1030   72.4178  218.9072 H   0  0  0  0  0  0  0  0  0  0  0  0
  140.3150   74.2303  218.7672 H   0  0  0  0  0  0  0  0  0  0  0  0
  141.7857   72.2434  217.5478 H   0  0  0  0  0  0  0  0  0  0  0  0
  142.1280   74.0683  217.7357 H   0  0  0  0  0  0  0  0  0  0  0  0
  143.4925   71.7553  218.7544 H   0  0  0  0  0  0  0  0  0  0  0  0
  143.9733   73.5261  218.4095 H   0  0  0  0  0  0  0  0  0  0  0  0
  143.3939   72.1684  220.8904 H   0  0  0  0  0  0  0  0  0  0  0  0
  144.3299   73.6867  220.4729 H   0  0  0  0  0  0  0  0  0  0  0  0
  142.2846   74.0620  221.9862 H   0  0  0  0  0  0  0  0  0  0  0  0
  144.5185   75.3060  219.5274 H   0  0  0  0  0  0  0  0  0  0  0  0
  144.0260   77.7990  218.9030 H   0  0  0  0  0  0  0  0  0  0  0  0
  143.2967   79.8628  219.5380 H   0  0  0  0  0  0  0  0  0  0  0  0
  142.2138   82.0436  219.2535 H   0  0  0  0  0  0  0  0  0  0  0  0
  139.6993   82.2090  219.1942 H   0  0  0  0  0  0  0  0  0  0  0  0
  138.3923   80.1181  219.4200 H   0  0  0  0  0  0  0  0  0  0  0  0
  139.4815   77.9376  219.7007 H   0  0  0  0  0  0  0  0  0  0  0  0
  137.1862   78.4708  222.7456 H   0  0  0  0  0  0  0  0  0  0  0  0
  138.1233   80.7423  223.0797 H   0  0  0  0  0  0  0  0  0  0  0  0
  140.1865   82.1277  223.3318 H   0  0  0  0  0  0  0  0  0  0  0  0
  142.6559   82.3029  223.4348 H   0  0  0  0  0  0  0  0  0  0  0  0
  144.0701   80.2498  223.2096 H   0  0  0  0  0  0  0  0  0  0  0  0
  142.9392   78.0480  222.8769 H   0  0  0  0  0  0  0  0  0  0  0  0
  1  2  2  0
  2  3  1  0
  3  4  1  0
  4  5  1  0
  5  6  2  0
  5  7  1  0
  7  8  1  0
  8  9  1  0
  9 10  1  0
 10 11  1  0
 11 12  1  0
 12 13  1  0
 13 14  2  0
 14 15  1  0
 15 16  1  0
 16 17  1  0
 17 18  2  0
 18 19  1  0
 19 20  2  0
 20 21  1  0
 21 22  2  0
 16 23  2  0
  2 24  1  0
 24 25  2  0
 25 26  1  0
 26 27  2  0
 27 28  1  0
 28 29  2  0
 29 30  1  0
 30 31  2  0
 31 32  1  0
 32 33  2  0
 12  7  1  0
 23 13  1  0
 33 24  1  0
 22 17  1  0
 32 27  1  0
  3 34  1  0
  4 35  1  0
  4 36  1  0
  8 37  1  0
  8 38  1  0
  9 39  1  0
  9 40  1  0
 10 41  1  0
 10 42  1  0
 11 43  1  0
 11 44  1  0
 12 45  1  1
 14 46  1  0
 15 47  1  0
 18 48  1  0
 19 49  1  0
 20 50  1  0
 21 51  1  0
 22 52  1  0
 25 53  1  0
 26 54  1  0
 28 55  1  0
 29 56  1  0
 30 57  1  0
 31 58  1  0
M  END
>  <smiles>  (40) 
O=C(NCC(=O)N1CCCC[C@H]1c1c[nH]c(-c2ccccc2)n1)c1ccc2ccccc2n1

>  <score_type>  (40) 
oracle

>  <origin>  (40) 
autodockgpu

>  <m_score__min__energy>  (40) 
-9.9100000000000001

>  <m_primary>  (40) 
energy

>  <rmsd>  (40) 
6.684561303194182

>  <m_score__min__rmsd>  (40) 
6.684561303194182

>  <meeko>  (40) 
{"free_energy": -6.62, "intermolecular_energy": -8.41, "internal_energy": -4.58, "cluster_size": 22, "cluster_id": 5, "rank_in_cluster": 11}

>  <energy>  (40) 
-6.61

>  <cluster_rmsd>  (40) 
1.51

>  <cluster>  (40) 
5

$$$$

     RDKit          3D

 58 62  0  0  0  0  0  0  0  0999 V2000
  139.2380   74.1360  222.3290 O   0  0  0  0  0  0  0  0  0  0  0  0
  140.1520   74.6710  221.6680 C   0  0  0  0  0  0  0  0  0  0  0  0
  140.0660   76.0480  221.3560 N   0  0  0  0  0  0  0  0  0  0  0  0
  139.0050   76.9220  221.7330 C   0  0  0  0  0  0  0  0  0  0  0  0
  139.4520   78.1390  222.4440 C   0  0  0  0  0  0  0  0  0  0  0  0
  138.8970   78.5880  223.4830 O   0  0  0  0  0  0  0  0  0  0  0  0
  140.5780   78.8380  221.9140 N   0  0  0  0  0  0  0  0  0  0  0  0
  141.8600   78.7060  222.5710 C   0  0  0  0  0  0  0  0  0  0  0  0
  142.7080   79.9300  222.4940 C   0  0  0  0  0  0  0  0  0  0  0  0
  142.1070   81.1690  221.9670 C   0  0  0  0  0  0  0  0  0  0  0  0
  140.8360   81.0700  221.1950 C   0  0  0  0  0  0  0  0  0  0  0  0
  140.4940   79.6720  220.7510 C   0  0  1  0  0  0  0  0  0  0  0  0
  141.4390   79.2970  219.6870 C   0  0  0  0  0  0  0  0  0  0  0  0
  142.2070   80.1350  218.9010 C   0  0  0  0  0  0  0  0  0  0  0  0
  142.9480   79.4050  218.0390 N   0  0  0  0  0  0  0  0  0  0  0  0
  142.6500   78.1150  218.2770 C   0  0  0  0  0  0  0  0  0  0  0  0
  143.2270   76.9940  217.5670 C   0  0  0  0  0  0  0  0  0  0  0  0
  143.6930   77.0880  216.2740 C   0  0  0  0  0  0  0  0  0  0  0  0
  144.2440   76.0220  215.5940 C   0  0  0  0  0  0  0  0  0  0  0  0
  144.3490   74.7740  216.2120 C   0  0  0  0  0  0  0  0  0  0  0  0
  143.8860   74.6750  217.5000 C   0  0  0  0  0  0  0  0  0  0  0  0
  143.3350   75.7460  218.1770 C   0  0  0  0  0  0  0  0  0  0  0  0
  141.7550   78.0480  219.2540 N   0  0  0  0  0  0  0  0  0  0  0  0
  141.3300   73.9110  221.1960 C   0  0  0  0  0  0  0  0  0  0  0  0
  141.2480   72.6170  220.7780 C   0  0  0  0  0  0  0  0  0  0  0  0
  142.3410   71.8880  220.3320 C   0  0  0  0  0  0  0  0  0  0  0  0
  143.5710   72.5220  220.3170 C   0  0  0  0  0  0  0  0  0  0  0  0
  144.7310   71.9120  219.8980 C   0  0  0  0  0  0  0  0  0  0  0  0
  145.9550   72.5810  219.8970 C   0  0  0  0  0  0  0  0  0  0  0  0
  146.0290   73.9000  220.3240 C   0  0  0  0  0  0  0  0  0  0  0  0
  144.8610   74.5170  220.7470 C   0  0  0  0  0  0  0  0  0  0  0  0
  143.6610   73.8330  220.7390 C   0  0  0  0  0  0  0  0  0  0  0  0
  142.5610   74.5010  221.1660 N   0  0  0  0  0  0  0  0  0  0  0  0
  140.8610   76.4740  220.7920 H   0  0  0  0  0  0  0  0  0  0  0  0
  138.4706   77.2301  220.8223 H   0  0  0  0  0  0  0  0  0  0  0  0
  138.3649   76.3627  222.4311 H   0  0  0  0  0  0  0  0  0  0  0  0
  141.6832   78.4734  223.6315 H   0  0  0  0  0  0  0  0  0  0  0  0
  142.4055   77.9066  222.0482 H   0  0  0  0  0  0  0  0  0  0  0  0
  143.0585   80.1471  223.5138 H   0  0  0  0  0  0  0  0  0  0  0  0
  143.4856   79.6737  221.7594 H   0  0  0  0  0  0  0  0  0  0  0  0
  141.9144   81.8277  222.8266 H   0  0  0  0  0  0  0  0  0  0  0  0
  142.8406   81.5331  221.2327 H   0  0  0  0  0  0  0  0  0  0  0  0
  140.0171   81.4414  221.8286 H   0  0  0  0  0  0  0  0  0  0  0  0
  140.9716   81.6687  220.2822 H   0  0  0  0  0  0  0  0  0  0  0  0
  139.4815   79.5720  220.3330 H   0  0  0  0  0  0  0  0  0  0  0  0
  142.2139   81.2330  218.9674 H   0  0  0  0  0  0  0  0  0  0  0  0
  143.6210   79.7590  217.3240 H   0  0  0  0  0  0  0  0  0  0  0  0
  143.6224   78.0580  215.7601 H   0  0  0  0  0  0  0  0  0  0  0  0
  144.6016   76.1551  214.5623 H   0  0  0  0  0  0  0  0  0  0  0  0
  144.7835   73.9089  215.6896 H   0  0  0  0  0  0  0  0  0  0  0  0
  143.9563   73.7048  218.0137 H   0  0  0  0  0  0  0  0  0  0  0  0
  142.9778   75.6119  219.2087 H   0  0  0  0  0  0  0  0  0  0  0  0
  140.2645   72.1247  220.7950 H   0  0  0  0  0  0  0  0  0  0  0  0
  142.2338   70.8441  220.0023 H   0  0  0  0  0  0  0  0  0  0  0  0
  144.6920   70.8678  219.5543 H   0  0  0  0  0  0  0  0  0  0  0  0
  146.8636   72.0624  219.5572 H   0  0  0  0  0  0  0  0  0  0  0  0
  146.9870   74.4405  220.3268 H   0  0  0  0  0  0  0  0  0  0  0  0
  144.8906   75.5610  221.0921 H   0  0  0  0  0  0  0  0  0  0  0  0
  1  2  2  0
  2  3  1  0
  3  4  1  0
  4  5  1  0
  5  6  2  0
  5  7  1  0
  7  8  1  0
  8  9  1  0
  9 10  1  0
 10 11  1  0
 11 12  1  0
 12 13  1  0
 13 14  2  0
 14 15  1  0
 15 16  1  0
 16 17  1  0
 17 18  2  0
 18 19  1  0
 19 20  2  0
 20 21  1  0
 21 22  2  0
 16 23  2  0
  2 24  1  0
 24 25  2  0
 25 26  1  0
 26 27  2  0
 27 28  1  0
 28 29  2  0
 29 30  1  0
 30 31  2  0
 31 32  1  0
 32 33  2  0
 12  7  1  0
 23 13  1  0
 33 24  1  0
 22 17  1  0
 32 27  1  0
  3 34  1  0
  4 35  1  0
  4 36  1  0
  8 37  1  0
  8 38  1  0
  9 39  1  0
  9 40  1  0
 10 41  1  0
 10 42  1  0
 11 43  1  0
 11 44  1  0
 12 45  1  6
 14 46  1  0
 15 47  1  0
 18 48  1  0
 19 49  1  0
 20 50  1  0
 21 51  1  0
 22 52  1  0
 25 53  1  0
 26 54  1  0
 28 55  1  0
 29 56  1  0
 30 57  1  0
 31 58  1  0
M  END
>  <smiles>  (41) 
O=C(NCC(=O)N1CCCC[C@H]1c1c[nH]c(-c2ccccc2)n1)c1ccc2ccccc2n1

>  <score_type>  (41) 
oracle

>  <origin>  (41) 
autodockgpu

>  <m_score__min__energy>  (41) 
-9.9100000000000001

>  <m_primary>  (41) 
energy

>  <rmsd>  (41) 
6.72308193608174

>  <m_score__min__rmsd>  (41) 
6.72308193608174

>  <meeko>  (41) 
{"free_energy": -7.69, "intermolecular_energy": -9.48, "internal_energy": -3.37, "cluster_size": 4, "cluster_id": 4, "rank_in_cluster": 2}

>  <energy>  (41) 
-6.61

>  <cluster_rmsd>  (41) 
1.48

>  <cluster>  (41) 
5

$$$$

     RDKit          3D

 58 62  0  0  0  0  0  0  0  0999 V2000
  139.5980   74.5570  222.3770 O   0  0  0  0  0  0  0  0  0  0  0  0
  140.1490   75.0570  221.3750 C   0  0  0  0  0  0  0  0  0  0  0  0
  139.7230   76.3230  220.9110 N   0  0  0  0  0  0  0  0  0  0  0  0
  138.6910   77.1180  221.4900 C   0  0  0  0  0  0  0  0  0  0  0  0
  139.1880   78.2280  222.3320 C   0  0  0  0  0  0  0  0  0  0  0  0
  138.6050   78.6350  223.3720 O   0  0  0  0  0  0  0  0  0  0  0  0
  140.4000   78.8680  221.9330 N   0  0  0  0  0  0  0  0  0  0  0  0
  141.6420   78.4770  222.5630 C   0  0  0  0  0  0  0  0  0  0  0  0
  142.6280   79.5870  222.6990 C   0  0  0  0  0  0  0  0  0  0  0  0
  142.1870   80.9590  222.3860 C   0  0  0  0  0  0  0  0  0  0  0  0
  140.9320   81.1420  221.6040 C   0  0  0  0  0  0  0  0  0  0  0  0
  140.4410   79.8900  220.9280 C   0  0  1  0  0  0  0  0  0  0  0  0
  141.3620   79.5900  219.8200 C   0  0  0  0  0  0  0  0  0  0  0  0
  142.1930   80.4640  219.1470 C   0  0  0  0  0  0  0  0  0  0  0  0
  142.8830   79.8020  218.1930 N   0  0  0  0  0  0  0  0  0  0  0  0
  142.4920   78.5180  218.2620 C   0  0  0  0  0  0  0  0  0  0  0  0
  142.9890   77.4600  217.4090 C   0  0  0  0  0  0  0  0  0  0  0  0
  142.9390   77.5230  216.0320 C   0  0  0  0  0  0  0  0  0  0  0  0
  143.4130   76.5180  215.2160 C   0  0  0  0  0  0  0  0  0  0  0  0
  143.9740   75.3670  215.7730 C   0  0  0  0  0  0  0  0  0  0  0  0
  144.0260   75.2990  217.1430 C   0  0  0  0  0  0  0  0  0  0  0  0
  143.5500   76.3090  217.9560 C   0  0  0  0  0  0  0  0  0  0  0  0
  141.5890   78.3880  219.2260 N   0  0  0  0  0  0  0  0  0  0  0  0
  141.2390   74.3690  220.6500 C   0  0  0  0  0  0  0  0  0  0  0  0
  141.0070   73.5330  219.5990 C   0  0  0  0  0  0  0  0  0  0  0  0
  142.0150   72.8790  218.9070 C   0  0  0  0  0  0  0  0  0  0  0  0
  143.3190   73.0950  219.3190 C   0  0  0  0  0  0  0  0  0  0  0  0
  144.4090   72.5070  218.7180 C   0  0  0  0  0  0  0  0  0  0  0  0
  145.7100   72.7480  219.1580 C   0  0  0  0  0  0  0  0  0  0  0  0
  145.9360   73.6000  220.2300 C   0  0  0  0  0  0  0  0  0  0  0  0
  144.8400   74.1940  220.8370 C   0  0  0  0  0  0  0  0  0  0  0  0
  143.5610   73.9390  220.3830 C   0  0  0  0  0  0  0  0  0  0  0  0
  142.5380   74.5560  221.0250 N   0  0  0  0  0  0  0  0  0  0  0  0
  140.2120   76.7220  220.0550 H   0  0  0  0  0  0  0  0  0  0  0  0
  138.0856   77.5449  220.6768 H   0  0  0  0  0  0  0  0  0  0  0  0
  138.1094   76.4552  222.1476 H   0  0  0  0  0  0  0  0  0  0  0  0
  141.4140   78.0917  223.5678 H   0  0  0  0  0  0  0  0  0  0  0  0
  142.1037   77.7187  221.9136 H   0  0  0  0  0  0  0  0  0  0  0  0
  142.9756   79.5872  223.7427 H   0  0  0  0  0  0  0  0  0  0  0  0
  143.3896   79.3671  221.9364 H   0  0  0  0  0  0  0  0  0  0  0  0
  142.0520   81.4830  223.3437 H   0  0  0  0  0  0  0  0  0  0  0  0
  142.9748   81.3508  221.7258 H   0  0  0  0  0  0  0  0  0  0  0  0
  140.1469   81.4956  222.2886 H   0  0  0  0  0  0  0  0  0  0  0  0
  141.1578   81.8653  220.8066 H   0  0  0  0  0  0  0  0  0  0  0  0
  139.4341   79.9824  220.4950 H   0  0  0  0  0  0  0  0  0  0  0  0
  142.2801   81.5403  219.3569 H   0  0  0  0  0  0  0  0  0  0  0  0
  143.5840   80.1970  217.5270 H   0  0  0  0  0  0  0  0  0  0  0  0
  142.5007   78.4164  215.5633 H   0  0  0  0  0  0  0  0  0  0  0  0
  143.3491   76.6231  214.1229 H   0  0  0  0  0  0  0  0  0  0  0  0
  144.3571   74.5513  215.1422 H   0  0  0  0  0  0  0  0  0  0  0  0
  144.4638   74.4053  217.6116 H   0  0  0  0  0  0  0  0  0  0  0  0
  143.6149   76.2028  219.0489 H   0  0  0  0  0  0  0  0  0  0  0  0
  139.9662   73.3685  219.2833 H   0  0  0  0  0  0  0  0  0  0  0  0
  141.7870   72.2130  218.0617 H   0  0  0  0  0  0  0  0  0  0  0  0
  144.2492   71.8283  217.8672 H   0  0  0  0  0  0  0  0  0  0  0  0
  146.5587   72.2620  218.6546 H   0  0  0  0  0  0  0  0  0  0  0  0
  146.9569   73.7986  220.5883 H   0  0  0  0  0  0  0  0  0  0  0  0
  144.9907   74.8746  221.6880 H   0  0  0  0  0  0  0  0  0  0  0  0
  1  2  2  0
  2  3  1  0
  3  4  1  0
  4  5  1  0
  5  6  2  0
  5  7  1  0
  7  8  1  0
  8  9  1  0
  9 10  1  0
 10 11  1  0
 11 12  1  0
 12 13  1  0
 13 14  2  0
 14 15  1  0
 15 16  1  0
 16 17  1  0
 17 18  2  0
 18 19  1  0
 19 20  2  0
 20 21  1  0
 21 22  2  0
 16 23  2  0
  2 24  1  0
 24 25  2  0
 25 26  1  0
 26 27  2  0
 27 28  1  0
 28 29  2  0
 29 30  1  0
 30 31  2  0
 31 32  1  0
 32 33  2  0
 12  7  1  0
 23 13  1  0
 33 24  1  0
 22 17  1  0
 32 27  1  0
  3 34  1  0
  4 35  1  0
  4 36  1  0
  8 37  1  0
  8 38  1  0
  9 39  1  0
  9 40  1  0
 10 41  1  0
 10 42  1  0
 11 43  1  0
 11 44  1  0
 12 45  1  6
 14 46  1  0
 15 47  1  0
 18 48  1  0
 19 49  1  0
 20 50  1  0
 21 51  1  0
 22 52  1  0
 25 53  1  0
 26 54  1  0
 28 55  1  0
 29 56  1  0
 30 57  1  0
 31 58  1  0
M  END
>  <smiles>  (42) 
O=C(NCC(=O)N1CCCC[C@H]1c1c[nH]c(-c2ccccc2)n1)c1ccc2ccccc2n1

>  <score_type>  (42) 
oracle

>  <origin>  (42) 
autodockgpu

>  <m_score__min__energy>  (42) 
-9.9100000000000001

>  <m_primary>  (42) 
energy

>  <rmsd>  (42) 
6.8646446825136405

>  <m_score__min__rmsd>  (42) 
6.8646446825136405

>  <meeko>  (42) 
{"free_energy": -7.3, "intermolecular_energy": -9.09, "internal_energy": -3.42, "cluster_size": 4, "cluster_id": 4, "rank_in_cluster": 3}

>  <energy>  (42) 
-6.61

>  <cluster_rmsd>  (42) 
1.43

>  <cluster>  (42) 
5

$$$$

     RDKit          3D

 58 62  0  0  0  0  0  0  0  0999 V2000
  136.8110   76.5270  223.0750 O   0  0  0  0  0  0  0  0  0  0  0  0
  138.0020   76.6390  222.7170 C   0  0  0  0  0  0  0  0  0  0  0  0
  138.6460   75.5400  222.1040 N   0  0  0  0  0  0  0  0  0  0  0  0
  138.0550   74.2690  221.8410 C   0  0  0  0  0  0  0  0  0  0  0  0
  139.0290   73.2180  221.4740 C   0  0  0  0  0  0  0  0  0  0  0  0
  138.9570   72.0240  221.8730 O   0  0  0  0  0  0  0  0  0  0  0  0
  140.1110   73.5880  220.6190 N   0  0  0  0  0  0  0  0  0  0  0  0
  139.9320   73.5080  219.1860 C   0  0  0  0  0  0  0  0  0  0  0  0
  141.1740   73.1570  218.4400 C   0  0  0  0  0  0  0  0  0  0  0  0
  142.3600   72.7380  219.2090 C   0  0  0  0  0  0  0  0  0  0  0  0
  142.4030   73.0370  220.6680 C   0  0  0  0  0  0  0  0  0  0  0  0
  141.3750   74.0390  221.1210 C   0  0  1  0  0  0  0  0  0  0  0  0
  141.7780   75.3570  220.6050 C   0  0  0  0  0  0  0  0  0  0  0  0
  143.0070   75.7280  220.0920 C   0  0  0  0  0  0  0  0  0  0  0  0
  142.9780   77.0270  219.7220 N   0  0  0  0  0  0  0  0  0  0  0  0
  141.7410   77.4750  219.9980 C   0  0  0  0  0  0  0  0  0  0  0  0
  141.2820   78.8250  219.7550 C   0  0  0  0  0  0  0  0  0  0  0  0
  139.9590   79.1970  219.8600 C   0  0  0  0  0  0  0  0  0  0  0  0
  139.5180   80.4820  219.6300 C   0  0  0  0  0  0  0  0  0  0  0  0
  140.4260   81.4820  219.2690 C   0  0  0  0  0  0  0  0  0  0  0  0
  141.7450   81.1170  219.1630 C   0  0  0  0  0  0  0  0  0  0  0  0
  142.1810   79.8270  219.3960 C   0  0  0  0  0  0  0  0  0  0  0  0
  141.0260   76.4870  220.5220 N   0  0  0  0  0  0  0  0  0  0  0  0
  138.7680   77.8890  222.9140 C   0  0  0  0  0  0  0  0  0  0  0  0
  138.1660   79.0970  223.0930 C   0  0  0  0  0  0  0  0  0  0  0  0
  138.8670   80.2800  223.2790 C   0  0  0  0  0  0  0  0  0  0  0  0
  140.2490   80.2110  223.2790 C   0  0  0  0  0  0  0  0  0  0  0  0
  141.0600   81.3090  223.4530 C   0  0  0  0  0  0  0  0  0  0  0  0
  142.4510   81.2040  223.4470 C   0  0  0  0  0  0  0  0  0  0  0  0
  143.0560   79.9690  223.2630 C   0  0  0  0  0  0  0  0  0  0  0  0
  142.2410   78.8600  223.0880 C   0  0  0  0  0  0  0  0  0  0  0  0
  140.8650   78.9900  223.0970 C   0  0  0  0  0  0  0  0  0  0  0  0
  140.1330   77.8630  222.9200 N   0  0  0  0  0  0  0  0  0  0  0  0
  139.6610   75.6670  221.8110 H   0  0  0  0  0  0  0  0  0  0  0  0
  137.5183   73.9433  222.7443 H   0  0  0  0  0  0  0  0  0  0  0  0
  137.3874   74.4007  220.9767 H   0  0  0  0  0  0  0  0  0  0  0  0
  139.1725   72.7410  218.9743 H   0  0  0  0  0  0  0  0  0  0  0  0
  139.6280   74.5091  218.8462 H   0  0  0  0  0  0  0  0  0  0  0  0
  140.9211   72.3322  217.7575 H   0  0  0  0  0  0  0  0  0  0  0  0
  141.4797   74.1010  217.9653 H   0  0  0  0  0  0  0  0  0  0  0  0
  142.4502   71.6473  219.0982 H   0  0  0  0  0  0  0  0  0  0  0  0
  143.1803   73.3372  218.7869 H   0  0  0  0  0  0  0  0  0  0  0  0
  142.2367   72.0989  221.2178 H   0  0  0  0  0  0  0  0  0  0  0  0
  143.3889   73.4801  220.8719 H   0  0  0  0  0  0  0  0  0  0  0  0
  141.2936   74.1315  222.2141 H   0  0  0  0  0  0  0  0  0  0  0  0
  143.8791   75.0640  219.9989 H   0  0  0  0  0  0  0  0  0  0  0  0
  143.7560   77.5840  219.3040 H   0  0  0  0  0  0  0  0  0  0  0  0
  139.2202   78.4318  220.1407 H   0  0  0  0  0  0  0  0  0  0  0  0
  138.4491   80.7216  219.7307 H   0  0  0  0  0  0  0  0  0  0  0  0
  140.0982   82.5146  219.0785 H   0  0  0  0  0  0  0  0  0  0  0  0
  142.4839   81.8817  218.8815 H   0  0  0  0  0  0  0  0  0  0  0  0
  143.2502   79.5882  219.2969 H   0  0  0  0  0  0  0  0  0  0  0  0
  137.0667   79.1373  223.0900 H   0  0  0  0  0  0  0  0  0  0  0  0
  138.3436   81.2370  223.4212 H   0  0  0  0  0  0  0  0  0  0  0  0
  140.5988   82.2966  223.6009 H   0  0  0  0  0  0  0  0  0  0  0  0
  143.0697   82.1024  223.5885 H   0  0  0  0  0  0  0  0  0  0  0  0
  144.1517   79.8719  223.2561 H   0  0  0  0  0  0  0  0  0  0  0  0
  142.6939   77.8684  222.9408 H   0  0  0  0  0  0  0  0  0  0  0  0
  1  2  2  0
  2  3  1  0
  3  4  1  0
  4  5  1  0
  5  6  2  0
  5  7  1  0
  7  8  1  0
  8  9  1  0
  9 10  1  0
 10 11  1  0
 11 12  1  0
 12 13  1  0
 13 14  2  0
 14 15  1  0
 15 16  1  0
 16 17  1  0
 17 18  2  0
 18 19  1  0
 19 20  2  0
 20 21  1  0
 21 22  2  0
 16 23  2  0
  2 24  1  0
 24 25  2  0
 25 26  1  0
 26 27  2  0
 27 28  1  0
 28 29  2  0
 29 30  1  0
 30 31  2  0
 31 32  1  0
 32 33  2  0
 12  7  1  0
 23 13  1  0
 33 24  1  0
 22 17  1  0
 32 27  1  0
  3 34  1  0
  4 35  1  0
  4 36  1  0
  8 37  1  0
  8 38  1  0
  9 39  1  0
  9 40  1  0
 10 41  1  0
 10 42  1  0
 11 43  1  0
 11 44  1  0
 12 45  1  1
 14 46  1  0
 15 47  1  0
 18 48  1  0
 19 49  1  0
 20 50  1  0
 21 51  1  0
 22 52  1  0
 25 53  1  0
 26 54  1  0
 28 55  1  0
 29 56  1  0
 30 57  1  0
 31 58  1  0
M  END
>  <smiles>  (43) 
O=C(NCC(=O)N1CCCC[C@H]1c1c[nH]c(-c2ccccc2)n1)c1ccc2ccccc2n1

>  <score_type>  (43) 
oracle

>  <origin>  (43) 
autodockgpu

>  <m_score__min__energy>  (43) 
-9.9100000000000001

>  <m_primary>  (43) 
energy

>  <rmsd>  (43) 
6.644826714936142

>  <m_score__min__rmsd>  (43) 
6.644826714936142

>  <meeko>  (43) 
{"free_energy": -6.44, "intermolecular_energy": -8.23, "internal_energy": -4.52, "cluster_size": 22, "cluster_id": 5, "rank_in_cluster": 22}

>  <energy>  (43) 
-6.61

>  <cluster_rmsd>  (43) 
1.21

>  <cluster>  (43) 
5

$$$$

     RDKit          3D

 58 62  0  0  0  0  0  0  0  0999 V2000
  138.9990   75.0300  221.7000 O   0  0  0  0  0  0  0  0  0  0  0  0
  140.0930   75.5930  221.9140 C   0  0  0  0  0  0  0  0  0  0  0  0
  141.2930   74.8770  221.6990 N   0  0  0  0  0  0  0  0  0  0  0  0
  141.3880   73.5280  221.2470 C   0  0  0  0  0  0  0  0  0  0  0  0
  142.4640   73.3010  220.2590 C   0  0  0  0  0  0  0  0  0  0  0  0
  143.3930   72.4620  220.4130 O   0  0  0  0  0  0  0  0  0  0  0  0
  142.4420   74.0820  219.0650 N   0  0  0  0  0  0  0  0  0  0  0  0
  141.2780   74.0210  218.2070 C   0  0  0  0  0  0  0  0  0  0  0  0
  141.5850   74.1850  216.7570 C   0  0  0  0  0  0  0  0  0  0  0  0
  142.9980   74.1800  216.3350 C   0  0  0  0  0  0  0  0  0  0  0  0
  144.0500   74.3940  217.3680 C   0  0  0  0  0  0  0  0  0  0  0  0
  143.5290   74.9320  218.6740 C   0  0  1  0  0  0  0  0  0  0  0  0
  143.1330   76.3320  218.4550 C   0  0  0  0  0  0  0  0  0  0  0  0
  143.4440   77.1430  217.3800 C   0  0  0  0  0  0  0  0  0  0  0  0
  142.8920   78.3640  217.5510 N   0  0  0  0  0  0  0  0  0  0  0  0
  142.2370   78.3260  218.7250 C   0  0  0  0  0  0  0  0  0  0  0  0
  141.5020   79.4360  219.2910 C   0  0  0  0  0  0  0  0  0  0  0  0
  140.1320   79.4220  219.4520 C   0  0  0  0  0  0  0  0  0  0  0  0
  139.4280   80.4760  219.9930 C   0  0  0  0  0  0  0  0  0  0  0  0
  140.0980   81.6300  220.4060 C   0  0  0  0  0  0  0  0  0  0  0  0
  141.4620   81.6500  220.2480 C   0  0  0  0  0  0  0  0  0  0  0  0
  142.1620   80.5900  219.7060 C   0  0  0  0  0  0  0  0  0  0  0  0
  142.3780   77.1220  219.2640 N   0  0  0  0  0  0  0  0  0  0  0  0
  140.1780   76.9920  222.3870 C   0  0  0  0  0  0  0  0  0  0  0  0
  139.0750   77.7330  222.6870 C   0  0  0  0  0  0  0  0  0  0  0  0
  139.1360   79.0460  223.1320 C   0  0  0  0  0  0  0  0  0  0  0  0
  140.3880   79.6180  223.2720 C   0  0  0  0  0  0  0  0  0  0  0  0
  140.5850   80.9090  223.7040 C   0  0  0  0  0  0  0  0  0  0  0  0
  141.8620   81.4540  223.8340 C   0  0  0  0  0  0  0  0  0  0  0  0
  142.9800   80.6910  223.5260 C   0  0  0  0  0  0  0  0  0  0  0  0
  142.7850   79.3890  223.0910 C   0  0  0  0  0  0  0  0  0  0  0  0
  141.5090   78.8720  222.9690 C   0  0  0  0  0  0  0  0  0  0  0  0
  141.3950   77.5920  222.5390 N   0  0  0  0  0  0  0  0  0  0  0  0
  142.2080   75.3840  221.8900 H   0  0  0  0  0  0  0  0  0  0  0  0
  141.5763   72.8834  222.1182 H   0  0  0  0  0  0  0  0  0  0  0  0
  140.4384   73.2924  220.7442 H   0  0  0  0  0  0  0  0  0  0  0  0
  140.7937   73.0437  218.3498 H   0  0  0  0  0  0  0  0  0  0  0  0
  140.6278   74.8612  218.4920 H   0  0  0  0  0  0  0  0  0  0  0  0
  141.0832   73.3644  216.2234 H   0  0  0  0  0  0  0  0  0  0  0  0
  141.2351   75.2004  216.5194 H   0  0  0  0  0  0  0  0  0  0  0  0
  143.1942   73.2029  215.8695 H   0  0  0  0  0  0  0  0  0  0  0  0
  143.0851   75.0570  215.6768 H   0  0  0  0  0  0  0  0  0  0  0  0
  144.5432   73.4304  217.5635 H   0  0  0  0  0  0  0  0  0  0  0  0
  144.7399   75.1506  216.9660 H   0  0  0  0  0  0  0  0  0  0  0  0
  144.2719   74.9304  219.4853 H   0  0  0  0  0  0  0  0  0  0  0  0
  144.0507   76.8394  216.5141 H   0  0  0  0  0  0  0  0  0  0  0  0
  142.9540   79.1840  216.9070 H   0  0  0  0  0  0  0  0  0  0  0  0
  139.5757   78.5280  219.1338 H   0  0  0  0  0  0  0  0  0  0  0  0
  138.3353   80.4083  220.0999 H   0  0  0  0  0  0  0  0  0  0  0  0
  139.5572   82.4846  220.8385 H   0  0  0  0  0  0  0  0  0  0  0  0
  142.0183   82.5444  220.5652 H   0  0  0  0  0  0  0  0  0  0  0  0
  143.2548   80.6581  219.6007 H   0  0  0  0  0  0  0  0  0  0  0  0
  138.0855   77.2668  222.5706 H   0  0  0  0  0  0  0  0  0  0  0  0
  138.2218   79.6117  223.3651 H   0  0  0  0  0  0  0  0  0  0  0  0
  139.7111   81.5286  223.9538 H   0  0  0  0  0  0  0  0  0  0  0  0
  141.9836   82.4906  224.1813 H   0  0  0  0  0  0  0  0  0  0  0  0
  143.9931   81.1080  223.6244 H   0  0  0  0  0  0  0  0  0  0  0  0
  143.6535   78.7620  222.8408 H   0  0  0  0  0  0  0  0  0  0  0  0
  1  2  2  0
  2  3  1  0
  3  4  1  0
  4  5  1  0
  5  6  2  0
  5  7  1  0
  7  8  1  0
  8  9  1  0
  9 10  1  0
 10 11  1  0
 11 12  1  0
 12 13  1  0
 13 14  2  0
 14 15  1  0
 15 16  1  0
 16 17  1  0
 17 18  2  0
 18 19  1  0
 19 20  2  0
 20 21  1  0
 21 22  2  0
 16 23  2  0
  2 24  1  0
 24 25  2  0
 25 26  1  0
 26 27  2  0
 27 28  1  0
 28 29  2  0
 29 30  1  0
 30 31  2  0
 31 32  1  0
 32 33  2  0
 12  7  1  0
 23 13  1  0
 33 24  1  0
 22 17  1  0
 32 27  1  0
  3 34  1  0
  4 35  1  0
  4 36  1  0
  8 37  1  0
  8 38  1  0
  9 39  1  0
  9 40  1  0
 10 41  1  0
 10 42  1  0
 11 43  1  0
 11 44  1  0
 12 45  1  1
 14 46  1  0
 15 47  1  0
 18 48  1  0
 19 49  1  0
 20 50  1  0
 21 51  1  0
 22 52  1  0
 25 53  1  0
 26 54  1  0
 28 55  1  0
 29 56  1  0
 30 57  1  0
 31 58  1  0
M  END
>  <smiles>  (44) 
O=C(NCC(=O)N1CCCC[C@H]1c1c[nH]c(-c2ccccc2)n1)c1ccc2ccccc2n1

>  <score_type>  (44) 
oracle

>  <origin>  (44) 
autodockgpu

>  <m_score__min__energy>  (44) 
-9.9100000000000001

>  <m_primary>  (44) 
energy

>  <rmsd>  (44) 
6.430310364189493

>  <m_score__min__rmsd>  (44) 
6.430310364189493

>  <meeko>  (44) 
{"free_energy": -7.18, "intermolecular_energy": -8.97, "internal_energy": -3.86, "cluster_size": 22, "cluster_id": 5, "rank_in_cluster": 1}

>  <energy>  (44) 
-6.61

>  <cluster_rmsd>  (44) 
1.49

>  <cluster>  (44) 
5

$$$$

     RDKit          3D

 58 62  0  0  0  0  0  0  0  0999 V2000
  137.1710   76.0250  222.6160 O   0  0  0  0  0  0  0  0  0  0  0  0
  138.3870   76.2490  222.4470 C   0  0  0  0  0  0  0  0  0  0  0  0
  139.2280   75.2030  222.0030 N   0  0  0  0  0  0  0  0  0  0  0  0
  138.8160   73.8690  221.7160 C   0  0  0  0  0  0  0  0  0  0  0  0
  139.9280   72.9590  221.3630 C   0  0  0  0  0  0  0  0  0  0  0  0
  140.0350   71.7800  221.7960 O   0  0  0  0  0  0  0  0  0  0  0  0
  140.9340   73.4560  220.4800 N   0  0  0  0  0  0  0  0  0  0  0  0
  140.7310   73.3490  219.0520 C   0  0  0  0  0  0  0  0  0  0  0  0
  141.9870   73.1510  218.2750 C   0  0  0  0  0  0  0  0  0  0  0  0
  143.2350   72.8840  219.0140 C   0  0  0  0  0  0  0  0  0  0  0  0
  143.2770   73.1920  220.4710 C   0  0  0  0  0  0  0  0  0  0  0  0
  142.1460   74.0620  220.9490 C   0  0  1  0  0  0  0  0  0  0  0  0
  142.3700   75.4170  220.4220 C   0  0  0  0  0  0  0  0  0  0  0  0
  143.5030   75.9090  219.8020 C   0  0  0  0  0  0  0  0  0  0  0  0
  143.3150   77.2030  219.4610 N   0  0  0  0  0  0  0  0  0  0  0  0
  142.0740   77.5270  219.8610 C   0  0  0  0  0  0  0  0  0  0  0  0
  141.4680   78.8290  219.6870 C   0  0  0  0  0  0  0  0  0  0  0  0
  142.2050   79.9790  219.5060 C   0  0  0  0  0  0  0  0  0  0  0  0
  141.6320   81.2220  219.3390 C   0  0  0  0  0  0  0  0  0  0  0  0
  140.2420   81.3610  219.3510 C   0  0  0  0  0  0  0  0  0  0  0  0
  139.5030   80.2190  219.5310 C   0  0  0  0  0  0  0  0  0  0  0  0
  140.0830   78.9760  219.6970 C   0  0  0  0  0  0  0  0  0  0  0  0
  141.5100   76.4700  220.4320 N   0  0  0  0  0  0  0  0  0  0  0  0
  138.9850   77.5790  222.6980 C   0  0  0  0  0  0  0  0  0  0  0  0
  138.2300   78.7010  222.8700 C   0  0  0  0  0  0  0  0  0  0  0  0
  138.7720   79.9550  223.1060 C   0  0  0  0  0  0  0  0  0  0  0  0
  140.1510   80.0570  223.1660 C   0  0  0  0  0  0  0  0  0  0  0  0
  140.8120   81.2420  223.3940 C   0  0  0  0  0  0  0  0  0  0  0  0
  142.2040   81.3090  223.4480 C   0  0  0  0  0  0  0  0  0  0  0  0
  142.9640   80.1610  223.2710 C   0  0  0  0  0  0  0  0  0  0  0  0
  142.3000   78.9650  223.0410 C   0  0  0  0  0  0  0  0  0  0  0  0
  140.9200   78.9250  222.9920 C   0  0  0  0  0  0  0  0  0  0  0  0
  140.3400   77.7210  222.7640 N   0  0  0  0  0  0  0  0  0  0  0  0
  140.2600   75.4260  221.8690 H   0  0  0  0  0  0  0  0  0  0  0  0
  138.3072   73.4654  222.6039 H   0  0  0  0  0  0  0  0  0  0  0  0
  138.1563   73.9215  220.8374 H   0  0  0  0  0  0  0  0  0  0  0  0
  140.0669   72.4934  218.8601 H   0  0  0  0  0  0  0  0  0  0  0  0
  140.2979   74.3039  218.7194 H   0  0  0  0  0  0  0  0  0  0  0  0
  141.8205   72.2989  217.5996 H   0  0  0  0  0  0  0  0  0  0  0  0
  142.1620   74.1237  217.7920 H   0  0  0  0  0  0  0  0  0  0  0  0
  143.4560   71.8123  218.9020 H   0  0  0  0  0  0  0  0  0  0  0  0
  143.9647   73.5775  218.5706 H   0  0  0  0  0  0  0  0  0  0  0  0
  143.2406   72.2428  221.0257 H   0  0  0  0  0  0  0  0  0  0  0  0
  144.2058   73.7537  220.6493 H   0  0  0  0  0  0  0  0  0  0  0  0
  142.0820   74.1489  222.0437 H   0  0  0  0  0  0  0  0  0  0  0  0
  144.4211   75.3330  219.6141 H   0  0  0  0  0  0  0  0  0  0  0  0
  143.9930   77.8370  218.9810 H   0  0  0  0  0  0  0  0  0  0  0  0
  143.3022   79.9019  219.4942 H   0  0  0  0  0  0  0  0  0  0  0  0
  142.2708   82.1061  219.1960 H   0  0  0  0  0  0  0  0  0  0  0  0
  139.7615   82.3420  219.2219 H   0  0  0  0  0  0  0  0  0  0  0  0
  138.4058   80.2961  219.5437 H   0  0  0  0  0  0  0  0  0  0  0  0
  139.4435   78.0923  219.8387 H   0  0  0  0  0  0  0  0  0  0  0  0
  137.1352   78.6066  222.8189 H   0  0  0  0  0  0  0  0  0  0  0  0
  138.1291   80.8373  223.2408 H   0  0  0  0  0  0  0  0  0  0  0  0
  140.2263   82.1620  223.5377 H   0  0  0  0  0  0  0  0  0  0  0  0
  142.7005   82.2733  223.6312 H   0  0  0  0  0  0  0  0  0  0  0  0
  144.0626   80.1987  223.3120 H   0  0  0  0  0  0  0  0  0  0  0  0
  142.8775   78.0401  222.8963 H   0  0  0  0  0  0  0  0  0  0  0  0
  1  2  2  0
  2  3  1  0
  3  4  1  0
  4  5  1  0
  5  6  2  0
  5  7  1  0
  7  8  1  0
  8  9  1  0
  9 10  1  0
 10 11  1  0
 11 12  1  0
 12 13  1  0
 13 14  2  0
 14 15  1  0
 15 16  1  0
 16 17  1  0
 17 18  2  0
 18 19  1  0
 19 20  2  0
 20 21  1  0
 21 22  2  0
 16 23  2  0
  2 24  1  0
 24 25  2  0
 25 26  1  0
 26 27  2  0
 27 28  1  0
 28 29  2  0
 29 30  1  0
 30 31  2  0
 31 32  1  0
 32 33  2  0
 12  7  1  0
 23 13  1  0
 33 24  1  0
 22 17  1  0
 32 27  1  0
  3 34  1  0
  4 35  1  0
  4 36  1  0
  8 37  1  0
  8 38  1  0
  9 39  1  0
  9 40  1  0
 10 41  1  0
 10 42  1  0
 11 43  1  0
 11 44  1  0
 12 45  1  1
 14 46  1  0
 15 47  1  0
 18 48  1  0
 19 49  1  0
 20 50  1  0
 21 51  1  0
 22 52  1  0
 25 53  1  0
 26 54  1  0
 28 55  1  0
 29 56  1  0
 30 57  1  0
 31 58  1  0
M  END
>  <smiles>  (45) 
O=C(NCC(=O)N1CCCC[C@H]1c1c[nH]c(-c2ccccc2)n1)c1ccc2ccccc2n1

>  <score_type>  (45) 
oracle

>  <origin>  (45) 
autodockgpu

>  <m_score__min__energy>  (45) 
-9.9100000000000001

>  <m_primary>  (45) 
energy

>  <rmsd>  (45) 
6.677480730525652

>  <m_score__min__rmsd>  (45) 
6.677480730525652

>  <meeko>  (45) 
{"free_energy": -6.57, "intermolecular_energy": -8.36, "internal_energy": -4.55, "cluster_size": 22, "cluster_id": 5, "rank_in_cluster": 20}

>  <energy>  (45) 
-6.61

>  <cluster_rmsd>  (45) 
1.48

>  <cluster>  (45) 
5

$$$$

     RDKit          3D

 58 62  0  0  0  0  0  0  0  0999 V2000
  141.0020   73.3970  221.9670 O   0  0  0  0  0  0  0  0  0  0  0  0
  139.9490   73.0170  222.5190 C   0  0  0  0  0  0  0  0  0  0  0  0
  138.7510   73.7310  222.2910 N   0  0  0  0  0  0  0  0  0  0  0  0
  138.6130   74.8840  221.4640 C   0  0  0  0  0  0  0  0  0  0  0  0
  138.9600   76.1530  222.1400 C   0  0  0  0  0  0  0  0  0  0  0  0
  138.2950   76.6470  223.0910 O   0  0  0  0  0  0  0  0  0  0  0  0
  140.1170   76.8520  221.6810 N   0  0  0  0  0  0  0  0  0  0  0  0
  141.0740   77.3400  222.6500 C   0  0  0  0  0  0  0  0  0  0  0  0
  141.7500   78.6070  222.2480 C   0  0  0  0  0  0  0  0  0  0  0  0
  141.2510   79.3220  221.0590 C   0  0  0  0  0  0  0  0  0  0  0  0
  140.3720   78.5890  220.1050 C   0  0  0  0  0  0  0  0  0  0  0  0
  140.3740   77.0950  220.2910 C   0  0  1  0  0  0  0  0  0  0  0  0
  141.6790   76.5900  219.8370 C   0  0  0  0  0  0  0  0  0  0  0  0
  142.5340   77.1590  218.9120 C   0  0  0  0  0  0  0  0  0  0  0  0
  143.6350   76.3900  218.7680 N   0  0  0  0  0  0  0  0  0  0  0  0
  143.4790   75.3420  219.5970 C   0  0  0  0  0  0  0  0  0  0  0  0
  144.4370   74.2690  219.7540 C   0  0  0  0  0  0  0  0  0  0  0  0
  144.5190   73.2060  218.8800 C   0  0  0  0  0  0  0  0  0  0  0  0
  145.4310   72.1820  219.0260 C   0  0  0  0  0  0  0  0  0  0  0  0
  146.3270   72.1870  220.0970 C   0  0  0  0  0  0  0  0  0  0  0  0
  146.2490   73.2440  220.9710 C   0  0  0  0  0  0  0  0  0  0  0  0
  145.3340   74.2670  220.8190 C   0  0  0  0  0  0  0  0  0  0  0  0
  142.3200   75.4570  220.2320 N   0  0  0  0  0  0  0  0  0  0  0  0
  139.9100   71.8370  223.4100 C   0  0  0  0  0  0  0  0  0  0  0  0
  139.3170   70.6640  223.0490 C   0  0  0  0  0  0  0  0  0  0  0  0
  139.2710   69.5480  223.8710 C   0  0  0  0  0  0  0  0  0  0  0  0
  139.8620   69.6450  225.1190 C   0  0  0  0  0  0  0  0  0  0  0  0
  139.8850   68.6120  226.0270 C   0  0  0  0  0  0  0  0  0  0  0  0
  140.4890   68.7450  227.2770 C   0  0  0  0  0  0  0  0  0  0  0  0
  141.0910   69.9430  227.6360 C   0  0  0  0  0  0  0  0  0  0  0  0
  141.0690   70.9860  226.7220 C   0  0  0  0  0  0  0  0  0  0  0  0
  140.4640   70.8300  225.4900 C   0  0  0  0  0  0  0  0  0  0  0  0
  140.4820   71.8930  224.6480 N   0  0  0  0  0  0  0  0  0  0  0  0
  137.8710   73.3820  222.7760 H   0  0  0  0  0  0  0  0  0  0  0  0
  139.2723   74.7651  220.5916 H   0  0  0  0  0  0  0  0  0  0  0  0
  137.5510   74.9513  221.1856 H   0  0  0  0  0  0  0  0  0  0  0  0
  140.5467   77.5151  223.5993 H   0  0  0  0  0  0  0  0  0  0  0  0
  141.8585   76.5738  222.7371 H   0  0  0  0  0  0  0  0  0  0  0  0
  141.6750   79.2997  223.0992 H   0  0  0  0  0  0  0  0  0  0  0  0
  142.7665   78.2937  221.9679 H   0  0  0  0  0  0  0  0  0  0  0  0
  140.6844   80.1936  221.4184 H   0  0  0  0  0  0  0  0  0  0  0  0
  142.1579   79.5402  220.4760 H   0  0  0  0  0  0  0  0  0  0  0  0
  139.3419   78.9520  220.2357 H   0  0  0  0  0  0  0  0  0  0  0  0
  140.7663   78.7836  219.0967 H   0  0  0  0  0  0  0  0  0  0  0  0
  139.6035   76.5720  219.7055 H   0  0  0  0  0  0  0  0  0  0  0  0
  142.3456   78.0991  218.3728 H   0  0  0  0  0  0  0  0  0  0  0  0
  144.4520   76.5630  218.1420 H   0  0  0  0  0  0  0  0  0  0  0  0
  143.8251   73.1731  218.0271 H   0  0  0  0  0  0  0  0  0  0  0  0
  145.4527   71.3588  218.2967 H   0  0  0  0  0  0  0  0  0  0  0  0
  147.0624   71.3806  220.2347 H   0  0  0  0  0  0  0  0  0  0  0  0
  146.9420   73.2767  221.8246 H   0  0  0  0  0  0  0  0  0  0  0  0
  145.3135   75.0904  221.5481 H   0  0  0  0  0  0  0  0  0  0  0  0
  138.8510   70.5992  222.0547 H   0  0  0  0  0  0  0  0  0  0  0  0
  138.7822   68.6188  223.5429 H   0  0  0  0  0  0  0  0  0  0  0  0
  139.4140   67.6545  225.7598 H   0  0  0  0  0  0  0  0  0  0  0  0
  140.4883   67.8988  227.9798 H   0  0  0  0  0  0  0  0  0  0  0  0
  141.5721   70.0619  228.6180 H   0  0  0  0  0  0  0  0  0  0  0  0
  141.5379   71.9468  226.9807 H   0  0  0  0  0  0  0  0  0  0  0  0
  1  2  2  0
  2  3  1  0
  3  4  1  0
  4  5  1  0
  5  6  2  0
  5  7  1  0
  7  8  1  0
  8  9  1  0
  9 10  1  0
 10 11  1  0
 11 12  1  0
 12 13  1  0
 13 14  2  0
 14 15  1  0
 15 16  1  0
 16 17  1  0
 17 18  2  0
 18 19  1  0
 19 20  2  0
 20 21  1  0
 21 22  2  0
 16 23  2  0
  2 24  1  0
 24 25  2  0
 25 26  1  0
 26 27  2  0
 27 28  1  0
 28 29  2  0
 29 30  1  0
 30 31  2  0
 31 32  1  0
 32 33  2  0
 12  7  1  0
 23 13  1  0
 33 24  1  0
 22 17  1  0
 32 27  1  0
  3 34  1  0
  4 35  1  0
  4 36  1  0
  8 37  1  0
  8 38  1  0
  9 39  1  0
  9 40  1  0
 10 41  1  0
 10 42  1  0
 11 43  1  0
 11 44  1  0
 12 45  1  6
 14 46  1  0
 15 47  1  0
 18 48  1  0
 19 49  1  0
 20 50  1  0
 21 51  1  0
 22 52  1  0
 25 53  1  0
 26 54  1  0
 28 55  1  0
 29 56  1  0
 30 57  1  0
 31 58  1  0
M  END
>  <smiles>  (46) 
O=C(NCC(=O)N1CCCC[C@H]1c1c[nH]c(-c2ccccc2)n1)c1ccc2ccccc2n1

>  <score_type>  (46) 
oracle

>  <origin>  (46) 
autodockgpu

>  <m_score__min__energy>  (46) 
-9.9100000000000001

>  <m_primary>  (46) 
energy

>  <rmsd>  (46) 
5.411590433495777

>  <m_score__min__rmsd>  (46) 
5.411590433495777

>  <meeko>  (46) 
{"free_energy": -9.91, "intermolecular_energy": -11.7, "internal_energy": -1.89, "cluster_size": 10, "cluster_id": 1, "rank_in_cluster": 1}

>  <energy>  (46) 
-6.6

>  <cluster_rmsd>  (46) 
1.46

>  <cluster>  (46) 
5

$$$$

     RDKit          3D

 58 62  0  0  0  0  0  0  0  0999 V2000
  137.6750   69.7730  222.0530 O   0  0  0  0  0  0  0  0  0  0  0  0
  138.0940   70.4350  223.0250 C   0  0  0  0  0  0  0  0  0  0  0  0
  137.9320   71.8400  223.0270 N   0  0  0  0  0  0  0  0  0  0  0  0
  137.3160   72.6080  221.9960 C   0  0  0  0  0  0  0  0  0  0  0  0
  136.4040   73.6600  222.4950 C   0  0  0  0  0  0  0  0  0  0  0  0
  135.2710   73.4260  222.9960 O   0  0  0  0  0  0  0  0  0  0  0  0
  136.8410   75.0150  222.3960 N   0  0  0  0  0  0  0  0  0  0  0  0
  136.4460   75.9560  223.4210 C   0  0  0  0  0  0  0  0  0  0  0  0
  136.2540   77.3490  222.9230 C   0  0  0  0  0  0  0  0  0  0  0  0
  136.2760   77.5820  221.4680 C   0  0  0  0  0  0  0  0  0  0  0  0
  136.8520   76.5280  220.5870 C   0  0  0  0  0  0  0  0  0  0  0  0
  137.6590   75.4890  221.3190 C   0  0  1  0  0  0  0  0  0  0  0  0
  138.9090   76.1250  221.7640 C   0  0  0  0  0  0  0  0  0  0  0  0
  140.1510   75.5390  221.9180 C   0  0  0  0  0  0  0  0  0  0  0  0
  141.0440   76.4590  222.3450 N   0  0  0  0  0  0  0  0  0  0  0  0
  140.3720   77.6180  222.4590 C   0  0  0  0  0  0  0  0  0  0  0  0
  140.9590   78.8680  222.8910 C   0  0  0  0  0  0  0  0  0  0  0  0
  142.2240   78.9540  223.4320 C   0  0  0  0  0  0  0  0  0  0  0  0
  142.7870   80.1430  223.8440 C   0  0  0  0  0  0  0  0  0  0  0  0
  142.0710   81.3370  223.7260 C   0  0  0  0  0  0  0  0  0  0  0  0
  140.8100   81.2570  223.1880 C   0  0  0  0  0  0  0  0  0  0  0  0
  140.2520   80.0630  222.7760 C   0  0  0  0  0  0  0  0  0  0  0  0
  139.1060   77.4240  222.1150 N   0  0  0  0  0  0  0  0  0  0  0  0
  138.7600   69.7980  224.1830 C   0  0  0  0  0  0  0  0  0  0  0  0
  138.8570   68.4460  224.3190 C   0  0  0  0  0  0  0  0  0  0  0  0
  139.4770   67.8300  225.3970 C   0  0  0  0  0  0  0  0  0  0  0  0
  140.0190   68.6450  226.3760 C   0  0  0  0  0  0  0  0  0  0  0  0
  140.6590   68.1610  227.4930 C   0  0  0  0  0  0  0  0  0  0  0  0
  141.1940   69.0120  228.4600 C   0  0  0  0  0  0  0  0  0  0  0  0
  141.0890   70.3880  228.3130 C   0  0  0  0  0  0  0  0  0  0  0  0
  140.4440   70.8790  227.1870 C   0  0  0  0  0  0  0  0  0  0  0  0
  139.9230   70.0160  226.2430 C   0  0  0  0  0  0  0  0  0  0  0  0
  139.3060   70.5670  225.1690 N   0  0  0  0  0  0  0  0  0  0  0  0
  138.3000   72.3750  223.8690 H   0  0  0  0  0  0  0  0  0  0  0  0
  138.1076   73.0889  221.4026 H   0  0  0  0  0  0  0  0  0  0  0  0
  136.7056   71.9124  221.4015 H   0  0  0  0  0  0  0  0  0  0  0  0
  135.4980   75.6117  223.8601 H   0  0  0  0  0  0  0  0  0  0  0  0
  137.2646   75.9900  224.1550 H   0  0  0  0  0  0  0  0  0  0  0  0
  135.2777   77.6951  223.2931 H   0  0  0  0  0  0  0  0  0  0  0  0
  137.1331   77.8938  223.2976 H   0  0  0  0  0  0  0  0  0  0  0  0
  135.2351   77.7387  221.1487 H   0  0  0  0  0  0  0  0  0  0  0  0
  136.9558   78.4378  221.3431 H   0  0  0  0  0  0  0  0  0  0  0  0
  136.0249   76.0210  220.0686 H   0  0  0  0  0  0  0  0  0  0  0  0
  137.5403   77.0345  219.8944 H   0  0  0  0  0  0  0  0  0  0  0  0
  137.9399   74.6248  220.6992 H   0  0  0  0  0  0  0  0  0  0  0  0
  140.3789   74.4808  221.7221 H   0  0  0  0  0  0  0  0  0  0  0  0
  142.0570   76.3120  222.5490 H   0  0  0  0  0  0  0  0  0  0  0  0
  142.8118   78.0305  223.5400 H   0  0  0  0  0  0  0  0  0  0  0  0
  143.8025   80.1518  224.2667 H   0  0  0  0  0  0  0  0  0  0  0  0
  142.4981   82.2977  224.0494 H   0  0  0  0  0  0  0  0  0  0  0  0
  140.2215   82.1802  223.0811 H   0  0  0  0  0  0  0  0  0  0  0  0
  139.2371   80.0552  222.3519 H   0  0  0  0  0  0  0  0  0  0  0  0
  138.4216   67.8100  223.5342 H   0  0  0  0  0  0  0  0  0  0  0  0
  139.5356   66.7341  225.4709 H   0  0  0  0  0  0  0  0  0  0  0  0
  140.7515   67.0732  227.6274 H   0  0  0  0  0  0  0  0  0  0  0  0
  141.7004   68.5914  229.3413 H   0  0  0  0  0  0  0  0  0  0  0  0
  141.5057   71.0705  229.0684 H   0  0  0  0  0  0  0  0  0  0  0  0
  140.3467   71.9654  227.0449 H   0  0  0  0  0  0  0  0  0  0  0  0
  1  2  2  0
  2  3  1  0
  3  4  1  0
  4  5  1  0
  5  6  2  0
  5  7  1  0
  7  8  1  0
  8  9  1  0
  9 10  1  0
 10 11  1  0
 11 12  1  0
 12 13  1  0
 13 14  2  0
 14 15  1  0
 15 16  1  0
 16 17  1  0
 17 18  2  0
 18 19  1  0
 19 20  2  0
 20 21  1  0
 21 22  2  0
 16 23  2  0
  2 24  1  0
 24 25  2  0
 25 26  1  0
 26 27  2  0
 27 28  1  0
 28 29  2  0
 29 30  1  0
 30 31  2  0
 31 32  1  0
 32 33  2  0
 12  7  1  0
 23 13  1  0
 33 24  1  0
 22 17  1  0
 32 27  1  0
  3 34  1  0
  4 35  1  0
  4 36  1  0
  8 37  1  0
  8 38  1  0
  9 39  1  0
  9 40  1  0
 10 41  1  0
 10 42  1  0
 11 43  1  0
 11 44  1  0
 12 45  1  6
 14 46  1  0
 15 47  1  0
 18 48  1  0
 19 49  1  0
 20 50  1  0
 21 51  1  0
 22 52  1  0
 25 53  1  0
 26 54  1  0
 28 55  1  0
 29 56  1  0
 30 57  1  0
 31 58  1  0
M  END
>  <smiles>  (47) 
O=C(NCC(=O)N1CCCC[C@H]1c1c[nH]c(-c2ccccc2)n1)c1ccc2ccccc2n1

>  <score_type>  (47) 
oracle

>  <origin>  (47) 
autodockgpu

>  <m_score__min__energy>  (47) 
-9.9100000000000001

>  <m_primary>  (47) 
energy

>  <rmsd>  (47) 
3.692634138323457

>  <m_score__min__rmsd>  (47) 
3.692634138323457

>  <meeko>  (47) 
{"free_energy": -9.5, "intermolecular_energy": -11.29, "internal_energy": -1.78, "cluster_size": 12, "cluster_id": 2, "rank_in_cluster": 2}

>  <energy>  (47) 
-6.57

>  <cluster_rmsd>  (47) 
1.5

>  <cluster>  (47) 
5

$$$$

     RDKit          3D

 58 62  0  0  0  0  0  0  0  0999 V2000
  140.9380   73.1400  221.8140 O   0  0  0  0  0  0  0  0  0  0  0  0
  139.9230   72.8710  222.4880 C   0  0  0  0  0  0  0  0  0  0  0  0
  138.7030   73.5230  222.1930 N   0  0  0  0  0  0  0  0  0  0  0  0
  138.5050   74.4920  221.1660 C   0  0  0  0  0  0  0  0  0  0  0  0
  138.5640   75.8920  221.6420 C   0  0  0  0  0  0  0  0  0  0  0  0
  137.5810   76.5060  222.1380 O   0  0  0  0  0  0  0  0  0  0  0  0
  139.8100   76.5770  221.5250 N   0  0  0  0  0  0  0  0  0  0  0  0
  140.6420   76.7250  222.7000 C   0  0  0  0  0  0  0  0  0  0  0  0
  141.4360   77.9870  222.7240 C   0  0  0  0  0  0  0  0  0  0  0  0
  141.1530   79.0140  221.7040 C   0  0  0  0  0  0  0  0  0  0  0  0
  140.3830   78.6190  220.4920 C   0  0  0  0  0  0  0  0  0  0  0  0
  140.2780   77.1310  220.2880 C   0  0  1  0  0  0  0  0  0  0  0  0
  141.6060   76.6390  219.8880 C   0  0  0  0  0  0  0  0  0  0  0  0
  142.4940   77.2210  219.0040 C   0  0  0  0  0  0  0  0  0  0  0  0
  143.6070   76.4630  218.9040 N   0  0  0  0  0  0  0  0  0  0  0  0
  143.4250   75.4090  219.7180 C   0  0  0  0  0  0  0  0  0  0  0  0
  144.3850   74.3430  219.9110 C   0  0  0  0  0  0  0  0  0  0  0  0
  144.3370   73.1580  219.2090 C   0  0  0  0  0  0  0  0  0  0  0  0
  145.2500   72.1400  219.3880 C   0  0  0  0  0  0  0  0  0  0  0  0
  146.2840   72.2810  220.3170 C   0  0  0  0  0  0  0  0  0  0  0  0
  146.3360   73.4590  221.0190 C   0  0  0  0  0  0  0  0  0  0  0  0
  145.4190   74.4750  220.8340 C   0  0  0  0  0  0  0  0  0  0  0  0
  142.2390   75.5100  220.3040 N   0  0  0  0  0  0  0  0  0  0  0  0
  139.9490   71.8870  223.5920 C   0  0  0  0  0  0  0  0  0  0  0  0
  139.4630   70.6210  223.4590 C   0  0  0  0  0  0  0  0  0  0  0  0
  139.4800   69.6850  224.4820 C   0  0  0  0  0  0  0  0  0  0  0  0
  140.0210   70.0730  225.6960 C   0  0  0  0  0  0  0  0  0  0  0  0
  140.0960   69.2410  226.7890 C   0  0  0  0  0  0  0  0  0  0  0  0
  140.6480   69.6650  227.9980 C   0  0  0  0  0  0  0  0  0  0  0  0
  141.1400   70.9560  228.1250 C   0  0  0  0  0  0  0  0  0  0  0  0
  141.0650   71.7970  227.0250 C   0  0  0  0  0  0  0  0  0  0  0  0
  140.5140   71.3540  225.8380 C   0  0  0  0  0  0  0  0  0  0  0  0
  140.4740   72.2310  224.8040 N   0  0  0  0  0  0  0  0  0  0  0  0
  137.8560   73.2720  222.7850 H   0  0  0  0  0  0  0  0  0  0  0  0
  139.2853   74.3525  220.4033 H   0  0  0  0  0  0  0  0  0  0  0  0
  137.4918   74.3328  220.7683 H   0  0  0  0  0  0  0  0  0  0  0  0
  139.9932   76.7073  223.5881 H   0  0  0  0  0  0  0  0  0  0  0  0
  141.3633   75.8946  222.6868 H   0  0  0  0  0  0  0  0  0  0  0  0
  141.2762   78.4530  223.7075 H   0  0  0  0  0  0  0  0  0  0  0  0
  142.4640   77.6635  222.5036 H   0  0  0  0  0  0  0  0  0  0  0  0
  140.5883   79.8172  222.1999 H   0  0  0  0  0  0  0  0  0  0  0  0
  142.1449   79.2877  221.3153 H   0  0  0  0  0  0  0  0  0  0  0  0
  139.3657   79.0281  220.5806 H   0  0  0  0  0  0  0  0  0  0  0  0
  140.9285   79.0202  219.6251 H   0  0  0  0  0  0  0  0  0  0  0  0
  139.5734   76.8390  219.4954 H   0  0  0  0  0  0  0  0  0  0  0  0
  142.3201   78.1623  218.4620 H   0  0  0  0  0  0  0  0  0  0  0  0
  144.4490   76.6470  218.3140 H   0  0  0  0  0  0  0  0  0  0  0  0
  143.5330   73.0176  218.4715 H   0  0  0  0  0  0  0  0  0  0  0  0
  145.1640   71.2154  218.7983 H   0  0  0  0  0  0  0  0  0  0  0  0
  147.0237   71.4830  220.4786 H   0  0  0  0  0  0  0  0  0  0  0  0
  147.1390   73.5994  221.7575 H   0  0  0  0  0  0  0  0  0  0  0  0
  145.5066   75.3998  221.4231 H   0  0  0  0  0  0  0  0  0  0  0  0
  139.0348   70.3261  222.4896 H   0  0  0  0  0  0  0  0  0  0  0  0
  139.0785   68.6716  224.3344 H   0  0  0  0  0  0  0  0  0  0  0  0
  139.7104   68.2140  226.7075 H   0  0  0  0  0  0  0  0  0  0  0  0
  140.6933   68.9741  228.8527 H   0  0  0  0  0  0  0  0  0  0  0  0
  141.5777   71.3030  229.0726 H   0  0  0  0  0  0  0  0  0  0  0  0
  141.4475   72.8258  227.0981 H   0  0  0  0  0  0  0  0  0  0  0  0
  1  2  2  0
  2  3  1  0
  3  4  1  0
  4  5  1  0
  5  6  2  0
  5  7  1  0
  7  8  1  0
  8  9  1  0
  9 10  1  0
 10 11  1  0
 11 12  1  0
 12 13  1  0
 13 14  2  0
 14 15  1  0
 15 16  1  0
 16 17  1  0
 17 18  2  0
 18 19  1  0
 19 20  2  0
 20 21  1  0
 21 22  2  0
 16 23  2  0
  2 24  1  0
 24 25  2  0
 25 26  1  0
 26 27  2  0
 27 28  1  0
 28 29  2  0
 29 30  1  0
 30 31  2  0
 31 32  1  0
 32 33  2  0
 12  7  1  0
 23 13  1  0
 33 24  1  0
 22 17  1  0
 32 27  1  0
  3 34  1  0
  4 35  1  0
  4 36  1  0
  8 37  1  0
  8 38  1  0
  9 39  1  0
  9 40  1  0
 10 41  1  0
 10 42  1  0
 11 43  1  0
 11 44  1  0
 12 45  1  6
 14 46  1  0
 15 47  1  0
 18 48  1  0
 19 49  1  0
 20 50  1  0
 21 51  1  0
 22 52  1  0
 25 53  1  0
 26 54  1  0
 28 55  1  0
 29 56  1  0
 30 57  1  0
 31 58  1  0
M  END
>  <smiles>  (48) 
O=C(NCC(=O)N1CCCC[C@H]1c1c[nH]c(-c2ccccc2)n1)c1ccc2ccccc2n1

>  <score_type>  (48) 
oracle

>  <origin>  (48) 
autodockgpu

>  <m_score__min__energy>  (48) 
-9.9100000000000001

>  <m_primary>  (48) 
energy

>  <rmsd>  (48) 
5.3390746915628995

>  <m_score__min__rmsd>  (48) 
5.3390746915628995

>  <meeko>  (48) 
{"free_energy": -9.55, "intermolecular_energy": -11.34, "internal_energy": -1.97, "cluster_size": 10, "cluster_id": 1, "rank_in_cluster": 7}

>  <energy>  (48) 
-6.52

>  <cluster_rmsd>  (48) 
1.56

>  <cluster>  (48) 
5

$$$$

     RDKit          3D

 58 62  0  0  0  0  0  0  0  0999 V2000
  140.9860   73.0920  222.0770 O   0  0  0  0  0  0  0  0  0  0  0  0
  139.9320   72.7590  222.6590 C   0  0  0  0  0  0  0  0  0  0  0  0
  138.7240   73.4170  222.3310 N   0  0  0  0  0  0  0  0  0  0  0  0
  138.5780   74.4590  221.3690 C   0  0  0  0  0  0  0  0  0  0  0  0
  138.6920   75.8210  221.9360 C   0  0  0  0  0  0  0  0  0  0  0  0
  137.8120   76.3530  222.6660 O   0  0  0  0  0  0  0  0  0  0  0  0
  139.8690   76.5680  221.6310 N   0  0  0  0  0  0  0  0  0  0  0  0
  140.7460   76.9680  222.7100 C   0  0  0  0  0  0  0  0  0  0  0  0
  141.4330   78.2710  222.4810 C   0  0  0  0  0  0  0  0  0  0  0  0
  141.0130   79.0920  221.3300 C   0  0  0  0  0  0  0  0  0  0  0  0
  140.2170   78.4470  220.2490 C   0  0  0  0  0  0  0  0  0  0  0  0
  140.2250   76.9420  220.2940 C   0  0  1  0  0  0  0  0  0  0  0  0
  141.5670   76.4900  219.8920 C   0  0  0  0  0  0  0  0  0  0  0  0
  142.4560   77.1230  219.0450 C   0  0  0  0  0  0  0  0  0  0  0  0
  143.5840   76.3870  218.9300 N   0  0  0  0  0  0  0  0  0  0  0  0
  143.4090   75.2980  219.6990 C   0  0  0  0  0  0  0  0  0  0  0  0
  144.3850   74.2420  219.8610 C   0  0  0  0  0  0  0  0  0  0  0  0
  144.4010   73.1110  219.0740 C   0  0  0  0  0  0  0  0  0  0  0  0
  145.3290   72.1020  219.2240 C   0  0  0  0  0  0  0  0  0  0  0  0
  146.3130   72.1960  220.2110 C   0  0  0  0  0  0  0  0  0  0  0  0
  146.3020   73.3210  220.9980 C   0  0  0  0  0  0  0  0  0  0  0  0
  145.3690   74.3280  220.8420 C   0  0  0  0  0  0  0  0  0  0  0  0
  142.2140   75.3550  220.2710 N   0  0  0  0  0  0  0  0  0  0  0  0
  139.9020   71.6950  223.6860 C   0  0  0  0  0  0  0  0  0  0  0  0
  139.3220   70.4820  223.4670 C   0  0  0  0  0  0  0  0  0  0  0  0
  139.2840   69.4720  224.4170 C   0  0  0  0  0  0  0  0  0  0  0  0
  139.8680   69.7250  225.6460 C   0  0  0  0  0  0  0  0  0  0  0  0
  139.8980   68.8090  226.6720 C   0  0  0  0  0  0  0  0  0  0  0  0
  140.4960   69.0990  227.8980 C   0  0  0  0  0  0  0  0  0  0  0  0
  141.0830   70.3380  228.1120 C   0  0  0  0  0  0  0  0  0  0  0  0
  141.0550   71.2630  227.0800 C   0  0  0  0  0  0  0  0  0  0  0  0
  140.4560   70.9530  225.8740 C   0  0  0  0  0  0  0  0  0  0  0  0
  140.4670   71.9060  224.9100 N   0  0  0  0  0  0  0  0  0  0  0  0
  137.8440   73.1120  222.8440 H   0  0  0  0  0  0  0  0  0  0  0  0
  139.3592   74.3360  220.6044 H   0  0  0  0  0  0  0  0  0  0  0  0
  137.5628   74.3703  220.9549 H   0  0  0  0  0  0  0  0  0  0  0  0
  140.1482   77.0490  223.6298 H   0  0  0  0  0  0  0  0  0  0  0  0
  141.5321   76.2019  222.7821 H   0  0  0  0  0  0  0  0  0  0  0  0
  141.2862   78.8796  223.3855 H   0  0  0  0  0  0  0  0  0  0  0  0
  142.4718   77.9924  222.2500 H   0  0  0  0  0  0  0  0  0  0  0  0
  140.4096   79.9220  221.7263 H   0  0  0  0  0  0  0  0  0  0  0  0
  141.9573   79.3702  220.8392 H   0  0  0  0  0  0  0  0  0  0  0  0
  139.1753   78.7896  220.3357 H   0  0  0  0  0  0  0  0  0  0  0  0
  140.6822   78.7383  219.2957 H   0  0  0  0  0  0  0  0  0  0  0  0
  139.5069   76.4710  219.6066 H   0  0  0  0  0  0  0  0  0  0  0  0
  142.2732   78.0828  218.5396 H   0  0  0  0  0  0  0  0  0  0  0  0
  144.4300   76.6100  218.3610 H   0  0  0  0  0  0  0  0  0  0  0  0
  143.6374   73.0081  218.2889 H   0  0  0  0  0  0  0  0  0  0  0  0
  145.2943   71.2217  218.5653 H   0  0  0  0  0  0  0  0  0  0  0  0
  147.0633   71.4040  220.3515 H   0  0  0  0  0  0  0  0  0  0  0  0
  147.0655   73.4246  221.7831 H   0  0  0  0  0  0  0  0  0  0  0  0
  145.4041   75.2082  221.5008 H   0  0  0  0  0  0  0  0  0  0  0  0
  138.8602   70.2938  222.4865 H   0  0  0  0  0  0  0  0  0  0  0  0
  138.8068   68.5047  224.2013 H   0  0  0  0  0  0  0  0  0  0  0  0
  139.4379   67.8213  226.5213 H   0  0  0  0  0  0  0  0  0  0  0  0
  140.5024   68.3435  228.6975 H   0  0  0  0  0  0  0  0  0  0  0  0
  141.5576   70.5796  229.0745 H   0  0  0  0  0  0  0  0  0  0  0  0
  141.5137   72.2526  227.2224 H   0  0  0  0  0  0  0  0  0  0  0  0
  1  2  2  0
  2  3  1  0
  3  4  1  0
  4  5  1  0
  5  6  2  0
  5  7  1  0
  7  8  1  0
  8  9  1  0
  9 10  1  0
 10 11  1  0
 11 12  1  0
 12 13  1  0
 13 14  2  0
 14 15  1  0
 15 16  1  0
 16 17  1  0
 17 18  2  0
 18 19  1  0
 19 20  2  0
 20 21  1  0
 21 22  2  0
 16 23  2  0
  2 24  1  0
 24 25  2  0
 25 26  1  0
 26 27  2  0
 27 28  1  0
 28 29  2  0
 29 30  1  0
 30 31  2  0
 31 32  1  0
 32 33  2  0
 12  7  1  0
 23 13  1  0
 33 24  1  0
 22 17  1  0
 32 27  1  0
  3 34  1  0
  4 35  1  0
  4 36  1  0
  8 37  1  0
  8 38  1  0
  9 39  1  0
  9 40  1  0
 10 41  1  0
 10 42  1  0
 11 43  1  0
 11 44  1  0
 12 45  1  6
 14 46  1  0
 15 47  1  0
 18 48  1  0
 19 49  1  0
 20 50  1  0
 21 51  1  0
 22 52  1  0
 25 53  1  0
 26 54  1  0
 28 55  1  0
 29 56  1  0
 30 57  1  0
 31 58  1  0
M  END
>  <smiles>  (49) 
O=C(NCC(=O)N1CCCC[C@H]1c1c[nH]c(-c2ccccc2)n1)c1ccc2ccccc2n1

>  <score_type>  (49) 
oracle

>  <origin>  (49) 
autodockgpu

>  <m_score__min__energy>  (49) 
-9.9100000000000001

>  <m_primary>  (49) 
energy

>  <rmsd>  (49) 
5.362571772093468

>  <m_score__min__rmsd>  (49) 
5.362571772093468

>  <meeko>  (49) 
{"free_energy": -9.89, "intermolecular_energy": -11.68, "internal_energy": -1.88, "cluster_size": 10, "cluster_id": 1, "rank_in_cluster": 3}

>  <energy>  (49) 
-6.44

>  <cluster_rmsd>  (49) 
1.72

>  <cluster>  (49) 
5

$$$$

     RDKit          3D

 58 62  0  0  0  0  0  0  0  0999 V2000
  137.2920   75.8640  222.7500 O   0  0  0  0  0  0  0  0  0  0  0  0
  138.4930   76.1200  222.5250 C   0  0  0  0  0  0  0  0  0  0  0  0
  139.3500   75.0870  222.0800 N   0  0  0  0  0  0  0  0  0  0  0  0
  138.9700   73.7320  221.8530 C   0  0  0  0  0  0  0  0  0  0  0  0
  140.0910   72.8530  221.4520 C   0  0  0  0  0  0  0  0  0  0  0  0
  140.2680   71.6910  221.9070 O   0  0  0  0  0  0  0  0  0  0  0  0
  141.0190   73.3610  220.4950 N   0  0  0  0  0  0  0  0  0  0  0  0
  140.6950   73.2760  219.0880 C   0  0  0  0  0  0  0  0  0  0  0  0
  141.8800   73.0880  218.2040 C   0  0  0  0  0  0  0  0  0  0  0  0
  143.1850   72.8070  218.8300 C   0  0  0  0  0  0  0  0  0  0  0  0
  143.3530   73.0910  220.2830 C   0  0  0  0  0  0  0  0  0  0  0  0
  142.2690   73.9560  220.8680 C   0  0  1  0  0  0  0  0  0  0  0  0
  142.4530   75.3190  220.3450 C   0  0  0  0  0  0  0  0  0  0  0  0
  143.5640   75.8420  219.7110 C   0  0  0  0  0  0  0  0  0  0  0  0
  143.3400   77.1320  219.3790 N   0  0  0  0  0  0  0  0  0  0  0  0
  142.0970   77.4240  219.7990 C   0  0  0  0  0  0  0  0  0  0  0  0
  141.4580   78.7120  219.6410 C   0  0  0  0  0  0  0  0  0  0  0  0
  142.1650   79.8870  219.5080 C   0  0  0  0  0  0  0  0  0  0  0  0
  141.5600   81.1170  219.3560 C   0  0  0  0  0  0  0  0  0  0  0  0
  140.1670   81.2150  219.3340 C   0  0  0  0  0  0  0  0  0  0  0  0
  139.4570   80.0480  219.4670 C   0  0  0  0  0  0  0  0  0  0  0  0
  140.0690   78.8190  219.6180 C   0  0  0  0  0  0  0  0  0  0  0  0
  141.5670   76.3510  220.3730 N   0  0  0  0  0  0  0  0  0  0  0  0
  139.0570   77.4760  222.7080 C   0  0  0  0  0  0  0  0  0  0  0  0
  138.2740   78.5860  222.8210 C   0  0  0  0  0  0  0  0  0  0  0  0
  138.7840   79.8640  222.9940 C   0  0  0  0  0  0  0  0  0  0  0  0
  140.1600   80.0030  223.0520 C   0  0  0  0  0  0  0  0  0  0  0  0
  140.7900   81.2140  223.2200 C   0  0  0  0  0  0  0  0  0  0  0  0
  142.1800   81.3180  223.2740 C   0  0  0  0  0  0  0  0  0  0  0  0
  142.9690   80.1820  223.1580 C   0  0  0  0  0  0  0  0  0  0  0  0
  142.3360   78.9600  222.9890 C   0  0  0  0  0  0  0  0  0  0  0  0
  140.9570   78.8830  222.9380 C   0  0  0  0  0  0  0  0  0  0  0  0
  140.4080   77.6550  222.7710 N   0  0  0  0  0  0  0  0  0  0  0  0
  140.3670   75.3370  221.8970 H   0  0  0  0  0  0  0  0  0  0  0  0
  138.5336   73.3347  222.7813 H   0  0  0  0  0  0  0  0  0  0  0  0
  138.2543   73.7372  221.0177 H   0  0  0  0  0  0  0  0  0  0  0  0
  140.0146   72.4243  218.9404 H   0  0  0  0  0  0  0  0  0  0  0  0
  140.2378   74.2365  218.8078 H   0  0  0  0  0  0  0  0  0  0  0  0
  141.6540   72.2470  217.5319 H   0  0  0  0  0  0  0  0  0  0  0  0
  142.0165   74.0679  217.7232 H   0  0  0  0  0  0  0  0  0  0  0  0
  143.3921   71.7368  218.6824 H   0  0  0  0  0  0  0  0  0  0  0  0
  143.8759   73.5070  218.3374 H   0  0  0  0  0  0  0  0  0  0  0  0
  143.3606   72.1332  220.8239 H   0  0  0  0  0  0  0  0  0  0  0  0
  144.2961   73.6467  220.3913 H   0  0  0  0  0  0  0  0  0  0  0  0
  142.2981   74.0253  221.9654 H   0  0  0  0  0  0  0  0  0  0  0  0
  144.4931   75.2896  219.5069 H   0  0  0  0  0  0  0  0  0  0  0  0
  143.9950   77.7840  218.8930 H   0  0  0  0  0  0  0  0  0  0  0  0
  143.2640   79.8420  219.5238 H   0  0  0  0  0  0  0  0  0  0  0  0
  142.1757   82.0225  219.2519 H   0  0  0  0  0  0  0  0  0  0  0  0
  139.6613   82.1846  219.2153 H   0  0  0  0  0  0  0  0  0  0  0  0
  138.3580   80.0932  219.4528 H   0  0  0  0  0  0  0  0  0  0  0  0
  139.4524   77.9139  219.7213 H   0  0  0  0  0  0  0  0  0  0  0  0
  137.1821   78.4618  222.7725 H   0  0  0  0  0  0  0  0  0  0  0  0
  138.1190   80.7358  223.0820 H   0  0  0  0  0  0  0  0  0  0  0  0
  140.1812   82.1253  223.3143 H   0  0  0  0  0  0  0  0  0  0  0  0
  142.6518   82.3025  223.4088 H   0  0  0  0  0  0  0  0  0  0  0  0
  144.0662   80.2493  223.1990 H   0  0  0  0  0  0  0  0  0  0  0  0
  142.9369   78.0434  222.8946 H   0  0  0  0  0  0  0  0  0  0  0  0
  1  2  2  0
  2  3  1  0
  3  4  1  0
  4  5  1  0
  5  6  2  0
  5  7  1  0
  7  8  1  0
  8  9  1  0
  9 10  1  0
 10 11  1  0
 11 12  1  0
 12 13  1  0
 13 14  2  0
 14 15  1  0
 15 16  1  0
 16 17  1  0
 17 18  2  0
 18 19  1  0
 19 20  2  0
 20 21  1  0
 21 22  2  0
 16 23  2  0
  2 24  1  0
 24 25  2  0
 25 26  1  0
 26 27  2  0
 27 28  1  0
 28 29  2  0
 29 30  1  0
 30 31  2  0
 31 32  1  0
 32 33  2  0
 12  7  1  0
 23 13  1  0
 33 24  1  0
 22 17  1  0
 32 27  1  0
  3 34  1  0
  4 35  1  0
  4 36  1  0
  8 37  1  0
  8 38  1  0
  9 39  1  0
  9 40  1  0
 10 41  1  0
 10 42  1  0
 11 43  1  0
 11 44  1  0
 12 45  1  1
 14 46  1  0
 15 47  1  0
 18 48  1  0
 19 49  1  0
 20 50  1  0
 21 51  1  0
 22 52  1  0
 25 53  1  0
 26 54  1  0
 28 55  1  0
 29 56  1  0
 30 57  1  0
 31 58  1  0
M  END
>  <smiles>  (50) 
O=C(NCC(=O)N1CCCC[C@H]1c1c[nH]c(-c2ccccc2)n1)c1ccc2ccccc2n1

>  <score_type>  (50) 
oracle

>  <origin>  (50) 
autodockgpu

>  <m_score__min__energy>  (50) 
-9.9100000000000001

>  <m_primary>  (50) 
energy

>  <rmsd>  (50) 
6.67962137652596

>  <m_score__min__rmsd>  (50) 
6.67962137652596

>  <meeko>  (50) 
{"free_energy": -6.62, "intermolecular_energy": -8.41, "internal_energy": -4.57, "cluster_size": 22, "cluster_id": 5, "rank_in_cluster": 8}

>  <energy>  (50) 
-6.57

>  <cluster_rmsd>  (50) 
0.0

>  <cluster>  (50) 
6

$$$$
