@<TRIPOS>MOLECULE
*****
 72 77 0 0 0
SMALL
GASTEIGER

@<TRIPOS>ATOM
      1 O         139.7230   73.3770  217.2270 O.2     1  UNL1       -0.2685
      2 C         139.8860   74.4740  217.8150 C.2     1  UNL1        0.2626
      3 N         140.0990   75.7100  217.1550 N.am    1  UNL1       -0.3101
      4 C         140.1490   75.8270  215.6900 C.3     1  UNL1        0.0123
      5 C         141.3950   76.5670  215.2750 C.3     1  UNL1       -0.0329
      6 C         142.6720   75.9360  215.7260 C.3     1  UNL1       -0.0200
      7 C         142.9490   76.0750  217.0930 C.ar    1  UNL1       -0.0102
      8 C         142.9600   77.0460  218.0830 C.ar    1  UNL1       -0.0515
      9 C         143.2660   76.7590  219.3300 C.ar    1  UNL1       -0.0545
     10 C         143.5900   75.3880  219.6250 C.ar    1  UNL1       -0.0241
     11 S         143.4240   74.5520  218.0050 S.2     1  UNL1       -0.1016
     12 C         139.8540   74.4760  219.2930 C.ar    1  UNL1        0.1322
     13 C         139.6650   73.2980  220.0050 C.ar    1  UNL1        0.0090
     14 C         139.6280   73.2620  221.3820 C.ar    1  UNL1        0.1272
     15 N         139.4400   72.0800  222.1360 N.pl3   1  UNL1       -0.3120
     16 C         138.1870   71.5560  222.5670 C.3     1  UNL1        0.0293
     17 C         138.2250   71.1850  224.0090 C.3     1  UNL1        0.0293
     18 N         139.5110   70.9390  224.5700 N.pl3   1  UNL1       -0.3122
     19 C         139.6570   70.0970  225.7330 C.ar    1  UNL1        0.1213
     20 C         139.4790   68.7290  225.6670 C.ar    1  UNL1       -0.0217
     21 C         139.6190   67.9060  226.7770 C.ar    1  UNL1       -0.0571
     22 C         139.9490   68.4820  227.9890 C.ar    1  UNL1       -0.0435
     23 C         140.1180   69.8510  228.0160 C.ar    1  UNL1        0.0297
     24 N         139.9760   70.6030  226.9360 N.ar    1  UNL1       -0.2403
     25 C         140.7320   71.5060  224.0300 C.3     1  UNL1        0.0293
     26 C         140.6430   71.3190  222.5150 C.3     1  UNL1        0.0293
     27 N         139.7900   74.4600  222.0050 N.ar    1  UNL1       -0.1993
     28 C         139.9740   75.6080  221.3290 C.ar    1  UNL1        0.2205
     29 N         140.1370   76.8410  222.0060 N.pl3   1  UNL1       -0.2949
     30 C         139.0210   77.4930  222.6790 C.3     1  UNL1        0.0192
     31 C         138.9880   78.9150  222.1050 C.3     1  UNL1       -0.0115
     32 C         140.2090   79.5760  222.6850 C.ar    1  UNL1       -0.0412
     33 C         140.1560   80.8410  223.2330 C.ar    1  UNL1       -0.0582
     34 C         141.3150   81.3950  223.7500 C.ar    1  UNL1       -0.0615
     35 C         142.4840   80.6550  223.6970 C.ar    1  UNL1       -0.0614
     36 C         142.5430   79.3910  223.1500 C.ar    1  UNL1       -0.0568
     37 C         141.3710   78.8360  222.6290 C.ar    1  UNL1       -0.0269
     38 C         141.4310   77.4720  222.0370 C.3     1  UNL1        0.0402
     39 N         140.0040   75.6040  219.9850 N.ar    1  UNL1       -0.2096
     40 H         140.2260   76.5810  217.7520 H       1  UNL1        0.1490
     41 H         140.1568   74.8214  215.2442 H       1  UNL1        0.0462
     42 H         139.2658   76.3824  215.3414 H       1  UNL1        0.0462
     43 H         141.4100   76.6248  214.1766 H       1  UNL1        0.0284
     44 H         141.3471   77.5540  215.7582 H       1  UNL1        0.0284
     45 H         142.6224   74.8617  215.4950 H       1  UNL1        0.0319
     46 H         143.4795   76.4594  215.1931 H       1  UNL1        0.0319
     47 H         142.7063   78.0832  217.8188 H       1  UNL1        0.0626
     48 H         143.2739   77.5323  220.1122 H       1  UNL1        0.0623
     49 H         143.8705   74.9476  220.5932 H       1  UNL1        0.0693
     50 H         139.5400   72.3577  219.4480 H       1  UNL1        0.0675
     51 H         137.4078   72.3170  222.4128 H       1  UNL1        0.0480
     52 H         137.9677   70.6516  221.9806 H       1  UNL1        0.0480
     53 H         137.7644   72.0065  224.5773 H       1  UNL1        0.0480
     54 H         137.6907   70.2258  224.0762 H       1  UNL1        0.0480
     55 H         139.2168   68.2747  224.7001 H       1  UNL1        0.0652
     56 H         139.4704   66.8193  226.6932 H       1  UNL1        0.0619
     57 H         140.0721   67.8729  228.8966 H       1  UNL1        0.0633
     58 H         140.3800   70.3346  228.9686 H       1  UNL1        0.0830
     59 H         140.8017   72.5748  224.2807 H       1  UNL1        0.0480
     60 H         141.6247   71.0168  224.4468 H       1  UNL1        0.0480
     61 H         141.5361   71.7247  222.0171 H       1  UNL1        0.0480
     62 H         140.5869   70.2608  222.2200 H       1  UNL1        0.0480
     63 H         138.0791   76.9672  222.4638 H       1  UNL1        0.0468
     64 H         139.1397   77.4913  223.7726 H       1  UNL1        0.0468
     65 H         139.0408   78.8935  221.0065 H       1  UNL1        0.0328
     66 H         138.0601   79.4494  222.3567 H       1  UNL1        0.0328
     67 H         139.2090   81.4001  223.2588 H       1  UNL1        0.0620
     68 H         141.3071   82.4016  224.1934 H       1  UNL1        0.0618
     69 H         143.4046   81.0942  224.1088 H       1  UNL1        0.0618
     70 H         143.4903   78.8324  223.1242 H       1  UNL1        0.0621
     71 H         141.8142   77.5475  221.0087 H       1  UNL1        0.0514
     72 H         142.0940   76.8579  222.6641 H       1  UNL1        0.0514
@<TRIPOS>BOND
     1     1     2    2
     2     2     3   am
     3     3     4    1
     4     4     5    1
     5     5     6    1
     6     6     7    1
     7     7     8   ar
     8     8     9   ar
     9     9    10   ar
    10    10    11   ar
    11     2    12    1
    12    12    13   ar
    13    13    14   ar
    14    14    15    1
    15    15    16    1
    16    16    17    1
    17    17    18    1
    18    18    19    1
    19    19    20   ar
    20    20    21   ar
    21    21    22   ar
    22    22    23   ar
    23    23    24   ar
    24    18    25    1
    25    25    26    1
    26    14    27   ar
    27    27    28   ar
    28    28    29    1
    29    29    30    1
    30    30    31    1
    31    31    32    1
    32    32    33   ar
    33    33    34   ar
    34    34    35   ar
    35    35    36   ar
    36    36    37   ar
    37    37    38    1
    38    28    39   ar
    39    11     7   ar
    40    39    12   ar
    41    26    15    1
    42    38    29    1
    43    24    19   ar
    44    37    32   ar
    45     3    40    1
    46     4    41    1
    47     4    42    1
    48     5    43    1
    49     5    44    1
    50     6    45    1
    51     6    46    1
    52     8    47    1
    53     9    48    1
    54    10    49    1
    55    13    50    1
    56    16    51    1
    57    16    52    1
    58    17    53    1
    59    17    54    1
    60    20    55    1
    61    21    56    1
    62    22    57    1
    63    23    58    1
    64    25    59    1
    65    25    60    1
    66    26    61    1
    67    26    62    1
    68    30    63    1
    69    30    64    1
    70    31    65    1
    71    31    66    1
    72    33    67    1
    73    34    68    1
    74    35    69    1
    75    36    70    1
    76    38    71    1
    77    38    72    1
