
     RDKit          3D

 63 67  0  0  0  0  0  0  0  0999 V2000
  141.3170   72.1890  221.4660 O   0  0  0  0  0  0  0  0  0  0  0  0
  140.3670   72.4130  222.2800 C   0  0  0  0  0  0  0  0  0  0  0  0
  139.4650   73.5070  222.1150 N   0  0  0  0  0  0  0  0  0  0  0  0
  139.5720   74.4030  221.0230 C   0  0  0  0  0  0  0  0  0  0  0  0
  140.7580   75.2270  220.8720 C   0  0  0  0  0  0  0  0  0  0  0  0
  141.4330   75.3900  221.9780 O   0  0  0  0  0  0  0  0  0  0  0  0
  141.2660   75.8690  219.7180 N   0  0  0  0  0  0  0  0  0  0  0  0
  140.8930   75.7380  218.3180 C   0  0  0  0  0  0  0  0  0  0  0  0
  141.3010   77.1130  217.7280 C   0  0  2  0  0  0  0  0  0  0  0  0
  141.3780   77.0680  216.3510 O   0  0  0  0  0  0  0  0  0  0  0  0
  142.6560   77.2270  218.4080 C   0  0  0  0  0  0  0  0  0  0  0  0
  142.3540   76.8570  219.8240 C   0  0  1  0  0  0  0  0  0  0  0  0
  141.9110   78.0950  220.5150 C   0  0  0  0  0  0  0  0  0  0  0  0
  141.7220   79.1100  219.8080 O   0  0  0  0  0  0  0  0  0  0  0  0
  141.6910   78.1990  221.9010 N   0  0  0  0  0  0  0  0  0  0  0  0
  141.2660   79.4610  222.4400 C   0  0  1  0  0  0  0  0  0  0  0  0
  139.9160   79.9750  221.9550 C   0  0  0  0  0  0  0  0  0  0  0  0
  139.7570   80.5650  223.3430 C   0  0  1  0  0  0  0  0  0  0  0  0
  138.3970   80.5520  223.8910 C   0  0  0  0  0  0  0  0  0  0  0  0
  138.0860   81.2970  225.0340 C   0  0  0  0  0  0  0  0  0  0  0  0
  136.7950   81.2670  225.5220 C   0  0  0  0  0  0  0  0  0  0  0  0
  135.8240   80.5130  224.8970 C   0  0  0  0  0  0  0  0  0  0  0  0
  136.1020   79.7610  223.7600 C   0  0  0  0  0  0  0  0  0  0  0  0
  137.3990   79.8110  223.2930 C   0  0  0  0  0  0  0  0  0  0  0  0
  140.6330   79.3990  223.8250 C   0  0  0  0  0  0  0  0  0  0  0  0
  140.1830   71.5190  223.4390 C   0  0  0  0  0  0  0  0  0  0  0  0
  139.5420   70.3160  223.3320 C   0  0  0  0  0  0  0  0  0  0  0  0
  139.3650   69.4670  224.4200 C   0  0  0  0  0  0  0  0  0  0  0  0
  139.8540   69.8460  225.6530 C   0  0  0  0  0  0  0  0  0  0  0  0
  139.6870   69.0080  226.7490 C   0  0  0  0  0  0  0  0  0  0  0  0
  140.1870   69.4120  227.9710 C   0  0  0  0  0  0  0  0  0  0  0  0
  140.0630   68.6540  229.0840 F   0  0  0  0  0  0  0  0  0  0  0  0
  140.8380   70.6370  228.0720 C   0  0  0  0  0  0  0  0  0  0  0  0
  140.9860   71.4360  226.9800 C   0  0  0  0  0  0  0  0  0  0  0  0
  140.5000   71.0630  225.7450 C   0  0  0  0  0  0  0  0  0  0  0  0
  140.6490   71.8580  224.6630 N   0  0  0  0  0  0  0  0  0  0  0  0
  138.6970   73.6410  222.8370 H   0  0  0  0  0  0  0  0  0  0  0  0
  139.4865   73.7991  220.1075 H   0  0  0  0  0  0  0  0  0  0  0  0
  138.7778   75.1379  221.2209 H   0  0  0  0  0  0  0  0  0  0  0  0
  141.4460   74.9190  217.8349 H   0  0  0  0  0  0  0  0  0  0  0  0
  139.8301   75.4967  218.1696 H   0  0  0  0  0  0  0  0  0  0  0  0
  140.6169   77.9574  217.8982 H   0  0  0  0  0  0  0  0  0  0  0  0
  142.2430   77.5150  216.1150 H   0  0  0  0  0  0  0  0  0  0  0  0
  143.3814   76.5298  217.9633 H   0  0  0  0  0  0  0  0  0  0  0  0
  143.1086   78.2246  218.3078 H   0  0  0  0  0  0  0  0  0  0  0  0
  143.2019   76.4399  220.3872 H   0  0  0  0  0  0  0  0  0  0  0  0
  141.8360   77.3730  222.5130 H   0  0  0  0  0  0  0  0  0  0  0  0
  142.2022   80.0027  222.2396 H   0  0  0  0  0  0  0  0  0  0  0  0
  139.1871   79.1926  221.6972 H   0  0  0  0  0  0  0  0  0  0  0  0
  139.8077   80.5781  221.0414 H   0  0  0  0  0  0  0  0  0  0  0  0
  139.9872   81.6204  223.5507 H   0  0  0  0  0  0  0  0  0  0  0  0
  138.8587   81.8976  225.5362 H   0  0  0  0  0  0  0  0  0  0  0  0
  136.5382   81.8504  226.4185 H   0  0  0  0  0  0  0  0  0  0  0  0
  134.8037   80.5060  225.3080 H   0  0  0  0  0  0  0  0  0  0  0  0
  135.3290   79.1588  223.2602 H   0  0  0  0  0  0  0  0  0  0  0  0
  137.6512   79.2282  222.3948 H   0  0  0  0  0  0  0  0  0  0  0  0
  140.0899   78.4689  224.0485 H   0  0  0  0  0  0  0  0  0  0  0  0
  141.2231   79.4406  224.7524 H   0  0  0  0  0  0  0  0  0  0  0  0
  139.1522   70.0083  222.3505 H   0  0  0  0  0  0  0  0  0  0  0  0
  138.8423   68.5068  224.2987 H   0  0  0  0  0  0  0  0  0  0  0  0
  139.1678   68.0438  226.6452 H   0  0  0  0  0  0  0  0  0  0  0  0
  141.2371   70.9632  229.0438 H   0  0  0  0  0  0  0  0  0  0  0  0
  141.5047   72.4003  227.0852 H   0  0  0  0  0  0  0  0  0  0  0  0
  1  2  2  0
  2  3  1  0
  3  4  1  0
  4  5  1  0
  5  6  2  0
  5  7  1  0
  7  8  1  0
  8  9  1  0
  9 10  1  0
  9 11  1  0
 11 12  1  0
 12 13  1  0
 13 14  2  0
 13 15  1  0
 15 16  1  0
 16 17  1  0
 17 18  1  0
 18 19  1  0
 19 20  2  0
 20 21  1  0
 21 22  2  0
 22 23  1  0
 23 24  2  0
 18 25  1  0
  2 26  1  0
 26 27  2  0
 27 28  1  0
 28 29  2  0
 29 30  1  0
 30 31  2  0
 31 32  1  0
 31 33  1  0
 33 34  2  0
 34 35  1  0
 35 36  2  0
 12  7  1  0
 25 16  1  0
 36 26  1  0
 24 19  1  0
 35 29  1  0
  3 37  1  0
  4 38  1  0
  4 39  1  0
  8 40  1  0
  8 41  1  0
  9 42  1  6
 10 43  1  0
 11 44  1  0
 11 45  1  0
 12 46  1  1
 15 47  1  0
 16 48  1  1
 17 49  1  0
 17 50  1  0
 18 51  1  6
 20 52  1  0
 21 53  1  0
 22 54  1  0
 23 55  1  0
 24 56  1  0
 25 57  1  0
 25 58  1  0
 27 59  1  0
 28 60  1  0
 30 61  1  0
 33 62  1  0
 34 63  1  0
M  END
