
     RDKit          3D

 77 83  0  0  0  0  0  0  0  0999 V2000
  145.9050   67.9700  219.1070 C   0  0  0  0  0  0  0  0  0  0  0  0
  144.6750   67.4230  219.4360 C   0  0  0  0  0  0  0  0  0  0  0  0
  143.6210   68.2690  219.6920 C   0  0  0  0  0  0  0  0  0  0  0  0
  143.7890   69.6370  219.6200 C   0  0  0  0  0  0  0  0  0  0  0  0
  144.9880   70.2000  219.2990 C   0  0  0  0  0  0  0  0  0  0  0  0
  146.0460   69.3390  219.0430 C   0  0  0  0  0  0  0  0  0  0  0  0
  145.2390   71.6380  219.2050 C   0  0  0  0  0  0  0  0  0  0  0  0
  144.1930   72.5220  219.7820 C   0  0  0  0  0  0  0  0  0  0  0  0
  142.9750   71.8750  220.1770 N   0  0  0  0  0  0  0  0  0  0  0  0
  142.0210   72.6600  220.9020 C   0  0  0  0  0  0  0  0  0  0  0  0
  141.0440   72.0900  221.6300 N   0  0  0  0  0  0  0  0  0  0  0  0
  140.1180   72.7840  222.3310 C   0  0  0  0  0  0  0  0  0  0  0  0
  139.1050   72.1100  223.0810 N   0  0  0  0  0  0  0  0  0  0  0  0
  138.6970   70.7960  222.7120 C   0  0  2  0  0  0  0  0  0  0  0  0
  137.2250   70.5120  222.8810 C   0  0  0  0  0  0  0  0  0  0  0  0
  136.9120   69.3520  221.9230 C   0  0  0  0  0  0  0  0  0  0  0  0
  137.7200   68.1360  222.3220 C   0  0  0  0  0  0  0  0  0  0  0  0
  139.1780   68.4470  222.4080 C   0  0  0  0  0  0  0  0  0  0  0  0
  139.4740   69.6680  223.2910 C   0  0  2  0  0  0  0  0  0  0  0  0
  139.1030   69.2810  224.6300 N   0  0  0  0  0  0  0  0  0  0  0  0
  139.6790   70.0780  225.6750 C   0  0  0  0  0  0  0  0  0  0  0  0
  139.5840   69.2360  226.9400 C   0  0  0  0  0  0  0  0  0  0  0  0
  139.2760   67.8640  226.4390 C   0  0  0  0  0  0  0  0  0  0  0  0
  139.5720   67.9700  224.9480 C   0  0  0  0  0  0  0  0  0  0  0  0
  140.2120   74.1240  222.2710 N   0  0  0  0  0  0  0  0  0  0  0  0
  141.1690   74.7450  221.5590 C   0  0  0  0  0  0  0  0  0  0  0  0
  141.2470   76.1620  221.5130 N   0  0  0  0  0  0  0  0  0  0  0  0
  141.8370   76.8300  220.3570 C   0  0  0  0  0  0  0  0  0  0  0  0
  141.1480   78.1830  220.2270 C   0  0  0  0  0  0  0  0  0  0  0  0
  141.5250   78.9510  221.4400 C   0  0  0  0  0  0  0  0  0  0  0  0
  142.0570   80.2160  221.3610 C   0  0  0  0  0  0  0  0  0  0  0  0
  142.3870   80.8730  222.5400 C   0  0  0  0  0  0  0  0  0  0  0  0
  142.1740   80.2480  223.7440 C   0  0  0  0  0  0  0  0  0  0  0  0
  141.6400   78.9790  223.8290 C   0  0  0  0  0  0  0  0  0  0  0  0
  141.3080   78.3150  222.6610 C   0  0  0  0  0  0  0  0  0  0  0  0
  140.7320   76.9530  222.6350 C   0  0  0  0  0  0  0  0  0  0  0  0
  142.0470   74.0120  220.8940 N   0  0  0  0  0  0  0  0  0  0  0  0
  142.6400   70.5010  219.9000 C   0  0  0  0  0  0  0  0  0  0  0  0
  146.7637   67.3150  218.8982 H   0  0  0  0  0  0  0  0  0  0  0  0
  144.5439   66.3322  219.4914 H   0  0  0  0  0  0  0  0  0  0  0  0
  142.6377   67.8524  219.9559 H   0  0  0  0  0  0  0  0  0  0  0  0
  147.0269   69.7625  218.7811 H   0  0  0  0  0  0  0  0  0  0  0  0
  146.1837   71.8494  219.7274 H   0  0  0  0  0  0  0  0  0  0  0  0
  145.2583   71.8655  218.1290 H   0  0  0  0  0  0  0  0  0  0  0  0
  144.6180   73.0119  220.6704 H   0  0  0  0  0  0  0  0  0  0  0  0
  143.9135   73.2177  218.9771 H   0  0  0  0  0  0  0  0  0  0  0  0
  138.7020   72.6090  223.8800 H   0  0  0  0  0  0  0  0  0  0  0  0
  138.9326   70.8304  221.6381 H   0  0  0  0  0  0  0  0  0  0  0  0
  137.0073   70.2212  223.9193 H   0  0  0  0  0  0  0  0  0  0  0  0
  136.6126   71.3983  222.6587 H   0  0  0  0  0  0  0  0  0  0  0  0
  135.8396   69.1128  221.9749 H   0  0  0  0  0  0  0  0  0  0  0  0
  137.1731   69.6446  220.8953 H   0  0  0  0  0  0  0  0  0  0  0  0
  137.3720   67.7830  223.3040 H   0  0  0  0  0  0  0  0  0  0  0  0
  137.5787   67.3623  221.5529 H   0  0  0  0  0  0  0  0  0  0  0  0
  139.6995   67.5744  222.8283 H   0  0  0  0  0  0  0  0  0  0  0  0
  139.5278   68.6803  221.3915 H   0  0  0  0  0  0  0  0  0  0  0  0
  140.5230   69.9969  223.3298 H   0  0  0  0  0  0  0  0  0  0  0  0
  140.7301   70.3080  225.4461 H   0  0  0  0  0  0  0  0  0  0  0  0
  139.1541   71.0381  225.7877 H   0  0  0  0  0  0  0  0  0  0  0  0
  140.5370   69.2468  227.4892 H   0  0  0  0  0  0  0  0  0  0  0  0
  138.8242   69.6107  227.6417 H   0  0  0  0  0  0  0  0  0  0  0  0
  139.9221   67.1137  226.9181 H   0  0  0  0  0  0  0  0  0  0  0  0
  138.2459   67.5443  226.6551 H   0  0  0  0  0  0  0  0  0  0  0  0
  140.6497   67.8747  224.7493 H   0  0  0  0  0  0  0  0  0  0  0  0
  139.0969   67.1783  224.3501 H   0  0  0  0  0  0  0  0  0  0  0  0
  142.9172   76.9691  220.5113 H   0  0  0  0  0  0  0  0  0  0  0  0
  141.7016   76.2304  219.4448 H   0  0  0  0  0  0  0  0  0  0  0  0
  141.4946   78.7033  219.3219 H   0  0  0  0  0  0  0  0  0  0  0  0
  140.0568   78.0735  220.1419 H   0  0  0  0  0  0  0  0  0  0  0  0
  142.2180   80.6978  220.3853 H   0  0  0  0  0  0  0  0  0  0  0  0
  142.8154   81.8857  222.5091 H   0  0  0  0  0  0  0  0  0  0  0  0
  142.4380   80.7769  224.6716 H   0  0  0  0  0  0  0  0  0  0  0  0
  141.4808   78.5032  224.8079 H   0  0  0  0  0  0  0  0  0  0  0  0
  140.9849   76.4421  223.5758 H   0  0  0  0  0  0  0  0  0  0  0  0
  139.6426   77.0462  222.5142 H   0  0  0  0  0  0  0  0  0  0  0  0
  142.1100   70.0943  220.7739 H   0  0  0  0  0  0  0  0  0  0  0  0
  142.0260   70.5081  218.9873 H   0  0  0  0  0  0  0  0  0  0  0  0
  1  2  2  0
  2  3  1  0
  3  4  2  0
  4  5  1  0
  5  6  2  0
  5  7  1  0
  7  8  1  0
  8  9  1  0
  9 10  1  0
 10 11  2  0
 11 12  1  0
 12 13  1  0
 13 14  1  0
 14 15  1  0
 15 16  1  0
 16 17  1  0
 17 18  1  0
 18 19  1  0
 19 20  1  0
 20 21  1  0
 21 22  1  0
 22 23  1  0
 23 24  1  0
 12 25  2  0
 25 26  1  0
 26 27  1  0
 27 28  1  0
 28 29  1  0
 29 30  1  0
 30 31  2  0
 31 32  1  0
 32 33  2  0
 33 34  1  0
 34 35  2  0
 35 36  1  0
 26 37  2  0
  9 38  1  0
  6  1  1  0
 37 10  1  0
 38  4  1  0
 19 14  1  0
 24 20  1  0
 36 27  1  0
 35 30  1  0
  1 39  1  0
  2 40  1  0
  3 41  1  0
  6 42  1  0
  7 43  1  0
  7 44  1  0
  8 45  1  0
  8 46  1  0
 13 47  1  0
 14 48  1  6
 15 49  1  0
 15 50  1  0
 16 51  1  0
 16 52  1  0
 17 53  1  0
 17 54  1  0
 18 55  1  0
 18 56  1  0
 19 57  1  1
 21 58  1  0
 21 59  1  0
 22 60  1  0
 22 61  1  0
 23 62  1  0
 23 63  1  0
 24 64  1  0
 24 65  1  0
 28 66  1  0
 28 67  1  0
 29 68  1  0
 29 69  1  0
 31 70  1  0
 32 71  1  0
 33 72  1  0
 34 73  1  0
 36 74  1  0
 36 75  1  0
 38 76  1  0
 38 77  1  0
M  END
