
     RDKit          3D

 77 83  0  0  0  0  0  0  0  0999 V2000
  140.7090   79.8490  223.6770 C   0  0  0  0  0  0  0  0  0  0  0  0
  141.8380   79.5430  222.9210 C   0  0  0  0  0  0  0  0  0  0  0  0
  141.7780   78.5130  221.9970 C   0  0  0  0  0  0  0  0  0  0  0  0
  140.5850   77.8350  221.8740 C   0  0  0  0  0  0  0  0  0  0  0  0
  139.4610   78.1290  222.6160 C   0  0  0  0  0  0  0  0  0  0  0  0
  139.5350   79.1590  223.5340 C   0  0  0  0  0  0  0  0  0  0  0  0
  138.2120   77.3330  222.4070 C   0  0  0  0  0  0  0  0  0  0  0  0
  138.5880   75.8710  222.3560 C   0  0  0  0  0  0  0  0  0  0  0  0
  139.8020   75.6320  221.6330 N   0  0  0  0  0  0  0  0  0  0  0  0
  140.3610   74.3240  221.6630 C   0  0  0  0  0  0  0  0  0  0  0  0
  141.1710   73.9320  220.6610 N   0  0  0  0  0  0  0  0  0  0  0  0
  141.6940   72.6960  220.6960 C   0  0  0  0  0  0  0  0  0  0  0  0
  142.5650   72.2620  219.6280 N   0  0  0  0  0  0  0  0  0  0  0  0
  142.0340   71.6320  218.4330 C   0  0  0  0  0  0  0  0  0  0  0  0
  142.8260   70.4060  218.0750 C   0  0  0  0  0  0  0  0  0  0  0  0
  144.2770   70.8690  217.8810 C   0  0  0  0  0  0  0  0  0  0  0  0
  145.0430   69.7560  217.2570 C   0  0  0  0  0  0  0  0  0  0  0  0
  145.6460   68.9230  218.2590 N   0  0  0  0  0  0  0  0  0  0  0  0
  146.3410   67.8380  217.6450 C   0  0  0  0  0  0  0  0  0  0  0  0
  145.6780   66.5650  218.1550 C   0  0  0  0  0  0  0  0  0  0  0  0
  144.2910   67.0710  218.5470 C   0  0  0  0  0  0  0  0  0  0  0  0
  144.6330   68.4010  219.1460 C   0  0  0  0  0  0  0  0  0  0  0  0
  144.7840   71.2880  219.2250 C   0  0  0  0  0  0  0  0  0  0  0  0
  143.9960   72.4590  219.7540 C   0  0  0  0  0  0  0  0  0  0  0  0
  141.4170   71.8590  221.7120 N   0  0  0  0  0  0  0  0  0  0  0  0
  140.6140   72.2310  222.7180 C   0  0  0  0  0  0  0  0  0  0  0  0
  140.2850   71.3860  223.8180 N   0  0  0  0  0  0  0  0  0  0  0  0
  139.5530   70.1520  223.6080 C   0  0  0  0  0  0  0  0  0  0  0  0
  138.6470   69.8170  224.7640 C   0  0  0  0  0  0  0  0  0  0  0  0
  139.4280   69.8710  226.0400 C   0  0  0  0  0  0  0  0  0  0  0  0
  139.1240   68.9440  227.0040 C   0  0  0  0  0  0  0  0  0  0  0  0
  139.8480   68.9850  228.2020 C   0  0  0  0  0  0  0  0  0  0  0  0
  140.8280   69.9400  228.3690 C   0  0  0  0  0  0  0  0  0  0  0  0
  141.1010   70.8610  227.3580 C   0  0  0  0  0  0  0  0  0  0  0  0
  140.4070   70.8380  226.1880 C   0  0  0  0  0  0  0  0  0  0  0  0
  140.7210   71.8330  225.1300 C   0  0  0  0  0  0  0  0  0  0  0  0
  140.0990   73.4690  222.6680 N   0  0  0  0  0  0  0  0  0  0  0  0
  140.4360   76.7020  220.8930 C   0  0  0  0  0  0  0  0  0  0  0  0
  140.7620   80.6679  224.4095 H   0  0  0  0  0  0  0  0  0  0  0  0
  142.7684   80.1139  223.0565 H   0  0  0  0  0  0  0  0  0  0  0  0
  142.6512   78.2460  221.3836 H   0  0  0  0  0  0  0  0  0  0  0  0
  138.6586   79.4223  224.1445 H   0  0  0  0  0  0  0  0  0  0  0  0
  137.5143   77.5094  223.2389 H   0  0  0  0  0  0  0  0  0  0  0  0
  137.7226   77.6327  221.4686 H   0  0  0  0  0  0  0  0  0  0  0  0
  138.7149   75.5052  223.3856 H   0  0  0  0  0  0  0  0  0  0  0  0
  137.7806   75.3408  221.8296 H   0  0  0  0  0  0  0  0  0  0  0  0
  140.9874   71.3448  218.6122 H   0  0  0  0  0  0  0  0  0  0  0  0
  142.0993   72.3477  217.6002 H   0  0  0  0  0  0  0  0  0  0  0  0
  142.7682   69.6654  218.8862 H   0  0  0  0  0  0  0  0  0  0  0  0
  142.4341   69.9298  217.1642 H   0  0  0  0  0  0  0  0  0  0  0  0
  144.3794   71.7298  217.2038 H   0  0  0  0  0  0  0  0  0  0  0  0
  144.3602   69.1473  216.6460 H   0  0  0  0  0  0  0  0  0  0  0  0
  145.8395   70.1854  216.6316 H   0  0  0  0  0  0  0  0  0  0  0  0
  146.2545   67.9006  216.5502 H   0  0  0  0  0  0  0  0  0  0  0  0
  147.4128   67.8580  217.8916 H   0  0  0  0  0  0  0  0  0  0  0  0
  145.6174   65.8011  217.3659 H   0  0  0  0  0  0  0  0  0  0  0  0
  146.2230   66.0771  218.9766 H   0  0  0  0  0  0  0  0  0  0  0  0
  143.6370   67.1791  217.6691 H   0  0  0  0  0  0  0  0  0  0  0  0
  143.7356   66.3997  219.2184 H   0  0  0  0  0  0  0  0  0  0  0  0
  143.7525   69.0600  219.1676 H   0  0  0  0  0  0  0  0  0  0  0  0
  144.9760   68.3246  220.1884 H   0  0  0  0  0  0  0  0  0  0  0  0
  144.6899   70.4445  219.9248 H   0  0  0  0  0  0  0  0  0  0  0  0
  145.8376   71.5883  219.1261 H   0  0  0  0  0  0  0  0  0  0  0  0
  144.2414   72.5991  220.8171 H   0  0  0  0  0  0  0  0  0  0  0  0
  144.2674   73.3433  219.1588 H   0  0  0  0  0  0  0  0  0  0  0  0
  138.9423   70.2540  222.6988 H   0  0  0  0  0  0  0  0  0  0  0  0
  140.2876   69.3389  223.5115 H   0  0  0  0  0  0  0  0  0  0  0  0
  137.8229   70.5443  224.8071 H   0  0  0  0  0  0  0  0  0  0  0  0
  138.2359   68.8059  224.6275 H   0  0  0  0  0  0  0  0  0  0  0  0
  138.3371   68.1928  226.8414 H   0  0  0  0  0  0  0  0  0  0  0  0
  139.6365   68.2613  229.0030 H   0  0  0  0  0  0  0  0  0  0  0  0
  141.3998   69.9759  229.3081 H   0  0  0  0  0  0  0  0  0  0  0  0
  141.8872   71.6155  227.5084 H   0  0  0  0  0  0  0  0  0  0  0  0
  140.2136   72.7791  225.3699 H   0  0  0  0  0  0  0  0  0  0  0  0
  141.8127   71.9646  225.0995 H   0  0  0  0  0  0  0  0  0  0  0  0
  141.4210   76.3822  220.5223 H   0  0  0  0  0  0  0  0  0  0  0  0
  139.8440   76.9976  220.0143 H   0  0  0  0  0  0  0  0  0  0  0  0
  1  2  2  0
  2  3  1  0
  3  4  2  0
  4  5  1  0
  5  6  2  0
  5  7  1  0
  7  8  1  0
  8  9  1  0
  9 10  1  0
 10 11  2  0
 11 12  1  0
 12 13  1  0
 13 14  1  0
 14 15  1  0
 15 16  1  0
 16 17  1  0
 17 18  1  0
 18 19  1  0
 19 20  1  0
 20 21  1  0
 21 22  1  0
 16 23  1  0
 23 24  1  0
 12 25  2  0
 25 26  1  0
 26 27  1  0
 27 28  1  0
 28 29  1  0
 29 30  1  0
 30 31  2  0
 31 32  1  0
 32 33  2  0
 33 34  1  0
 34 35  2  0
 35 36  1  0
 26 37  2  0
  9 38  1  0
  6  1  1  0
 37 10  1  0
 38  4  1  0
 24 13  1  0
 36 27  1  0
 22 18  1  0
 35 30  1  0
  1 39  1  0
  2 40  1  0
  3 41  1  0
  6 42  1  0
  7 43  1  0
  7 44  1  0
  8 45  1  0
  8 46  1  0
 14 47  1  0
 14 48  1  0
 15 49  1  0
 15 50  1  0
 16 51  1  0
 17 52  1  0
 17 53  1  0
 19 54  1  0
 19 55  1  0
 20 56  1  0
 20 57  1  0
 21 58  1  0
 21 59  1  0
 22 60  1  0
 22 61  1  0
 23 62  1  0
 23 63  1  0
 24 64  1  0
 24 65  1  0
 28 66  1  0
 28 67  1  0
 29 68  1  0
 29 69  1  0
 31 70  1  0
 32 71  1  0
 33 72  1  0
 34 73  1  0
 36 74  1  0
 36 75  1  0
 38 76  1  0
 38 77  1  0
M  END
