@<TRIPOS>MOLECULE
*****
 71 75 0 0 0
SMALL
GASTEIGER

@<TRIPOS>ATOM
      1 C         142.5470   81.5920  224.4380 C.3     1  UNL1       -0.0624
      2 C         141.9030   80.9720  223.2220 C.3     1  UNL1       -0.0438
      3 C         140.4560   80.5940  223.4520 C.3     1  UNL1       -0.0488
      4 C         140.1640   79.2010  222.9650 C.3     1  UNL1       -0.0343
      5 C         140.7020   78.9730  221.5660 C.3     1  UNL1        0.0232
      6 N         140.3720   77.6230  221.1530 N.am    1  UNL1       -0.3109
      7 C         140.8970   77.0610  219.9760 C.2     1  UNL1        0.2338
      8 O         141.6770   77.7770  219.2730 O.2     1  UNL1       -0.2738
      9 C         140.6030   75.6890  219.4960 C.3     1  UNL1        0.1028
     10 C         141.9660   75.1080  219.0850 C.3     1  UNL1       -0.0175
     11 C         142.5090   74.8390  220.4810 C.3     1  UNL1        0.0021
     12 C         143.7470   74.0220  220.4310 C.ar    1  UNL1       -0.0427
     13 C         144.9820   74.6230  220.5830 C.ar    1  UNL1       -0.0583
     14 C         146.1500   73.8860  220.5400 C.ar    1  UNL1       -0.0615
     15 C         146.0370   72.5270  220.3380 C.ar    1  UNL1       -0.0617
     16 C         144.8250   71.9020  220.1840 C.ar    1  UNL1       -0.0615
     17 C         143.6760   72.6520  220.2300 C.ar    1  UNL1       -0.0583
     18 C         141.3520   74.0740  221.0850 C.3     1  UNL1        0.0224
     19 N         140.2020   74.7920  220.5820 N.am    1  UNL1       -0.2880
     20 C         138.8540   74.6970  221.0250 C.2     1  UNL1        0.2334
     21 O         138.1130   75.6970  221.2140 O.2     1  UNL1       -0.2739
     22 C         138.2890   73.3430  221.2770 C.3     1  UNL1        0.0887
     23 N         138.7910   72.7680  222.4950 N.am    1  UNL1       -0.3015
     24 C         138.6640   71.3500  222.6480 C.2     1  UNL1        0.2628
     25 O         138.1340   70.6370  221.7450 O.2     1  UNL1       -0.2685
     26 C         139.1670   70.7240  223.8850 C.ar    1  UNL1        0.1260
     27 C         139.0970   69.3480  224.0070 C.ar    1  UNL1       -0.0306
     28 C         139.5470   68.7100  225.1300 C.ar    1  UNL1       -0.0504
     29 C         140.0740   69.4700  226.1420 C.ar    1  UNL1        0.0004
     30 C         140.5380   68.8580  227.2900 C.ar    1  UNL1       -0.0526
     31 C         141.0650   69.6280  228.2980 C.ar    1  UNL1       -0.0611
     32 C         141.1570   70.9990  228.2270 C.ar    1  UNL1       -0.0597
     33 C         140.6800   71.5920  227.0540 C.ar    1  UNL1       -0.0357
     34 C         140.1490   70.8550  226.0280 C.ar    1  UNL1        0.0718
     35 N         139.6870   71.4130  224.8940 N.ar    1  UNL1       -0.2421
     36 C         142.1770   79.2390  221.5080 C.3     1  UNL1       -0.0343
     37 C         142.7190   79.7590  222.8240 C.3     1  UNL1       -0.0488
     38 H         142.1015   81.1631  225.3477 H       1  UNL1        0.0232
     39 H         143.6274   81.3854  224.4263 H       1  UNL1        0.0232
     40 H         142.3815   82.6794  224.4263 H       1  UNL1        0.0232
     41 H         141.8925   81.7168  222.4126 H       1  UNL1        0.0298
     42 H         139.8115   81.3034  222.9122 H       1  UNL1        0.0268
     43 H         140.2587   80.6290  224.5336 H       1  UNL1        0.0268
     44 H         139.0749   79.0466  222.9579 H       1  UNL1        0.0283
     45 H         140.6580   78.4896  223.6431 H       1  UNL1        0.0283
     46 H         140.2329   79.6790  220.8649 H       1  UNL1        0.0498
     47 H         139.7330   77.0600  221.7440 H       1  UNL1        0.1490
     48 H         139.8202   75.7519  218.7257 H       1  UNL1        0.0597
     49 H         141.8650   74.1869  218.4922 H       1  UNL1        0.0294
     50 H         142.5880   75.7448  218.4388 H       1  UNL1        0.0294
     51 H         142.8025   75.7370  221.0444 H       1  UNL1        0.0365
     52 H         145.0364   75.7102  220.7414 H       1  UNL1        0.0620
     53 H         147.1325   74.3654  220.6623 H       1  UNL1        0.0618
     54 H         146.9537   71.9202  220.2987 H       1  UNL1        0.0618
     55 H         144.7748   70.8146  220.0258 H       1  UNL1        0.0618
     56 H         142.6973   72.1651  220.1072 H       1  UNL1        0.0620
     57 H         141.3469   73.0279  220.7449 H       1  UNL1        0.0471
     58 H         141.3885   74.0208  222.1831 H       1  UNL1        0.0471
     59 H         137.1941   73.4225  221.3467 H       1  UNL1        0.0558
     60 H         138.5884   72.6896  220.4443 H       1  UNL1        0.0558
     61 H         139.2360   73.3060  223.2700 H       1  UNL1        0.1496
     62 H         138.6709   68.7549  223.1844 H       1  UNL1        0.0641
     63 H         139.4876   67.6152  225.2189 H       1  UNL1        0.0625
     64 H         140.4860   67.7644  227.3960 H       1  UNL1        0.0624
     65 H         141.4309   69.1247  229.2051 H       1  UNL1        0.0618
     66 H         141.5822   71.5955  229.0476 H       1  UNL1        0.0618
     67 H         140.7327   72.6859  226.9514 H       1  UNL1        0.0639
     68 H         142.3712   79.9868  220.7250 H       1  UNL1        0.0283
     69 H         142.6825   78.2871  221.2881 H       1  UNL1        0.0283
     70 H         143.7754   80.0423  222.7064 H       1  UNL1        0.0268
     71 H         142.6493   78.9815  223.5990 H       1  UNL1        0.0268
@<TRIPOS>BOND
     1     1     2    1
     2     2     3    1
     3     3     4    1
     4     4     5    1
     5     5     6    1
     6     6     7   am
     7     7     8    2
     8     7     9    1
     9     9    10    1
    10    10    11    1
    11    11    12    1
    12    12    13   ar
    13    13    14   ar
    14    14    15   ar
    15    15    16   ar
    16    16    17   ar
    17    11    18    1
    18    18    19    1
    19    19    20   am
    20    20    21    2
    21    20    22    1
    22    22    23    1
    23    23    24   am
    24    24    25    2
    25    24    26    1
    26    26    27   ar
    27    27    28   ar
    28    28    29   ar
    29    29    30   ar
    30    30    31   ar
    31    31    32   ar
    32    32    33   ar
    33    33    34   ar
    34    34    35   ar
    35     5    36    1
    36    36    37    1
    37    37     2    1
    38    19     9    1
    39    35    26   ar
    40    17    12   ar
    41    34    29   ar
    42     1    38    1
    43     1    39    1
    44     1    40    1
    45     2    41    1
    46     3    42    1
    47     3    43    1
    48     4    44    1
    49     4    45    1
    50     5    46    1
    51     6    47    1
    52     9    48    1
    53    10    49    1
    54    10    50    1
    55    11    51    1
    56    13    52    1
    57    14    53    1
    58    15    54    1
    59    16    55    1
    60    17    56    1
    61    18    57    1
    62    18    58    1
    63    22    59    1
    64    22    60    1
    65    23    61    1
    66    27    62    1
    67    28    63    1
    68    30    64    1
    69    31    65    1
    70    32    66    1
    71    33    67    1
    72    36    68    1
    73    36    69    1
    74    37    70    1
    75    37    71    1
