
 38 39  0  0  1  0  0  0  0  0999 V2000
  136.9280   69.2180  224.6600 O   0  0  0  0  0  0  0  0  0  0  0  0
  137.9280   69.1190  223.9070 C   0  0  0  0  0  0  0  0  0  0  0  0
  137.9340   69.7680  222.5490 C   0  0  0  0  0  0  0  0  0  0  0  0
  139.1470   70.6920  222.5310 C   0  0  0  0  0  0  0  0  0  0  0  0
  138.7710   72.1280  222.6030 C   0  0  0  0  0  0  0  0  0  0  0  0
  139.8600   72.9490  222.5280 O   0  0  0  0  0  0  0  0  0  0  0  0
  141.0270   72.9450  221.8590 C   0  0  0  0  0  0  0  0  0  0  0  0
  141.8440   71.8730  221.5960 C   0  0  0  0  0  0  0  0  0  0  0  0
  143.0350   71.9790  220.8910 C   0  0  0  0  0  0  0  0  0  0  0  0
  143.4540   73.1990  220.4140 C   0  0  0  0  0  0  0  0  0  0  0  0
  144.9400   73.4220  219.5170 Cl  0  0  0  0  0  0  0  0  0  0  0  0
  142.6570   74.2950  220.6610 C   0  0  0  0  0  0  0  0  0  0  0  0
  141.4800   74.1810  221.3600 C   0  0  0  0  0  0  0  0  0  0  0  0
  140.5460   75.6400  221.6160 Cl  0  0  0  0  0  0  0  0  0  0  0  0
  139.1070   68.4060  224.2580 N   0  0  0  0  0  0  0  0  0  0  0  0
  139.1700   67.7710  225.5200 N   0  0  0  0  0  0  0  0  0  0  0  0
  140.0090   68.0890  226.4210 C   0  0  0  0  0  0  0  0  0  0  0  0
  140.3610   69.4590  226.7850 C   0  0  0  0  0  0  0  0  0  0  0  0
  141.0510   70.2820  225.8900 C   0  0  0  0  0  0  0  0  0  0  0  0
  141.3910   71.5810  226.2200 C   0  0  0  0  0  0  0  0  0  0  0  0
  141.0190   72.0240  227.4700 C   0  0  0  0  0  0  0  0  0  0  0  0
  140.3520   71.2360  228.3420 N   0  0  0  0  0  0  0  0  0  0  0  0
  140.0300   69.9790  228.0040 C   0  0  0  0  0  0  0  0  0  0  0  0
  139.3570   69.2470  228.9380 F   0  0  0  0  0  0  0  0  0  0  0  0
  138.0225   69.0054  221.7612 H   0  0  0  0  0  0  0  0  0  0  0  0
  137.0022   70.3221  222.3628 H   0  0  0  0  0  0  0  0  0  0  0  0
  139.7864   70.4513  223.3932 H   0  0  0  0  0  0  0  0  0  0  0  0
  139.6741   70.5323  221.5788 H   0  0  0  0  0  0  0  0  0  0  0  0
  138.0940   72.3596  221.7675 H   0  0  0  0  0  0  0  0  0  0  0  0
  138.2821   72.3018  223.5730 H   0  0  0  0  0  0  0  0  0  0  0  0
  141.5396   70.8814  221.9621 H   0  0  0  0  0  0  0  0  0  0  0  0
  143.6470   71.0825  220.7129 H   0  0  0  0  0  0  0  0  0  0  0  0
  142.9697   75.2824  220.2906 H   0  0  0  0  0  0  0  0  0  0  0  0
  139.9380   68.3240  223.6290 H   0  0  0  0  0  0  0  0  0  0  0  0
  140.5059   67.2729  226.9660 H   0  0  0  0  0  0  0  0  0  0  0  0
  141.3295   69.8875  224.9017 H   0  0  0  0  0  0  0  0  0  0  0  0
  141.9333   72.2304  225.5170 H   0  0  0  0  0  0  0  0  0  0  0  0
  141.2729   73.0520  227.7680 H   0  0  0  0  0  0  0  0  0  0  0  0
  1  2  2  0
  2  3  1  0
  3  4  1  0
  4  5  1  0
  5  6  1  0
  6  7  1  0
  7  8  2  0
  8  9  1  0
  9 10  2  0
 10 11  1  0
 10 12  1  0
 12 13  2  0
 13 14  1  0
  2 15  1  0
 15 16  1  0
 16 17  2  0
 17 18  1  0
 18 19  2  0
 19 20  1  0
 20 21  2  0
 21 22  1  0
 22 23  2  0
 23 24  1  0
 13  7  1  0
 23 18  1  0
  3 25  1  0
  3 26  1  0
  4 27  1  0
  4 28  1  0
  5 29  1  0
  5 30  1  0
  8 31  1  0
  9 32  1  0
 12 33  1  0
 15 34  1  0
 17 35  1  0
 19 36  1  0
 20 37  1  0
 21 38  1  0
M  END
