@<TRIPOS>MOLECULE
*****
 60 65 0 0 0
SMALL
GASTEIGER

@<TRIPOS>ATOM
      1 O         141.4560   71.7490  222.6530 O.2     1  UNL1       -0.2698
      2 C         140.3730   71.6680  223.2850 C.2     1  UNL1        0.2504
      3 N         139.3180   72.5720  222.9760 N.am    1  UNL1       -0.2503
      4 C         139.4350   73.5730  221.9710 C.ar    1  UNL1        0.2276
      5 N         139.3260   73.3150  220.6540 N.ar    1  UNL1       -0.1805
      6 C         139.4440   74.3000  219.7340 C.ar    1  UNL1        0.2238
      7 N         139.3250   74.0040  218.3620 N.pl3   1  UNL1       -0.2971
      8 C         139.9490   74.8400  217.3620 C.3     1  UNL1        0.0274
      9 C         140.7280   73.9460  216.4210 C.3     1  UNL1        0.0118
     10 N         139.9510   72.8590  215.8840 N.3     1  UNL1       -0.3130
     11 C         138.6060   72.7840  216.4060 C.3     1  UNL1        0.0118
     12 C         138.5730   72.8550  217.9150 C.3     1  UNL1        0.0274
     13 N         139.6740   75.5530  220.1550 N.ar    1  UNL1       -0.1807
     14 C         139.7890   75.8550  221.4630 C.ar    1  UNL1        0.2240
     15 N         140.0330   77.1750  221.9390 N.pl3   1  UNL1       -0.2948
     16 C         139.0090   77.8910  222.6610 C.3     1  UNL1        0.0192
     17 C         139.2040   79.3830  222.6350 C.3     1  UNL1       -0.0115
     18 C         140.5920   79.7810  222.9300 C.ar    1  UNL1       -0.0412
     19 C         140.8560   80.9340  223.6660 C.ar    1  UNL1       -0.0582
     20 C         142.1610   81.2840  223.9290 C.ar    1  UNL1       -0.0615
     21 C         143.2090   80.4880  223.4590 C.ar    1  UNL1       -0.0614
     22 C         142.9020   79.3540  222.7330 C.ar    1  UNL1       -0.0568
     23 C         141.6040   78.9720  222.4510 C.ar    1  UNL1       -0.0269
     24 C         141.3220   77.7610  221.6770 C.3     1  UNL1        0.0402
     25 N         139.6640   74.8370  222.3490 N.ar    1  UNL1       -0.1805
     26 C         140.2470   70.6600  224.3000 C.ar    1  UNL1        0.0378
     27 C         139.5380   69.5050  223.9990 C.ar    1  UNL1       -0.0476
     28 C         139.3770   68.4940  224.9270 C.ar    1  UNL1       -0.0371
     29 C         139.9140   68.5850  226.1940 C.ar    1  UNL1        0.0465
     30 N         139.9090   67.7750  227.2580 N.ar    1  UNL1       -0.3606
     31 C         140.5950   68.3580  228.2560 C.ar    1  UNL1        0.0027
     32 C         141.0470   69.5860  227.7970 C.ar    1  UNL1       -0.0366
     33 C         140.6190   69.7360  226.4870 C.ar    1  UNL1        0.0004
     34 C         140.7800   70.7480  225.5610 C.ar    1  UNL1       -0.0405
     35 H         138.3970   72.5320  223.4860 H       1  UNL1        0.1580
     36 H         139.1783   75.3895  216.8017 H       1  UNL1        0.0477
     37 H         140.6211   75.5682  217.8395 H       1  UNL1        0.0477
     38 H         141.0951   74.5580  215.5839 H       1  UNL1        0.0439
     39 H         141.5475   73.5000  217.0037 H       1  UNL1        0.0439
     40 H         140.4360   71.9390  215.9540 H       1  UNL1        0.1220
     41 H         138.0212   73.6222  215.9993 H       1  UNL1        0.0439
     42 H         138.1811   71.8151  216.1048 H       1  UNL1        0.0439
     43 H         137.5306   72.9449  218.2546 H       1  UNL1        0.0477
     44 H         139.0190   71.9408  218.3338 H       1  UNL1        0.0477
     45 H         138.0335   77.6572  222.2096 H       1  UNL1        0.0468
     46 H         139.0630   77.5708  223.7120 H       1  UNL1        0.0468
     47 H         138.9362   79.7554  221.6352 H       1  UNL1        0.0328
     48 H         138.5615   79.8155  223.4161 H       1  UNL1        0.0328
     49 H         140.0289   81.5591  224.0337 H       1  UNL1        0.0620
     50 H         142.3793   82.1920  224.5102 H       1  UNL1        0.0618
     51 H         144.2555   80.7587  223.6628 H       1  UNL1        0.0618
     52 H         143.7268   78.7273  222.3629 H       1  UNL1        0.0621
     53 H         141.3733   78.0159  220.6082 H       1  UNL1        0.0514
     54 H         142.0730   77.0150  221.9761 H       1  UNL1        0.0514
     55 H         139.0942   69.3921  222.9988 H       1  UNL1        0.0626
     56 H         138.8070   67.5953  224.6486 H       1  UNL1        0.0638
     57 H         139.4470   66.8250  227.3240 H       1  UNL1        0.1653
     58 H         140.7671   67.9366  229.2574 H       1  UNL1        0.0807
     59 H         141.6404   70.3128  228.3711 H       1  UNL1        0.0638
     60 H         141.3494   71.6464  225.8414 H       1  UNL1        0.0632
@<TRIPOS>BOND
     1     1     2    2
     2     2     3   am
     3     3     4    1
     4     4     5   ar
     5     5     6   ar
     6     6     7    1
     7     7     8    1
     8     8     9    1
     9     9    10    1
    10    10    11    1
    11    11    12    1
    12     6    13   ar
    13    13    14   ar
    14    14    15    1
    15    15    16    1
    16    16    17    1
    17    17    18    1
    18    18    19   ar
    19    19    20   ar
    20    20    21   ar
    21    21    22   ar
    22    22    23   ar
    23    23    24    1
    24    14    25   ar
    25     2    26    1
    26    26    27   ar
    27    27    28   ar
    28    28    29   ar
    29    29    30   ar
    30    30    31   ar
    31    31    32   ar
    32    32    33   ar
    33    33    34   ar
    34    25     4   ar
    35    34    26   ar
    36    12     7    1
    37    24    15    1
    38    33    29   ar
    39    23    18   ar
    40     3    35    1
    41     8    36    1
    42     8    37    1
    43     9    38    1
    44     9    39    1
    45    10    40    1
    46    11    41    1
    47    11    42    1
    48    12    43    1
    49    12    44    1
    50    16    45    1
    51    16    46    1
    52    17    47    1
    53    17    48    1
    54    19    49    1
    55    20    50    1
    56    21    51    1
    57    22    52    1
    58    24    53    1
    59    24    54    1
    60    27    55    1
    61    28    56    1
    62    30    57    1
    63    31    58    1
    64    32    59    1
    65    34    60    1
