@<TRIPOS>MOLECULE
*****
 63 66 0 0 0
SMALL
GASTEIGER

@<TRIPOS>ATOM
      1 C         142.1840   80.8480  223.5890 C.3     1  UNL1       -0.0570
      2 C         141.7880   81.4010  222.2520 C.3     1  UNL1        0.0217
      3 C         140.5970   80.7000  221.6880 C.2     1  UNL1        0.2198
      4 O         140.4610   80.7250  220.4370 O.2     1  UNL1       -0.2753
      5 N         139.6830   80.0470  222.5620 N.am    1  UNL1       -0.2683
      6 C         138.6870   80.8270  223.2600 C.ar    1  UNL1        0.0366
      7 C         138.4310   80.5000  224.5670 C.ar    1  UNL1       -0.0403
      8 C         137.4740   81.2440  225.2400 C.ar    1  UNL1       -0.0600
      9 C         136.8130   82.2840  224.5850 C.ar    1  UNL1       -0.0616
     10 C         137.0800   82.6040  223.2660 C.ar    1  UNL1       -0.0600
     11 C         138.0290   81.8640  222.6020 C.ar    1  UNL1       -0.0403
     12 C         139.7320   78.6290  222.7620 C.3     1  UNL1        0.0339
     13 C         138.6160   77.9040  222.0400 C.3     1  UNL1       -0.0180
     14 C         138.5930   76.4920  222.5960 C.3     1  UNL1        0.0164
     15 N         139.8240   75.8030  222.3630 N.am    1  UNL1       -0.3001
     16 C         139.9900   74.4820  221.9070 C.2     1  UNL1        0.2327
     17 O         141.2170   74.0820  221.7420 O.2     1  UNL1       -0.2739
     18 C         138.9880   73.4650  221.5820 C.3     1  UNL1        0.0865
     19 N         137.7810   73.4830  222.3400 N.3     1  UNL1       -0.3197
     20 C         139.6520   72.0880  221.6130 C.3     1  UNL1       -0.0039
     21 C         139.5900   71.4160  222.9020 C.ar    1  UNL1       -0.0448
     22 C         138.8290   70.3100  223.2060 C.ar    1  UNL1       -0.0579
     23 C         138.8080   69.7200  224.4580 C.ar    1  UNL1       -0.0538
     24 C         139.5650   70.2260  225.4820 C.ar    1  UNL1       -0.0179
     25 C         139.5360   69.6340  226.7150 C.ar    1  UNL1       -0.0540
     26 C         140.3040   70.1470  227.7490 C.ar    1  UNL1       -0.0612
     27 C         141.0840   71.2610  227.4850 C.ar    1  UNL1       -0.0612
     28 C         141.1200   71.8630  226.2460 C.ar    1  UNL1       -0.0540
     29 C         140.3390   71.3310  225.2130 C.ar    1  UNL1       -0.0176
     30 C         140.3600   71.9240  223.9560 C.ar    1  UNL1       -0.0508
     31 C         141.0430   76.5580  222.6490 C.3     1  UNL1        0.0164
     32 C         141.0080   77.9850  222.2610 C.3     1  UNL1       -0.0180
     33 H         141.7426   81.4644  224.3861 H       1  UNL1        0.0234
     34 H         141.8197   79.8141  223.6807 H       1  UNL1        0.0234
     35 H         143.2801   80.8600  223.6807 H       1  UNL1        0.0234
     36 H         141.5508   82.4691  222.3655 H       1  UNL1        0.0356
     37 H         142.6297   81.2520  221.5596 H       1  UNL1        0.0356
     38 H         138.9658   79.6769  225.0636 H       1  UNL1        0.0636
     39 H         137.2360   81.0148  226.2892 H       1  UNL1        0.0618
     40 H         136.0578   82.8661  225.1335 H       1  UNL1        0.0618
     41 H         136.5488   83.4259  222.7637 H       1  UNL1        0.0618
     42 H         138.2687   82.0902  221.5525 H       1  UNL1        0.0636
     43 H         139.6499   78.5303  223.8545 H       1  UNL1        0.0505
     44 H         137.6539   78.4028  222.2283 H       1  UNL1        0.0298
     45 H         138.7798   77.9019  220.9523 H       1  UNL1        0.0298
     46 H         138.4131   76.5404  223.6801 H       1  UNL1        0.0465
     47 H         137.7924   75.9387  222.0833 H       1  UNL1        0.0465
     48 H         138.6333   73.7174  220.5718 H       1  UNL1        0.0558
     49 H         137.5370   74.4100  222.7430 H       1  UNL1        0.1189
     50 H         137.7630   72.7810  223.1080 H       1  UNL1        0.1189
     51 H         139.1536   71.4496  220.8687 H       1  UNL1        0.0333
     52 H         140.7182   72.2504  221.3964 H       1  UNL1        0.0333
     53 H         138.2051   69.8723  222.4128 H       1  UNL1        0.0620
     54 H         138.1772   68.8359  224.6327 H       1  UNL1        0.0624
     55 H         138.9031   68.7507  226.8861 H       1  UNL1        0.0624
     56 H         140.2943   69.6843  228.7469 H       1  UNL1        0.0618
     57 H         141.6980   71.6810  228.2953 H       1  UNL1        0.0618
     58 H         141.7516   72.7465  226.0715 H       1  UNL1        0.0624
     59 H         140.9925   72.8078  223.7860 H       1  UNL1        0.0626
     60 H         141.2297   76.5046  223.7317 H       1  UNL1        0.0465
     61 H         141.8360   76.0969  222.0419 H       1  UNL1        0.0465
     62 H         141.8736   78.5028  222.6999 H       1  UNL1        0.0298
     63 H         141.0433   78.0610  221.1642 H       1  UNL1        0.0298
@<TRIPOS>BOND
     1     1     2    1
     2     2     3    1
     3     3     4    2
     4     3     5   am
     5     5     6    1
     6     6     7   ar
     7     7     8   ar
     8     8     9   ar
     9     9    10   ar
    10    10    11   ar
    11     5    12    1
    12    12    13    1
    13    13    14    1
    14    14    15    1
    15    15    16   am
    16    16    17    2
    17    16    18    1
    18    18    19    1
    19    18    20    1
    20    20    21    1
    21    21    22   ar
    22    22    23   ar
    23    23    24   ar
    24    24    25   ar
    25    25    26   ar
    26    26    27   ar
    27    27    28   ar
    28    28    29   ar
    29    29    30   ar
    30    15    31    1
    31    31    32    1
    32    11     6   ar
    33    32    12    1
    34    30    21   ar
    35    29    24   ar
    36     1    33    1
    37     1    34    1
    38     1    35    1
    39     2    36    1
    40     2    37    1
    41     7    38    1
    42     8    39    1
    43     9    40    1
    44    10    41    1
    45    11    42    1
    46    12    43    1
    47    13    44    1
    48    13    45    1
    49    14    46    1
    50    14    47    1
    51    18    48    1
    52    19    49    1
    53    19    50    1
    54    20    51    1
    55    20    52    1
    56    22    53    1
    57    23    54    1
    58    25    55    1
    59    26    56    1
    60    27    57    1
    61    28    58    1
    62    30    59    1
    63    31    60    1
    64    31    61    1
    65    32    62    1
    66    32    63    1
