
     RDKit          3D

 63 67  0  0  0  0  0  0  0  0999 V2000
  138.7000   75.1920  221.5620 O   0  0  0  0  0  0  0  0  0  0  0  0
  139.8690   75.6490  221.4840 C   0  0  0  0  0  0  0  0  0  0  0  0
  140.9360   74.9540  220.8350 N   0  0  0  0  0  0  0  0  0  0  0  0
  140.6890   73.6280  220.2120 C   0  0  0  0  0  0  0  0  0  0  0  0
  141.4820   73.4760  219.0060 C   0  0  0  0  0  0  0  0  0  0  0  0
  140.8400   72.9780  217.9870 O   0  0  0  0  0  0  0  0  0  0  0  0
  142.8230   73.7710  218.7440 N   0  0  0  0  0  0  0  0  0  0  0  0
  143.7190   72.6390  218.2940 C   0  0  0  0  0  0  0  0  0  0  0  0
  144.5640   73.3240  217.2250 C   0  0  2  0  0  0  0  0  0  0  0  0
  145.9000   73.0500  217.4940 O   0  0  0  0  0  0  0  0  0  0  0  0
  144.2720   74.8110  217.3330 C   0  0  0  0  0  0  0  0  0  0  0  0
  143.7140   74.8680  218.7570 C   0  0  1  0  0  0  0  0  0  0  0  0
  143.2750   76.1950  219.1250 C   0  0  0  0  0  0  0  0  0  0  0  0
  143.3590   76.7880  220.2100 O   0  0  0  0  0  0  0  0  0  0  0  0
  142.6330   76.9700  218.0710 N   0  0  0  0  0  0  0  0  0  0  0  0
  142.1980   78.2860  218.4320 C   0  0  0  0  0  0  0  0  0  0  0  0
  142.9000   79.4060  218.0350 C   0  0  0  0  0  0  0  0  0  0  0  0
  142.4450   80.6730  218.4070 C   0  0  0  0  0  0  0  0  0  0  0  0
  141.2840   80.8010  219.1760 C   0  0  0  0  0  0  0  0  0  0  0  0
  140.7740   82.1050  219.5850 C   0  0  0  0  0  0  0  0  0  0  0  0
  141.0760   82.6310  220.8470 C   0  0  0  0  0  0  0  0  0  0  0  0
  140.5880   83.8480  221.2050 C   0  0  0  0  0  0  0  0  0  0  0  0
  139.7850   84.6250  220.3660 C   0  0  0  0  0  0  0  0  0  0  0  0
  139.4890   84.1090  219.1220 C   0  0  0  0  0  0  0  0  0  0  0  0
  139.9720   82.8680  218.7310 C   0  0  0  0  0  0  0  0  0  0  0  0
  140.5890   79.6760  219.5680 C   0  0  0  0  0  0  0  0  0  0  0  0
  141.0570   78.4330  219.1890 C   0  0  0  0  0  0  0  0  0  0  0  0
  140.1650   76.9530  222.0820 C   0  0  0  0  0  0  0  0  0  0  0  0
  139.1520   77.7110  222.6460 C   0  0  0  0  0  0  0  0  0  0  0  0
  139.3600   78.9410  223.2240 C   0  0  0  0  0  0  0  0  0  0  0  0
  140.6600   79.4240  223.2290 C   0  0  0  0  0  0  0  0  0  0  0  0
  140.8540   80.6580  223.8100 C   0  0  0  0  0  0  0  0  0  0  0  0
  142.1240   81.1710  223.8360 C   0  0  0  0  0  0  0  0  0  0  0  0
  142.3620   82.3960  224.4060 F   0  0  0  0  0  0  0  0  0  0  0  0
  143.1440   80.4400  223.2850 C   0  0  0  0  0  0  0  0  0  0  0  0
  142.9570   79.1950  222.6950 C   0  0  0  0  0  0  0  0  0  0  0  0
  141.6770   78.6820  222.6720 C   0  0  0  0  0  0  0  0  0  0  0  0
  141.4010   77.4750  222.1180 N   0  0  0  0  0  0  0  0  0  0  0  0
  141.8750   75.4010  220.8140 H   0  0  0  0  0  0  0  0  0  0  0  0
  140.9610   72.8366  220.9259 H   0  0  0  0  0  0  0  0  0  0  0  0
  139.6237   73.5522  219.9486 H   0  0  0  0  0  0  0  0  0  0  0  0
  144.3419   72.2670  219.1208 H   0  0  0  0  0  0  0  0  0  0  0  0
  143.1749   71.7530  217.9350 H   0  0  0  0  0  0  0  0  0  0  0  0
  144.3375   72.9735  216.2072 H   0  0  0  0  0  0  0  0  0  0  0  0
  146.3650   73.8120  217.9200 H   0  0  0  0  0  0  0  0  0  0  0  0
  145.1851   75.4153  217.2276 H   0  0  0  0  0  0  0  0  0  0  0  0
  143.6030   75.2100  216.5563 H   0  0  0  0  0  0  0  0  0  0  0  0
  144.4125   74.7396  219.5970 H   0  0  0  0  0  0  0  0  0  0  0  0
  142.5080   76.5710  217.1150 H   0  0  0  0  0  0  0  0  0  0  0  0
  143.8122   79.3014  217.4293 H   0  0  0  0  0  0  0  0  0  0  0  0
  142.9999   81.5701  218.0951 H   0  0  0  0  0  0  0  0  0  0  0  0
  141.7059   82.0614  221.5461 H   0  0  0  0  0  0  0  0  0  0  0  0
  140.8369   84.2397  222.2023 H   0  0  0  0  0  0  0  0  0  0  0  0
  139.4050   85.6069  220.6845 H   0  0  0  0  0  0  0  0  0  0  0  0
  138.8612   84.6892  218.4297 H   0  0  0  0  0  0  0  0  0  0  0  0
  139.7199   82.4786  217.7336 H   0  0  0  0  0  0  0  0  0  0  0  0
  139.6753   79.7674  220.1736 H   0  0  0  0  0  0  0  0  0  0  0  0
  140.5028   77.5353  219.5005 H   0  0  0  0  0  0  0  0  0  0  0  0
  138.1285   77.3081  222.6306 H   0  0  0  0  0  0  0  0  0  0  0  0
  138.5318   79.5166  223.6631 H   0  0  0  0  0  0  0  0  0  0  0  0
  140.0108   81.2170  224.2419 H   0  0  0  0  0  0  0  0  0  0  0  0
  144.1608   80.8590  223.3108 H   0  0  0  0  0  0  0  0  0  0  0  0
  143.8009   78.6383  222.2615 H   0  0  0  0  0  0  0  0  0  0  0  0
  1  2  2  0
  2  3  1  0
  3  4  1  0
  4  5  1  0
  5  6  2  0
  5  7  1  0
  7  8  1  0
  8  9  1  0
  9 10  1  0
  9 11  1  0
 11 12  1  0
 12 13  1  0
 13 14  2  0
 13 15  1  0
 15 16  1  0
 16 17  2  0
 17 18  1  0
 18 19  2  0
 19 20  1  0
 20 21  2  0
 21 22  1  0
 22 23  2  0
 23 24  1  0
 24 25  2  0
 19 26  1  0
 26 27  2  0
  2 28  1  0
 28 29  2  0
 29 30  1  0
 30 31  2  0
 31 32  1  0
 32 33  2  0
 33 34  1  0
 33 35  1  0
 35 36  2  0
 36 37  1  0
 37 38  2  0
 12  7  1  0
 27 16  1  0
 38 28  1  0
 25 20  1  0
 37 31  1  0
  3 39  1  0
  4 40  1  0
  4 41  1  0
  8 42  1  0
  8 43  1  0
  9 44  1  6
 10 45  1  0
 11 46  1  0
 11 47  1  0
 12 48  1  1
 15 49  1  0
 17 50  1  0
 18 51  1  0
 21 52  1  0
 22 53  1  0
 23 54  1  0
 24 55  1  0
 25 56  1  0
 26 57  1  0
 27 58  1  0
 29 59  1  0
 30 60  1  0
 32 61  1  0
 35 62  1  0
 36 63  1  0
M  END
>  <smiles>  (1) 
O=C(NCC(=O)N1C[C@H](O)C[C@H]1C(=O)Nc1ccc(-c2ccccc2)cc1)c1ccc2cc(F)ccc2n1

>  <score_type>  (1) 
oracle

>  <origin>  (1) 
autodockgpu

>  <m_score__min__energy>  (1) 
-9.8499999999999996

>  <m_primary>  (1) 
energy

>  <rmsd>  (1) 
6.845096574874241

>  <m_score__min__rmsd>  (1) 
6.845096574874241

>  <meeko>  (1) 
{"free_energy": -6.53, "intermolecular_energy": -8.92, "internal_energy": -4.7, "cluster_size": 1, "cluster_id": 7, "rank_in_cluster": 1}

>  <energy>  (1) 
-9.85

>  <cluster_rmsd>  (1) 
0.0

>  <cluster>  (1) 
1

$$$$

     RDKit          3D

 63 67  0  0  0  0  0  0  0  0999 V2000
  140.4110   72.9530  222.5730 O   0  0  0  0  0  0  0  0  0  0  0  0
  140.1720   71.7300  222.7390 C   0  0  0  0  0  0  0  0  0  0  0  0
  139.8060   70.8550  221.6710 N   0  0  0  0  0  0  0  0  0  0  0  0
  139.6930   71.3810  220.2850 C   0  0  0  0  0  0  0  0  0  0  0  0
  138.3040   71.4130  219.8650 C   0  0  0  0  0  0  0  0  0  0  0  0
  138.0970   71.0640  218.6260 O   0  0  0  0  0  0  0  0  0  0  0  0
  137.1400   71.7550  220.5600 N   0  0  0  0  0  0  0  0  0  0  0  0
  136.1050   70.6730  220.7740 C   0  0  0  0  0  0  0  0  0  0  0  0
  135.6530   70.9630  222.2030 C   0  0  2  0  0  0  0  0  0  0  0  0
  134.2640   71.0120  222.2110 O   0  0  0  0  0  0  0  0  0  0  0  0
  136.2550   72.3050  222.5810 C   0  0  0  0  0  0  0  0  0  0  0  0
  136.5390   72.8700  221.1870 C   0  0  1  0  0  0  0  0  0  0  0  0
  137.1980   74.1550  221.2370 C   0  0  0  0  0  0  0  0  0  0  0  0
  137.0550   75.1500  220.5120 O   0  0  0  0  0  0  0  0  0  0  0  0
  138.1840   74.3270  222.2960 N   0  0  0  0  0  0  0  0  0  0  0  0
  138.8380   75.6010  222.3480 C   0  0  0  0  0  0  0  0  0  0  0  0
  140.1550   75.7440  221.9630 C   0  0  0  0  0  0  0  0  0  0  0  0
  140.7590   77.0020  222.0280 C   0  0  0  0  0  0  0  0  0  0  0  0
  140.0290   78.1060  222.4800 C   0  0  0  0  0  0  0  0  0  0  0  0
  140.6220   79.4370  222.5630 C   0  0  0  0  0  0  0  0  0  0  0  0
  140.0050   80.5370  221.9570 C   0  0  0  0  0  0  0  0  0  0  0  0
  140.5770   81.7660  222.0490 C   0  0  0  0  0  0  0  0  0  0  0  0
  141.7750   82.0020  222.7310 C   0  0  0  0  0  0  0  0  0  0  0  0
  142.3820   80.9180  223.3290 C   0  0  0  0  0  0  0  0  0  0  0  0
  141.8210   79.6510  223.2500 C   0  0  0  0  0  0  0  0  0  0  0  0
  138.7130   77.9520  222.8640 C   0  0  0  0  0  0  0  0  0  0  0  0
  138.1360   76.7000  222.7910 C   0  0  0  0  0  0  0  0  0  0  0  0
  140.2690   71.1620  224.0860 C   0  0  0  0  0  0  0  0  0  0  0  0
  140.7240   71.9360  225.1410 C   0  0  0  0  0  0  0  0  0  0  0  0
  140.8390   71.4670  226.4280 C   0  0  0  0  0  0  0  0  0  0  0  0
  140.4760   70.1480  226.6540 C   0  0  0  0  0  0  0  0  0  0  0  0
  140.5960   69.6900  227.9480 C   0  0  0  0  0  0  0  0  0  0  0  0
  140.2470   68.3930  228.2130 C   0  0  0  0  0  0  0  0  0  0  0  0
  140.3520   67.8970  229.4880 F   0  0  0  0  0  0  0  0  0  0  0  0
  139.7950   67.6070  227.1860 C   0  0  0  0  0  0  0  0  0  0  0  0
  139.6700   68.0590  225.8780 C   0  0  0  0  0  0  0  0  0  0  0  0
  140.0220   69.3660  225.6150 C   0  0  0  0  0  0  0  0  0  0  0  0
  139.9330   69.8940  224.3680 N   0  0  0  0  0  0  0  0  0  0  0  0
  139.6240   69.8550  221.8920 H   0  0  0  0  0  0  0  0  0  0  0  0
  140.1053   72.4002  220.2499 H   0  0  0  0  0  0  0  0  0  0  0  0
  140.2544   70.7211  219.6072 H   0  0  0  0  0  0  0  0  0  0  0  0
  135.2718   70.7674  220.0620 H   0  0  0  0  0  0  0  0  0  0  0  0
  136.4853   69.6521  220.6222 H   0  0  0  0  0  0  0  0  0  0  0  0
  135.9763   70.1949  222.9210 H   0  0  0  0  0  0  0  0  0  0  0  0
  133.9060   71.4630  223.0150 H   0  0  0  0  0  0  0  0  0  0  0  0
  135.5415   72.9304  223.1376 H   0  0  0  0  0  0  0  0  0  0  0  0
  137.1295   72.2501  223.2460 H   0  0  0  0  0  0  0  0  0  0  0  0
  135.6876   73.1989  220.5731 H   0  0  0  0  0  0  0  0  0  0  0  0
  138.3870   73.5550  222.9670 H   0  0  0  0  0  0  0  0  0  0  0  0
  140.7256   74.8735  221.6073 H   0  0  0  0  0  0  0  0  0  0  0  0
  141.8090   77.1243  221.7236 H   0  0  0  0  0  0  0  0  0  0  0  0
  139.0605   80.4073  221.4082 H   0  0  0  0  0  0  0  0  0  0  0  0
  140.0740   82.6156  221.5641 H   0  0  0  0  0  0  0  0  0  0  0  0
  142.2140   83.0090  222.7879 H   0  0  0  0  0  0  0  0  0  0  0  0
  143.3252   81.0595  223.8770 H   0  0  0  0  0  0  0  0  0  0  0  0
  142.3268   78.8030  223.7348 H   0  0  0  0  0  0  0  0  0  0  0  0
  138.1319   78.8142  223.2231 H   0  0  0  0  0  0  0  0  0  0  0  0
  137.0861   76.5767  223.0952 H   0  0  0  0  0  0  0  0  0  0  0  0
  141.0078   72.9793  224.9385 H   0  0  0  0  0  0  0  0  0  0  0  0
  141.2031   72.1099  227.2429 H   0  0  0  0  0  0  0  0  0  0  0  0
  140.9630   70.3499  228.7479 H   0  0  0  0  0  0  0  0  0  0  0  0
  139.5171   66.5661  227.4079 H   0  0  0  0  0  0  0  0  0  0  0  0
  139.3029   67.3970  225.0799 H   0  0  0  0  0  0  0  0  0  0  0  0
  1  2  2  0
  2  3  1  0
  3  4  1  0
  4  5  1  0
  5  6  2  0
  5  7  1  0
  7  8  1  0
  8  9  1  0
  9 10  1  0
  9 11  1  0
 11 12  1  0
 12 13  1  0
 13 14  2  0
 13 15  1  0
 15 16  1  0
 16 17  2  0
 17 18  1  0
 18 19  2  0
 19 20  1  0
 20 21  2  0
 21 22  1  0
 22 23  2  0
 23 24  1  0
 24 25  2  0
 19 26  1  0
 26 27  2  0
  2 28  1  0
 28 29  2  0
 29 30  1  0
 30 31  2  0
 31 32  1  0
 32 33  2  0
 33 34  1  0
 33 35  1  0
 35 36  2  0
 36 37  1  0
 37 38  2  0
 12  7  1  0
 27 16  1  0
 38 28  1  0
 25 20  1  0
 37 31  1  0
  3 39  1  0
  4 40  1  0
  4 41  1  0
  8 42  1  0
  8 43  1  0
  9 44  1  1
 10 45  1  0
 11 46  1  0
 11 47  1  0
 12 48  1  6
 15 49  1  0
 17 50  1  0
 18 51  1  0
 21 52  1  0
 22 53  1  0
 23 54  1  0
 24 55  1  0
 25 56  1  0
 26 57  1  0
 27 58  1  0
 29 59  1  0
 30 60  1  0
 32 61  1  0
 35 62  1  0
 36 63  1  0
M  END
>  <smiles>  (2) 
O=C(NCC(=O)N1C[C@H](O)C[C@H]1C(=O)Nc1ccc(-c2ccccc2)cc1)c1ccc2cc(F)ccc2n1

>  <score_type>  (2) 
oracle

>  <origin>  (2) 
autodockgpu

>  <m_score__min__energy>  (2) 
-9.8499999999999996

>  <m_primary>  (2) 
energy

>  <rmsd>  (2) 
4.806669572579168

>  <m_score__min__rmsd>  (2) 
4.806669572579168

>  <meeko>  (2) 
{"free_energy": -8.61, "intermolecular_energy": -11.0, "internal_energy": -3.22, "cluster_size": 11, "cluster_id": 3, "rank_in_cluster": 8}

>  <energy>  (2) 
-9.66

>  <cluster_rmsd>  (2) 
1.75

>  <cluster>  (2) 
1

$$$$

     RDKit          3D

 63 67  0  0  0  0  0  0  0  0999 V2000
  139.7610   70.5050  220.5070 O   0  0  0  0  0  0  0  0  0  0  0  0
  140.2860   71.1870  221.4230 C   0  0  0  0  0  0  0  0  0  0  0  0
  141.1270   72.3150  221.1740 N   0  0  0  0  0  0  0  0  0  0  0  0
  141.4160   72.7300  219.7760 C   0  0  0  0  0  0  0  0  0  0  0  0
  142.2300   73.9320  219.7600 C   0  0  0  0  0  0  0  0  0  0  0  0
  143.4810   73.7430  219.4430 O   0  0  0  0  0  0  0  0  0  0  0  0
  141.9070   75.2660  220.0260 N   0  0  0  0  0  0  0  0  0  0  0  0
  142.7350   76.3380  219.3550 C   0  0  0  0  0  0  0  0  0  0  0  0
  141.6670   77.3650  218.9900 C   0  0  2  0  0  0  0  0  0  0  0  0
  142.0950   78.6080  219.4390 O   0  0  0  0  0  0  0  0  0  0  0  0
  140.3940   76.9310  219.6950 C   0  0  0  0  0  0  0  0  0  0  0  0
  140.9870   76.0290  220.7800 C   0  0  1  0  0  0  0  0  0  0  0  0
  139.9700   75.4010  221.5930 C   0  0  0  0  0  0  0  0  0  0  0  0
  140.0420   74.4090  222.3320 O   0  0  0  0  0  0  0  0  0  0  0  0
  138.6490   76.0150  221.5490 N   0  0  0  0  0  0  0  0  0  0  0  0
  137.6380   75.3960  222.3540 C   0  0  0  0  0  0  0  0  0  0  0  0
  137.2600   74.0850  222.1420 C   0  0  0  0  0  0  0  0  0  0  0  0
  136.2710   73.5150  222.9470 C   0  0  0  0  0  0  0  0  0  0  0  0
  135.6720   74.2710  223.9590 C   0  0  0  0  0  0  0  0  0  0  0  0
  134.6350   73.7140  224.8220 C   0  0  0  0  0  0  0  0  0  0  0  0
  134.3860   72.3360  224.8490 C   0  0  0  0  0  0  0  0  0  0  0  0
  133.4150   71.8420  225.6610 C   0  0  0  0  0  0  0  0  0  0  0  0
  132.6310   72.6490  226.4920 C   0  0  0  0  0  0  0  0  0  0  0  0
  132.8770   74.0050  226.4670 C   0  0  0  0  0  0  0  0  0  0  0  0
  133.8620   74.5370  225.6460 C   0  0  0  0  0  0  0  0  0  0  0  0
  136.0560   75.5800  224.1620 C   0  0  0  0  0  0  0  0  0  0  0  0
  137.0360   76.1230  223.3560 C   0  0  0  0  0  0  0  0  0  0  0  0
  140.0320   70.8190  222.8190 C   0  0  0  0  0  0  0  0  0  0  0  0
  139.1410   69.8030  223.1230 C   0  0  0  0  0  0  0  0  0  0  0  0
  138.8580   69.4070  224.4090 C   0  0  0  0  0  0  0  0  0  0  0  0
  139.5090   70.0750  225.4340 C   0  0  0  0  0  0  0  0  0  0  0  0
  139.2160   69.6690  226.7170 C   0  0  0  0  0  0  0  0  0  0  0  0
  139.8390   70.3030  227.7580 C   0  0  0  0  0  0  0  0  0  0  0  0
  139.5750   69.9300  229.0520 F   0  0  0  0  0  0  0  0  0  0  0  0
  140.7240   71.3120  227.4830 C   0  0  0  0  0  0  0  0  0  0  0  0
  141.0270   71.7290  226.1920 C   0  0  0  0  0  0  0  0  0  0  0  0
  140.3980   71.0870  225.1460 C   0  0  0  0  0  0  0  0  0  0  0  0
  140.6310   71.4270  223.8540 N   0  0  0  0  0  0  0  0  0  0  0  0
  141.5220   72.8260  221.9880 H   0  0  0  0  0  0  0  0  0  0  0  0
  141.9556   71.9206  219.2624 H   0  0  0  0  0  0  0  0  0  0  0  0
  140.4654   72.9375  219.2629 H   0  0  0  0  0  0  0  0  0  0  0  0
  143.4798   76.7610  220.0451 H   0  0  0  0  0  0  0  0  0  0  0  0
  143.3230   75.9789  218.4975 H   0  0  0  0  0  0  0  0  0  0  0  0
  141.4880   77.4326  217.9068 H   0  0  0  0  0  0  0  0  0  0  0  0
  142.9070   78.5490  220.0010 H   0  0  0  0  0  0  0  0  0  0  0  0
  139.8535   77.7868  220.1257 H   0  0  0  0  0  0  0  0  0  0  0  0
  139.6469   76.4483  219.0478 H   0  0  0  0  0  0  0  0  0  0  0  0
  141.5267   76.5012  221.6141 H   0  0  0  0  0  0  0  0  0  0  0  0
  138.4700   76.8580  220.9600 H   0  0  0  0  0  0  0  0  0  0  0  0
  137.7343   73.4937  221.3449 H   0  0  0  0  0  0  0  0  0  0  0  0
  135.9635   72.4714  222.7847 H   0  0  0  0  0  0  0  0  0  0  0  0
  134.9743   71.6562  224.2152 H   0  0  0  0  0  0  0  0  0  0  0  0
  133.2371   70.7565  225.6650 H   0  0  0  0  0  0  0  0  0  0  0  0
  131.8511   72.2197  227.1381 H   0  0  0  0  0  0  0  0  0  0  0  0
  132.2843   74.6753  227.1068 H   0  0  0  0  0  0  0  0  0  0  0  0
  134.0369   75.6230  225.6439 H   0  0  0  0  0  0  0  0  0  0  0  0
  135.5881   76.1824  224.9546 H   0  0  0  0  0  0  0  0  0  0  0  0
  137.3447   77.1661  223.5189 H   0  0  0  0  0  0  0  0  0  0  0  0
  138.6344   69.2870  222.2941 H   0  0  0  0  0  0  0  0  0  0  0  0
  138.1454   68.5948  224.6154 H   0  0  0  0  0  0  0  0  0  0  0  0
  138.4990   68.8553  226.9007 H   0  0  0  0  0  0  0  0  0  0  0  0
  141.2193   71.8171  228.3254 H   0  0  0  0  0  0  0  0  0  0  0  0
  141.7440   72.5433  226.0109 H   0  0  0  0  0  0  0  0  0  0  0  0
  1  2  2  0
  2  3  1  0
  3  4  1  0
  4  5  1  0
  5  6  2  0
  5  7  1  0
  7  8  1  0
  8  9  1  0
  9 10  1  0
  9 11  1  0
 11 12  1  0
 12 13  1  0
 13 14  2  0
 13 15  1  0
 15 16  1  0
 16 17  2  0
 17 18  1  0
 18 19  2  0
 19 20  1  0
 20 21  2  0
 21 22  1  0
 22 23  2  0
 23 24  1  0
 24 25  2  0
 19 26  1  0
 26 27  2  0
  2 28  1  0
 28 29  2  0
 29 30  1  0
 30 31  2  0
 31 32  1  0
 32 33  2  0
 33 34  1  0
 33 35  1  0
 35 36  2  0
 36 37  1  0
 37 38  2  0
 12  7  1  0
 27 16  1  0
 38 28  1  0
 25 20  1  0
 37 31  1  0
  3 39  1  0
  4 40  1  0
  4 41  1  0
  8 42  1  0
  8 43  1  0
  9 44  1  6
 10 45  1  0
 11 46  1  0
 11 47  1  0
 12 48  1  1
 15 49  1  0
 17 50  1  0
 18 51  1  0
 21 52  1  0
 22 53  1  0
 23 54  1  0
 24 55  1  0
 25 56  1  0
 26 57  1  0
 27 58  1  0
 29 59  1  0
 30 60  1  0
 32 61  1  0
 35 62  1  0
 36 63  1  0
M  END
>  <smiles>  (3) 
O=C(NCC(=O)N1C[C@H](O)C[C@H]1C(=O)Nc1ccc(-c2ccccc2)cc1)c1ccc2cc(F)ccc2n1

>  <score_type>  (3) 
oracle

>  <origin>  (3) 
autodockgpu

>  <m_score__min__energy>  (3) 
-9.8499999999999996

>  <m_primary>  (3) 
energy

>  <rmsd>  (3) 
4.898481328531862

>  <m_score__min__rmsd>  (3) 
4.898481328531862

>  <meeko>  (3) 
{"free_energy": -7.79, "intermolecular_energy": -10.18, "internal_energy": -3.21, "cluster_size": 1, "cluster_id": 5, "rank_in_cluster": 1}

>  <energy>  (3) 
-9.66

>  <cluster_rmsd>  (3) 
1.73

>  <cluster>  (3) 
1

$$$$

     RDKit          3D

 63 67  0  0  0  0  0  0  0  0999 V2000
  141.3950   72.1370  221.7380 O   0  0  0  0  0  0  0  0  0  0  0  0
  140.4500   72.3660  222.5340 C   0  0  0  0  0  0  0  0  0  0  0  0
  139.5150   73.4310  222.3510 N   0  0  0  0  0  0  0  0  0  0  0  0
  139.6350   74.3290  221.1730 C   0  0  0  0  0  0  0  0  0  0  0  0
  140.1290   75.6340  221.5760 C   0  0  0  0  0  0  0  0  0  0  0  0
  139.5110   76.1630  222.5940 O   0  0  0  0  0  0  0  0  0  0  0  0
  141.1580   76.4270  221.0610 N   0  0  0  0  0  0  0  0  0  0  0  0
  142.1300   75.7810  220.0990 C   0  0  0  0  0  0  0  0  0  0  0  0
  142.3320   76.8950  219.0750 C   0  0  2  0  0  0  0  0  0  0  0  0
  143.6990   77.0720  218.8970 O   0  0  0  0  0  0  0  0  0  0  0  0
  141.6850   78.1390  219.6590 C   0  0  0  0  0  0  0  0  0  0  0  0
  141.6510   77.7490  221.1390 C   0  0  1  0  0  0  0  0  0  0  0  0
  141.0060   78.7490  221.9590 C   0  0  0  0  0  0  0  0  0  0  0  0
  141.5000   79.6610  222.6370 O   0  0  0  0  0  0  0  0  0  0  0  0
  139.5500   78.6930  222.0070 N   0  0  0  0  0  0  0  0  0  0  0  0
  138.9070   79.6840  222.8170 C   0  0  0  0  0  0  0  0  0  0  0  0
  138.9020   79.5870  224.1940 C   0  0  0  0  0  0  0  0  0  0  0  0
  138.2640   80.5730  224.9520 C   0  0  0  0  0  0  0  0  0  0  0  0
  137.6390   81.6490  224.3150 C   0  0  0  0  0  0  0  0  0  0  0  0
  136.9620   82.6990  225.0690 C   0  0  0  0  0  0  0  0  0  0  0  0
  136.4470   83.8290  224.4230 C   0  0  0  0  0  0  0  0  0  0  0  0
  135.8210   84.7930  225.1470 C   0  0  0  0  0  0  0  0  0  0  0  0
  135.6570   84.7210  226.5340 C   0  0  0  0  0  0  0  0  0  0  0  0
  136.1620   83.6070  227.1700 C   0  0  0  0  0  0  0  0  0  0  0  0
  136.8070   82.6070  226.4550 C   0  0  0  0  0  0  0  0  0  0  0  0
  137.6490   81.7360  222.9380 C   0  0  0  0  0  0  0  0  0  0  0  0
  138.2850   80.7510  222.2090 C   0  0  0  0  0  0  0  0  0  0  0  0
  140.2880   71.5090  223.7120 C   0  0  0  0  0  0  0  0  0  0  0  0
  139.6420   70.2880  223.6060 C   0  0  0  0  0  0  0  0  0  0  0  0
  139.4570   69.4370  224.6690 C   0  0  0  0  0  0  0  0  0  0  0  0
  139.9500   69.8440  225.8980 C   0  0  0  0  0  0  0  0  0  0  0  0
  139.7580   68.9820  226.9550 C   0  0  0  0  0  0  0  0  0  0  0  0
  140.2310   69.3470  228.1870 C   0  0  0  0  0  0  0  0  0  0  0  0
  140.0610   68.5180  229.2660 F   0  0  0  0  0  0  0  0  0  0  0  0
  140.8740   70.5500  228.3180 C   0  0  0  0  0  0  0  0  0  0  0  0
  141.0730   71.4270  227.2580 C   0  0  0  0  0  0  0  0  0  0  0  0
  140.5950   71.0550  226.0190 C   0  0  0  0  0  0  0  0  0  0  0  0
  140.7440   71.8480  224.9280 N   0  0  0  0  0  0  0  0  0  0  0  0
  138.7610   73.5530  223.0560 H   0  0  0  0  0  0  0  0  0  0  0  0
  140.3343   73.8850  220.4492 H   0  0  0  0  0  0  0  0  0  0  0  0
  138.6419   74.4504  220.7157 H   0  0  0  0  0  0  0  0  0  0  0  0
  143.0743   75.5182  220.5981 H   0  0  0  0  0  0  0  0  0  0  0  0
  141.7712   74.8351  219.6672 H   0  0  0  0  0  0  0  0  0  0  0  0
  141.8834   76.6665  218.0970 H   0  0  0  0  0  0  0  0  0  0  0  0
  144.1480   76.2510  218.5770 H   0  0  0  0  0  0  0  0  0  0  0  0
  142.2969   79.0368  219.4871 H   0  0  0  0  0  0  0  0  0  0  0  0
  140.7085   78.4010  219.2257 H   0  0  0  0  0  0  0  0  0  0  0  0
  142.5991   77.7353  221.6965 H   0  0  0  0  0  0  0  0  0  0  0  0
  139.0250   77.9660  221.4740 H   0  0  0  0  0  0  0  0  0  0  0  0
  139.3966   78.7396  224.6913 H   0  0  0  0  0  0  0  0  0  0  0  0
  138.2537   80.5023  226.0497 H   0  0  0  0  0  0  0  0  0  0  0  0
  136.5489   83.9360  223.3330 H   0  0  0  0  0  0  0  0  0  0  0  0
  135.4244   85.6717  224.6173 H   0  0  0  0  0  0  0  0  0  0  0  0
  135.1469   85.5190  227.0935 H   0  0  0  0  0  0  0  0  0  0  0  0
  136.0523   83.5090  228.2601 H   0  0  0  0  0  0  0  0  0  0  0  0
  137.2020   81.7291  226.9872 H   0  0  0  0  0  0  0  0  0  0  0  0
  137.1574   82.5779  222.4285 H   0  0  0  0  0  0  0  0  0  0  0  0
  138.2950   80.8208  221.1113 H   0  0  0  0  0  0  0  0  0  0  0  0
  139.2577   69.9844  222.6211 H   0  0  0  0  0  0  0  0  0  0  0  0
  138.9395   68.4737  224.5492 H   0  0  0  0  0  0  0  0  0  0  0  0
  139.2373   68.0236  226.8128 H   0  0  0  0  0  0  0  0  0  0  0  0
  141.2513   70.8358  229.3110 H   0  0  0  0  0  0  0  0  0  0  0  0
  141.5939   72.3850  227.4025 H   0  0  0  0  0  0  0  0  0  0  0  0
  1  2  2  0
  2  3  1  0
  3  4  1  0
  4  5  1  0
  5  6  2  0
  5  7  1  0
  7  8  1  0
  8  9  1  0
  9 10  1  0
  9 11  1  0
 11 12  1  0
 12 13  1  0
 13 14  2  0
 13 15  1  0
 15 16  1  0
 16 17  2  0
 17 18  1  0
 18 19  2  0
 19 20  1  0
 20 21  2  0
 21 22  1  0
 22 23  2  0
 23 24  1  0
 24 25  2  0
 19 26  1  0
 26 27  2  0
  2 28  1  0
 28 29  2  0
 29 30  1  0
 30 31  2  0
 31 32  1  0
 32 33  2  0
 33 34  1  0
 33 35  1  0
 35 36  2  0
 36 37  1  0
 37 38  2  0
 12  7  1  0
 27 16  1  0
 38 28  1  0
 25 20  1  0
 37 31  1  0
  3 39  1  0
  4 40  1  0
  4 41  1  0
  8 42  1  0
  8 43  1  0
  9 44  1  6
 10 45  1  0
 11 46  1  0
 11 47  1  0
 12 48  1  1
 15 49  1  0
 17 50  1  0
 18 51  1  0
 21 52  1  0
 22 53  1  0
 23 54  1  0
 24 55  1  0
 25 56  1  0
 26 57  1  0
 27 58  1  0
 29 59  1  0
 30 60  1  0
 32 61  1  0
 35 62  1  0
 36 63  1  0
M  END
>  <smiles>  (4) 
O=C(NCC(=O)N1C[C@H](O)C[C@H]1C(=O)Nc1ccc(-c2ccccc2)cc1)c1ccc2cc(F)ccc2n1

>  <score_type>  (4) 
oracle

>  <origin>  (4) 
autodockgpu

>  <m_score__min__energy>  (4) 
-9.8499999999999996

>  <m_primary>  (4) 
energy

>  <rmsd>  (4) 
2.7586873907335607

>  <m_score__min__rmsd>  (4) 
2.7586873907335607

>  <meeko>  (4) 
{"free_energy": -9.17, "intermolecular_energy": -11.55, "internal_energy": -2.4, "cluster_size": 26, "cluster_id": 1, "rank_in_cluster": 17}

>  <energy>  (4) 
-9.61

>  <cluster_rmsd>  (4) 
0.78

>  <cluster>  (4) 
1

$$$$

     RDKit          3D

 63 67  0  0  0  0  0  0  0  0999 V2000
  140.3720   72.9550  222.5620 O   0  0  0  0  0  0  0  0  0  0  0  0
  140.1790   71.7210  222.7050 C   0  0  0  0  0  0  0  0  0  0  0  0
  139.8700   70.8470  221.6180 N   0  0  0  0  0  0  0  0  0  0  0  0
  139.7640   71.3880  220.2380 C   0  0  0  0  0  0  0  0  0  0  0  0
  138.3790   71.4160  219.8060 C   0  0  0  0  0  0  0  0  0  0  0  0
  138.1930   71.1500  218.5430 O   0  0  0  0  0  0  0  0  0  0  0  0
  137.2000   71.6780  220.5110 N   0  0  0  0  0  0  0  0  0  0  0  0
  136.2310   70.5340  220.7120 C   0  0  0  0  0  0  0  0  0  0  0  0
  135.7700   70.7730  222.1470 C   0  0  2  0  0  0  0  0  0  0  0  0
  134.3800   70.7410  222.1620 O   0  0  0  0  0  0  0  0  0  0  0  0
  136.2960   72.1410  222.5450 C   0  0  0  0  0  0  0  0  0  0  0  0
  136.5400   72.7450  221.1600 C   0  0  1  0  0  0  0  0  0  0  0  0
  137.1220   74.0660  221.2280 C   0  0  0  0  0  0  0  0  0  0  0  0
  136.9300   75.0580  220.5110 O   0  0  0  0  0  0  0  0  0  0  0  0
  138.0860   74.2830  222.3000 N   0  0  0  0  0  0  0  0  0  0  0  0
  138.6650   75.5920  222.3700 C   0  0  0  0  0  0  0  0  0  0  0  0
  137.9290   76.6770  222.8000 C   0  0  0  0  0  0  0  0  0  0  0  0
  138.5270   77.9380  222.8550 C   0  0  0  0  0  0  0  0  0  0  0  0
  139.8650   78.0940  222.4780 C   0  0  0  0  0  0  0  0  0  0  0  0
  140.5280   79.3930  222.5210 C   0  0  0  0  0  0  0  0  0  0  0  0
  141.7450   79.5570  223.1940 C   0  0  0  0  0  0  0  0  0  0  0  0
  142.3420   80.7770  223.2200 C   0  0  0  0  0  0  0  0  0  0  0  0
  141.8000   81.9060  222.5970 C   0  0  0  0  0  0  0  0  0  0  0  0
  140.6030   81.7450  221.9330 C   0  0  0  0  0  0  0  0  0  0  0  0
  139.9700   80.5100  221.8920 C   0  0  0  0  0  0  0  0  0  0  0  0
  140.5920   77.0030  222.0500 C   0  0  0  0  0  0  0  0  0  0  0  0
  139.9810   75.7660  222.0030 C   0  0  0  0  0  0  0  0  0  0  0  0
  140.2710   71.1380  224.0470 C   0  0  0  0  0  0  0  0  0  0  0  0
  140.6940   71.9080  225.1170 C   0  0  0  0  0  0  0  0  0  0  0  0
  140.8030   71.4250  226.4000 C   0  0  0  0  0  0  0  0  0  0  0  0
  140.4660   70.0960  226.6040 C   0  0  0  0  0  0  0  0  0  0  0  0
  140.5790   69.6240  227.8940 C   0  0  0  0  0  0  0  0  0  0  0  0
  140.2550   68.3160  228.1380 C   0  0  0  0  0  0  0  0  0  0  0  0
  140.3540   67.8060  229.4080 F   0  0  0  0  0  0  0  0  0  0  0  0
  139.8340   67.5340  227.0960 C   0  0  0  0  0  0  0  0  0  0  0  0
  139.7160   68.0000  225.7920 C   0  0  0  0  0  0  0  0  0  0  0  0
  140.0430   69.3180  225.5500 C   0  0  0  0  0  0  0  0  0  0  0  0
  139.9590   69.8590  224.3090 N   0  0  0  0  0  0  0  0  0  0  0  0
  139.7240   69.8380  221.8220 H   0  0  0  0  0  0  0  0  0  0  0  0
  140.1697   72.4103  220.2182 H   0  0  0  0  0  0  0  0  0  0  0  0
  140.3349   70.7391  219.5576 H   0  0  0  0  0  0  0  0  0  0  0  0
  135.3901   70.5910  220.0052 H   0  0  0  0  0  0  0  0  0  0  0  0
  136.6700   69.5398  220.5421 H   0  0  0  0  0  0  0  0  0  0  0  0
  136.1403   70.0128  222.8506 H   0  0  0  0  0  0  0  0  0  0  0  0
  134.0010   70.3900  221.3190 H   0  0  0  0  0  0  0  0  0  0  0  0
  135.5507   72.7149  223.1151 H   0  0  0  0  0  0  0  0  0  0  0  0
  137.1758   72.1251  223.2051 H   0  0  0  0  0  0  0  0  0  0  0  0
  135.6678   73.0346  220.5555 H   0  0  0  0  0  0  0  0  0  0  0  0
  138.3270   73.5170  222.9660 H   0  0  0  0  0  0  0  0  0  0  0  0
  136.8777   76.5496  223.0977 H   0  0  0  0  0  0  0  0  0  0  0  0
  137.9460   78.8081  223.1946 H   0  0  0  0  0  0  0  0  0  0  0  0
  142.2158   78.7011  223.6997 H   0  0  0  0  0  0  0  0  0  0  0  0
  143.2967   80.8820  223.7563 H   0  0  0  0  0  0  0  0  0  0  0  0
  142.3076   82.8811  222.6354 H   0  0  0  0  0  0  0  0  0  0  0  0
  140.1426   82.6072  221.4284 H   0  0  0  0  0  0  0  0  0  0  0  0
  139.0146   80.4088  221.3563 H   0  0  0  0  0  0  0  0  0  0  0  0
  141.6442   77.1169  221.7502 H   0  0  0  0  0  0  0  0  0  0  0  0
  140.5611   74.8954  221.6631 H   0  0  0  0  0  0  0  0  0  0  0  0
  140.9563   72.9600  224.9314 H   0  0  0  0  0  0  0  0  0  0  0  0
  141.1426   72.0650  227.2277 H   0  0  0  0  0  0  0  0  0  0  0  0
  140.9208   70.2814  228.7070 H   0  0  0  0  0  0  0  0  0  0  0  0
  139.5763   66.4845  227.3012 H   0  0  0  0  0  0  0  0  0  0  0  0
  139.3737   67.3405  224.9809 H   0  0  0  0  0  0  0  0  0  0  0  0
  1  2  2  0
  2  3  1  0
  3  4  1  0
  4  5  1  0
  5  6  2  0
  5  7  1  0
  7  8  1  0
  8  9  1  0
  9 10  1  0
  9 11  1  0
 11 12  1  0
 12 13  1  0
 13 14  2  0
 13 15  1  0
 15 16  1  0
 16 17  2  0
 17 18  1  0
 18 19  2  0
 19 20  1  0
 20 21  2  0
 21 22  1  0
 22 23  2  0
 23 24  1  0
 24 25  2  0
 19 26  1  0
 26 27  2  0
  2 28  1  0
 28 29  2  0
 29 30  1  0
 30 31  2  0
 31 32  1  0
 32 33  2  0
 33 34  1  0
 33 35  1  0
 35 36  2  0
 36 37  1  0
 37 38  2  0
 12  7  1  0
 27 16  1  0
 38 28  1  0
 25 20  1  0
 37 31  1  0
  3 39  1  0
  4 40  1  0
  4 41  1  0
  8 42  1  0
  8 43  1  0
  9 44  1  1
 10 45  1  0
 11 46  1  0
 11 47  1  0
 12 48  1  6
 15 49  1  0
 17 50  1  0
 18 51  1  0
 21 52  1  0
 22 53  1  0
 23 54  1  0
 24 55  1  0
 25 56  1  0
 26 57  1  0
 27 58  1  0
 29 59  1  0
 30 60  1  0
 32 61  1  0
 35 62  1  0
 36 63  1  0
M  END
>  <smiles>  (5) 
O=C(NCC(=O)N1C[C@H](O)C[C@H]1C(=O)Nc1ccc(-c2ccccc2)cc1)c1ccc2cc(F)ccc2n1

>  <score_type>  (5) 
oracle

>  <origin>  (5) 
autodockgpu

>  <m_score__min__energy>  (5) 
-9.8499999999999996

>  <m_primary>  (5) 
energy

>  <rmsd>  (5) 
4.9443997698553455

>  <m_score__min__rmsd>  (5) 
4.9443997698553455

>  <meeko>  (5) 
{"free_energy": -8.58, "intermolecular_energy": -10.96, "internal_energy": -3.29, "cluster_size": 11, "cluster_id": 3, "rank_in_cluster": 9}

>  <energy>  (5) 
-9.53

>  <cluster_rmsd>  (5) 
1.59

>  <cluster>  (5) 
1

$$$$

     RDKit          3D

 63 67  0  0  0  0  0  0  0  0999 V2000
  138.8190   77.5340  222.4190 O   0  0  0  0  0  0  0  0  0  0  0  0
  139.7530   76.6940  222.3810 C   0  0  0  0  0  0  0  0  0  0  0  0
  141.1040   77.0120  222.7220 N   0  0  0  0  0  0  0  0  0  0  0  0
  141.4570   78.3920  223.1460 C   0  0  0  0  0  0  0  0  0  0  0  0
  142.0710   79.1200  222.0500 C   0  0  0  0  0  0  0  0  0  0  0  0
  143.1320   79.8050  222.3730 O   0  0  0  0  0  0  0  0  0  0  0  0
  141.7220   79.2160  220.7000 N   0  0  0  0  0  0  0  0  0  0  0  0
  141.3010   80.5710  220.1760 C   0  0  0  0  0  0  0  0  0  0  0  0
  141.9720   80.5900  218.8060 C   0  0  2  0  0  0  0  0  0  0  0  0
  141.0160   80.9520  217.8640 O   0  0  0  0  0  0  0  0  0  0  0  0
  142.4870   79.1830  218.5580 C   0  0  0  0  0  0  0  0  0  0  0  0
  141.6140   78.4050  219.5470 C   0  0  1  0  0  0  0  0  0  0  0  0
  141.9390   76.9970  219.5800 C   0  0  0  0  0  0  0  0  0  0  0  0
  141.1960   76.0120  219.6990 O   0  0  0  0  0  0  0  0  0  0  0  0
  143.3530   76.6650  219.4560 N   0  0  0  0  0  0  0  0  0  0  0  0
  143.6770   75.2700  219.4870 C   0  0  0  0  0  0  0  0  0  0  0  0
  143.6460   74.5550  220.6680 C   0  0  0  0  0  0  0  0  0  0  0  0
  143.9690   73.1960  220.6590 C   0  0  0  0  0  0  0  0  0  0  0  0
  144.3210   72.5690  219.4610 C   0  0  0  0  0  0  0  0  0  0  0  0
  144.6660   71.1510  219.4080 C   0  0  0  0  0  0  0  0  0  0  0  0
  145.9430   70.7370  219.0120 C   0  0  0  0  0  0  0  0  0  0  0  0
  146.2390   69.4110  218.9700 C   0  0  0  0  0  0  0  0  0  0  0  0
  145.3200   68.4130  219.3100 C   0  0  0  0  0  0  0  0  0  0  0  0
  144.0630   68.8210  219.7020 C   0  0  0  0  0  0  0  0  0  0  0  0
  143.7330   70.1690  219.7520 C   0  0  0  0  0  0  0  0  0  0  0  0
  144.3500   73.2920  218.2860 C   0  0  0  0  0  0  0  0  0  0  0  0
  144.0270   74.6330  218.3170 C   0  0  0  0  0  0  0  0  0  0  0  0
  139.4570   75.3190  221.9690 C   0  0  0  0  0  0  0  0  0  0  0  0
  138.1840   74.9730  221.5480 C   0  0  0  0  0  0  0  0  0  0  0  0
  137.8390   73.7040  221.1480 C   0  0  0  0  0  0  0  0  0  0  0  0
  138.8340   72.7400  221.1770 C   0  0  0  0  0  0  0  0  0  0  0  0
  138.4750   71.4730  220.7740 C   0  0  0  0  0  0  0  0  0  0  0  0
  139.4300   70.4910  220.7880 C   0  0  0  0  0  0  0  0  0  0  0  0
  139.1150   69.2150  220.3950 F   0  0  0  0  0  0  0  0  0  0  0  0
  140.6980   70.8080  221.2010 C   0  0  0  0  0  0  0  0  0  0  0  0
  141.0700   72.0840  221.6100 C   0  0  0  0  0  0  0  0  0  0  0  0
  140.1050   73.0690  221.5940 C   0  0  0  0  0  0  0  0  0  0  0  0
  140.3770   74.3420  221.9750 N   0  0  0  0  0  0  0  0  0  0  0  0
  141.8180   76.2590  222.6640 H   0  0  0  0  0  0  0  0  0  0  0  0
  140.5443   78.9177  223.4633 H   0  0  0  0  0  0  0  0  0  0  0  0
  142.1720   78.3357  223.9801 H   0  0  0  0  0  0  0  0  0  0  0  0
  140.2070   80.6457  220.0886 H   0  0  0  0  0  0  0  0  0  0  0  0
  141.5858   81.4113  220.8263 H   0  0  0  0  0  0  0  0  0  0  0  0
  142.8045   81.3064  218.7458 H   0  0  0  0  0  0  0  0  0  0  0  0
  140.2210   81.3730  218.2750 H   0  0  0  0  0  0  0  0  0  0  0  0
  142.3146   78.8617  217.5202 H   0  0  0  0  0  0  0  0  0  0  0  0
  143.5709   79.0545  218.6947 H   0  0  0  0  0  0  0  0  0  0  0  0
  140.5476   78.2734  219.3113 H   0  0  0  0  0  0  0  0  0  0  0  0
  144.0710   77.4140  219.3510 H   0  0  0  0  0  0  0  0  0  0  0  0
  143.3689   75.0522  221.6093 H   0  0  0  0  0  0  0  0  0  0  0  0
  143.9462   72.6192  221.5954 H   0  0  0  0  0  0  0  0  0  0  0  0
  146.7040   71.4817  218.7358 H   0  0  0  0  0  0  0  0  0  0  0  0
  147.2483   69.1088  218.6539 H   0  0  0  0  0  0  0  0  0  0  0  0
  145.5890   67.3473  219.2664 H   0  0  0  0  0  0  0  0  0  0  0  0
  143.3105   68.0680  219.9792 H   0  0  0  0  0  0  0  0  0  0  0  0
  142.7224   70.4682  220.0670 H   0  0  0  0  0  0  0  0  0  0  0  0
  144.6266   72.8063  217.3386 H   0  0  0  0  0  0  0  0  0  0  0  0
  144.0496   75.2099  217.3807 H   0  0  0  0  0  0  0  0  0  0  0  0
  137.4092   75.7536  221.5329 H   0  0  0  0  0  0  0  0  0  0  0  0
  136.8171   73.4641  220.8190 H   0  0  0  0  0  0  0  0  0  0  0  0
  137.4470   71.2550  220.4490 H   0  0  0  0  0  0  0  0  0  0  0  0
  141.4590   70.0137  221.2093 H   0  0  0  0  0  0  0  0  0  0  0  0
  142.0984   72.3001  221.9350 H   0  0  0  0  0  0  0  0  0  0  0  0
  1  2  2  0
  2  3  1  0
  3  4  1  0
  4  5  1  0
  5  6  2  0
  5  7  1  0
  7  8  1  0
  8  9  1  0
  9 10  1  0
  9 11  1  0
 11 12  1  0
 12 13  1  0
 13 14  2  0
 13 15  1  0
 15 16  1  0
 16 17  2  0
 17 18  1  0
 18 19  2  0
 19 20  1  0
 20 21  2  0
 21 22  1  0
 22 23  2  0
 23 24  1  0
 24 25  2  0
 19 26  1  0
 26 27  2  0
  2 28  1  0
 28 29  2  0
 29 30  1  0
 30 31  2  0
 31 32  1  0
 32 33  2  0
 33 34  1  0
 33 35  1  0
 35 36  2  0
 36 37  1  0
 37 38  2  0
 12  7  1  0
 27 16  1  0
 38 28  1  0
 25 20  1  0
 37 31  1  0
  3 39  1  0
  4 40  1  0
  4 41  1  0
  8 42  1  0
  8 43  1  0
  9 44  1  1
 10 45  1  0
 11 46  1  0
 11 47  1  0
 12 48  1  6
 15 49  1  0
 17 50  1  0
 18 51  1  0
 21 52  1  0
 22 53  1  0
 23 54  1  0
 24 55  1  0
 25 56  1  0
 26 57  1  0
 27 58  1  0
 29 59  1  0
 30 60  1  0
 32 61  1  0
 35 62  1  0
 36 63  1  0
M  END
>  <smiles>  (6) 
O=C(NCC(=O)N1C[C@H](O)C[C@H]1C(=O)Nc1ccc(-c2ccccc2)cc1)c1ccc2cc(F)ccc2n1

>  <score_type>  (6) 
oracle

>  <origin>  (6) 
autodockgpu

>  <m_score__min__energy>  (6) 
-9.8499999999999996

>  <m_primary>  (6) 
energy

>  <rmsd>  (6) 
7.001662671114903

>  <m_score__min__rmsd>  (6) 
7.001662671114903

>  <meeko>  (6) 
{"free_energy": -7.66, "intermolecular_energy": -10.04, "internal_energy": -3.63, "cluster_size": 2, "cluster_id": 6, "rank_in_cluster": 2}

>  <energy>  (6) 
-9.53

>  <cluster_rmsd>  (6) 
1.41

>  <cluster>  (6) 
1

$$$$

     RDKit          3D

 63 67  0  0  0  0  0  0  0  0999 V2000
  139.8440   71.2200  220.8120 O   0  0  0  0  0  0  0  0  0  0  0  0
  140.2940   71.7820  221.8430 C   0  0  0  0  0  0  0  0  0  0  0  0
  140.9720   73.0390  221.8140 N   0  0  0  0  0  0  0  0  0  0  0  0
  141.1720   73.7450  220.5220 C   0  0  0  0  0  0  0  0  0  0  0  0
  141.5800   75.1190  220.7510 C   0  0  0  0  0  0  0  0  0  0  0  0
  141.4790   75.5230  221.9860 O   0  0  0  0  0  0  0  0  0  0  0  0
  142.0680   76.0930  219.8730 N   0  0  0  0  0  0  0  0  0  0  0  0
  143.0970   75.6660  218.8510 C   0  0  0  0  0  0  0  0  0  0  0  0
  142.6440   76.4450  217.6190 C   0  0  2  0  0  0  0  0  0  0  0  0
  143.7500   77.1080  217.1000 O   0  0  0  0  0  0  0  0  0  0  0  0
  141.5850   77.4250  218.0950 C   0  0  0  0  0  0  0  0  0  0  0  0
  141.9180   77.4690  219.5890 C   0  0  1  0  0  0  0  0  0  0  0  0
  141.0000   78.3000  220.3340 C   0  0  0  0  0  0  0  0  0  0  0  0
  140.1770   79.1340  219.9320 O   0  0  0  0  0  0  0  0  0  0  0  0
  141.0340   78.1470  221.7830 N   0  0  0  0  0  0  0  0  0  0  0  0
  140.1250   78.9690  222.5250 C   0  0  0  0  0  0  0  0  0  0  0  0
  138.8030   78.6080  222.6850 C   0  0  0  0  0  0  0  0  0  0  0  0
  137.9460   79.4350  223.4150 C   0  0  0  0  0  0  0  0  0  0  0  0
  138.4300   80.6200  223.9780 C   0  0  0  0  0  0  0  0  0  0  0  0
  137.5690   81.5120  224.7470 C   0  0  0  0  0  0  0  0  0  0  0  0
  137.3100   81.2700  226.1020 C   0  0  0  0  0  0  0  0  0  0  0  0
  136.5040   82.1160  226.7960 C   0  0  0  0  0  0  0  0  0  0  0  0
  135.9050   83.2420  226.2230 C   0  0  0  0  0  0  0  0  0  0  0  0
  136.1610   83.4820  224.8900 C   0  0  0  0  0  0  0  0  0  0  0  0
  136.9790   82.6340  224.1560 C   0  0  0  0  0  0  0  0  0  0  0  0
  139.7530   80.9720  223.8120 C   0  0  0  0  0  0  0  0  0  0  0  0
  140.5820   80.1400  223.0880 C   0  0  0  0  0  0  0  0  0  0  0  0
  140.1230   71.1250  223.1420 C   0  0  0  0  0  0  0  0  0  0  0  0
  139.4080   69.9440  223.2410 C   0  0  0  0  0  0  0  0  0  0  0  0
  139.2110   69.2770  224.4260 C   0  0  0  0  0  0  0  0  0  0  0  0
  139.7660   69.8380  225.5670 C   0  0  0  0  0  0  0  0  0  0  0  0
  139.5600   69.1590  226.7480 C   0  0  0  0  0  0  0  0  0  0  0  0
  140.0920   69.6800  227.8970 C   0  0  0  0  0  0  0  0  0  0  0  0
  139.9110   69.0370  229.0950 F   0  0  0  0  0  0  0  0  0  0  0  0
  140.8030   70.8490  227.8260 C   0  0  0  0  0  0  0  0  0  0  0  0
  141.0160   71.5400  226.6390 C   0  0  0  0  0  0  0  0  0  0  0  0
  140.4790   71.0120  225.4840 C   0  0  0  0  0  0  0  0  0  0  0  0
  140.6360   71.6190  224.2800 N   0  0  0  0  0  0  0  0  0  0  0  0
  141.3140   73.4360  222.7120 H   0  0  0  0  0  0  0  0  0  0  0  0
  141.9516   73.2275  219.9437 H   0  0  0  0  0  0  0  0  0  0  0  0
  140.2231   73.7438  219.9655 H   0  0  0  0  0  0  0  0  0  0  0  0
  144.1127   75.9555  219.1584 H   0  0  0  0  0  0  0  0  0  0  0  0
  143.1526   74.5781  218.6982 H   0  0  0  0  0  0  0  0  0  0  0  0
  142.2271   75.8002  216.8314 H   0  0  0  0  0  0  0  0  0  0  0  0
  143.5900   78.0760  216.9810 H   0  0  0  0  0  0  0  0  0  0  0  0
  141.6991   78.4115  217.6218 H   0  0  0  0  0  0  0  0  0  0  0  0
  140.5492   77.1397  217.8588 H   0  0  0  0  0  0  0  0  0  0  0  0
  142.8320   77.9924  219.9062 H   0  0  0  0  0  0  0  0  0  0  0  0
  141.6890   77.4720  222.2340 H   0  0  0  0  0  0  0  0  0  0  0  0
  138.4263   77.6750  222.2406 H   0  0  0  0  0  0  0  0  0  0  0  0
  136.8907   79.1541  223.5469 H   0  0  0  0  0  0  0  0  0  0  0  0
  137.7572   80.3985  226.6025 H   0  0  0  0  0  0  0  0  0  0  0  0
  136.3139   81.9049  227.8587 H   0  0  0  0  0  0  0  0  0  0  0  0
  135.2568   83.9082  226.8112 H   0  0  0  0  0  0  0  0  0  0  0  0
  135.7105   84.3582  224.4008 H   0  0  0  0  0  0  0  0  0  0  0  0
  137.1661   82.8477  223.0933 H   0  0  0  0  0  0  0  0  0  0  0  0
  140.1418   81.9028  224.2506 H   0  0  0  0  0  0  0  0  0  0  0  0
  141.6377   80.4198  222.9567 H   0  0  0  0  0  0  0  0  0  0  0  0
  138.9753   69.5175  222.3240 H   0  0  0  0  0  0  0  0  0  0  0  0
  138.6381   68.3389  224.4681 H   0  0  0  0  0  0  0  0  0  0  0  0
  138.9831   68.2226  226.7673 H   0  0  0  0  0  0  0  0  0  0  0  0
  141.2261   71.2609  228.7541 H   0  0  0  0  0  0  0  0  0  0  0  0
  141.5933   72.4762  226.6216 H   0  0  0  0  0  0  0  0  0  0  0  0
  1  2  2  0
  2  3  1  0
  3  4  1  0
  4  5  1  0
  5  6  2  0
  5  7  1  0
  7  8  1  0
  8  9  1  0
  9 10  1  0
  9 11  1  0
 11 12  1  0
 12 13  1  0
 13 14  2  0
 13 15  1  0
 15 16  1  0
 16 17  2  0
 17 18  1  0
 18 19  2  0
 19 20  1  0
 20 21  2  0
 21 22  1  0
 22 23  2  0
 23 24  1  0
 24 25  2  0
 19 26  1  0
 26 27  2  0
  2 28  1  0
 28 29  2  0
 29 30  1  0
 30 31  2  0
 31 32  1  0
 32 33  2  0
 33 34  1  0
 33 35  1  0
 35 36  2  0
 36 37  1  0
 37 38  2  0
 12  7  1  0
 27 16  1  0
 38 28  1  0
 25 20  1  0
 37 31  1  0
  3 39  1  0
  4 40  1  0
  4 41  1  0
  8 42  1  0
  8 43  1  0
  9 44  1  6
 10 45  1  0
 11 46  1  0
 11 47  1  0
 12 48  1  6
 15 49  1  0
 17 50  1  0
 18 51  1  0
 21 52  1  0
 22 53  1  0
 23 54  1  0
 24 55  1  0
 25 56  1  0
 26 57  1  0
 27 58  1  0
 29 59  1  0
 30 60  1  0
 32 61  1  0
 35 62  1  0
 36 63  1  0
M  END
>  <smiles>  (7) 
O=C(NCC(=O)N1C[C@H](O)C[C@H]1C(=O)Nc1ccc(-c2ccccc2)cc1)c1ccc2cc(F)ccc2n1

>  <score_type>  (7) 
oracle

>  <origin>  (7) 
autodockgpu

>  <m_score__min__energy>  (7) 
-9.8499999999999996

>  <m_primary>  (7) 
energy

>  <rmsd>  (7) 
2.6284397121962186

>  <m_score__min__rmsd>  (7) 
2.6284397121962186

>  <meeko>  (7) 
{"free_energy": -8.96, "intermolecular_energy": -11.35, "internal_energy": -3.12, "cluster_size": 26, "cluster_id": 1, "rank_in_cluster": 22}

>  <energy>  (7) 
-9.51

>  <cluster_rmsd>  (7) 
1.21

>  <cluster>  (7) 
1

$$$$

     RDKit          3D

 63 67  0  0  0  0  0  0  0  0999 V2000
  139.9610   72.8420  222.6160 O   0  0  0  0  0  0  0  0  0  0  0  0
  139.8730   71.5900  222.5380 C   0  0  0  0  0  0  0  0  0  0  0  0
  139.7570   70.8910  221.2980 N   0  0  0  0  0  0  0  0  0  0  0  0
  139.7360   71.6480  220.0180 C   0  0  0  0  0  0  0  0  0  0  0  0
  138.4070   71.6240  219.4350 C   0  0  0  0  0  0  0  0  0  0  0  0
  138.3410   71.1060  218.2400 O   0  0  0  0  0  0  0  0  0  0  0  0
  137.1760   72.0620  219.9320 N   0  0  0  0  0  0  0  0  0  0  0  0
  136.0200   71.0870  219.9090 C   0  0  0  0  0  0  0  0  0  0  0  0
  135.3500   71.3760  221.2490 C   0  0  2  0  0  0  0  0  0  0  0  0
  133.9930   71.5680  221.0180 O   0  0  0  0  0  0  0  0  0  0  0  0
  136.0020   72.6360  221.7940 C   0  0  0  0  0  0  0  0  0  0  0  0
  136.5830   73.2130  220.5000 C   0  0  1  0  0  0  0  0  0  0  0  0
  137.3430   74.4210  220.7280 C   0  0  0  0  0  0  0  0  0  0  0  0
  137.4970   75.4120  220.0000 O   0  0  0  0  0  0  0  0  0  0  0  0
  138.0410   74.5050  222.0050 N   0  0  0  0  0  0  0  0  0  0  0  0
  138.7940   75.7020  222.2340 C   0  0  0  0  0  0  0  0  0  0  0  0
  140.1520   75.7490  221.9900 C   0  0  0  0  0  0  0  0  0  0  0  0
  140.8530   76.9340  222.2260 C   0  0  0  0  0  0  0  0  0  0  0  0
  140.1790   78.0620  222.7040 C   0  0  0  0  0  0  0  0  0  0  0  0
  140.8740   79.3190  222.9630 C   0  0  0  0  0  0  0  0  0  0  0  0
  142.0650   79.3440  223.6990 C   0  0  0  0  0  0  0  0  0  0  0  0
  142.6920   80.5270  223.9270 C   0  0  0  0  0  0  0  0  0  0  0  0
  142.2070   81.7520  223.4570 C   0  0  0  0  0  0  0  0  0  0  0  0
  141.0350   81.7280  222.7310 C   0  0  0  0  0  0  0  0  0  0  0  0
  140.3720   80.5330  222.4850 C   0  0  0  0  0  0  0  0  0  0  0  0
  138.8230   78.0040  222.9450 C   0  0  0  0  0  0  0  0  0  0  0  0
  138.1490   76.8230  222.7050 C   0  0  0  0  0  0  0  0  0  0  0  0
  139.8890   70.7980  223.7710 C   0  0  0  0  0  0  0  0  0  0  0  0
  139.3090   69.5410  223.8020 C   0  0  0  0  0  0  0  0  0  0  0  0
  139.2890   68.7460  224.9240 C   0  0  0  0  0  0  0  0  0  0  0  0
  139.8850   69.2530  226.0680 C   0  0  0  0  0  0  0  0  0  0  0  0
  139.8580   68.4460  227.1850 C   0  0  0  0  0  0  0  0  0  0  0  0
  140.4370   68.9100  228.3360 C   0  0  0  0  0  0  0  0  0  0  0  0
  140.4310   68.1390  229.4700 F   0  0  0  0  0  0  0  0  0  0  0  0
  141.0170   70.1510  228.3300 C   0  0  0  0  0  0  0  0  0  0  0  0
  141.0500   70.9720  227.2090 C   0  0  0  0  0  0  0  0  0  0  0  0
  140.4660   70.5010  226.0520 C   0  0  0  0  0  0  0  0  0  0  0  0
  140.4500   71.2330  224.9100 N   0  0  0  0  0  0  0  0  0  0  0  0
  139.6890   69.8540  221.3200 H   0  0  0  0  0  0  0  0  0  0  0  0
  140.0285   72.6910  220.2094 H   0  0  0  0  0  0  0  0  0  0  0  0
  140.4410   71.1792  219.3158 H   0  0  0  0  0  0  0  0  0  0  0  0
  135.3404   71.2896  219.0682 H   0  0  0  0  0  0  0  0  0  0  0  0
  136.3216   70.0375  219.7760 H   0  0  0  0  0  0  0  0  0  0  0  0
  135.4642   70.5554  221.9726 H   0  0  0  0  0  0  0  0  0  0  0  0
  133.6880   72.4720  221.2790 H   0  0  0  0  0  0  0  0  0  0  0  0
  135.2645   73.3138  222.2487 H   0  0  0  0  0  0  0  0  0  0  0  0
  136.7343   72.4693  222.5978 H   0  0  0  0  0  0  0  0  0  0  0  0
  135.8903   73.6476  219.7643 H   0  0  0  0  0  0  0  0  0  0  0  0
  137.9830   73.7270  222.6980 H   0  0  0  0  0  0  0  0  0  0  0  0
  140.6782   74.8598  221.6125 H   0  0  0  0  0  0  0  0  0  0  0  0
  141.9355   76.9798  222.0358 H   0  0  0  0  0  0  0  0  0  0  0  0
  142.4913   78.4088  224.0911 H   0  0  0  0  0  0  0  0  0  0  0  0
  143.6255   80.5216  224.5089 H   0  0  0  0  0  0  0  0  0  0  0  0
  142.7379   82.6942  223.6580 H   0  0  0  0  0  0  0  0  0  0  0  0
  140.6193   82.6689  222.3412 H   0  0  0  0  0  0  0  0  0  0  0  0
  139.4373   80.5417  221.9051 H   0  0  0  0  0  0  0  0  0  0  0  0
  138.2855   78.8861  223.3232 H   0  0  0  0  0  0  0  0  0  0  0  0
  137.0666   76.7768  222.8955 H   0  0  0  0  0  0  0  0  0  0  0  0
  138.8407   69.1591  222.8829 H   0  0  0  0  0  0  0  0  0  0  0  0
  138.8203   67.7509  224.9139 H   0  0  0  0  0  0  0  0  0  0  0  0
  139.3833   67.4542  227.1527 H   0  0  0  0  0  0  0  0  0  0  0  0
  141.4797   70.5160  229.2588 H   0  0  0  0  0  0  0  0  0  0  0  0
  141.5256   71.9633  227.2435 H   0  0  0  0  0  0  0  0  0  0  0  0
  1  2  2  0
  2  3  1  0
  3  4  1  0
  4  5  1  0
  5  6  2  0
  5  7  1  0
  7  8  1  0
  8  9  1  0
  9 10  1  0
  9 11  1  0
 11 12  1  0
 12 13  1  0
 13 14  2  0
 13 15  1  0
 15 16  1  0
 16 17  2  0
 17 18  1  0
 18 19  2  0
 19 20  1  0
 20 21  2  0
 21 22  1  0
 22 23  2  0
 23 24  1  0
 24 25  2  0
 19 26  1  0
 26 27  2  0
  2 28  1  0
 28 29  2  0
 29 30  1  0
 30 31  2  0
 31 32  1  0
 32 33  2  0
 33 34  1  0
 33 35  1  0
 35 36  2  0
 36 37  1  0
 37 38  2  0
 12  7  1  0
 27 16  1  0
 38 28  1  0
 25 20  1  0
 37 31  1  0
  3 39  1  0
  4 40  1  0
  4 41  1  0
  8 42  1  0
  8 43  1  0
  9 44  1  1
 10 45  1  0
 11 46  1  0
 11 47  1  0
 12 48  1  6
 15 49  1  0
 17 50  1  0
 18 51  1  0
 21 52  1  0
 22 53  1  0
 23 54  1  0
 24 55  1  0
 25 56  1  0
 26 57  1  0
 27 58  1  0
 29 59  1  0
 30 60  1  0
 32 61  1  0
 35 62  1  0
 36 63  1  0
M  END
>  <smiles>  (8) 
O=C(NCC(=O)N1C[C@H](O)C[C@H]1C(=O)Nc1ccc(-c2ccccc2)cc1)c1ccc2cc(F)ccc2n1

>  <score_type>  (8) 
oracle

>  <origin>  (8) 
autodockgpu

>  <m_score__min__energy>  (8) 
-9.8499999999999996

>  <m_primary>  (8) 
energy

>  <rmsd>  (8) 
4.4100297995517685

>  <m_score__min__rmsd>  (8) 
4.4100297995517685

>  <meeko>  (8) 
{"free_energy": -8.84, "intermolecular_energy": -11.23, "internal_energy": -2.83, "cluster_size": 11, "cluster_id": 3, "rank_in_cluster": 2}

>  <energy>  (8) 
-9.5

>  <cluster_rmsd>  (8) 
1.81

>  <cluster>  (8) 
1

$$$$

     RDKit          3D

 63 67  0  0  0  0  0  0  0  0999 V2000
  140.1760   72.9570  222.5370 O   0  0  0  0  0  0  0  0  0  0  0  0
  140.0100   71.7200  222.6840 C   0  0  0  0  0  0  0  0  0  0  0  0
  139.6370   70.8500  221.6140 N   0  0  0  0  0  0  0  0  0  0  0  0
  139.4260   71.3990  220.2500 C   0  0  0  0  0  0  0  0  0  0  0  0
  140.6280   71.2490  219.4490 C   0  0  0  0  0  0  0  0  0  0  0  0
  140.4470   71.3530  218.1620 O   0  0  0  0  0  0  0  0  0  0  0  0
  141.9550   71.0100  219.8180 N   0  0  0  0  0  0  0  0  0  0  0  0
  142.4700   69.5920  219.7170 C   0  0  0  0  0  0  0  0  0  0  0  0
  143.8800   69.8170  219.1770 C   0  0  2  0  0  0  0  0  0  0  0  0
  144.7640   69.1030  219.9770 O   0  0  0  0  0  0  0  0  0  0  0  0
  144.1400   71.3110  219.2610 C   0  0  0  0  0  0  0  0  0  0  0  0
  143.0880   71.7040  220.3020 C   0  0  1  0  0  0  0  0  0  0  0  0
  143.0560   73.1280  220.5430 C   0  0  0  0  0  0  0  0  0  0  0  0
  143.9880   73.9270  220.7180 O   0  0  0  0  0  0  0  0  0  0  0  0
  141.7330   73.7380  220.5920 N   0  0  0  0  0  0  0  0  0  0  0  0
  141.6980   75.1500  220.8300 C   0  0  0  0  0  0  0  0  0  0  0  0
  142.2720   76.0390  219.9440 C   0  0  0  0  0  0  0  0  0  0  0  0
  142.2190   77.4100  220.2100 C   0  0  0  0  0  0  0  0  0  0  0  0
  141.5860   77.8730  221.3680 C   0  0  0  0  0  0  0  0  0  0  0  0
  141.5070   79.2950  221.6830 C   0  0  0  0  0  0  0  0  0  0  0  0
  141.8450   79.7680  222.9570 C   0  0  0  0  0  0  0  0  0  0  0  0
  141.7630   81.0980  223.2260 C   0  0  0  0  0  0  0  0  0  0  0  0
  141.3530   82.0440  222.2820 C   0  0  0  0  0  0  0  0  0  0  0  0
  141.0220   81.5790  221.0270 C   0  0  0  0  0  0  0  0  0  0  0  0
  141.0950   80.2260  220.7250 C   0  0  0  0  0  0  0  0  0  0  0  0
  141.0150   76.9760  222.2470 C   0  0  0  0  0  0  0  0  0  0  0  0
  141.0790   75.6260  221.9640 C   0  0  0  0  0  0  0  0  0  0  0  0
  140.2050   71.1280  224.0110 C   0  0  0  0  0  0  0  0  0  0  0  0
  140.6970   71.8960  225.0540 C   0  0  0  0  0  0  0  0  0  0  0  0
  140.9020   71.4050  226.3210 C   0  0  0  0  0  0  0  0  0  0  0  0
  140.5950   70.0700  226.5390 C   0  0  0  0  0  0  0  0  0  0  0  0
  140.8060   69.5910  227.8140 C   0  0  0  0  0  0  0  0  0  0  0  0
  140.5150   68.2780  228.0700 C   0  0  0  0  0  0  0  0  0  0  0  0
  140.7100   67.7600  229.3260 F   0  0  0  0  0  0  0  0  0  0  0  0
  140.0270   67.4980  227.0550 C   0  0  0  0  0  0  0  0  0  0  0  0
  139.8110   67.9730  225.7660 C   0  0  0  0  0  0  0  0  0  0  0  0
  140.1050   69.2950  225.5120 C   0  0  0  0  0  0  0  0  0  0  0  0
  139.9260   69.8440  224.2840 N   0  0  0  0  0  0  0  0  0  0  0  0
  139.5190   69.8370  221.8190 H   0  0  0  0  0  0  0  0  0  0  0  0
  138.5990   70.8585  219.7663 H   0  0  0  0  0  0  0  0  0  0  0  0
  139.1841   72.4690  220.3310 H   0  0  0  0  0  0  0  0  0  0  0  0
  142.4904   69.1010  220.7011 H   0  0  0  0  0  0  0  0  0  0  0  0
  141.8501   68.9336  219.0907 H   0  0  0  0  0  0  0  0  0  0  0  0
  144.0028   69.4768  218.1382 H   0  0  0  0  0  0  0  0  0  0  0  0
  144.4960   68.1590  220.0900 H   0  0  0  0  0  0  0  0  0  0  0  0
  145.1605   71.5291  219.6090 H   0  0  0  0  0  0  0  0  0  0  0  0
  144.0693   71.8488  218.3040 H   0  0  0  0  0  0  0  0  0  0  0  0
  143.2550   71.4122  221.3494 H   0  0  0  0  0  0  0  0  0  0  0  0
  140.8730   73.1620  220.4580 H   0  0  0  0  0  0  0  0  0  0  0  0
  142.7682   75.6707  219.0340 H   0  0  0  0  0  0  0  0  0  0  0  0
  142.6749   78.1246  219.5089 H   0  0  0  0  0  0  0  0  0  0  0  0
  142.1755   79.0662  223.7369 H   0  0  0  0  0  0  0  0  0  0  0  0
  142.0320   81.4463  224.2341 H   0  0  0  0  0  0  0  0  0  0  0  0
  141.2968   83.1142  222.5300 H   0  0  0  0  0  0  0  0  0  0  0  0
  140.6954   82.2902  220.2540 H   0  0  0  0  0  0  0  0  0  0  0  0
  140.8244   79.8811  219.7161 H   0  0  0  0  0  0  0  0  0  0  0  0
  140.5157   77.3313  223.1605 H   0  0  0  0  0  0  0  0  0  0  0  0
  140.6226   74.9108  222.6642 H   0  0  0  0  0  0  0  0  0  0  0  0
  140.9355   72.9518  224.8580 H   0  0  0  0  0  0  0  0  0  0  0  0
  141.2926   72.0430  227.1274 H   0  0  0  0  0  0  0  0  0  0  0  0
  141.1981   70.2467  228.6054 H   0  0  0  0  0  0  0  0  0  0  0  0
  139.7947   66.4446  227.2701 H   0  0  0  0  0  0  0  0  0  0  0  0
  139.4188   67.3157  224.9760 H   0  0  0  0  0  0  0  0  0  0  0  0
  1  2  2  0
  2  3  1  0
  3  4  1  0
  4  5  1  0
  5  6  2  0
  5  7  1  0
  7  8  1  0
  8  9  1  0
  9 10  1  0
  9 11  1  0
 11 12  1  0
 12 13  1  0
 13 14  2  0
 13 15  1  0
 15 16  1  0
 16 17  2  0
 17 18  1  0
 18 19  2  0
 19 20  1  0
 20 21  2  0
 21 22  1  0
 22 23  2  0
 23 24  1  0
 24 25  2  0
 19 26  1  0
 26 27  2  0
  2 28  1  0
 28 29  2  0
 29 30  1  0
 30 31  2  0
 31 32  1  0
 32 33  2  0
 33 34  1  0
 33 35  1  0
 35 36  2  0
 36 37  1  0
 37 38  2  0
 12  7  1  0
 27 16  1  0
 38 28  1  0
 25 20  1  0
 37 31  1  0
  3 39  1  0
  4 40  1  0
  4 41  1  0
  8 42  1  0
  8 43  1  0
  9 44  1  6
 10 45  1  0
 11 46  1  0
 11 47  1  0
 12 48  1  1
 15 49  1  0
 17 50  1  0
 18 51  1  0
 21 52  1  0
 22 53  1  0
 23 54  1  0
 24 55  1  0
 25 56  1  0
 26 57  1  0
 27 58  1  0
 29 59  1  0
 30 60  1  0
 32 61  1  0
 35 62  1  0
 36 63  1  0
M  END
>  <smiles>  (9) 
O=C(NCC(=O)N1C[C@H](O)C[C@H]1C(=O)Nc1ccc(-c2ccccc2)cc1)c1ccc2cc(F)ccc2n1

>  <score_type>  (9) 
oracle

>  <origin>  (9) 
autodockgpu

>  <m_score__min__energy>  (9) 
-9.8499999999999996

>  <m_primary>  (9) 
energy

>  <rmsd>  (9) 
4.661447083778871

>  <m_score__min__rmsd>  (9) 
4.661447083778871

>  <meeko>  (9) 
{"free_energy": -9.32, "intermolecular_energy": -11.7, "internal_energy": -2.98, "cluster_size": 7, "cluster_id": 2, "rank_in_cluster": 1}

>  <energy>  (9) 
-9.47

>  <cluster_rmsd>  (9) 
1.61

>  <cluster>  (9) 
1

$$$$

     RDKit          3D

 63 67  0  0  0  0  0  0  0  0999 V2000
  138.7010   71.9860  221.4710 O   0  0  0  0  0  0  0  0  0  0  0  0
  139.7400   72.0100  222.1780 C   0  0  0  0  0  0  0  0  0  0  0  0
  140.8990   72.7740  221.8380 N   0  0  0  0  0  0  0  0  0  0  0  0
  140.9100   73.5930  220.5980 C   0  0  0  0  0  0  0  0  0  0  0  0
  142.2050   74.2220  220.4150 C   0  0  0  0  0  0  0  0  0  0  0  0
  143.1500   73.7670  221.1890 O   0  0  0  0  0  0  0  0  0  0  0  0
  142.6210   75.2370  219.5470 N   0  0  0  0  0  0  0  0  0  0  0  0
  143.6750   74.8950  218.5180 C   0  0  0  0  0  0  0  0  0  0  0  0
  143.1660   75.6530  217.2960 C   0  0  2  0  0  0  0  0  0  0  0  0
  144.2210   76.3970  216.7830 O   0  0  0  0  0  0  0  0  0  0  0  0
  142.0420   76.5510  217.7840 C   0  0  0  0  0  0  0  0  0  0  0  0
  142.3740   76.6020  219.2780 C   0  0  1  0  0  0  0  0  0  0  0  0
  141.4020   77.3580  220.0330 C   0  0  0  0  0  0  0  0  0  0  0  0
  140.1730   77.4420  219.8900 O   0  0  0  0  0  0  0  0  0  0  0  0
  141.9280   78.1500  221.1380 N   0  0  0  0  0  0  0  0  0  0  0  0
  140.9660   78.9000  221.8900 C   0  0  0  0  0  0  0  0  0  0  0  0
  140.4790   78.4340  223.0940 C   0  0  0  0  0  0  0  0  0  0  0  0
  139.5410   79.1930  223.7980 C   0  0  0  0  0  0  0  0  0  0  0  0
  139.1040   80.4180  223.2830 C   0  0  0  0  0  0  0  0  0  0  0  0
  138.1270   81.2420  223.9870 C   0  0  0  0  0  0  0  0  0  0  0  0
  137.5130   82.3280  223.3530 C   0  0  0  0  0  0  0  0  0  0  0  0
  136.6070   83.0800  224.0300 C   0  0  0  0  0  0  0  0  0  0  0  0
  136.2410   82.8260  225.3550 C   0  0  0  0  0  0  0  0  0  0  0  0
  136.8440   81.7550  225.9800 C   0  0  0  0  0  0  0  0  0  0  0  0
  137.7750   80.9700  225.3120 C   0  0  0  0  0  0  0  0  0  0  0  0
  139.5970   80.8750  222.0790 C   0  0  0  0  0  0  0  0  0  0  0  0
  140.5230   80.1080  221.4000 C   0  0  0  0  0  0  0  0  0  0  0  0
  139.7800   71.2190  223.4120 C   0  0  0  0  0  0  0  0  0  0  0  0
  139.1720   69.9760  223.4660 C   0  0  0  0  0  0  0  0  0  0  0  0
  139.1720   69.1840  224.5890 C   0  0  0  0  0  0  0  0  0  0  0  0
  139.8200   69.6780  225.7110 C   0  0  0  0  0  0  0  0  0  0  0  0
  139.8110   68.8740  226.8290 C   0  0  0  0  0  0  0  0  0  0  0  0
  140.4410   69.3250  227.9580 C   0  0  0  0  0  0  0  0  0  0  0  0
  140.4570   68.5560  229.0940 F   0  0  0  0  0  0  0  0  0  0  0  0
  141.0500   70.5520  227.9300 C   0  0  0  0  0  0  0  0  0  0  0  0
  141.0630   71.3710  226.8070 C   0  0  0  0  0  0  0  0  0  0  0  0
  140.4290   70.9120  225.6720 C   0  0  0  0  0  0  0  0  0  0  0  0
  140.3910   71.6430  224.5290 N   0  0  0  0  0  0  0  0  0  0  0  0
  141.7180   72.7400  222.4770 H   0  0  0  0  0  0  0  0  0  0  0  0
  140.6970   72.9454  219.7347 H   0  0  0  0  0  0  0  0  0  0  0  0
  140.1429   74.3768  220.6829 H   0  0  0  0  0  0  0  0  0  0  0  0
  144.6686   75.2519  218.8269 H   0  0  0  0  0  0  0  0  0  0  0  0
  143.8063   73.8154  218.3529 H   0  0  0  0  0  0  0  0  0  0  0  0
  142.7935   74.9890  216.5021 H   0  0  0  0  0  0  0  0  0  0  0  0
  145.1010   76.0710  217.0920 H   0  0  0  0  0  0  0  0  0  0  0  0
  142.0858   77.5481  217.3216 H   0  0  0  0  0  0  0  0  0  0  0  0
  141.0283   76.1963  217.5459 H   0  0  0  0  0  0  0  0  0  0  0  0
  143.2496   77.1849  219.5996 H   0  0  0  0  0  0  0  0  0  0  0  0
  142.9490   78.1560  221.3520 H   0  0  0  0  0  0  0  0  0  0  0  0
  140.8270   77.4714  223.4968 H   0  0  0  0  0  0  0  0  0  0  0  0
  139.1460   78.8274  224.7573 H   0  0  0  0  0  0  0  0  0  0  0  0
  137.7633   82.5718  222.3100 H   0  0  0  0  0  0  0  0  0  0  0  0
  136.1389   83.9294  223.5109 H   0  0  0  0  0  0  0  0  0  0  0  0
  135.5035   83.4536  225.8767 H   0  0  0  0  0  0  0  0  0  0  0  0
  136.5840   81.5189  227.0224 H   0  0  0  0  0  0  0  0  0  0  0  0
  138.2422   80.1216  225.8335 H   0  0  0  0  0  0  0  0  0  0  0  0
  139.2577   81.8362  221.6656 H   0  0  0  0  0  0  0  0  0  0  0  0
  140.9180   80.4725  220.4402 H   0  0  0  0  0  0  0  0  0  0  0  0
  138.6634   69.6038  222.5645 H   0  0  0  0  0  0  0  0  0  0  0  0
  138.6792   68.2006  224.5975 H   0  0  0  0  0  0  0  0  0  0  0  0
  139.3105   67.8945  226.8154 H   0  0  0  0  0  0  0  0  0  0  0  0
  141.5536   70.9065  228.8414 H   0  0  0  0  0  0  0  0  0  0  0  0
  141.5618   72.3513  226.8233 H   0  0  0  0  0  0  0  0  0  0  0  0
  1  2  2  0
  2  3  1  0
  3  4  1  0
  4  5  1  0
  5  6  2  0
  5  7  1  0
  7  8  1  0
  8  9  1  0
  9 10  1  0
  9 11  1  0
 11 12  1  0
 12 13  1  0
 13 14  2  0
 13 15  1  0
 15 16  1  0
 16 17  2  0
 17 18  1  0
 18 19  2  0
 19 20  1  0
 20 21  2  0
 21 22  1  0
 22 23  2  0
 23 24  1  0
 24 25  2  0
 19 26  1  0
 26 27  2  0
  2 28  1  0
 28 29  2  0
 29 30  1  0
 30 31  2  0
 31 32  1  0
 32 33  2  0
 33 34  1  0
 33 35  1  0
 35 36  2  0
 36 37  1  0
 37 38  2  0
 12  7  1  0
 27 16  1  0
 38 28  1  0
 25 20  1  0
 37 31  1  0
  3 39  1  0
  4 40  1  0
  4 41  1  0
  8 42  1  0
  8 43  1  0
  9 44  1  6
 10 45  1  0
 11 46  1  0
 11 47  1  0
 12 48  1  6
 15 49  1  0
 17 50  1  0
 18 51  1  0
 21 52  1  0
 22 53  1  0
 23 54  1  0
 24 55  1  0
 25 56  1  0
 26 57  1  0
 27 58  1  0
 29 59  1  0
 30 60  1  0
 32 61  1  0
 35 62  1  0
 36 63  1  0
M  END
>  <smiles>  (10) 
O=C(NCC(=O)N1C[C@H](O)C[C@H]1C(=O)Nc1ccc(-c2ccccc2)cc1)c1ccc2cc(F)ccc2n1

>  <score_type>  (10) 
oracle

>  <origin>  (10) 
autodockgpu

>  <m_score__min__energy>  (10) 
-9.8499999999999996

>  <m_primary>  (10) 
energy

>  <rmsd>  (10) 
2.465340083295462

>  <m_score__min__rmsd>  (10) 
2.465340083295462

>  <meeko>  (10) 
{"free_energy": -9.05, "intermolecular_energy": -11.44, "internal_energy": -2.36, "cluster_size": 26, "cluster_id": 1, "rank_in_cluster": 19}

>  <energy>  (10) 
-9.44

>  <cluster_rmsd>  (10) 
1.57

>  <cluster>  (10) 
1

$$$$

     RDKit          3D

 63 67  0  0  0  0  0  0  0  0999 V2000
  140.0800   72.2660  221.4020 O   0  0  0  0  0  0  0  0  0  0  0  0
  139.9140   71.0350  221.5980 C   0  0  0  0  0  0  0  0  0  0  0  0
  139.8050   70.0830  220.5380 N   0  0  0  0  0  0  0  0  0  0  0  0
  139.8880   70.5340  219.1240 C   0  0  0  0  0  0  0  0  0  0  0  0
  141.2220   71.0190  218.8210 C   0  0  0  0  0  0  0  0  0  0  0  0
  141.2920   71.8390  217.8100 O   0  0  0  0  0  0  0  0  0  0  0  0
  142.4550   70.7620  219.4290 N   0  0  0  0  0  0  0  0  0  0  0  0
  143.0160   69.3620  219.3170 C   0  0  0  0  0  0  0  0  0  0  0  0
  144.4980   69.6440  219.0920 C   0  0  2  0  0  0  0  0  0  0  0  0
  145.2230   68.8720  219.9920 O   0  0  0  0  0  0  0  0  0  0  0  0
  144.6980   71.1280  219.3500 C   0  0  0  0  0  0  0  0  0  0  0  0
  143.4490   71.4210  220.1860 C   0  0  1  0  0  0  0  0  0  0  0  0
  143.3330   72.8190  220.5330 C   0  0  0  0  0  0  0  0  0  0  0  0
  144.1500   73.5730  221.0810 O   0  0  0  0  0  0  0  0  0  0  0  0
  142.0680   73.4580  220.1930 N   0  0  0  0  0  0  0  0  0  0  0  0
  141.9500   74.8440  220.5350 C   0  0  0  0  0  0  0  0  0  0  0  0
  141.1600   75.2560  221.5890 C   0  0  0  0  0  0  0  0  0  0  0  0
  141.0690   76.6170  221.8920 C   0  0  0  0  0  0  0  0  0  0  0  0
  141.7770   77.5510  221.1300 C   0  0  0  0  0  0  0  0  0  0  0  0
  141.7110   78.9810  221.4130 C   0  0  0  0  0  0  0  0  0  0  0  0
  142.0520   79.4810  222.6750 C   0  0  0  0  0  0  0  0  0  0  0  0
  141.9810   80.8170  222.9140 C   0  0  0  0  0  0  0  0  0  0  0  0
  141.5780   81.7440  221.9480 C   0  0  0  0  0  0  0  0  0  0  0  0
  141.2430   81.2530  220.7040 C   0  0  0  0  0  0  0  0  0  0  0  0
  141.3050   79.8930  220.4340 C   0  0  0  0  0  0  0  0  0  0  0  0
  142.5640   77.1300  220.0790 C   0  0  0  0  0  0  0  0  0  0  0  0
  142.6400   75.7800  219.7970 C   0  0  0  0  0  0  0  0  0  0  0  0
  139.8260   70.5390  222.9740 C   0  0  0  0  0  0  0  0  0  0  0  0
  139.1550   69.3600  223.2510 C   0  0  0  0  0  0  0  0  0  0  0  0
  139.0350   68.8390  224.5180 C   0  0  0  0  0  0  0  0  0  0  0  0
  139.6240   69.5500  225.5520 C   0  0  0  0  0  0  0  0  0  0  0  0
  139.4950   69.0170  226.8160 C   0  0  0  0  0  0  0  0  0  0  0  0
  140.0630   69.6900  227.8650 C   0  0  0  0  0  0  0  0  0  0  0  0
  139.9590   69.1940  229.1400 F   0  0  0  0  0  0  0  0  0  0  0  0
  140.7320   70.8590  227.6170 C   0  0  0  0  0  0  0  0  0  0  0  0
  140.8660   71.4050  226.3450 C   0  0  0  0  0  0  0  0  0  0  0  0
  140.2940   70.7250  225.2910 C   0  0  0  0  0  0  0  0  0  0  0  0
  140.3740   71.1820  224.0170 N   0  0  0  0  0  0  0  0  0  0  0  0
  139.6700   69.0820  220.7850 H   0  0  0  0  0  0  0  0  0  0  0  0
  139.6508   69.6893  218.4604 H   0  0  0  0  0  0  0  0  0  0  0  0
  139.1691   71.3521  218.9695 H   0  0  0  0  0  0  0  0  0  0  0  0
  142.8521   68.7885  220.2413 H   0  0  0  0  0  0  0  0  0  0  0  0
  142.5505   68.7547  218.5267 H   0  0  0  0  0  0  0  0  0  0  0  0
  144.8337   69.3948  218.0745 H   0  0  0  0  0  0  0  0  0  0  0  0
  144.9290   67.9290  220.0050 H   0  0  0  0  0  0  0  0  0  0  0  0
  145.6221   71.3238  219.9136 H   0  0  0  0  0  0  0  0  0  0  0  0
  144.8070   71.7456  218.4463 H   0  0  0  0  0  0  0  0  0  0  0  0
  143.4101   71.0416  221.2178 H   0  0  0  0  0  0  0  0  0  0  0  0
  141.3050   72.9190  219.7280 H   0  0  0  0  0  0  0  0  0  0  0  0
  140.6055   74.5176  222.1868 H   0  0  0  0  0  0  0  0  0  0  0  0
  140.4405   76.9534  222.7298 H   0  0  0  0  0  0  0  0  0  0  0  0
  142.3765   78.7947  223.4710 H   0  0  0  0  0  0  0  0  0  0  0  0
  142.2532   81.1862  223.9138 H   0  0  0  0  0  0  0  0  0  0  0  0
  141.5302   82.8201  222.1712 H   0  0  0  0  0  0  0  0  0  0  0  0
  140.9222   81.9487  219.9146 H   0  0  0  0  0  0  0  0  0  0  0  0
  141.0303   79.5267  219.4338 H   0  0  0  0  0  0  0  0  0  0  0  0
  143.1232   77.8587  219.4739 H   0  0  0  0  0  0  0  0  0  0  0  0
  143.2690   75.4431  218.9598 H   0  0  0  0  0  0  0  0  0  0  0  0
  138.6946   68.8124  222.4154 H   0  0  0  0  0  0  0  0  0  0  0  0
  138.4950   67.8987  224.7030 H   0  0  0  0  0  0  0  0  0  0  0  0
  138.9500   68.0754  226.9784 H   0  0  0  0  0  0  0  0  0  0  0  0
  141.1856   71.3922  228.4655 H   0  0  0  0  0  0  0  0  0  0  0  0
  141.4100   72.3476  226.1853 H   0  0  0  0  0  0  0  0  0  0  0  0
  1  2  2  0
  2  3  1  0
  3  4  1  0
  4  5  1  0
  5  6  2  0
  5  7  1  0
  7  8  1  0
  8  9  1  0
  9 10  1  0
  9 11  1  0
 11 12  1  0
 12 13  1  0
 13 14  2  0
 13 15  1  0
 15 16  1  0
 16 17  2  0
 17 18  1  0
 18 19  2  0
 19 20  1  0
 20 21  2  0
 21 22  1  0
 22 23  2  0
 23 24  1  0
 24 25  2  0
 19 26  1  0
 26 27  2  0
  2 28  1  0
 28 29  2  0
 29 30  1  0
 30 31  2  0
 31 32  1  0
 32 33  2  0
 33 34  1  0
 33 35  1  0
 35 36  2  0
 36 37  1  0
 37 38  2  0
 12  7  1  0
 27 16  1  0
 38 28  1  0
 25 20  1  0
 37 31  1  0
  3 39  1  0
  4 40  1  0
  4 41  1  0
  8 42  1  0
  8 43  1  0
  9 44  1  6
 10 45  1  0
 11 46  1  0
 11 47  1  0
 12 48  1  1
 15 49  1  0
 17 50  1  0
 18 51  1  0
 21 52  1  0
 22 53  1  0
 23 54  1  0
 24 55  1  0
 25 56  1  0
 26 57  1  0
 27 58  1  0
 29 59  1  0
 30 60  1  0
 32 61  1  0
 35 62  1  0
 36 63  1  0
M  END
>  <smiles>  (11) 
O=C(NCC(=O)N1C[C@H](O)C[C@H]1C(=O)Nc1ccc(-c2ccccc2)cc1)c1ccc2cc(F)ccc2n1

>  <score_type>  (11) 
oracle

>  <origin>  (11) 
autodockgpu

>  <m_score__min__energy>  (11) 
-9.8499999999999996

>  <m_primary>  (11) 
energy

>  <rmsd>  (11) 
4.653785774008327

>  <m_score__min__rmsd>  (11) 
4.653785774008327

>  <meeko>  (11) 
{"free_energy": -8.46, "intermolecular_energy": -10.85, "internal_energy": -3.33, "cluster_size": 7, "cluster_id": 2, "rank_in_cluster": 6}

>  <energy>  (11) 
-9.41

>  <cluster_rmsd>  (11) 
1.33

>  <cluster>  (11) 
1

$$$$

     RDKit          3D

 63 67  0  0  0  0  0  0  0  0999 V2000
  140.5550   72.9650  222.6290 O   0  0  0  0  0  0  0  0  0  0  0  0
  140.2050   71.7680  222.7880 C   0  0  0  0  0  0  0  0  0  0  0  0
  139.7080   70.9520  221.7250 N   0  0  0  0  0  0  0  0  0  0  0  0
  139.5860   71.5130  220.3540 C   0  0  0  0  0  0  0  0  0  0  0  0
  138.2140   71.4260  219.8880 C   0  0  0  0  0  0  0  0  0  0  0  0
  138.0670   70.8850  218.7110 O   0  0  0  0  0  0  0  0  0  0  0  0
  137.0130   71.8230  220.4850 N   0  0  0  0  0  0  0  0  0  0  0  0
  135.9090   70.7950  220.5950 C   0  0  0  0  0  0  0  0  0  0  0  0
  135.3510   71.0960  221.9830 C   0  0  2  0  0  0  0  0  0  0  0  0
  133.9700   71.2180  221.8730 O   0  0  0  0  0  0  0  0  0  0  0  0
  135.9870   72.4000  222.4300 C   0  0  0  0  0  0  0  0  0  0  0  0
  136.4200   72.9620  221.0730 C   0  0  1  0  0  0  0  0  0  0  0  0
  137.1370   74.2110  221.1970 C   0  0  0  0  0  0  0  0  0  0  0  0
  136.9830   75.2800  220.5890 O   0  0  0  0  0  0  0  0  0  0  0  0
  138.2100   74.2360  222.1830 N   0  0  0  0  0  0  0  0  0  0  0  0
  138.9220   75.4720  222.3080 C   0  0  0  0  0  0  0  0  0  0  0  0
  140.2400   75.5820  221.9110 C   0  0  0  0  0  0  0  0  0  0  0  0
  140.9020   76.8040  222.0490 C   0  0  0  0  0  0  0  0  0  0  0  0
  140.2300   77.9070  222.5850 C   0  0  0  0  0  0  0  0  0  0  0  0
  140.8840   79.2010  222.7450 C   0  0  0  0  0  0  0  0  0  0  0  0
  140.3200   80.3630  222.2070 C   0  0  0  0  0  0  0  0  0  0  0  0
  140.9490   81.5560  222.3700 C   0  0  0  0  0  0  0  0  0  0  0  0
  142.1570   81.6950  223.0620 C   0  0  0  0  0  0  0  0  0  0  0  0
  142.7110   80.5500  223.5950 C   0  0  0  0  0  0  0  0  0  0  0  0
  142.0910   79.3180  223.4420 C   0  0  0  0  0  0  0  0  0  0  0  0
  138.9130   77.7870  222.9780 C   0  0  0  0  0  0  0  0  0  0  0  0
  138.2780   76.5700  222.8330 C   0  0  0  0  0  0  0  0  0  0  0  0
  140.3050   71.1670  224.1210 C   0  0  0  0  0  0  0  0  0  0  0  0
  140.8380   71.8900  225.1760 C   0  0  0  0  0  0  0  0  0  0  0  0
  140.9600   71.3890  226.4500 C   0  0  0  0  0  0  0  0  0  0  0  0
  140.5220   70.0910  226.6620 C   0  0  0  0  0  0  0  0  0  0  0  0
  140.6510   69.6010  227.9430 C   0  0  0  0  0  0  0  0  0  0  0  0
  140.2300   68.3220  228.1950 C   0  0  0  0  0  0  0  0  0  0  0  0
  140.3400   67.7950  229.4570 F   0  0  0  0  0  0  0  0  0  0  0  0
  139.7000   67.5860  227.1680 C   0  0  0  0  0  0  0  0  0  0  0  0
  139.5660   68.0720  225.8730 C   0  0  0  0  0  0  0  0  0  0  0  0
  139.9910   69.3600  225.6230 C   0  0  0  0  0  0  0  0  0  0  0  0
  139.8990   69.9170  224.3900 N   0  0  0  0  0  0  0  0  0  0  0  0
  139.4400   69.9710  221.9390 H   0  0  0  0  0  0  0  0  0  0  0  0
  139.8979   72.5678  220.3657 H   0  0  0  0  0  0  0  0  0  0  0  0
  140.2292   70.9342  219.6748 H   0  0  0  0  0  0  0  0  0  0  0  0
  135.1465   70.9391  219.8154 H   0  0  0  0  0  0  0  0  0  0  0  0
  136.2478   69.7568  220.4630 H   0  0  0  0  0  0  0  0  0  0  0  0
  135.5709   70.3053  222.7155 H   0  0  0  0  0  0  0  0  0  0  0  0
  133.6890   71.5440  220.9830 H   0  0  0  0  0  0  0  0  0  0  0  0
  135.2616   73.0574  222.9317 H   0  0  0  0  0  0  0  0  0  0  0  0
  136.7964   72.2925  223.1671 H   0  0  0  0  0  0  0  0  0  0  0  0
  135.6439   73.3413  220.3919 H   0  0  0  0  0  0  0  0  0  0  0  0
  138.4300   73.3910  222.7540 H   0  0  0  0  0  0  0  0  0  0  0  0
  140.7652   74.7126  221.4887 H   0  0  0  0  0  0  0  0  0  0  0  0
  141.9522   76.8988  221.7360 H   0  0  0  0  0  0  0  0  0  0  0  0
  139.3706   80.3107  221.6540 H   0  0  0  0  0  0  0  0  0  0  0  0
  140.4866   82.4554  221.9374 H   0  0  0  0  0  0  0  0  0  0  0  0
  142.6437   82.6749  223.1760 H   0  0  0  0  0  0  0  0  0  0  0  0
  143.6587   80.6143  224.1498 H   0  0  0  0  0  0  0  0  0  0  0  0
  142.5557   78.4201  223.8753 H   0  0  0  0  0  0  0  0  0  0  0  0
  138.3765   78.6491  223.4010 H   0  0  0  0  0  0  0  0  0  0  0  0
  137.2277   76.4746  223.1457 H   0  0  0  0  0  0  0  0  0  0  0  0
  141.1810   72.9174  224.9841 H   0  0  0  0  0  0  0  0  0  0  0  0
  141.3865   71.9915  227.2655 H   0  0  0  0  0  0  0  0  0  0  0  0
  141.0812   70.2211  228.7433 H   0  0  0  0  0  0  0  0  0  0  0  0
  139.3641   66.5600  227.3789 H   0  0  0  0  0  0  0  0  0  0  0  0
  139.1354   67.4503  225.0742 H   0  0  0  0  0  0  0  0  0  0  0  0
  1  2  2  0
  2  3  1  0
  3  4  1  0
  4  5  1  0
  5  6  2  0
  5  7  1  0
  7  8  1  0
  8  9  1  0
  9 10  1  0
  9 11  1  0
 11 12  1  0
 12 13  1  0
 13 14  2  0
 13 15  1  0
 15 16  1  0
 16 17  2  0
 17 18  1  0
 18 19  2  0
 19 20  1  0
 20 21  2  0
 21 22  1  0
 22 23  2  0
 23 24  1  0
 24 25  2  0
 19 26  1  0
 26 27  2  0
  2 28  1  0
 28 29  2  0
 29 30  1  0
 30 31  2  0
 31 32  1  0
 32 33  2  0
 33 34  1  0
 33 35  1  0
 35 36  2  0
 36 37  1  0
 37 38  2  0
 12  7  1  0
 27 16  1  0
 38 28  1  0
 25 20  1  0
 37 31  1  0
  3 39  1  0
  4 40  1  0
  4 41  1  0
  8 42  1  0
  8 43  1  0
  9 44  1  1
 10 45  1  0
 11 46  1  0
 11 47  1  0
 12 48  1  6
 15 49  1  0
 17 50  1  0
 18 51  1  0
 21 52  1  0
 22 53  1  0
 23 54  1  0
 24 55  1  0
 25 56  1  0
 26 57  1  0
 27 58  1  0
 29 59  1  0
 30 60  1  0
 32 61  1  0
 35 62  1  0
 36 63  1  0
M  END
>  <smiles>  (12) 
O=C(NCC(=O)N1C[C@H](O)C[C@H]1C(=O)Nc1ccc(-c2ccccc2)cc1)c1ccc2cc(F)ccc2n1

>  <score_type>  (12) 
oracle

>  <origin>  (12) 
autodockgpu

>  <m_score__min__energy>  (12) 
-9.8499999999999996

>  <m_primary>  (12) 
energy

>  <rmsd>  (12) 
4.829768653518505

>  <m_score__min__rmsd>  (12) 
4.829768653518505

>  <meeko>  (12) 
{"free_energy": -8.8, "intermolecular_energy": -11.19, "internal_energy": -3.12, "cluster_size": 11, "cluster_id": 3, "rank_in_cluster": 5}

>  <energy>  (12) 
-9.31

>  <cluster_rmsd>  (12) 
1.59

>  <cluster>  (12) 
1

$$$$

     RDKit          3D

 63 67  0  0  0  0  0  0  0  0999 V2000
  139.7690   73.2530  222.7200 O   0  0  0  0  0  0  0  0  0  0  0  0
  139.9340   72.0170  222.5570 C   0  0  0  0  0  0  0  0  0  0  0  0
  140.1060   71.4160  221.2720 N   0  0  0  0  0  0  0  0  0  0  0  0
  140.0970   72.2610  220.0500 C   0  0  0  0  0  0  0  0  0  0  0  0
  141.3980   72.2410  219.4070 C   0  0  0  0  0  0  0  0  0  0  0  0
  141.4160   71.6990  218.2210 O   0  0  0  0  0  0  0  0  0  0  0  0
  142.6450   72.7050  219.8380 N   0  0  0  0  0  0  0  0  0  0  0  0
  143.8210   71.7600  219.7360 C   0  0  0  0  0  0  0  0  0  0  0  0
  144.9290   72.7010  219.2720 C   0  0  2  0  0  0  0  0  0  0  0  0
  146.0280   72.5110  220.1030 O   0  0  0  0  0  0  0  0  0  0  0  0
  144.3780   74.1100  219.3980 C   0  0  0  0  0  0  0  0  0  0  0  0
  143.2390   73.8610  220.3910 C   0  0  1  0  0  0  0  0  0  0  0  0
  142.4690   75.0540  220.6580 C   0  0  0  0  0  0  0  0  0  0  0  0
  142.5430   76.1800  220.1460 O   0  0  0  0  0  0  0  0  0  0  0  0
  141.4400   74.9340  221.6840 N   0  0  0  0  0  0  0  0  0  0  0  0
  140.6740   76.1140  221.9490 C   0  0  0  0  0  0  0  0  0  0  0  0
  139.3970   76.2660  221.4480 C   0  0  0  0  0  0  0  0  0  0  0  0
  138.6800   77.4320  221.7280 C   0  0  0  0  0  0  0  0  0  0  0  0
  139.2570   78.4350  222.5130 C   0  0  0  0  0  0  0  0  0  0  0  0
  138.5430   79.6680  222.8290 C   0  0  0  0  0  0  0  0  0  0  0  0
  137.9340   80.4250  221.8210 C   0  0  0  0  0  0  0  0  0  0  0  0
  137.2750   81.5690  222.1420 C   0  0  0  0  0  0  0  0  0  0  0  0
  137.1670   82.0470  223.4520 C   0  0  0  0  0  0  0  0  0  0  0  0
  137.7660   81.3010  224.4450 C   0  0  0  0  0  0  0  0  0  0  0  0
  138.4460   80.1290  224.1460 C   0  0  0  0  0  0  0  0  0  0  0  0
  140.5340   78.2750  223.0090 C   0  0  0  0  0  0  0  0  0  0  0  0
  141.2240   77.1140  222.7200 C   0  0  0  0  0  0  0  0  0  0  0  0
  139.9500   71.1400  223.7310 C   0  0  0  0  0  0  0  0  0  0  0  0
  139.4070   69.8680  223.6610 C   0  0  0  0  0  0  0  0  0  0  0  0
  139.3890   68.9950  224.7230 C   0  0  0  0  0  0  0  0  0  0  0  0
  139.9500   69.4360  225.9120 C   0  0  0  0  0  0  0  0  0  0  0  0
  139.9260   68.5510  226.9680 C   0  0  0  0  0  0  0  0  0  0  0  0
  140.4710   68.9480  228.1600 C   0  0  0  0  0  0  0  0  0  0  0  0
  140.4670   68.0980  229.2370 F   0  0  0  0  0  0  0  0  0  0  0  0
  141.0150   70.2020  228.2540 C   0  0  0  0  0  0  0  0  0  0  0  0
  141.0440   71.1010  227.1950 C   0  0  0  0  0  0  0  0  0  0  0  0
  140.4950   70.6980  225.9960 C   0  0  0  0  0  0  0  0  0  0  0  0
  140.4780   71.5080  224.9080 N   0  0  0  0  0  0  0  0  0  0  0  0
  140.2370   70.3860  221.2230 H   0  0  0  0  0  0  0  0  0  0  0  0
  139.3413   71.8760  219.3495 H   0  0  0  0  0  0  0  0  0  0  0  0
  139.8579   73.2960  220.3356 H   0  0  0  0  0  0  0  0  0  0  0  0
  144.0592   71.3085  220.7104 H   0  0  0  0  0  0  0  0  0  0  0  0
  143.6510   70.9035  219.0670 H   0  0  0  0  0  0  0  0  0  0  0  0
  145.2440   72.5167  218.2343 H   0  0  0  0  0  0  0  0  0  0  0  0
  145.8470   71.8660  220.8300 H   0  0  0  0  0  0  0  0  0  0  0  0
  145.1271   74.8069  219.8021 H   0  0  0  0  0  0  0  0  0  0  0  0
  144.0726   74.5751  218.4491 H   0  0  0  0  0  0  0  0  0  0  0  0
  143.4963   73.6526  221.4400 H   0  0  0  0  0  0  0  0  0  0  0  0
  141.2870   74.0310  222.1830 H   0  0  0  0  0  0  0  0  0  0  0  0
  138.9464   75.4739  220.8319 H   0  0  0  0  0  0  0  0  0  0  0  0
  137.6622   77.5609  221.3311 H   0  0  0  0  0  0  0  0  0  0  0  0
  137.9888   80.0949  220.7731 H   0  0  0  0  0  0  0  0  0  0  0  0
  136.8040   82.1468  221.3331 H   0  0  0  0  0  0  0  0  0  0  0  0
  136.6274   82.9780  223.6803 H   0  0  0  0  0  0  0  0  0  0  0  0
  137.7039   81.6400  225.4896 H   0  0  0  0  0  0  0  0  0  0  0  0
  138.9160   79.5536  224.9572 H   0  0  0  0  0  0  0  0  0  0  0  0
  140.9959   79.0602  223.6255 H   0  0  0  0  0  0  0  0  0  0  0  0
  142.2417   76.9843  223.1169 H   0  0  0  0  0  0  0  0  0  0  0  0
  138.9679   69.5394  222.7075 H   0  0  0  0  0  0  0  0  0  0  0  0
  138.9489   67.9909  224.6334 H   0  0  0  0  0  0  0  0  0  0  0  0
  139.4806   67.5514  226.8564 H   0  0  0  0  0  0  0  0  0  0  0  0
  141.4503   70.5124  229.2154 H   0  0  0  0  0  0  0  0  0  0  0  0
  141.4897   72.1001  227.3092 H   0  0  0  0  0  0  0  0  0  0  0  0
  1  2  2  0
  2  3  1  0
  3  4  1  0
  4  5  1  0
  5  6  2  0
  5  7  1  0
  7  8  1  0
  8  9  1  0
  9 10  1  0
  9 11  1  0
 11 12  1  0
 12 13  1  0
 13 14  2  0
 13 15  1  0
 15 16  1  0
 16 17  2  0
 17 18  1  0
 18 19  2  0
 19 20  1  0
 20 21  2  0
 21 22  1  0
 22 23  2  0
 23 24  1  0
 24 25  2  0
 19 26  1  0
 26 27  2  0
  2 28  1  0
 28 29  2  0
 29 30  1  0
 30 31  2  0
 31 32  1  0
 32 33  2  0
 33 34  1  0
 33 35  1  0
 35 36  2  0
 36 37  1  0
 37 38  2  0
 12  7  1  0
 27 16  1  0
 38 28  1  0
 25 20  1  0
 37 31  1  0
  3 39  1  0
  4 40  1  0
  4 41  1  0
  8 42  1  0
  8 43  1  0
  9 44  1  6
 10 45  1  0
 11 46  1  0
 11 47  1  0
 12 48  1  1
 15 49  1  0
 17 50  1  0
 18 51  1  0
 21 52  1  0
 22 53  1  0
 23 54  1  0
 24 55  1  0
 25 56  1  0
 26 57  1  0
 27 58  1  0
 29 59  1  0
 30 60  1  0
 32 61  1  0
 35 62  1  0
 36 63  1  0
M  END
>  <smiles>  (13) 
O=C(NCC(=O)N1C[C@H](O)C[C@H]1C(=O)Nc1ccc(-c2ccccc2)cc1)c1ccc2cc(F)ccc2n1

>  <score_type>  (13) 
oracle

>  <origin>  (13) 
autodockgpu

>  <m_score__min__energy>  (13) 
-9.8499999999999996

>  <m_primary>  (13) 
energy

>  <rmsd>  (13) 
3.4571580927463983

>  <m_score__min__rmsd>  (13) 
3.4571580927463983

>  <meeko>  (13) 
{"free_energy": -9.0, "intermolecular_energy": -11.39, "internal_energy": -2.69, "cluster_size": 26, "cluster_id": 1, "rank_in_cluster": 20}

>  <energy>  (13) 
-9.26

>  <cluster_rmsd>  (13) 
1.67

>  <cluster>  (13) 
1

$$$$

     RDKit          3D

 63 67  0  0  0  0  0  0  0  0999 V2000
  138.0260   71.8660  222.2450 O   0  0  0  0  0  0  0  0  0  0  0  0
  139.2160   71.4850  222.3810 C   0  0  0  0  0  0  0  0  0  0  0  0
  140.1620   71.4820  221.3100 N   0  0  0  0  0  0  0  0  0  0  0  0
  139.7550   71.9450  219.9580 C   0  0  0  0  0  0  0  0  0  0  0  0
  140.7400   72.8630  219.4160 C   0  0  0  0  0  0  0  0  0  0  0  0
  140.5380   73.2150  218.1770 O   0  0  0  0  0  0  0  0  0  0  0  0
  141.8750   73.4410  219.9940 N   0  0  0  0  0  0  0  0  0  0  0  0
  143.2240   72.8770  219.6100 C   0  0  0  0  0  0  0  0  0  0  0  0
  144.0630   74.1460  219.4930 C   0  0  2  0  0  0  0  0  0  0  0  0
  145.2240   73.9630  220.2340 O   0  0  0  0  0  0  0  0  0  0  0  0
  143.2180   75.2750  220.0590 C   0  0  0  0  0  0  0  0  0  0  0  0
  142.2270   74.4660  220.9000 C   0  0  1  0  0  0  0  0  0  0  0  0
  141.2260   75.3000  221.5260 C   0  0  0  0  0  0  0  0  0  0  0  0
  140.1900   74.9830  222.1270 O   0  0  0  0  0  0  0  0  0  0  0  0
  141.4530   76.7380  221.4480 N   0  0  0  0  0  0  0  0  0  0  0  0
  140.4630   77.5670  222.0680 C   0  0  0  0  0  0  0  0  0  0  0  0
  139.1370   77.4990  221.6930 C   0  0  0  0  0  0  0  0  0  0  0  0
  138.2000   78.3240  222.3200 C   0  0  0  0  0  0  0  0  0  0  0  0
  138.6080   79.2090  223.3220 C   0  0  0  0  0  0  0  0  0  0  0  0
  137.6620   80.0880  224.0020 C   0  0  0  0  0  0  0  0  0  0  0  0
  138.1080   81.0770  224.8870 C   0  0  0  0  0  0  0  0  0  0  0  0
  137.2070   81.8810  225.5080 C   0  0  0  0  0  0  0  0  0  0  0  0
  135.8260   81.7780  225.3100 C   0  0  0  0  0  0  0  0  0  0  0  0
  135.3870   80.8060  224.4370 C   0  0  0  0  0  0  0  0  0  0  0  0
  136.2850   79.9680  223.7900 C   0  0  0  0  0  0  0  0  0  0  0  0
  139.9360   79.2700  223.6900 C   0  0  0  0  0  0  0  0  0  0  0  0
  140.8450   78.4460  223.0570 C   0  0  0  0  0  0  0  0  0  0  0  0
  139.6680   71.0170  223.6950 C   0  0  0  0  0  0  0  0  0  0  0  0
  140.4210   71.8450  224.5100 C   0  0  0  0  0  0  0  0  0  0  0  0
  140.8760   71.4700  225.7520 C   0  0  0  0  0  0  0  0  0  0  0  0
  140.5510   70.1940  226.1860 C   0  0  0  0  0  0  0  0  0  0  0  0
  141.0130   69.8320  227.4320 C   0  0  0  0  0  0  0  0  0  0  0  0
  140.7120   68.5790  227.8970 C   0  0  0  0  0  0  0  0  0  0  0  0
  141.1530   68.1780  229.1330 F   0  0  0  0  0  0  0  0  0  0  0  0
  139.9680   67.7420  227.1090 C   0  0  0  0  0  0  0  0  0  0  0  0
  139.4970   68.0990  225.8500 C   0  0  0  0  0  0  0  0  0  0  0  0
  139.8010   69.3610  225.3860 C   0  0  0  0  0  0  0  0  0  0  0  0
  139.3850   69.7950  224.1700 N   0  0  0  0  0  0  0  0  0  0  0  0
  141.1280   71.1510  221.5060 H   0  0  0  0  0  0  0  0  0  0  0  0
  139.6644   71.0758  219.2900 H   0  0  0  0  0  0  0  0  0  0  0  0
  138.7893   72.4658  220.0366 H   0  0  0  0  0  0  0  0  0  0  0  0
  143.6158   72.2068  220.3893 H   0  0  0  0  0  0  0  0  0  0  0  0
  143.2099   72.2633  218.6972 H   0  0  0  0  0  0  0  0  0  0  0  0
  144.3483   74.3786  218.4564 H   0  0  0  0  0  0  0  0  0  0  0  0
  145.9700   74.5300  219.9180 H   0  0  0  0  0  0  0  0  0  0  0  0
  143.8146   75.9611  220.6781 H   0  0  0  0  0  0  0  0  0  0  0  0
  142.7592   75.9336  219.3068 H   0  0  0  0  0  0  0  0  0  0  0  0
  142.5880   74.0004  221.8289 H   0  0  0  0  0  0  0  0  0  0  0  0
  142.2950   77.1200  220.9650 H   0  0  0  0  0  0  0  0  0  0  0  0
  138.8196   76.7997  220.9054 H   0  0  0  0  0  0  0  0  0  0  0  0
  137.1413   78.2771  222.0252 H   0  0  0  0  0  0  0  0  0  0  0  0
  139.1839   81.2022  225.0785 H   0  0  0  0  0  0  0  0  0  0  0  0
  137.5809   82.6501  226.1999 H   0  0  0  0  0  0  0  0  0  0  0  0
  135.1208   82.4441  225.8287 H   0  0  0  0  0  0  0  0  0  0  0  0
  134.3089   80.6925  224.2501 H   0  0  0  0  0  0  0  0  0  0  0  0
  135.9079   79.1984  223.1005 H   0  0  0  0  0  0  0  0  0  0  0  0
  140.2659   79.9650  224.4763 H   0  0  0  0  0  0  0  0  0  0  0  0
  141.9040   78.4928  223.3508 H   0  0  0  0  0  0  0  0  0  0  0  0
  140.6675   72.8532  224.1456 H   0  0  0  0  0  0  0  0  0  0  0  0
  141.4724   72.1531  226.3747 H   0  0  0  0  0  0  0  0  0  0  0  0
  141.6082   70.5309  228.0381 H   0  0  0  0  0  0  0  0  0  0  0  0
  139.7312   66.7378  227.4905 H   0  0  0  0  0  0  0  0  0  0  0  0
  138.9024   67.3985  225.2453 H   0  0  0  0  0  0  0  0  0  0  0  0
  1  2  2  0
  2  3  1  0
  3  4  1  0
  4  5  1  0
  5  6  2  0
  5  7  1  0
  7  8  1  0
  8  9  1  0
  9 10  1  0
  9 11  1  0
 11 12  1  0
 12 13  1  0
 13 14  2  0
 13 15  1  0
 15 16  1  0
 16 17  2  0
 17 18  1  0
 18 19  2  0
 19 20  1  0
 20 21  2  0
 21 22  1  0
 22 23  2  0
 23 24  1  0
 24 25  2  0
 19 26  1  0
 26 27  2  0
  2 28  1  0
 28 29  2  0
 29 30  1  0
 30 31  2  0
 31 32  1  0
 32 33  2  0
 33 34  1  0
 33 35  1  0
 35 36  2  0
 36 37  1  0
 37 38  2  0
 12  7  1  0
 27 16  1  0
 38 28  1  0
 25 20  1  0
 37 31  1  0
  3 39  1  0
  4 40  1  0
  4 41  1  0
  8 42  1  0
  8 43  1  0
  9 44  1  6
 10 45  1  0
 11 46  1  0
 11 47  1  0
 12 48  1  1
 15 49  1  0
 17 50  1  0
 18 51  1  0
 21 52  1  0
 22 53  1  0
 23 54  1  0
 24 55  1  0
 25 56  1  0
 26 57  1  0
 27 58  1  0
 29 59  1  0
 30 60  1  0
 32 61  1  0
 35 62  1  0
 36 63  1  0
M  END
>  <smiles>  (14) 
O=C(NCC(=O)N1C[C@H](O)C[C@H]1C(=O)Nc1ccc(-c2ccccc2)cc1)c1ccc2cc(F)ccc2n1

>  <score_type>  (14) 
oracle

>  <origin>  (14) 
autodockgpu

>  <m_score__min__energy>  (14) 
-9.8499999999999996

>  <m_primary>  (14) 
energy

>  <rmsd>  (14) 
3.4557474434527338

>  <m_score__min__rmsd>  (14) 
3.4557474434527338

>  <meeko>  (14) 
{"free_energy": -9.51, "intermolecular_energy": -11.89, "internal_energy": -1.81, "cluster_size": 26, "cluster_id": 1, "rank_in_cluster": 7}

>  <energy>  (14) 
-9.23

>  <cluster_rmsd>  (14) 
1.61

>  <cluster>  (14) 
1

$$$$

     RDKit          3D

 63 67  0  0  0  0  0  0  0  0999 V2000
  139.5920   71.1330  220.8760 O   0  0  0  0  0  0  0  0  0  0  0  0
  140.0630   71.6790  221.9050 C   0  0  0  0  0  0  0  0  0  0  0  0
  140.7190   72.9480  221.8860 N   0  0  0  0  0  0  0  0  0  0  0  0
  140.8700   73.6850  220.6040 C   0  0  0  0  0  0  0  0  0  0  0  0
  141.4890   74.9790  220.8310 C   0  0  0  0  0  0  0  0  0  0  0  0
  141.5380   75.3520  222.0800 O   0  0  0  0  0  0  0  0  0  0  0  0
  142.0480   75.9000  219.9410 N   0  0  0  0  0  0  0  0  0  0  0  0
  143.0340   75.3820  218.9180 C   0  0  0  0  0  0  0  0  0  0  0  0
  142.6370   76.1810  217.6800 C   0  0  2  0  0  0  0  0  0  0  0  0
  143.7900   76.7490  217.1480 O   0  0  0  0  0  0  0  0  0  0  0  0
  141.6620   77.2470  218.1490 C   0  0  0  0  0  0  0  0  0  0  0  0
  142.0050   77.2810  219.6410 C   0  0  1  0  0  0  0  0  0  0  0  0
  141.1600   78.1900  220.3810 C   0  0  0  0  0  0  0  0  0  0  0  0
  140.4730   79.1410  219.9810 O   0  0  0  0  0  0  0  0  0  0  0  0
  141.0930   77.9710  221.8200 N   0  0  0  0  0  0  0  0  0  0  0  0
  140.2560   78.8700  222.5570 C   0  0  0  0  0  0  0  0  0  0  0  0
  140.7620   80.0310  223.1050 C   0  0  0  0  0  0  0  0  0  0  0  0
  139.9150   80.8830  223.8170 C   0  0  0  0  0  0  0  0  0  0  0  0
  138.5630   80.5580  223.9690 C   0  0  0  0  0  0  0  0  0  0  0  0
  137.6440   81.4210  224.7050 C   0  0  0  0  0  0  0  0  0  0  0  0
  137.0820   82.5520  224.1020 C   0  0  0  0  0  0  0  0  0  0  0  0
  136.2300   83.3400  224.8090 C   0  0  0  0  0  0  0  0  0  0  0  0
  135.8710   83.0790  226.1360 C   0  0  0  0  0  0  0  0  0  0  0  0
  136.4230   81.9640  226.7290 C   0  0  0  0  0  0  0  0  0  0  0  0
  137.2980   81.1430  226.0310 C   0  0  0  0  0  0  0  0  0  0  0  0
  138.0670   79.3960  223.4180 C   0  0  0  0  0  0  0  0  0  0  0  0
  138.9220   78.5680  222.7180 C   0  0  0  0  0  0  0  0  0  0  0  0
  139.9400   70.9920  223.1940 C   0  0  0  0  0  0  0  0  0  0  0  0
  139.2850   69.7750  223.2790 C   0  0  0  0  0  0  0  0  0  0  0  0
  139.1350   69.0770  224.4540 C   0  0  0  0  0  0  0  0  0  0  0  0
  139.6750   69.6450  225.5980 C   0  0  0  0  0  0  0  0  0  0  0  0
  139.5170   68.9360  226.7690 C   0  0  0  0  0  0  0  0  0  0  0  0
  140.0360   69.4620  227.9220 C   0  0  0  0  0  0  0  0  0  0  0  0
  139.9010   68.7890  229.1100 F   0  0  0  0  0  0  0  0  0  0  0  0
  140.6880   70.6650  227.8640 C   0  0  0  0  0  0  0  0  0  0  0  0
  140.8530   71.3880  226.6880 C   0  0  0  0  0  0  0  0  0  0  0  0
  140.3290   70.8550  225.5290 C   0  0  0  0  0  0  0  0  0  0  0  0
  140.4410   71.4890  224.3360 N   0  0  0  0  0  0  0  0  0  0  0  0
  141.0810   73.3300  222.7820 H   0  0  0  0  0  0  0  0  0  0  0  0
  141.5003   73.0971  219.9206 H   0  0  0  0  0  0  0  0  0  0  0  0
  139.8741   73.8395  220.1631 H   0  0  0  0  0  0  0  0  0  0  0  0
  144.0713   75.5934  219.2169 H   0  0  0  0  0  0  0  0  0  0  0  0
  143.0022   74.2916  218.7769 H   0  0  0  0  0  0  0  0  0  0  0  0
  142.1655   75.5624  216.9021 H   0  0  0  0  0  0  0  0  0  0  0  0
  143.6720   77.7040  216.9220 H   0  0  0  0  0  0  0  0  0  0  0  0
  141.8518   78.2159  217.6641 H   0  0  0  0  0  0  0  0  0  0  0  0
  140.6057   77.0423  217.9204 H   0  0  0  0  0  0  0  0  0  0  0  0
  142.9592   77.7344  219.9475 H   0  0  0  0  0  0  0  0  0  0  0  0
  141.6310   77.1970  222.2690 H   0  0  0  0  0  0  0  0  0  0  0  0
  141.8255   80.2837  222.9818 H   0  0  0  0  0  0  0  0  0  0  0  0
  140.3110   81.8096  224.2582 H   0  0  0  0  0  0  0  0  0  0  0  0
  137.3290   82.8022  223.0597 H   0  0  0  0  0  0  0  0  0  0  0  0
  135.8024   84.2248  224.3148 H   0  0  0  0  0  0  0  0  0  0  0  0
  135.1780   83.7356  226.6825 H   0  0  0  0  0  0  0  0  0  0  0  0
  136.1664   81.7211  227.7707 H   0  0  0  0  0  0  0  0  0  0  0  0
  137.7258   80.2602  226.5286 H   0  0  0  0  0  0  0  0  0  0  0  0
  137.0055   79.1321  223.5342 H   0  0  0  0  0  0  0  0  0  0  0  0
  138.5266   77.6413  222.2766 H   0  0  0  0  0  0  0  0  0  0  0  0
  138.8629   69.3444  222.3590 H   0  0  0  0  0  0  0  0  0  0  0  0
  138.6099   68.1109  224.4852 H   0  0  0  0  0  0  0  0  0  0  0  0
  138.9874   67.9719  226.7774 H   0  0  0  0  0  0  0  0  0  0  0  0
  141.1020   71.0801  228.7948 H   0  0  0  0  0  0  0  0  0  0  0  0
  141.3831   72.3518  226.6822 H   0  0  0  0  0  0  0  0  0  0  0  0
  1  2  2  0
  2  3  1  0
  3  4  1  0
  4  5  1  0
  5  6  2  0
  5  7  1  0
  7  8  1  0
  8  9  1  0
  9 10  1  0
  9 11  1  0
 11 12  1  0
 12 13  1  0
 13 14  2  0
 13 15  1  0
 15 16  1  0
 16 17  2  0
 17 18  1  0
 18 19  2  0
 19 20  1  0
 20 21  2  0
 21 22  1  0
 22 23  2  0
 23 24  1  0
 24 25  2  0
 19 26  1  0
 26 27  2  0
  2 28  1  0
 28 29  2  0
 29 30  1  0
 30 31  2  0
 31 32  1  0
 32 33  2  0
 33 34  1  0
 33 35  1  0
 35 36  2  0
 36 37  1  0
 37 38  2  0
 12  7  1  0
 27 16  1  0
 38 28  1  0
 25 20  1  0
 37 31  1  0
  3 39  1  0
  4 40  1  0
  4 41  1  0
  8 42  1  0
  8 43  1  0
  9 44  1  6
 10 45  1  0
 11 46  1  0
 11 47  1  0
 12 48  1  6
 15 49  1  0
 17 50  1  0
 18 51  1  0
 21 52  1  0
 22 53  1  0
 23 54  1  0
 24 55  1  0
 25 56  1  0
 26 57  1  0
 27 58  1  0
 29 59  1  0
 30 60  1  0
 32 61  1  0
 35 62  1  0
 36 63  1  0
M  END
>  <smiles>  (15) 
O=C(NCC(=O)N1C[C@H](O)C[C@H]1C(=O)Nc1ccc(-c2ccccc2)cc1)c1ccc2cc(F)ccc2n1

>  <score_type>  (15) 
oracle

>  <origin>  (15) 
autodockgpu

>  <m_score__min__energy>  (15) 
-9.8499999999999996

>  <m_primary>  (15) 
energy

>  <rmsd>  (15) 
2.3920377858491335

>  <m_score__min__rmsd>  (15) 
2.3920377858491335

>  <meeko>  (15) 
{"free_energy": -8.85, "intermolecular_energy": -11.23, "internal_energy": -3.17, "cluster_size": 26, "cluster_id": 1, "rank_in_cluster": 24}

>  <energy>  (15) 
-9.23

>  <cluster_rmsd>  (15) 
1.49

>  <cluster>  (15) 
1

$$$$

     RDKit          3D

 63 67  0  0  0  0  0  0  0  0999 V2000
  139.7660   70.7150  221.2150 O   0  0  0  0  0  0  0  0  0  0  0  0
  139.5710   71.4950  222.1810 C   0  0  0  0  0  0  0  0  0  0  0  0
  139.0160   72.8030  222.0290 N   0  0  0  0  0  0  0  0  0  0  0  0
  138.6380   73.2970  220.6790 C   0  0  0  0  0  0  0  0  0  0  0  0
  139.4010   74.4850  220.3400 C   0  0  0  0  0  0  0  0  0  0  0  0
  138.7190   75.4230  219.7450 O   0  0  0  0  0  0  0  0  0  0  0  0
  140.7470   74.8030  220.5430 N   0  0  0  0  0  0  0  0  0  0  0  0
  141.7840   73.9400  219.8600 C   0  0  0  0  0  0  0  0  0  0  0  0
  142.8060   74.9830  219.4170 C   0  0  2  0  0  0  0  0  0  0  0  0
  144.0620   74.5570  219.8330 O   0  0  0  0  0  0  0  0  0  0  0  0
  142.4120   76.2850  220.0930 C   0  0  0  0  0  0  0  0  0  0  0  0
  141.5480   75.7400  221.2330 C   0  0  1  0  0  0  0  0  0  0  0  0
  140.9620   76.7920  222.0330 C   0  0  0  0  0  0  0  0  0  0  0  0
  141.2330   77.1590  223.1850 O   0  0  0  0  0  0  0  0  0  0  0  0
  139.8870   77.5480  221.4040 N   0  0  0  0  0  0  0  0  0  0  0  0
  139.3050   78.5920  222.1930 C   0  0  0  0  0  0  0  0  0  0  0  0
  139.9930   79.7590  222.4540 C   0  0  0  0  0  0  0  0  0  0  0  0
  139.3930   80.7550  223.2290 C   0  0  0  0  0  0  0  0  0  0  0  0
  138.1030   80.5650  223.7340 C   0  0  0  0  0  0  0  0  0  0  0  0
  137.4390   81.5790  224.5470 C   0  0  0  0  0  0  0  0  0  0  0  0
  137.2870   81.4070  225.9280 C   0  0  0  0  0  0  0  0  0  0  0  0
  136.6660   82.3650  226.6630 C   0  0  0  0  0  0  0  0  0  0  0  0
  136.1570   83.5440  226.1080 C   0  0  0  0  0  0  0  0  0  0  0  0
  136.3090   83.7150  224.7480 C   0  0  0  0  0  0  0  0  0  0  0  0
  136.9380   82.7510  223.9720 C   0  0  0  0  0  0  0  0  0  0  0  0
  137.4230   79.3940  223.4680 C   0  0  0  0  0  0  0  0  0  0  0  0
  138.0350   78.4240  222.7000 C   0  0  0  0  0  0  0  0  0  0  0  0
  139.9270   71.0560  223.5330 C   0  0  0  0  0  0  0  0  0  0  0  0
  140.6730   71.8760  224.3620 C   0  0  0  0  0  0  0  0  0  0  0  0
  141.0400   71.5270  225.6400 C   0  0  0  0  0  0  0  0  0  0  0  0
  140.6310   70.2830  226.0970 C   0  0  0  0  0  0  0  0  0  0  0  0
  141.0060   69.9450  227.3790 C   0  0  0  0  0  0  0  0  0  0  0  0
  140.6200   68.7260  227.8680 C   0  0  0  0  0  0  0  0  0  0  0  0
  140.9730   68.3500  229.1400 F   0  0  0  0  0  0  0  0  0  0  0  0
  139.8810   67.8960  227.0670 C   0  0  0  0  0  0  0  0  0  0  0  0
  139.4980   68.2280  225.7730 C   0  0  0  0  0  0  0  0  0  0  0  0
  139.8880   69.4570  225.2840 C   0  0  0  0  0  0  0  0  0  0  0  0
  139.5600   69.8650  224.0330 N   0  0  0  0  0  0  0  0  0  0  0  0
  138.8860   73.3860  222.8800 H   0  0  0  0  0  0  0  0  0  0  0  0
  138.8417   72.5118  219.9361 H   0  0  0  0  0  0  0  0  0  0  0  0
  137.5675   73.5500  220.6797 H   0  0  0  0  0  0  0  0  0  0  0  0
  142.2269   73.2154  220.5591 H   0  0  0  0  0  0  0  0  0  0  0  0
  141.3855   73.3263  219.0387 H   0  0  0  0  0  0  0  0  0  0  0  0
  142.8329   75.1231  218.3263 H   0  0  0  0  0  0  0  0  0  0  0  0
  144.7860   74.8800  219.2420 H   0  0  0  0  0  0  0  0  0  0  0  0
  143.2892   76.8311  220.4704 H   0  0  0  0  0  0  0  0  0  0  0  0
  141.9112   77.0141  219.4391 H   0  0  0  0  0  0  0  0  0  0  0  0
  142.0480   75.2246  222.0663 H   0  0  0  0  0  0  0  0  0  0  0  0
  139.5740   77.3260  220.4330 H   0  0  0  0  0  0  0  0  0  0  0  0
  141.0075   79.9045  222.0545 H   0  0  0  0  0  0  0  0  0  0  0  0
  139.9353   81.6881  223.4417 H   0  0  0  0  0  0  0  0  0  0  0  0
  137.6695   80.4985  226.4162 H   0  0  0  0  0  0  0  0  0  0  0  0
  136.5580   82.2066  227.7462 H   0  0  0  0  0  0  0  0  0  0  0  0
  135.6572   84.3017  226.7294 H   0  0  0  0  0  0  0  0  0  0  0  0
  135.9260   84.6292  224.2709 H   0  0  0  0  0  0  0  0  0  0  0  0
  137.0438   82.9115  222.8889 H   0  0  0  0  0  0  0  0  0  0  0  0
  136.4083   79.2359  223.8622 H   0  0  0  0  0  0  0  0  0  0  0  0
  137.4935   77.4906  222.4868 H   0  0  0  0  0  0  0  0  0  0  0  0
  140.9884   72.8575  223.9783 H   0  0  0  0  0  0  0  0  0  0  0  0
  141.6321   72.2047  226.2725 H   0  0  0  0  0  0  0  0  0  0  0  0
  141.6003   70.6369  227.9938 H   0  0  0  0  0  0  0  0  0  0  0  0
  139.5756   66.9183  227.4679 H   0  0  0  0  0  0  0  0  0  0  0  0
  138.9041   67.5342  225.1598 H   0  0  0  0  0  0  0  0  0  0  0  0
  1  2  2  0
  2  3  1  0
  3  4  1  0
  4  5  1  0
  5  6  2  0
  5  7  1  0
  7  8  1  0
  8  9  1  0
  9 10  1  0
  9 11  1  0
 11 12  1  0
 12 13  1  0
 13 14  2  0
 13 15  1  0
 15 16  1  0
 16 17  2  0
 17 18  1  0
 18 19  2  0
 19 20  1  0
 20 21  2  0
 21 22  1  0
 22 23  2  0
 23 24  1  0
 24 25  2  0
 19 26  1  0
 26 27  2  0
  2 28  1  0
 28 29  2  0
 29 30  1  0
 30 31  2  0
 31 32  1  0
 32 33  2  0
 33 34  1  0
 33 35  1  0
 35 36  2  0
 36 37  1  0
 37 38  2  0
 12  7  1  0
 27 16  1  0
 38 28  1  0
 25 20  1  0
 37 31  1  0
  3 39  1  0
  4 40  1  0
  4 41  1  0
  8 42  1  0
  8 43  1  0
  9 44  1  6
 10 45  1  0
 11 46  1  0
 11 47  1  0
 12 48  1  1
 15 49  1  0
 17 50  1  0
 18 51  1  0
 21 52  1  0
 22 53  1  0
 23 54  1  0
 24 55  1  0
 25 56  1  0
 26 57  1  0
 27 58  1  0
 29 59  1  0
 30 60  1  0
 32 61  1  0
 35 62  1  0
 36 63  1  0
M  END
>  <smiles>  (16) 
O=C(NCC(=O)N1C[C@H](O)C[C@H]1C(=O)Nc1ccc(-c2ccccc2)cc1)c1ccc2cc(F)ccc2n1

>  <score_type>  (16) 
oracle

>  <origin>  (16) 
autodockgpu

>  <m_score__min__energy>  (16) 
-9.8499999999999996

>  <m_primary>  (16) 
energy

>  <rmsd>  (16) 
3.13608860608811

>  <m_score__min__rmsd>  (16) 
3.13608860608811

>  <meeko>  (16) 
{"free_energy": -8.8, "intermolecular_energy": -11.19, "internal_energy": -2.5, "cluster_size": 26, "cluster_id": 1, "rank_in_cluster": 26}

>  <energy>  (16) 
-9.19

>  <cluster_rmsd>  (16) 
1.01

>  <cluster>  (16) 
1

$$$$

     RDKit          3D

 63 67  0  0  0  0  0  0  0  0999 V2000
  138.8340   77.1080  223.0140 O   0  0  0  0  0  0  0  0  0  0  0  0
  139.7860   76.4840  222.4780 C   0  0  0  0  0  0  0  0  0  0  0  0
  141.1230   76.9860  222.4360 N   0  0  0  0  0  0  0  0  0  0  0  0
  141.4400   78.3040  223.0460 C   0  0  0  0  0  0  0  0  0  0  0  0
  141.9000   79.2360  222.0320 C   0  0  0  0  0  0  0  0  0  0  0  0
  142.6960   80.1720  222.4690 O   0  0  0  0  0  0  0  0  0  0  0  0
  141.6390   79.3060  220.6610 N   0  0  0  0  0  0  0  0  0  0  0  0
  141.2310   80.6460  220.0890 C   0  0  0  0  0  0  0  0  0  0  0  0
  141.9910   80.6570  218.7660 C   0  0  2  0  0  0  0  0  0  0  0  0
  141.0930   80.9890  217.7580 O   0  0  0  0  0  0  0  0  0  0  0  0
  142.5440   79.2550  218.5750 C   0  0  0  0  0  0  0  0  0  0  0  0
  141.6220   78.4770  219.5170 C   0  0  1  0  0  0  0  0  0  0  0  0
  141.9660   77.0750  219.5930 C   0  0  0  0  0  0  0  0  0  0  0  0
  141.2570   76.0950  219.8590 O   0  0  0  0  0  0  0  0  0  0  0  0
  143.3590   76.7450  219.3170 N   0  0  0  0  0  0  0  0  0  0  0  0
  143.7040   75.3560  219.3910 C   0  0  0  0  0  0  0  0  0  0  0  0
  144.4350   74.8570  220.4490 C   0  0  0  0  0  0  0  0  0  0  0  0
  144.7530   73.4970  220.4860 C   0  0  0  0  0  0  0  0  0  0  0  0
  144.3290   72.6520  219.4560 C   0  0  0  0  0  0  0  0  0  0  0  0
  144.6390   71.2260  219.4570 C   0  0  0  0  0  0  0  0  0  0  0  0
  143.6680   70.2790  219.8060 C   0  0  0  0  0  0  0  0  0  0  0  0
  143.9820   68.9570  219.7990 C   0  0  0  0  0  0  0  0  0  0  0  0
  145.2490   68.4750  219.4540 C   0  0  0  0  0  0  0  0  0  0  0  0
  146.2050   69.4070  219.1090 C   0  0  0  0  0  0  0  0  0  0  0  0
  145.9120   70.7640  219.1090 C   0  0  0  0  0  0  0  0  0  0  0  0
  143.5990   73.1600  218.4030 C   0  0  0  0  0  0  0  0  0  0  0  0
  143.2960   74.5070  218.3860 C   0  0  0  0  0  0  0  0  0  0  0  0
  139.5250   75.1800  221.8620 C   0  0  0  0  0  0  0  0  0  0  0  0
  138.3740   74.9750  221.1200 C   0  0  0  0  0  0  0  0  0  0  0  0
  138.0680   73.7780  220.5160 C   0  0  0  0  0  0  0  0  0  0  0  0
  138.9740   72.7410  220.6750 C   0  0  0  0  0  0  0  0  0  0  0  0
  138.6550   71.5480  220.0650 C   0  0  0  0  0  0  0  0  0  0  0  0
  139.5250   70.4980  220.1970 C   0  0  0  0  0  0  0  0  0  0  0  0
  139.2460   69.2920  219.6060 F   0  0  0  0  0  0  0  0  0  0  0  0
  140.6700   70.6760  220.9270 C   0  0  0  0  0  0  0  0  0  0  0  0
  141.0000   71.8760  221.5460 C   0  0  0  0  0  0  0  0  0  0  0  0
  140.1230   72.9310  221.4100 C   0  0  0  0  0  0  0  0  0  0  0  0
  140.3620   74.1380  221.9800 N   0  0  0  0  0  0  0  0  0  0  0  0
  141.8530   76.4080  221.9740 H   0  0  0  0  0  0  0  0  0  0  0  0
  140.5361   78.7078  223.5255 H   0  0  0  0  0  0  0  0  0  0  0  0
  142.2367   78.1683  223.7923 H   0  0  0  0  0  0  0  0  0  0  0  0
  140.1441   80.7001  219.9284 H   0  0  0  0  0  0  0  0  0  0  0  0
  141.4580   81.5005  220.7434 H   0  0  0  0  0  0  0  0  0  0  0  0
  142.8141   81.3865  218.7488 H   0  0  0  0  0  0  0  0  0  0  0  0
  141.5000   80.9440  216.8590 H   0  0  0  0  0  0  0  0  0  0  0  0
  142.4449   78.9151  217.5335 H   0  0  0  0  0  0  0  0  0  0  0  0
  143.6186   79.1476  218.7841 H   0  0  0  0  0  0  0  0  0  0  0  0
  140.5758   78.3233  219.2141 H   0  0  0  0  0  0  0  0  0  0  0  0
  144.0490   77.4910  219.0810 H   0  0  0  0  0  0  0  0  0  0  0  0
  144.7653   75.5252  221.2580 H   0  0  0  0  0  0  0  0  0  0  0  0
  145.3368   73.0912  221.3253 H   0  0  0  0  0  0  0  0  0  0  0  0
  142.6548   70.6042  220.0848 H   0  0  0  0  0  0  0  0  0  0  0  0
  143.2033   68.2318  220.0777 H   0  0  0  0  0  0  0  0  0  0  0  0
  145.4733   67.3981  219.4577 H   0  0  0  0  0  0  0  0  0  0  0  0
  147.2143   69.0704  218.8298 H   0  0  0  0  0  0  0  0  0  0  0  0
  146.6932   71.4868  218.8310 H   0  0  0  0  0  0  0  0  0  0  0  0
  143.2627   72.5020  217.5882 H   0  0  0  0  0  0  0  0  0  0  0  0
  142.7126   74.9134  217.5466 H   0  0  0  0  0  0  0  0  0  0  0  0
  137.6688   75.8118  221.0080 H   0  0  0  0  0  0  0  0  0  0  0  0
  137.1446   73.6491  219.9322 H   0  0  0  0  0  0  0  0  0  0  0  0
  137.7255   71.4410  219.4866 H   0  0  0  0  0  0  0  0  0  0  0  0
  141.3626   69.8275  221.0285 H   0  0  0  0  0  0  0  0  0  0  0  0
  141.9295   71.9804  222.1249 H   0  0  0  0  0  0  0  0  0  0  0  0
  1  2  2  0
  2  3  1  0
  3  4  1  0
  4  5  1  0
  5  6  2  0
  5  7  1  0
  7  8  1  0
  8  9  1  0
  9 10  1  0
  9 11  1  0
 11 12  1  0
 12 13  1  0
 13 14  2  0
 13 15  1  0
 15 16  1  0
 16 17  2  0
 17 18  1  0
 18 19  2  0
 19 20  1  0
 20 21  2  0
 21 22  1  0
 22 23  2  0
 23 24  1  0
 24 25  2  0
 19 26  1  0
 26 27  2  0
  2 28  1  0
 28 29  2  0
 29 30  1  0
 30 31  2  0
 31 32  1  0
 32 33  2  0
 33 34  1  0
 33 35  1  0
 35 36  2  0
 36 37  1  0
 37 38  2  0
 12  7  1  0
 27 16  1  0
 38 28  1  0
 25 20  1  0
 37 31  1  0
  3 39  1  0
  4 40  1  0
  4 41  1  0
  8 42  1  0
  8 43  1  0
  9 44  1  1
 10 45  1  0
 11 46  1  0
 11 47  1  0
 12 48  1  6
 15 49  1  0
 17 50  1  0
 18 51  1  0
 21 52  1  0
 22 53  1  0
 23 54  1  0
 24 55  1  0
 25 56  1  0
 26 57  1  0
 27 58  1  0
 29 59  1  0
 30 60  1  0
 32 61  1  0
 35 62  1  0
 36 63  1  0
M  END
>  <smiles>  (17) 
O=C(NCC(=O)N1C[C@H](O)C[C@H]1C(=O)Nc1ccc(-c2ccccc2)cc1)c1ccc2cc(F)ccc2n1

>  <score_type>  (17) 
oracle

>  <origin>  (17) 
autodockgpu

>  <m_score__min__energy>  (17) 
-9.8499999999999996

>  <m_primary>  (17) 
energy

>  <rmsd>  (17) 
6.969212005284835

>  <m_score__min__rmsd>  (17) 
6.969212005284835

>  <meeko>  (17) 
{"free_energy": -7.66, "intermolecular_energy": -10.05, "internal_energy": -3.85, "cluster_size": 2, "cluster_id": 6, "rank_in_cluster": 1}

>  <energy>  (17) 
-9.17

>  <cluster_rmsd>  (17) 
1.75

>  <cluster>  (17) 
1

$$$$

     RDKit          3D

 63 67  0  0  0  0  0  0  0  0999 V2000
  140.1090   72.7150  222.2940 O   0  0  0  0  0  0  0  0  0  0  0  0
  139.9510   71.4950  222.5480 C   0  0  0  0  0  0  0  0  0  0  0  0
  139.5410   70.5390  221.5670 N   0  0  0  0  0  0  0  0  0  0  0  0
  139.2820   70.9750  220.1700 C   0  0  0  0  0  0  0  0  0  0  0  0
  140.5120   71.4150  219.5380 C   0  0  0  0  0  0  0  0  0  0  0  0
  140.3500   72.1870  218.5000 O   0  0  0  0  0  0  0  0  0  0  0  0
  141.8510   71.1540  219.8480 N   0  0  0  0  0  0  0  0  0  0  0  0
  142.3450   69.7340  219.6940 C   0  0  0  0  0  0  0  0  0  0  0  0
  143.7350   69.9570  219.1040 C   0  0  2  0  0  0  0  0  0  0  0  0
  144.6420   69.2160  219.8510 O   0  0  0  0  0  0  0  0  0  0  0  0
  144.0140   71.4460  219.2110 C   0  0  0  0  0  0  0  0  0  0  0  0
  143.0090   71.8250  220.3020 C   0  0  1  0  0  0  0  0  0  0  0  0
  143.0020   73.2440  220.5760 C   0  0  0  0  0  0  0  0  0  0  0  0
  143.9420   74.0070  220.8410 O   0  0  0  0  0  0  0  0  0  0  0  0
  141.6980   73.8950  220.5420 N   0  0  0  0  0  0  0  0  0  0  0  0
  141.6890   75.3010  220.8130 C   0  0  0  0  0  0  0  0  0  0  0  0
  142.2760   76.2010  219.9460 C   0  0  0  0  0  0  0  0  0  0  0  0
  142.2470   77.5650  220.2450 C   0  0  0  0  0  0  0  0  0  0  0  0
  141.6250   78.0120  221.4150 C   0  0  0  0  0  0  0  0  0  0  0  0
  141.5730   79.4280  221.7640 C   0  0  0  0  0  0  0  0  0  0  0  0
  141.1820   80.3860  220.8220 C   0  0  0  0  0  0  0  0  0  0  0  0
  141.1410   81.6980  221.1720 C   0  0  0  0  0  0  0  0  0  0  0  0
  141.4750   82.1590  222.4490 C   0  0  0  0  0  0  0  0  0  0  0  0
  141.8580   81.2150  223.3780 C   0  0  0  0  0  0  0  0  0  0  0  0
  141.9100   79.8680  223.0480 C   0  0  0  0  0  0  0  0  0  0  0  0
  141.0420   77.1050  222.2750 C   0  0  0  0  0  0  0  0  0  0  0  0
  141.0820   75.7610  221.9600 C   0  0  0  0  0  0  0  0  0  0  0  0
  140.1930   71.0140  223.9110 C   0  0  0  0  0  0  0  0  0  0  0  0
  140.7020   71.8690  224.8740 C   0  0  0  0  0  0  0  0  0  0  0  0
  140.9520   71.4850  226.1700 C   0  0  0  0  0  0  0  0  0  0  0  0
  140.6720   70.1680  226.5030 C   0  0  0  0  0  0  0  0  0  0  0  0
  140.9280   69.7960  227.8050 C   0  0  0  0  0  0  0  0  0  0  0  0
  140.6640   68.5040  228.1750 C   0  0  0  0  0  0  0  0  0  0  0  0
  140.9040   68.0920  229.4610 F   0  0  0  0  0  0  0  0  0  0  0  0
  140.1600   67.6390  227.2400 C   0  0  0  0  0  0  0  0  0  0  0  0
  139.8990   68.0050  225.9250 C   0  0  0  0  0  0  0  0  0  0  0  0
  140.1650   69.3070  225.5560 C   0  0  0  0  0  0  0  0  0  0  0  0
  139.9420   69.7530  224.2950 N   0  0  0  0  0  0  0  0  0  0  0  0
  139.4330   69.5480  221.8590 H   0  0  0  0  0  0  0  0  0  0  0  0
  138.8633   70.1327  219.5997 H   0  0  0  0  0  0  0  0  0  0  0  0
  138.5705   71.8137  220.1855 H   0  0  0  0  0  0  0  0  0  0  0  0
  142.3985   69.2197  220.6649 H   0  0  0  0  0  0  0  0  0  0  0  0
  141.6934   69.0971  219.0778 H   0  0  0  0  0  0  0  0  0  0  0  0
  143.8131   69.6393  218.0538 H   0  0  0  0  0  0  0  0  0  0  0  0
  144.7020   68.2750  219.5520 H   0  0  0  0  0  0  0  0  0  0  0  0
  145.0499   71.6462  219.5223 H   0  0  0  0  0  0  0  0  0  0  0  0
  143.9107   72.0063  218.2700 H   0  0  0  0  0  0  0  0  0  0  0  0
  143.2143   71.5075  221.3350 H   0  0  0  0  0  0  0  0  0  0  0  0
  140.8340   73.3500  220.3300 H   0  0  0  0  0  0  0  0  0  0  0  0
  142.7633   75.8461  219.0259 H   0  0  0  0  0  0  0  0  0  0  0  0
  142.7136   78.2880  219.5598 H   0  0  0  0  0  0  0  0  0  0  0  0
  140.9089   80.0779  219.8020 H   0  0  0  0  0  0  0  0  0  0  0  0
  140.8302   82.4327  220.4146 H   0  0  0  0  0  0  0  0  0  0  0  0
  141.4340   83.2288  222.7016 H   0  0  0  0  0  0  0  0  0  0  0  0
  142.1263   81.5342  224.3959 H   0  0  0  0  0  0  0  0  0  0  0  0
  142.2209   79.1356  223.8076 H   0  0  0  0  0  0  0  0  0  0  0  0
  140.5522   77.4472  223.1986 H   0  0  0  0  0  0  0  0  0  0  0  0
  140.6157   75.0375  222.6449 H   0  0  0  0  0  0  0  0  0  0  0  0
  140.9173   72.9089  224.5872 H   0  0  0  0  0  0  0  0  0  0  0  0
  141.3563   72.1910  226.9103 H   0  0  0  0  0  0  0  0  0  0  0  0
  141.3340   70.5182  228.5286 H   0  0  0  0  0  0  0  0  0  0  0  0
  139.9515   66.6030  227.5453 H   0  0  0  0  0  0  0  0  0  0  0  0
  139.4940   67.2808  225.2029 H   0  0  0  0  0  0  0  0  0  0  0  0
  1  2  2  0
  2  3  1  0
  3  4  1  0
  4  5  1  0
  5  6  2  0
  5  7  1  0
  7  8  1  0
  8  9  1  0
  9 10  1  0
  9 11  1  0
 11 12  1  0
 12 13  1  0
 13 14  2  0
 13 15  1  0
 15 16  1  0
 16 17  2  0
 17 18  1  0
 18 19  2  0
 19 20  1  0
 20 21  2  0
 21 22  1  0
 22 23  2  0
 23 24  1  0
 24 25  2  0
 19 26  1  0
 26 27  2  0
  2 28  1  0
 28 29  2  0
 29 30  1  0
 30 31  2  0
 31 32  1  0
 32 33  2  0
 33 34  1  0
 33 35  1  0
 35 36  2  0
 36 37  1  0
 37 38  2  0
 12  7  1  0
 27 16  1  0
 38 28  1  0
 25 20  1  0
 37 31  1  0
  3 39  1  0
  4 40  1  0
  4 41  1  0
  8 42  1  0
  8 43  1  0
  9 44  1  6
 10 45  1  0
 11 46  1  0
 11 47  1  0
 12 48  1  1
 15 49  1  0
 17 50  1  0
 18 51  1  0
 21 52  1  0
 22 53  1  0
 23 54  1  0
 24 55  1  0
 25 56  1  0
 26 57  1  0
 27 58  1  0
 29 59  1  0
 30 60  1  0
 32 61  1  0
 35 62  1  0
 36 63  1  0
M  END
>  <smiles>  (18) 
O=C(NCC(=O)N1C[C@H](O)C[C@H]1C(=O)Nc1ccc(-c2ccccc2)cc1)c1ccc2cc(F)ccc2n1

>  <score_type>  (18) 
oracle

>  <origin>  (18) 
autodockgpu

>  <m_score__min__energy>  (18) 
-9.8499999999999996

>  <m_primary>  (18) 
energy

>  <rmsd>  (18) 
4.516008736945459

>  <m_score__min__rmsd>  (18) 
4.516008736945459

>  <meeko>  (18) 
{"free_energy": -8.97, "intermolecular_energy": -11.35, "internal_energy": -3.62, "cluster_size": 7, "cluster_id": 2, "rank_in_cluster": 3}

>  <energy>  (18) 
-9.12

>  <cluster_rmsd>  (18) 
1.84

>  <cluster>  (18) 
1

$$$$

     RDKit          3D

 63 67  0  0  0  0  0  0  0  0999 V2000
  139.6980   73.1090  222.7480 O   0  0  0  0  0  0  0  0  0  0  0  0
  140.1440   71.9340  222.7360 C   0  0  0  0  0  0  0  0  0  0  0  0
  140.4270   71.2190  221.5320 N   0  0  0  0  0  0  0  0  0  0  0  0
  140.1960   71.8640  220.2140 C   0  0  0  0  0  0  0  0  0  0  0  0
  141.4180   71.8750  219.4310 C   0  0  0  0  0  0  0  0  0  0  0  0
  141.4020   71.1070  218.3770 O   0  0  0  0  0  0  0  0  0  0  0  0
  142.6190   72.5700  219.6090 N   0  0  0  0  0  0  0  0  0  0  0  0
  143.9080   71.8240  219.3510 C   0  0  0  0  0  0  0  0  0  0  0  0
  144.7430   72.8920  218.6480 C   0  0  2  0  0  0  0  0  0  0  0  0
  145.9800   72.9530  219.2790 O   0  0  0  0  0  0  0  0  0  0  0  0
  143.9820   74.1980  218.7940 C   0  0  0  0  0  0  0  0  0  0  0  0
  143.0850   73.8500  219.9850 C   0  0  1  0  0  0  0  0  0  0  0  0
  142.1720   74.9190  220.3200 C   0  0  0  0  0  0  0  0  0  0  0  0
  141.8910   75.9500  219.6930 O   0  0  0  0  0  0  0  0  0  0  0  0
  141.4650   74.7810  221.5870 N   0  0  0  0  0  0  0  0  0  0  0  0
  140.5590   75.8390  221.9210 C   0  0  0  0  0  0  0  0  0  0  0  0
  139.1960   75.6920  221.7570 C   0  0  0  0  0  0  0  0  0  0  0  0
  138.3440   76.7470  222.0940 C   0  0  0  0  0  0  0  0  0  0  0  0
  138.8730   77.9410  222.5940 C   0  0  0  0  0  0  0  0  0  0  0  0
  138.0180   79.0660  222.9580 C   0  0  0  0  0  0  0  0  0  0  0  0
  138.5180   80.1340  223.7120 C   0  0  0  0  0  0  0  0  0  0  0  0
  137.7020   81.1700  224.0380 C   0  0  0  0  0  0  0  0  0  0  0  0
  136.3580   81.2340  223.6550 C   0  0  0  0  0  0  0  0  0  0  0  0
  135.8660   80.1820  222.9110 C   0  0  0  0  0  0  0  0  0  0  0  0
  136.6770   79.1110  222.5650 C   0  0  0  0  0  0  0  0  0  0  0  0
  140.2360   78.0780  222.7540 C   0  0  0  0  0  0  0  0  0  0  0  0
  141.0600   77.0230  222.4150 C   0  0  0  0  0  0  0  0  0  0  0  0
  140.3880   71.2530  224.0110 C   0  0  0  0  0  0  0  0  0  0  0  0
  140.9600   71.9360  225.0710 C   0  0  0  0  0  0  0  0  0  0  0  0
  141.2160   71.3580  226.2920 C   0  0  0  0  0  0  0  0  0  0  0  0
  140.8750   70.0230  226.4430 C   0  0  0  0  0  0  0  0  0  0  0  0
  141.1380   69.4570  227.6710 C   0  0  0  0  0  0  0  0  0  0  0  0
  140.8150   68.1390  227.8600 C   0  0  0  0  0  0  0  0  0  0  0  0
  141.0590   67.5360  229.0680 F   0  0  0  0  0  0  0  0  0  0  0  0
  140.2480   67.4410  226.8270 C   0  0  0  0  0  0  0  0  0  0  0  0
  139.9800   68.0040  225.5840 C   0  0  0  0  0  0  0  0  0  0  0  0
  140.3060   69.3310  225.3970 C   0  0  0  0  0  0  0  0  0  0  0  0
  140.0810   69.9630  224.2180 N   0  0  0  0  0  0  0  0  0  0  0  0
  140.7940   70.2490  221.6090 H   0  0  0  0  0  0  0  0  0  0  0  0
  139.4217   71.3048  219.6683 H   0  0  0  0  0  0  0  0  0  0  0  0
  139.8702   72.9017  220.3786 H   0  0  0  0  0  0  0  0  0  0  0  0
  144.3793   71.4995  220.2904 H   0  0  0  0  0  0  0  0  0  0  0  0
  143.7819   70.8988  218.7695 H   0  0  0  0  0  0  0  0  0  0  0  0
  144.9096   72.6763  217.5823 H   0  0  0  0  0  0  0  0  0  0  0  0
  146.4160   73.8340  219.1730 H   0  0  0  0  0  0  0  0  0  0  0  0
  144.6538   75.0390  219.0207 H   0  0  0  0  0  0  0  0  0  0  0  0
  143.4469   74.5264  217.8908 H   0  0  0  0  0  0  0  0  0  0  0  0
  143.5457   73.7749  220.9810 H   0  0  0  0  0  0  0  0  0  0  0  0
  141.6230   73.9520  222.2000 H   0  0  0  0  0  0  0  0  0  0  0  0
  138.7837   74.7510  221.3638 H   0  0  0  0  0  0  0  0  0  0  0  0
  137.2569   76.6383  221.9659 H   0  0  0  0  0  0  0  0  0  0  0  0
  139.5681   80.1344  224.0395 H   0  0  0  0  0  0  0  0  0  0  0  0
  138.1177   81.9978  224.6312 H   0  0  0  0  0  0  0  0  0  0  0  0
  135.7214   82.0862  223.9350 H   0  0  0  0  0  0  0  0  0  0  0  0
  134.8148   80.1924  222.5871 H   0  0  0  0  0  0  0  0  0  0  0  0
  136.2585   78.2843  221.9722 H   0  0  0  0  0  0  0  0  0  0  0  0
  140.6605   79.0140  223.1459 H   0  0  0  0  0  0  0  0  0  0  0  0
  142.1471   77.1313  222.5431 H   0  0  0  0  0  0  0  0  0  0  0  0
  141.2229   72.9946  224.9290 H   0  0  0  0  0  0  0  0  0  0  0  0
  141.6717   71.9303  227.1135 H   0  0  0  0  0  0  0  0  0  0  0  0
  141.5953   70.0476  228.4785 H   0  0  0  0  0  0  0  0  0  0  0  0
  139.9921   66.3834  226.9884 H   0  0  0  0  0  0  0  0  0  0  0  0
  139.5236   67.4113  224.7775 H   0  0  0  0  0  0  0  0  0  0  0  0
  1  2  2  0
  2  3  1  0
  3  4  1  0
  4  5  1  0
  5  6  2  0
  5  7  1  0
  7  8  1  0
  8  9  1  0
  9 10  1  0
  9 11  1  0
 11 12  1  0
 12 13  1  0
 13 14  2  0
 13 15  1  0
 15 16  1  0
 16 17  2  0
 17 18  1  0
 18 19  2  0
 19 20  1  0
 20 21  2  0
 21 22  1  0
 22 23  2  0
 23 24  1  0
 24 25  2  0
 19 26  1  0
 26 27  2  0
  2 28  1  0
 28 29  2  0
 29 30  1  0
 30 31  2  0
 31 32  1  0
 32 33  2  0
 33 34  1  0
 33 35  1  0
 35 36  2  0
 36 37  1  0
 37 38  2  0
 12  7  1  0
 27 16  1  0
 38 28  1  0
 25 20  1  0
 37 31  1  0
  3 39  1  0
  4 40  1  0
  4 41  1  0
  8 42  1  0
  8 43  1  0
  9 44  1  6
 10 45  1  0
 11 46  1  0
 11 47  1  0
 12 48  1  1
 15 49  1  0
 17 50  1  0
 18 51  1  0
 21 52  1  0
 22 53  1  0
 23 54  1  0
 24 55  1  0
 25 56  1  0
 26 57  1  0
 27 58  1  0
 29 59  1  0
 30 60  1  0
 32 61  1  0
 35 62  1  0
 36 63  1  0
M  END
>  <smiles>  (19) 
O=C(NCC(=O)N1C[C@H](O)C[C@H]1C(=O)Nc1ccc(-c2ccccc2)cc1)c1ccc2cc(F)ccc2n1

>  <score_type>  (19) 
oracle

>  <origin>  (19) 
autodockgpu

>  <m_score__min__energy>  (19) 
-9.8499999999999996

>  <m_primary>  (19) 
energy

>  <rmsd>  (19) 
4.0504630726197535

>  <m_score__min__rmsd>  (19) 
4.0504630726197535

>  <meeko>  (19) 
{"free_energy": -8.81, "intermolecular_energy": -11.2, "internal_energy": -2.83, "cluster_size": 26, "cluster_id": 1, "rank_in_cluster": 25}

>  <energy>  (19) 
-9.05

>  <cluster_rmsd>  (19) 
1.56

>  <cluster>  (19) 
1

$$$$

     RDKit          3D

 63 67  0  0  0  0  0  0  0  0999 V2000
  139.9530   73.3220  222.7380 O   0  0  0  0  0  0  0  0  0  0  0  0
  140.1170   72.0870  222.5720 C   0  0  0  0  0  0  0  0  0  0  0  0
  140.3310   71.4930  221.2900 N   0  0  0  0  0  0  0  0  0  0  0  0
  140.3680   72.3470  220.0740 C   0  0  0  0  0  0  0  0  0  0  0  0
  141.6100   72.1470  219.3490 C   0  0  0  0  0  0  0  0  0  0  0  0
  141.6140   71.1250  218.5390 O   0  0  0  0  0  0  0  0  0  0  0  0
  142.8100   72.8640  219.3660 N   0  0  0  0  0  0  0  0  0  0  0  0
  144.0690   72.1370  218.9500 C   0  0  0  0  0  0  0  0  0  0  0  0
  144.7870   73.2110  218.1380 C   0  0  2  0  0  0  0  0  0  0  0  0
  146.0940   73.3000  218.6040 O   0  0  0  0  0  0  0  0  0  0  0  0
  144.0280   74.5060  218.3700 C   0  0  0  0  0  0  0  0  0  0  0  0
  143.2980   74.1550  219.6690 C   0  0  1  0  0  0  0  0  0  0  0  0
  142.4170   75.2120  220.1100 C   0  0  0  0  0  0  0  0  0  0  0  0
  142.2390   76.3460  219.6430 O   0  0  0  0  0  0  0  0  0  0  0  0
  141.6050   74.9180  221.2850 N   0  0  0  0  0  0  0  0  0  0  0  0
  140.7300   75.9640  221.7240 C   0  0  0  0  0  0  0  0  0  0  0  0
  139.3620   75.8630  221.5700 C   0  0  0  0  0  0  0  0  0  0  0  0
  138.5410   76.9040  222.0100 C   0  0  0  0  0  0  0  0  0  0  0  0
  139.1050   78.0370  222.6030 C   0  0  0  0  0  0  0  0  0  0  0  0
  138.2830   79.1460  223.0770 C   0  0  0  0  0  0  0  0  0  0  0  0
  138.8330   80.1620  223.8680 C   0  0  0  0  0  0  0  0  0  0  0  0
  138.0470   81.1830  224.2970 C   0  0  0  0  0  0  0  0  0  0  0  0
  136.6870   81.2820  223.9860 C   0  0  0  0  0  0  0  0  0  0  0  0
  136.1450   80.2830  223.2050 C   0  0  0  0  0  0  0  0  0  0  0  0
  136.9250   79.2270  222.7550 C   0  0  0  0  0  0  0  0  0  0  0  0
  140.4730   78.1280  222.7530 C   0  0  0  0  0  0  0  0  0  0  0  0
  141.2660   77.0880  222.3100 C   0  0  0  0  0  0  0  0  0  0  0  0
  140.0890   71.2020  223.7400 C   0  0  0  0  0  0  0  0  0  0  0  0
  139.5380   69.9350  223.6440 C   0  0  0  0  0  0  0  0  0  0  0  0
  139.4800   69.0550  224.6990 C   0  0  0  0  0  0  0  0  0  0  0  0
  140.0060   69.4830  225.9080 C   0  0  0  0  0  0  0  0  0  0  0  0
  139.9410   68.5910  226.9570 C   0  0  0  0  0  0  0  0  0  0  0  0
  140.4500   68.9760  228.1680 C   0  0  0  0  0  0  0  0  0  0  0  0
  140.4060   68.1190  229.2390 F   0  0  0  0  0  0  0  0  0  0  0  0
  141.0010   70.2240  228.2880 C   0  0  0  0  0  0  0  0  0  0  0  0
  141.0710   71.1300  227.2360 C   0  0  0  0  0  0  0  0  0  0  0  0
  140.5570   70.7400  226.0180 C   0  0  0  0  0  0  0  0  0  0  0  0
  140.5820   71.5580  224.9360 N   0  0  0  0  0  0  0  0  0  0  0  0
  140.4580   70.4630  221.2380 H   0  0  0  0  0  0  0  0  0  0  0  0
  139.5220   72.0848  219.4217 H   0  0  0  0  0  0  0  0  0  0  0  0
  140.2999   73.4019  220.3783 H   0  0  0  0  0  0  0  0  0  0  0  0
  144.6627   71.8298  219.8235 H   0  0  0  0  0  0  0  0  0  0  0  0
  143.8859   71.2042  218.3966 H   0  0  0  0  0  0  0  0  0  0  0  0
  144.8190   72.9865  217.0616 H   0  0  0  0  0  0  0  0  0  0  0  0
  146.2740   74.1560  219.0650 H   0  0  0  0  0  0  0  0  0  0  0  0
  144.7083   75.3603  218.5017 H   0  0  0  0  0  0  0  0  0  0  0  0
  143.3757   74.8165  217.5405 H   0  0  0  0  0  0  0  0  0  0  0  0
  143.8842   74.0972  220.5980 H   0  0  0  0  0  0  0  0  0  0  0  0
  141.6720   73.9930  221.7630 H   0  0  0  0  0  0  0  0  0  0  0  0
  138.9215   74.9692  221.1042 H   0  0  0  0  0  0  0  0  0  0  0  0
  137.4500   76.8320  221.8897 H   0  0  0  0  0  0  0  0  0  0  0  0
  139.8982   80.1333  224.1410 H   0  0  0  0  0  0  0  0  0  0  0  0
  138.5013   81.9690  224.9182 H   0  0  0  0  0  0  0  0  0  0  0  0
  136.0755   82.1212  224.3490 H   0  0  0  0  0  0  0  0  0  0  0  0
  135.0795   80.3237  222.9349 H   0  0  0  0  0  0  0  0  0  0  0  0
  136.4676   78.4416  222.1354 H   0  0  0  0  0  0  0  0  0  0  0  0
  140.9256   79.0159  223.2186 H   0  0  0  0  0  0  0  0  0  0  0  0
  142.3572   77.1599  222.4288 H   0  0  0  0  0  0  0  0  0  0  0  0
  139.1260   69.6166  222.6750 H   0  0  0  0  0  0  0  0  0  0  0  0
  139.0355   68.0549  224.5884 H   0  0  0  0  0  0  0  0  0  0  0  0
  139.4918   67.5957  226.8244 H   0  0  0  0  0  0  0  0  0  0  0  0
  141.4082   70.5242  229.2648 H   0  0  0  0  0  0  0  0  0  0  0  0
  141.5213   72.1245  227.3710 H   0  0  0  0  0  0  0  0  0  0  0  0
  1  2  2  0
  2  3  1  0
  3  4  1  0
  4  5  1  0
  5  6  2  0
  5  7  1  0
  7  8  1  0
  8  9  1  0
  9 10  1  0
  9 11  1  0
 11 12  1  0
 12 13  1  0
 13 14  2  0
 13 15  1  0
 15 16  1  0
 16 17  2  0
 17 18  1  0
 18 19  2  0
 19 20  1  0
 20 21  2  0
 21 22  1  0
 22 23  2  0
 23 24  1  0
 24 25  2  0
 19 26  1  0
 26 27  2  0
  2 28  1  0
 28 29  2  0
 29 30  1  0
 30 31  2  0
 31 32  1  0
 32 33  2  0
 33 34  1  0
 33 35  1  0
 35 36  2  0
 36 37  1  0
 37 38  2  0
 12  7  1  0
 27 16  1  0
 38 28  1  0
 25 20  1  0
 37 31  1  0
  3 39  1  0
  4 40  1  0
  4 41  1  0
  8 42  1  0
  8 43  1  0
  9 44  1  6
 10 45  1  0
 11 46  1  0
 11 47  1  0
 12 48  1  1
 15 49  1  0
 17 50  1  0
 18 51  1  0
 21 52  1  0
 22 53  1  0
 23 54  1  0
 24 55  1  0
 25 56  1  0
 26 57  1  0
 27 58  1  0
 29 59  1  0
 30 60  1  0
 32 61  1  0
 35 62  1  0
 36 63  1  0
M  END
>  <smiles>  (20) 
O=C(NCC(=O)N1C[C@H](O)C[C@H]1C(=O)Nc1ccc(-c2ccccc2)cc1)c1ccc2cc(F)ccc2n1

>  <score_type>  (20) 
oracle

>  <origin>  (20) 
autodockgpu

>  <m_score__min__energy>  (20) 
-9.8499999999999996

>  <m_primary>  (20) 
energy

>  <rmsd>  (20) 
3.483689379087691

>  <m_score__min__rmsd>  (20) 
3.483689379087691

>  <meeko>  (20) 
{"free_energy": -9.47, "intermolecular_energy": -11.86, "internal_energy": -2.61, "cluster_size": 26, "cluster_id": 1, "rank_in_cluster": 9}

>  <energy>  (20) 
-9.0

>  <cluster_rmsd>  (20) 
1.56

>  <cluster>  (20) 
1

$$$$

     RDKit          3D

 63 67  0  0  0  0  0  0  0  0999 V2000
  139.3240   70.1690  221.4050 O   0  0  0  0  0  0  0  0  0  0  0  0
  139.3330   70.8130  222.4840 C   0  0  0  0  0  0  0  0  0  0  0  0
  139.1620   72.2300  222.5500 N   0  0  0  0  0  0  0  0  0  0  0  0
  138.9610   73.0120  221.3020 C   0  0  0  0  0  0  0  0  0  0  0  0
  140.1620   72.9870  220.4870 C   0  0  0  0  0  0  0  0  0  0  0  0
  140.1090   72.1900  219.4560 O   0  0  0  0  0  0  0  0  0  0  0  0
  141.3730   73.6740  220.6130 N   0  0  0  0  0  0  0  0  0  0  0  0
  142.6140   73.0210  220.0460 C   0  0  0  0  0  0  0  0  0  0  0  0
  143.3350   74.2180  219.4320 C   0  0  2  0  0  0  0  0  0  0  0  0
  144.6500   74.2030  219.8830 O   0  0  0  0  0  0  0  0  0  0  0  0
  142.6000   75.4570  219.9130 C   0  0  0  0  0  0  0  0  0  0  0  0
  141.8860   74.8810  221.1390 C   0  0  1  0  0  0  0  0  0  0  0  0
  141.0280   75.8490  221.7840 C   0  0  0  0  0  0  0  0  0  0  0  0
  139.9660   75.6850  222.4010 O   0  0  0  0  0  0  0  0  0  0  0  0
  141.4630   77.2390  221.7060 N   0  0  0  0  0  0  0  0  0  0  0  0
  140.6160   78.2010  222.3450 C   0  0  0  0  0  0  0  0  0  0  0  0
  141.0720   78.9690  223.3970 C   0  0  0  0  0  0  0  0  0  0  0  0
  140.2160   79.8970  223.9950 C   0  0  0  0  0  0  0  0  0  0  0  0
  138.9070   80.0440  223.5260 C   0  0  0  0  0  0  0  0  0  0  0  0
  137.9810   81.0010  224.1230 C   0  0  0  0  0  0  0  0  0  0  0  0
  137.6470   80.9280  225.4800 C   0  0  0  0  0  0  0  0  0  0  0  0
  136.7820   81.8310  226.0110 C   0  0  0  0  0  0  0  0  0  0  0  0
  136.1920   82.8550  225.2630 C   0  0  0  0  0  0  0  0  0  0  0  0
  136.5230   82.9290  223.9270 C   0  0  0  0  0  0  0  0  0  0  0  0
  137.4030   82.0180  223.3580 C   0  0  0  0  0  0  0  0  0  0  0  0
  138.4600   79.2710  222.4740 C   0  0  0  0  0  0  0  0  0  0  0  0
  139.3230   78.3610  221.8980 C   0  0  0  0  0  0  0  0  0  0  0  0
  139.5280   70.0890  223.7430 C   0  0  0  0  0  0  0  0  0  0  0  0
  139.1120   68.7740  223.8660 C   0  0  0  0  0  0  0  0  0  0  0  0
  139.2650   68.0370  225.0170 C   0  0  0  0  0  0  0  0  0  0  0  0
  139.8690   68.6660  226.0940 C   0  0  0  0  0  0  0  0  0  0  0  0
  140.0150   67.9170  227.2410 C   0  0  0  0  0  0  0  0  0  0  0  0
  140.6080   68.5020  228.3280 C   0  0  0  0  0  0  0  0  0  0  0  0
  140.7730   67.7910  229.4900 F   0  0  0  0  0  0  0  0  0  0  0  0
  141.0280   69.8020  228.2320 C   0  0  0  0  0  0  0  0  0  0  0  0
  140.8850   70.5660  227.0790 C   0  0  0  0  0  0  0  0  0  0  0  0
  140.2880   69.9740  225.9870 C   0  0  0  0  0  0  0  0  0  0  0  0
  140.1060   70.6430  224.8210 N   0  0  0  0  0  0  0  0  0  0  0  0
  139.1820   72.6870  223.4830 H   0  0  0  0  0  0  0  0  0  0  0  0
  138.1275   72.5758  220.7318 H   0  0  0  0  0  0  0  0  0  0  0  0
  138.7337   74.0548  221.5684 H   0  0  0  0  0  0  0  0  0  0  0  0
  143.2174   72.5508  220.8365 H   0  0  0  0  0  0  0  0  0  0  0  0
  142.4074   72.2085  219.3338 H   0  0  0  0  0  0  0  0  0  0  0  0
  143.3460   74.1961  218.3323 H   0  0  0  0  0  0  0  0  0  0  0  0
  145.2920   74.4860  219.1860 H   0  0  0  0  0  0  0  0  0  0  0  0
  143.2955   76.2640  220.1869 H   0  0  0  0  0  0  0  0  0  0  0  0
  141.9390   75.9231  219.1675 H   0  0  0  0  0  0  0  0  0  0  0  0
  142.4871   74.6460  222.0298 H   0  0  0  0  0  0  0  0  0  0  0  0
  142.3440   77.4960  221.2090 H   0  0  0  0  0  0  0  0  0  0  0  0
  142.1029   78.8512  223.7623 H   0  0  0  0  0  0  0  0  0  0  0  0
  140.5717   80.5120  224.8348 H   0  0  0  0  0  0  0  0  0  0  0  0
  138.0833   80.1424  226.1144 H   0  0  0  0  0  0  0  0  0  0  0  0
  136.5339   81.7531  227.0798 H   0  0  0  0  0  0  0  0  0  0  0  0
  135.4937   83.5707  225.7213 H   0  0  0  0  0  0  0  0  0  0  0  0
  136.0838   83.7210  223.3027 H   0  0  0  0  0  0  0  0  0  0  0  0
  137.6490   82.0979  222.2888 H   0  0  0  0  0  0  0  0  0  0  0  0
  137.4311   79.3785  222.1000 H   0  0  0  0  0  0  0  0  0  0  0  0
  138.9681   77.7459  221.0579 H   0  0  0  0  0  0  0  0  0  0  0  0
  138.6347   68.2943  222.9987 H   0  0  0  0  0  0  0  0  0  0  0  0
  138.9228   66.9935  225.0800 H   0  0  0  0  0  0  0  0  0  0  0  0
  139.6641   66.8753  227.2827 H   0  0  0  0  0  0  0  0  0  0  0  0
  141.5018   70.2646  229.1103 H   0  0  0  0  0  0  0  0  0  0  0  0
  141.2365   71.6076  227.0398 H   0  0  0  0  0  0  0  0  0  0  0  0
  1  2  2  0
  2  3  1  0
  3  4  1  0
  4  5  1  0
  5  6  2  0
  5  7  1  0
  7  8  1  0
  8  9  1  0
  9 10  1  0
  9 11  1  0
 11 12  1  0
 12 13  1  0
 13 14  2  0
 13 15  1  0
 15 16  1  0
 16 17  2  0
 17 18  1  0
 18 19  2  0
 19 20  1  0
 20 21  2  0
 21 22  1  0
 22 23  2  0
 23 24  1  0
 24 25  2  0
 19 26  1  0
 26 27  2  0
  2 28  1  0
 28 29  2  0
 29 30  1  0
 30 31  2  0
 31 32  1  0
 32 33  2  0
 33 34  1  0
 33 35  1  0
 35 36  2  0
 36 37  1  0
 37 38  2  0
 12  7  1  0
 27 16  1  0
 38 28  1  0
 25 20  1  0
 37 31  1  0
  3 39  1  0
  4 40  1  0
  4 41  1  0
  8 42  1  0
  8 43  1  0
  9 44  1  6
 10 45  1  0
 11 46  1  0
 11 47  1  0
 12 48  1  1
 15 49  1  0
 17 50  1  0
 18 51  1  0
 21 52  1  0
 22 53  1  0
 23 54  1  0
 24 55  1  0
 25 56  1  0
 26 57  1  0
 27 58  1  0
 29 59  1  0
 30 60  1  0
 32 61  1  0
 35 62  1  0
 36 63  1  0
M  END
>  <smiles>  (21) 
O=C(NCC(=O)N1C[C@H](O)C[C@H]1C(=O)Nc1ccc(-c2ccccc2)cc1)c1ccc2cc(F)ccc2n1

>  <score_type>  (21) 
oracle

>  <origin>  (21) 
autodockgpu

>  <m_score__min__energy>  (21) 
-9.8499999999999996

>  <m_primary>  (21) 
energy

>  <rmsd>  (21) 
2.7060153299879692

>  <m_score__min__rmsd>  (21) 
2.7060153299879692

>  <meeko>  (21) 
{"free_energy": -9.85, "intermolecular_energy": -12.24, "internal_energy": -1.87, "cluster_size": 26, "cluster_id": 1, "rank_in_cluster": 1}

>  <energy>  (21) 
-9.0

>  <cluster_rmsd>  (21) 
1.33

>  <cluster>  (21) 
1

$$$$

     RDKit          3D

 63 67  0  0  0  0  0  0  0  0999 V2000
  139.8300   72.7520  222.2040 O   0  0  0  0  0  0  0  0  0  0  0  0
  139.6380   71.5430  222.4880 C   0  0  0  0  0  0  0  0  0  0  0  0
  139.1100   70.5960  221.5570 N   0  0  0  0  0  0  0  0  0  0  0  0
  138.7610   71.0270  220.1780 C   0  0  0  0  0  0  0  0  0  0  0  0
  137.7560   72.0740  220.2110 C   0  0  0  0  0  0  0  0  0  0  0  0
  137.8970   72.9970  219.3010 O   0  0  0  0  0  0  0  0  0  0  0  0
  136.6550   72.2660  221.0510 N   0  0  0  0  0  0  0  0  0  0  0  0
  135.5660   71.2180  221.0350 C   0  0  0  0  0  0  0  0  0  0  0  0
  135.2100   71.1250  222.5160 C   0  0  2  0  0  0  0  0  0  0  0  0
  133.8300   71.2360  222.6340 O   0  0  0  0  0  0  0  0  0  0  0  0
  135.9180   72.2810  223.2020 C   0  0  0  0  0  0  0  0  0  0  0  0
  136.1630   73.1930  221.9970 C   0  0  1  0  0  0  0  0  0  0  0  0
  136.9050   74.3830  222.3470 C   0  0  0  0  0  0  0  0  0  0  0  0
  136.6460   75.2660  223.1770 O   0  0  0  0  0  0  0  0  0  0  0  0
  138.1520   74.5940  221.6230 N   0  0  0  0  0  0  0  0  0  0  0  0
  138.8900   75.7720  221.9690 C   0  0  0  0  0  0  0  0  0  0  0  0
  140.2440   75.7160  222.2300 C   0  0  0  0  0  0  0  0  0  0  0  0
  140.9300   76.8860  222.5650 C   0  0  0  0  0  0  0  0  0  0  0  0
  140.2450   78.1030  222.6320 C   0  0  0  0  0  0  0  0  0  0  0  0
  140.9240   79.3480  222.9770 C   0  0  0  0  0  0  0  0  0  0  0  0
  142.0010   79.3560  223.8710 C   0  0  0  0  0  0  0  0  0  0  0  0
  142.6160   80.5280  224.1760 C   0  0  0  0  0  0  0  0  0  0  0  0
  142.2270   81.7580  223.6360 C   0  0  0  0  0  0  0  0  0  0  0  0
  141.1670   81.7510  222.7540 C   0  0  0  0  0  0  0  0  0  0  0  0
  140.5200   80.5680  222.4260 C   0  0  0  0  0  0  0  0  0  0  0  0
  138.8920   78.1490  222.3690 C   0  0  0  0  0  0  0  0  0  0  0  0
  138.2340   76.9800  222.0400 C   0  0  0  0  0  0  0  0  0  0  0  0
  139.9660   71.0680  223.8350 C   0  0  0  0  0  0  0  0  0  0  0  0
  140.6310   71.8940  224.7250 C   0  0  0  0  0  0  0  0  0  0  0  0
  140.9680   71.5120  226.0020 C   0  0  0  0  0  0  0  0  0  0  0  0
  140.6130   70.2300  226.3930 C   0  0  0  0  0  0  0  0  0  0  0  0
  140.9570   69.8600  227.6750 C   0  0  0  0  0  0  0  0  0  0  0  0
  140.6240   68.6020  228.1000 C   0  0  0  0  0  0  0  0  0  0  0  0
  140.9480   68.1930  229.3690 F   0  0  0  0  0  0  0  0  0  0  0  0
  139.9650   67.7660  227.2370 C   0  0  0  0  0  0  0  0  0  0  0  0
  139.6140   68.1300  225.9420 C   0  0  0  0  0  0  0  0  0  0  0  0
  139.9510   69.3980  225.5180 C   0  0  0  0  0  0  0  0  0  0  0  0
  139.6490   69.8390  224.2720 N   0  0  0  0  0  0  0  0  0  0  0  0
  138.9820   69.6130  221.8710 H   0  0  0  0  0  0  0  0  0  0  0  0
  139.6640   71.4078  219.6784 H   0  0  0  0  0  0  0  0  0  0  0  0
  138.3578   70.1644  219.6273 H   0  0  0  0  0  0  0  0  0  0  0  0
  134.7039   71.5437  220.4344 H   0  0  0  0  0  0  0  0  0  0  0  0
  135.8715   70.2611  220.5867 H   0  0  0  0  0  0  0  0  0  0  0  0
  135.5200   70.1740  222.9738 H   0  0  0  0  0  0  0  0  0  0  0  0
  133.3820   70.3560  222.6850 H   0  0  0  0  0  0  0  0  0  0  0  0
  135.2777   72.7629  223.9555 H   0  0  0  0  0  0  0  0  0  0  0  0
  136.8213   72.0034  223.7651 H   0  0  0  0  0  0  0  0  0  0  0  0
  135.3030   73.7183  221.5560 H   0  0  0  0  0  0  0  0  0  0  0  0
  138.4710   73.9140  220.8990 H   0  0  0  0  0  0  0  0  0  0  0  0
  140.7794   74.7567  222.1746 H   0  0  0  0  0  0  0  0  0  0  0  0
  142.0089   76.8498  222.7760 H   0  0  0  0  0  0  0  0  0  0  0  0
  142.3482   78.4162  224.3251 H   0  0  0  0  0  0  0  0  0  0  0  0
  143.4600   80.5088  224.8812 H   0  0  0  0  0  0  0  0  0  0  0  0
  142.7445   82.6911  223.9034 H   0  0  0  0  0  0  0  0  0  0  0  0
  140.8296   82.6964  222.3041 H   0  0  0  0  0  0  0  0  0  0  0  0
  139.6758   80.5904  221.7212 H   0  0  0  0  0  0  0  0  0  0  0  0
  138.3452   79.1021  222.4205 H   0  0  0  0  0  0  0  0  0  0  0  0
  137.1551   77.0154  221.8287 H   0  0  0  0  0  0  0  0  0  0  0  0
  140.9035   72.9069  224.3938 H   0  0  0  0  0  0  0  0  0  0  0  0
  141.4965   72.1941  226.6842 H   0  0  0  0  0  0  0  0  0  0  0  0
  141.4860   70.5581  228.3404 H   0  0  0  0  0  0  0  0  0  0  0  0
  139.7007   66.7570  227.5862 H   0  0  0  0  0  0  0  0  0  0  0  0
  139.0853   67.4302  225.2781 H   0  0  0  0  0  0  0  0  0  0  0  0
  1  2  2  0
  2  3  1  0
  3  4  1  0
  4  5  1  0
  5  6  2  0
  5  7  1  0
  7  8  1  0
  8  9  1  0
  9 10  1  0
  9 11  1  0
 11 12  1  0
 12 13  1  0
 13 14  2  0
 13 15  1  0
 15 16  1  0
 16 17  2  0
 17 18  1  0
 18 19  2  0
 19 20  1  0
 20 21  2  0
 21 22  1  0
 22 23  2  0
 23 24  1  0
 24 25  2  0
 19 26  1  0
 26 27  2  0
  2 28  1  0
 28 29  2  0
 29 30  1  0
 30 31  2  0
 31 32  1  0
 32 33  2  0
 33 34  1  0
 33 35  1  0
 35 36  2  0
 36 37  1  0
 37 38  2  0
 12  7  1  0
 27 16  1  0
 38 28  1  0
 25 20  1  0
 37 31  1  0
  3 39  1  0
  4 40  1  0
  4 41  1  0
  8 42  1  0
  8 43  1  0
  9 44  1  1
 10 45  1  0
 11 46  1  0
 11 47  1  0
 12 48  1  6
 15 49  1  0
 17 50  1  0
 18 51  1  0
 21 52  1  0
 22 53  1  0
 23 54  1  0
 24 55  1  0
 25 56  1  0
 26 57  1  0
 27 58  1  0
 29 59  1  0
 30 60  1  0
 32 61  1  0
 35 62  1  0
 36 63  1  0
M  END
>  <smiles>  (22) 
O=C(NCC(=O)N1C[C@H](O)C[C@H]1C(=O)Nc1ccc(-c2ccccc2)cc1)c1ccc2cc(F)ccc2n1

>  <score_type>  (22) 
oracle

>  <origin>  (22) 
autodockgpu

>  <m_score__min__energy>  (22) 
-9.8499999999999996

>  <m_primary>  (22) 
energy

>  <rmsd>  (22) 
4.99772388845233

>  <m_score__min__rmsd>  (22) 
4.99772388845233

>  <meeko>  (22) 
{"free_energy": -8.26, "intermolecular_energy": -10.65, "internal_energy": -3.56, "cluster_size": 11, "cluster_id": 3, "rank_in_cluster": 10}

>  <energy>  (22) 
-8.96

>  <cluster_rmsd>  (22) 
1.77

>  <cluster>  (22) 
1

$$$$

     RDKit          3D

 63 67  0  0  0  0  0  0  0  0999 V2000
  140.4420   72.9820  222.6610 O   0  0  0  0  0  0  0  0  0  0  0  0
  140.0910   71.7860  222.8260 C   0  0  0  0  0  0  0  0  0  0  0  0
  139.5540   70.9780  221.7770 N   0  0  0  0  0  0  0  0  0  0  0  0
  139.3890   71.5460  220.4140 C   0  0  0  0  0  0  0  0  0  0  0  0
  138.0130   71.4150  219.9700 C   0  0  0  0  0  0  0  0  0  0  0  0
  137.8590   70.7790  218.8420 O   0  0  0  0  0  0  0  0  0  0  0  0
  136.8150   71.8510  220.5440 N   0  0  0  0  0  0  0  0  0  0  0  0
  135.6860   70.8520  220.6630 C   0  0  0  0  0  0  0  0  0  0  0  0
  135.1190   71.1940  222.0380 C   0  0  2  0  0  0  0  0  0  0  0  0
  133.7440   71.3460  221.9090 O   0  0  0  0  0  0  0  0  0  0  0  0
  135.7810   72.4930  222.4650 C   0  0  0  0  0  0  0  0  0  0  0  0
  136.2420   73.0160  221.1030 C   0  0  1  0  0  0  0  0  0  0  0  0
  136.9870   74.2500  221.2080 C   0  0  0  0  0  0  0  0  0  0  0  0
  136.8390   75.3230  220.6060 O   0  0  0  0  0  0  0  0  0  0  0  0
  138.0860   74.2520  222.1660 N   0  0  0  0  0  0  0  0  0  0  0  0
  138.8260   75.4730  222.2740 C   0  0  0  0  0  0  0  0  0  0  0  0
  140.1330   75.5590  221.8360 C   0  0  0  0  0  0  0  0  0  0  0  0
  140.8230   76.7670  221.9590 C   0  0  0  0  0  0  0  0  0  0  0  0
  140.1890   77.8800  222.5200 C   0  0  0  0  0  0  0  0  0  0  0  0
  140.8740   79.1610  222.6660 C   0  0  0  0  0  0  0  0  0  0  0  0
  140.4980   80.2680  221.8960 C   0  0  0  0  0  0  0  0  0  0  0  0
  141.1520   81.4490  222.0500 C   0  0  0  0  0  0  0  0  0  0  0  0
  142.2020   81.6290  222.9560 C   0  0  0  0  0  0  0  0  0  0  0  0
  142.5710   80.5390  223.7150 C   0  0  0  0  0  0  0  0  0  0  0  0
  141.9220   79.3190  223.5770 C   0  0  0  0  0  0  0  0  0  0  0  0
  138.8840   77.7850  222.9550 C   0  0  0  0  0  0  0  0  0  0  0  0
  138.2210   76.5810  222.8240 C   0  0  0  0  0  0  0  0  0  0  0  0
  140.2330   71.1800  224.1530 C   0  0  0  0  0  0  0  0  0  0  0  0
  140.7810   71.9030  225.1980 C   0  0  0  0  0  0  0  0  0  0  0  0
  140.9430   71.3960  226.4660 C   0  0  0  0  0  0  0  0  0  0  0  0
  140.5280   70.0910  226.6810 C   0  0  0  0  0  0  0  0  0  0  0  0
  140.6950   69.5950  227.9550 C   0  0  0  0  0  0  0  0  0  0  0  0
  140.2980   68.3090  228.2090 C   0  0  0  0  0  0  0  0  0  0  0  0
  140.4470   67.7760  229.4650 F   0  0  0  0  0  0  0  0  0  0  0  0
  139.7520   67.5720  227.1910 C   0  0  0  0  0  0  0  0  0  0  0  0
  139.5790   68.0640  225.9030 C   0  0  0  0  0  0  0  0  0  0  0  0
  139.9800   69.3590  225.6510 C   0  0  0  0  0  0  0  0  0  0  0  0
  139.8500   69.9220  224.4240 N   0  0  0  0  0  0  0  0  0  0  0  0
  139.2870   69.9980  221.9960 H   0  0  0  0  0  0  0  0  0  0  0  0
  139.6640   72.6109  220.4302 H   0  0  0  0  0  0  0  0  0  0  0  0
  140.0403   70.9959  219.7189 H   0  0  0  0  0  0  0  0  0  0  0  0
  134.9359   70.9976  219.8717 H   0  0  0  0  0  0  0  0  0  0  0  0
  136.0023   69.8038  220.5569 H   0  0  0  0  0  0  0  0  0  0  0  0
  135.3112   70.4137  222.7892 H   0  0  0  0  0  0  0  0  0  0  0  0
  133.4990   72.1340  221.3640 H   0  0  0  0  0  0  0  0  0  0  0  0
  135.0657   73.1775  222.9444 H   0  0  0  0  0  0  0  0  0  0  0  0
  136.5796   72.3821  223.2133 H   0  0  0  0  0  0  0  0  0  0  0  0
  135.4816   73.3992  220.4066 H   0  0  0  0  0  0  0  0  0  0  0  0
  138.3040   73.4020  222.7310 H   0  0  0  0  0  0  0  0  0  0  0  0
  140.6273   74.6817  221.3931 H   0  0  0  0  0  0  0  0  0  0  0  0
  141.8649   76.8429  221.6147 H   0  0  0  0  0  0  0  0  0  0  0  0
  139.6766   80.1821  221.1694 H   0  0  0  0  0  0  0  0  0  0  0  0
  140.8406   82.3044  221.4325 H   0  0  0  0  0  0  0  0  0  0  0  0
  142.7115   82.5985  223.0585 H   0  0  0  0  0  0  0  0  0  0  0  0
  143.3917   80.6370  224.4408 H   0  0  0  0  0  0  0  0  0  0  0  0
  142.2374   78.4645  224.1937 H   0  0  0  0  0  0  0  0  0  0  0  0
  138.3789   78.6552  223.3996 H   0  0  0  0  0  0  0  0  0  0  0  0
  137.1793   76.5047  223.1690 H   0  0  0  0  0  0  0  0  0  0  0  0
  141.1037   72.9366  225.0044 H   0  0  0  0  0  0  0  0  0  0  0  0
  141.3825   71.9994  227.2740 H   0  0  0  0  0  0  0  0  0  0  0  0
  141.1361   70.2161  228.7485 H   0  0  0  0  0  0  0  0  0  0  0  0
  139.4351   66.5403  227.4038 H   0  0  0  0  0  0  0  0  0  0  0  0
  139.1370   67.4414  225.1111 H   0  0  0  0  0  0  0  0  0  0  0  0
  1  2  2  0
  2  3  1  0
  3  4  1  0
  4  5  1  0
  5  6  2  0
  5  7  1  0
  7  8  1  0
  8  9  1  0
  9 10  1  0
  9 11  1  0
 11 12  1  0
 12 13  1  0
 13 14  2  0
 13 15  1  0
 15 16  1  0
 16 17  2  0
 17 18  1  0
 18 19  2  0
 19 20  1  0
 20 21  2  0
 21 22  1  0
 22 23  2  0
 23 24  1  0
 24 25  2  0
 19 26  1  0
 26 27  2  0
  2 28  1  0
 28 29  2  0
 29 30  1  0
 30 31  2  0
 31 32  1  0
 32 33  2  0
 33 34  1  0
 33 35  1  0
 35 36  2  0
 36 37  1  0
 37 38  2  0
 12  7  1  0
 27 16  1  0
 38 28  1  0
 25 20  1  0
 37 31  1  0
  3 39  1  0
  4 40  1  0
  4 41  1  0
  8 42  1  0
  8 43  1  0
  9 44  1  1
 10 45  1  0
 11 46  1  0
 11 47  1  0
 12 48  1  6
 15 49  1  0
 17 50  1  0
 18 51  1  0
 21 52  1  0
 22 53  1  0
 23 54  1  0
 24 55  1  0
 25 56  1  0
 26 57  1  0
 27 58  1  0
 29 59  1  0
 30 60  1  0
 32 61  1  0
 35 62  1  0
 36 63  1  0
M  END
>  <smiles>  (23) 
O=C(NCC(=O)N1C[C@H](O)C[C@H]1C(=O)Nc1ccc(-c2ccccc2)cc1)c1ccc2cc(F)ccc2n1

>  <score_type>  (23) 
oracle

>  <origin>  (23) 
autodockgpu

>  <m_score__min__energy>  (23) 
-9.8499999999999996

>  <m_primary>  (23) 
energy

>  <rmsd>  (23) 
4.8724347827038095

>  <m_score__min__rmsd>  (23) 
4.8724347827038095

>  <meeko>  (23) 
{"free_energy": -8.81, "intermolecular_energy": -11.2, "internal_energy": -3.08, "cluster_size": 11, "cluster_id": 3, "rank_in_cluster": 4}

>  <energy>  (23) 
-8.95

>  <cluster_rmsd>  (23) 
1.33

>  <cluster>  (23) 
1

$$$$

     RDKit          3D

 63 67  0  0  0  0  0  0  0  0999 V2000
  133.7460   70.5760  226.3230 O   0  0  0  0  0  0  0  0  0  0  0  0
  134.0130   71.7220  225.8810 C   0  0  0  0  0  0  0  0  0  0  0  0
  134.9450   71.9540  224.8230 N   0  0  0  0  0  0  0  0  0  0  0  0
  135.6510   70.8080  224.1920 C   0  0  0  0  0  0  0  0  0  0  0  0
  136.7070   71.2810  223.3150 C   0  0  0  0  0  0  0  0  0  0  0  0
  136.6130   72.5350  222.9700 O   0  0  0  0  0  0  0  0  0  0  0  0
  137.8160   70.6250  222.7730 N   0  0  0  0  0  0  0  0  0  0  0  0
  137.6830   69.1480  222.4760 C   0  0  0  0  0  0  0  0  0  0  0  0
  138.4260   69.0360  221.1480 C   0  0  2  0  0  0  0  0  0  0  0  0
  139.3400   67.9940  221.2540 O   0  0  0  0  0  0  0  0  0  0  0  0
  139.1280   70.3670  220.9340 C   0  0  0  0  0  0  0  0  0  0  0  0
  139.1440   70.8910  222.3720 C   0  0  1  0  0  0  0  0  0  0  0  0
  139.7130   72.2160  222.4690 C   0  0  0  0  0  0  0  0  0  0  0  0
  140.7760   72.5900  222.9860 O   0  0  0  0  0  0  0  0  0  0  0  0
  138.9300   73.2920  221.8740 N   0  0  0  0  0  0  0  0  0  0  0  0
  139.4910   74.6070  221.9690 C   0  0  0  0  0  0  0  0  0  0  0  0
  138.7950   75.6400  222.5630 C   0  0  0  0  0  0  0  0  0  0  0  0
  139.3750   76.9090  222.6360 C   0  0  0  0  0  0  0  0  0  0  0  0
  140.6520   77.1250  222.1100 C   0  0  0  0  0  0  0  0  0  0  0  0
  141.2940   78.4350  222.1660 C   0  0  0  0  0  0  0  0  0  0  0  0
  141.4100   79.2280  221.0190 C   0  0  0  0  0  0  0  0  0  0  0  0
  142.0120   80.4430  221.0970 C   0  0  0  0  0  0  0  0  0  0  0  0
  142.5350   80.9620  222.2860 C   0  0  0  0  0  0  0  0  0  0  0  0
  142.4190   80.1810  223.4170 C   0  0  0  0  0  0  0  0  0  0  0  0
  141.8100   78.9350  223.3650 C   0  0  0  0  0  0  0  0  0  0  0  0
  141.3390   76.0860  221.5180 C   0  0  0  0  0  0  0  0  0  0  0  0
  140.7480   74.8400  221.4570 C   0  0  0  0  0  0  0  0  0  0  0  0
  133.3440   72.8860  226.4700 C   0  0  0  0  0  0  0  0  0  0  0  0
  132.1420   72.7360  227.1420 C   0  0  0  0  0  0  0  0  0  0  0  0
  131.4630   73.7830  227.7180 C   0  0  0  0  0  0  0  0  0  0  0  0
  132.0310   75.0430  227.6050 C   0  0  0  0  0  0  0  0  0  0  0  0
  131.3390   76.0830  228.1860 C   0  0  0  0  0  0  0  0  0  0  0  0
  131.8680   77.3430  228.0970 C   0  0  0  0  0  0  0  0  0  0  0  0
  131.2120   78.4080  228.6620 F   0  0  0  0  0  0  0  0  0  0  0  0
  133.0550   77.5180  227.4370 C   0  0  0  0  0  0  0  0  0  0  0  0
  133.7600   76.4740  226.8480 C   0  0  0  0  0  0  0  0  0  0  0  0
  133.2250   75.2070  226.9400 C   0  0  0  0  0  0  0  0  0  0  0  0
  133.8430   74.1290  226.3950 N   0  0  0  0  0  0  0  0  0  0  0  0
  135.1100   72.9330  224.5160 H   0  0  0  0  0  0  0  0  0  0  0  0
  136.0895   70.1759  224.9782 H   0  0  0  0  0  0  0  0  0  0  0  0
  134.9286   70.2288  223.5982 H   0  0  0  0  0  0  0  0  0  0  0  0
  138.1603   68.5368  223.2561 H   0  0  0  0  0  0  0  0  0  0  0  0
  136.6436   68.7899  222.4397 H   0  0  0  0  0  0  0  0  0  0  0  0
  137.7594   68.8257  220.2986 H   0  0  0  0  0  0  0  0  0  0  0  0
  139.3730   67.6100  222.1640 H   0  0  0  0  0  0  0  0  0  0  0  0
  140.1449   70.2333  220.5366 H   0  0  0  0  0  0  0  0  0  0  0  0
  138.6469   71.0331  220.2027 H   0  0  0  0  0  0  0  0  0  0  0  0
  139.8266   70.4178  223.0932 H   0  0  0  0  0  0  0  0  0  0  0  0
  138.0160   73.0950  221.4110 H   0  0  0  0  0  0  0  0  0  0  0  0
  137.7906   75.4655  222.9761 H   0  0  0  0  0  0  0  0  0  0  0  0
  138.8268   77.7380  223.1073 H   0  0  0  0  0  0  0  0  0  0  0  0
  141.0150   78.8686  220.0574 H   0  0  0  0  0  0  0  0  0  0  0  0
  142.0921   81.0477  220.1816 H   0  0  0  0  0  0  0  0  0  0  0  0
  143.0178   81.9499  222.3177 H   0  0  0  0  0  0  0  0  0  0  0  0
  142.8150   80.5512  224.3742 H   0  0  0  0  0  0  0  0  0  0  0  0
  141.7322   78.3316  224.2814 H   0  0  0  0  0  0  0  0  0  0  0  0
  142.3437   76.2479  221.1004 H   0  0  0  0  0  0  0  0  0  0  0  0
  141.2961   74.0104  220.9865 H   0  0  0  0  0  0  0  0  0  0  0  0
  131.7089   71.7277  227.2185 H   0  0  0  0  0  0  0  0  0  0  0  0
  130.5104   73.6282  228.2457 H   0  0  0  0  0  0  0  0  0  0  0  0
  130.3868   75.9060  228.7076 H   0  0  0  0  0  0  0  0  0  0  0  0
  133.4712   78.5340  227.3694 H   0  0  0  0  0  0  0  0  0  0  0  0
  134.7119   76.6531  226.3266 H   0  0  0  0  0  0  0  0  0  0  0  0
  1  2  2  0
  2  3  1  0
  3  4  1  0
  4  5  1  0
  5  6  2  0
  5  7  1  0
  7  8  1  0
  8  9  1  0
  9 10  1  0
  9 11  1  0
 11 12  1  0
 12 13  1  0
 13 14  2  0
 13 15  1  0
 15 16  1  0
 16 17  2  0
 17 18  1  0
 18 19  2  0
 19 20  1  0
 20 21  2  0
 21 22  1  0
 22 23  2  0
 23 24  1  0
 24 25  2  0
 19 26  1  0
 26 27  2  0
  2 28  1  0
 28 29  2  0
 29 30  1  0
 30 31  2  0
 31 32  1  0
 32 33  2  0
 33 34  1  0
 33 35  1  0
 35 36  2  0
 36 37  1  0
 37 38  2  0
 12  7  1  0
 27 16  1  0
 38 28  1  0
 25 20  1  0
 37 31  1  0
  3 39  1  0
  4 40  1  0
  4 41  1  0
  8 42  1  0
  8 43  1  0
  9 44  1  6
 10 45  1  0
 11 46  1  0
 11 47  1  0
 12 48  1  1
 15 49  1  0
 17 50  1  0
 18 51  1  0
 21 52  1  0
 22 53  1  0
 23 54  1  0
 24 55  1  0
 25 56  1  0
 26 57  1  0
 27 58  1  0
 29 59  1  0
 30 60  1  0
 32 61  1  0
 35 62  1  0
 36 63  1  0
M  END
>  <smiles>  (24) 
O=C(NCC(=O)N1C[C@H](O)C[C@H]1C(=O)Nc1ccc(-c2ccccc2)cc1)c1ccc2cc(F)ccc2n1

>  <score_type>  (24) 
oracle

>  <origin>  (24) 
autodockgpu

>  <m_score__min__energy>  (24) 
-9.8499999999999996

>  <m_primary>  (24) 
energy

>  <rmsd>  (24) 
7.599519150128222

>  <m_score__min__rmsd>  (24) 
7.599519150128222

>  <meeko>  (24) 
{"free_energy": -8.34, "intermolecular_energy": -10.72, "internal_energy": -2.99, "cluster_size": 1, "cluster_id": 4, "rank_in_cluster": 1}

>  <energy>  (24) 
-8.85

>  <cluster_rmsd>  (24) 
1.68

>  <cluster>  (24) 
1

$$$$

     RDKit          3D

 63 67  0  0  0  0  0  0  0  0999 V2000
  139.5740   74.2340  222.4890 O   0  0  0  0  0  0  0  0  0  0  0  0
  139.4460   75.2060  221.7020 C   0  0  0  0  0  0  0  0  0  0  0  0
  140.3030   75.4180  220.5780 N   0  0  0  0  0  0  0  0  0  0  0  0
  141.4080   74.4640  220.2970 C   0  0  0  0  0  0  0  0  0  0  0  0
  142.5890   75.1740  219.8410 C   0  0  0  0  0  0  0  0  0  0  0  0
  143.7080   74.7790  220.3810 O   0  0  0  0  0  0  0  0  0  0  0  0
  142.7400   76.2120  218.9170 N   0  0  0  0  0  0  0  0  0  0  0  0
  143.6920   75.9950  217.7630 C   0  0  0  0  0  0  0  0  0  0  0  0
  142.9270   76.6390  216.6110 C   0  0  2  0  0  0  0  0  0  0  0  0
  143.7890   77.5110  215.9570 O   0  0  0  0  0  0  0  0  0  0  0  0
  141.7560   77.3810  217.2320 C   0  0  0  0  0  0  0  0  0  0  0  0
  142.2650   77.5200  218.6690 C   0  0  1  0  0  0  0  0  0  0  0  0
  141.2980   78.1510  219.5380 C   0  0  0  0  0  0  0  0  0  0  0  0
  140.0750   78.2960  219.3950 O   0  0  0  0  0  0  0  0  0  0  0  0
  141.8220   78.7090  220.7790 N   0  0  0  0  0  0  0  0  0  0  0  0
  140.8660   79.3340  221.6430 C   0  0  0  0  0  0  0  0  0  0  0  0
  140.4950   78.7530  222.8380 C   0  0  0  0  0  0  0  0  0  0  0  0
  139.5580   79.3930  223.6540 C   0  0  0  0  0  0  0  0  0  0  0  0
  139.0050   80.6140  223.2580 C   0  0  0  0  0  0  0  0  0  0  0  0
  138.0240   81.3150  224.0810 C   0  0  0  0  0  0  0  0  0  0  0  0
  137.3390   82.4310  223.5870 C   0  0  0  0  0  0  0  0  0  0  0  0
  136.4310   83.0670  224.3730 C   0  0  0  0  0  0  0  0  0  0  0  0
  136.1330   82.6610  225.6780 C   0  0  0  0  0  0  0  0  0  0  0  0
  136.8070   81.5610  226.1640 C   0  0  0  0  0  0  0  0  0  0  0  0
  137.7410   80.8930  225.3830 C   0  0  0  0  0  0  0  0  0  0  0  0
  139.3820   81.1870  222.0610 C   0  0  0  0  0  0  0  0  0  0  0  0
  140.3090   80.5380  221.2710 C   0  0  0  0  0  0  0  0  0  0  0  0
  138.3720   76.1750  221.9360 C   0  0  0  0  0  0  0  0  0  0  0  0
  137.4620   75.9770  222.9610 C   0  0  0  0  0  0  0  0  0  0  0  0
  136.4330   76.8460  223.2350 C   0  0  0  0  0  0  0  0  0  0  0  0
  136.3220   77.9690  222.4300 C   0  0  0  0  0  0  0  0  0  0  0  0
  135.2860   78.8310  222.7150 C   0  0  0  0  0  0  0  0  0  0  0  0
  135.1430   79.9530  221.9430 C   0  0  0  0  0  0  0  0  0  0  0  0
  134.1250   80.8380  222.1930 F   0  0  0  0  0  0  0  0  0  0  0  0
  136.0310   80.1710  220.9230 C   0  0  0  0  0  0  0  0  0  0  0  0
  137.0790   79.3070  220.6270 C   0  0  0  0  0  0  0  0  0  0  0  0
  137.2200   78.1790  221.4070 C   0  0  0  0  0  0  0  0  0  0  0  0
  138.2130   77.2810  221.1920 N   0  0  0  0  0  0  0  0  0  0  0  0
  140.1300   76.2470  219.9750 H   0  0  0  0  0  0  0  0  0  0  0  0
  141.6508   73.9104  221.2160 H   0  0  0  0  0  0  0  0  0  0  0  0
  141.0851   73.7678  219.5090 H   0  0  0  0  0  0  0  0  0  0  0  0
  144.6548   76.4979  217.9366 H   0  0  0  0  0  0  0  0  0  0  0  0
  143.9558   74.9409  217.5919 H   0  0  0  0  0  0  0  0  0  0  0  0
  142.5565   75.9064  215.8788 H   0  0  0  0  0  0  0  0  0  0  0  0
  144.0010   78.3110  216.4980 H   0  0  0  0  0  0  0  0  0  0  0  0
  141.5957   78.3609  216.7586 H   0  0  0  0  0  0  0  0  0  0  0  0
  140.7822   76.8795  217.1308 H   0  0  0  0  0  0  0  0  0  0  0  0
  143.0810   78.2305  218.8675 H   0  0  0  0  0  0  0  0  0  0  0  0
  142.8390   78.6450  221.0060 H   0  0  0  0  0  0  0  0  0  0  0  0
  140.9336   77.7926  223.1465 H   0  0  0  0  0  0  0  0  0  0  0  0
  139.2558   78.9358  224.6078 H   0  0  0  0  0  0  0  0  0  0  0  0
  137.5348   82.7919  222.5665 H   0  0  0  0  0  0  0  0  0  0  0  0
  135.9056   83.9424  223.9637 H   0  0  0  0  0  0  0  0  0  0  0  0
  135.3925   83.1965  226.2903 H   0  0  0  0  0  0  0  0  0  0  0  0
  136.6020   81.2073  227.1852 H   0  0  0  0  0  0  0  0  0  0  0  0
  138.2659   80.0187  225.7953 H   0  0  0  0  0  0  0  0  0  0  0  0
  138.9502   82.1468  221.7411 H   0  0  0  0  0  0  0  0  0  0  0  0
  140.6118   80.9949  220.3173 H   0  0  0  0  0  0  0  0  0  0  0  0
  137.5681   75.0790  223.5874 H   0  0  0  0  0  0  0  0  0  0  0  0
  135.7277   76.6583  224.0580 H   0  0  0  0  0  0  0  0  0  0  0  0
  134.5910   78.6233  223.5419 H   0  0  0  0  0  0  0  0  0  0  0  0
  135.9087   81.0745  220.3077 H   0  0  0  0  0  0  0  0  0  0  0  0
  137.7720   79.5162  219.7988 H   0  0  0  0  0  0  0  0  0  0  0  0
  1  2  2  0
  2  3  1  0
  3  4  1  0
  4  5  1  0
  5  6  2  0
  5  7  1  0
  7  8  1  0
  8  9  1  0
  9 10  1  0
  9 11  1  0
 11 12  1  0
 12 13  1  0
 13 14  2  0
 13 15  1  0
 15 16  1  0
 16 17  2  0
 17 18  1  0
 18 19  2  0
 19 20  1  0
 20 21  2  0
 21 22  1  0
 22 23  2  0
 23 24  1  0
 24 25  2  0
 19 26  1  0
 26 27  2  0
  2 28  1  0
 28 29  2  0
 29 30  1  0
 30 31  2  0
 31 32  1  0
 32 33  2  0
 33 34  1  0
 33 35  1  0
 35 36  2  0
 36 37  1  0
 37 38  2  0
 12  7  1  0
 27 16  1  0
 38 28  1  0
 25 20  1  0
 37 31  1  0
  3 39  1  0
  4 40  1  0
  4 41  1  0
  8 42  1  0
  8 43  1  0
  9 44  1  6
 10 45  1  0
 11 46  1  0
 11 47  1  0
 12 48  1  6
 15 49  1  0
 17 50  1  0
 18 51  1  0
 21 52  1  0
 22 53  1  0
 23 54  1  0
 24 55  1  0
 25 56  1  0
 26 57  1  0
 27 58  1  0
 29 59  1  0
 30 60  1  0
 32 61  1  0
 35 62  1  0
 36 63  1  0
M  END
>  <smiles>  (25) 
O=C(NCC(=O)N1C[C@H](O)C[C@H]1C(=O)Nc1ccc(-c2ccccc2)cc1)c1ccc2cc(F)ccc2n1

>  <score_type>  (25) 
oracle

>  <origin>  (25) 
autodockgpu

>  <m_score__min__energy>  (25) 
-9.8499999999999996

>  <m_primary>  (25) 
energy

>  <rmsd>  (25) 
6.611967983303655

>  <m_score__min__rmsd>  (25) 
6.611967983303655

>  <meeko>  (25) 
{"free_energy": -6.19, "intermolecular_energy": -8.57, "internal_energy": -5.13, "cluster_size": 1, "cluster_id": 8, "rank_in_cluster": 1}

>  <energy>  (25) 
-8.81

>  <cluster_rmsd>  (25) 
1.7

>  <cluster>  (25) 
1

$$$$

     RDKit          3D

 63 67  0  0  0  0  0  0  0  0999 V2000
  139.2100   69.9610  221.0670 O   0  0  0  0  0  0  0  0  0  0  0  0
  139.5490   70.9140  221.8140 C   0  0  0  0  0  0  0  0  0  0  0  0
  139.6840   72.2590  221.3520 N   0  0  0  0  0  0  0  0  0  0  0  0
  139.4180   72.5840  219.9270 C   0  0  0  0  0  0  0  0  0  0  0  0
  140.5740   73.2250  219.3260 C   0  0  0  0  0  0  0  0  0  0  0  0
  140.5110   73.3690  218.0320 O   0  0  0  0  0  0  0  0  0  0  0  0
  141.7520   73.7180  219.8960 N   0  0  0  0  0  0  0  0  0  0  0  0
  143.0610   73.1170  219.4370 C   0  0  0  0  0  0  0  0  0  0  0  0
  143.9540   74.3520  219.3600 C   0  0  2  0  0  0  0  0  0  0  0  0
  145.1280   74.0760  220.0510 O   0  0  0  0  0  0  0  0  0  0  0  0
  143.1800   75.4840  220.0150 C   0  0  0  0  0  0  0  0  0  0  0  0
  142.1790   74.6750  220.8440 C   0  0  1  0  0  0  0  0  0  0  0  0
  141.2380   75.5160  221.5470 C   0  0  0  0  0  0  0  0  0  0  0  0
  140.2330   75.2090  222.2040 O   0  0  0  0  0  0  0  0  0  0  0  0
  141.4940   76.9500  221.4860 N   0  0  0  0  0  0  0  0  0  0  0  0
  140.5630   77.7870  222.1820 C   0  0  0  0  0  0  0  0  0  0  0  0
  140.9790   78.6350  223.1880 C   0  0  0  0  0  0  0  0  0  0  0  0
  140.0410   79.4360  223.8460 C   0  0  0  0  0  0  0  0  0  0  0  0
  138.6930   79.3750  223.4830 C   0  0  0  0  0  0  0  0  0  0  0  0
  137.6820   80.1940  224.1440 C   0  0  0  0  0  0  0  0  0  0  0  0
  138.0480   81.1880  225.0580 C   0  0  0  0  0  0  0  0  0  0  0  0
  137.0880   81.9370  225.6610 C   0  0  0  0  0  0  0  0  0  0  0  0
  135.7210   81.7700  225.4130 C   0  0  0  0  0  0  0  0  0  0  0  0
  135.3610   80.7920  224.5110 C   0  0  0  0  0  0  0  0  0  0  0  0
  136.3210   80.0110  223.8820 C   0  0  0  0  0  0  0  0  0  0  0  0
  138.2870   78.5230  222.4760 C   0  0  0  0  0  0  0  0  0  0  0  0
  139.2300   77.7410  221.8400 C   0  0  0  0  0  0  0  0  0  0  0  0
  139.8240   70.6450  223.2290 C   0  0  0  0  0  0  0  0  0  0  0  0
  140.3390   71.6400  224.0430 C   0  0  0  0  0  0  0  0  0  0  0  0
  140.6190   71.4550  225.3760 C   0  0  0  0  0  0  0  0  0  0  0  0
  140.3640   70.2010  225.9070 C   0  0  0  0  0  0  0  0  0  0  0  0
  140.6490   70.0300  227.2440 C   0  0  0  0  0  0  0  0  0  0  0  0
  140.4100   68.8050  227.8080 C   0  0  0  0  0  0  0  0  0  0  0  0
  140.6800   68.5910  229.1360 F   0  0  0  0  0  0  0  0  0  0  0  0
  139.9000   67.8040  227.0230 C   0  0  0  0  0  0  0  0  0  0  0  0
  139.6100   67.9670  225.6740 C   0  0  0  0  0  0  0  0  0  0  0  0
  139.8510   69.2020  225.1100 C   0  0  0  0  0  0  0  0  0  0  0  0
  139.5980   69.4520  223.8010 N   0  0  0  0  0  0  0  0  0  0  0  0
  139.9700   72.9890  222.0350 H   0  0  0  0  0  0  0  0  0  0  0  0
  139.1937   71.6563  219.3801 H   0  0  0  0  0  0  0  0  0  0  0  0
  138.5621   73.2728  219.8735 H   0  0  0  0  0  0  0  0  0  0  0  0
  143.4456   72.3881  220.1656 H   0  0  0  0  0  0  0  0  0  0  0  0
  142.9899   72.5561  218.4934 H   0  0  0  0  0  0  0  0  0  0  0  0
  144.2173   74.6292  218.3286 H   0  0  0  0  0  0  0  0  0  0  0  0
  145.9240   74.4710  219.6180 H   0  0  0  0  0  0  0  0  0  0  0  0
  143.8268   76.1072  220.6500 H   0  0  0  0  0  0  0  0  0  0  0  0
  142.7288   76.2030  219.3154 H   0  0  0  0  0  0  0  0  0  0  0  0
  142.5466   74.1435  221.7341 H   0  0  0  0  0  0  0  0  0  0  0  0
  142.3130   77.3250  220.9590 H   0  0  0  0  0  0  0  0  0  0  0  0
  142.0412   78.6804  223.4702 H   0  0  0  0  0  0  0  0  0  0  0  0
  140.3641   80.1143  224.6495 H   0  0  0  0  0  0  0  0  0  0  0  0
  139.1095   81.3626  225.2877 H   0  0  0  0  0  0  0  0  0  0  0  0
  137.4000   82.7109  226.3777 H   0  0  0  0  0  0  0  0  0  0  0  0
  134.9663   82.3923  225.9162 H   0  0  0  0  0  0  0  0  0  0  0  0
  134.2968   80.6278  224.2861 H   0  0  0  0  0  0  0  0  0  0  0  0
  136.0062   79.2367  223.1669 H   0  0  0  0  0  0  0  0  0  0  0  0
  137.2277   78.4680  222.1846 H   0  0  0  0  0  0  0  0  0  0  0  0
  138.9074   77.0618  221.0371 H   0  0  0  0  0  0  0  0  0  0  0  0
  140.5338   72.6281  223.6006 H   0  0  0  0  0  0  0  0  0  0  0  0
  141.0279   72.2676  225.9945 H   0  0  0  0  0  0  0  0  0  0  0  0
  141.0582   70.8565  227.8435 H   0  0  0  0  0  0  0  0  0  0  0  0
  139.7109   66.8232  227.4837 H   0  0  0  0  0  0  0  0  0  0  0  0
  139.2019   67.1388  225.0761 H   0  0  0  0  0  0  0  0  0  0  0  0
  1  2  2  0
  2  3  1  0
  3  4  1  0
  4  5  1  0
  5  6  2  0
  5  7  1  0
  7  8  1  0
  8  9  1  0
  9 10  1  0
  9 11  1  0
 11 12  1  0
 12 13  1  0
 13 14  2  0
 13 15  1  0
 15 16  1  0
 16 17  2  0
 17 18  1  0
 18 19  2  0
 19 20  1  0
 20 21  2  0
 21 22  1  0
 22 23  2  0
 23 24  1  0
 24 25  2  0
 19 26  1  0
 26 27  2  0
  2 28  1  0
 28 29  2  0
 29 30  1  0
 30 31  2  0
 31 32  1  0
 32 33  2  0
 33 34  1  0
 33 35  1  0
 35 36  2  0
 36 37  1  0
 37 38  2  0
 12  7  1  0
 27 16  1  0
 38 28  1  0
 25 20  1  0
 37 31  1  0
  3 39  1  0
  4 40  1  0
  4 41  1  0
  8 42  1  0
  8 43  1  0
  9 44  1  6
 10 45  1  0
 11 46  1  0
 11 47  1  0
 12 48  1  1
 15 49  1  0
 17 50  1  0
 18 51  1  0
 21 52  1  0
 22 53  1  0
 23 54  1  0
 24 55  1  0
 25 56  1  0
 26 57  1  0
 27 58  1  0
 29 59  1  0
 30 60  1  0
 32 61  1  0
 35 62  1  0
 36 63  1  0
M  END
>  <smiles>  (26) 
O=C(NCC(=O)N1C[C@H](O)C[C@H]1C(=O)Nc1ccc(-c2ccccc2)cc1)c1ccc2cc(F)ccc2n1

>  <score_type>  (26) 
oracle

>  <origin>  (26) 
autodockgpu

>  <m_score__min__energy>  (26) 
-9.8499999999999996

>  <m_primary>  (26) 
energy

>  <rmsd>  (26) 
3.3697983269848715

>  <m_score__min__rmsd>  (26) 
3.3697983269848715

>  <meeko>  (26) 
{"free_energy": -9.19, "intermolecular_energy": -11.57, "internal_energy": -2.3, "cluster_size": 26, "cluster_id": 1, "rank_in_cluster": 16}

>  <energy>  (26) 
-8.8

>  <cluster_rmsd>  (26) 
1.23

>  <cluster>  (26) 
1

$$$$

     RDKit          3D

 63 67  0  0  0  0  0  0  0  0999 V2000
  139.5590   73.4520  222.3960 O   0  0  0  0  0  0  0  0  0  0  0  0
  139.7300   72.2130  222.2740 C   0  0  0  0  0  0  0  0  0  0  0  0
  139.8100   71.5570  221.0060 N   0  0  0  0  0  0  0  0  0  0  0  0
  139.6900   72.3480  219.7530 C   0  0  0  0  0  0  0  0  0  0  0  0
  140.2740   73.6650  219.9250 C   0  0  0  0  0  0  0  0  0  0  0  0
  139.4120   74.6410  220.0060 O   0  0  0  0  0  0  0  0  0  0  0  0
  141.6070   74.0760  220.0200 N   0  0  0  0  0  0  0  0  0  0  0  0
  142.6740   73.1150  219.5460 C   0  0  0  0  0  0  0  0  0  0  0  0
  143.6470   74.0610  218.8460 C   0  0  2  0  0  0  0  0  0  0  0  0
  144.9230   73.7980  219.3300 O   0  0  0  0  0  0  0  0  0  0  0  0
  143.2030   75.4710  219.1960 C   0  0  0  0  0  0  0  0  0  0  0  0
  142.3720   75.1830  220.4490 C   0  0  1  0  0  0  0  0  0  0  0  0
  141.7480   76.3730  220.9820 C   0  0  0  0  0  0  0  0  0  0  0  0
  142.0530   77.5650  220.8340 O   0  0  0  0  0  0  0  0  0  0  0  0
  140.5800   76.1570  221.8270 N   0  0  0  0  0  0  0  0  0  0  0  0
  139.9590   77.3350  222.3560 C   0  0  0  0  0  0  0  0  0  0  0  0
  140.6770   78.2490  223.0990 C   0  0  0  0  0  0  0  0  0  0  0  0
  140.0370   79.3850  223.6000 C   0  0  0  0  0  0  0  0  0  0  0  0
  138.6780   79.5910  223.3460 C   0  0  0  0  0  0  0  0  0  0  0  0
  137.9710   80.7640  223.8490 C   0  0  0  0  0  0  0  0  0  0  0  0
  137.5980   81.8030  222.9880 C   0  0  0  0  0  0  0  0  0  0  0  0
  136.9410   82.8850  223.4820 C   0  0  0  0  0  0  0  0  0  0  0  0
  136.6070   83.0250  224.8330 C   0  0  0  0  0  0  0  0  0  0  0  0
  136.9730   82.0010  225.6810 C   0  0  0  0  0  0  0  0  0  0  0  0
  137.6460   80.8850  225.2040 C   0  0  0  0  0  0  0  0  0  0  0  0
  137.9680   78.6710  222.6020 C   0  0  0  0  0  0  0  0  0  0  0  0
  138.6210   77.5550  222.1170 C   0  0  0  0  0  0  0  0  0  0  0  0
  139.8540   71.3890  223.4790 C   0  0  0  0  0  0  0  0  0  0  0  0
  139.4710   70.0580  223.4600 C   0  0  0  0  0  0  0  0  0  0  0  0
  139.5610   69.2300  224.5530 C   0  0  0  0  0  0  0  0  0  0  0  0
  140.0640   69.7800  225.7220 C   0  0  0  0  0  0  0  0  0  0  0  0
  140.1480   68.9390  226.8100 C   0  0  0  0  0  0  0  0  0  0  0  0
  140.6410   69.4440  227.9840 C   0  0  0  0  0  0  0  0  0  0  0  0
  140.7420   68.6410  229.0920 F   0  0  0  0  0  0  0  0  0  0  0  0
  141.0270   70.7570  228.0290 C   0  0  0  0  0  0  0  0  0  0  0  0
  140.9460   71.6130  226.9370 C   0  0  0  0  0  0  0  0  0  0  0  0
  140.4500   71.1010  225.7560 C   0  0  0  0  0  0  0  0  0  0  0  0
  140.3340   71.8630  224.6400 N   0  0  0  0  0  0  0  0  0  0  0  0
  139.9530   70.5280  220.9910 H   0  0  0  0  0  0  0  0  0  0  0  0
  140.2149   71.8225  218.9416 H   0  0  0  0  0  0  0  0  0  0  0  0
  138.6244   72.4613  219.5047 H   0  0  0  0  0  0  0  0  0  0  0  0
  143.1534   72.5984  220.3906 H   0  0  0  0  0  0  0  0  0  0  0  0
  142.2955   72.3058  218.9043 H   0  0  0  0  0  0  0  0  0  0  0  0
  143.6590   73.9352  217.7533 H   0  0  0  0  0  0  0  0  0  0  0  0
  145.6000   74.4220  218.9700 H   0  0  0  0  0  0  0  0  0  0  0  0
  144.0590   76.1262  219.4152 H   0  0  0  0  0  0  0  0  0  0  0  0
  142.6663   76.0006  218.3951 H   0  0  0  0  0  0  0  0  0  0  0  0
  142.8998   74.9040  221.3729 H   0  0  0  0  0  0  0  0  0  0  0  0
  140.2320   75.1930  222.0210 H   0  0  0  0  0  0  0  0  0  0  0  0
  141.7467   78.0843  223.2957 H   0  0  0  0  0  0  0  0  0  0  0  0
  140.6025   80.1176  224.1945 H   0  0  0  0  0  0  0  0  0  0  0  0
  137.8359   81.7437  221.9157 H   0  0  0  0  0  0  0  0  0  0  0  0
  136.6584   83.6889  222.7864 H   0  0  0  0  0  0  0  0  0  0  0  0
  136.0751   83.9139  225.2032 H   0  0  0  0  0  0  0  0  0  0  0  0
  136.7280   82.0698  226.7511 H   0  0  0  0  0  0  0  0  0  0  0  0
  137.9282   80.0833  225.9023 H   0  0  0  0  0  0  0  0  0  0  0  0
  136.8979   78.8242  222.3983 H   0  0  0  0  0  0  0  0  0  0  0  0
  138.0563   76.8212  221.5231 H   0  0  0  0  0  0  0  0  0  0  0  0
  139.0744   69.6425  222.5219 H   0  0  0  0  0  0  0  0  0  0  0  0
  139.2476   68.1768  224.5026 H   0  0  0  0  0  0  0  0  0  0  0  0
  139.8275   67.8892  226.7378 H   0  0  0  0  0  0  0  0  0  0  0  0
  141.4207   71.1540  228.9763 H   0  0  0  0  0  0  0  0  0  0  0  0
  141.2664   72.6626  227.0119 H   0  0  0  0  0  0  0  0  0  0  0  0
  1  2  2  0
  2  3  1  0
  3  4  1  0
  4  5  1  0
  5  6  2  0
  5  7  1  0
  7  8  1  0
  8  9  1  0
  9 10  1  0
  9 11  1  0
 11 12  1  0
 12 13  1  0
 13 14  2  0
 13 15  1  0
 15 16  1  0
 16 17  2  0
 17 18  1  0
 18 19  2  0
 19 20  1  0
 20 21  2  0
 21 22  1  0
 22 23  2  0
 23 24  1  0
 24 25  2  0
 19 26  1  0
 26 27  2  0
  2 28  1  0
 28 29  2  0
 29 30  1  0
 30 31  2  0
 31 32  1  0
 32 33  2  0
 33 34  1  0
 33 35  1  0
 35 36  2  0
 36 37  1  0
 37 38  2  0
 12  7  1  0
 27 16  1  0
 38 28  1  0
 25 20  1  0
 37 31  1  0
  3 39  1  0
  4 40  1  0
  4 41  1  0
  8 42  1  0
  8 43  1  0
  9 44  1  6
 10 45  1  0
 11 46  1  0
 11 47  1  0
 12 48  1  1
 15 49  1  0
 17 50  1  0
 18 51  1  0
 21 52  1  0
 22 53  1  0
 23 54  1  0
 24 55  1  0
 25 56  1  0
 26 57  1  0
 27 58  1  0
 29 59  1  0
 30 60  1  0
 32 61  1  0
 35 62  1  0
 36 63  1  0
M  END
>  <smiles>  (27) 
O=C(NCC(=O)N1C[C@H](O)C[C@H]1C(=O)Nc1ccc(-c2ccccc2)cc1)c1ccc2cc(F)ccc2n1

>  <score_type>  (27) 
oracle

>  <origin>  (27) 
autodockgpu

>  <m_score__min__energy>  (27) 
-9.8499999999999996

>  <m_primary>  (27) 
energy

>  <rmsd>  (27) 
2.7623926780340518

>  <m_score__min__rmsd>  (27) 
2.7623926780340518

>  <meeko>  (27) 
{"free_energy": -8.95, "intermolecular_energy": -11.34, "internal_energy": -2.79, "cluster_size": 26, "cluster_id": 1, "rank_in_cluster": 23}

>  <energy>  (27) 
-9.32

>  <cluster_rmsd>  (27) 
0.0

>  <cluster>  (27) 
2

$$$$

     RDKit          3D

 63 67  0  0  0  0  0  0  0  0999 V2000
  139.9500   73.7390  222.6800 O   0  0  0  0  0  0  0  0  0  0  0  0
  139.8630   72.5100  222.4270 C   0  0  0  0  0  0  0  0  0  0  0  0
  139.6800   71.9960  221.1070 N   0  0  0  0  0  0  0  0  0  0  0  0
  139.5830   72.9280  219.9540 C   0  0  0  0  0  0  0  0  0  0  0  0
  140.8500   73.0000  219.2500 C   0  0  0  0  0  0  0  0  0  0  0  0
  140.8350   72.5100  218.0420 O   0  0  0  0  0  0  0  0  0  0  0  0
  142.0930   73.5070  219.6410 N   0  0  0  0  0  0  0  0  0  0  0  0
  143.3100   72.6380  219.4170 C   0  0  0  0  0  0  0  0  0  0  0  0
  144.3380   73.6660  218.9540 C   0  0  2  0  0  0  0  0  0  0  0  0
  145.4910   73.4910  219.7100 O   0  0  0  0  0  0  0  0  0  0  0  0
  143.7200   75.0320  219.1970 C   0  0  0  0  0  0  0  0  0  0  0  0
  142.6560   74.6600  220.2330 C   0  0  1  0  0  0  0  0  0  0  0  0
  141.8390   75.7900  220.6150 C   0  0  0  0  0  0  0  0  0  0  0  0
  141.4390   76.7480  219.9370 O   0  0  0  0  0  0  0  0  0  0  0  0
  141.4090   75.8250  222.0070 N   0  0  0  0  0  0  0  0  0  0  0  0
  140.5990   76.9430  222.3880 C   0  0  0  0  0  0  0  0  0  0  0  0
  139.2220   76.8940  222.2950 C   0  0  0  0  0  0  0  0  0  0  0  0
  138.4650   78.0040  222.6750 C   0  0  0  0  0  0  0  0  0  0  0  0
  139.1020   79.1550  223.1490 C   0  0  0  0  0  0  0  0  0  0  0  0
  138.3490   80.3370  223.5570 C   0  0  0  0  0  0  0  0  0  0  0  0
  137.9540   81.2970  222.6180 C   0  0  0  0  0  0  0  0  0  0  0  0
  137.2540   82.3890  223.0240 C   0  0  0  0  0  0  0  0  0  0  0  0
  136.8950   82.6140  224.3570 C   0  0  0  0  0  0  0  0  0  0  0  0
  137.2820   81.6670  225.2810 C   0  0  0  0  0  0  0  0  0  0  0  0
  138.0000   80.5430  224.8950 C   0  0  0  0  0  0  0  0  0  0  0  0
  140.4780   79.1950  223.2380 C   0  0  0  0  0  0  0  0  0  0  0  0
  141.2070   78.0860  222.8570 C   0  0  0  0  0  0  0  0  0  0  0  0
  139.9520   71.5490  223.5300 C   0  0  0  0  0  0  0  0  0  0  0  0
  139.5180   70.2450  223.3590 C   0  0  0  0  0  0  0  0  0  0  0  0
  139.5730   69.2940  224.3500 C   0  0  0  0  0  0  0  0  0  0  0  0
  140.0930   69.6870  225.5740 C   0  0  0  0  0  0  0  0  0  0  0  0
  140.1420   68.7240  226.5580 C   0  0  0  0  0  0  0  0  0  0  0  0
  140.6500   69.0720  227.7820 C   0  0  0  0  0  0  0  0  0  0  0  0
  140.7170   68.1440  228.7900 F   0  0  0  0  0  0  0  0  0  0  0  0
  141.0850   70.3560  227.9770 C   0  0  0  0  0  0  0  0  0  0  0  0
  141.0400   71.3340  226.9900 C   0  0  0  0  0  0  0  0  0  0  0  0
  140.5290   70.9800  225.7590 C   0  0  0  0  0  0  0  0  0  0  0  0
  140.4450   71.8680  224.7370 N   0  0  0  0  0  0  0  0  0  0  0  0
  139.6170   70.9650  220.9830 H   0  0  0  0  0  0  0  0  0  0  0  0
  138.8052   72.5698  219.2635 H   0  0  0  0  0  0  0  0  0  0  0  0
  139.3264   73.9303  220.3276 H   0  0  0  0  0  0  0  0  0  0  0  0
  143.6272   72.1436  220.3470 H   0  0  0  0  0  0  0  0  0  0  0  0
  143.1479   71.8146  218.7058 H   0  0  0  0  0  0  0  0  0  0  0  0
  144.6028   73.5609  217.8915 H   0  0  0  0  0  0  0  0  0  0  0  0
  146.1780   74.1750  219.5180 H   0  0  0  0  0  0  0  0  0  0  0  0
  144.4526   75.7456  219.6020 H   0  0  0  0  0  0  0  0  0  0  0  0
  143.3356   75.5341  218.2969 H   0  0  0  0  0  0  0  0  0  0  0  0
  142.9848   74.4045  221.2511 H   0  0  0  0  0  0  0  0  0  0  0  0
  141.6860   75.0700  222.6710 H   0  0  0  0  0  0  0  0  0  0  0  0
  138.7245   75.9859  221.9237 H   0  0  0  0  0  0  0  0  0  0  0  0
  137.3679   77.9730  222.6015 H   0  0  0  0  0  0  0  0  0  0  0  0
  138.2091   81.1681  221.5558 H   0  0  0  0  0  0  0  0  0  0  0  0
  136.9557   83.1309  222.2686 H   0  0  0  0  0  0  0  0  0  0  0  0
  136.3282   83.5083  224.6552 H   0  0  0  0  0  0  0  0  0  0  0  0
  137.0180   81.8039  226.3401 H   0  0  0  0  0  0  0  0  0  0  0  0
  138.2986   79.8039  225.6530 H   0  0  0  0  0  0  0  0  0  0  0  0
  140.9872   80.0975  223.6072 H   0  0  0  0  0  0  0  0  0  0  0  0
  142.3041   78.1164  222.9302 H   0  0  0  0  0  0  0  0  0  0  0  0
  139.1083   69.9555  222.3800 H   0  0  0  0  0  0  0  0  0  0  0  0
  139.2200   68.2662  224.1796 H   0  0  0  0  0  0  0  0  0  0  0  0
  139.7826   67.7022  226.3660 H   0  0  0  0  0  0  0  0  0  0  0  0
  141.4900   70.6267  228.9633 H   0  0  0  0  0  0  0  0  0  0  0  0
  141.3996   72.3552  227.1843 H   0  0  0  0  0  0  0  0  0  0  0  0
  1  2  2  0
  2  3  1  0
  3  4  1  0
  4  5  1  0
  5  6  2  0
  5  7  1  0
  7  8  1  0
  8  9  1  0
  9 10  1  0
  9 11  1  0
 11 12  1  0
 12 13  1  0
 13 14  2  0
 13 15  1  0
 15 16  1  0
 16 17  2  0
 17 18  1  0
 18 19  2  0
 19 20  1  0
 20 21  2  0
 21 22  1  0
 22 23  2  0
 23 24  1  0
 24 25  2  0
 19 26  1  0
 26 27  2  0
  2 28  1  0
 28 29  2  0
 29 30  1  0
 30 31  2  0
 31 32  1  0
 32 33  2  0
 33 34  1  0
 33 35  1  0
 35 36  2  0
 36 37  1  0
 37 38  2  0
 12  7  1  0
 27 16  1  0
 38 28  1  0
 25 20  1  0
 37 31  1  0
  3 39  1  0
  4 40  1  0
  4 41  1  0
  8 42  1  0
  8 43  1  0
  9 44  1  6
 10 45  1  0
 11 46  1  0
 11 47  1  0
 12 48  1  1
 15 49  1  0
 17 50  1  0
 18 51  1  0
 21 52  1  0
 22 53  1  0
 23 54  1  0
 24 55  1  0
 25 56  1  0
 26 57  1  0
 27 58  1  0
 29 59  1  0
 30 60  1  0
 32 61  1  0
 35 62  1  0
 36 63  1  0
M  END
>  <smiles>  (28) 
O=C(NCC(=O)N1C[C@H](O)C[C@H]1C(=O)Nc1ccc(-c2ccccc2)cc1)c1ccc2cc(F)ccc2n1

>  <score_type>  (28) 
oracle

>  <origin>  (28) 
autodockgpu

>  <m_score__min__energy>  (28) 
-9.8499999999999996

>  <m_primary>  (28) 
energy

>  <rmsd>  (28) 
2.950217337251868

>  <m_score__min__rmsd>  (28) 
2.950217337251868

>  <meeko>  (28) 
{"free_energy": -9.41, "intermolecular_energy": -11.79, "internal_energy": -2.65, "cluster_size": 26, "cluster_id": 1, "rank_in_cluster": 11}

>  <energy>  (28) 
-9.09

>  <cluster_rmsd>  (28) 
0.21

>  <cluster>  (28) 
2

$$$$

     RDKit          3D

 63 67  0  0  0  0  0  0  0  0999 V2000
  139.0540   72.7630  222.2920 O   0  0  0  0  0  0  0  0  0  0  0  0
  138.8970   71.5540  222.5990 C   0  0  0  0  0  0  0  0  0  0  0  0
  138.1950   70.6230  221.7730 N   0  0  0  0  0  0  0  0  0  0  0  0
  137.6110   71.0710  220.4810 C   0  0  0  0  0  0  0  0  0  0  0  0
  138.5820   71.8350  219.7210 C   0  0  0  0  0  0  0  0  0  0  0  0
  138.1610   72.9960  219.3020 O   0  0  0  0  0  0  0  0  0  0  0  0
  139.9010   71.5450  219.3570 N   0  0  0  0  0  0  0  0  0  0  0  0
  140.1420   70.3140  218.5130 C   0  0  0  0  0  0  0  0  0  0  0  0
  141.2130   70.8120  217.5460 C   0  0  2  0  0  0  0  0  0  0  0  0
  142.2530   69.8900  217.5460 O   0  0  0  0  0  0  0  0  0  0  0  0
  141.6700   72.1620  218.0690 C   0  0  0  0  0  0  0  0  0  0  0  0
  141.2090   72.0520  219.5240 C   0  0  1  0  0  0  0  0  0  0  0  0
  141.4610   73.2610  220.2760 C   0  0  0  0  0  0  0  0  0  0  0  0
  142.3170   73.4960  221.1400 O   0  0  0  0  0  0  0  0  0  0  0  0
  140.5820   74.3870  219.9870 N   0  0  0  0  0  0  0  0  0  0  0  0
  140.8300   75.5870  220.7300 C   0  0  0  0  0  0  0  0  0  0  0  0
  140.3420   75.7480  222.0100 C   0  0  0  0  0  0  0  0  0  0  0  0
  140.6030   76.9320  222.7040 C   0  0  0  0  0  0  0  0  0  0  0  0
  141.3560   77.9440  222.1000 C   0  0  0  0  0  0  0  0  0  0  0  0
  141.6530   79.1960  222.7890 C   0  0  0  0  0  0  0  0  0  0  0  0
  142.9730   79.5690  223.0660 C   0  0  0  0  0  0  0  0  0  0  0  0
  143.2230   80.7390  223.7090 C   0  0  0  0  0  0  0  0  0  0  0  0
  142.2130   81.6150  224.1200 C   0  0  0  0  0  0  0  0  0  0  0  0
  140.9120   81.2490  223.8460 C   0  0  0  0  0  0  0  0  0  0  0  0
  140.6290   80.0580  223.1920 C   0  0  0  0  0  0  0  0  0  0  0  0
  141.8400   77.7730  220.8200 C   0  0  0  0  0  0  0  0  0  0  0  0
  141.5700   76.5950  220.1530 C   0  0  0  0  0  0  0  0  0  0  0  0
  139.4540   71.0630  223.8620 C   0  0  0  0  0  0  0  0  0  0  0  0
  140.3260   71.8490  224.5950 C   0  0  0  0  0  0  0  0  0  0  0  0
  140.8840   71.4510  225.7870 C   0  0  0  0  0  0  0  0  0  0  0  0
  140.5400   70.1920  226.2560 C   0  0  0  0  0  0  0  0  0  0  0  0
  141.1060   69.8050  227.4500 C   0  0  0  0  0  0  0  0  0  0  0  0
  140.7900   68.5680  227.9480 C   0  0  0  0  0  0  0  0  0  0  0  0
  141.3320   68.1430  229.1350 F   0  0  0  0  0  0  0  0  0  0  0  0
  139.9300   67.7710  227.2410 C   0  0  0  0  0  0  0  0  0  0  0  0
  139.3530   68.1530  226.0350 C   0  0  0  0  0  0  0  0  0  0  0  0
  139.6730   69.3990  225.5370 C   0  0  0  0  0  0  0  0  0  0  0  0
  139.1590   69.8550  224.3680 N   0  0  0  0  0  0  0  0  0  0  0  0
  138.1090   69.6400  222.0990 H   0  0  0  0  0  0  0  0  0  0  0  0
  137.3064   70.1901  219.8968 H   0  0  0  0  0  0  0  0  0  0  0  0
  136.7395   71.7096  220.6875 H   0  0  0  0  0  0  0  0  0  0  0  0
  140.5095   69.4750  219.1221 H   0  0  0  0  0  0  0  0  0  0  0  0
  139.2390   69.9248  218.0200 H   0  0  0  0  0  0  0  0  0  0  0  0
  140.8462   70.9179  216.5144 H   0  0  0  0  0  0  0  0  0  0  0  0
  142.0180   69.0540  218.0160 H   0  0  0  0  0  0  0  0  0  0  0  0
  142.7610   72.2810  217.9941 H   0  0  0  0  0  0  0  0  0  0  0  0
  141.2737   73.0298  217.5214 H   0  0  0  0  0  0  0  0  0  0  0  0
  141.7609   71.3790  220.1967 H   0  0  0  0  0  0  0  0  0  0  0  0
  139.8230   74.3040  219.2760 H   0  0  0  0  0  0  0  0  0  0  0  0
  139.7509   74.9490  222.4815 H   0  0  0  0  0  0  0  0  0  0  0  0
  140.2165   77.0682  223.7248 H   0  0  0  0  0  0  0  0  0  0  0  0
  143.8056   78.9167  222.7639 H   0  0  0  0  0  0  0  0  0  0  0  0
  144.2687   81.0103  223.9162 H   0  0  0  0  0  0  0  0  0  0  0  0
  142.4466   82.5559  224.6397 H   0  0  0  0  0  0  0  0  0  0  0  0
  140.0871   81.9102  224.1500 H   0  0  0  0  0  0  0  0  0  0  0  0
  139.5824   79.7881  222.9876 H   0  0  0  0  0  0  0  0  0  0  0  0
  142.4327   78.5641  220.3374 H   0  0  0  0  0  0  0  0  0  0  0  0
  141.9566   76.4576  219.1324 H   0  0  0  0  0  0  0  0  0  0  0  0
  140.5861   72.8436  224.2037 H   0  0  0  0  0  0  0  0  0  0  0  0
  141.5731   72.1027  226.3442 H   0  0  0  0  0  0  0  0  0  0  0  0
  141.7942   70.4716  227.9903 H   0  0  0  0  0  0  0  0  0  0  0  0
  139.6832   66.7790  227.6473 H   0  0  0  0  0  0  0  0  0  0  0  0
  138.6650   67.4846  225.4965 H   0  0  0  0  0  0  0  0  0  0  0  0
  1  2  2  0
  2  3  1  0
  3  4  1  0
  4  5  1  0
  5  6  2  0
  5  7  1  0
  7  8  1  0
  8  9  1  0
  9 10  1  0
  9 11  1  0
 11 12  1  0
 12 13  1  0
 13 14  2  0
 13 15  1  0
 15 16  1  0
 16 17  2  0
 17 18  1  0
 18 19  2  0
 19 20  1  0
 20 21  2  0
 21 22  1  0
 22 23  2  0
 23 24  1  0
 24 25  2  0
 19 26  1  0
 26 27  2  0
  2 28  1  0
 28 29  2  0
 29 30  1  0
 30 31  2  0
 31 32  1  0
 32 33  2  0
 33 34  1  0
 33 35  1  0
 35 36  2  0
 36 37  1  0
 37 38  2  0
 12  7  1  0
 27 16  1  0
 38 28  1  0
 25 20  1  0
 37 31  1  0
  3 39  1  0
  4 40  1  0
  4 41  1  0
  8 42  1  0
  8 43  1  0
  9 44  1  6
 10 45  1  0
 11 46  1  0
 11 47  1  0
 12 48  1  1
 15 49  1  0
 17 50  1  0
 18 51  1  0
 21 52  1  0
 22 53  1  0
 23 54  1  0
 24 55  1  0
 25 56  1  0
 26 57  1  0
 27 58  1  0
 29 59  1  0
 30 60  1  0
 32 61  1  0
 35 62  1  0
 36 63  1  0
M  END
>  <smiles>  (29) 
O=C(NCC(=O)N1C[C@H](O)C[C@H]1C(=O)Nc1ccc(-c2ccccc2)cc1)c1ccc2cc(F)ccc2n1

>  <score_type>  (29) 
oracle

>  <origin>  (29) 
autodockgpu

>  <m_score__min__energy>  (29) 
-9.8499999999999996

>  <m_primary>  (29) 
energy

>  <rmsd>  (29) 
4.23139527287462

>  <m_score__min__rmsd>  (29) 
4.23139527287462

>  <meeko>  (29) 
{"free_energy": -8.17, "intermolecular_energy": -10.56, "internal_energy": -3.26, "cluster_size": 7, "cluster_id": 2, "rank_in_cluster": 7}

>  <energy>  (29) 
-8.97

>  <cluster_rmsd>  (29) 
0.27

>  <cluster>  (29) 
2

$$$$

     RDKit          3D

 63 67  0  0  0  0  0  0  0  0999 V2000
  139.6620   73.4020  222.4320 O   0  0  0  0  0  0  0  0  0  0  0  0
  139.7980   72.1600  222.3010 C   0  0  0  0  0  0  0  0  0  0  0  0
  139.8430   71.5080  221.0300 N   0  0  0  0  0  0  0  0  0  0  0  0
  139.7260   72.3070  219.7820 C   0  0  0  0  0  0  0  0  0  0  0  0
  140.2370   73.6500  219.9880 C   0  0  0  0  0  0  0  0  0  0  0  0
  139.3240   74.5690  220.1360 O   0  0  0  0  0  0  0  0  0  0  0  0
  141.5470   74.1350  220.0570 N   0  0  0  0  0  0  0  0  0  0  0  0
  142.6610   73.2220  219.5980 C   0  0  0  0  0  0  0  0  0  0  0  0
  143.5730   74.1990  218.8620 C   0  0  2  0  0  0  0  0  0  0  0  0
  144.8670   74.0200  219.3390 O   0  0  0  0  0  0  0  0  0  0  0  0
  143.0560   75.5920  219.1780 C   0  0  0  0  0  0  0  0  0  0  0  0
  142.2540   75.2950  220.4480 C   0  0  1  0  0  0  0  0  0  0  0  0
  141.5710   76.4630  220.9550 C   0  0  0  0  0  0  0  0  0  0  0  0
  141.7990   77.6650  220.7590 O   0  0  0  0  0  0  0  0  0  0  0  0
  140.4360   76.2080  221.8330 N   0  0  0  0  0  0  0  0  0  0  0  0
  139.7570   77.3640  222.3370 C   0  0  0  0  0  0  0  0  0  0  0  0
  138.4080   77.5540  222.1130 C   0  0  0  0  0  0  0  0  0  0  0  0
  137.7800   78.6940  222.6190 C   0  0  0  0  0  0  0  0  0  0  0  0
  138.5160   79.6330  223.3480 C   0  0  0  0  0  0  0  0  0  0  0  0
  137.8980   80.8370  223.8950 C   0  0  0  0  0  0  0  0  0  0  0  0
  137.5210   81.8940  223.0590 C   0  0  0  0  0  0  0  0  0  0  0  0
  136.9480   83.0040  223.5920 C   0  0  0  0  0  0  0  0  0  0  0  0
  136.7060   83.1560  224.9610 C   0  0  0  0  0  0  0  0  0  0  0  0
  137.0760   82.1150  225.7850 C   0  0  0  0  0  0  0  0  0  0  0  0
  137.6650   80.9690  225.2670 C   0  0  0  0  0  0  0  0  0  0  0  0
  139.8630   79.4340  223.5670 C   0  0  0  0  0  0  0  0  0  0  0  0
  140.4640   78.3000  223.0570 C   0  0  0  0  0  0  0  0  0  0  0  0
  139.9180   71.3270  223.5010 C   0  0  0  0  0  0  0  0  0  0  0  0
  139.5050   70.0050  223.4800 C   0  0  0  0  0  0  0  0  0  0  0  0
  139.5890   69.1700  224.5680 C   0  0  0  0  0  0  0  0  0  0  0  0
  140.1170   69.7020  225.7340 C   0  0  0  0  0  0  0  0  0  0  0  0
  140.1950   68.8540  226.8170 C   0  0  0  0  0  0  0  0  0  0  0  0
  140.7120   69.3420  227.9880 C   0  0  0  0  0  0  0  0  0  0  0  0
  140.8080   68.5320  229.0910 F   0  0  0  0  0  0  0  0  0  0  0  0
  141.1270   70.6470  228.0350 C   0  0  0  0  0  0  0  0  0  0  0  0
  141.0520   71.5100  226.9480 C   0  0  0  0  0  0  0  0  0  0  0  0
  140.5320   71.0150  225.7700 C   0  0  0  0  0  0  0  0  0  0  0  0
  140.4200   71.7840  224.6590 N   0  0  0  0  0  0  0  0  0  0  0  0
  139.9590   70.4760  221.0090 H   0  0  0  0  0  0  0  0  0  0  0  0
  140.3040   71.8183  218.9838 H   0  0  0  0  0  0  0  0  0  0  0  0
  138.6651   72.3698  219.4981 H   0  0  0  0  0  0  0  0  0  0  0  0
  143.1762   72.7567  220.4513 H   0  0  0  0  0  0  0  0  0  0  0  0
  142.3217   72.3756  218.9828 H   0  0  0  0  0  0  0  0  0  0  0  0
  143.5810   74.0431  217.7731 H   0  0  0  0  0  0  0  0  0  0  0  0
  145.5400   74.5000  218.7970 H   0  0  0  0  0  0  0  0  0  0  0  0
  143.8770   76.2987  219.3693 H   0  0  0  0  0  0  0  0  0  0  0  0
  142.4833   76.0687  218.3688 H   0  0  0  0  0  0  0  0  0  0  0  0
  142.8045   75.0722  221.3739 H   0  0  0  0  0  0  0  0  0  0  0  0
  140.1520   75.2320  222.0690 H   0  0  0  0  0  0  0  0  0  0  0  0
  137.8319   76.8126  221.5400 H   0  0  0  0  0  0  0  0  0  0  0  0
  136.7058   78.8533  222.4440 H   0  0  0  0  0  0  0  0  0  0  0  0
  137.6882   81.8261  221.9739 H   0  0  0  0  0  0  0  0  0  0  0  0
  136.6607   83.8220  222.9150 H   0  0  0  0  0  0  0  0  0  0  0  0
  136.2401   84.0677  225.3631 H   0  0  0  0  0  0  0  0  0  0  0  0
  136.9023   82.1930  226.8684 H   0  0  0  0  0  0  0  0  0  0  0  0
  137.9524   80.1530  225.9464 H   0  0  0  0  0  0  0  0  0  0  0  0
  140.4499   80.1675  224.1393 H   0  0  0  0  0  0  0  0  0  0  0  0
  141.5383   78.1403  223.2312 H   0  0  0  0  0  0  0  0  0  0  0  0
  139.0885   69.6031  222.5446 H   0  0  0  0  0  0  0  0  0  0  0  0
  139.2517   68.1243  224.5159 H   0  0  0  0  0  0  0  0  0  0  0  0
  139.8510   67.8118  226.7433 H   0  0  0  0  0  0  0  0  0  0  0  0
  141.5399   71.0306  228.9796 H   0  0  0  0  0  0  0  0  0  0  0  0
  141.3956   72.5522  227.0244 H   0  0  0  0  0  0  0  0  0  0  0  0
  1  2  2  0
  2  3  1  0
  3  4  1  0
  4  5  1  0
  5  6  2  0
  5  7  1  0
  7  8  1  0
  8  9  1  0
  9 10  1  0
  9 11  1  0
 11 12  1  0
 12 13  1  0
 13 14  2  0
 13 15  1  0
 15 16  1  0
 16 17  2  0
 17 18  1  0
 18 19  2  0
 19 20  1  0
 20 21  2  0
 21 22  1  0
 22 23  2  0
 23 24  1  0
 24 25  2  0
 19 26  1  0
 26 27  2  0
  2 28  1  0
 28 29  2  0
 29 30  1  0
 30 31  2  0
 31 32  1  0
 32 33  2  0
 33 34  1  0
 33 35  1  0
 35 36  2  0
 36 37  1  0
 37 38  2  0
 12  7  1  0
 27 16  1  0
 38 28  1  0
 25 20  1  0
 37 31  1  0
  3 39  1  0
  4 40  1  0
  4 41  1  0
  8 42  1  0
  8 43  1  0
  9 44  1  6
 10 45  1  0
 11 46  1  0
 11 47  1  0
 12 48  1  1
 15 49  1  0
 17 50  1  0
 18 51  1  0
 21 52  1  0
 22 53  1  0
 23 54  1  0
 24 55  1  0
 25 56  1  0
 26 57  1  0
 27 58  1  0
 29 59  1  0
 30 60  1  0
 32 61  1  0
 35 62  1  0
 36 63  1  0
M  END
>  <smiles>  (30) 
O=C(NCC(=O)N1C[C@H](O)C[C@H]1C(=O)Nc1ccc(-c2ccccc2)cc1)c1ccc2cc(F)ccc2n1

>  <score_type>  (30) 
oracle

>  <origin>  (30) 
autodockgpu

>  <m_score__min__energy>  (30) 
-9.8499999999999996

>  <m_primary>  (30) 
energy

>  <rmsd>  (30) 
2.6762175300379814

>  <m_score__min__rmsd>  (30) 
2.6762175300379814

>  <meeko>  (30) 
{"free_energy": -9.0, "intermolecular_energy": -11.39, "internal_energy": -2.66, "cluster_size": 26, "cluster_id": 1, "rank_in_cluster": 21}

>  <energy>  (30) 
-8.71

>  <cluster_rmsd>  (30) 
0.82

>  <cluster>  (30) 
2

$$$$

     RDKit          3D

 63 67  0  0  0  0  0  0  0  0999 V2000
  139.8370   73.3090  222.7610 O   0  0  0  0  0  0  0  0  0  0  0  0
  140.0360   72.0790  222.5950 C   0  0  0  0  0  0  0  0  0  0  0  0
  140.2570   71.4900  221.3120 N   0  0  0  0  0  0  0  0  0  0  0  0
  140.2580   72.3430  220.0940 C   0  0  0  0  0  0  0  0  0  0  0  0
  141.5100   72.1990  219.3740 C   0  0  0  0  0  0  0  0  0  0  0  0
  141.5110   71.2750  218.4540 O   0  0  0  0  0  0  0  0  0  0  0  0
  142.7240   72.8830  219.4930 N   0  0  0  0  0  0  0  0  0  0  0  0
  143.9900   72.1350  219.1420 C   0  0  0  0  0  0  0  0  0  0  0  0
  144.7880   73.2120  218.4120 C   0  0  2  0  0  0  0  0  0  0  0  0
  146.0610   73.2530  218.9690 O   0  0  0  0  0  0  0  0  0  0  0  0
  144.0470   74.5200  218.6310 C   0  0  0  0  0  0  0  0  0  0  0  0
  143.2210   74.1520  219.8670 C   0  0  1  0  0  0  0  0  0  0  0  0
  142.3380   75.2190  220.2790 C   0  0  0  0  0  0  0  0  0  0  0  0
  142.2010   76.3610  219.8170 O   0  0  0  0  0  0  0  0  0  0  0  0
  141.4670   74.9260  221.4100 N   0  0  0  0  0  0  0  0  0  0  0  0
  140.5900   75.9820  221.8200 C   0  0  0  0  0  0  0  0  0  0  0  0
  139.2240   75.8850  221.6470 C   0  0  0  0  0  0  0  0  0  0  0  0
  138.4000   76.9350  222.0580 C   0  0  0  0  0  0  0  0  0  0  0  0
  138.9610   78.0750  222.6420 C   0  0  0  0  0  0  0  0  0  0  0  0
  138.1370   79.1950  223.0860 C   0  0  0  0  0  0  0  0  0  0  0  0
  138.6780   80.2180  223.8730 C   0  0  0  0  0  0  0  0  0  0  0  0
  137.8900   81.2500  224.2740 C   0  0  0  0  0  0  0  0  0  0  0  0
  136.5360   81.3520  223.9380 C   0  0  0  0  0  0  0  0  0  0  0  0
  136.0030   80.3450  223.1620 C   0  0  0  0  0  0  0  0  0  0  0  0
  136.7850   79.2780  222.7390 C   0  0  0  0  0  0  0  0  0  0  0  0
  140.3270   78.1630  222.8100 C   0  0  0  0  0  0  0  0  0  0  0  0
  141.1220   77.1130  222.3970 C   0  0  0  0  0  0  0  0  0  0  0  0
  140.0440   71.1950  223.7640 C   0  0  0  0  0  0  0  0  0  0  0  0
  139.5290   69.9130  223.6750 C   0  0  0  0  0  0  0  0  0  0  0  0
  139.5060   69.0330  224.7310 C   0  0  0  0  0  0  0  0  0  0  0  0
  140.0290   69.4780  225.9360 C   0  0  0  0  0  0  0  0  0  0  0  0
  139.9990   68.5870  226.9860 C   0  0  0  0  0  0  0  0  0  0  0  0
  140.5080   68.9880  228.1920 C   0  0  0  0  0  0  0  0  0  0  0  0
  140.4970   68.1320  229.2640 F   0  0  0  0  0  0  0  0  0  0  0  0
  141.0220   70.2520  228.3060 C   0  0  0  0  0  0  0  0  0  0  0  0
  141.0570   71.1590  227.2520 C   0  0  0  0  0  0  0  0  0  0  0  0
  140.5450   70.7510  226.0390 C   0  0  0  0  0  0  0  0  0  0  0  0
  140.5360   71.5680  224.9560 N   0  0  0  0  0  0  0  0  0  0  0  0
  140.4140   70.4640  221.2600 H   0  0  0  0  0  0  0  0  0  0  0  0
  139.4271   72.0407  219.4396 H   0  0  0  0  0  0  0  0  0  0  0  0
  140.1397   73.3942  220.3956 H   0  0  0  0  0  0  0  0  0  0  0  0
  144.5150   71.7883  220.0443 H   0  0  0  0  0  0  0  0  0  0  0  0
  143.8224   71.2229  218.5504 H   0  0  0  0  0  0  0  0  0  0  0  0
  144.8879   73.0172  217.3340 H   0  0  0  0  0  0  0  0  0  0  0  0
  146.4520   74.1620  218.9540 H   0  0  0  0  0  0  0  0  0  0  0  0
  144.7377   75.3517  218.8340 H   0  0  0  0  0  0  0  0  0  0  0  0
  143.4608   74.8711  217.7689 H   0  0  0  0  0  0  0  0  0  0  0  0
  143.7402   74.0529  220.8317 H   0  0  0  0  0  0  0  0  0  0  0  0
  141.4950   73.9950  221.8790 H   0  0  0  0  0  0  0  0  0  0  0  0
  138.7870   74.9859  221.1881 H   0  0  0  0  0  0  0  0  0  0  0  0
  137.3106   76.8653  221.9224 H   0  0  0  0  0  0  0  0  0  0  0  0
  139.7378   80.1868  224.1661 H   0  0  0  0  0  0  0  0  0  0  0  0
  138.3379   82.0423  224.8918 H   0  0  0  0  0  0  0  0  0  0  0  0
  135.9228   82.1994  224.2784 H   0  0  0  0  0  0  0  0  0  0  0  0
  134.9424   80.3872  222.8735 H   0  0  0  0  0  0  0  0  0  0  0  0
  136.3342   78.4867  222.1220 H   0  0  0  0  0  0  0  0  0  0  0  0
  140.7765   79.0571  223.2666 H   0  0  0  0  0  0  0  0  0  0  0  0
  142.2114   77.1819  222.5327 H   0  0  0  0  0  0  0  0  0  0  0  0
  139.1173   69.5816  222.7103 H   0  0  0  0  0  0  0  0  0  0  0  0
  139.0908   68.0199  224.6248 H   0  0  0  0  0  0  0  0  0  0  0  0
  139.5769   67.5792  226.8588 H   0  0  0  0  0  0  0  0  0  0  0  0
  141.4273   70.5657  229.2793 H   0  0  0  0  0  0  0  0  0  0  0  0
  141.4786   72.1667  227.3819 H   0  0  0  0  0  0  0  0  0  0  0  0
  1  2  2  0
  2  3  1  0
  3  4  1  0
  4  5  1  0
  5  6  2  0
  5  7  1  0
  7  8  1  0
  8  9  1  0
  9 10  1  0
  9 11  1  0
 11 12  1  0
 12 13  1  0
 13 14  2  0
 13 15  1  0
 15 16  1  0
 16 17  2  0
 17 18  1  0
 18 19  2  0
 19 20  1  0
 20 21  2  0
 21 22  1  0
 22 23  2  0
 23 24  1  0
 24 25  2  0
 19 26  1  0
 26 27  2  0
  2 28  1  0
 28 29  2  0
 29 30  1  0
 30 31  2  0
 31 32  1  0
 32 33  2  0
 33 34  1  0
 33 35  1  0
 35 36  2  0
 36 37  1  0
 37 38  2  0
 12  7  1  0
 27 16  1  0
 38 28  1  0
 25 20  1  0
 37 31  1  0
  3 39  1  0
  4 40  1  0
  4 41  1  0
  8 42  1  0
  8 43  1  0
  9 44  1  6
 10 45  1  0
 11 46  1  0
 11 47  1  0
 12 48  1  1
 15 49  1  0
 17 50  1  0
 18 51  1  0
 21 52  1  0
 22 53  1  0
 23 54  1  0
 24 55  1  0
 25 56  1  0
 26 57  1  0
 27 58  1  0
 29 59  1  0
 30 60  1  0
 32 61  1  0
 35 62  1  0
 36 63  1  0
M  END
>  <smiles>  (31) 
O=C(NCC(=O)N1C[C@H](O)C[C@H]1C(=O)Nc1ccc(-c2ccccc2)cc1)c1ccc2cc(F)ccc2n1

>  <score_type>  (31) 
oracle

>  <origin>  (31) 
autodockgpu

>  <m_score__min__energy>  (31) 
-9.8499999999999996

>  <m_primary>  (31) 
energy

>  <rmsd>  (31) 
3.466821519866934

>  <m_score__min__rmsd>  (31) 
3.466821519866934

>  <meeko>  (31) 
{"free_energy": -9.53, "intermolecular_energy": -11.92, "internal_energy": -2.59, "cluster_size": 26, "cluster_id": 1, "rank_in_cluster": 5}

>  <energy>  (31) 
-8.62

>  <cluster_rmsd>  (31) 
1.43

>  <cluster>  (31) 
2

$$$$

     RDKit          3D

 63 67  0  0  0  0  0  0  0  0999 V2000
  140.4710   73.0250  222.6860 O   0  0  0  0  0  0  0  0  0  0  0  0
  140.2600   71.7930  222.8200 C   0  0  0  0  0  0  0  0  0  0  0  0
  139.9190   70.9370  221.7280 N   0  0  0  0  0  0  0  0  0  0  0  0
  139.8010   71.4950  220.3560 C   0  0  0  0  0  0  0  0  0  0  0  0
  138.4320   71.3940  219.8820 C   0  0  0  0  0  0  0  0  0  0  0  0
  138.3010   70.8760  218.6920 O   0  0  0  0  0  0  0  0  0  0  0  0
  137.2220   71.7570  220.4800 N   0  0  0  0  0  0  0  0  0  0  0  0
  136.1640   70.6880  220.6310 C   0  0  0  0  0  0  0  0  0  0  0  0
  135.6070   71.0030  222.0170 C   0  0  2  0  0  0  0  0  0  0  0  0
  134.2220   71.0650  221.9180 O   0  0  0  0  0  0  0  0  0  0  0  0
  136.1920   72.3460  222.4200 C   0  0  0  0  0  0  0  0  0  0  0  0
  136.5870   72.8870  221.0440 C   0  0  1  0  0  0  0  0  0  0  0  0
  137.2520   74.1670  221.1240 C   0  0  0  0  0  0  0  0  0  0  0  0
  137.1390   75.1690  220.4030 O   0  0  0  0  0  0  0  0  0  0  0  0
  138.2070   74.3230  222.2150 N   0  0  0  0  0  0  0  0  0  0  0  0
  138.8670   75.5910  222.2970 C   0  0  0  0  0  0  0  0  0  0  0  0
  140.1980   75.7280  221.9570 C   0  0  0  0  0  0  0  0  0  0  0  0
  140.8080   76.9810  222.0510 C   0  0  0  0  0  0  0  0  0  0  0  0
  140.0710   78.0870  222.4870 C   0  0  0  0  0  0  0  0  0  0  0  0
  140.6700   79.4130  222.5990 C   0  0  0  0  0  0  0  0  0  0  0  0
  141.7740   79.6340  223.4310 C   0  0  0  0  0  0  0  0  0  0  0  0
  142.3130   80.8790  223.5190 C   0  0  0  0  0  0  0  0  0  0  0  0
  141.8190   81.9770  222.8080 C   0  0  0  0  0  0  0  0  0  0  0  0
  140.7330   81.7580  221.9880 C   0  0  0  0  0  0  0  0  0  0  0  0
  140.1610   80.4980  221.8800 C   0  0  0  0  0  0  0  0  0  0  0  0
  138.7420   77.9400  222.8250 C   0  0  0  0  0  0  0  0  0  0  0  0
  138.1590   76.6920  222.7240 C   0  0  0  0  0  0  0  0  0  0  0  0
  140.3640   71.1940  224.1530 C   0  0  0  0  0  0  0  0  0  0  0  0
  140.9590   71.8930  225.1900 C   0  0  0  0  0  0  0  0  0  0  0  0
  141.0890   71.3910  226.4630 C   0  0  0  0  0  0  0  0  0  0  0  0
  140.5910   70.1180  226.6940 C   0  0  0  0  0  0  0  0  0  0  0  0
  140.7270   69.6270  227.9740 C   0  0  0  0  0  0  0  0  0  0  0  0
  140.2470   68.3730  228.2430 C   0  0  0  0  0  0  0  0  0  0  0  0
  140.3630   67.8450  229.5040 F   0  0  0  0  0  0  0  0  0  0  0  0
  139.6540   67.6610  227.2330 C   0  0  0  0  0  0  0  0  0  0  0  0
  139.5120   68.1480  225.9390 C   0  0  0  0  0  0  0  0  0  0  0  0
  139.9960   69.4110  225.6720 C   0  0  0  0  0  0  0  0  0  0  0  0
  139.9010   69.9670  224.4390 N   0  0  0  0  0  0  0  0  0  0  0  0
  139.7600   69.9280  221.9230 H   0  0  0  0  0  0  0  0  0  0  0  0
  140.1028   72.5527  220.3682 H   0  0  0  0  0  0  0  0  0  0  0  0
  140.4543   70.9221  219.6815 H   0  0  0  0  0  0  0  0  0  0  0  0
  135.3883   70.7784  219.8563 H   0  0  0  0  0  0  0  0  0  0  0  0
  136.5455   69.6618  220.5240 H   0  0  0  0  0  0  0  0  0  0  0  0
  135.8665   70.2428  222.7685 H   0  0  0  0  0  0  0  0  0  0  0  0
  133.8800   70.6220  221.1030 H   0  0  0  0  0  0  0  0  0  0  0  0
  135.4444   72.9862  222.9112 H   0  0  0  0  0  0  0  0  0  0  0  0
  137.0128   72.2936  223.1505 H   0  0  0  0  0  0  0  0  0  0  0  0
  135.7879   73.2144  220.3626 H   0  0  0  0  0  0  0  0  0  0  0  0
  138.3840   73.5440  222.8850 H   0  0  0  0  0  0  0  0  0  0  0  0
  140.7744   74.8560  221.6143 H   0  0  0  0  0  0  0  0  0  0  0  0
  141.8682   77.0980  221.7821 H   0  0  0  0  0  0  0  0  0  0  0  0
  142.2035   78.8039  224.0110 H   0  0  0  0  0  0  0  0  0  0  0  0
  143.1786   81.0297  224.1808 H   0  0  0  0  0  0  0  0  0  0  0  0
  142.2774   82.9728  222.8992 H   0  0  0  0  0  0  0  0  0  0  0  0
  140.3132   82.5947  221.4103 H   0  0  0  0  0  0  0  0  0  0  0  0
  139.2943   80.3512  221.2188 H   0  0  0  0  0  0  0  0  0  0  0  0
  138.1550   78.8040  223.1699 H   0  0  0  0  0  0  0  0  0  0  0  0
  137.0987   76.5743  222.9924 H   0  0  0  0  0  0  0  0  0  0  0  0
  141.3474   72.9014  224.9844 H   0  0  0  0  0  0  0  0  0  0  0  0
  141.5674   71.9741  227.2637 H   0  0  0  0  0  0  0  0  0  0  0  0
  141.2089   70.2270  228.7600 H   0  0  0  0  0  0  0  0  0  0  0  0
  139.2716   66.6544  227.4577 H   0  0  0  0  0  0  0  0  0  0  0  0
  139.0298   67.5462  225.1546 H   0  0  0  0  0  0  0  0  0  0  0  0
  1  2  2  0
  2  3  1  0
  3  4  1  0
  4  5  1  0
  5  6  2  0
  5  7  1  0
  7  8  1  0
  8  9  1  0
  9 10  1  0
  9 11  1  0
 11 12  1  0
 12 13  1  0
 13 14  2  0
 13 15  1  0
 15 16  1  0
 16 17  2  0
 17 18  1  0
 18 19  2  0
 19 20  1  0
 20 21  2  0
 21 22  1  0
 22 23  2  0
 23 24  1  0
 24 25  2  0
 19 26  1  0
 26 27  2  0
  2 28  1  0
 28 29  2  0
 29 30  1  0
 30 31  2  0
 31 32  1  0
 32 33  2  0
 33 34  1  0
 33 35  1  0
 35 36  2  0
 36 37  1  0
 37 38  2  0
 12  7  1  0
 27 16  1  0
 38 28  1  0
 25 20  1  0
 37 31  1  0
  3 39  1  0
  4 40  1  0
  4 41  1  0
  8 42  1  0
  8 43  1  0
  9 44  1  1
 10 45  1  0
 11 46  1  0
 11 47  1  0
 12 48  1  6
 15 49  1  0
 17 50  1  0
 18 51  1  0
 21 52  1  0
 22 53  1  0
 23 54  1  0
 24 55  1  0
 25 56  1  0
 26 57  1  0
 27 58  1  0
 29 59  1  0
 30 60  1  0
 32 61  1  0
 35 62  1  0
 36 63  1  0
M  END
>  <smiles>  (32) 
O=C(NCC(=O)N1C[C@H](O)C[C@H]1C(=O)Nc1ccc(-c2ccccc2)cc1)c1ccc2cc(F)ccc2n1

>  <score_type>  (32) 
oracle

>  <origin>  (32) 
autodockgpu

>  <m_score__min__energy>  (32) 
-9.8499999999999996

>  <m_primary>  (32) 
energy

>  <rmsd>  (32) 
4.899161257170138

>  <m_score__min__rmsd>  (32) 
4.899161257170138

>  <meeko>  (32) 
{"free_energy": -8.77, "intermolecular_energy": -11.16, "internal_energy": -3.16, "cluster_size": 11, "cluster_id": 3, "rank_in_cluster": 7}

>  <energy>  (32) 
-8.46

>  <cluster_rmsd>  (32) 
0.94

>  <cluster>  (32) 
2

$$$$

     RDKit          3D

 63 67  0  0  0  0  0  0  0  0999 V2000
  139.8710   73.0550  223.0880 O   0  0  0  0  0  0  0  0  0  0  0  0
  140.1940   71.8400  223.1150 C   0  0  0  0  0  0  0  0  0  0  0  0
  140.3520   71.0470  221.9370 N   0  0  0  0  0  0  0  0  0  0  0  0
  140.1320   71.6550  220.5990 C   0  0  0  0  0  0  0  0  0  0  0  0
  138.9040   71.1540  220.0080 C   0  0  0  0  0  0  0  0  0  0  0  0
  139.0390   70.0670  219.3010 O   0  0  0  0  0  0  0  0  0  0  0  0
  137.5920   71.6350  220.0660 N   0  0  0  0  0  0  0  0  0  0  0  0
  136.4700   70.6470  219.8410 C   0  0  0  0  0  0  0  0  0  0  0  0
  135.4490   71.1030  220.8790 C   0  0  2  0  0  0  0  0  0  0  0  0
  134.2210   71.2400  220.2430 O   0  0  0  0  0  0  0  0  0  0  0  0
  135.9460   72.4350  221.4150 C   0  0  0  0  0  0  0  0  0  0  0  0
  136.8880   72.8420  220.2800 C   0  0  1  0  0  0  0  0  0  0  0  0
  137.5780   74.0820  220.5530 C   0  0  0  0  0  0  0  0  0  0  0  0
  137.8890   75.0050  219.7860 O   0  0  0  0  0  0  0  0  0  0  0  0
  137.9780   74.2980  221.9380 N   0  0  0  0  0  0  0  0  0  0  0  0
  138.6610   75.5270  222.2120 C   0  0  0  0  0  0  0  0  0  0  0  0
  137.9890   76.6220  222.7170 C   0  0  0  0  0  0  0  0  0  0  0  0
  138.6890   77.8030  222.9710 C   0  0  0  0  0  0  0  0  0  0  0  0
  140.0620   77.8710  222.7150 C   0  0  0  0  0  0  0  0  0  0  0  0
  140.8310   79.0860  222.9670 C   0  0  0  0  0  0  0  0  0  0  0  0
  140.2870   80.3480  222.7000 C   0  0  0  0  0  0  0  0  0  0  0  0
  141.0240   81.4640  222.9430 C   0  0  0  0  0  0  0  0  0  0  0  0
  142.3240   81.4250  223.4570 C   0  0  0  0  0  0  0  0  0  0  0  0
  142.8580   80.1810  223.7220 C   0  0  0  0  0  0  0  0  0  0  0  0
  142.1290   79.0250  223.4820 C   0  0  0  0  0  0  0  0  0  0  0  0
  140.7250   76.7720  222.2100 C   0  0  0  0  0  0  0  0  0  0  0  0
  140.0130   75.6140  221.9670 C   0  0  0  0  0  0  0  0  0  0  0  0
  140.4220   71.1940  224.4110 C   0  0  0  0  0  0  0  0  0  0  0  0
  140.7670   71.9490  225.5190 C   0  0  0  0  0  0  0  0  0  0  0  0
  140.9940   71.4080  226.7620 C   0  0  0  0  0  0  0  0  0  0  0  0
  140.8660   70.0330  226.8850 C   0  0  0  0  0  0  0  0  0  0  0  0
  141.0970   69.5030  228.1350 C   0  0  0  0  0  0  0  0  0  0  0  0
  140.9800   68.1480  228.2990 C   0  0  0  0  0  0  0  0  0  0  0  0
  141.2010   67.5800  229.5270 F   0  0  0  0  0  0  0  0  0  0  0  0
  140.6400   67.3790  227.2170 C   0  0  0  0  0  0  0  0  0  0  0  0
  140.4050   67.9040  225.9520 C   0  0  0  0  0  0  0  0  0  0  0  0
  140.5230   69.2680  225.7910 C   0  0  0  0  0  0  0  0  0  0  0  0
  140.3130   69.8690  224.5930 N   0  0  0  0  0  0  0  0  0  0  0  0
  140.6210   70.0490  222.0460 H   0  0  0  0  0  0  0  0  0  0  0  0
  140.0631   72.7477  220.7049 H   0  0  0  0  0  0  0  0  0  0  0  0
  140.9756   71.3896  219.9448 H   0  0  0  0  0  0  0  0  0  0  0  0
  136.0666   70.7229  218.8205 H   0  0  0  0  0  0  0  0  0  0  0  0
  136.7728   69.5944  219.9426 H   0  0  0  0  0  0  0  0  0  0  0  0
  135.3301   70.3893  221.7075 H   0  0  0  0  0  0  0  0  0  0  0  0
  133.9140   72.1790  220.2100 H   0  0  0  0  0  0  0  0  0  0  0  0
  135.1250   73.1558  221.5426 H   0  0  0  0  0  0  0  0  0  0  0  0
  136.4118   72.3896  222.4105 H   0  0  0  0  0  0  0  0  0  0  0  0
  136.4469   73.1629  219.3248 H   0  0  0  0  0  0  0  0  0  0  0  0
  137.7690   73.5870  222.6720 H   0  0  0  0  0  0  0  0  0  0  0  0
  136.9090   76.5644  222.9180 H   0  0  0  0  0  0  0  0  0  0  0  0
  138.1604   78.6801  223.3725 H   0  0  0  0  0  0  0  0  0  0  0  0
  139.2679   80.4361  222.2954 H   0  0  0  0  0  0  0  0  0  0  0  0
  140.5764   82.4448  222.7249 H   0  0  0  0  0  0  0  0  0  0  0  0
  142.8959   82.3463  223.6420 H   0  0  0  0  0  0  0  0  0  0  0  0
  143.8768   80.1043  224.1296 H   0  0  0  0  0  0  0  0  0  0  0  0
  142.5795   78.0455  223.7004 H   0  0  0  0  0  0  0  0  0  0  0  0
  141.8046   76.8173  222.0040 H   0  0  0  0  0  0  0  0  0  0  0  0
  140.5410   74.7362  221.5663 H   0  0  0  0  0  0  0  0  0  0  0  0
  140.8645   73.0380  225.3984 H   0  0  0  0  0  0  0  0  0  0  0  0
  141.2654   72.0384  227.6216 H   0  0  0  0  0  0  0  0  0  0  0  0
  141.3687   70.1517  228.9808 H   0  0  0  0  0  0  0  0  0  0  0  0
  140.5485   66.2918  227.3567 H   0  0  0  0  0  0  0  0  0  0  0  0
  140.1340   67.2532  225.1076 H   0  0  0  0  0  0  0  0  0  0  0  0
  1  2  2  0
  2  3  1  0
  3  4  1  0
  4  5  1  0
  5  6  2  0
  5  7  1  0
  7  8  1  0
  8  9  1  0
  9 10  1  0
  9 11  1  0
 11 12  1  0
 12 13  1  0
 13 14  2  0
 13 15  1  0
 15 16  1  0
 16 17  2  0
 17 18  1  0
 18 19  2  0
 19 20  1  0
 20 21  2  0
 21 22  1  0
 22 23  2  0
 23 24  1  0
 24 25  2  0
 19 26  1  0
 26 27  2  0
  2 28  1  0
 28 29  2  0
 29 30  1  0
 30 31  2  0
 31 32  1  0
 32 33  2  0
 33 34  1  0
 33 35  1  0
 35 36  2  0
 36 37  1  0
 37 38  2  0
 12  7  1  0
 27 16  1  0
 38 28  1  0
 25 20  1  0
 37 31  1  0
  3 39  1  0
  4 40  1  0
  4 41  1  0
  8 42  1  0
  8 43  1  0
  9 44  1  1
 10 45  1  0
 11 46  1  0
 11 47  1  0
 12 48  1  6
 15 49  1  0
 17 50  1  0
 18 51  1  0
 21 52  1  0
 22 53  1  0
 23 54  1  0
 24 55  1  0
 25 56  1  0
 26 57  1  0
 27 58  1  0
 29 59  1  0
 30 60  1  0
 32 61  1  0
 35 62  1  0
 36 63  1  0
M  END
>  <smiles>  (33) 
O=C(NCC(=O)N1C[C@H](O)C[C@H]1C(=O)Nc1ccc(-c2ccccc2)cc1)c1ccc2cc(F)ccc2n1

>  <score_type>  (33) 
oracle

>  <origin>  (33) 
autodockgpu

>  <m_score__min__energy>  (33) 
-9.8499999999999996

>  <m_primary>  (33) 
energy

>  <rmsd>  (33) 
4.745302332373074

>  <m_score__min__rmsd>  (33) 
4.745302332373074

>  <meeko>  (33) 
{"free_energy": -8.78, "intermolecular_energy": -11.16, "internal_energy": -2.89, "cluster_size": 11, "cluster_id": 3, "rank_in_cluster": 6}

>  <energy>  (33) 
-8.17

>  <cluster_rmsd>  (33) 
1.4

>  <cluster>  (33) 
2

$$$$

     RDKit          3D

 63 67  0  0  0  0  0  0  0  0999 V2000
  141.2940   72.0180  221.6340 O   0  0  0  0  0  0  0  0  0  0  0  0
  140.4100   72.3130  222.4780 C   0  0  0  0  0  0  0  0  0  0  0  0
  139.5470   73.4440  222.3400 N   0  0  0  0  0  0  0  0  0  0  0  0
  139.6710   74.3330  221.1560 C   0  0  0  0  0  0  0  0  0  0  0  0
  140.1690   75.6380  221.5500 C   0  0  0  0  0  0  0  0  0  0  0  0
  139.5830   76.1570  222.5930 O   0  0  0  0  0  0  0  0  0  0  0  0
  141.1750   76.4430  221.0050 N   0  0  0  0  0  0  0  0  0  0  0  0
  142.1570   75.7940  220.0550 C   0  0  0  0  0  0  0  0  0  0  0  0
  142.3230   76.8820  218.9990 C   0  0  2  0  0  0  0  0  0  0  0  0
  143.6840   77.0890  218.8060 O   0  0  0  0  0  0  0  0  0  0  0  0
  141.6480   78.1260  219.5510 C   0  0  0  0  0  0  0  0  0  0  0  0
  141.6340   77.7780  221.0420 C   0  0  1  0  0  0  0  0  0  0  0  0
  140.9690   78.7850  221.8370 C   0  0  0  0  0  0  0  0  0  0  0  0
  141.4410   79.7420  222.4670 O   0  0  0  0  0  0  0  0  0  0  0  0
  139.5180   78.6750  221.9230 N   0  0  0  0  0  0  0  0  0  0  0  0
  138.8550   79.6720  222.7090 C   0  0  0  0  0  0  0  0  0  0  0  0
  138.1170   80.6760  222.1170 C   0  0  0  0  0  0  0  0  0  0  0  0
  137.4850   81.6310  222.9160 C   0  0  0  0  0  0  0  0  0  0  0  0
  137.6020   81.5660  224.3080 C   0  0  0  0  0  0  0  0  0  0  0  0
  136.9580   82.5430  225.1800 C   0  0  0  0  0  0  0  0  0  0  0  0
  136.6920   82.2440  226.5210 C   0  0  0  0  0  0  0  0  0  0  0  0
  136.0910   83.1710  227.3120 C   0  0  0  0  0  0  0  0  0  0  0  0
  135.7150   84.4380  226.8540 C   0  0  0  0  0  0  0  0  0  0  0  0
  135.9780   84.7330  225.5330 C   0  0  0  0  0  0  0  0  0  0  0  0
  136.5900   83.8040  224.7020 C   0  0  0  0  0  0  0  0  0  0  0  0
  138.3420   80.5580  224.8910 C   0  0  0  0  0  0  0  0  0  0  0  0
  138.9580   79.6250  224.0820 C   0  0  0  0  0  0  0  0  0  0  0  0
  140.2470   71.4680  223.6640 C   0  0  0  0  0  0  0  0  0  0  0  0
  139.5990   70.2470  223.5690 C   0  0  0  0  0  0  0  0  0  0  0  0
  139.4130   69.4060  224.6400 C   0  0  0  0  0  0  0  0  0  0  0  0
  139.9060   69.8260  225.8660 C   0  0  0  0  0  0  0  0  0  0  0  0
  139.7120   68.9740  226.9310 C   0  0  0  0  0  0  0  0  0  0  0  0
  140.1860   69.3510  228.1600 C   0  0  0  0  0  0  0  0  0  0  0  0
  140.0140   68.5320  229.2470 F   0  0  0  0  0  0  0  0  0  0  0  0
  140.8290   70.5540  228.2790 C   0  0  0  0  0  0  0  0  0  0  0  0
  141.0300   71.4210  227.2100 C   0  0  0  0  0  0  0  0  0  0  0  0
  140.5520   71.0370  225.9750 C   0  0  0  0  0  0  0  0  0  0  0  0
  140.7020   71.8180  224.8760 N   0  0  0  0  0  0  0  0  0  0  0  0
  138.8410   73.6190  223.0830 H   0  0  0  0  0  0  0  0  0  0  0  0
  140.3692   73.8814  220.4359 H   0  0  0  0  0  0  0  0  0  0  0  0
  138.6787   74.4546  220.6971 H   0  0  0  0  0  0  0  0  0  0  0  0
  143.1111   75.5699  220.5545 H   0  0  0  0  0  0  0  0  0  0  0  0
  141.8201   74.8269  219.6534 H   0  0  0  0  0  0  0  0  0  0  0  0
  141.8736   76.6135  218.0315 H   0  0  0  0  0  0  0  0  0  0  0  0
  144.0360   77.8330  219.3530 H   0  0  0  0  0  0  0  0  0  0  0  0
  142.2355   79.0337  219.3487 H   0  0  0  0  0  0  0  0  0  0  0  0
  140.6624   78.3507  219.1173 H   0  0  0  0  0  0  0  0  0  0  0  0
  142.5854   77.8040  221.5935 H   0  0  0  0  0  0  0  0  0  0  0  0
  139.0100   77.9070  221.4320 H   0  0  0  0  0  0  0  0  0  0  0  0
  138.0269   80.7240  221.0217 H   0  0  0  0  0  0  0  0  0  0  0  0
  136.8951   82.4344  222.4505 H   0  0  0  0  0  0  0  0  0  0  0  0
  136.9684   81.2623  226.9331 H   0  0  0  0  0  0  0  0  0  0  0  0
  135.8907   82.9128  228.3623 H   0  0  0  0  0  0  0  0  0  0  0  0
  135.2303   85.1678  227.5192 H   0  0  0  0  0  0  0  0  0  0  0  0
  135.6990   85.7184  225.1317 H   0  0  0  0  0  0  0  0  0  0  0  0
  136.7882   84.0643  223.6518 H   0  0  0  0  0  0  0  0  0  0  0  0
  138.4396   80.4989  225.9851 H   0  0  0  0  0  0  0  0  0  0  0  0
  139.5479   78.8211  224.5465 H   0  0  0  0  0  0  0  0  0  0  0  0
  139.2140   69.9350  222.5869 H   0  0  0  0  0  0  0  0  0  0  0  0
  138.8955   68.4416  224.5294 H   0  0  0  0  0  0  0  0  0  0  0  0
  139.1897   68.0151  226.7980 H   0  0  0  0  0  0  0  0  0  0  0  0
  141.2054   70.8496  229.2694 H   0  0  0  0  0  0  0  0  0  0  0  0
  141.5522   72.3797  227.3452 H   0  0  0  0  0  0  0  0  0  0  0  0
  1  2  2  0
  2  3  1  0
  3  4  1  0
  4  5  1  0
  5  6  2  0
  5  7  1  0
  7  8  1  0
  8  9  1  0
  9 10  1  0
  9 11  1  0
 11 12  1  0
 12 13  1  0
 13 14  2  0
 13 15  1  0
 15 16  1  0
 16 17  2  0
 17 18  1  0
 18 19  2  0
 19 20  1  0
 20 21  2  0
 21 22  1  0
 22 23  2  0
 23 24  1  0
 24 25  2  0
 19 26  1  0
 26 27  2  0
  2 28  1  0
 28 29  2  0
 29 30  1  0
 30 31  2  0
 31 32  1  0
 32 33  2  0
 33 34  1  0
 33 35  1  0
 35 36  2  0
 36 37  1  0
 37 38  2  0
 12  7  1  0
 27 16  1  0
 38 28  1  0
 25 20  1  0
 37 31  1  0
  3 39  1  0
  4 40  1  0
  4 41  1  0
  8 42  1  0
  8 43  1  0
  9 44  1  6
 10 45  1  0
 11 46  1  0
 11 47  1  0
 12 48  1  1
 15 49  1  0
 17 50  1  0
 18 51  1  0
 21 52  1  0
 22 53  1  0
 23 54  1  0
 24 55  1  0
 25 56  1  0
 26 57  1  0
 27 58  1  0
 29 59  1  0
 30 60  1  0
 32 61  1  0
 35 62  1  0
 36 63  1  0
M  END
>  <smiles>  (34) 
O=C(NCC(=O)N1C[C@H](O)C[C@H]1C(=O)Nc1ccc(-c2ccccc2)cc1)c1ccc2cc(F)ccc2n1

>  <score_type>  (34) 
oracle

>  <origin>  (34) 
autodockgpu

>  <m_score__min__energy>  (34) 
-9.8499999999999996

>  <m_primary>  (34) 
energy

>  <rmsd>  (34) 
2.7248197027949432

>  <m_score__min__rmsd>  (34) 
2.7248197027949432

>  <meeko>  (34) 
{"free_energy": -9.66, "intermolecular_energy": -12.05, "internal_energy": -2.41, "cluster_size": 26, "cluster_id": 1, "rank_in_cluster": 2}

>  <energy>  (34) 
-8.89

>  <cluster_rmsd>  (34) 
0.0

>  <cluster>  (34) 
3

$$$$

     RDKit          3D

 63 67  0  0  0  0  0  0  0  0999 V2000
  140.1300   73.8060  222.1710 O   0  0  0  0  0  0  0  0  0  0  0  0
  140.5000   72.6050  222.1640 C   0  0  0  0  0  0  0  0  0  0  0  0
  141.1190   71.9850  221.0350 N   0  0  0  0  0  0  0  0  0  0  0  0
  141.3520   72.7680  219.7940 C   0  0  0  0  0  0  0  0  0  0  0  0
  142.4620   73.6870  219.9730 C   0  0  0  0  0  0  0  0  0  0  0  0
  143.0410   73.6260  221.1390 O   0  0  0  0  0  0  0  0  0  0  0  0
  143.0220   74.6320  219.1090 N   0  0  0  0  0  0  0  0  0  0  0  0
  144.0550   74.1510  218.1150 C   0  0  0  0  0  0  0  0  0  0  0  0
  143.6770   74.9500  216.8710 C   0  0  2  0  0  0  0  0  0  0  0  0
  144.8290   75.5530  216.3810 O   0  0  0  0  0  0  0  0  0  0  0  0
  142.6580   75.9840  217.3170 C   0  0  0  0  0  0  0  0  0  0  0  0
  142.9520   76.0140  218.8190 C   0  0  1  0  0  0  0  0  0  0  0  0
  142.0580   76.8920  219.5390 C   0  0  0  0  0  0  0  0  0  0  0  0
  141.4800   77.9220  219.1620 O   0  0  0  0  0  0  0  0  0  0  0  0
  141.7830   76.5290  220.9240 N   0  0  0  0  0  0  0  0  0  0  0  0
  140.8980   77.3980  221.6400 C   0  0  0  0  0  0  0  0  0  0  0  0
  141.3300   78.6150  222.1270 C   0  0  0  0  0  0  0  0  0  0  0  0
  140.4370   79.4350  222.8210 C   0  0  0  0  0  0  0  0  0  0  0  0
  139.1160   79.0220  223.0170 C   0  0  0  0  0  0  0  0  0  0  0  0
  138.1520   79.8490  223.7360 C   0  0  0  0  0  0  0  0  0  0  0  0
  136.7750   79.6420  223.5860 C   0  0  0  0  0  0  0  0  0  0  0  0
  135.8980   80.4250  224.2660 C   0  0  0  0  0  0  0  0  0  0  0  0
  136.2990   81.4500  225.1290 C   0  0  0  0  0  0  0  0  0  0  0  0
  137.6540   81.6530  225.2780 C   0  0  0  0  0  0  0  0  0  0  0  0
  138.5730   80.8680  224.5940 C   0  0  0  0  0  0  0  0  0  0  0  0
  138.6940   77.8040  222.5260 C   0  0  0  0  0  0  0  0  0  0  0  0
  139.5930   77.0090  221.8430 C   0  0  0  0  0  0  0  0  0  0  0  0
  140.2910   71.7890  223.3640 C   0  0  0  0  0  0  0  0  0  0  0  0
  139.6330   70.5740  223.2780 C   0  0  0  0  0  0  0  0  0  0  0  0
  139.4050   69.7600  224.3620 C   0  0  0  0  0  0  0  0  0  0  0  0
  139.8660   70.2020  225.5920 C   0  0  0  0  0  0  0  0  0  0  0  0
  139.6300   69.3780  226.6700 C   0  0  0  0  0  0  0  0  0  0  0  0
  140.0710   69.7780  227.9030 C   0  0  0  0  0  0  0  0  0  0  0  0
  139.8570   68.9870  229.0030 F   0  0  0  0  0  0  0  0  0  0  0  0
  140.7240   70.9770  228.0150 C   0  0  0  0  0  0  0  0  0  0  0  0
  140.9660   71.8160  226.9330 C   0  0  0  0  0  0  0  0  0  0  0  0
  140.5220   71.4090  225.6930 C   0  0  0  0  0  0  0  0  0  0  0  0
  140.7140   72.1630  224.5820 N   0  0  0  0  0  0  0  0  0  0  0  0
  141.3950   70.9860  221.1110 H   0  0  0  0  0  0  0  0  0  0  0  0
  141.5827   72.0782  218.9688 H   0  0  0  0  0  0  0  0  0  0  0  0
  140.4453   73.3463  219.5629 H   0  0  0  0  0  0  0  0  0  0  0  0
  145.0756   74.3881  218.4499 H   0  0  0  0  0  0  0  0  0  0  0  0
  144.0581   73.0614  217.9639 H   0  0  0  0  0  0  0  0  0  0  0  0
  143.2487   74.3259  216.0728 H   0  0  0  0  0  0  0  0  0  0  0  0
  145.3600   75.9900  217.0930 H   0  0  0  0  0  0  0  0  0  0  0  0
  142.8358   76.9622  216.8464 H   0  0  0  0  0  0  0  0  0  0  0  0
  141.6157   75.7521  217.0529 H   0  0  0  0  0  0  0  0  0  0  0  0
  143.8833   76.4906  219.1590 H   0  0  0  0  0  0  0  0  0  0  0  0
  142.2170   75.6810  221.3490 H   0  0  0  0  0  0  0  0  0  0  0  0
  142.3700   78.9369  221.9698 H   0  0  0  0  0  0  0  0  0  0  0  0
  140.7734   80.4060  223.2134 H   0  0  0  0  0  0  0  0  0  0  0  0
  136.4052   78.8484  222.9201 H   0  0  0  0  0  0  0  0  0  0  0  0
  134.8213   80.2445  224.1317 H   0  0  0  0  0  0  0  0  0  0  0  0
  135.5642   82.0678  225.6660 H   0  0  0  0  0  0  0  0  0  0  0  0
  138.0127   82.4481  225.9482 H   0  0  0  0  0  0  0  0  0  0  0  0
  139.6491   81.0514  224.7299 H   0  0  0  0  0  0  0  0  0  0  0  0
  137.6565   77.4709  222.6763 H   0  0  0  0  0  0  0  0  0  0  0  0
  139.2572   76.0379  221.4502 H   0  0  0  0  0  0  0  0  0  0  0  0
  139.2744   70.2432  222.2921 H   0  0  0  0  0  0  0  0  0  0  0  0
  138.8794   68.7994  224.2577 H   0  0  0  0  0  0  0  0  0  0  0  0
  139.1004   68.4222  226.5436 H   0  0  0  0  0  0  0  0  0  0  0  0
  141.0739   71.2913  229.0094 H   0  0  0  0  0  0  0  0  0  0  0  0
  141.4940   72.7723  227.0621 H   0  0  0  0  0  0  0  0  0  0  0  0
  1  2  2  0
  2  3  1  0
  3  4  1  0
  4  5  1  0
  5  6  2  0
  5  7  1  0
  7  8  1  0
  8  9  1  0
  9 10  1  0
  9 11  1  0
 11 12  1  0
 12 13  1  0
 13 14  2  0
 13 15  1  0
 15 16  1  0
 16 17  2  0
 17 18  1  0
 18 19  2  0
 19 20  1  0
 20 21  2  0
 21 22  1  0
 22 23  2  0
 23 24  1  0
 24 25  2  0
 19 26  1  0
 26 27  2  0
  2 28  1  0
 28 29  2  0
 29 30  1  0
 30 31  2  0
 31 32  1  0
 32 33  2  0
 33 34  1  0
 33 35  1  0
 35 36  2  0
 36 37  1  0
 37 38  2  0
 12  7  1  0
 27 16  1  0
 38 28  1  0
 25 20  1  0
 37 31  1  0
  3 39  1  0
  4 40  1  0
  4 41  1  0
  8 42  1  0
  8 43  1  0
  9 44  1  6
 10 45  1  0
 11 46  1  0
 11 47  1  0
 12 48  1  6
 15 49  1  0
 17 50  1  0
 18 51  1  0
 21 52  1  0
 22 53  1  0
 23 54  1  0
 24 55  1  0
 25 56  1  0
 26 57  1  0
 27 58  1  0
 29 59  1  0
 30 60  1  0
 32 61  1  0
 35 62  1  0
 36 63  1  0
M  END
>  <smiles>  (35) 
O=C(NCC(=O)N1C[C@H](O)C[C@H]1C(=O)Nc1ccc(-c2ccccc2)cc1)c1ccc2cc(F)ccc2n1

>  <score_type>  (35) 
oracle

>  <origin>  (35) 
autodockgpu

>  <m_score__min__energy>  (35) 
-9.8499999999999996

>  <m_primary>  (35) 
energy

>  <rmsd>  (35) 
3.0391497865304773

>  <m_score__min__rmsd>  (35) 
3.0391497865304773

>  <meeko>  (35) 
{"free_energy": -9.5, "intermolecular_energy": -11.88, "internal_energy": -2.65, "cluster_size": 26, "cluster_id": 1, "rank_in_cluster": 8}

>  <energy>  (35) 
-8.84

>  <cluster_rmsd>  (35) 
0.64

>  <cluster>  (35) 
3

$$$$

     RDKit          3D

 63 67  0  0  0  0  0  0  0  0999 V2000
  139.6310   72.9960  222.5250 O   0  0  0  0  0  0  0  0  0  0  0  0
  139.3960   71.7790  222.7360 C   0  0  0  0  0  0  0  0  0  0  0  0
  138.7520   70.9310  221.7840 N   0  0  0  0  0  0  0  0  0  0  0  0
  138.3270   71.4800  220.4700 C   0  0  0  0  0  0  0  0  0  0  0  0
  139.4720   71.6450  219.5920 C   0  0  0  0  0  0  0  0  0  0  0  0
  139.2250   72.2860  218.4840 O   0  0  0  0  0  0  0  0  0  0  0  0
  140.8010   71.2360  219.7290 N   0  0  0  0  0  0  0  0  0  0  0  0
  141.1390   69.8080  219.3630 C   0  0  0  0  0  0  0  0  0  0  0  0
  142.4820   69.9820  218.6590 C   0  0  2  0  0  0  0  0  0  0  0  0
  143.3800   69.0810  219.2180 O   0  0  0  0  0  0  0  0  0  0  0  0
  142.9130   71.4180  218.9050 C   0  0  0  0  0  0  0  0  0  0  0  0
  142.0570   71.7450  220.1310 C   0  0  1  0  0  0  0  0  0  0  0  0
  142.2140   73.1150  220.5640 C   0  0  0  0  0  0  0  0  0  0  0  0
  143.1740   73.6690  221.1170 O   0  0  0  0  0  0  0  0  0  0  0  0
  141.0780   73.9960  220.3210 N   0  0  0  0  0  0  0  0  0  0  0  0
  141.2310   75.3540  220.7480 C   0  0  0  0  0  0  0  0  0  0  0  0
  141.9310   76.2680  219.9870 C   0  0  0  0  0  0  0  0  0  0  0  0
  142.0600   77.5840  220.4370 C   0  0  0  0  0  0  0  0  0  0  0  0
  141.4800   77.9690  221.6500 C   0  0  0  0  0  0  0  0  0  0  0  0
  141.5910   79.3330  222.1560 C   0  0  0  0  0  0  0  0  0  0  0  0
  141.0670   80.4120  221.4340 C   0  0  0  0  0  0  0  0  0  0  0  0
  141.1840   81.6730  221.9260 C   0  0  0  0  0  0  0  0  0  0  0  0
  141.8090   81.9630  223.1430 C   0  0  0  0  0  0  0  0  0  0  0  0
  142.3230   80.9000  223.8550 C   0  0  0  0  0  0  0  0  0  0  0  0
  142.2200   79.6020  223.3750 C   0  0  0  0  0  0  0  0  0  0  0  0
  140.7830   77.0470  222.4030 C   0  0  0  0  0  0  0  0  0  0  0  0
  140.6680   75.7520  221.9400 C   0  0  0  0  0  0  0  0  0  0  0  0
  139.7950   71.1890  224.0180 C   0  0  0  0  0  0  0  0  0  0  0  0
  140.6230   71.8860  224.8810 C   0  0  0  0  0  0  0  0  0  0  0  0
  141.0350   71.3930  226.0960 C   0  0  0  0  0  0  0  0  0  0  0  0
  140.5840   70.1310  226.4510 C   0  0  0  0  0  0  0  0  0  0  0  0
  141.0050   69.6480  227.6710 C   0  0  0  0  0  0  0  0  0  0  0  0
  140.5810   68.4050  228.0580 C   0  0  0  0  0  0  0  0  0  0  0  0
  140.9760   67.8860  229.2650 F   0  0  0  0  0  0  0  0  0  0  0  0
  139.7610   67.6950  227.2210 C   0  0  0  0  0  0  0  0  0  0  0  0
  139.3320   68.1730  225.9890 C   0  0  0  0  0  0  0  0  0  0  0  0
  139.7600   69.4260  225.6020 C   0  0  0  0  0  0  0  0  0  0  0  0
  139.3920   69.9730  224.4170 N   0  0  0  0  0  0  0  0  0  0  0  0
  138.5940   69.9350  222.0360 H   0  0  0  0  0  0  0  0  0  0  0  0
  137.6102   70.7881  220.0036 H   0  0  0  0  0  0  0  0  0  0  0  0
  137.8578   72.4619  220.6302 H   0  0  0  0  0  0  0  0  0  0  0  0
  141.2339   69.1758  220.2582 H   0  0  0  0  0  0  0  0  0  0  0  0
  140.3735   69.3096  218.7502 H   0  0  0  0  0  0  0  0  0  0  0  0
  142.4292   69.7893  217.5773 H   0  0  0  0  0  0  0  0  0  0  0  0
  143.0220   68.1600  219.2500 H   0  0  0  0  0  0  0  0  0  0  0  0
  143.9881   71.4894  219.1267 H   0  0  0  0  0  0  0  0  0  0  0  0
  142.7763   72.0961  218.0498 H   0  0  0  0  0  0  0  0  0  0  0  0
  142.3273   71.2866  221.0937 H   0  0  0  0  0  0  0  0  0  0  0  0
  140.2130   73.6370  219.8600 H   0  0  0  0  0  0  0  0  0  0  0  0
  142.3843   75.9622  219.0325 H   0  0  0  0  0  0  0  0  0  0  0  0
  142.6180   78.3179  219.8370 H   0  0  0  0  0  0  0  0  0  0  0  0
  140.5624   80.2394  220.4719 H   0  0  0  0  0  0  0  0  0  0  0  0
  140.7675   82.5051  221.3394 H   0  0  0  0  0  0  0  0  0  0  0  0
  141.8872   82.9948  223.5162 H   0  0  0  0  0  0  0  0  0  0  0  0
  142.8222   81.0836  224.8179 H   0  0  0  0  0  0  0  0  0  0  0  0
  142.6397   78.7722  223.9627 H   0  0  0  0  0  0  0  0  0  0  0  0
  140.3252   77.3399  223.3593 H   0  0  0  0  0  0  0  0  0  0  0  0
  140.1110   75.0172  222.5399 H   0  0  0  0  0  0  0  0  0  0  0  0
  140.9689   72.8855  224.5789 H   0  0  0  0  0  0  0  0  0  0  0  0
  141.6938   71.9743  226.7578 H   0  0  0  0  0  0  0  0  0  0  0  0
  141.6647   70.2457  228.3173 H   0  0  0  0  0  0  0  0  0  0  0  0
  139.4257   66.6971  227.5402 H   0  0  0  0  0  0  0  0  0  0  0  0
  138.6734   67.5727  225.3441 H   0  0  0  0  0  0  0  0  0  0  0  0
  1  2  2  0
  2  3  1  0
  3  4  1  0
  4  5  1  0
  5  6  2  0
  5  7  1  0
  7  8  1  0
  8  9  1  0
  9 10  1  0
  9 11  1  0
 11 12  1  0
 12 13  1  0
 13 14  2  0
 13 15  1  0
 15 16  1  0
 16 17  2  0
 17 18  1  0
 18 19  2  0
 19 20  1  0
 20 21  2  0
 21 22  1  0
 22 23  2  0
 23 24  1  0
 24 25  2  0
 19 26  1  0
 26 27  2  0
  2 28  1  0
 28 29  2  0
 29 30  1  0
 30 31  2  0
 31 32  1  0
 32 33  2  0
 33 34  1  0
 33 35  1  0
 35 36  2  0
 36 37  1  0
 37 38  2  0
 12  7  1  0
 27 16  1  0
 38 28  1  0
 25 20  1  0
 37 31  1  0
  3 39  1  0
  4 40  1  0
  4 41  1  0
  8 42  1  0
  8 43  1  0
  9 44  1  6
 10 45  1  0
 11 46  1  0
 11 47  1  0
 12 48  1  1
 15 49  1  0
 17 50  1  0
 18 51  1  0
 21 52  1  0
 22 53  1  0
 23 54  1  0
 24 55  1  0
 25 56  1  0
 26 57  1  0
 27 58  1  0
 29 59  1  0
 30 60  1  0
 32 61  1  0
 35 62  1  0
 36 63  1  0
M  END
>  <smiles>  (36) 
O=C(NCC(=O)N1C[C@H](O)C[C@H]1C(=O)Nc1ccc(-c2ccccc2)cc1)c1ccc2cc(F)ccc2n1

>  <score_type>  (36) 
oracle

>  <origin>  (36) 
autodockgpu

>  <m_score__min__energy>  (36) 
-9.8499999999999996

>  <m_primary>  (36) 
energy

>  <rmsd>  (36) 
4.2857872348978185

>  <m_score__min__rmsd>  (36) 
4.2857872348978185

>  <meeko>  (36) 
{"free_energy": -8.71, "intermolecular_energy": -11.09, "internal_energy": -3.3, "cluster_size": 7, "cluster_id": 2, "rank_in_cluster": 4}

>  <energy>  (36) 
-8.83

>  <cluster_rmsd>  (36) 
0.41

>  <cluster>  (36) 
3

$$$$

     RDKit          3D

 63 67  0  0  0  0  0  0  0  0999 V2000
  140.3390   72.9780  222.7840 O   0  0  0  0  0  0  0  0  0  0  0  0
  139.9960   71.7810  222.9580 C   0  0  0  0  0  0  0  0  0  0  0  0
  139.3480   71.0000  221.9530 N   0  0  0  0  0  0  0  0  0  0  0  0
  139.0500   71.5990  220.6260 C   0  0  0  0  0  0  0  0  0  0  0  0
  139.6670   70.8210  219.5660 C   0  0  0  0  0  0  0  0  0  0  0  0
  138.9280   69.8560  219.0930 O   0  0  0  0  0  0  0  0  0  0  0  0
  140.9220   70.9260  218.9600 N   0  0  0  0  0  0  0  0  0  0  0  0
  141.3220   69.8460  217.9790 C   0  0  0  0  0  0  0  0  0  0  0  0
  142.0180   70.6630  216.8940 C   0  0  2  0  0  0  0  0  0  0  0  0
  143.2480   70.0700  216.6340 O   0  0  0  0  0  0  0  0  0  0  0  0
  142.1870   72.0650  217.4520 C   0  0  0  0  0  0  0  0  0  0  0  0
  142.0530   71.7720  218.9490 C   0  0  1  0  0  0  0  0  0  0  0  0
  142.1090   72.9720  219.7530 C   0  0  0  0  0  0  0  0  0  0  0  0
  142.8000   73.2310  220.7490 O   0  0  0  0  0  0  0  0  0  0  0  0
  141.2230   74.0550  219.3450 N   0  0  0  0  0  0  0  0  0  0  0  0
  141.2760   75.2460  220.1400 C   0  0  0  0  0  0  0  0  0  0  0  0
  140.5210   75.3730  221.2880 C   0  0  0  0  0  0  0  0  0  0  0  0
  140.5990   76.5490  222.0370 C   0  0  0  0  0  0  0  0  0  0  0  0
  141.4380   77.5880  221.6230 C   0  0  0  0  0  0  0  0  0  0  0  0
  141.5490   78.8330  222.3760 C   0  0  0  0  0  0  0  0  0  0  0  0
  140.4060   79.5240  222.7950 C   0  0  0  0  0  0  0  0  0  0  0  0
  140.5360   80.6810  223.4940 C   0  0  0  0  0  0  0  0  0  0  0  0
  141.7750   81.2360  223.8300 C   0  0  0  0  0  0  0  0  0  0  0  0
  142.9010   80.5540  223.4200 C   0  0  0  0  0  0  0  0  0  0  0  0
  142.7980   79.3700  222.7020 C   0  0  0  0  0  0  0  0  0  0  0  0
  142.1880   77.4520  220.4730 C   0  0  0  0  0  0  0  0  0  0  0  0
  142.0960   76.2800  219.7480 C   0  0  0  0  0  0  0  0  0  0  0  0
  140.2680   71.1450  224.2500 C   0  0  0  0  0  0  0  0  0  0  0  0
  140.8060   71.8800  225.2930 C   0  0  0  0  0  0  0  0  0  0  0  0
  141.0840   71.3460  226.5290 C   0  0  0  0  0  0  0  0  0  0  0  0
  140.8030   70.0010  226.7140 C   0  0  0  0  0  0  0  0  0  0  0  0
  141.0860   69.4790  227.9570 C   0  0  0  0  0  0  0  0  0  0  0  0
  140.8230   68.1540  228.1810 C   0  0  0  0  0  0  0  0  0  0  0  0
  141.0900   67.5940  229.4040 F   0  0  0  0  0  0  0  0  0  0  0  0
  140.2900   67.4050  227.1640 C   0  0  0  0  0  0  0  0  0  0  0  0
  140.0010   67.9230  225.9070 C   0  0  0  0  0  0  0  0  0  0  0  0
  140.2670   69.2580  225.6860 C   0  0  0  0  0  0  0  0  0  0  0  0
  140.0170   69.8480  224.4910 N   0  0  0  0  0  0  0  0  0  0  0  0
  139.0970   70.0170  222.1780 H   0  0  0  0  0  0  0  0  0  0  0  0
  137.9607   71.6180  220.4739 H   0  0  0  0  0  0  0  0  0  0  0  0
  139.4549   72.6214  220.5984 H   0  0  0  0  0  0  0  0  0  0  0  0
  142.0092   69.1203  218.4385 H   0  0  0  0  0  0  0  0  0  0  0  0
  140.4810   69.2387  217.6130 H   0  0  0  0  0  0  0  0  0  0  0  0
  141.4483   70.7037  215.9539 H   0  0  0  0  0  0  0  0  0  0  0  0
  143.1770   69.3090  216.0070 H   0  0  0  0  0  0  0  0  0  0  0  0
  143.1724   72.4869  217.2050 H   0  0  0  0  0  0  0  0  0  0  0  0
  141.4779   72.8089  217.0597 H   0  0  0  0  0  0  0  0  0  0  0  0
  142.8802   71.2538  219.4563 H   0  0  0  0  0  0  0  0  0  0  0  0
  140.5940   73.9490  218.5190 H   0  0  0  0  0  0  0  0  0  0  0  0
  139.8622   74.5535  221.6109 H   0  0  0  0  0  0  0  0  0  0  0  0
  140.0001   76.6580  222.9532 H   0  0  0  0  0  0  0  0  0  0  0  0
  139.4060   79.1312  222.5589 H   0  0  0  0  0  0  0  0  0  0  0  0
  139.6233   81.2067  223.8111 H   0  0  0  0  0  0  0  0  0  0  0  0
  141.8480   82.1759  224.3968 H   0  0  0  0  0  0  0  0  0  0  0  0
  143.8959   80.9539  223.6654 H   0  0  0  0  0  0  0  0  0  0  0  0
  143.7123   78.8470  222.3851 H   0  0  0  0  0  0  0  0  0  0  0  0
  142.8494   78.2648  220.1385 H   0  0  0  0  0  0  0  0  0  0  0  0
  142.6946   76.1697  218.8318 H   0  0  0  0  0  0  0  0  0  0  0  0
  141.0219   72.9453  225.1240 H   0  0  0  0  0  0  0  0  0  0  0  0
  141.5109   71.9593  227.3362 H   0  0  0  0  0  0  0  0  0  0  0  0
  141.5127   70.1109  228.7499 H   0  0  0  0  0  0  0  0  0  0  0  0
  140.0807   66.3416  227.3521 H   0  0  0  0  0  0  0  0  0  0  0  0
  139.5746   67.2895  225.1153 H   0  0  0  0  0  0  0  0  0  0  0  0
  1  2  2  0
  2  3  1  0
  3  4  1  0
  4  5  1  0
  5  6  2  0
  5  7  1  0
  7  8  1  0
  8  9  1  0
  9 10  1  0
  9 11  1  0
 11 12  1  0
 12 13  1  0
 13 14  2  0
 13 15  1  0
 15 16  1  0
 16 17  2  0
 17 18  1  0
 18 19  2  0
 19 20  1  0
 20 21  2  0
 21 22  1  0
 22 23  2  0
 23 24  1  0
 24 25  2  0
 19 26  1  0
 26 27  2  0
  2 28  1  0
 28 29  2  0
 29 30  1  0
 30 31  2  0
 31 32  1  0
 32 33  2  0
 33 34  1  0
 33 35  1  0
 35 36  2  0
 36 37  1  0
 37 38  2  0
 12  7  1  0
 27 16  1  0
 38 28  1  0
 25 20  1  0
 37 31  1  0
  3 39  1  0
  4 40  1  0
  4 41  1  0
  8 42  1  0
  8 43  1  0
  9 44  1  6
 10 45  1  0
 11 46  1  0
 11 47  1  0
 12 48  1  1
 15 49  1  0
 17 50  1  0
 18 51  1  0
 21 52  1  0
 22 53  1  0
 23 54  1  0
 24 55  1  0
 25 56  1  0
 26 57  1  0
 27 58  1  0
 29 59  1  0
 30 60  1  0
 32 61  1  0
 35 62  1  0
 36 63  1  0
M  END
>  <smiles>  (37) 
O=C(NCC(=O)N1C[C@H](O)C[C@H]1C(=O)Nc1ccc(-c2ccccc2)cc1)c1ccc2cc(F)ccc2n1

>  <score_type>  (37) 
oracle

>  <origin>  (37) 
autodockgpu

>  <m_score__min__energy>  (37) 
-9.8499999999999996

>  <m_primary>  (37) 
energy

>  <rmsd>  (37) 
4.392429254042577

>  <m_score__min__rmsd>  (37) 
4.392429254042577

>  <meeko>  (37) 
{"free_energy": -8.62, "intermolecular_energy": -11.0, "internal_energy": -2.47, "cluster_size": 7, "cluster_id": 2, "rank_in_cluster": 5}

>  <energy>  (37) 
-8.81

>  <cluster_rmsd>  (37) 
0.29

>  <cluster>  (37) 
3

$$$$

     RDKit          3D

 63 67  0  0  0  0  0  0  0  0999 V2000
  140.6160   73.6540  222.2980 O   0  0  0  0  0  0  0  0  0  0  0  0
  140.6600   72.3980  222.2420 C   0  0  0  0  0  0  0  0  0  0  0  0
  141.0000   71.6810  221.0540 N   0  0  0  0  0  0  0  0  0  0  0  0
  141.3240   72.4220  219.8070 C   0  0  0  0  0  0  0  0  0  0  0  0
  142.5530   73.1780  219.9690 C   0  0  0  0  0  0  0  0  0  0  0  0
  143.1770   72.9760  221.0950 O   0  0  0  0  0  0  0  0  0  0  0  0
  143.1890   74.0920  219.1230 N   0  0  0  0  0  0  0  0  0  0  0  0
  144.2190   73.5550  218.1550 C   0  0  0  0  0  0  0  0  0  0  0  0
  143.9210   74.3760  216.9040 C   0  0  2  0  0  0  0  0  0  0  0  0
  145.1180   74.9140  216.4480 O   0  0  0  0  0  0  0  0  0  0  0  0
  142.9500   75.4650  217.3260 C   0  0  0  0  0  0  0  0  0  0  0  0
  143.2030   75.4750  218.8360 C   0  0  1  0  0  0  0  0  0  0  0  0
  142.3420   76.4020  219.5340 C   0  0  0  0  0  0  0  0  0  0  0  0
  141.9800   77.5440  219.2180 O   0  0  0  0  0  0  0  0  0  0  0  0
  141.8050   75.9390  220.8080 N   0  0  0  0  0  0  0  0  0  0  0  0
  140.9500   76.8550  221.5020 C   0  0  0  0  0  0  0  0  0  0  0  0
  141.4500   78.0080  222.0720 C   0  0  0  0  0  0  0  0  0  0  0  0
  140.5860   78.8770  222.7420 C   0  0  0  0  0  0  0  0  0  0  0  0
  139.2230   78.5770  222.8300 C   0  0  0  0  0  0  0  0  0  0  0  0
  138.2860   79.4570  223.5190 C   0  0  0  0  0  0  0  0  0  0  0  0
  138.7450   80.5020  224.3300 C   0  0  0  0  0  0  0  0  0  0  0  0
  137.8520   81.3080  224.9620 C   0  0  0  0  0  0  0  0  0  0  0  0
  136.4670   81.1520  224.8460 C   0  0  0  0  0  0  0  0  0  0  0  0
  136.0140   80.1240  224.0460 C   0  0  0  0  0  0  0  0  0  0  0  0
  136.9040   79.2850  223.3900 C   0  0  0  0  0  0  0  0  0  0  0  0
  138.7320   77.4220  222.2570 C   0  0  0  0  0  0  0  0  0  0  0  0
  139.6050   76.5770  221.5990 C   0  0  0  0  0  0  0  0  0  0  0  0
  140.3480   71.6210  223.4450 C   0  0  0  0  0  0  0  0  0  0  0  0
  139.5030   70.5270  223.3710 C   0  0  0  0  0  0  0  0  0  0  0  0
  139.1690   69.7560  224.4590 C   0  0  0  0  0  0  0  0  0  0  0  0
  139.7200   70.1140  225.6800 C   0  0  0  0  0  0  0  0  0  0  0  0
  139.3770   69.3330  226.7620 C   0  0  0  0  0  0  0  0  0  0  0  0
  139.9010   69.6530  227.9860 C   0  0  0  0  0  0  0  0  0  0  0  0
  139.5860   68.9010  229.0900 F   0  0  0  0  0  0  0  0  0  0  0  0
  140.7400   70.7320  228.0850 C   0  0  0  0  0  0  0  0  0  0  0  0
  141.0910   71.5260  226.9990 C   0  0  0  0  0  0  0  0  0  0  0  0
  140.5620   71.2000  225.7680 C   0  0  0  0  0  0  0  0  0  0  0  0
  140.8500   71.9180  224.6540 N   0  0  0  0  0  0  0  0  0  0  0  0
  141.0140   70.6420  221.0920 H   0  0  0  0  0  0  0  0  0  0  0  0
  141.4461   71.7053  218.9815 H   0  0  0  0  0  0  0  0  0  0  0  0
  140.5036   73.1203  219.5850 H   0  0  0  0  0  0  0  0  0  0  0  0
  145.2421   73.7330  218.5178 H   0  0  0  0  0  0  0  0  0  0  0  0
  144.1638   72.4673  218.0003 H   0  0  0  0  0  0  0  0  0  0  0  0
  143.4805   73.7787  216.0921 H   0  0  0  0  0  0  0  0  0  0  0  0
  145.4760   75.6090  217.0540 H   0  0  0  0  0  0  0  0  0  0  0  0
  143.1959   76.4327  216.8643 H   0  0  0  0  0  0  0  0  0  0  0  0
  141.9040   75.2928  217.0323 H   0  0  0  0  0  0  0  0  0  0  0  0
  144.1496   75.8974  219.2043 H   0  0  0  0  0  0  0  0  0  0  0  0
  142.0420   74.9910  221.1750 H   0  0  0  0  0  0  0  0  0  0  0  0
  142.5225   78.2412  221.9991 H   0  0  0  0  0  0  0  0  0  0  0  0
  140.9775   79.7971  223.2003 H   0  0  0  0  0  0  0  0  0  0  0  0
  139.8249   80.6700  224.4551 H   0  0  0  0  0  0  0  0  0  0  0  0
  138.2366   82.1215  225.5947 H   0  0  0  0  0  0  0  0  0  0  0  0
  135.7687   81.8208  225.3705 H   0  0  0  0  0  0  0  0  0  0  0  0
  134.9319   79.9668  223.9261 H   0  0  0  0  0  0  0  0  0  0  0  0
  136.5163   78.4719  222.7586 H   0  0  0  0  0  0  0  0  0  0  0  0
  137.6615   77.1775  222.3230 H   0  0  0  0  0  0  0  0  0  0  0  0
  139.2147   75.6567  221.1399 H   0  0  0  0  0  0  0  0  0  0  0  0
  139.0773   70.2612  222.3922 H   0  0  0  0  0  0  0  0  0  0  0  0
  138.4940   68.8926  224.3650 H   0  0  0  0  0  0  0  0  0  0  0  0
  138.6995   68.4743  226.6456 H   0  0  0  0  0  0  0  0  0  0  0  0
  141.1561   70.9822  229.0720 H   0  0  0  0  0  0  0  0  0  0  0  0
  141.7677   72.3851  227.1177 H   0  0  0  0  0  0  0  0  0  0  0  0
  1  2  2  0
  2  3  1  0
  3  4  1  0
  4  5  1  0
  5  6  2  0
  5  7  1  0
  7  8  1  0
  8  9  1  0
  9 10  1  0
  9 11  1  0
 11 12  1  0
 12 13  1  0
 13 14  2  0
 13 15  1  0
 15 16  1  0
 16 17  2  0
 17 18  1  0
 18 19  2  0
 19 20  1  0
 20 21  2  0
 21 22  1  0
 22 23  2  0
 23 24  1  0
 24 25  2  0
 19 26  1  0
 26 27  2  0
  2 28  1  0
 28 29  2  0
 29 30  1  0
 30 31  2  0
 31 32  1  0
 32 33  2  0
 33 34  1  0
 33 35  1  0
 35 36  2  0
 36 37  1  0
 37 38  2  0
 12  7  1  0
 27 16  1  0
 38 28  1  0
 25 20  1  0
 37 31  1  0
  3 39  1  0
  4 40  1  0
  4 41  1  0
  8 42  1  0
  8 43  1  0
  9 44  1  6
 10 45  1  0
 11 46  1  0
 11 47  1  0
 12 48  1  6
 15 49  1  0
 17 50  1  0
 18 51  1  0
 21 52  1  0
 22 53  1  0
 23 54  1  0
 24 55  1  0
 25 56  1  0
 26 57  1  0
 27 58  1  0
 29 59  1  0
 30 60  1  0
 32 61  1  0
 35 62  1  0
 36 63  1  0
M  END
>  <smiles>  (38) 
O=C(NCC(=O)N1C[C@H](O)C[C@H]1C(=O)Nc1ccc(-c2ccccc2)cc1)c1ccc2cc(F)ccc2n1

>  <score_type>  (38) 
oracle

>  <origin>  (38) 
autodockgpu

>  <m_score__min__energy>  (38) 
-9.8499999999999996

>  <m_primary>  (38) 
energy

>  <rmsd>  (38) 
3.2080659269183505

>  <m_score__min__rmsd>  (38) 
3.2080659269183505

>  <meeko>  (38) 
{"free_energy": -9.12, "intermolecular_energy": -11.51, "internal_energy": -2.96, "cluster_size": 26, "cluster_id": 1, "rank_in_cluster": 18}

>  <energy>  (38) 
-8.8

>  <cluster_rmsd>  (38) 
0.23

>  <cluster>  (38) 
3

$$$$

     RDKit          3D

 63 67  0  0  0  0  0  0  0  0999 V2000
  138.6730   70.6860  221.7060 O   0  0  0  0  0  0  0  0  0  0  0  0
  139.1810   71.2600  222.7020 C   0  0  0  0  0  0  0  0  0  0  0  0
  139.4980   72.6530  222.7230 N   0  0  0  0  0  0  0  0  0  0  0  0
  139.2250   73.4940  221.5290 C   0  0  0  0  0  0  0  0  0  0  0  0
  140.2580   73.3060  220.5260 C   0  0  0  0  0  0  0  0  0  0  0  0
  140.0020   72.3810  219.6430 O   0  0  0  0  0  0  0  0  0  0  0  0
  141.4870   73.9450  220.3400 N   0  0  0  0  0  0  0  0  0  0  0  0
  142.6510   73.1070  219.8620 C   0  0  0  0  0  0  0  0  0  0  0  0
  143.3240   74.0550  218.8730 C   0  0  2  0  0  0  0  0  0  0  0  0
  144.6780   74.1070  219.1820 O   0  0  0  0  0  0  0  0  0  0  0  0
  142.6630   75.4100  219.0580 C   0  0  0  0  0  0  0  0  0  0  0  0
  142.0710   75.2270  220.4570 C   0  0  1  0  0  0  0  0  0  0  0  0
  141.3010   76.3730  220.8850 C   0  0  0  0  0  0  0  0  0  0  0  0
  140.6320   77.1760  220.2180 O   0  0  0  0  0  0  0  0  0  0  0  0
  141.2980   76.6410  222.3180 N   0  0  0  0  0  0  0  0  0  0  0  0
  140.5360   77.7760  222.7450 C   0  0  0  0  0  0  0  0  0  0  0  0
  141.1540   78.9200  223.2070 C   0  0  0  0  0  0  0  0  0  0  0  0
  140.3770   80.0070  223.6160 C   0  0  0  0  0  0  0  0  0  0  0  0
  138.9820   79.9310  223.5540 C   0  0  0  0  0  0  0  0  0  0  0  0
  138.1330   81.0430  223.9700 C   0  0  0  0  0  0  0  0  0  0  0  0
  137.7230   82.0170  223.0520 C   0  0  0  0  0  0  0  0  0  0  0  0
  136.9340   83.0430  223.4650 C   0  0  0  0  0  0  0  0  0  0  0  0
  136.4950   83.1850  224.7850 C   0  0  0  0  0  0  0  0  0  0  0  0
  136.8970   82.2250  225.6890 C   0  0  0  0  0  0  0  0  0  0  0  0
  137.7050   81.1670  225.2950 C   0  0  0  0  0  0  0  0  0  0  0  0
  138.3730   78.7830  223.0900 C   0  0  0  0  0  0  0  0  0  0  0  0
  139.1610   77.7220  222.6920 C   0  0  0  0  0  0  0  0  0  0  0  0
  139.4700   70.4740  223.9050 C   0  0  0  0  0  0  0  0  0  0  0  0
  139.1760   69.1220  223.9450 C   0  0  0  0  0  0  0  0  0  0  0  0
  139.4210   68.3270  225.0400 C   0  0  0  0  0  0  0  0  0  0  0  0
  139.9910   68.9360  226.1470 C   0  0  0  0  0  0  0  0  0  0  0  0
  140.2310   68.1280  227.2370 C   0  0  0  0  0  0  0  0  0  0  0  0
  140.7950   68.6910  228.3510 C   0  0  0  0  0  0  0  0  0  0  0  0
  141.0500   67.9230  229.4590 F   0  0  0  0  0  0  0  0  0  0  0  0
  141.0950   70.0280  228.3360 C   0  0  0  0  0  0  0  0  0  0  0  0
  140.8570   70.8510  227.2410 C   0  0  0  0  0  0  0  0  0  0  0  0
  140.2900   70.2800  226.1220 C   0  0  0  0  0  0  0  0  0  0  0  0
  140.0220   71.0060  225.0070 N   0  0  0  0  0  0  0  0  0  0  0  0
  139.9170   73.0510  223.5870 H   0  0  0  0  0  0  0  0  0  0  0  0
  138.2511   73.2116  221.1026 H   0  0  0  0  0  0  0  0  0  0  0  0
  139.2141   74.5508  221.8339 H   0  0  0  0  0  0  0  0  0  0  0  0
  143.3254   72.8464  220.6910 H   0  0  0  0  0  0  0  0  0  0  0  0
  142.3582   72.1399  219.4273 H   0  0  0  0  0  0  0  0  0  0  0  0
  143.2205   73.7299  217.8272 H   0  0  0  0  0  0  0  0  0  0  0  0
  145.1600   74.7920  218.6570 H   0  0  0  0  0  0  0  0  0  0  0  0
  143.3962   76.2295  219.0288 H   0  0  0  0  0  0  0  0  0  0  0  0
  141.9357   75.6814  218.2786 H   0  0  0  0  0  0  0  0  0  0  0  0
  142.7567   75.2202  221.3171 H   0  0  0  0  0  0  0  0  0  0  0  0
  141.8280   76.0300  222.9770 H   0  0  0  0  0  0  0  0  0  0  0  0
  142.2516   78.9759  223.2530 H   0  0  0  0  0  0  0  0  0  0  0  0
  140.8624   80.9220  223.9865 H   0  0  0  0  0  0  0  0  0  0  0  0
  138.0385   81.9519  222.0002 H   0  0  0  0  0  0  0  0  0  0  0  0
  136.6260   83.7975  222.7262 H   0  0  0  0  0  0  0  0  0  0  0  0
  135.8559   84.0271  225.0892 H   0  0  0  0  0  0  0  0  0  0  0  0
  136.5729   82.2983  226.7376 H   0  0  0  0  0  0  0  0  0  0  0  0
  138.0130   80.4151  226.0365 H   0  0  0  0  0  0  0  0  0  0  0  0
  137.2764   78.7145  223.0381 H   0  0  0  0  0  0  0  0  0  0  0  0
  138.6765   76.8065  222.3217 H   0  0  0  0  0  0  0  0  0  0  0  0
  138.7232   68.6599  223.0554 H   0  0  0  0  0  0  0  0  0  0  0  0
  139.1754   67.2548  225.0375 H   0  0  0  0  0  0  0  0  0  0  0  0
  139.9762   67.0582  227.2131 H   0  0  0  0  0  0  0  0  0  0  0  0
  141.5467   70.4723  229.2352 H   0  0  0  0  0  0  0  0  0  0  0  0
  141.1123   71.9206  227.2668 H   0  0  0  0  0  0  0  0  0  0  0  0
  1  2  2  0
  2  3  1  0
  3  4  1  0
  4  5  1  0
  5  6  2  0
  5  7  1  0
  7  8  1  0
  8  9  1  0
  9 10  1  0
  9 11  1  0
 11 12  1  0
 12 13  1  0
 13 14  2  0
 13 15  1  0
 15 16  1  0
 16 17  2  0
 17 18  1  0
 18 19  2  0
 19 20  1  0
 20 21  2  0
 21 22  1  0
 22 23  2  0
 23 24  1  0
 24 25  2  0
 19 26  1  0
 26 27  2  0
  2 28  1  0
 28 29  2  0
 29 30  1  0
 30 31  2  0
 31 32  1  0
 32 33  2  0
 33 34  1  0
 33 35  1  0
 35 36  2  0
 36 37  1  0
 37 38  2  0
 12  7  1  0
 27 16  1  0
 38 28  1  0
 25 20  1  0
 37 31  1  0
  3 39  1  0
  4 40  1  0
  4 41  1  0
  8 42  1  0
  8 43  1  0
  9 44  1  6
 10 45  1  0
 11 46  1  0
 11 47  1  0
 12 48  1  1
 15 49  1  0
 17 50  1  0
 18 51  1  0
 21 52  1  0
 22 53  1  0
 23 54  1  0
 24 55  1  0
 25 56  1  0
 26 57  1  0
 27 58  1  0
 29 59  1  0
 30 60  1  0
 32 61  1  0
 35 62  1  0
 36 63  1  0
M  END
>  <smiles>  (39) 
O=C(NCC(=O)N1C[C@H](O)C[C@H]1C(=O)Nc1ccc(-c2ccccc2)cc1)c1ccc2cc(F)ccc2n1

>  <score_type>  (39) 
oracle

>  <origin>  (39) 
autodockgpu

>  <m_score__min__energy>  (39) 
-9.8499999999999996

>  <m_primary>  (39) 
energy

>  <rmsd>  (39) 
2.483378230942499

>  <m_score__min__rmsd>  (39) 
2.483378230942499

>  <meeko>  (39) 
{"free_energy": -9.61, "intermolecular_energy": -12.0, "internal_energy": -1.99, "cluster_size": 26, "cluster_id": 1, "rank_in_cluster": 4}

>  <energy>  (39) 
-8.78

>  <cluster_rmsd>  (39) 
0.59

>  <cluster>  (39) 
3

$$$$

     RDKit          3D

 63 67  0  0  0  0  0  0  0  0999 V2000
  140.0050   72.9100  222.3630 O   0  0  0  0  0  0  0  0  0  0  0  0
  139.9400   71.6660  222.5320 C   0  0  0  0  0  0  0  0  0  0  0  0
  139.6420   70.7490  221.4780 N   0  0  0  0  0  0  0  0  0  0  0  0
  139.3930   71.2550  220.1020 C   0  0  0  0  0  0  0  0  0  0  0  0
  140.6410   71.3750  219.3700 C   0  0  0  0  0  0  0  0  0  0  0  0
  140.5150   71.7690  218.1340 O   0  0  0  0  0  0  0  0  0  0  0  0
  141.9630   71.1420  219.7610 N   0  0  0  0  0  0  0  0  0  0  0  0
  142.4970   69.7340  219.6320 C   0  0  0  0  0  0  0  0  0  0  0  0
  143.9150   69.9900  219.1290 C   0  0  2  0  0  0  0  0  0  0  0  0
  144.7910   69.2650  219.9280 O   0  0  0  0  0  0  0  0  0  0  0  0
  144.1540   71.4840  219.2600 C   0  0  0  0  0  0  0  0  0  0  0  0
  143.0760   71.8360  220.2870 C   0  0  1  0  0  0  0  0  0  0  0  0
  143.0210   73.2530  220.5670 C   0  0  0  0  0  0  0  0  0  0  0  0
  143.9370   74.0500  220.8180 O   0  0  0  0  0  0  0  0  0  0  0  0
  141.6940   73.8550  220.5560 N   0  0  0  0  0  0  0  0  0  0  0  0
  141.6370   75.2600  220.8320 C   0  0  0  0  0  0  0  0  0  0  0  0
  141.0090   75.7410  221.9630 C   0  0  0  0  0  0  0  0  0  0  0  0
  140.9730   77.1170  222.1980 C   0  0  0  0  0  0  0  0  0  0  0  0
  141.5710   77.9980  221.2910 C   0  0  0  0  0  0  0  0  0  0  0  0
  141.5560   79.4420  221.4990 C   0  0  0  0  0  0  0  0  0  0  0  0
  141.2590   80.3160  220.4470 C   0  0  0  0  0  0  0  0  0  0  0  0
  141.2520   81.6570  220.6660 C   0  0  0  0  0  0  0  0  0  0  0  0
  141.5300   82.2290  221.9120 C   0  0  0  0  0  0  0  0  0  0  0  0
  141.8210   81.3680  222.9490 C   0  0  0  0  0  0  0  0  0  0  0  0
  141.8360   79.9930  222.7530 C   0  0  0  0  0  0  0  0  0  0  0  0
  142.1950   77.5070  220.1630 C   0  0  0  0  0  0  0  0  0  0  0  0
  142.2190   76.1430  219.9500 C   0  0  0  0  0  0  0  0  0  0  0  0
  140.1770   71.1160  223.8700 C   0  0  0  0  0  0  0  0  0  0  0  0
  140.7110   71.9130  224.8690 C   0  0  0  0  0  0  0  0  0  0  0  0
  140.9580   71.4620  226.1440 C   0  0  0  0  0  0  0  0  0  0  0  0
  140.6480   70.1380  226.4170 C   0  0  0  0  0  0  0  0  0  0  0  0
  140.9010   69.6990  227.6980 C   0  0  0  0  0  0  0  0  0  0  0  0
  140.6080   68.3980  228.0080 C   0  0  0  0  0  0  0  0  0  0  0  0
  140.8440   67.9200  229.2720 F   0  0  0  0  0  0  0  0  0  0  0  0
  140.0790   67.5890  227.0360 C   0  0  0  0  0  0  0  0  0  0  0  0
  139.8210   68.0230  225.7410 C   0  0  0  0  0  0  0  0  0  0  0  0
  140.1160   69.3340  225.4330 C   0  0  0  0  0  0  0  0  0  0  0  0
  139.8980   69.8450  224.1950 N   0  0  0  0  0  0  0  0  0  0  0  0
  139.6070   69.7340  221.7010 H   0  0  0  0  0  0  0  0  0  0  0  0
  138.7294   70.5547  219.5735 H   0  0  0  0  0  0  0  0  0  0  0  0
  138.9228   72.2472  220.1679 H   0  0  0  0  0  0  0  0  0  0  0  0
  142.5025   69.2161  220.6024 H   0  0  0  0  0  0  0  0  0  0  0  0
  141.8985   69.0863  218.9745 H   0  0  0  0  0  0  0  0  0  0  0  0
  144.0641   69.6796  218.0843 H   0  0  0  0  0  0  0  0  0  0  0  0
  144.4850   68.3380  220.0830 H   0  0  0  0  0  0  0  0  0  0  0  0
  145.1639   71.7045  219.6362 H   0  0  0  0  0  0  0  0  0  0  0  0
  144.0969   72.0470  218.3167 H   0  0  0  0  0  0  0  0  0  0  0  0
  143.2245   71.5181  221.3295 H   0  0  0  0  0  0  0  0  0  0  0  0
  140.8470   73.2790  220.3560 H   0  0  0  0  0  0  0  0  0  0  0  0
  140.5401   75.0452  222.6744 H   0  0  0  0  0  0  0  0  0  0  0  0
  140.4741   77.5083  223.0969 H   0  0  0  0  0  0  0  0  0  0  0  0
  141.0321   79.9188  219.4466 H   0  0  0  0  0  0  0  0  0  0  0  0
  141.0166   82.3243  219.8238 H   0  0  0  0  0  0  0  0  0  0  0  0
  141.5170   83.3192  222.0583 H   0  0  0  0  0  0  0  0  0  0  0  0
  142.0445   81.7759  223.9458 H   0  0  0  0  0  0  0  0  0  0  0  0
  142.0716   79.3278  223.5968 H   0  0  0  0  0  0  0  0  0  0  0  0
  142.6668   78.1924  219.4435 H   0  0  0  0  0  0  0  0  0  0  0  0
  142.7168   75.7508  219.0509 H   0  0  0  0  0  0  0  0  0  0  0  0
  140.9496   72.9599  224.6301 H   0  0  0  0  0  0  0  0  0  0  0  0
  141.3830   72.1225  226.9141 H   0  0  0  0  0  0  0  0  0  0  0  0
  141.3275   70.3764  228.4525 H   0  0  0  0  0  0  0  0  0  0  0  0
  139.8473   66.5450  227.2936 H   0  0  0  0  0  0  0  0  0  0  0  0
  139.3959   67.3436  224.9875 H   0  0  0  0  0  0  0  0  0  0  0  0
  1  2  2  0
  2  3  1  0
  3  4  1  0
  4  5  1  0
  5  6  2  0
  5  7  1  0
  7  8  1  0
  8  9  1  0
  9 10  1  0
  9 11  1  0
 11 12  1  0
 12 13  1  0
 13 14  2  0
 13 15  1  0
 15 16  1  0
 16 17  2  0
 17 18  1  0
 18 19  2  0
 19 20  1  0
 20 21  2  0
 21 22  1  0
 22 23  2  0
 23 24  1  0
 24 25  2  0
 19 26  1  0
 26 27  2  0
  2 28  1  0
 28 29  2  0
 29 30  1  0
 30 31  2  0
 31 32  1  0
 32 33  2  0
 33 34  1  0
 33 35  1  0
 35 36  2  0
 36 37  1  0
 37 38  2  0
 12  7  1  0
 27 16  1  0
 38 28  1  0
 25 20  1  0
 37 31  1  0
  3 39  1  0
  4 40  1  0
  4 41  1  0
  8 42  1  0
  8 43  1  0
  9 44  1  6
 10 45  1  0
 11 46  1  0
 11 47  1  0
 12 48  1  1
 15 49  1  0
 17 50  1  0
 18 51  1  0
 21 52  1  0
 22 53  1  0
 23 54  1  0
 24 55  1  0
 25 56  1  0
 26 57  1  0
 27 58  1  0
 29 59  1  0
 30 60  1  0
 32 61  1  0
 35 62  1  0
 36 63  1  0
M  END
>  <smiles>  (40) 
O=C(NCC(=O)N1C[C@H](O)C[C@H]1C(=O)Nc1ccc(-c2ccccc2)cc1)c1ccc2cc(F)ccc2n1

>  <score_type>  (40) 
oracle

>  <origin>  (40) 
autodockgpu

>  <m_score__min__energy>  (40) 
-9.8499999999999996

>  <m_primary>  (40) 
energy

>  <rmsd>  (40) 
4.612758070302659

>  <m_score__min__rmsd>  (40) 
4.612758070302659

>  <meeko>  (40) 
{"free_energy": -9.09, "intermolecular_energy": -11.47, "internal_energy": -3.14, "cluster_size": 7, "cluster_id": 2, "rank_in_cluster": 2}

>  <energy>  (40) 
-8.77

>  <cluster_rmsd>  (40) 
0.37

>  <cluster>  (40) 
3

$$$$

     RDKit          3D

 63 67  0  0  0  0  0  0  0  0999 V2000
  140.6760   71.2130  221.2780 O   0  0  0  0  0  0  0  0  0  0  0  0
  140.2510   71.8220  222.2920 C   0  0  0  0  0  0  0  0  0  0  0  0
  139.9040   73.2080  222.2830 N   0  0  0  0  0  0  0  0  0  0  0  0
  140.0400   73.9990  221.0320 C   0  0  0  0  0  0  0  0  0  0  0  0
  140.5060   75.3410  221.3260 C   0  0  0  0  0  0  0  0  0  0  0  0
  139.9950   75.8770  222.3990 O   0  0  0  0  0  0  0  0  0  0  0  0
  141.4150   76.1660  220.6570 N   0  0  0  0  0  0  0  0  0  0  0  0
  142.3520   75.5200  219.6610 C   0  0  0  0  0  0  0  0  0  0  0  0
  142.3670   76.5550  218.5400 C   0  0  2  0  0  0  0  0  0  0  0  0
  143.6930   76.8230  218.2210 O   0  0  0  0  0  0  0  0  0  0  0  0
  141.6690   77.7900  219.0840 C   0  0  0  0  0  0  0  0  0  0  0  0
  141.7980   77.5250  220.5870 C   0  0  1  0  0  0  0  0  0  0  0  0
  141.1430   78.5370  221.3830 C   0  0  0  0  0  0  0  0  0  0  0  0
  141.6080   79.5590  221.9100 O   0  0  0  0  0  0  0  0  0  0  0  0
  139.7170   78.3450  221.6140 N   0  0  0  0  0  0  0  0  0  0  0  0
  139.0650   79.3470  222.4020 C   0  0  0  0  0  0  0  0  0  0  0  0
  138.4250   80.4180  221.8110 C   0  0  0  0  0  0  0  0  0  0  0  0
  137.8000   81.3760  222.6140 C   0  0  0  0  0  0  0  0  0  0  0  0
  137.8250   81.2460  224.0050 C   0  0  0  0  0  0  0  0  0  0  0  0
  137.1860   82.2240  224.8790 C   0  0  0  0  0  0  0  0  0  0  0  0
  136.6270   83.3970  224.3580 C   0  0  0  0  0  0  0  0  0  0  0  0
  136.0380   84.2930  225.1930 C   0  0  0  0  0  0  0  0  0  0  0  0
  135.9530   84.1050  226.5760 C   0  0  0  0  0  0  0  0  0  0  0  0
  136.5010   82.9490  227.0900 C   0  0  0  0  0  0  0  0  0  0  0  0
  137.1110   82.0180  226.2600 C   0  0  0  0  0  0  0  0  0  0  0  0
  138.4680   80.1730  224.5870 C   0  0  0  0  0  0  0  0  0  0  0  0
  139.0790   79.2380  223.7750 C   0  0  0  0  0  0  0  0  0  0  0  0
  140.1000   71.0870  223.5520 C   0  0  0  0  0  0  0  0  0  0  0  0
  139.4690   69.8550  223.5710 C   0  0  0  0  0  0  0  0  0  0  0  0
  139.2940   69.1140  224.7160 C   0  0  0  0  0  0  0  0  0  0  0  0
  139.7840   69.6500  225.8970 C   0  0  0  0  0  0  0  0  0  0  0  0
  139.6020   68.8980  227.0360 C   0  0  0  0  0  0  0  0  0  0  0  0
  140.0720   69.3920  228.2230 C   0  0  0  0  0  0  0  0  0  0  0  0
  139.9120   68.6750  229.3820 F   0  0  0  0  0  0  0  0  0  0  0  0
  140.7000   70.6100  228.2300 C   0  0  0  0  0  0  0  0  0  0  0  0
  140.8880   71.3770  227.0860 C   0  0  0  0  0  0  0  0  0  0  0  0
  140.4140   70.8750  225.8920 C   0  0  0  0  0  0  0  0  0  0  0  0
  140.5520   71.5540  224.7260 N   0  0  0  0  0  0  0  0  0  0  0  0
  139.5600   73.6370  223.1660 H   0  0  0  0  0  0  0  0  0  0  0  0
  140.7622   73.5029  220.3670 H   0  0  0  0  0  0  0  0  0  0  0  0
  139.0563   74.0636  220.5439 H   0  0  0  0  0  0  0  0  0  0  0  0
  143.3554   75.3762  220.0883 H   0  0  0  0  0  0  0  0  0  0  0  0
  142.0403   74.5154  219.3391 H   0  0  0  0  0  0  0  0  0  0  0  0
  141.8556   76.2097  217.6294 H   0  0  0  0  0  0  0  0  0  0  0  0
  144.2620   76.0150  218.2570 H   0  0  0  0  0  0  0  0  0  0  0  0
  142.1845   78.7151  218.7865 H   0  0  0  0  0  0  0  0  0  0  0  0
  140.6396   77.9373  218.7253 H   0  0  0  0  0  0  0  0  0  0  0  0
  142.7884   77.6325  221.0534 H   0  0  0  0  0  0  0  0  0  0  0  0
  139.2180   77.5180  221.2180 H   0  0  0  0  0  0  0  0  0  0  0  0
  138.4071   80.5167  220.7156 H   0  0  0  0  0  0  0  0  0  0  0  0
  137.2883   82.2325  222.1509 H   0  0  0  0  0  0  0  0  0  0  0  0
  136.6644   83.5928  223.2762 H   0  0  0  0  0  0  0  0  0  0  0  0
  135.6081   85.2087  224.7608 H   0  0  0  0  0  0  0  0  0  0  0  0
  135.4692   84.8483  227.2267 H   0  0  0  0  0  0  0  0  0  0  0  0
  136.4543   82.7616  228.1729 H   0  0  0  0  0  0  0  0  0  0  0  0
  137.5418   81.1044  226.6955 H   0  0  0  0  0  0  0  0  0  0  0  0
  138.4936   80.0640  225.6813 H   0  0  0  0  0  0  0  0  0  0  0  0
  139.5915   78.3818  224.2378 H   0  0  0  0  0  0  0  0  0  0  0  0
  139.0884   69.4484  222.6224 H   0  0  0  0  0  0  0  0  0  0  0  0
  138.7871   68.1380  224.6958 H   0  0  0  0  0  0  0  0  0  0  0  0
  139.0916   67.9245  226.9932 H   0  0  0  0  0  0  0  0  0  0  0  0
  141.0738   71.0000  229.1882 H   0  0  0  0  0  0  0  0  0  0  0  0
  141.3973   72.3509  227.1314 H   0  0  0  0  0  0  0  0  0  0  0  0
  1  2  2  0
  2  3  1  0
  3  4  1  0
  4  5  1  0
  5  6  2  0
  5  7  1  0
  7  8  1  0
  8  9  1  0
  9 10  1  0
  9 11  1  0
 11 12  1  0
 12 13  1  0
 13 14  2  0
 13 15  1  0
 15 16  1  0
 16 17  2  0
 17 18  1  0
 18 19  2  0
 19 20  1  0
 20 21  2  0
 21 22  1  0
 22 23  2  0
 23 24  1  0
 24 25  2  0
 19 26  1  0
 26 27  2  0
  2 28  1  0
 28 29  2  0
 29 30  1  0
 30 31  2  0
 31 32  1  0
 32 33  2  0
 33 34  1  0
 33 35  1  0
 35 36  2  0
 36 37  1  0
 37 38  2  0
 12  7  1  0
 27 16  1  0
 38 28  1  0
 25 20  1  0
 37 31  1  0
  3 39  1  0
  4 40  1  0
  4 41  1  0
  8 42  1  0
  8 43  1  0
  9 44  1  6
 10 45  1  0
 11 46  1  0
 11 47  1  0
 12 48  1  1
 15 49  1  0
 17 50  1  0
 18 51  1  0
 21 52  1  0
 22 53  1  0
 23 54  1  0
 24 55  1  0
 25 56  1  0
 26 57  1  0
 27 58  1  0
 29 59  1  0
 30 60  1  0
 32 61  1  0
 35 62  1  0
 36 63  1  0
M  END
>  <smiles>  (41) 
O=C(NCC(=O)N1C[C@H](O)C[C@H]1C(=O)Nc1ccc(-c2ccccc2)cc1)c1ccc2cc(F)ccc2n1

>  <score_type>  (41) 
oracle

>  <origin>  (41) 
autodockgpu

>  <m_score__min__energy>  (41) 
-9.8499999999999996

>  <m_primary>  (41) 
energy

>  <rmsd>  (41) 
2.3962595610901203

>  <m_score__min__rmsd>  (41) 
2.3962595610901203

>  <meeko>  (41) 
{"free_energy": -9.23, "intermolecular_energy": -11.62, "internal_energy": -2.69, "cluster_size": 26, "cluster_id": 1, "rank_in_cluster": 14}

>  <energy>  (41) 
-8.61

>  <cluster_rmsd>  (41) 
0.47

>  <cluster>  (41) 
3

$$$$

     RDKit          3D

 63 67  0  0  0  0  0  0  0  0999 V2000
  140.3470   73.2910  222.7200 O   0  0  0  0  0  0  0  0  0  0  0  0
  140.2240   72.0500  222.5560 C   0  0  0  0  0  0  0  0  0  0  0  0
  140.1550   71.4360  221.2680 N   0  0  0  0  0  0  0  0  0  0  0  0
  140.2280   72.2720  220.0420 C   0  0  0  0  0  0  0  0  0  0  0  0
  141.4810   72.0450  219.3450 C   0  0  0  0  0  0  0  0  0  0  0  0
  141.5020   70.9870  218.5840 O   0  0  0  0  0  0  0  0  0  0  0  0
  142.6790   72.7670  219.3460 N   0  0  0  0  0  0  0  0  0  0  0  0
  143.9420   72.0360  218.9500 C   0  0  0  0  0  0  0  0  0  0  0  0
  144.6560   73.0930  218.1130 C   0  0  2  0  0  0  0  0  0  0  0  0
  145.9610   73.2000  218.5780 O   0  0  0  0  0  0  0  0  0  0  0  0
  143.8900   74.3900  218.3120 C   0  0  0  0  0  0  0  0  0  0  0  0
  143.1600   74.0680  219.6180 C   0  0  1  0  0  0  0  0  0  0  0  0
  142.2740   75.1310  220.0320 C   0  0  0  0  0  0  0  0  0  0  0  0
  141.8350   76.0960  219.3900 O   0  0  0  0  0  0  0  0  0  0  0  0
  141.8130   75.0780  221.4140 N   0  0  0  0  0  0  0  0  0  0  0  0
  140.9340   76.1300  221.8270 C   0  0  0  0  0  0  0  0  0  0  0  0
  139.5800   75.9120  221.9770 C   0  0  0  0  0  0  0  0  0  0  0  0
  138.7530   76.9640  222.3810 C   0  0  0  0  0  0  0  0  0  0  0  0
  139.2990   78.2260  222.6310 C   0  0  0  0  0  0  0  0  0  0  0  0
  138.4720   79.3510  223.0540 C   0  0  0  0  0  0  0  0  0  0  0  0
  138.8490   80.1540  224.1370 C   0  0  0  0  0  0  0  0  0  0  0  0
  138.0610   81.1950  224.5120 C   0  0  0  0  0  0  0  0  0  0  0  0
  136.8660   81.5210  223.8630 C   0  0  0  0  0  0  0  0  0  0  0  0
  136.4950   80.7320  222.7950 C   0  0  0  0  0  0  0  0  0  0  0  0
  137.2800   79.6610  222.3910 C   0  0  0  0  0  0  0  0  0  0  0  0
  140.6540   78.4340  222.4770 C   0  0  0  0  0  0  0  0  0  0  0  0
  141.4530   77.3810  222.0770 C   0  0  0  0  0  0  0  0  0  0  0  0
  140.1470   71.1820  223.7340 C   0  0  0  0  0  0  0  0  0  0  0  0
  139.5520   69.9340  223.6460 C   0  0  0  0  0  0  0  0  0  0  0  0
  139.4460   69.0700  224.7100 C   0  0  0  0  0  0  0  0  0  0  0  0
  139.9690   69.4940  225.9220 C   0  0  0  0  0  0  0  0  0  0  0  0
  139.8560   68.6190  226.9800 C   0  0  0  0  0  0  0  0  0  0  0  0
  140.3610   69.0000  228.1940 C   0  0  0  0  0  0  0  0  0  0  0  0
  140.2700   68.1590  229.2740 F   0  0  0  0  0  0  0  0  0  0  0  0
  140.9550   70.2300  228.3080 C   0  0  0  0  0  0  0  0  0  0  0  0
  141.0730   71.1190  227.2460 C   0  0  0  0  0  0  0  0  0  0  0  0
  140.5640   70.7320  226.0250 C   0  0  0  0  0  0  0  0  0  0  0  0
  140.6340   71.5350  224.9340 N   0  0  0  0  0  0  0  0  0  0  0  0
  140.0530   70.4020  221.2190 H   0  0  0  0  0  0  0  0  0  0  0  0
  139.3915   72.0123  219.3766 H   0  0  0  0  0  0  0  0  0  0  0  0
  140.1686   73.3319  220.3304 H   0  0  0  0  0  0  0  0  0  0  0  0
  144.5358   71.7532  219.8317 H   0  0  0  0  0  0  0  0  0  0  0  0
  143.7642   71.0889  218.4195 H   0  0  0  0  0  0  0  0  0  0  0  0
  144.6908   72.8420  217.0426 H   0  0  0  0  0  0  0  0  0  0  0  0
  146.2130   74.1320  218.7910 H   0  0  0  0  0  0  0  0  0  0  0  0
  144.5659   75.2506  218.4233 H   0  0  0  0  0  0  0  0  0  0  0  0
  143.2373   74.6765  217.4742 H   0  0  0  0  0  0  0  0  0  0  0  0
  143.7447   74.0362  220.5492 H   0  0  0  0  0  0  0  0  0  0  0  0
  142.1190   74.3080  222.0490 H   0  0  0  0  0  0  0  0  0  0  0  0
  139.1541   74.9171  221.7800 H   0  0  0  0  0  0  0  0  0  0  0  0
  137.6723   76.7986  222.5022 H   0  0  0  0  0  0  0  0  0  0  0  0
  139.7805   79.9426  224.6826 H   0  0  0  0  0  0  0  0  0  0  0  0
  138.3779   81.8107  225.3667 H   0  0  0  0  0  0  0  0  0  0  0  0
  136.2486   82.3704  224.1905 H   0  0  0  0  0  0  0  0  0  0  0  0
  135.5629   80.9546  222.2550 H   0  0  0  0  0  0  0  0  0  0  0  0
  136.9599   79.0467  221.5365 H   0  0  0  0  0  0  0  0  0  0  0  0
  141.0918   79.4245  222.6701 H   0  0  0  0  0  0  0  0  0  0  0  0
  142.5337   77.5460  221.9547 H   0  0  0  0  0  0  0  0  0  0  0  0
  139.1434   69.6182  222.6748 H   0  0  0  0  0  0  0  0  0  0  0  0
  138.9672   68.0853  224.6044 H   0  0  0  0  0  0  0  0  0  0  0  0
  139.3724   67.6393  226.8526 H   0  0  0  0  0  0  0  0  0  0  0  0
  141.3578   70.5280  229.2873 H   0  0  0  0  0  0  0  0  0  0  0  0
  141.5564   72.0985  227.3757 H   0  0  0  0  0  0  0  0  0  0  0  0
  1  2  2  0
  2  3  1  0
  3  4  1  0
  4  5  1  0
  5  6  2  0
  5  7  1  0
  7  8  1  0
  8  9  1  0
  9 10  1  0
  9 11  1  0
 11 12  1  0
 12 13  1  0
 13 14  2  0
 13 15  1  0
 15 16  1  0
 16 17  2  0
 17 18  1  0
 18 19  2  0
 19 20  1  0
 20 21  2  0
 21 22  1  0
 22 23  2  0
 23 24  1  0
 24 25  2  0
 19 26  1  0
 26 27  2  0
  2 28  1  0
 28 29  2  0
 29 30  1  0
 30 31  2  0
 31 32  1  0
 32 33  2  0
 33 34  1  0
 33 35  1  0
 35 36  2  0
 36 37  1  0
 37 38  2  0
 12  7  1  0
 27 16  1  0
 38 28  1  0
 25 20  1  0
 37 31  1  0
  3 39  1  0
  4 40  1  0
  4 41  1  0
  8 42  1  0
  8 43  1  0
  9 44  1  6
 10 45  1  0
 11 46  1  0
 11 47  1  0
 12 48  1  1
 15 49  1  0
 17 50  1  0
 18 51  1  0
 21 52  1  0
 22 53  1  0
 23 54  1  0
 24 55  1  0
 25 56  1  0
 26 57  1  0
 27 58  1  0
 29 59  1  0
 30 60  1  0
 32 61  1  0
 35 62  1  0
 36 63  1  0
M  END
>  <smiles>  (42) 
O=C(NCC(=O)N1C[C@H](O)C[C@H]1C(=O)Nc1ccc(-c2ccccc2)cc1)c1ccc2cc(F)ccc2n1

>  <score_type>  (42) 
oracle

>  <origin>  (42) 
autodockgpu

>  <m_score__min__energy>  (42) 
-9.8499999999999996

>  <m_primary>  (42) 
energy

>  <rmsd>  (42) 
3.4508227200852573

>  <m_score__min__rmsd>  (42) 
3.4508227200852573

>  <meeko>  (42) 
{"free_energy": -9.31, "intermolecular_energy": -11.69, "internal_energy": -2.61, "cluster_size": 26, "cluster_id": 1, "rank_in_cluster": 12}

>  <energy>  (42) 
-8.58

>  <cluster_rmsd>  (42) 
0.48

>  <cluster>  (42) 
3

$$$$

     RDKit          3D

 63 67  0  0  0  0  0  0  0  0999 V2000
  139.8530   73.5690  222.4160 O   0  0  0  0  0  0  0  0  0  0  0  0
  140.3620   72.4200  222.3880 C   0  0  0  0  0  0  0  0  0  0  0  0
  141.0720   71.9080  221.2580 N   0  0  0  0  0  0  0  0  0  0  0  0
  141.2370   72.7470  220.0430 C   0  0  0  0  0  0  0  0  0  0  0  0
  142.4370   73.5580  220.1420 C   0  0  0  0  0  0  0  0  0  0  0  0
  143.1540   73.3470  221.2110 O   0  0  0  0  0  0  0  0  0  0  0  0
  142.9630   74.5310  219.2880 N   0  0  0  0  0  0  0  0  0  0  0  0
  144.0540   74.1100  218.3290 C   0  0  0  0  0  0  0  0  0  0  0  0
  143.6640   74.8770  217.0680 C   0  0  2  0  0  0  0  0  0  0  0  0
  144.7910   75.5490  216.6090 O   0  0  0  0  0  0  0  0  0  0  0  0
  142.5690   75.8470  217.4760 C   0  0  0  0  0  0  0  0  0  0  0  0
  142.8140   75.9040  218.9860 C   0  0  1  0  0  0  0  0  0  0  0  0
  141.8460   76.7290  219.6710 C   0  0  0  0  0  0  0  0  0  0  0  0
  141.1630   77.6730  219.2480 O   0  0  0  0  0  0  0  0  0  0  0  0
  141.6240   76.4180  221.0780 N   0  0  0  0  0  0  0  0  0  0  0  0
  140.6650   77.2330  221.7600 C   0  0  0  0  0  0  0  0  0  0  0  0
  139.3690   76.8000  221.9560 C   0  0  0  0  0  0  0  0  0  0  0  0
  138.4600   77.6240  222.6250 C   0  0  0  0  0  0  0  0  0  0  0  0
  138.8670   78.8770  223.0930 C   0  0  0  0  0  0  0  0  0  0  0  0
  137.9500   79.7680  223.7970 C   0  0  0  0  0  0  0  0  0  0  0  0
  136.5640   79.6130  223.6780 C   0  0  0  0  0  0  0  0  0  0  0  0
  135.7310   80.4560  224.3440 C   0  0  0  0  0  0  0  0  0  0  0  0
  136.1890   81.4930  225.1620 C   0  0  0  0  0  0  0  0  0  0  0  0
  137.5540   81.6450  225.2810 C   0  0  0  0  0  0  0  0  0  0  0  0
  138.4280   80.7990  224.6110 C   0  0  0  0  0  0  0  0  0  0  0  0
  140.1640   79.3010  222.8930 C   0  0  0  0  0  0  0  0  0  0  0  0
  141.0450   78.4710  222.2290 C   0  0  0  0  0  0  0  0  0  0  0  0
  140.2270   71.5530  223.5620 C   0  0  0  0  0  0  0  0  0  0  0  0
  139.5920   70.3270  223.4560 C   0  0  0  0  0  0  0  0  0  0  0  0
  139.4310   69.4660  224.5160 C   0  0  0  0  0  0  0  0  0  0  0  0
  139.9400   69.8700  225.7410 C   0  0  0  0  0  0  0  0  0  0  0  0
  139.7720   68.9980  226.7940 C   0  0  0  0  0  0  0  0  0  0  0  0
  140.2610   69.3590  228.0210 C   0  0  0  0  0  0  0  0  0  0  0  0
  140.1160   68.5200  229.0970 F   0  0  0  0  0  0  0  0  0  0  0  0
  140.8940   70.5680  228.1510 C   0  0  0  0  0  0  0  0  0  0  0  0
  141.0680   71.4540  227.0940 C   0  0  0  0  0  0  0  0  0  0  0  0
  140.5750   71.0860  225.8600 C   0  0  0  0  0  0  0  0  0  0  0  0
  140.6980   71.8880  224.7730 N   0  0  0  0  0  0  0  0  0  0  0  0
  141.4630   70.9470  221.3150 H   0  0  0  0  0  0  0  0  0  0  0  0
  141.3132   72.0946  219.1606 H   0  0  0  0  0  0  0  0  0  0  0  0
  140.3658   73.4121  219.9500 H   0  0  0  0  0  0  0  0  0  0  0  0
  145.0471   74.4127  218.6924 H   0  0  0  0  0  0  0  0  0  0  0  0
  144.1303   73.0220  218.1864 H   0  0  0  0  0  0  0  0  0  0  0  0
  143.2999   74.2234  216.2616 H   0  0  0  0  0  0  0  0  0  0  0  0
  145.6160   75.2700  217.0780 H   0  0  0  0  0  0  0  0  0  0  0  0
  142.6993   76.8319  217.0038 H   0  0  0  0  0  0  0  0  0  0  0  0
  141.5519   75.5479  217.1825 H   0  0  0  0  0  0  0  0  0  0  0  0
  143.7021   76.4400  219.3519 H   0  0  0  0  0  0  0  0  0  0  0  0
  142.1450   75.6420  221.5420 H   0  0  0  0  0  0  0  0  0  0  0  0
  139.0538   75.8125  221.5879 H   0  0  0  0  0  0  0  0  0  0  0  0
  137.4249   77.2870  222.7833 H   0  0  0  0  0  0  0  0  0  0  0  0
  136.1503   78.8119  223.0478 H   0  0  0  0  0  0  0  0  0  0  0  0
  134.6456   80.3155  224.2341 H   0  0  0  0  0  0  0  0  0  0  0  0
  135.4899   82.1594  225.6884 H   0  0  0  0  0  0  0  0  0  0  0  0
  137.9567   82.4480  225.9159 H   0  0  0  0  0  0  0  0  0  0  0  0
  139.5129   80.9424  224.7225 H   0  0  0  0  0  0  0  0  0  0  0  0
  140.4917   80.2859  223.2571 H   0  0  0  0  0  0  0  0  0  0  0  0
  142.0800   78.8080  222.0700 H   0  0  0  0  0  0  0  0  0  0  0  0
  139.1965   70.0268  222.4745 H   0  0  0  0  0  0  0  0  0  0  0  0
  138.9206   68.4988  224.3974 H   0  0  0  0  0  0  0  0  0  0  0  0
  139.2579   68.0358  226.6528 H   0  0  0  0  0  0  0  0  0  0  0  0
  141.2833   70.8509  229.1401 H   0  0  0  0  0  0  0  0  0  0  0  0
  141.5816   72.4161  227.2372 H   0  0  0  0  0  0  0  0  0  0  0  0
  1  2  2  0
  2  3  1  0
  3  4  1  0
  4  5  1  0
  5  6  2  0
  5  7  1  0
  7  8  1  0
  8  9  1  0
  9 10  1  0
  9 11  1  0
 11 12  1  0
 12 13  1  0
 13 14  2  0
 13 15  1  0
 15 16  1  0
 16 17  2  0
 17 18  1  0
 18 19  2  0
 19 20  1  0
 20 21  2  0
 21 22  1  0
 22 23  2  0
 23 24  1  0
 24 25  2  0
 19 26  1  0
 26 27  2  0
  2 28  1  0
 28 29  2  0
 29 30  1  0
 30 31  2  0
 31 32  1  0
 32 33  2  0
 33 34  1  0
 33 35  1  0
 35 36  2  0
 36 37  1  0
 37 38  2  0
 12  7  1  0
 27 16  1  0
 38 28  1  0
 25 20  1  0
 37 31  1  0
  3 39  1  0
  4 40  1  0
  4 41  1  0
  8 42  1  0
  8 43  1  0
  9 44  1  6
 10 45  1  0
 11 46  1  0
 11 47  1  0
 12 48  1  6
 15 49  1  0
 17 50  1  0
 18 51  1  0
 21 52  1  0
 22 53  1  0
 23 54  1  0
 24 55  1  0
 25 56  1  0
 26 57  1  0
 27 58  1  0
 29 59  1  0
 30 60  1  0
 32 61  1  0
 35 62  1  0
 36 63  1  0
M  END
>  <smiles>  (43) 
O=C(NCC(=O)N1C[C@H](O)C[C@H]1C(=O)Nc1ccc(-c2ccccc2)cc1)c1ccc2cc(F)ccc2n1

>  <score_type>  (43) 
oracle

>  <origin>  (43) 
autodockgpu

>  <m_score__min__energy>  (43) 
-9.8499999999999996

>  <m_primary>  (43) 
energy

>  <rmsd>  (43) 
3.0388870247706348

>  <m_score__min__rmsd>  (43) 
3.0388870247706348

>  <meeko>  (43) 
{"free_energy": -9.66, "intermolecular_energy": -12.04, "internal_energy": -2.32, "cluster_size": 26, "cluster_id": 1, "rank_in_cluster": 3}

>  <energy>  (43) 
-8.26

>  <cluster_rmsd>  (43) 
1.02

>  <cluster>  (43) 
3

$$$$

     RDKit          3D

 63 67  0  0  0  0  0  0  0  0999 V2000
  138.7380   72.7290  221.8260 O   0  0  0  0  0  0  0  0  0  0  0  0
  139.8540   72.3670  222.2770 C   0  0  0  0  0  0  0  0  0  0  0  0
  141.0980   72.7660  221.6960 N   0  0  0  0  0  0  0  0  0  0  0  0
  141.1090   73.6520  220.5030 C   0  0  0  0  0  0  0  0  0  0  0  0
  142.4300   74.2180  220.3020 C   0  0  0  0  0  0  0  0  0  0  0  0
  143.3170   73.8720  221.1930 O   0  0  0  0  0  0  0  0  0  0  0  0
  142.9230   75.0750  219.3130 N   0  0  0  0  0  0  0  0  0  0  0  0
  143.8780   74.4970  218.2930 C   0  0  0  0  0  0  0  0  0  0  0  0
  143.4050   75.1790  217.0120 C   0  0  2  0  0  0  0  0  0  0  0  0
  144.5170   75.7270  216.3830 O   0  0  0  0  0  0  0  0  0  0  0  0
  142.4230   76.2570  217.4360 C   0  0  0  0  0  0  0  0  0  0  0  0
  142.8300   76.4240  218.9020 C   0  0  1  0  0  0  0  0  0  0  0  0
  141.9930   77.3720  219.6030 C   0  0  0  0  0  0  0  0  0  0  0  0
  141.3910   78.3680  219.1770 O   0  0  0  0  0  0  0  0  0  0  0  0
  141.8190   77.1360  221.0310 N   0  0  0  0  0  0  0  0  0  0  0  0
  140.9900   78.0740  221.7280 C   0  0  0  0  0  0  0  0  0  0  0  0
  141.5260   79.1990  222.3210 C   0  0  0  0  0  0  0  0  0  0  0  0
  140.6850   80.0900  222.9930 C   0  0  0  0  0  0  0  0  0  0  0  0
  139.3110   79.8400  223.0590 C   0  0  0  0  0  0  0  0  0  0  0  0
  138.3990   80.7460  223.7500 C   0  0  0  0  0  0  0  0  0  0  0  0
  138.0610   80.5390  225.0930 C   0  0  0  0  0  0  0  0  0  0  0  0
  137.2090   81.3960  225.7140 C   0  0  0  0  0  0  0  0  0  0  0  0
  136.6360   82.5000  225.0750 C   0  0  0  0  0  0  0  0  0  0  0  0
  136.9710   82.7050  223.7530 C   0  0  0  0  0  0  0  0  0  0  0  0
  137.8370   81.8450  223.0940 C   0  0  0  0  0  0  0  0  0  0  0  0
  138.7850   78.7130  222.4630 C   0  0  0  0  0  0  0  0  0  0  0  0
  139.6340   77.8460  221.8040 C   0  0  0  0  0  0  0  0  0  0  0  0
  139.8970   71.4930  223.4520 C   0  0  0  0  0  0  0  0  0  0  0  0
  139.3470   70.2230  223.4010 C   0  0  0  0  0  0  0  0  0  0  0  0
  139.3530   69.3530  224.4650 C   0  0  0  0  0  0  0  0  0  0  0  0
  139.9470   69.7940  225.6380 C   0  0  0  0  0  0  0  0  0  0  0  0
  139.9460   68.9130  226.6960 C   0  0  0  0  0  0  0  0  0  0  0  0
  140.5230   69.3100  227.8730 C   0  0  0  0  0  0  0  0  0  0  0  0
  140.5440   68.4630  228.9520 F   0  0  0  0  0  0  0  0  0  0  0  0
  141.0750   70.5620  227.9490 C   0  0  0  0  0  0  0  0  0  0  0  0
  141.0800   71.4580  226.8870 C   0  0  0  0  0  0  0  0  0  0  0  0
  140.4990   71.0540  225.7040 C   0  0  0  0  0  0  0  0  0  0  0  0
  140.4570   71.8620  224.6150 N   0  0  0  0  0  0  0  0  0  0  0  0
  141.9780   72.4230  222.1300 H   0  0  0  0  0  0  0  0  0  0  0  0
  140.8270   73.0670  219.6152 H   0  0  0  0  0  0  0  0  0  0  0  0
  140.3917   74.4707  220.6615 H   0  0  0  0  0  0  0  0  0  0  0  0
  144.9209   74.7583  218.5257 H   0  0  0  0  0  0  0  0  0  0  0  0
  143.8712   73.3981  218.2447 H   0  0  0  0  0  0  0  0  0  0  0  0
  142.9170   74.4865  216.3103 H   0  0  0  0  0  0  0  0  0  0  0  0
  145.2990   75.7920  216.9840 H   0  0  0  0  0  0  0  0  0  0  0  0
  142.5646   77.1861  216.8645 H   0  0  0  0  0  0  0  0  0  0  0  0
  141.3636   76.0089  217.2742 H   0  0  0  0  0  0  0  0  0  0  0  0
  143.7842   76.9237  219.1251 H   0  0  0  0  0  0  0  0  0  0  0  0
  142.2800   76.3260  221.4990 H   0  0  0  0  0  0  0  0  0  0  0  0
  142.6073   79.3929  222.2651 H   0  0  0  0  0  0  0  0  0  0  0  0
  141.1041   80.9882  223.4701 H   0  0  0  0  0  0  0  0  0  0  0  0
  138.4838   79.6855  225.6433 H   0  0  0  0  0  0  0  0  0  0  0  0
  136.9581   81.2128  226.7692 H   0  0  0  0  0  0  0  0  0  0  0  0
  135.9478   83.1757  225.6039 H   0  0  0  0  0  0  0  0  0  0  0  0
  136.5450   83.5635  223.2131 H   0  0  0  0  0  0  0  0  0  0  0  0
  138.0854   82.0307  222.0386 H   0  0  0  0  0  0  0  0  0  0  0  0
  137.7054   78.5079  222.5118 H   0  0  0  0  0  0  0  0  0  0  0  0
  139.2154   76.9479  221.3263 H   0  0  0  0  0  0  0  0  0  0  0  0
  138.8813   69.8936  222.4604 H   0  0  0  0  0  0  0  0  0  0  0  0
  138.9062   68.3507  224.3894 H   0  0  0  0  0  0  0  0  0  0  0  0
  139.4931   67.9153  226.5985 H   0  0  0  0  0  0  0  0  0  0  0  0
  141.5369   70.8730  228.8976 H   0  0  0  0  0  0  0  0  0  0  0  0
  141.5322   72.4558  226.9868 H   0  0  0  0  0  0  0  0  0  0  0  0
  1  2  2  0
  2  3  1  0
  3  4  1  0
  4  5  1  0
  5  6  2  0
  5  7  1  0
  7  8  1  0
  8  9  1  0
  9 10  1  0
  9 11  1  0
 11 12  1  0
 12 13  1  0
 13 14  2  0
 13 15  1  0
 15 16  1  0
 16 17  2  0
 17 18  1  0
 18 19  2  0
 19 20  1  0
 20 21  2  0
 21 22  1  0
 22 23  2  0
 23 24  1  0
 24 25  2  0
 19 26  1  0
 26 27  2  0
  2 28  1  0
 28 29  2  0
 29 30  1  0
 30 31  2  0
 31 32  1  0
 32 33  2  0
 33 34  1  0
 33 35  1  0
 35 36  2  0
 36 37  1  0
 37 38  2  0
 12  7  1  0
 27 16  1  0
 38 28  1  0
 25 20  1  0
 37 31  1  0
  3 39  1  0
  4 40  1  0
  4 41  1  0
  8 42  1  0
  8 43  1  0
  9 44  1  6
 10 45  1  0
 11 46  1  0
 11 47  1  0
 12 48  1  6
 15 49  1  0
 17 50  1  0
 18 51  1  0
 21 52  1  0
 22 53  1  0
 23 54  1  0
 24 55  1  0
 25 56  1  0
 26 57  1  0
 27 58  1  0
 29 59  1  0
 30 60  1  0
 32 61  1  0
 35 62  1  0
 36 63  1  0
M  END
>  <smiles>  (44) 
O=C(NCC(=O)N1C[C@H](O)C[C@H]1C(=O)Nc1ccc(-c2ccccc2)cc1)c1ccc2cc(F)ccc2n1

>  <score_type>  (44) 
oracle

>  <origin>  (44) 
autodockgpu

>  <m_score__min__energy>  (44) 
-9.8499999999999996

>  <m_primary>  (44) 
energy

>  <rmsd>  (44) 
2.7611654759951714

>  <m_score__min__rmsd>  (44) 
2.7611654759951714

>  <meeko>  (44) 
{"free_energy": -9.26, "intermolecular_energy": -11.64, "internal_energy": -2.53, "cluster_size": 26, "cluster_id": 1, "rank_in_cluster": 13}

>  <energy>  (44) 
-8.09

>  <cluster_rmsd>  (44) 
1.33

>  <cluster>  (44) 
3

$$$$

     RDKit          3D

 63 67  0  0  0  0  0  0  0  0999 V2000
  139.6180   70.9010  220.9410 O   0  0  0  0  0  0  0  0  0  0  0  0
  140.1290   71.4310  221.9600 C   0  0  0  0  0  0  0  0  0  0  0  0
  140.8390   72.6700  221.9240 N   0  0  0  0  0  0  0  0  0  0  0  0
  141.0010   73.3950  220.6360 C   0  0  0  0  0  0  0  0  0  0  0  0
  141.5230   74.7300  220.8660 C   0  0  0  0  0  0  0  0  0  0  0  0
  141.4470   75.1440  222.1000 O   0  0  0  0  0  0  0  0  0  0  0  0
  142.0980   75.6560  219.9910 N   0  0  0  0  0  0  0  0  0  0  0  0
  143.1560   75.1570  219.0320 C   0  0  0  0  0  0  0  0  0  0  0  0
  142.8010   75.9210  217.7600 C   0  0  2  0  0  0  0  0  0  0  0  0
  143.9610   76.5200  217.2820 O   0  0  0  0  0  0  0  0  0  0  0  0
  141.7660   76.9600  218.1570 C   0  0  0  0  0  0  0  0  0  0  0  0
  142.0250   77.0290  219.6640 C   0  0  1  0  0  0  0  0  0  0  0  0
  141.1110   77.9200  220.3410 C   0  0  0  0  0  0  0  0  0  0  0  0
  140.2960   78.7300  219.8740 O   0  0  0  0  0  0  0  0  0  0  0  0
  141.1350   77.8740  221.7980 N   0  0  0  0  0  0  0  0  0  0  0  0
  140.2290   78.7560  222.4710 C   0  0  0  0  0  0  0  0  0  0  0  0
  138.9020   78.4200  222.6460 C   0  0  0  0  0  0  0  0  0  0  0  0
  138.0480   79.3050  223.3080 C   0  0  0  0  0  0  0  0  0  0  0  0
  138.5390   80.5230  223.7890 C   0  0  0  0  0  0  0  0  0  0  0  0
  137.6820   81.4760  224.4850 C   0  0  0  0  0  0  0  0  0  0  0  0
  137.1870   82.6090  223.8300 C   0  0  0  0  0  0  0  0  0  0  0  0
  136.3900   83.4820  224.5010 C   0  0  0  0  0  0  0  0  0  0  0  0
  136.0260   83.3100  225.8400 C   0  0  0  0  0  0  0  0  0  0  0  0
  136.5120   82.1920  226.4850 C   0  0  0  0  0  0  0  0  0  0  0  0
  137.3290   81.2850  225.8250 C   0  0  0  0  0  0  0  0  0  0  0  0
  139.8670   80.8500  223.6090 C   0  0  0  0  0  0  0  0  0  0  0  0
  140.6940   79.9590  222.9520 C   0  0  0  0  0  0  0  0  0  0  0  0
  139.9970   70.7550  223.2540 C   0  0  0  0  0  0  0  0  0  0  0  0
  139.3070   69.5590  223.3520 C   0  0  0  0  0  0  0  0  0  0  0  0
  139.1470   68.8730  224.5330 C   0  0  0  0  0  0  0  0  0  0  0  0
  139.7140   69.4300  225.6680 C   0  0  0  0  0  0  0  0  0  0  0  0
  139.5460   68.7330  226.8450 C   0  0  0  0  0  0  0  0  0  0  0  0
  140.0920   69.2500  227.9890 C   0  0  0  0  0  0  0  0  0  0  0  0
  139.9480   68.5880  229.1820 F   0  0  0  0  0  0  0  0  0  0  0  0
  140.7800   70.4330  227.9190 C   0  0  0  0  0  0  0  0  0  0  0  0
  140.9550   71.1430  226.7370 C   0  0  0  0  0  0  0  0  0  0  0  0
  140.4040   70.6200  225.5860 C   0  0  0  0  0  0  0  0  0  0  0  0
  140.5240   71.2440  224.3880 N   0  0  0  0  0  0  0  0  0  0  0  0
  141.2310   73.0400  222.8120 H   0  0  0  0  0  0  0  0  0  0  0  0
  141.6993   72.8391  219.9931 H   0  0  0  0  0  0  0  0  0  0  0  0
  140.0187   73.4764  220.1477 H   0  0  0  0  0  0  0  0  0  0  0  0
  144.1674   75.4096  219.3830 H   0  0  0  0  0  0  0  0  0  0  0  0
  143.1691   74.0640  218.9089 H   0  0  0  0  0  0  0  0  0  0  0  0
  142.3945   75.2742  216.9686 H   0  0  0  0  0  0  0  0  0  0  0  0
  144.7730   75.9990  217.4990 H   0  0  0  0  0  0  0  0  0  0  0  0
  141.9493   77.9273  217.6664 H   0  0  0  0  0  0  0  0  0  0  0  0
  140.7313   76.7152  217.8750 H   0  0  0  0  0  0  0  0  0  0  0  0
  142.9454   77.5197  220.0132 H   0  0  0  0  0  0  0  0  0  0  0  0
  141.7820   77.2290  222.3010 H   0  0  0  0  0  0  0  0  0  0  0  0
  138.5192   77.4611  222.2665 H   0  0  0  0  0  0  0  0  0  0  0  0
  136.9890   79.0440  223.4511 H   0  0  0  0  0  0  0  0  0  0  0  0
  137.4419   82.7926  222.7758 H   0  0  0  0  0  0  0  0  0  0  0  0
  136.0135   84.3658  223.9652 H   0  0  0  0  0  0  0  0  0  0  0  0
  135.3799   84.0350  226.3566 H   0  0  0  0  0  0  0  0  0  0  0  0
  136.2480   82.0166  227.5384 H   0  0  0  0  0  0  0  0  0  0  0  0
  137.7047   80.4026  226.3637 H   0  0  0  0  0  0  0  0  0  0  0  0
  140.2619   81.8061  223.9830 H   0  0  0  0  0  0  0  0  0  0  0  0
  141.7534   80.2183  222.8094 H   0  0  0  0  0  0  0  0  0  0  0  0
  138.8640   69.1357  222.4385 H   0  0  0  0  0  0  0  0  0  0  0  0
  138.5931   67.9236  224.5749 H   0  0  0  0  0  0  0  0  0  0  0  0
  138.9875   67.7855  226.8647 H   0  0  0  0  0  0  0  0  0  0  0  0
  141.2150   70.8406  228.8434 H   0  0  0  0  0  0  0  0  0  0  0  0
  141.5141   72.0901  226.7202 H   0  0  0  0  0  0  0  0  0  0  0  0
  1  2  2  0
  2  3  1  0
  3  4  1  0
  4  5  1  0
  5  6  2  0
  5  7  1  0
  7  8  1  0
  8  9  1  0
  9 10  1  0
  9 11  1  0
 11 12  1  0
 12 13  1  0
 13 14  2  0
 13 15  1  0
 15 16  1  0
 16 17  2  0
 17 18  1  0
 18 19  2  0
 19 20  1  0
 20 21  2  0
 21 22  1  0
 22 23  2  0
 23 24  1  0
 24 25  2  0
 19 26  1  0
 26 27  2  0
  2 28  1  0
 28 29  2  0
 29 30  1  0
 30 31  2  0
 31 32  1  0
 32 33  2  0
 33 34  1  0
 33 35  1  0
 35 36  2  0
 36 37  1  0
 37 38  2  0
 12  7  1  0
 27 16  1  0
 38 28  1  0
 25 20  1  0
 37 31  1  0
  3 39  1  0
  4 40  1  0
  4 41  1  0
  8 42  1  0
  8 43  1  0
  9 44  1  6
 10 45  1  0
 11 46  1  0
 11 47  1  0
 12 48  1  6
 15 49  1  0
 17 50  1  0
 18 51  1  0
 21 52  1  0
 22 53  1  0
 23 54  1  0
 24 55  1  0
 25 56  1  0
 26 57  1  0
 27 58  1  0
 29 59  1  0
 30 60  1  0
 32 61  1  0
 35 62  1  0
 36 63  1  0
M  END
>  <smiles>  (45) 
O=C(NCC(=O)N1C[C@H](O)C[C@H]1C(=O)Nc1ccc(-c2ccccc2)cc1)c1ccc2cc(F)ccc2n1

>  <score_type>  (45) 
oracle

>  <origin>  (45) 
autodockgpu

>  <m_score__min__energy>  (45) 
-9.8499999999999996

>  <m_primary>  (45) 
energy

>  <rmsd>  (45) 
2.366987639908335

>  <m_score__min__rmsd>  (45) 
2.366987639908335

>  <meeko>  (45) 
{"free_energy": -9.23, "intermolecular_energy": -11.61, "internal_energy": -3.14, "cluster_size": 26, "cluster_id": 1, "rank_in_cluster": 15}

>  <energy>  (45) 
-8.34

>  <cluster_rmsd>  (45) 
0.0

>  <cluster>  (45) 
4

$$$$

     RDKit          3D

 63 67  0  0  0  0  0  0  0  0999 V2000
  140.4070   73.0080  222.6870 O   0  0  0  0  0  0  0  0  0  0  0  0
  140.2030   71.7740  222.8120 C   0  0  0  0  0  0  0  0  0  0  0  0
  139.8710   70.9220  221.7140 N   0  0  0  0  0  0  0  0  0  0  0  0
  139.7550   71.4880  220.3450 C   0  0  0  0  0  0  0  0  0  0  0  0
  138.4170   71.2820  219.8210 C   0  0  0  0  0  0  0  0  0  0  0  0
  138.3580   70.5620  218.7360 O   0  0  0  0  0  0  0  0  0  0  0  0
  137.1720   71.7230  220.2790 N   0  0  0  0  0  0  0  0  0  0  0  0
  136.0410   70.7200  220.3190 C   0  0  0  0  0  0  0  0  0  0  0  0
  135.3550   71.0870  221.6320 C   0  0  2  0  0  0  0  0  0  0  0  0
  133.9950   71.2270  221.3800 O   0  0  0  0  0  0  0  0  0  0  0  0
  135.9710   72.3990  222.0880 C   0  0  0  0  0  0  0  0  0  0  0  0
  136.5470   72.8960  220.7590 C   0  0  1  0  0  0  0  0  0  0  0  0
  137.2740   74.1360  220.9030 C   0  0  0  0  0  0  0  0  0  0  0  0
  137.2540   75.1570  220.2000 O   0  0  0  0  0  0  0  0  0  0  0  0
  138.1750   74.2190  222.0460 N   0  0  0  0  0  0  0  0  0  0  0  0
  138.8970   75.4480  222.1920 C   0  0  0  0  0  0  0  0  0  0  0  0
  140.2150   75.5540  221.7950 C   0  0  0  0  0  0  0  0  0  0  0  0
  140.8870   76.7680  221.9540 C   0  0  0  0  0  0  0  0  0  0  0  0
  140.2230   77.8670  222.5100 C   0  0  0  0  0  0  0  0  0  0  0  0
  140.8880   79.1530  222.6930 C   0  0  0  0  0  0  0  0  0  0  0  0
  140.3350   80.3280  222.1700 C   0  0  0  0  0  0  0  0  0  0  0  0
  140.9740   81.5130  222.3530 C   0  0  0  0  0  0  0  0  0  0  0  0
  142.1790   81.6310  223.0520 C   0  0  0  0  0  0  0  0  0  0  0  0
  142.7230   80.4740  223.5690 C   0  0  0  0  0  0  0  0  0  0  0  0
  142.0930   79.2500  223.3950 C   0  0  0  0  0  0  0  0  0  0  0  0
  138.9060   77.7500  222.9030 C   0  0  0  0  0  0  0  0  0  0  0  0
  138.2620   76.5410  222.7370 C   0  0  0  0  0  0  0  0  0  0  0  0
  140.3050   71.1670  224.1420 C   0  0  0  0  0  0  0  0  0  0  0  0
  140.8180   71.8920  225.2050 C   0  0  0  0  0  0  0  0  0  0  0  0
  140.9410   71.3850  226.4770 C   0  0  0  0  0  0  0  0  0  0  0  0
  140.5230   70.0780  226.6780 C   0  0  0  0  0  0  0  0  0  0  0  0
  140.6520   69.5820  227.9570 C   0  0  0  0  0  0  0  0  0  0  0  0
  140.2500   68.2950  228.1980 C   0  0  0  0  0  0  0  0  0  0  0  0
  140.3610   67.7620  229.4570 F   0  0  0  0  0  0  0  0  0  0  0  0
  139.7390   67.5570  227.1630 C   0  0  0  0  0  0  0  0  0  0  0  0
  139.6050   68.0490  225.8700 C   0  0  0  0  0  0  0  0  0  0  0  0
  140.0100   69.3450  225.6310 C   0  0  0  0  0  0  0  0  0  0  0  0
  139.9170   69.9080  224.4010 N   0  0  0  0  0  0  0  0  0  0  0  0
  139.7180   69.9110  221.9020 H   0  0  0  0  0  0  0  0  0  0  0  0
  139.9679   72.5666  220.3801 H   0  0  0  0  0  0  0  0  0  0  0  0
  140.4763   70.9801  219.6879 H   0  0  0  0  0  0  0  0  0  0  0  0
  135.3624   70.8453  219.4624 H   0  0  0  0  0  0  0  0  0  0  0  0
  136.3691   69.6716  220.2622 H   0  0  0  0  0  0  0  0  0  0  0  0
  135.4851   70.3241  222.4137 H   0  0  0  0  0  0  0  0  0  0  0  0
  133.7380   72.1640  221.1970 H   0  0  0  0  0  0  0  0  0  0  0  0
  135.2134   73.0887  222.4883 H   0  0  0  0  0  0  0  0  0  0  0  0
  136.7013   72.3094  222.9057 H   0  0  0  0  0  0  0  0  0  0  0  0
  135.8494   73.2589  219.9898 H   0  0  0  0  0  0  0  0  0  0  0  0
  138.2740   73.4180  222.7070 H   0  0  0  0  0  0  0  0  0  0  0  0
  140.7324   74.6881  221.3564 H   0  0  0  0  0  0  0  0  0  0  0  0
  141.9379   76.8601  221.6422 H   0  0  0  0  0  0  0  0  0  0  0  0
  139.3870   80.2920  221.6132 H   0  0  0  0  0  0  0  0  0  0  0  0
  140.5218   82.4227  221.9312 H   0  0  0  0  0  0  0  0  0  0  0  0
  142.6722   82.6053  223.1840 H   0  0  0  0  0  0  0  0  0  0  0  0
  143.6697   80.5221  224.1272 H   0  0  0  0  0  0  0  0  0  0  0  0
  142.5489   78.3418  223.8161 H   0  0  0  0  0  0  0  0  0  0  0  0
  138.3767   78.6083  223.3425 H   0  0  0  0  0  0  0  0  0  0  0  0
  137.2113   76.4480  223.0490 H   0  0  0  0  0  0  0  0  0  0  0  0
  141.1437   72.9266  225.0220 H   0  0  0  0  0  0  0  0  0  0  0  0
  141.3527   71.9892  227.2989 H   0  0  0  0  0  0  0  0  0  0  0  0
  141.0672   70.2037  228.7639 H   0  0  0  0  0  0  0  0  0  0  0  0
  139.4190   66.5242  227.3653 H   0  0  0  0  0  0  0  0  0  0  0  0
  139.1898   67.4254  225.0646 H   0  0  0  0  0  0  0  0  0  0  0  0
  1  2  2  0
  2  3  1  0
  3  4  1  0
  4  5  1  0
  5  6  2  0
  5  7  1  0
  7  8  1  0
  8  9  1  0
  9 10  1  0
  9 11  1  0
 11 12  1  0
 12 13  1  0
 13 14  2  0
 13 15  1  0
 15 16  1  0
 16 17  2  0
 17 18  1  0
 18 19  2  0
 19 20  1  0
 20 21  2  0
 21 22  1  0
 22 23  2  0
 23 24  1  0
 24 25  2  0
 19 26  1  0
 26 27  2  0
  2 28  1  0
 28 29  2  0
 29 30  1  0
 30 31  2  0
 31 32  1  0
 32 33  2  0
 33 34  1  0
 33 35  1  0
 35 36  2  0
 36 37  1  0
 37 38  2  0
 12  7  1  0
 27 16  1  0
 38 28  1  0
 25 20  1  0
 37 31  1  0
  3 39  1  0
  4 40  1  0
  4 41  1  0
  8 42  1  0
  8 43  1  0
  9 44  1  1
 10 45  1  0
 11 46  1  0
 11 47  1  0
 12 48  1  6
 15 49  1  0
 17 50  1  0
 18 51  1  0
 21 52  1  0
 22 53  1  0
 23 54  1  0
 24 55  1  0
 25 56  1  0
 26 57  1  0
 27 58  1  0
 29 59  1  0
 30 60  1  0
 32 61  1  0
 35 62  1  0
 36 63  1  0
M  END
>  <smiles>  (46) 
O=C(NCC(=O)N1C[C@H](O)C[C@H]1C(=O)Nc1ccc(-c2ccccc2)cc1)c1ccc2cc(F)ccc2n1

>  <score_type>  (46) 
oracle

>  <origin>  (46) 
autodockgpu

>  <m_score__min__energy>  (46) 
-9.8499999999999996

>  <m_primary>  (46) 
energy

>  <rmsd>  (46) 
4.803161514312959

>  <m_score__min__rmsd>  (46) 
4.803161514312959

>  <meeko>  (46) 
{"free_energy": -8.89, "intermolecular_energy": -11.28, "internal_energy": -3.02, "cluster_size": 11, "cluster_id": 3, "rank_in_cluster": 1}

>  <energy>  (46) 
-7.79

>  <cluster_rmsd>  (46) 
0.0

>  <cluster>  (46) 
5

$$$$

     RDKit          3D

 63 67  0  0  0  0  0  0  0  0999 V2000
  139.6020   70.7950  221.0810 O   0  0  0  0  0  0  0  0  0  0  0  0
  140.1150   71.3350  222.0930 C   0  0  0  0  0  0  0  0  0  0  0  0
  140.7890   72.5940  222.0490 N   0  0  0  0  0  0  0  0  0  0  0  0
  140.9070   73.3280  220.7610 C   0  0  0  0  0  0  0  0  0  0  0  0
  141.3850   74.6800  220.9870 C   0  0  0  0  0  0  0  0  0  0  0  0
  141.1520   75.1510  222.1810 O   0  0  0  0  0  0  0  0  0  0  0  0
  142.0560   75.5720  220.1450 N   0  0  0  0  0  0  0  0  0  0  0  0
  143.1000   75.0050  219.2090 C   0  0  0  0  0  0  0  0  0  0  0  0
  142.8440   75.8150  217.9410 C   0  0  2  0  0  0  0  0  0  0  0  0
  144.0600   76.3280  217.5070 O   0  0  0  0  0  0  0  0  0  0  0  0
  141.8810   76.9250  218.3260 C   0  0  0  0  0  0  0  0  0  0  0  0
  142.1000   76.9510  219.8410 C   0  0  1  0  0  0  0  0  0  0  0  0
  141.2380   77.9000  220.5070 C   0  0  0  0  0  0  0  0  0  0  0  0
  140.4870   78.7640  220.0310 O   0  0  0  0  0  0  0  0  0  0  0  0
  141.2370   77.8500  221.9640 N   0  0  0  0  0  0  0  0  0  0  0  0
  140.3830   78.7890  222.6270 C   0  0  0  0  0  0  0  0  0  0  0  0
  140.8810   79.9710  223.1380 C   0  0  0  0  0  0  0  0  0  0  0  0
  140.0170   80.8620  223.7790 C   0  0  0  0  0  0  0  0  0  0  0  0
  138.6580   80.5560  223.8980 C   0  0  0  0  0  0  0  0  0  0  0  0
  137.7220   81.4590  224.5590 C   0  0  0  0  0  0  0  0  0  0  0  0
  137.3380   81.2490  225.8890 C   0  0  0  0  0  0  0  0  0  0  0  0
  136.4640   82.1040  226.4820 C   0  0  0  0  0  0  0  0  0  0  0  0
  135.9140   83.2100  225.8260 C   0  0  0  0  0  0  0  0  0  0  0  0
  136.2940   83.4190  224.5170 C   0  0  0  0  0  0  0  0  0  0  0  0
  137.1830   82.5600  223.8860 C   0  0  0  0  0  0  0  0  0  0  0  0
  138.1700   79.3720  223.3840 C   0  0  0  0  0  0  0  0  0  0  0  0
  139.0420   78.5060  222.7540 C   0  0  0  0  0  0  0  0  0  0  0  0
  140.0270   70.6520  223.3870 C   0  0  0  0  0  0  0  0  0  0  0  0
  139.3510   69.4490  223.4980 C   0  0  0  0  0  0  0  0  0  0  0  0
  139.2300   68.7560  224.6790 C   0  0  0  0  0  0  0  0  0  0  0  0
  139.8240   69.3130  225.8010 C   0  0  0  0  0  0  0  0  0  0  0  0
  139.6960   68.6080  226.9780 C   0  0  0  0  0  0  0  0  0  0  0  0
  140.2690   69.1250  228.1100 C   0  0  0  0  0  0  0  0  0  0  0  0
  140.1650   68.4550  229.3030 F   0  0  0  0  0  0  0  0  0  0  0  0
  140.9430   70.3140  228.0260 C   0  0  0  0  0  0  0  0  0  0  0  0
  141.0780   71.0320  226.8430 C   0  0  0  0  0  0  0  0  0  0  0  0
  140.5000   70.5090  225.7060 C   0  0  0  0  0  0  0  0  0  0  0  0
  140.5800   71.1400  224.5080 N   0  0  0  0  0  0  0  0  0  0  0  0
  141.1870   72.9730  222.9310 H   0  0  0  0  0  0  0  0  0  0  0  0
  141.6150   72.7986  220.1065 H   0  0  0  0  0  0  0  0  0  0  0  0
  139.9153   73.3763  220.2874 H   0  0  0  0  0  0  0  0  0  0  0  0
  144.1171   75.1712  219.5935 H   0  0  0  0  0  0  0  0  0  0  0  0
  143.0313   73.9163  219.0672 H   0  0  0  0  0  0  0  0  0  0  0  0
  142.4124   75.2145  217.1267 H   0  0  0  0  0  0  0  0  0  0  0  0
  144.7800   75.6510  217.5120 H   0  0  0  0  0  0  0  0  0  0  0  0
  142.1528   77.8824  217.8575 H   0  0  0  0  0  0  0  0  0  0  0  0
  140.8393   76.7657  218.0105 H   0  0  0  0  0  0  0  0  0  0  0  0
  143.0448   77.3630  220.2251 H   0  0  0  0  0  0  0  0  0  0  0  0
  141.8320   77.1610  222.4750 H   0  0  0  0  0  0  0  0  0  0  0  0
  141.9505   80.2094  223.0410 H   0  0  0  0  0  0  0  0  0  0  0  0
  140.4061   81.8050  224.1904 H   0  0  0  0  0  0  0  0  0  0  0  0
  137.7424   80.3949  226.4519 H   0  0  0  0  0  0  0  0  0  0  0  0
  136.1756   81.9175  227.5270 H   0  0  0  0  0  0  0  0  0  0  0  0
  135.2082   83.8846  226.3328 H   0  0  0  0  0  0  0  0  0  0  0  0
  135.8867   84.2789  223.9650 H   0  0  0  0  0  0  0  0  0  0  0  0
  137.4680   82.7481  222.8404 H   0  0  0  0  0  0  0  0  0  0  0  0
  137.1027   79.1218  223.4747 H   0  0  0  0  0  0  0  0  0  0  0  0
  138.6537   77.5629  222.3418 H   0  0  0  0  0  0  0  0  0  0  0  0
  138.8869   69.0260  222.5949 H   0  0  0  0  0  0  0  0  0  0  0  0
  138.6858   67.8015  224.7315 H   0  0  0  0  0  0  0  0  0  0  0  0
  139.1479   67.6547  227.0079 H   0  0  0  0  0  0  0  0  0  0  0  0
  141.4003   70.7213  228.9398 H   0  0  0  0  0  0  0  0  0  0  0  0
  141.6272   71.9847  226.8153 H   0  0  0  0  0  0  0  0  0  0  0  0
  1  2  2  0
  2  3  1  0
  3  4  1  0
  4  5  1  0
  5  6  2  0
  5  7  1  0
  7  8  1  0
  8  9  1  0
  9 10  1  0
  9 11  1  0
 11 12  1  0
 12 13  1  0
 13 14  2  0
 13 15  1  0
 15 16  1  0
 16 17  2  0
 17 18  1  0
 18 19  2  0
 19 20  1  0
 20 21  2  0
 21 22  1  0
 22 23  2  0
 23 24  1  0
 24 25  2  0
 19 26  1  0
 26 27  2  0
  2 28  1  0
 28 29  2  0
 29 30  1  0
 30 31  2  0
 31 32  1  0
 32 33  2  0
 33 34  1  0
 33 35  1  0
 35 36  2  0
 36 37  1  0
 37 38  2  0
 12  7  1  0
 27 16  1  0
 38 28  1  0
 25 20  1  0
 37 31  1  0
  3 39  1  0
  4 40  1  0
  4 41  1  0
  8 42  1  0
  8 43  1  0
  9 44  1  6
 10 45  1  0
 11 46  1  0
 11 47  1  0
 12 48  1  6
 15 49  1  0
 17 50  1  0
 18 51  1  0
 21 52  1  0
 22 53  1  0
 23 54  1  0
 24 55  1  0
 25 56  1  0
 26 57  1  0
 27 58  1  0
 29 59  1  0
 30 60  1  0
 32 61  1  0
 35 62  1  0
 36 63  1  0
M  END
>  <smiles>  (47) 
O=C(NCC(=O)N1C[C@H](O)C[C@H]1C(=O)Nc1ccc(-c2ccccc2)cc1)c1ccc2cc(F)ccc2n1

>  <score_type>  (47) 
oracle

>  <origin>  (47) 
autodockgpu

>  <m_score__min__energy>  (47) 
-9.8499999999999996

>  <m_primary>  (47) 
energy

>  <rmsd>  (47) 
2.5475304338188023

>  <m_score__min__rmsd>  (47) 
2.5475304338188023

>  <meeko>  (47) 
{"free_energy": -9.53, "intermolecular_energy": -11.91, "internal_energy": -3.04, "cluster_size": 26, "cluster_id": 1, "rank_in_cluster": 6}

>  <energy>  (47) 
-7.66

>  <cluster_rmsd>  (47) 
0.0

>  <cluster>  (47) 
6

$$$$

     RDKit          3D

 63 67  0  0  0  0  0  0  0  0999 V2000
  139.9540   73.5260  222.7160 O   0  0  0  0  0  0  0  0  0  0  0  0
  140.0340   72.2870  222.5230 C   0  0  0  0  0  0  0  0  0  0  0  0
  140.1310   71.7040  221.2220 N   0  0  0  0  0  0  0  0  0  0  0  0
  140.1420   72.5750  220.0170 C   0  0  0  0  0  0  0  0  0  0  0  0
  141.3770   72.4020  219.2750 C   0  0  0  0  0  0  0  0  0  0  0  0
  141.3300   71.5030  218.3320 O   0  0  0  0  0  0  0  0  0  0  0  0
  142.6180   73.0360  219.3940 N   0  0  0  0  0  0  0  0  0  0  0  0
  143.8510   72.2450  219.0180 C   0  0  0  0  0  0  0  0  0  0  0  0
  144.6840   73.3020  218.2990 C   0  0  2  0  0  0  0  0  0  0  0  0
  145.9630   73.2840  218.8430 O   0  0  0  0  0  0  0  0  0  0  0  0
  143.9960   74.6340  218.5480 C   0  0  0  0  0  0  0  0  0  0  0  0
  143.1680   74.2770  219.7850 C   0  0  1  0  0  0  0  0  0  0  0  0
  142.3320   75.3710  220.2230 C   0  0  0  0  0  0  0  0  0  0  0  0
  142.0860   76.4540  219.6730 O   0  0  0  0  0  0  0  0  0  0  0  0
  141.6670   75.1910  221.5080 N   0  0  0  0  0  0  0  0  0  0  0  0
  140.8370   76.2730  221.9450 C   0  0  0  0  0  0  0  0  0  0  0  0
  141.3840   77.4400  222.4390 C   0  0  0  0  0  0  0  0  0  0  0  0
  140.5420   78.4740  222.8560 C   0  0  0  0  0  0  0  0  0  0  0  0
  139.1550   78.3230  222.7710 C   0  0  0  0  0  0  0  0  0  0  0  0
  138.2400   79.3780  223.1960 C   0  0  0  0  0  0  0  0  0  0  0  0
  136.9830   79.5220  222.5980 C   0  0  0  0  0  0  0  0  0  0  0  0
  136.1500   80.5130  223.0110 C   0  0  0  0  0  0  0  0  0  0  0  0
  136.4830   81.4180  224.0240 C   0  0  0  0  0  0  0  0  0  0  0  0
  137.7200   81.2750  224.6140 C   0  0  0  0  0  0  0  0  0  0  0  0
  138.5920   80.2730  224.2100 C   0  0  0  0  0  0  0  0  0  0  0  0
  138.6170   77.1530  222.2770 C   0  0  0  0  0  0  0  0  0  0  0  0
  139.4680   76.1440  221.8700 C   0  0  0  0  0  0  0  0  0  0  0  0
  140.0270   71.3840  223.6780 C   0  0  0  0  0  0  0  0  0  0  0  0
  139.4580   70.1260  223.5790 C   0  0  0  0  0  0  0  0  0  0  0  0
  139.4190   69.2310  224.6220 C   0  0  0  0  0  0  0  0  0  0  0  0
  139.9820   69.6350  225.8220 C   0  0  0  0  0  0  0  0  0  0  0  0
  139.9350   68.7290  226.8590 C   0  0  0  0  0  0  0  0  0  0  0  0
  140.4810   69.0890  228.0620 C   0  0  0  0  0  0  0  0  0  0  0  0
  140.4560   68.2170  229.1210 F   0  0  0  0  0  0  0  0  0  0  0  0
  141.0490   70.3290  228.1850 C   0  0  0  0  0  0  0  0  0  0  0  0
  141.1020   71.2500  227.1450 C   0  0  0  0  0  0  0  0  0  0  0  0
  140.5510   70.8840  225.9350 C   0  0  0  0  0  0  0  0  0  0  0  0
  140.5560   71.7170  224.8650 N   0  0  0  0  0  0  0  0  0  0  0  0
  140.1930   70.6690  221.1480 H   0  0  0  0  0  0  0  0  0  0  0  0
  139.2918   72.3100  219.3713 H   0  0  0  0  0  0  0  0  0  0  0  0
  140.0635   73.6246  220.3365 H   0  0  0  0  0  0  0  0  0  0  0  0
  144.3700   71.8624  219.9092 H   0  0  0  0  0  0  0  0  0  0  0  0
  143.6423   71.3506  218.4125 H   0  0  0  0  0  0  0  0  0  0  0  0
  144.7668   73.1220  217.2170 H   0  0  0  0  0  0  0  0  0  0  0  0
  146.4500   74.1310  218.6950 H   0  0  0  0  0  0  0  0  0  0  0  0
  144.7203   75.4347  218.7585 H   0  0  0  0  0  0  0  0  0  0  0  0
  143.4159   75.0224  217.6979 H   0  0  0  0  0  0  0  0  0  0  0  0
  143.6912   74.1399  220.7428 H   0  0  0  0  0  0  0  0  0  0  0  0
  141.8010   74.3170  222.0610 H   0  0  0  0  0  0  0  0  0  0  0  0
  142.4760   77.5552  222.5040 H   0  0  0  0  0  0  0  0  0  0  0  0
  140.9706   79.4068  223.2512 H   0  0  0  0  0  0  0  0  0  0  0  0
  136.6706   78.8359  221.7970 H   0  0  0  0  0  0  0  0  0  0  0  0
  135.1674   80.6079  222.5257 H   0  0  0  0  0  0  0  0  0  0  0  0
  135.7869   82.2104  224.3365 H   0  0  0  0  0  0  0  0  0  0  0  0
  138.0209   81.9645  225.4165 H   0  0  0  0  0  0  0  0  0  0  0  0
  139.5749   80.1822  224.6954 H   0  0  0  0  0  0  0  0  0  0  0  0
  137.5266   77.0253  222.2082 H   0  0  0  0  0  0  0  0  0  0  0  0
  139.0400   75.2109  221.4747 H   0  0  0  0  0  0  0  0  0  0  0  0
  139.0148   69.8274  222.6176 H   0  0  0  0  0  0  0  0  0  0  0  0
  138.9608   68.2374  224.5088 H   0  0  0  0  0  0  0  0  0  0  0  0
  139.4704   67.7411  226.7238 H   0  0  0  0  0  0  0  0  0  0  0  0
  141.4850   70.6103  229.1549 H   0  0  0  0  0  0  0  0  0  0  0  0
  141.5676   72.2371  227.2826 H   0  0  0  0  0  0  0  0  0  0  0  0
  1  2  2  0
  2  3  1  0
  3  4  1  0
  4  5  1  0
  5  6  2  0
  5  7  1  0
  7  8  1  0
  8  9  1  0
  9 10  1  0
  9 11  1  0
 11 12  1  0
 12 13  1  0
 13 14  2  0
 13 15  1  0
 15 16  1  0
 16 17  2  0
 17 18  1  0
 18 19  2  0
 19 20  1  0
 20 21  2  0
 21 22  1  0
 22 23  2  0
 23 24  1  0
 24 25  2  0
 19 26  1  0
 26 27  2  0
  2 28  1  0
 28 29  2  0
 29 30  1  0
 30 31  2  0
 31 32  1  0
 32 33  2  0
 33 34  1  0
 33 35  1  0
 35 36  2  0
 36 37  1  0
 37 38  2  0
 12  7  1  0
 27 16  1  0
 38 28  1  0
 25 20  1  0
 37 31  1  0
  3 39  1  0
  4 40  1  0
  4 41  1  0
  8 42  1  0
  8 43  1  0
  9 44  1  6
 10 45  1  0
 11 46  1  0
 11 47  1  0
 12 48  1  1
 15 49  1  0
 17 50  1  0
 18 51  1  0
 21 52  1  0
 22 53  1  0
 23 54  1  0
 24 55  1  0
 25 56  1  0
 26 57  1  0
 27 58  1  0
 29 59  1  0
 30 60  1  0
 32 61  1  0
 35 62  1  0
 36 63  1  0
M  END
>  <smiles>  (48) 
O=C(NCC(=O)N1C[C@H](O)C[C@H]1C(=O)Nc1ccc(-c2ccccc2)cc1)c1ccc2cc(F)ccc2n1

>  <score_type>  (48) 
oracle

>  <origin>  (48) 
autodockgpu

>  <m_score__min__energy>  (48) 
-9.8499999999999996

>  <m_primary>  (48) 
energy

>  <rmsd>  (48) 
3.3826094473213835

>  <m_score__min__rmsd>  (48) 
3.3826094473213835

>  <meeko>  (48) 
{"free_energy": -9.44, "intermolecular_energy": -11.82, "internal_energy": -2.62, "cluster_size": 26, "cluster_id": 1, "rank_in_cluster": 10}

>  <energy>  (48) 
-7.66

>  <cluster_rmsd>  (48) 
0.52

>  <cluster>  (48) 
6

$$$$

     RDKit          3D

 63 67  0  0  0  0  0  0  0  0999 V2000
  140.1600   73.0290  222.9330 O   0  0  0  0  0  0  0  0  0  0  0  0
  140.2700   71.7780  222.9950 C   0  0  0  0  0  0  0  0  0  0  0  0
  140.2280   70.9320  221.8450 N   0  0  0  0  0  0  0  0  0  0  0  0
  140.0480   71.5260  220.4940 C   0  0  0  0  0  0  0  0  0  0  0  0
  138.7810   71.1110  219.9200 C   0  0  0  0  0  0  0  0  0  0  0  0
  138.8730   70.2120  218.9800 O   0  0  0  0  0  0  0  0  0  0  0  0
  137.4700   71.5070  220.2010 N   0  0  0  0  0  0  0  0  0  0  0  0
  136.3870   70.4540  220.1350 C   0  0  0  0  0  0  0  0  0  0  0  0
  135.5230   70.8290  221.3360 C   0  0  2  0  0  0  0  0  0  0  0  0
  134.2020   70.8980  220.9100 O   0  0  0  0  0  0  0  0  0  0  0  0
  136.0200   72.1810  221.8190 C   0  0  0  0  0  0  0  0  0  0  0  0
  136.7400   72.6640  220.5560 C   0  0  1  0  0  0  0  0  0  0  0  0
  137.3900   73.9400  220.7460 C   0  0  0  0  0  0  0  0  0  0  0  0
  137.4820   74.9080  219.9770 O   0  0  0  0  0  0  0  0  0  0  0  0
  138.0430   74.1390  222.0340 N   0  0  0  0  0  0  0  0  0  0  0  0
  138.6870   75.4040  222.2250 C   0  0  0  0  0  0  0  0  0  0  0  0
  137.9940   76.4920  222.7150 C   0  0  0  0  0  0  0  0  0  0  0  0
  138.6570   77.7100  222.8870 C   0  0  0  0  0  0  0  0  0  0  0  0
  140.0130   77.8200  222.5660 C   0  0  0  0  0  0  0  0  0  0  0  0
  140.7430   79.0730  222.7320 C   0  0  0  0  0  0  0  0  0  0  0  0
  141.9450   79.1150  223.4460 C   0  0  0  0  0  0  0  0  0  0  0  0
  142.6050   80.2950  223.5870 C   0  0  0  0  0  0  0  0  0  0  0  0
  142.1420   81.4980  223.0450 C   0  0  0  0  0  0  0  0  0  0  0  0
  140.9590   81.4560  222.3400 C   0  0  0  0  0  0  0  0  0  0  0  0
  140.2630   80.2650  222.1820 C   0  0  0  0  0  0  0  0  0  0  0  0
  140.6970   76.7260  222.0780 C   0  0  0  0  0  0  0  0  0  0  0  0
  140.0230   75.5320  221.9150 C   0  0  0  0  0  0  0  0  0  0  0  0
  140.4490   71.1440  224.3050 C   0  0  0  0  0  0  0  0  0  0  0  0
  140.8650   71.8920  225.3930 C   0  0  0  0  0  0  0  0  0  0  0  0
  141.0520   71.3610  226.6480 C   0  0  0  0  0  0  0  0  0  0  0  0
  140.8050   70.0060  226.8030 C   0  0  0  0  0  0  0  0  0  0  0  0
  140.9960   69.4870  228.0650 C   0  0  0  0  0  0  0  0  0  0  0  0
  140.7630   68.1520  228.2600 C   0  0  0  0  0  0  0  0  0  0  0  0
  140.9410   67.5940  229.5010 F   0  0  0  0  0  0  0  0  0  0  0  0
  140.3500   67.3900  227.1980 C   0  0  0  0  0  0  0  0  0  0  0  0
  140.1550   67.9050  225.9220 C   0  0  0  0  0  0  0  0  0  0  0  0
  140.3900   69.2500  225.7290 C   0  0  0  0  0  0  0  0  0  0  0  0
  140.2260   69.8380  224.5180 N   0  0  0  0  0  0  0  0  0  0  0  0
  140.3270   69.9070  221.9820 H   0  0  0  0  0  0  0  0  0  0  0  0
  140.0663   72.6228  220.5756 H   0  0  0  0  0  0  0  0  0  0  0  0
  140.8638   71.1801  219.8421 H   0  0  0  0  0  0  0  0  0  0  0  0
  135.8191   70.5203  219.1953 H   0  0  0  0  0  0  0  0  0  0  0  0
  136.7643   69.4210  220.1595 H   0  0  0  0  0  0  0  0  0  0  0  0
  135.5835   70.0967  222.1545 H   0  0  0  0  0  0  0  0  0  0  0  0
  134.0790   71.5300  220.1600 H   0  0  0  0  0  0  0  0  0  0  0  0
  135.1892   72.8468  222.0955 H   0  0  0  0  0  0  0  0  0  0  0  0
  136.6429   72.1499  222.7251 H   0  0  0  0  0  0  0  0  0  0  0  0
  136.1317   72.9710  219.6925 H   0  0  0  0  0  0  0  0  0  0  0  0
  138.0300   73.3900  222.7610 H   0  0  0  0  0  0  0  0  0  0  0  0
  136.9274   76.4012  222.9684 H   0  0  0  0  0  0  0  0  0  0  0  0
  138.1115   78.5827  223.2752 H   0  0  0  0  0  0  0  0  0  0  0  0
  142.3547   78.1966  223.8917 H   0  0  0  0  0  0  0  0  0  0  0  0
  143.5475   80.3039  224.1541 H   0  0  0  0  0  0  0  0  0  0  0  0
  142.6985   82.4378  223.1759 H   0  0  0  0  0  0  0  0  0  0  0  0
  140.5600   82.3798  221.8957 H   0  0  0  0  0  0  0  0  0  0  0  0
  139.3200   80.2594  221.6157 H   0  0  0  0  0  0  0  0  0  0  0  0
  141.7641   76.8037  221.8224 H   0  0  0  0  0  0  0  0  0  0  0  0
  140.5680   74.6589  221.5268 H   0  0  0  0  0  0  0  0  0  0  0  0
  141.0557   72.9654  225.2465 H   0  0  0  0  0  0  0  0  0  0  0  0
  141.3831   71.9844  227.4917 H   0  0  0  0  0  0  0  0  0  0  0  0
  141.3272   70.1288  228.8947 H   0  0  0  0  0  0  0  0  0  0  0  0
  140.1639   66.3186  227.3638 H   0  0  0  0  0  0  0  0  0  0  0  0
  139.8242   67.2612  225.0937 H   0  0  0  0  0  0  0  0  0  0  0  0
  1  2  2  0
  2  3  1  0
  3  4  1  0
  4  5  1  0
  5  6  2  0
  5  7  1  0
  7  8  1  0
  8  9  1  0
  9 10  1  0
  9 11  1  0
 11 12  1  0
 12 13  1  0
 13 14  2  0
 13 15  1  0
 15 16  1  0
 16 17  2  0
 17 18  1  0
 18 19  2  0
 19 20  1  0
 20 21  2  0
 21 22  1  0
 22 23  2  0
 23 24  1  0
 24 25  2  0
 19 26  1  0
 26 27  2  0
  2 28  1  0
 28 29  2  0
 29 30  1  0
 30 31  2  0
 31 32  1  0
 32 33  2  0
 33 34  1  0
 33 35  1  0
 35 36  2  0
 36 37  1  0
 37 38  2  0
 12  7  1  0
 27 16  1  0
 38 28  1  0
 25 20  1  0
 37 31  1  0
  3 39  1  0
  4 40  1  0
  4 41  1  0
  8 42  1  0
  8 43  1  0
  9 44  1  1
 10 45  1  0
 11 46  1  0
 11 47  1  0
 12 48  1  6
 15 49  1  0
 17 50  1  0
 18 51  1  0
 21 52  1  0
 22 53  1  0
 23 54  1  0
 24 55  1  0
 25 56  1  0
 26 57  1  0
 27 58  1  0
 29 59  1  0
 30 60  1  0
 32 61  1  0
 35 62  1  0
 36 63  1  0
M  END
>  <smiles>  (49) 
O=C(NCC(=O)N1C[C@H](O)C[C@H]1C(=O)Nc1ccc(-c2ccccc2)cc1)c1ccc2cc(F)ccc2n1

>  <score_type>  (49) 
oracle

>  <origin>  (49) 
autodockgpu

>  <m_score__min__energy>  (49) 
-9.8499999999999996

>  <m_primary>  (49) 
energy

>  <rmsd>  (49) 
4.972956391540546

>  <m_score__min__rmsd>  (49) 
4.972956391540546

>  <meeko>  (49) 
{"free_energy": -8.83, "intermolecular_energy": -11.21, "internal_energy": -2.93, "cluster_size": 11, "cluster_id": 3, "rank_in_cluster": 3}

>  <energy>  (49) 
-6.53

>  <cluster_rmsd>  (49) 
0.0

>  <cluster>  (49) 
7

$$$$

     RDKit          3D

 63 67  0  0  0  0  0  0  0  0999 V2000
  139.7990   72.8950  222.7710 O   0  0  0  0  0  0  0  0  0  0  0  0
  140.0190   71.6600  222.8590 C   0  0  0  0  0  0  0  0  0  0  0  0
  140.0190   70.7840  221.7300 N   0  0  0  0  0  0  0  0  0  0  0  0
  139.7510   71.3250  220.3720 C   0  0  0  0  0  0  0  0  0  0  0  0
  138.4610   70.8680  219.8870 C   0  0  0  0  0  0  0  0  0  0  0  0
  138.2280   69.5970  220.0650 O   0  0  0  0  0  0  0  0  0  0  0  0
  137.4180   71.5540  219.2590 N   0  0  0  0  0  0  0  0  0  0  0  0
  136.2970   70.7350  218.6580 C   0  0  0  0  0  0  0  0  0  0  0  0
  135.0760   71.5730  219.0270 C   0  0  2  0  0  0  0  0  0  0  0  0
  134.3200   71.7590  217.8760 O   0  0  0  0  0  0  0  0  0  0  0  0
  135.6050   72.8930  219.5600 C   0  0  0  0  0  0  0  0  0  0  0  0
  137.0130   72.8750  218.9620 C   0  0  1  0  0  0  0  0  0  0  0  0
  137.8000   74.0170  219.3680 C   0  0  0  0  0  0  0  0  0  0  0  0
  138.0810   75.0520  218.7470 O   0  0  0  0  0  0  0  0  0  0  0  0
  138.3580   73.9610  220.7140 N   0  0  0  0  0  0  0  0  0  0  0  0
  139.1380   75.0910  221.1200 C   0  0  0  0  0  0  0  0  0  0  0  0
  140.4450   75.2450  220.7040 C   0  0  0  0  0  0  0  0  0  0  0  0
  141.1750   76.3610  221.1220 C   0  0  0  0  0  0  0  0  0  0  0  0
  140.5800   77.3130  221.9550 C   0  0  0  0  0  0  0  0  0  0  0  0
  141.3070   78.4930  222.4140 C   0  0  0  0  0  0  0  0  0  0  0  0
  141.8160   79.4230  221.5000 C   0  0  0  0  0  0  0  0  0  0  0  0
  142.4890   80.5130  221.9530 C   0  0  0  0  0  0  0  0  0  0  0  0
  142.7080   80.7670  223.3110 C   0  0  0  0  0  0  0  0  0  0  0  0
  142.2040   79.8510  224.2110 C   0  0  0  0  0  0  0  0  0  0  0  0
  141.5140   78.7280  223.7760 C   0  0  0  0  0  0  0  0  0  0  0  0
  139.2740   77.1500  222.3660 C   0  0  0  0  0  0  0  0  0  0  0  0
  138.5710   76.0400  221.9410 C   0  0  0  0  0  0  0  0  0  0  0  0
  140.2880   71.0770  224.1770 C   0  0  0  0  0  0  0  0  0  0  0  0
  140.7180   71.8780  225.2210 C   0  0  0  0  0  0  0  0  0  0  0  0
  140.9880   71.3970  226.4810 C   0  0  0  0  0  0  0  0  0  0  0  0
  140.8130   70.0370  226.6880 C   0  0  0  0  0  0  0  0  0  0  0  0
  141.0880   69.5680  227.9540 C   0  0  0  0  0  0  0  0  0  0  0  0
  140.9270   68.2310  228.2000 C   0  0  0  0  0  0  0  0  0  0  0  0
  141.1890   67.7220  229.4470 F   0  0  0  0  0  0  0  0  0  0  0  0
  140.5030   67.4170  227.1830 C   0  0  0  0  0  0  0  0  0  0  0  0
  140.2240   67.8810  225.9020 C   0  0  0  0  0  0  0  0  0  0  0  0
  140.3860   69.2280  225.6580 C   0  0  0  0  0  0  0  0  0  0  0  0
  140.1380   69.7700  224.4390 N   0  0  0  0  0  0  0  0  0  0  0  0
  140.2090   69.7750  221.8880 H   0  0  0  0  0  0  0  0  0  0  0  0
  139.7532   72.4242  220.4135 H   0  0  0  0  0  0  0  0  0  0  0  0
  140.5346   70.9693  219.6868 H   0  0  0  0  0  0  0  0  0  0  0  0
  136.4066   70.6432  217.5673 H   0  0  0  0  0  0  0  0  0  0  0  0
  136.2552   69.6975  219.0212 H   0  0  0  0  0  0  0  0  0  0  0  0
  134.4388   71.0943  219.7852 H   0  0  0  0  0  0  0  0  0  0  0  0
  134.7070   71.3000  217.0900 H   0  0  0  0  0  0  0  0  0  0  0  0
  135.0164   73.7468  219.1931 H   0  0  0  0  0  0  0  0  0  0  0  0
  135.5674   72.9996  220.6542 H   0  0  0  0  0  0  0  0  0  0  0  0
  137.1225   73.0379  217.8797 H   0  0  0  0  0  0  0  0  0  0  0  0
  138.1880   73.1360  221.3290 H   0  0  0  0  0  0  0  0  0  0  0  0
  140.9091   74.4941  220.0476 H   0  0  0  0  0  0  0  0  0  0  0  0
  142.2175   76.4903  220.7956 H   0  0  0  0  0  0  0  0  0  0  0  0
  141.6718   79.2721  220.4200 H   0  0  0  0  0  0  0  0  0  0  0  0
  142.8804   81.2301  221.2164 H   0  0  0  0  0  0  0  0  0  0  0  0
  143.2582   81.6584  223.6467 H   0  0  0  0  0  0  0  0  0  0  0  0
  142.3511   80.0130  225.2890 H   0  0  0  0  0  0  0  0  0  0  0  0
  141.1242   78.0120  224.5145 H   0  0  0  0  0  0  0  0  0  0  0  0
  138.7989   77.8934  223.0230 H   0  0  0  0  0  0  0  0  0  0  0  0
  137.5286   75.9102  222.2675 H   0  0  0  0  0  0  0  0  0  0  0  0
  140.8505   72.9537  225.0333 H   0  0  0  0  0  0  0  0  0  0  0  0
  141.3278   72.0618  227.2888 H   0  0  0  0  0  0  0  0  0  0  0  0
  141.4282   70.2504  228.7468 H   0  0  0  0  0  0  0  0  0  0  0  0
  140.3771   66.3440  227.3897 H   0  0  0  0  0  0  0  0  0  0  0  0
  139.8855   67.1964  225.1103 H   0  0  0  0  0  0  0  0  0  0  0  0
  1  2  2  0
  2  3  1  0
  3  4  1  0
  4  5  1  0
  5  6  2  0
  5  7  1  0
  7  8  1  0
  8  9  1  0
  9 10  1  0
  9 11  1  0
 11 12  1  0
 12 13  1  0
 13 14  2  0
 13 15  1  0
 15 16  1  0
 16 17  2  0
 17 18  1  0
 18 19  2  0
 19 20  1  0
 20 21  2  0
 21 22  1  0
 22 23  2  0
 23 24  1  0
 24 25  2  0
 19 26  1  0
 26 27  2  0
  2 28  1  0
 28 29  2  0
 29 30  1  0
 30 31  2  0
 31 32  1  0
 32 33  2  0
 33 34  1  0
 33 35  1  0
 35 36  2  0
 36 37  1  0
 37 38  2  0
 12  7  1  0
 27 16  1  0
 38 28  1  0
 25 20  1  0
 37 31  1  0
  3 39  1  0
  4 40  1  0
  4 41  1  0
  8 42  1  0
  8 43  1  0
  9 44  1  1
 10 45  1  0
 11 46  1  0
 11 47  1  0
 12 48  1  6
 15 49  1  0
 17 50  1  0
 18 51  1  0
 21 52  1  0
 22 53  1  0
 23 54  1  0
 24 55  1  0
 25 56  1  0
 26 57  1  0
 27 58  1  0
 29 59  1  0
 30 60  1  0
 32 61  1  0
 35 62  1  0
 36 63  1  0
M  END
>  <smiles>  (50) 
O=C(NCC(=O)N1C[C@H](O)C[C@H]1C(=O)Nc1ccc(-c2ccccc2)cc1)c1ccc2cc(F)ccc2n1

>  <score_type>  (50) 
oracle

>  <origin>  (50) 
autodockgpu

>  <m_score__min__energy>  (50) 
-9.8499999999999996

>  <m_primary>  (50) 
energy

>  <rmsd>  (50) 
4.750984723065048

>  <m_score__min__rmsd>  (50) 
4.750984723065048

>  <meeko>  (50) 
{"free_energy": -8.09, "intermolecular_energy": -10.48, "internal_energy": -3.1, "cluster_size": 11, "cluster_id": 3, "rank_in_cluster": 11}

>  <energy>  (50) 
-6.19

>  <cluster_rmsd>  (50) 
0.0

>  <cluster>  (50) 
8

$$$$
