
     RDKit          3D

 78 84  0  0  0  0  0  0  0  0999 V2000
  138.3440   80.9220  221.4330 O   0  0  0  0  0  0  0  0  0  0  0  0
  137.9740   79.7700  222.3570 S   0  0  0  0  0  0  0  0  0  0  0  0
  136.4930   79.8810  222.6700 O   0  0  0  0  0  0  0  0  0  0  0  0
  138.8340   80.0130  223.8690 C   0  0  0  0  0  0  0  0  0  0  0  0
  140.2900   79.9820  223.6640 C   0  0  0  0  0  0  0  0  0  0  0  0
  140.9190   81.1950  223.4110 C   0  0  0  0  0  0  0  0  0  0  0  0
  142.2860   81.2700  223.1640 C   0  0  0  0  0  0  0  0  0  0  0  0
  143.0610   80.1230  223.1640 C   0  0  0  0  0  0  0  0  0  0  0  0
  142.4330   78.9250  223.4140 C   0  0  0  0  0  0  0  0  0  0  0  0
  141.0750   78.8670  223.6580 C   0  0  0  0  0  0  0  0  0  0  0  0
  138.2870   78.2840  221.6660 N   0  0  0  0  0  0  0  0  0  0  0  0
  139.3670   78.0860  220.8080 C   0  0  0  0  0  0  0  0  0  0  0  0
  140.1880   76.8380  221.1180 C   0  0  0  0  0  0  0  0  0  0  0  0
  139.2520   75.6640  221.2950 C   0  0  0  0  0  0  0  0  0  0  0  0
  139.9920   74.4290  221.5740 C   0  0  0  0  0  0  0  0  0  0  0  0
  139.6510   73.5520  222.5550 N   0  0  0  0  0  0  0  0  0  0  0  0
  140.3470   72.4340  222.7870 C   0  0  0  0  0  0  0  0  0  0  0  0
  139.9000   71.5880  223.8370 N   0  0  0  0  0  0  0  0  0  0  0  0
  138.6580   70.8760  223.6720 C   0  0  0  0  0  0  0  0  0  0  0  0
  138.9940   69.3810  223.6500 C   0  0  0  0  0  0  0  0  0  0  0  0
  139.7020   69.0870  224.9230 C   0  0  0  0  0  0  0  0  0  0  0  0
  139.5700   67.8070  225.4290 C   0  0  0  0  0  0  0  0  0  0  0  0
  140.2040   67.4670  226.6120 C   0  0  0  0  0  0  0  0  0  0  0  0
  140.9620   68.4140  227.2690 C   0  0  0  0  0  0  0  0  0  0  0  0
  141.1090   69.7080  226.7770 C   0  0  0  0  0  0  0  0  0  0  0  0
  140.4660   70.0160  225.5980 C   0  0  0  0  0  0  0  0  0  0  0  0
  140.6240   71.3970  225.0760 C   0  0  0  0  0  0  0  0  0  0  0  0
  141.4180   72.1690  222.0220 N   0  0  0  0  0  0  0  0  0  0  0  0
  141.8150   73.0000  221.0270 C   0  0  0  0  0  0  0  0  0  0  0  0
  142.9490   72.7290  220.2100 N   0  0  0  0  0  0  0  0  0  0  0  0
  144.2290   73.2460  220.6430 C   0  0  0  0  0  0  0  0  0  0  0  0
  145.4090   72.6020  219.9970 C   0  0  0  0  0  0  0  0  0  0  0  0
  145.0930   71.2770  219.4110 C   0  0  0  0  0  0  0  0  0  0  0  0
  146.0790   70.3140  219.3320 C   0  0  0  0  0  0  0  0  0  0  0  0
  145.8060   69.0580  218.7830 C   0  0  0  0  0  0  0  0  0  0  0  0
  144.5450   68.7500  218.3100 C   0  0  0  0  0  0  0  0  0  0  0  0
  143.5400   69.7160  218.3850 C   0  0  0  0  0  0  0  0  0  0  0  0
  143.8460   70.9470  218.9330 C   0  0  0  0  0  0  0  0  0  0  0  0
  142.7830   71.9670  219.0110 C   0  0  0  0  0  0  0  0  0  0  0  0
  141.0750   74.1080  220.8430 N   0  0  0  0  0  0  0  0  0  0  0  0
  138.3380   75.9930  222.4530 C   0  0  0  0  0  0  0  0  0  0  0  0
  137.5080   77.1720  222.0760 C   0  0  0  0  0  0  0  0  0  0  0  0
  138.5516   80.9895  224.2894 H   0  0  0  0  0  0  0  0  0  0  0  0
  138.5621   79.2003  224.5587 H   0  0  0  0  0  0  0  0  0  0  0  0
  140.3214   82.1185  223.4059 H   0  0  0  0  0  0  0  0  0  0  0  0
  142.7536   82.2461  222.9676 H   0  0  0  0  0  0  0  0  0  0  0  0
  144.1429   80.1681  222.9705 H   0  0  0  0  0  0  0  0  0  0  0  0
  143.0230   77.9966  223.4197 H   0  0  0  0  0  0  0  0  0  0  0  0
  140.6112   77.8890  223.8540 H   0  0  0  0  0  0  0  0  0  0  0  0
  138.9814   77.9996  219.7814 H   0  0  0  0  0  0  0  0  0  0  0  0
  140.0381   78.9477  220.9386 H   0  0  0  0  0  0  0  0  0  0  0  0
  140.8798   76.6360  220.2870 H   0  0  0  0  0  0  0  0  0  0  0  0
  140.7669   76.9938  222.0402 H   0  0  0  0  0  0  0  0  0  0  0  0
  138.6802   75.4965  220.3703 H   0  0  0  0  0  0  0  0  0  0  0  0
  137.9816   71.0982  224.5105 H   0  0  0  0  0  0  0  0  0  0  0  0
  138.1550   71.1776  222.7414 H   0  0  0  0  0  0  0  0  0  0  0  0
  138.0716   68.7855  223.5822 H   0  0  0  0  0  0  0  0  0  0  0  0
  139.6184   69.1272  222.7807 H   0  0  0  0  0  0  0  0  0  0  0  0
  138.9636   67.0616  224.8937 H   0  0  0  0  0  0  0  0  0  0  0  0
  140.1042   66.4519  227.0239 H   0  0  0  0  0  0  0  0  0  0  0  0
  141.4644   68.1389  228.2081 H   0  0  0  0  0  0  0  0  0  0  0  0
  141.7152   70.4559  227.3091 H   0  0  0  0  0  0  0  0  0  0  0  0
  140.2424   72.1068  225.8247 H   0  0  0  0  0  0  0  0  0  0  0  0
  141.6924   71.5684  224.8783 H   0  0  0  0  0  0  0  0  0  0  0  0
  144.2587   74.3221  220.4169 H   0  0  0  0  0  0  0  0  0  0  0  0
  144.3053   73.0291  221.7187 H   0  0  0  0  0  0  0  0  0  0  0  0
  145.7748   73.2618  219.1965 H   0  0  0  0  0  0  0  0  0  0  0  0
  146.1687   72.4458  220.7771 H   0  0  0  0  0  0  0  0  0  0  0  0
  147.0895   70.5374  219.7048 H   0  0  0  0  0  0  0  0  0  0  0  0
  146.6057   68.3048  218.7268 H   0  0  0  0  0  0  0  0  0  0  0  0
  144.3361   67.7589  217.8809 H   0  0  0  0  0  0  0  0  0  0  0  0
  142.5262   69.5018  218.0157 H   0  0  0  0  0  0  0  0  0  0  0  0
  142.8488   72.6343  218.1390 H   0  0  0  0  0  0  0  0  0  0  0  0
  141.7991   71.4753  219.0190 H   0  0  0  0  0  0  0  0  0  0  0  0
  137.6864   75.1333  222.6680 H   0  0  0  0  0  0  0  0  0  0  0  0
  138.9317   76.2199  223.3508 H   0  0  0  0  0  0  0  0  0  0  0  0
  136.8437   76.8838  221.2480 H   0  0  0  0  0  0  0  0  0  0  0  0
  136.9402   77.4761  222.9677 H   0  0  0  0  0  0  0  0  0  0  0  0
  1  2  2  0
  2  3  2  0
  2  4  1  0
  4  5  1  0
  5  6  2  0
  6  7  1  0
  7  8  2  0
  8  9  1  0
  9 10  2  0
  2 11  1  0
 11 12  1  0
 12 13  1  0
 13 14  1  0
 14 15  1  0
 15 16  2  0
 16 17  1  0
 17 18  1  0
 18 19  1  0
 19 20  1  0
 20 21  1  0
 21 22  2  0
 22 23  1  0
 23 24  2  0
 24 25  1  0
 25 26  2  0
 26 27  1  0
 17 28  2  0
 28 29  1  0
 29 30  1  0
 30 31  1  0
 31 32  1  0
 32 33  1  0
 33 34  2  0
 34 35  1  0
 35 36  2  0
 36 37  1  0
 37 38  2  0
 38 39  1  0
 29 40  2  0
 14 41  1  0
 41 42  1  0
 10  5  1  0
 42 11  1  0
 40 15  1  0
 27 18  1  0
 39 30  1  0
 26 21  1  0
 38 33  1  0
  4 43  1  0
  4 44  1  0
  6 45  1  0
  7 46  1  0
  8 47  1  0
  9 48  1  0
 10 49  1  0
 12 50  1  0
 12 51  1  0
 13 52  1  0
 13 53  1  0
 14 54  1  0
 19 55  1  0
 19 56  1  0
 20 57  1  0
 20 58  1  0
 22 59  1  0
 23 60  1  0
 24 61  1  0
 25 62  1  0
 27 63  1  0
 27 64  1  0
 31 65  1  0
 31 66  1  0
 32 67  1  0
 32 68  1  0
 34 69  1  0
 35 70  1  0
 36 71  1  0
 37 72  1  0
 39 73  1  0
 39 74  1  0
 41 75  1  0
 41 76  1  0
 42 77  1  0
 42 78  1  0
M  END
>  <smiles>  (1) 
O=S(=O)(Cc1ccccc1)N1CCC(c2nc(N3CCc4ccccc4C3)nc(N3CCc4ccccc4C3)n2)CC1

>  <score_type>  (1) 
oracle

>  <origin>  (1) 
autodockgpu

>  <m_score__min__energy>  (1) 
-12.01

>  <m_primary>  (1) 
energy

>  <rmsd>  (1) 
11.255545611085543

>  <m_score__min__rmsd>  (1) 
11.255545611085543

>  <meeko>  (1) 
{"free_energy": -11.29, "intermolecular_energy": -13.08, "internal_energy": -2.03, "cluster_size": 32, "cluster_id": 1, "rank_in_cluster": 15}

>  <energy>  (1) 
-12.01

>  <cluster_rmsd>  (1) 
0.0

>  <cluster>  (1) 
1

$$$$

     RDKit          3D

 78 84  0  0  0  0  0  0  0  0999 V2000
  141.9640   79.2950  218.6320 O   0  0  0  0  0  0  0  0  0  0  0  0
  140.5830   79.4370  219.2550 S   0  0  0  0  0  0  0  0  0  0  0  0
  139.5730   79.5630  218.1290 O   0  0  0  0  0  0  0  0  0  0  0  0
  140.5570   80.9580  220.1340 C   0  0  0  0  0  0  0  0  0  0  0  0
  141.2490   80.8370  221.4260 C   0  0  0  0  0  0  0  0  0  0  0  0
  140.5030   81.0970  222.5690 C   0  0  0  0  0  0  0  0  0  0  0  0
  141.0730   81.0500  223.8380 C   0  0  0  0  0  0  0  0  0  0  0  0
  142.4130   80.7400  223.9920 C   0  0  0  0  0  0  0  0  0  0  0  0
  143.1470   80.4840  222.8570 C   0  0  0  0  0  0  0  0  0  0  0  0
  142.5670   80.5340  221.6050 C   0  0  0  0  0  0  0  0  0  0  0  0
  140.1860   78.1290  220.2130 N   0  0  0  0  0  0  0  0  0  0  0  0
  139.2060   77.2130  219.8360 C   0  0  0  0  0  0  0  0  0  0  0  0
  139.6210   75.7540  219.9970 C   0  0  0  0  0  0  0  0  0  0  0  0
  140.2220   75.5610  221.3710 C   0  0  0  0  0  0  0  0  0  0  0  0
  140.6200   74.1680  221.5890 C   0  0  0  0  0  0  0  0  0  0  0  0
  140.1520   73.4000  222.6100 N   0  0  0  0  0  0  0  0  0  0  0  0
  140.5360   72.1320  222.7830 C   0  0  0  0  0  0  0  0  0  0  0  0
  139.9820   71.4230  223.8830 N   0  0  0  0  0  0  0  0  0  0  0  0
  138.8150   70.6060  223.6630 C   0  0  0  0  0  0  0  0  0  0  0  0
  139.2250   69.1530  223.9250 C   0  0  0  0  0  0  0  0  0  0  0  0
  139.7510   69.1050  225.3140 C   0  0  0  0  0  0  0  0  0  0  0  0
  139.6100   67.9090  225.9940 C   0  0  0  0  0  0  0  0  0  0  0  0
  140.0790   67.7970  227.2910 C   0  0  0  0  0  0  0  0  0  0  0  0
  140.6850   68.8840  227.8870 C   0  0  0  0  0  0  0  0  0  0  0  0
  140.8370   70.0970  227.2210 C   0  0  0  0  0  0  0  0  0  0  0  0
  140.3600   70.1770  225.9310 C   0  0  0  0  0  0  0  0  0  0  0  0
  140.5250   71.4720  225.2230 C   0  0  0  0  0  0  0  0  0  0  0  0
  141.4120   71.5970  221.9180 N   0  0  0  0  0  0  0  0  0  0  0  0
  141.9190   72.3040  220.8780 C   0  0  0  0  0  0  0  0  0  0  0  0
  142.8490   71.7480  219.9550 N   0  0  0  0  0  0  0  0  0  0  0  0
  144.0380   72.5140  219.6520 C   0  0  0  0  0  0  0  0  0  0  0  0
  145.1400   71.7280  219.0260 C   0  0  0  0  0  0  0  0  0  0  0  0
  145.0090   70.2690  219.2560 C   0  0  0  0  0  0  0  0  0  0  0  0
  146.1430   69.4830  219.3070 C   0  0  0  0  0  0  0  0  0  0  0  0
  146.0460   68.1050  219.5220 C   0  0  0  0  0  0  0  0  0  0  0  0
  144.8150   67.4990  219.6890 C   0  0  0  0  0  0  0  0  0  0  0  0
  143.6630   68.2850  219.6390 C   0  0  0  0  0  0  0  0  0  0  0  0
  143.7960   69.6420  219.4240 C   0  0  0  0  0  0  0  0  0  0  0  0
  142.5770   70.4700  219.3710 C   0  0  0  0  0  0  0  0  0  0  0  0
  141.4950   73.5750  220.7570 N   0  0  0  0  0  0  0  0  0  0  0  0
  141.4300   76.4650  221.4610 C   0  0  0  0  0  0  0  0  0  0  0  0
  140.9670   77.8800  221.3700 C   0  0  0  0  0  0  0  0  0  0  0  0
  141.0565   81.7300  219.5303 H   0  0  0  0  0  0  0  0  0  0  0  0
  139.5090   81.2326  220.3244 H   0  0  0  0  0  0  0  0  0  0  0  0
  139.4363   81.3460  222.4686 H   0  0  0  0  0  0  0  0  0  0  0  0
  140.4550   81.2604  224.7233 H   0  0  0  0  0  0  0  0  0  0  0  0
  142.8759   80.6996  224.9891 H   0  0  0  0  0  0  0  0  0  0  0  0
  144.2146   80.2351  222.9485 H   0  0  0  0  0  0  0  0  0  0  0  0
  143.1885   80.3224  220.7224 H   0  0  0  0  0  0  0  0  0  0  0  0
  138.3133   77.3883  220.4544 H   0  0  0  0  0  0  0  0  0  0  0  0
  139.0188   77.3727  218.7639 H   0  0  0  0  0  0  0  0  0  0  0  0
  138.7394   75.1056  219.8858 H   0  0  0  0  0  0  0  0  0  0  0  0
  140.3620   75.4917  219.2275 H   0  0  0  0  0  0  0  0  0  0  0  0
  139.4793   75.8093  222.1435 H   0  0  0  0  0  0  0  0  0  0  0  0
  138.0119   70.9017  224.3540 H   0  0  0  0  0  0  0  0  0  0  0  0
  138.4405   70.7275  222.6359 H   0  0  0  0  0  0  0  0  0  0  0  0
  138.3538   68.4889  223.8258 H   0  0  0  0  0  0  0  0  0  0  0  0
  139.9829   68.8177  223.2017 H   0  0  0  0  0  0  0  0  0  0  0  0
  139.1268   67.0499  225.5056 H   0  0  0  0  0  0  0  0  0  0  0  0
  139.9698   66.8509  227.8414 H   0  0  0  0  0  0  0  0  0  0  0  0
  141.0585   68.7894  228.9173 H   0  0  0  0  0  0  0  0  0  0  0  0
  141.3194   70.9584  227.7061 H   0  0  0  0  0  0  0  0  0  0  0  0
  140.0037   72.2572  225.7902 H   0  0  0  0  0  0  0  0  0  0  0  0
  141.6012   71.6872  225.1489 H   0  0  0  0  0  0  0  0  0  0  0  0
  143.7582   73.3229  218.9611 H   0  0  0  0  0  0  0  0  0  0  0  0
  144.4250   72.8824  220.6135 H   0  0  0  0  0  0  0  0  0  0  0  0
  145.1328   71.9148  217.9420 H   0  0  0  0  0  0  0  0  0  0  0  0
  146.0829   72.0527  219.4903 H   0  0  0  0  0  0  0  0  0  0  0  0
  147.1325   69.9456  219.1772 H   0  0  0  0  0  0  0  0  0  0  0  0
  146.9609   67.4954  219.5587 H   0  0  0  0  0  0  0  0  0  0  0  0
  144.7445   66.4144  219.8586 H   0  0  0  0  0  0  0  0  0  0  0  0
  142.6689   67.8323  219.7684 H   0  0  0  0  0  0  0  0  0  0  0  0
  142.2678   70.6026  218.3237 H   0  0  0  0  0  0  0  0  0  0  0  0
  141.7692   69.9737  219.9289 H   0  0  0  0  0  0  0  0  0  0  0  0
  141.9443   76.3034  222.4198 H   0  0  0  0  0  0  0  0  0  0  0  0
  142.1300   76.2430  220.6420 H   0  0  0  0  0  0  0  0  0  0  0  0
  140.3613   78.1095  222.2590 H   0  0  0  0  0  0  0  0  0  0  0  0
  141.8611   78.5179  221.3098 H   0  0  0  0  0  0  0  0  0  0  0  0
  1  2  2  0
  2  3  2  0
  2  4  1  0
  4  5  1  0
  5  6  2  0
  6  7  1  0
  7  8  2  0
  8  9  1  0
  9 10  2  0
  2 11  1  0
 11 12  1  0
 12 13  1  0
 13 14  1  0
 14 15  1  0
 15 16  2  0
 16 17  1  0
 17 18  1  0
 18 19  1  0
 19 20  1  0
 20 21  1  0
 21 22  2  0
 22 23  1  0
 23 24  2  0
 24 25  1  0
 25 26  2  0
 26 27  1  0
 17 28  2  0
 28 29  1  0
 29 30  1  0
 30 31  1  0
 31 32  1  0
 32 33  1  0
 33 34  2  0
 34 35  1  0
 35 36  2  0
 36 37  1  0
 37 38  2  0
 38 39  1  0
 29 40  2  0
 14 41  1  0
 41 42  1  0
 10  5  1  0
 42 11  1  0
 40 15  1  0
 27 18  1  0
 39 30  1  0
 26 21  1  0
 38 33  1  0
  4 43  1  0
  4 44  1  0
  6 45  1  0
  7 46  1  0
  8 47  1  0
  9 48  1  0
 10 49  1  0
 12 50  1  0
 12 51  1  0
 13 52  1  0
 13 53  1  0
 14 54  1  0
 19 55  1  0
 19 56  1  0
 20 57  1  0
 20 58  1  0
 22 59  1  0
 23 60  1  0
 24 61  1  0
 25 62  1  0
 27 63  1  0
 27 64  1  0
 31 65  1  0
 31 66  1  0
 32 67  1  0
 32 68  1  0
 34 69  1  0
 35 70  1  0
 36 71  1  0
 37 72  1  0
 39 73  1  0
 39 74  1  0
 41 75  1  0
 41 76  1  0
 42 77  1  0
 42 78  1  0
M  END
>  <smiles>  (2) 
O=S(=O)(Cc1ccccc1)N1CCC(c2nc(N3CCc4ccccc4C3)nc(N3CCc4ccccc4C3)n2)CC1

>  <score_type>  (2) 
oracle

>  <origin>  (2) 
autodockgpu

>  <m_score__min__energy>  (2) 
-12.01

>  <m_primary>  (2) 
energy

>  <rmsd>  (2) 
11.345244149008183

>  <m_score__min__rmsd>  (2) 
11.345244149008183

>  <meeko>  (2) 
{"free_energy": -11.13, "intermolecular_energy": -12.92, "internal_energy": -1.67, "cluster_size": 32, "cluster_id": 1, "rank_in_cluster": 21}

>  <energy>  (2) 
-11.92

>  <cluster_rmsd>  (2) 
0.82

>  <cluster>  (2) 
1

$$$$

     RDKit          3D

 78 84  0  0  0  0  0  0  0  0999 V2000
  137.7360   80.4260  221.6630 O   0  0  0  0  0  0  0  0  0  0  0  0
  137.9120   79.2330  222.5910 S   0  0  0  0  0  0  0  0  0  0  0  0
  136.5530   78.8920  223.1770 O   0  0  0  0  0  0  0  0  0  0  0  0
  138.9270   79.7520  223.9270 C   0  0  0  0  0  0  0  0  0  0  0  0
  140.2840   80.0830  223.4660 C   0  0  0  0  0  0  0  0  0  0  0  0
  141.3060   79.2170  223.8370 C   0  0  0  0  0  0  0  0  0  0  0  0
  142.6300   79.4600  223.4870 C   0  0  0  0  0  0  0  0  0  0  0  0
  142.9650   80.5850  222.7530 C   0  0  0  0  0  0  0  0  0  0  0  0
  141.9490   81.4390  222.3900 C   0  0  0  0  0  0  0  0  0  0  0  0
  140.6400   81.1830  222.7440 C   0  0  0  0  0  0  0  0  0  0  0  0
  138.5230   77.9000  221.7930 N   0  0  0  0  0  0  0  0  0  0  0  0
  139.8720   77.8000  221.4590 C   0  0  0  0  0  0  0  0  0  0  0  0
  140.5020   76.4550  221.8090 C   0  0  0  0  0  0  0  0  0  0  0  0
  139.6060   75.3450  221.3080 C   0  0  0  0  0  0  0  0  0  0  0  0
  140.1760   74.0270  221.5990 C   0  0  0  0  0  0  0  0  0  0  0  0
  139.8390   73.2830  222.6870 N   0  0  0  0  0  0  0  0  0  0  0  0
  140.3770   72.0830  222.9260 C   0  0  0  0  0  0  0  0  0  0  0  0
  139.9510   71.3930  224.0930 N   0  0  0  0  0  0  0  0  0  0  0  0
  138.9080   70.4070  223.9710 C   0  0  0  0  0  0  0  0  0  0  0  0
  139.5250   69.0500  224.3300 C   0  0  0  0  0  0  0  0  0  0  0  0
  140.0800   69.1870  225.7020 C   0  0  0  0  0  0  0  0  0  0  0  0
  140.1230   68.0410  226.4740 C   0  0  0  0  0  0  0  0  0  0  0  0
  140.6290   68.0990  227.7610 C   0  0  0  0  0  0  0  0  0  0  0  0
  141.0850   69.3040  228.2550 C   0  0  0  0  0  0  0  0  0  0  0  0
  141.0510   70.4690  227.4940 C   0  0  0  0  0  0  0  0  0  0  0  0
  140.5420   70.3790  226.2170 C   0  0  0  0  0  0  0  0  0  0  0  0
  140.5080   71.6240  225.4080 C   0  0  0  0  0  0  0  0  0  0  0  0
  141.2800   71.5950  222.0600 N   0  0  0  0  0  0  0  0  0  0  0  0
  141.6620   72.2820  220.9550 C   0  0  0  0  0  0  0  0  0  0  0  0
  142.6190   71.7750  220.0320 N   0  0  0  0  0  0  0  0  0  0  0  0
  143.8440   72.5230  219.8520 C   0  0  0  0  0  0  0  0  0  0  0  0
  144.9510   71.7550  219.2110 C   0  0  0  0  0  0  0  0  0  0  0  0
  144.7650   70.2880  219.3070 C   0  0  0  0  0  0  0  0  0  0  0  0
  145.8700   69.4620  219.3420 C   0  0  0  0  0  0  0  0  0  0  0  0
  145.7210   68.0750  219.4320 C   0  0  0  0  0  0  0  0  0  0  0  0
  144.4660   67.4990  219.4880 C   0  0  0  0  0  0  0  0  0  0  0  0
  143.3420   68.3250  219.4540 C   0  0  0  0  0  0  0  0  0  0  0  0
  143.5260   69.6910  219.3640 C   0  0  0  0  0  0  0  0  0  0  0  0
  142.3370   70.5620  219.3260 C   0  0  0  0  0  0  0  0  0  0  0  0
  141.0850   73.4830  220.7700 N   0  0  0  0  0  0  0  0  0  0  0  0
  138.2740   75.4990  222.0050 C   0  0  0  0  0  0  0  0  0  0  0  0
  137.6660   76.7920  221.5770 C   0  0  0  0  0  0  0  0  0  0  0  0
  138.4793   80.6420  224.3932 H   0  0  0  0  0  0  0  0  0  0  0  0
  138.9966   78.9280  224.6524 H   0  0  0  0  0  0  0  0  0  0  0  0
  141.0618   78.3178  224.4216 H   0  0  0  0  0  0  0  0  0  0  0  0
  143.4155   78.7542  223.7952 H   0  0  0  0  0  0  0  0  0  0  0  0
  144.0081   80.7892  222.4696 H   0  0  0  0  0  0  0  0  0  0  0  0
  142.1844   82.3418  221.8073 H   0  0  0  0  0  0  0  0  0  0  0  0
  139.8573   81.8906  222.4330 H   0  0  0  0  0  0  0  0  0  0  0  0
  139.9721   77.9567  220.3748 H   0  0  0  0  0  0  0  0  0  0  0  0
  140.4024   78.5620  222.0489 H   0  0  0  0  0  0  0  0  0  0  0  0
  141.4897   76.3753  221.3315 H   0  0  0  0  0  0  0  0  0  0  0  0
  140.6199   76.3730  222.8996 H   0  0  0  0  0  0  0  0  0  0  0  0
  139.4956   75.4150  220.2158 H   0  0  0  0  0  0  0  0  0  0  0  0
  138.0846   70.6415  224.6617 H   0  0  0  0  0  0  0  0  0  0  0  0
  138.5002   70.3933  222.9495 H   0  0  0  0  0  0  0  0  0  0  0  0
  138.7547   68.2650  224.3086 H   0  0  0  0  0  0  0  0  0  0  0  0
  140.3080   68.7670  223.6112 H   0  0  0  0  0  0  0  0  0  0  0  0
  139.7566   67.0870  226.0671 H   0  0  0  0  0  0  0  0  0  0  0  0
  140.6672   67.1932  228.3840 H   0  0  0  0  0  0  0  0  0  0  0  0
  141.4864   69.3451  229.2783 H   0  0  0  0  0  0  0  0  0  0  0  0
  141.4166   71.4251  227.8969 H   0  0  0  0  0  0  0  0  0  0  0  0
  139.8921   72.3713  225.9297 H   0  0  0  0  0  0  0  0  0  0  0  0
  141.5411   71.9810  225.2848 H   0  0  0  0  0  0  0  0  0  0  0  0
  143.6230   73.3972  219.2220 H   0  0  0  0  0  0  0  0  0  0  0  0
  144.1946   72.7948  220.8586 H   0  0  0  0  0  0  0  0  0  0  0  0
  145.0021   72.0336  218.1481 H   0  0  0  0  0  0  0  0  0  0  0  0
  145.8795   72.0060  219.7447 H   0  0  0  0  0  0  0  0  0  0  0  0
  146.8783   69.8995  219.2986 H   0  0  0  0  0  0  0  0  0  0  0  0
  146.6143   67.4337  219.4586 H   0  0  0  0  0  0  0  0  0  0  0  0
  144.3550   66.4069  219.5583 H   0  0  0  0  0  0  0  0  0  0  0  0
  142.3297   67.8969  219.4980 H   0  0  0  0  0  0  0  0  0  0  0  0
  142.0848   70.7948  218.2809 H   0  0  0  0  0  0  0  0  0  0  0  0
  141.4873   70.0481  219.7992 H   0  0  0  0  0  0  0  0  0  0  0  0
  137.6108   74.6665  221.7272 H   0  0  0  0  0  0  0  0  0  0  0  0
  138.4148   75.4901  223.0959 H   0  0  0  0  0  0  0  0  0  0  0  0
  137.4324   76.7323  220.5037 H   0  0  0  0  0  0  0  0  0  0  0  0
  136.7618   76.9495  222.1832 H   0  0  0  0  0  0  0  0  0  0  0  0
  1  2  2  0
  2  3  2  0
  2  4  1  0
  4  5  1  0
  5  6  2  0
  6  7  1  0
  7  8  2  0
  8  9  1  0
  9 10  2  0
  2 11  1  0
 11 12  1  0
 12 13  1  0
 13 14  1  0
 14 15  1  0
 15 16  2  0
 16 17  1  0
 17 18  1  0
 18 19  1  0
 19 20  1  0
 20 21  1  0
 21 22  2  0
 22 23  1  0
 23 24  2  0
 24 25  1  0
 25 26  2  0
 26 27  1  0
 17 28  2  0
 28 29  1  0
 29 30  1  0
 30 31  1  0
 31 32  1  0
 32 33  1  0
 33 34  2  0
 34 35  1  0
 35 36  2  0
 36 37  1  0
 37 38  2  0
 38 39  1  0
 29 40  2  0
 14 41  1  0
 41 42  1  0
 10  5  1  0
 42 11  1  0
 40 15  1  0
 27 18  1  0
 39 30  1  0
 26 21  1  0
 38 33  1  0
  4 43  1  0
  4 44  1  0
  6 45  1  0
  7 46  1  0
  8 47  1  0
  9 48  1  0
 10 49  1  0
 12 50  1  0
 12 51  1  0
 13 52  1  0
 13 53  1  0
 14 54  1  0
 19 55  1  0
 19 56  1  0
 20 57  1  0
 20 58  1  0
 22 59  1  0
 23 60  1  0
 24 61  1  0
 25 62  1  0
 27 63  1  0
 27 64  1  0
 31 65  1  0
 31 66  1  0
 32 67  1  0
 32 68  1  0
 34 69  1  0
 35 70  1  0
 36 71  1  0
 37 72  1  0
 39 73  1  0
 39 74  1  0
 41 75  1  0
 41 76  1  0
 42 77  1  0
 42 78  1  0
M  END
>  <smiles>  (3) 
O=S(=O)(Cc1ccccc1)N1CCC(c2nc(N3CCc4ccccc4C3)nc(N3CCc4ccccc4C3)n2)CC1

>  <score_type>  (3) 
oracle

>  <origin>  (3) 
autodockgpu

>  <m_score__min__energy>  (3) 
-12.01

>  <m_primary>  (3) 
energy

>  <rmsd>  (3) 
11.398273346628082

>  <m_score__min__rmsd>  (3) 
11.398273346628082

>  <meeko>  (3) 
{"free_energy": -11.9, "intermolecular_energy": -13.69, "internal_energy": -1.76, "cluster_size": 32, "cluster_id": 1, "rank_in_cluster": 4}

>  <energy>  (3) 
-11.9

>  <cluster_rmsd>  (3) 
0.72

>  <cluster>  (3) 
1

$$$$

     RDKit          3D

 78 84  0  0  0  0  0  0  0  0999 V2000
  142.8960   80.0030  222.2630 O   0  0  0  0  0  0  0  0  0  0  0  0
  141.7450   79.9790  221.2680 S   0  0  0  0  0  0  0  0  0  0  0  0
  142.3180   80.2210  219.8840 O   0  0  0  0  0  0  0  0  0  0  0  0
  140.7050   81.3470  221.6350 C   0  0  0  0  0  0  0  0  0  0  0  0
  139.5590   80.9370  222.4590 C   0  0  0  0  0  0  0  0  0  0  0  0
  138.3800   80.6240  221.7920 C   0  0  0  0  0  0  0  0  0  0  0  0
  137.2260   80.2640  222.4810 C   0  0  0  0  0  0  0  0  0  0  0  0
  137.2240   80.2090  223.8640 C   0  0  0  0  0  0  0  0  0  0  0  0
  138.3940   80.5200  224.5190 C   0  0  0  0  0  0  0  0  0  0  0  0
  139.5310   80.8750  223.8210 C   0  0  0  0  0  0  0  0  0  0  0  0
  140.9280   78.5230  221.2850 N   0  0  0  0  0  0  0  0  0  0  0  0
  140.6520   77.8230  220.1110 C   0  0  0  0  0  0  0  0  0  0  0  0
  140.9820   76.3350  220.1810 C   0  0  0  0  0  0  0  0  0  0  0  0
  140.4010   75.7610  221.4540 C   0  0  0  0  0  0  0  0  0  0  0  0
  140.6710   74.3250  221.5630 C   0  0  0  0  0  0  0  0  0  0  0  0
  141.4830   73.6430  220.7110 N   0  0  0  0  0  0  0  0  0  0  0  0
  141.7080   72.3310  220.8360 C   0  0  0  0  0  0  0  0  0  0  0  0
  142.5750   71.7210  219.8900 N   0  0  0  0  0  0  0  0  0  0  0  0
  143.5850   72.5300  219.2550 C   0  0  0  0  0  0  0  0  0  0  0  0
  144.9460   71.9850  219.7000 C   0  0  0  0  0  0  0  0  0  0  0  0
  144.9770   70.5510  219.3100 C   0  0  0  0  0  0  0  0  0  0  0  0
  146.2170   70.0080  219.0280 C   0  0  0  0  0  0  0  0  0  0  0  0
  146.3160   68.6780  218.6600 C   0  0  0  0  0  0  0  0  0  0  0  0
  145.1720   67.9110  218.5800 C   0  0  0  0  0  0  0  0  0  0  0  0
  143.9140   68.4370  218.8600 C   0  0  0  0  0  0  0  0  0  0  0  0
  143.8480   69.7650  219.2240 C   0  0  0  0  0  0  0  0  0  0  0  0
  142.5050   70.3230  219.5230 C   0  0  0  0  0  0  0  0  0  0  0  0
  141.1120   71.6650  221.8370 N   0  0  0  0  0  0  0  0  0  0  0  0
  140.2910   72.2810  222.7230 C   0  0  0  0  0  0  0  0  0  0  0  0
  139.6540   71.5850  223.7890 N   0  0  0  0  0  0  0  0  0  0  0  0
  138.3630   70.9880  223.5260 C   0  0  0  0  0  0  0  0  0  0  0  0
  137.9460   69.9510  224.5140 C   0  0  0  0  0  0  0  0  0  0  0  0
  139.0860   69.3950  225.2820 C   0  0  0  0  0  0  0  0  0  0  0  0
  139.0250   68.1000  225.7530 C   0  0  0  0  0  0  0  0  0  0  0  0
  140.0870   67.5540  226.4790 C   0  0  0  0  0  0  0  0  0  0  0  0
  141.2220   68.2970  226.7420 C   0  0  0  0  0  0  0  0  0  0  0  0
  141.2950   69.6080  226.2700 C   0  0  0  0  0  0  0  0  0  0  0  0
  140.2270   70.1150  225.5560 C   0  0  0  0  0  0  0  0  0  0  0  0
  140.3050   71.5020  225.0600 C   0  0  0  0  0  0  0  0  0  0  0  0
  140.1040   73.6010  222.5450 N   0  0  0  0  0  0  0  0  0  0  0  0
  141.0430   76.4970  222.6080 C   0  0  0  0  0  0  0  0  0  0  0  0
  140.6340   77.9290  222.5380 C   0  0  0  0  0  0  0  0  0  0  0  0
  141.2871   82.1040  222.1810 H   0  0  0  0  0  0  0  0  0  0  0  0
  140.3242   81.7590  220.6888 H   0  0  0  0  0  0  0  0  0  0  0  0
  138.3590   80.6619  220.6929 H   0  0  0  0  0  0  0  0  0  0  0  0
  136.3095   80.0216  221.9231 H   0  0  0  0  0  0  0  0  0  0  0  0
  136.3183   79.9264  224.4207 H   0  0  0  0  0  0  0  0  0  0  0  0
  138.4236   80.4851  225.6180 H   0  0  0  0  0  0  0  0  0  0  0  0
  140.4456   81.1161  224.3827 H   0  0  0  0  0  0  0  0  0  0  0  0
  139.5798   77.9290  219.8895 H   0  0  0  0  0  0  0  0  0  0  0  0
  141.2923   78.2535  219.3269 H   0  0  0  0  0  0  0  0  0  0  0  0
  140.5471   75.8195  219.3120 H   0  0  0  0  0  0  0  0  0  0  0  0
  142.0731   76.1957  220.1747 H   0  0  0  0  0  0  0  0  0  0  0  0
  139.3082   75.8861  221.4583 H   0  0  0  0  0  0  0  0  0  0  0  0
  143.4906   72.4613  218.1612 H   0  0  0  0  0  0  0  0  0  0  0  0
  143.4751   73.5870  219.5392 H   0  0  0  0  0  0  0  0  0  0  0  0
  145.7569   72.5327  219.1975 H   0  0  0  0  0  0  0  0  0  0  0  0
  145.0859   72.1044  220.7845 H   0  0  0  0  0  0  0  0  0  0  0  0
  147.1211   70.6309  219.0960 H   0  0  0  0  0  0  0  0  0  0  0  0
  147.2976   68.2363  218.4333 H   0  0  0  0  0  0  0  0  0  0  0  0
  145.2564   66.8542  218.2867 H   0  0  0  0  0  0  0  0  0  0  0  0
  143.0078   67.8171  218.7934 H   0  0  0  0  0  0  0  0  0  0  0  0
  141.8697   70.2202  218.6309 H   0  0  0  0  0  0  0  0  0  0  0  0
  142.0843   69.7663  220.3733 H   0  0  0  0  0  0  0  0  0  0  0  0
  137.6080   71.7880  223.5288 H   0  0  0  0  0  0  0  0  0  0  0  0
  138.4472   70.4779  222.5551 H   0  0  0  0  0  0  0  0  0  0  0  0
  137.2349   70.4046  225.2201 H   0  0  0  0  0  0  0  0  0  0  0  0
  137.4914   69.1224  223.9512 H   0  0  0  0  0  0  0  0  0  0  0  0
  138.1309   67.4905  225.5551 H   0  0  0  0  0  0  0  0  0  0  0  0
  140.0185   66.5192  226.8459 H   0  0  0  0  0  0  0  0  0  0  0  0
  142.0546   67.8619  227.3143 H   0  0  0  0  0  0  0  0  0  0  0  0
  142.1850   70.2251  226.4626 H   0  0  0  0  0  0  0  0  0  0  0  0
  139.8074   72.1760  225.7728 H   0  0  0  0  0  0  0  0  0  0  0  0
  141.3592   71.7979  224.9549 H   0  0  0  0  0  0  0  0  0  0  0  0
  140.7068   76.0606  223.5601 H   0  0  0  0  0  0  0  0  0  0  0  0
  142.1381   76.4131  222.5477 H   0  0  0  0  0  0  0  0  0  0  0  0
  139.5498   77.9939  222.7121 H   0  0  0  0  0  0  0  0  0  0  0  0
  141.2035   78.4742  223.3051 H   0  0  0  0  0  0  0  0  0  0  0  0
  1  2  2  0
  2  3  2  0
  2  4  1  0
  4  5  1  0
  5  6  2  0
  6  7  1  0
  7  8  2  0
  8  9  1  0
  9 10  2  0
  2 11  1  0
 11 12  1  0
 12 13  1  0
 13 14  1  0
 14 15  1  0
 15 16  2  0
 16 17  1  0
 17 18  1  0
 18 19  1  0
 19 20  1  0
 20 21  1  0
 21 22  2  0
 22 23  1  0
 23 24  2  0
 24 25  1  0
 25 26  2  0
 26 27  1  0
 17 28  2  0
 28 29  1  0
 29 30  1  0
 30 31  1  0
 31 32  1  0
 32 33  1  0
 33 34  2  0
 34 35  1  0
 35 36  2  0
 36 37  1  0
 37 38  2  0
 38 39  1  0
 29 40  2  0
 14 41  1  0
 41 42  1  0
 10  5  1  0
 42 11  1  0
 40 15  1  0
 27 18  1  0
 39 30  1  0
 26 21  1  0
 38 33  1  0
  4 43  1  0
  4 44  1  0
  6 45  1  0
  7 46  1  0
  8 47  1  0
  9 48  1  0
 10 49  1  0
 12 50  1  0
 12 51  1  0
 13 52  1  0
 13 53  1  0
 14 54  1  0
 19 55  1  0
 19 56  1  0
 20 57  1  0
 20 58  1  0
 22 59  1  0
 23 60  1  0
 24 61  1  0
 25 62  1  0
 27 63  1  0
 27 64  1  0
 31 65  1  0
 31 66  1  0
 32 67  1  0
 32 68  1  0
 34 69  1  0
 35 70  1  0
 36 71  1  0
 37 72  1  0
 39 73  1  0
 39 74  1  0
 41 75  1  0
 41 76  1  0
 42 77  1  0
 42 78  1  0
M  END
>  <smiles>  (4) 
O=S(=O)(Cc1ccccc1)N1CCC(c2nc(N3CCc4ccccc4C3)nc(N3CCc4ccccc4C3)n2)CC1

>  <score_type>  (4) 
oracle

>  <origin>  (4) 
autodockgpu

>  <m_score__min__energy>  (4) 
-12.01

>  <m_primary>  (4) 
energy

>  <rmsd>  (4) 
10.43792220945387

>  <m_score__min__rmsd>  (4) 
10.43792220945387

>  <meeko>  (4) 
{"free_energy": -10.59, "intermolecular_energy": -12.38, "internal_energy": -1.9, "cluster_size": 32, "cluster_id": 1, "rank_in_cluster": 32}

>  <energy>  (4) 
-11.9

>  <cluster_rmsd>  (4) 
0.75

>  <cluster>  (4) 
1

$$$$

     RDKit          3D

 78 84  0  0  0  0  0  0  0  0999 V2000
  147.0730   69.4760  218.6120 O   0  0  0  0  0  0  0  0  0  0  0  0
  145.7310   68.8290  218.9230 S   0  0  0  0  0  0  0  0  0  0  0  0
  145.8490   68.1310  220.2660 O   0  0  0  0  0  0  0  0  0  0  0  0
  145.4610   67.5770  217.7210 C   0  0  0  0  0  0  0  0  0  0  0  0
  146.3510   67.7500  216.5640 C   0  0  0  0  0  0  0  0  0  0  0  0
  146.3330   68.9880  215.9310 C   0  0  0  0  0  0  0  0  0  0  0  0
  147.1080   69.2420  214.8030 C   0  0  0  0  0  0  0  0  0  0  0  0
  147.9260   68.2550  214.2790 C   0  0  0  0  0  0  0  0  0  0  0  0
  147.9390   67.0320  214.9090 C   0  0  0  0  0  0  0  0  0  0  0  0
  147.1640   66.7960  216.0270 C   0  0  0  0  0  0  0  0  0  0  0  0
  144.4930   69.9460  218.9840 N   0  0  0  0  0  0  0  0  0  0  0  0
  143.1590   69.5730  218.8260 C   0  0  0  0  0  0  0  0  0  0  0  0
  142.2180   70.1720  219.8670 C   0  0  0  0  0  0  0  0  0  0  0  0
  142.4870   71.6550  219.9800 C   0  0  0  0  0  0  0  0  0  0  0  0
  141.5930   72.2880  220.9530 C   0  0  0  0  0  0  0  0  0  0  0  0
  141.0780   71.6430  222.0350 N   0  0  0  0  0  0  0  0  0  0  0  0
  140.2630   72.2470  222.9050 C   0  0  0  0  0  0  0  0  0  0  0  0
  139.7860   71.4780  224.0010 N   0  0  0  0  0  0  0  0  0  0  0  0
  138.6700   70.5910  223.7890 C   0  0  0  0  0  0  0  0  0  0  0  0
  139.1810   69.1620  224.0060 C   0  0  0  0  0  0  0  0  0  0  0  0
  139.7450   69.1180  225.3790 C   0  0  0  0  0  0  0  0  0  0  0  0
  139.7010   67.9000  226.0330 C   0  0  0  0  0  0  0  0  0  0  0  0
  140.2100   67.7890  227.3150 C   0  0  0  0  0  0  0  0  0  0  0  0
  140.7570   68.9000  227.9230 C   0  0  0  0  0  0  0  0  0  0  0  0
  140.8130   70.1350  227.2840 C   0  0  0  0  0  0  0  0  0  0  0  0
  140.2980   70.2130  226.0080 C   0  0  0  0  0  0  0  0  0  0  0  0
  140.3590   71.5320  225.3280 C   0  0  0  0  0  0  0  0  0  0  0  0
  139.9430   73.5350  222.7050 N   0  0  0  0  0  0  0  0  0  0  0  0
  140.4190   74.2390  221.6480 C   0  0  0  0  0  0  0  0  0  0  0  0
  140.0860   75.6050  221.4260 N   0  0  0  0  0  0  0  0  0  0  0  0
  138.7010   75.9260  221.1620 C   0  0  0  0  0  0  0  0  0  0  0  0
  138.3510   77.3640  221.3460 C   0  0  0  0  0  0  0  0  0  0  0  0
  139.3270   78.0900  222.1930 C   0  0  0  0  0  0  0  0  0  0  0  0
  138.9060   79.1680  222.9470 C   0  0  0  0  0  0  0  0  0  0  0  0
  139.8080   79.8690  223.7530 C   0  0  0  0  0  0  0  0  0  0  0  0
  141.1380   79.5000  223.8150 C   0  0  0  0  0  0  0  0  0  0  0  0
  141.5740   78.4120  223.0570 C   0  0  0  0  0  0  0  0  0  0  0  0
  140.6560   77.7430  222.2710 C   0  0  0  0  0  0  0  0  0  0  0  0
  141.1190   76.5950  221.4710 C   0  0  0  0  0  0  0  0  0  0  0  0
  141.2340   73.5760  220.8080 N   0  0  0  0  0  0  0  0  0  0  0  0
  143.9250   71.8150  220.4180 C   0  0  0  0  0  0  0  0  0  0  0  0
  144.8070   71.2820  219.3390 C   0  0  0  0  0  0  0  0  0  0  0  0
  145.6523   66.5945  218.1771 H   0  0  0  0  0  0  0  0  0  0  0  0
  144.4198   67.6470  217.3730 H   0  0  0  0  0  0  0  0  0  0  0  0
  145.6906   69.7861  216.3315 H   0  0  0  0  0  0  0  0  0  0  0  0
  147.0705   70.2321  214.3252 H   0  0  0  0  0  0  0  0  0  0  0  0
  148.5446   68.4426  213.3890 H   0  0  0  0  0  0  0  0  0  0  0  0
  148.5781   66.2280  214.5150 H   0  0  0  0  0  0  0  0  0  0  0  0
  147.2038   65.8041  216.5009 H   0  0  0  0  0  0  0  0  0  0  0  0
  142.8247   69.8987  217.8299 H   0  0  0  0  0  0  0  0  0  0  0  0
  143.1176   68.4810  218.9515 H   0  0  0  0  0  0  0  0  0  0  0  0
  141.1749   70.0091  219.5580 H   0  0  0  0  0  0  0  0  0  0  0  0
  142.3863   69.6891  220.8409 H   0  0  0  0  0  0  0  0  0  0  0  0
  142.3072   72.1436  219.0110 H   0  0  0  0  0  0  0  0  0  0  0  0
  137.8669   70.8173  224.5059 H   0  0  0  0  0  0  0  0  0  0  0  0
  138.2625   70.7108  222.7743 H   0  0  0  0  0  0  0  0  0  0  0  0
  138.3527   68.4443  223.9126 H   0  0  0  0  0  0  0  0  0  0  0  0
  139.9398   68.8935  223.2562 H   0  0  0  0  0  0  0  0  0  0  0  0
  139.2627   67.0222  225.5355 H   0  0  0  0  0  0  0  0  0  0  0  0
  140.1788   66.8249  227.8438 H   0  0  0  0  0  0  0  0  0  0  0  0
  141.1605   68.8070  228.9421 H   0  0  0  0  0  0  0  0  0  0  0  0
  141.2512   71.0147  227.7781 H   0  0  0  0  0  0  0  0  0  0  0  0
  139.8021   72.2677  225.9269 H   0  0  0  0  0  0  0  0  0  0  0  0
  141.4165   71.8196  225.2329 H   0  0  0  0  0  0  0  0  0  0  0  0
  138.4769   75.6488  220.1214 H   0  0  0  0  0  0  0  0  0  0  0  0
  138.1053   75.3638  221.8962 H   0  0  0  0  0  0  0  0  0  0  0  0
  138.3163   77.8463  220.3580 H   0  0  0  0  0  0  0  0  0  0  0  0
  137.3767   77.4047  221.8550 H   0  0  0  0  0  0  0  0  0  0  0  0
  137.8511   79.4779  222.9130 H   0  0  0  0  0  0  0  0  0  0  0  0
  139.4542   80.7255  224.3456 H   0  0  0  0  0  0  0  0  0  0  0  0
  141.8425   80.0551  224.4519 H   0  0  0  0  0  0  0  0  0  0  0  0
  142.6267   78.0940  223.0850 H   0  0  0  0  0  0  0  0  0  0  0  0
  141.3531   76.9291  220.4494 H   0  0  0  0  0  0  0  0  0  0  0  0
  142.0223   76.1658  221.9291 H   0  0  0  0  0  0  0  0  0  0  0  0
  144.1459   72.8793  220.5868 H   0  0  0  0  0  0  0  0  0  0  0  0
  144.0986   71.2651  221.3548 H   0  0  0  0  0  0  0  0  0  0  0  0
  144.6964   71.9178  218.4482 H   0  0  0  0  0  0  0  0  0  0  0  0
  145.8389   71.2901  219.7199 H   0  0  0  0  0  0  0  0  0  0  0  0
  1  2  2  0
  2  3  2  0
  2  4  1  0
  4  5  1  0
  5  6  2  0
  6  7  1  0
  7  8  2  0
  8  9  1  0
  9 10  2  0
  2 11  1  0
 11 12  1  0
 12 13  1  0
 13 14  1  0
 14 15  1  0
 15 16  2  0
 16 17  1  0
 17 18  1  0
 18 19  1  0
 19 20  1  0
 20 21  1  0
 21 22  2  0
 22 23  1  0
 23 24  2  0
 24 25  1  0
 25 26  2  0
 26 27  1  0
 17 28  2  0
 28 29  1  0
 29 30  1  0
 30 31  1  0
 31 32  1  0
 32 33  1  0
 33 34  2  0
 34 35  1  0
 35 36  2  0
 36 37  1  0
 37 38  2  0
 38 39  1  0
 29 40  2  0
 14 41  1  0
 41 42  1  0
 10  5  1  0
 42 11  1  0
 40 15  1  0
 27 18  1  0
 39 30  1  0
 26 21  1  0
 38 33  1  0
  4 43  1  0
  4 44  1  0
  6 45  1  0
  7 46  1  0
  8 47  1  0
  9 48  1  0
 10 49  1  0
 12 50  1  0
 12 51  1  0
 13 52  1  0
 13 53  1  0
 14 54  1  0
 19 55  1  0
 19 56  1  0
 20 57  1  0
 20 58  1  0
 22 59  1  0
 23 60  1  0
 24 61  1  0
 25 62  1  0
 27 63  1  0
 27 64  1  0
 31 65  1  0
 31 66  1  0
 32 67  1  0
 32 68  1  0
 34 69  1  0
 35 70  1  0
 36 71  1  0
 37 72  1  0
 39 73  1  0
 39 74  1  0
 41 75  1  0
 41 76  1  0
 42 77  1  0
 42 78  1  0
M  END
>  <smiles>  (5) 
O=S(=O)(Cc1ccccc1)N1CCC(c2nc(N3CCc4ccccc4C3)nc(N3CCc4ccccc4C3)n2)CC1

>  <score_type>  (5) 
oracle

>  <origin>  (5) 
autodockgpu

>  <m_score__min__energy>  (5) 
-12.01

>  <m_primary>  (5) 
energy

>  <rmsd>  (5) 
11.368733351472853

>  <m_score__min__rmsd>  (5) 
11.368733351472853

>  <meeko>  (5) 
{"free_energy": -11.76, "intermolecular_energy": -13.55, "internal_energy": -1.62, "cluster_size": 8, "cluster_id": 2, "rank_in_cluster": 1}

>  <energy>  (5) 
-11.82

>  <cluster_rmsd>  (5) 
0.52

>  <cluster>  (5) 
1

$$$$

     RDKit          3D

 78 84  0  0  0  0  0  0  0  0999 V2000
  142.9000   80.1280  222.0860 O   0  0  0  0  0  0  0  0  0  0  0  0
  141.3900   80.0430  221.9140 S   0  0  0  0  0  0  0  0  0  0  0  0
  140.9770   81.0890  220.8940 O   0  0  0  0  0  0  0  0  0  0  0  0
  140.6610   80.5080  223.4430 C   0  0  0  0  0  0  0  0  0  0  0  0
  139.2030   80.6480  223.3160 C   0  0  0  0  0  0  0  0  0  0  0  0
  138.4520   80.5220  224.4800 C   0  0  0  0  0  0  0  0  0  0  0  0
  137.0630   80.5980  224.4630 C   0  0  0  0  0  0  0  0  0  0  0  0
  136.3880   80.8030  223.2720 C   0  0  0  0  0  0  0  0  0  0  0  0
  137.1360   80.9260  222.1240 C   0  0  0  0  0  0  0  0  0  0  0  0
  138.5140   80.8490  222.1570 C   0  0  0  0  0  0  0  0  0  0  0  0
  140.8990   78.5350  221.3940 N   0  0  0  0  0  0  0  0  0  0  0  0
  141.4730   77.9190  220.2840 C   0  0  0  0  0  0  0  0  0  0  0  0
  141.8530   76.4580  220.5100 C   0  0  0  0  0  0  0  0  0  0  0  0
  140.6850   75.7380  221.1450 C   0  0  0  0  0  0  0  0  0  0  0  0
  140.9880   74.3210  221.3650 C   0  0  0  0  0  0  0  0  0  0  0  0
  140.4150   73.5700  222.3440 N   0  0  0  0  0  0  0  0  0  0  0  0
  140.7130   72.2790  222.5210 C   0  0  0  0  0  0  0  0  0  0  0  0
  140.0530   71.5910  223.5750 N   0  0  0  0  0  0  0  0  0  0  0  0
  138.8310   70.8860  223.2820 C   0  0  0  0  0  0  0  0  0  0  0  0
  139.1030   69.3960  223.5160 C   0  0  0  0  0  0  0  0  0  0  0  0
  139.5630   69.2650  224.9230 C   0  0  0  0  0  0  0  0  0  0  0  0
  139.2900   68.0670  225.5590 C   0  0  0  0  0  0  0  0  0  0  0  0
  139.6910   67.8790  226.8700 C   0  0  0  0  0  0  0  0  0  0  0  0
  140.3610   68.8930  227.5240 C   0  0  0  0  0  0  0  0  0  0  0  0
  140.6460   70.1060  226.9030 C   0  0  0  0  0  0  0  0  0  0  0  0
  140.2340   70.2620  225.5980 C   0  0  0  0  0  0  0  0  0  0  0  0
  140.5400   71.5570  224.9380 C   0  0  0  0  0  0  0  0  0  0  0  0
  141.6080   71.7040  221.7020 N   0  0  0  0  0  0  0  0  0  0  0  0
  142.2180   72.3920  220.7050 C   0  0  0  0  0  0  0  0  0  0  0  0
  143.1680   71.7930  219.8320 N   0  0  0  0  0  0  0  0  0  0  0  0
  144.4500   72.4460  219.6810 C   0  0  0  0  0  0  0  0  0  0  0  0
  145.5210   71.5840  219.1020 C   0  0  0  0  0  0  0  0  0  0  0  0
  145.2260   70.1370  219.2270 C   0  0  0  0  0  0  0  0  0  0  0  0
  146.2670   69.2350  219.3260 C   0  0  0  0  0  0  0  0  0  0  0  0
  146.0150   67.8660  219.4440 C   0  0  0  0  0  0  0  0  0  0  0  0
  144.7200   67.3820  219.4670 C   0  0  0  0  0  0  0  0  0  0  0  0
  143.6600   68.2860  219.3680 C   0  0  0  0  0  0  0  0  0  0  0  0
  143.9460   69.6320  219.2520 C   0  0  0  0  0  0  0  0  0  0  0  0
  142.8250   70.5840  219.1470 C   0  0  0  0  0  0  0  0  0  0  0  0
  141.8760   73.6870  220.5790 N   0  0  0  0  0  0  0  0  0  0  0  0
  140.4050   76.4190  222.4650 C   0  0  0  0  0  0  0  0  0  0  0  0
  139.9700   77.8180  222.1890 C   0  0  0  0  0  0  0  0  0  0  0  0
  140.8832   79.7372  224.1956 H   0  0  0  0  0  0  0  0  0  0  0  0
  141.0790   81.4790  223.7472 H   0  0  0  0  0  0  0  0  0  0  0  0
  138.9689   80.3583  225.4371 H   0  0  0  0  0  0  0  0  0  0  0  0
  136.4980   80.4946  225.4011 H   0  0  0  0  0  0  0  0  0  0  0  0
  135.2901   80.8655  223.2444 H   0  0  0  0  0  0  0  0  0  0  0  0
  136.6270   81.0886  221.1625 H   0  0  0  0  0  0  0  0  0  0  0  0
  139.0749   80.9533  221.2165 H   0  0  0  0  0  0  0  0  0  0  0  0
  140.7537   77.9644  219.4530 H   0  0  0  0  0  0  0  0  0  0  0  0
  142.4061   78.4600  220.0677 H   0  0  0  0  0  0  0  0  0  0  0  0
  142.0967   75.9870  219.5463 H   0  0  0  0  0  0  0  0  0  0  0  0
  142.7295   76.4002  221.1721 H   0  0  0  0  0  0  0  0  0  0  0  0
  139.8099   75.7821  220.4800 H   0  0  0  0  0  0  0  0  0  0  0  0
  138.0268   71.2319  223.9481 H   0  0  0  0  0  0  0  0  0  0  0  0
  138.5133   71.0677  222.2447 H   0  0  0  0  0  0  0  0  0  0  0  0
  138.1829   68.8133  223.3616 H   0  0  0  0  0  0  0  0  0  0  0  0
  139.8595   69.0155  222.8139 H   0  0  0  0  0  0  0  0  0  0  0  0
  138.7563   67.2672  225.0247 H   0  0  0  0  0  0  0  0  0  0  0  0
  139.4779   66.9310  227.3856 H   0  0  0  0  0  0  0  0  0  0  0  0
  140.6789   68.7383  228.5657 H   0  0  0  0  0  0  0  0  0  0  0  0
  141.1793   70.9084  227.4338 H   0  0  0  0  0  0  0  0  0  0  0  0
  140.0635   72.3687  225.5073 H   0  0  0  0  0  0  0  0  0  0  0  0
  141.6328   71.6807  224.9151 H   0  0  0  0  0  0  0  0  0  0  0  0
  144.3163   73.3165  219.0219 H   0  0  0  0  0  0  0  0  0  0  0  0
  144.7824   72.7188  220.6935 H   0  0  0  0  0  0  0  0  0  0  0  0
  145.6307   71.8291  218.0353 H   0  0  0  0  0  0  0  0  0  0  0  0
  146.4453   71.7827  219.6644 H   0  0  0  0  0  0  0  0  0  0  0  0
  147.3052   69.5982  219.3118 H   0  0  0  0  0  0  0  0  0  0  0  0
  146.8582   67.1636  219.5196 H   0  0  0  0  0  0  0  0  0  0  0  0
  144.5278   66.3031  219.5617 H   0  0  0  0  0  0  0  0  0  0  0  0
  142.6183   67.9329  219.3821 H   0  0  0  0  0  0  0  0  0  0  0  0
  142.6279   70.8047  218.0876 H   0  0  0  0  0  0  0  0  0  0  0  0
  141.9241   70.1453  219.6007 H   0  0  0  0  0  0  0  0  0  0  0  0
  139.6083   75.8807  222.9993 H   0  0  0  0  0  0  0  0  0  0  0  0
  141.3106   76.4207  223.0893 H   0  0  0  0  0  0  0  0  0  0  0  0
  139.0051   77.7885  221.6616 H   0  0  0  0  0  0  0  0  0  0  0  0
  139.8909   78.3372  223.1555 H   0  0  0  0  0  0  0  0  0  0  0  0
  1  2  2  0
  2  3  2  0
  2  4  1  0
  4  5  1  0
  5  6  2  0
  6  7  1  0
  7  8  2  0
  8  9  1  0
  9 10  2  0
  2 11  1  0
 11 12  1  0
 12 13  1  0
 13 14  1  0
 14 15  1  0
 15 16  2  0
 16 17  1  0
 17 18  1  0
 18 19  1  0
 19 20  1  0
 20 21  1  0
 21 22  2  0
 22 23  1  0
 23 24  2  0
 24 25  1  0
 25 26  2  0
 26 27  1  0
 17 28  2  0
 28 29  1  0
 29 30  1  0
 30 31  1  0
 31 32  1  0
 32 33  1  0
 33 34  2  0
 34 35  1  0
 35 36  2  0
 36 37  1  0
 37 38  2  0
 38 39  1  0
 29 40  2  0
 14 41  1  0
 41 42  1  0
 10  5  1  0
 42 11  1  0
 40 15  1  0
 27 18  1  0
 39 30  1  0
 26 21  1  0
 38 33  1  0
  4 43  1  0
  4 44  1  0
  6 45  1  0
  7 46  1  0
  8 47  1  0
  9 48  1  0
 10 49  1  0
 12 50  1  0
 12 51  1  0
 13 52  1  0
 13 53  1  0
 14 54  1  0
 19 55  1  0
 19 56  1  0
 20 57  1  0
 20 58  1  0
 22 59  1  0
 23 60  1  0
 24 61  1  0
 25 62  1  0
 27 63  1  0
 27 64  1  0
 31 65  1  0
 31 66  1  0
 32 67  1  0
 32 68  1  0
 34 69  1  0
 35 70  1  0
 36 71  1  0
 37 72  1  0
 39 73  1  0
 39 74  1  0
 41 75  1  0
 41 76  1  0
 42 77  1  0
 42 78  1  0
M  END
>  <smiles>  (6) 
O=S(=O)(Cc1ccccc1)N1CCC(c2nc(N3CCc4ccccc4C3)nc(N3CCc4ccccc4C3)n2)CC1

>  <score_type>  (6) 
oracle

>  <origin>  (6) 
autodockgpu

>  <m_score__min__energy>  (6) 
-12.01

>  <m_primary>  (6) 
energy

>  <rmsd>  (6) 
11.07051819154533

>  <m_score__min__rmsd>  (6) 
11.07051819154533

>  <meeko>  (6) 
{"free_energy": -11.29, "intermolecular_energy": -13.08, "internal_energy": -1.66, "cluster_size": 32, "cluster_id": 1, "rank_in_cluster": 13}

>  <energy>  (6) 
-11.76

>  <cluster_rmsd>  (6) 
0.91

>  <cluster>  (6) 
1

$$$$

     RDKit          3D

 78 84  0  0  0  0  0  0  0  0999 V2000
  139.5080   80.4220  220.7990 O   0  0  0  0  0  0  0  0  0  0  0  0
  138.6100   79.6260  221.7350 S   0  0  0  0  0  0  0  0  0  0  0  0
  137.2130   80.2150  221.6550 O   0  0  0  0  0  0  0  0  0  0  0  0
  139.1840   79.9000  223.3720 C   0  0  0  0  0  0  0  0  0  0  0  0
  140.6490   80.0300  223.4070 C   0  0  0  0  0  0  0  0  0  0  0  0
  141.1660   81.2070  223.9350 C   0  0  0  0  0  0  0  0  0  0  0  0
  142.5360   81.4470  223.9770 C   0  0  0  0  0  0  0  0  0  0  0  0
  143.4270   80.5060  223.4890 C   0  0  0  0  0  0  0  0  0  0  0  0
  142.9080   79.3430  222.9670 C   0  0  0  0  0  0  0  0  0  0  0  0
  141.5470   79.1200  222.9330 C   0  0  0  0  0  0  0  0  0  0  0  0
  138.5550   78.0080  221.3300 N   0  0  0  0  0  0  0  0  0  0  0  0
  139.2680   77.4980  220.2470 C   0  0  0  0  0  0  0  0  0  0  0  0
  140.0440   76.2210  220.5570 C   0  0  0  0  0  0  0  0  0  0  0  0
  139.1310   75.2510  221.2720 C   0  0  0  0  0  0  0  0  0  0  0  0
  139.8210   73.9940  221.5760 C   0  0  0  0  0  0  0  0  0  0  0  0
  139.5490   73.2290  222.6670 N   0  0  0  0  0  0  0  0  0  0  0  0
  140.1970   72.0870  222.9180 C   0  0  0  0  0  0  0  0  0  0  0  0
  139.8300   71.3680  224.0870 N   0  0  0  0  0  0  0  0  0  0  0  0
  138.8120   70.3530  223.9850 C   0  0  0  0  0  0  0  0  0  0  0  0
  139.4800   69.0100  224.3020 C   0  0  0  0  0  0  0  0  0  0  0  0
  140.0760   69.1430  225.6560 C   0  0  0  0  0  0  0  0  0  0  0  0
  140.1790   67.9870  226.4080 C   0  0  0  0  0  0  0  0  0  0  0  0
  140.7260   68.0400  227.6790 C   0  0  0  0  0  0  0  0  0  0  0  0
  141.1630   69.2510  228.1760 C   0  0  0  0  0  0  0  0  0  0  0  0
  141.0700   70.4260  227.4360 C   0  0  0  0  0  0  0  0  0  0  0  0
  140.5210   70.3400  226.1750 C   0  0  0  0  0  0  0  0  0  0  0  0
  140.4230   71.5960  225.3880 C   0  0  0  0  0  0  0  0  0  0  0  0
  141.1480   71.6810  222.0620 N   0  0  0  0  0  0  0  0  0  0  0  0
  141.4700   72.3940  220.9540 C   0  0  0  0  0  0  0  0  0  0  0  0
  142.4770   71.9740  220.0400 N   0  0  0  0  0  0  0  0  0  0  0  0
  143.6750   72.7780  219.9410 C   0  0  0  0  0  0  0  0  0  0  0  0
  144.8330   72.0890  219.3010 C   0  0  0  0  0  0  0  0  0  0  0  0
  144.7050   70.6120  219.3160 C   0  0  0  0  0  0  0  0  0  0  0  0
  145.8420   69.8300  219.3480 C   0  0  0  0  0  0  0  0  0  0  0  0
  145.7470   68.4360  219.3630 C   0  0  0  0  0  0  0  0  0  0  0  0
  144.5160   67.8080  219.3470 C   0  0  0  0  0  0  0  0  0  0  0  0
  143.3600   68.5900  219.3140 C   0  0  0  0  0  0  0  0  0  0  0  0
  143.4910   69.9650  219.3000 C   0  0  0  0  0  0  0  0  0  0  0  0
  142.2690   70.7880  219.2650 C   0  0  0  0  0  0  0  0  0  0  0  0
  140.7830   73.5340  220.7570 N   0  0  0  0  0  0  0  0  0  0  0  0
  138.6850   75.9190  222.5520 C   0  0  0  0  0  0  0  0  0  0  0  0
  137.8720   77.1190  222.1980 C   0  0  0  0  0  0  0  0  0  0  0  0
  138.7323   80.8246  223.7606 H   0  0  0  0  0  0  0  0  0  0  0  0
  138.8958   79.0377  223.9912 H   0  0  0  0  0  0  0  0  0  0  0  0
  140.4756   81.9672  224.3292 H   0  0  0  0  0  0  0  0  0  0  0  0
  142.9134   82.3896  224.4003 H   0  0  0  0  0  0  0  0  0  0  0  0
  144.5125   80.6819  223.5176 H   0  0  0  0  0  0  0  0  0  0  0  0
  143.5908   78.5775  222.5697 H   0  0  0  0  0  0  0  0  0  0  0  0
  141.1736   78.1761  222.5091 H   0  0  0  0  0  0  0  0  0  0  0  0
  138.5567   77.2817  219.4363 H   0  0  0  0  0  0  0  0  0  0  0  0
  140.0105   78.2605  219.9689 H   0  0  0  0  0  0  0  0  0  0  0  0
  140.4003   75.7693  219.6195 H   0  0  0  0  0  0  0  0  0  0  0  0
  140.9081   76.4572  221.1954 H   0  0  0  0  0  0  0  0  0  0  0  0
  138.2722   75.0019  220.6313 H   0  0  0  0  0  0  0  0  0  0  0  0
  138.0062   70.5531  224.7066 H   0  0  0  0  0  0  0  0  0  0  0  0
  138.3701   70.3420  222.9777 H   0  0  0  0  0  0  0  0  0  0  0  0
  138.7327   68.2028  224.2936 H   0  0  0  0  0  0  0  0  0  0  0  0
  140.2465   68.7611  223.5533 H   0  0  0  0  0  0  0  0  0  0  0  0
  139.8276   67.0287  225.9979 H   0  0  0  0  0  0  0  0  0  0  0  0
  140.8113   67.1266  228.2860 H   0  0  0  0  0  0  0  0  0  0  0  0
  141.5973   69.2886  229.1859 H   0  0  0  0  0  0  0  0  0  0  0  0
  141.4211   71.3862  227.8420 H   0  0  0  0  0  0  0  0  0  0  0  0
  139.8022   72.3159  225.9415 H   0  0  0  0  0  0  0  0  0  0  0  0
  141.4403   71.9865  225.2374 H   0  0  0  0  0  0  0  0  0  0  0  0
  143.4389   73.6744  219.3488 H   0  0  0  0  0  0  0  0  0  0  0  0
  143.9809   73.0106  220.9717 H   0  0  0  0  0  0  0  0  0  0  0  0
  144.9073   72.4244  218.2560 H   0  0  0  0  0  0  0  0  0  0  0  0
  145.7323   72.3485  219.8788 H   0  0  0  0  0  0  0  0  0  0  0  0
  146.8323   70.3087  219.3618 H   0  0  0  0  0  0  0  0  0  0  0  0
  146.6647   67.8301  219.3879 H   0  0  0  0  0  0  0  0  0  0  0  0
  144.4482   66.7102  219.3600 H   0  0  0  0  0  0  0  0  0  0  0  0
  142.3652   68.1208  219.2994 H   0  0  0  0  0  0  0  0  0  0  0  0
  142.0409   71.0637  218.2248 H   0  0  0  0  0  0  0  0  0  0  0  0
  141.4269   70.2168  219.6829 H   0  0  0  0  0  0  0  0  0  0  0  0
  138.0765   75.2193  223.1438 H   0  0  0  0  0  0  0  0  0  0  0  0
  139.5603   76.2176  223.1476 H   0  0  0  0  0  0  0  0  0  0  0  0
  136.9485   76.7844  221.7029 H   0  0  0  0  0  0  0  0  0  0  0  0
  137.6606   77.6630  223.1304 H   0  0  0  0  0  0  0  0  0  0  0  0
  1  2  2  0
  2  3  2  0
  2  4  1  0
  4  5  1  0
  5  6  2  0
  6  7  1  0
  7  8  2  0
  8  9  1  0
  9 10  2  0
  2 11  1  0
 11 12  1  0
 12 13  1  0
 13 14  1  0
 14 15  1  0
 15 16  2  0
 16 17  1  0
 17 18  1  0
 18 19  1  0
 19 20  1  0
 20 21  1  0
 21 22  2  0
 22 23  1  0
 23 24  2  0
 24 25  1  0
 25 26  2  0
 26 27  1  0
 17 28  2  0
 28 29  1  0
 29 30  1  0
 30 31  1  0
 31 32  1  0
 32 33  1  0
 33 34  2  0
 34 35  1  0
 35 36  2  0
 36 37  1  0
 37 38  2  0
 38 39  1  0
 29 40  2  0
 14 41  1  0
 41 42  1  0
 10  5  1  0
 42 11  1  0
 40 15  1  0
 27 18  1  0
 39 30  1  0
 26 21  1  0
 38 33  1  0
  4 43  1  0
  4 44  1  0
  6 45  1  0
  7 46  1  0
  8 47  1  0
  9 48  1  0
 10 49  1  0
 12 50  1  0
 12 51  1  0
 13 52  1  0
 13 53  1  0
 14 54  1  0
 19 55  1  0
 19 56  1  0
 20 57  1  0
 20 58  1  0
 22 59  1  0
 23 60  1  0
 24 61  1  0
 25 62  1  0
 27 63  1  0
 27 64  1  0
 31 65  1  0
 31 66  1  0
 32 67  1  0
 32 68  1  0
 34 69  1  0
 35 70  1  0
 36 71  1  0
 37 72  1  0
 39 73  1  0
 39 74  1  0
 41 75  1  0
 41 76  1  0
 42 77  1  0
 42 78  1  0
M  END
>  <smiles>  (7) 
O=S(=O)(Cc1ccccc1)N1CCC(c2nc(N3CCc4ccccc4C3)nc(N3CCc4ccccc4C3)n2)CC1

>  <score_type>  (7) 
oracle

>  <origin>  (7) 
autodockgpu

>  <m_score__min__energy>  (7) 
-12.01

>  <m_primary>  (7) 
energy

>  <rmsd>  (7) 
11.407859225777049

>  <m_score__min__rmsd>  (7) 
11.407859225777049

>  <meeko>  (7) 
{"free_energy": -11.22, "intermolecular_energy": -13.01, "internal_energy": -1.88, "cluster_size": 32, "cluster_id": 1, "rank_in_cluster": 17}

>  <energy>  (7) 
-11.76

>  <cluster_rmsd>  (7) 
0.91

>  <cluster>  (7) 
1

$$$$

     RDKit          3D

 78 84  0  0  0  0  0  0  0  0999 V2000
  139.2750   79.7750  218.3030 O   0  0  0  0  0  0  0  0  0  0  0  0
  140.4570   79.4160  219.1910 S   0  0  0  0  0  0  0  0  0  0  0  0
  140.7980   80.6350  220.0290 O   0  0  0  0  0  0  0  0  0  0  0  0
  141.8320   79.1200  218.1400 C   0  0  0  0  0  0  0  0  0  0  0  0
  142.1120   77.6810  218.0230 C   0  0  0  0  0  0  0  0  0  0  0  0
  143.1640   77.1780  218.7800 C   0  0  0  0  0  0  0  0  0  0  0  0
  143.5370   75.8390  218.7120 C   0  0  0  0  0  0  0  0  0  0  0  0
  142.8600   74.9660  217.8780 C   0  0  0  0  0  0  0  0  0  0  0  0
  141.8200   75.4690  217.1310 C   0  0  0  0  0  0  0  0  0  0  0  0
  141.4620   76.8000  217.2100 C   0  0  0  0  0  0  0  0  0  0  0  0
  140.1210   78.1270  220.1960 N   0  0  0  0  0  0  0  0  0  0  0  0
  139.1060   77.2160  219.9080 C   0  0  0  0  0  0  0  0  0  0  0  0
  139.5180   75.7550  220.0590 C   0  0  0  0  0  0  0  0  0  0  0  0
  140.2180   75.5760  221.3880 C   0  0  0  0  0  0  0  0  0  0  0  0
  140.6170   74.1810  221.5970 C   0  0  0  0  0  0  0  0  0  0  0  0
  140.1420   73.4030  222.6050 N   0  0  0  0  0  0  0  0  0  0  0  0
  140.5270   72.1340  222.7710 C   0  0  0  0  0  0  0  0  0  0  0  0
  139.9640   71.4130  223.8580 N   0  0  0  0  0  0  0  0  0  0  0  0
  138.8000   70.5980  223.6200 C   0  0  0  0  0  0  0  0  0  0  0  0
  139.2100   69.1420  223.8720 C   0  0  0  0  0  0  0  0  0  0  0  0
  139.7240   69.0820  225.2640 C   0  0  0  0  0  0  0  0  0  0  0  0
  139.5790   67.8790  225.9310 C   0  0  0  0  0  0  0  0  0  0  0  0
  140.0370   67.7540  227.2310 C   0  0  0  0  0  0  0  0  0  0  0  0
  140.6350   68.8360  227.8440 C   0  0  0  0  0  0  0  0  0  0  0  0
  140.7920   70.0560  227.1910 C   0  0  0  0  0  0  0  0  0  0  0  0
  140.3260   70.1480  225.8980 C   0  0  0  0  0  0  0  0  0  0  0  0
  140.4950   71.4500  225.2040 C   0  0  0  0  0  0  0  0  0  0  0  0
  141.4130   71.6100  221.9090 N   0  0  0  0  0  0  0  0  0  0  0  0
  141.9280   72.3280  220.8800 C   0  0  0  0  0  0  0  0  0  0  0  0
  142.8680   71.7820  219.9610 N   0  0  0  0  0  0  0  0  0  0  0  0
  144.0980   72.5110  219.7450 C   0  0  0  0  0  0  0  0  0  0  0  0
  145.1900   71.7120  219.1140 C   0  0  0  0  0  0  0  0  0  0  0  0
  144.9900   70.2500  219.2580 C   0  0  0  0  0  0  0  0  0  0  0  0
  146.0860   69.4140  219.3050 C   0  0  0  0  0  0  0  0  0  0  0  0
  145.9240   68.0320  219.4390 C   0  0  0  0  0  0  0  0  0  0  0  0
  144.6640   67.4720  219.5280 C   0  0  0  0  0  0  0  0  0  0  0  0
  143.5480   68.3090  219.4810 C   0  0  0  0  0  0  0  0  0  0  0  0
  143.7450   69.6690  219.3470 C   0  0  0  0  0  0  0  0  0  0  0  0
  142.5650   70.5510  219.2970 C   0  0  0  0  0  0  0  0  0  0  0  0
  141.5020   73.5990  220.7670 N   0  0  0  0  0  0  0  0  0  0  0  0
  141.4380   76.4680  221.3720 C   0  0  0  0  0  0  0  0  0  0  0  0
  140.9830   77.8860  221.2950 C   0  0  0  0  0  0  0  0  0  0  0  0
  141.6138   79.5255  217.1410 H   0  0  0  0  0  0  0  0  0  0  0  0
  142.7146   79.6124  218.5742 H   0  0  0  0  0  0  0  0  0  0  0  0
  143.7151   77.8551  219.4492 H   0  0  0  0  0  0  0  0  0  0  0  0
  144.3742   75.4725  219.3242 H   0  0  0  0  0  0  0  0  0  0  0  0
  143.1441   73.9052  217.8146 H   0  0  0  0  0  0  0  0  0  0  0  0
  141.2639   74.7989  216.4589 H   0  0  0  0  0  0  0  0  0  0  0  0
  140.6240   77.1621  216.5963 H   0  0  0  0  0  0  0  0  0  0  0  0
  138.2646   77.4097  220.5895 H   0  0  0  0  0  0  0  0  0  0  0  0
  138.8394   77.3624  218.8509 H   0  0  0  0  0  0  0  0  0  0  0  0
  138.6246   75.1142  220.0234 H   0  0  0  0  0  0  0  0  0  0  0  0
  140.1967   75.4736  219.2404 H   0  0  0  0  0  0  0  0  0  0  0  0
  139.5386   75.8439  222.2106 H   0  0  0  0  0  0  0  0  0  0  0  0
  137.9906   70.8864  224.3068 H   0  0  0  0  0  0  0  0  0  0  0  0
  138.4338   70.7292  222.5911 H   0  0  0  0  0  0  0  0  0  0  0  0
  138.3405   68.4777  223.7593 H   0  0  0  0  0  0  0  0  0  0  0  0
  139.9743   68.8143  223.1519 H   0  0  0  0  0  0  0  0  0  0  0  0
  139.1012   67.0243  225.4298 H   0  0  0  0  0  0  0  0  0  0  0  0
  139.9255   66.8017  227.7702 H   0  0  0  0  0  0  0  0  0  0  0  0
  140.9978   68.7320  228.8772 H   0  0  0  0  0  0  0  0  0  0  0  0
  141.2696   70.9130  227.6885 H   0  0  0  0  0  0  0  0  0  0  0  0
  139.9671   72.2288  225.7740 H   0  0  0  0  0  0  0  0  0  0  0  0
  141.5714   71.6678  225.1417 H   0  0  0  0  0  0  0  0  0  0  0  0
  143.8787   73.3686  219.0919 H   0  0  0  0  0  0  0  0  0  0  0  0
  144.4632   72.8088  220.7390 H   0  0  0  0  0  0  0  0  0  0  0  0
  145.2305   71.9572  218.0424 H   0  0  0  0  0  0  0  0  0  0  0  0
  146.1279   71.9698  219.6278 H   0  0  0  0  0  0  0  0  0  0  0  0
  147.0982   69.8392  219.2363 H   0  0  0  0  0  0  0  0  0  0  0  0
  146.8108   67.3821  219.4740 H   0  0  0  0  0  0  0  0  0  0  0  0
  144.5423   66.3839  219.6342 H   0  0  0  0  0  0  0  0  0  0  0  0
  142.5318   67.8934  219.5494 H   0  0  0  0  0  0  0  0  0  0  0  0
  142.3017   70.7539  218.2484 H   0  0  0  0  0  0  0  0  0  0  0  0
  141.7165   70.0610  219.7969 H   0  0  0  0  0  0  0  0  0  0  0  0
  142.0224   76.3147  222.2912 H   0  0  0  0  0  0  0  0  0  0  0  0
  142.0715   76.2267  220.5057 H   0  0  0  0  0  0  0  0  0  0  0  0
  140.4471   78.1341  222.2231 H   0  0  0  0  0  0  0  0  0  0  0  0
  141.8761   78.5137  221.1594 H   0  0  0  0  0  0  0  0  0  0  0  0
  1  2  2  0
  2  3  2  0
  2  4  1  0
  4  5  1  0
  5  6  2  0
  6  7  1  0
  7  8  2  0
  8  9  1  0
  9 10  2  0
  2 11  1  0
 11 12  1  0
 12 13  1  0
 13 14  1  0
 14 15  1  0
 15 16  2  0
 16 17  1  0
 17 18  1  0
 18 19  1  0
 19 20  1  0
 20 21  1  0
 21 22  2  0
 22 23  1  0
 23 24  2  0
 24 25  1  0
 25 26  2  0
 26 27  1  0
 17 28  2  0
 28 29  1  0
 29 30  1  0
 30 31  1  0
 31 32  1  0
 32 33  1  0
 33 34  2  0
 34 35  1  0
 35 36  2  0
 36 37  1  0
 37 38  2  0
 38 39  1  0
 29 40  2  0
 14 41  1  0
 41 42  1  0
 10  5  1  0
 42 11  1  0
 40 15  1  0
 27 18  1  0
 39 30  1  0
 26 21  1  0
 38 33  1  0
  4 43  1  0
  4 44  1  0
  6 45  1  0
  7 46  1  0
  8 47  1  0
  9 48  1  0
 10 49  1  0
 12 50  1  0
 12 51  1  0
 13 52  1  0
 13 53  1  0
 14 54  1  0
 19 55  1  0
 19 56  1  0
 20 57  1  0
 20 58  1  0
 22 59  1  0
 23 60  1  0
 24 61  1  0
 25 62  1  0
 27 63  1  0
 27 64  1  0
 31 65  1  0
 31 66  1  0
 32 67  1  0
 32 68  1  0
 34 69  1  0
 35 70  1  0
 36 71  1  0
 37 72  1  0
 39 73  1  0
 39 74  1  0
 41 75  1  0
 41 76  1  0
 42 77  1  0
 42 78  1  0
M  END
>  <smiles>  (8) 
O=S(=O)(Cc1ccccc1)N1CCC(c2nc(N3CCc4ccccc4C3)nc(N3CCc4ccccc4C3)n2)CC1

>  <score_type>  (8) 
oracle

>  <origin>  (8) 
autodockgpu

>  <m_score__min__energy>  (8) 
-12.01

>  <m_primary>  (8) 
energy

>  <rmsd>  (8) 
11.345936228610931

>  <m_score__min__rmsd>  (8) 
11.345936228610931

>  <meeko>  (8) 
{"free_energy": -9.63, "intermolecular_energy": -11.42, "internal_energy": -2.85, "cluster_size": 5, "cluster_id": 4, "rank_in_cluster": 5}

>  <energy>  (8) 
-11.71

>  <cluster_rmsd>  (8) 
0.73

>  <cluster>  (8) 
1

$$$$

     RDKit          3D

 78 84  0  0  0  0  0  0  0  0999 V2000
  139.8820   80.1640  218.5650 O   0  0  0  0  0  0  0  0  0  0  0  0
  140.9090   79.4420  219.4250 S   0  0  0  0  0  0  0  0  0  0  0  0
  141.3170   80.3770  220.5490 O   0  0  0  0  0  0  0  0  0  0  0  0
  142.3350   79.1840  218.4330 C   0  0  0  0  0  0  0  0  0  0  0  0
  142.7000   77.7600  218.3870 C   0  0  0  0  0  0  0  0  0  0  0  0
  142.4210   77.0740  217.2100 C   0  0  0  0  0  0  0  0  0  0  0  0
  142.6910   75.7150  217.0770 C   0  0  0  0  0  0  0  0  0  0  0  0
  143.2490   75.0060  218.1260 C   0  0  0  0  0  0  0  0  0  0  0  0
  143.5230   75.6900  219.2880 C   0  0  0  0  0  0  0  0  0  0  0  0
  143.2500   77.0390  219.4050 C   0  0  0  0  0  0  0  0  0  0  0  0
  140.3050   78.0260  220.0710 N   0  0  0  0  0  0  0  0  0  0  0  0
  139.7200   77.0460  219.2720 C   0  0  0  0  0  0  0  0  0  0  0  0
  140.2090   75.6300  219.5650 C   0  0  0  0  0  0  0  0  0  0  0  0
  140.1610   75.3910  221.0580 C   0  0  0  0  0  0  0  0  0  0  0  0
  140.6010   74.0350  221.3950 C   0  0  0  0  0  0  0  0  0  0  0  0
  140.1750   73.3550  222.4940 N   0  0  0  0  0  0  0  0  0  0  0  0
  140.5960   72.1180  222.7750 C   0  0  0  0  0  0  0  0  0  0  0  0
  140.0840   71.5020  223.9490 N   0  0  0  0  0  0  0  0  0  0  0  0
  138.9000   70.6880  223.8430 C   0  0  0  0  0  0  0  0  0  0  0  0
  139.3060   69.2530  224.1980 C   0  0  0  0  0  0  0  0  0  0  0  0
  139.8930   69.3030  225.5610 C   0  0  0  0  0  0  0  0  0  0  0  0
  139.7690   68.1640  226.3360 C   0  0  0  0  0  0  0  0  0  0  0  0
  140.2940   68.1430  227.6160 C   0  0  0  0  0  0  0  0  0  0  0  0
  140.9370   69.2640  228.1010 C   0  0  0  0  0  0  0  0  0  0  0  0
  141.0730   70.4210  227.3390 C   0  0  0  0  0  0  0  0  0  0  0  0
  140.5390   70.4100  226.0680 C   0  0  0  0  0  0  0  0  0  0  0  0
  140.6860   71.6450  225.2570 C   0  0  0  0  0  0  0  0  0  0  0  0
  141.4680   71.5260  221.9440 N   0  0  0  0  0  0  0  0  0  0  0  0
  141.9340   72.1450  220.8310 C   0  0  0  0  0  0  0  0  0  0  0  0
  142.8590   71.5270  219.9430 N   0  0  0  0  0  0  0  0  0  0  0  0
  144.1870   72.0930  219.8540 C   0  0  0  0  0  0  0  0  0  0  0  0
  145.2070   71.1890  219.2470 C   0  0  0  0  0  0  0  0  0  0  0  0
  144.8070   69.7620  219.2840 C   0  0  0  0  0  0  0  0  0  0  0  0
  145.7780   68.7840  219.3510 C   0  0  0  0  0  0  0  0  0  0  0  0
  145.4260   67.4310  219.3860 C   0  0  0  0  0  0  0  0  0  0  0  0
  144.1000   67.0430  219.3570 C   0  0  0  0  0  0  0  0  0  0  0  0
  143.1100   68.0250  219.2900 C   0  0  0  0  0  0  0  0  0  0  0  0
  143.4940   69.3510  219.2560 C   0  0  0  0  0  0  0  0  0  0  0  0
  142.4470   70.3860  219.1840 C   0  0  0  0  0  0  0  0  0  0  0  0
  141.4740   73.3880  220.6020 N   0  0  0  0  0  0  0  0  0  0  0  0
  141.0770   76.4080  221.7010 C   0  0  0  0  0  0  0  0  0  0  0  0
  140.5210   77.7680  221.4480 C   0  0  0  0  0  0  0  0  0  0  0  0
  142.1295   79.5350  217.4110 H   0  0  0  0  0  0  0  0  0  0  0  0
  143.1725   79.7443  218.8743 H   0  0  0  0  0  0  0  0  0  0  0  0
  141.9763   77.6183  216.3639 H   0  0  0  0  0  0  0  0  0  0  0  0
  142.4593   75.2016  216.1322 H   0  0  0  0  0  0  0  0  0  0  0  0
  143.4663   73.9316  218.0341 H   0  0  0  0  0  0  0  0  0  0  0  0
  143.9674   75.1530  220.1390 H   0  0  0  0  0  0  0  0  0  0  0  0
  143.4842   77.5486  220.3513 H   0  0  0  0  0  0  0  0  0  0  0  0
  138.6318   77.0754  219.4301 H   0  0  0  0  0  0  0  0  0  0  0  0
  140.0044   77.2715  218.2336 H   0  0  0  0  0  0  0  0  0  0  0  0
  139.5606   74.9029  219.0542 H   0  0  0  0  0  0  0  0  0  0  0  0
  141.2408   75.5109  219.2027 H   0  0  0  0  0  0  0  0  0  0  0  0
  139.1287   75.4957  221.4231 H   0  0  0  0  0  0  0  0  0  0  0  0
  138.1315   71.0469  224.5434 H   0  0  0  0  0  0  0  0  0  0  0  0
  138.4814   70.7364  222.8269 H   0  0  0  0  0  0  0  0  0  0  0  0
  138.4241   68.5957  224.1885 H   0  0  0  0  0  0  0  0  0  0  0  0
  140.0272   68.8532  223.4699 H   0  0  0  0  0  0  0  0  0  0  0  0
  139.2546   67.2778  225.9360 H   0  0  0  0  0  0  0  0  0  0  0  0
  140.2000   67.2424  228.2406 H   0  0  0  0  0  0  0  0  0  0  0  0
  141.3538   69.2425  229.1187 H   0  0  0  0  0  0  0  0  0  0  0  0
  141.5865   71.3093  227.7355 H   0  0  0  0  0  0  0  0  0  0  0  0
  140.1983   72.4779  225.7846 H   0  0  0  0  0  0  0  0  0  0  0  0
  141.7601   71.8393  225.1204 H   0  0  0  0  0  0  0  0  0  0  0  0
  144.1307   73.0062  219.2433 H   0  0  0  0  0  0  0  0  0  0  0  0
  144.5145   72.2846  220.8865 H   0  0  0  0  0  0  0  0  0  0  0  0
  145.3581   71.4842  218.1982 H   0  0  0  0  0  0  0  0  0  0  0  0
  146.1300   71.2889  219.8370 H   0  0  0  0  0  0  0  0  0  0  0  0
  146.8395   69.0714  219.3771 H   0  0  0  0  0  0  0  0  0  0  0  0
  146.2147   66.6659  219.4373 H   0  0  0  0  0  0  0  0  0  0  0  0
  143.8289   65.9773  219.3862 H   0  0  0  0  0  0  0  0  0  0  0  0
  142.0457   67.7481  219.2648 H   0  0  0  0  0  0  0  0  0  0  0  0
  142.2909   70.6788  218.1353 H   0  0  0  0  0  0  0  0  0  0  0  0
  141.5069   69.9893  219.5948 H   0  0  0  0  0  0  0  0  0  0  0  0
  141.1330   76.2251  222.7842 H   0  0  0  0  0  0  0  0  0  0  0  0
  142.0884   76.3279  221.2760 H   0  0  0  0  0  0  0  0  0  0  0  0
  139.5611   77.8593  221.9774 H   0  0  0  0  0  0  0  0  0  0  0  0
  141.2582   78.4997  221.8102 H   0  0  0  0  0  0  0  0  0  0  0  0
  1  2  2  0
  2  3  2  0
  2  4  1  0
  4  5  1  0
  5  6  2  0
  6  7  1  0
  7  8  2  0
  8  9  1  0
  9 10  2  0
  2 11  1  0
 11 12  1  0
 12 13  1  0
 13 14  1  0
 14 15  1  0
 15 16  2  0
 16 17  1  0
 17 18  1  0
 18 19  1  0
 19 20  1  0
 20 21  1  0
 21 22  2  0
 22 23  1  0
 23 24  2  0
 24 25  1  0
 25 26  2  0
 26 27  1  0
 17 28  2  0
 28 29  1  0
 29 30  1  0
 30 31  1  0
 31 32  1  0
 32 33  1  0
 33 34  2  0
 34 35  1  0
 35 36  2  0
 36 37  1  0
 37 38  2  0
 38 39  1  0
 29 40  2  0
 14 41  1  0
 41 42  1  0
 10  5  1  0
 42 11  1  0
 40 15  1  0
 27 18  1  0
 39 30  1  0
 26 21  1  0
 38 33  1  0
  4 43  1  0
  4 44  1  0
  6 45  1  0
  7 46  1  0
  8 47  1  0
  9 48  1  0
 10 49  1  0
 12 50  1  0
 12 51  1  0
 13 52  1  0
 13 53  1  0
 14 54  1  0
 19 55  1  0
 19 56  1  0
 20 57  1  0
 20 58  1  0
 22 59  1  0
 23 60  1  0
 24 61  1  0
 25 62  1  0
 27 63  1  0
 27 64  1  0
 31 65  1  0
 31 66  1  0
 32 67  1  0
 32 68  1  0
 34 69  1  0
 35 70  1  0
 36 71  1  0
 37 72  1  0
 39 73  1  0
 39 74  1  0
 41 75  1  0
 41 76  1  0
 42 77  1  0
 42 78  1  0
M  END
>  <smiles>  (9) 
O=S(=O)(Cc1ccccc1)N1CCC(c2nc(N3CCc4ccccc4C3)nc(N3CCc4ccccc4C3)n2)CC1

>  <score_type>  (9) 
oracle

>  <origin>  (9) 
autodockgpu

>  <m_score__min__energy>  (9) 
-12.01

>  <m_primary>  (9) 
energy

>  <rmsd>  (9) 
11.270926513099479

>  <m_score__min__rmsd>  (9) 
11.270926513099479

>  <meeko>  (9) 
{"free_energy": -10.26, "intermolecular_energy": -12.05, "internal_energy": -2.69, "cluster_size": 5, "cluster_id": 4, "rank_in_cluster": 3}

>  <energy>  (9) 
-11.68

>  <cluster_rmsd>  (9) 
0.76

>  <cluster>  (9) 
1

$$$$

     RDKit          3D

 78 84  0  0  0  0  0  0  0  0999 V2000
  138.0800   67.9120  225.9900 O   0  0  0  0  0  0  0  0  0  0  0  0
  139.2840   68.1600  225.0920 S   0  0  0  0  0  0  0  0  0  0  0  0
  139.4790   66.9320  224.2220 O   0  0  0  0  0  0  0  0  0  0  0  0
  140.6970   68.2790  226.1290 C   0  0  0  0  0  0  0  0  0  0  0  0
  140.8210   69.6250  226.7070 C   0  0  0  0  0  0  0  0  0  0  0  0
  140.0470   69.9070  227.8270 C   0  0  0  0  0  0  0  0  0  0  0  0
  140.0610   71.1620  228.4260 C   0  0  0  0  0  0  0  0  0  0  0  0
  140.8550   72.1730  227.9140 C   0  0  0  0  0  0  0  0  0  0  0  0
  141.6190   71.8890  226.8050 C   0  0  0  0  0  0  0  0  0  0  0  0
  141.5940   70.6380  226.2220 C   0  0  0  0  0  0  0  0  0  0  0  0
  139.0790   69.5030  224.1210 N   0  0  0  0  0  0  0  0  0  0  0  0
  138.9140   70.7780  224.6580 C   0  0  0  0  0  0  0  0  0  0  0  0
  139.7810   71.8480  223.9990 C   0  0  0  0  0  0  0  0  0  0  0  0
  139.6480   71.7330  222.4970 C   0  0  0  0  0  0  0  0  0  0  0  0
  140.4450   72.7540  221.8110 C   0  0  0  0  0  0  0  0  0  0  0  0
  140.1570   74.0830  221.8430 N   0  0  0  0  0  0  0  0  0  0  0  0
  140.9030   74.9910  221.2060 C   0  0  0  0  0  0  0  0  0  0  0  0
  140.5100   76.3530  221.3090 N   0  0  0  0  0  0  0  0  0  0  0  0
  139.1040   76.6640  221.3730 C   0  0  0  0  0  0  0  0  0  0  0  0
  138.8420   77.2870  222.7480 C   0  0  0  0  0  0  0  0  0  0  0  0
  139.7350   78.4690  222.8560 C   0  0  0  0  0  0  0  0  0  0  0  0
  139.2970   79.5110  223.6520 C   0  0  0  0  0  0  0  0  0  0  0  0
  140.0820   80.6420  223.7960 C   0  0  0  0  0  0  0  0  0  0  0  0
  141.2950   80.7110  223.1420 C   0  0  0  0  0  0  0  0  0  0  0  0
  141.7550   79.6740  222.3370 C   0  0  0  0  0  0  0  0  0  0  0  0
  140.9510   78.5610  222.2140 C   0  0  0  0  0  0  0  0  0  0  0  0
  141.4460   77.4560  221.3540 C   0  0  0  0  0  0  0  0  0  0  0  0
  141.9740   74.5760  220.5120 N   0  0  0  0  0  0  0  0  0  0  0  0
  142.3200   73.2660  220.4370 C   0  0  0  0  0  0  0  0  0  0  0  0
  143.4530   72.8150  219.7040 N   0  0  0  0  0  0  0  0  0  0  0  0
  144.7430   73.3710  220.0490 C   0  0  0  0  0  0  0  0  0  0  0  0
  145.9100   72.5840  219.5540 C   0  0  0  0  0  0  0  0  0  0  0  0
  145.5610   71.1810  219.2260 C   0  0  0  0  0  0  0  0  0  0  0  0
  146.5190   70.1950  219.3450 C   0  0  0  0  0  0  0  0  0  0  0  0
  146.2150   68.8650  219.0420 C   0  0  0  0  0  0  0  0  0  0  0  0
  144.9500   68.5060  218.6170 C   0  0  0  0  0  0  0  0  0  0  0  0
  143.9730   69.4950  218.4930 C   0  0  0  0  0  0  0  0  0  0  0  0
  144.3090   70.7990  218.8010 C   0  0  0  0  0  0  0  0  0  0  0  0
  143.2760   71.8430  218.6680 C   0  0  0  0  0  0  0  0  0  0  0  0
  141.5300   72.4020  221.0990 N   0  0  0  0  0  0  0  0  0  0  0  0
  140.1310   70.3540  222.1110 C   0  0  0  0  0  0  0  0  0  0  0  0
  139.2140   69.3470  222.7190 C   0  0  0  0  0  0  0  0  0  0  0  0
  140.6067   67.5456  226.9439 H   0  0  0  0  0  0  0  0  0  0  0  0
  141.5920   68.0769  225.5223 H   0  0  0  0  0  0  0  0  0  0  0  0
  139.4077   69.1179  228.2498 H   0  0  0  0  0  0  0  0  0  0  0  0
  139.4373   71.3521  229.3119 H   0  0  0  0  0  0  0  0  0  0  0  0
  140.8749   73.1702  228.3778 H   0  0  0  0  0  0  0  0  0  0  0  0
  142.2607   72.6725  226.3757 H   0  0  0  0  0  0  0  0  0  0  0  0
  142.2189   70.4521  225.3361 H   0  0  0  0  0  0  0  0  0  0  0  0
  137.8593   71.0680  224.5420 H   0  0  0  0  0  0  0  0  0  0  0  0
  139.2252   70.7216  225.7115 H   0  0  0  0  0  0  0  0  0  0  0  0
  139.4472   72.8446  224.3236 H   0  0  0  0  0  0  0  0  0  0  0  0
  140.8321   71.7065  224.2910 H   0  0  0  0  0  0  0  0  0  0  0  0
  138.6001   71.8870  222.1999 H   0  0  0  0  0  0  0  0  0  0  0  0
  138.8390   77.3775  220.5789 H   0  0  0  0  0  0  0  0  0  0  0  0
  138.4961   75.7582  221.2315 H   0  0  0  0  0  0  0  0  0  0  0  0
  137.7899   77.5976  222.8296 H   0  0  0  0  0  0  0  0  0  0  0  0
  139.0399   76.5655  223.5544 H   0  0  0  0  0  0  0  0  0  0  0  0
  138.3285   79.4416  224.1689 H   0  0  0  0  0  0  0  0  0  0  0  0
  139.7421   81.4775  224.4256 H   0  0  0  0  0  0  0  0  0  0  0  0
  141.9157   81.6114  223.2605 H   0  0  0  0  0  0  0  0  0  0  0  0
  142.7230   79.7396  221.8186 H   0  0  0  0  0  0  0  0  0  0  0  0
  141.5961   77.8382  220.3335 H   0  0  0  0  0  0  0  0  0  0  0  0
  142.3909   77.0870  221.7794 H   0  0  0  0  0  0  0  0  0  0  0  0
  144.8057   74.3831  219.6226 H   0  0  0  0  0  0  0  0  0  0  0  0
  144.8034   73.3616  221.1473 H   0  0  0  0  0  0  0  0  0  0  0  0
  146.3021   73.0694  218.6481 H   0  0  0  0  0  0  0  0  0  0  0  0
  146.6577   72.5588  220.3604 H   0  0  0  0  0  0  0  0  0  0  0  0
  147.5324   70.4586  219.6818 H   0  0  0  0  0  0  0  0  0  0  0  0
  146.9928   68.0938  219.1431 H   0  0  0  0  0  0  0  0  0  0  0  0
  144.7168   67.4574  218.3802 H   0  0  0  0  0  0  0  0  0  0  0  0
  142.9567   69.2414  218.1570 H   0  0  0  0  0  0  0  0  0  0  0  0
  143.3697   72.3304  217.6863 H   0  0  0  0  0  0  0  0  0  0  0  0
  142.2780   71.3885  218.7542 H   0  0  0  0  0  0  0  0  0  0  0  0
  140.1229   70.2505  221.0159 H   0  0  0  0  0  0  0  0  0  0  0  0
  141.1577   70.1978  222.4735 H   0  0  0  0  0  0  0  0  0  0  0  0
  138.2214   69.4512  222.2566 H   0  0  0  0  0  0  0  0  0  0  0  0
  139.6468   68.3523  222.5366 H   0  0  0  0  0  0  0  0  0  0  0  0
  1  2  2  0
  2  3  2  0
  2  4  1  0
  4  5  1  0
  5  6  2  0
  6  7  1  0
  7  8  2  0
  8  9  1  0
  9 10  2  0
  2 11  1  0
 11 12  1  0
 12 13  1  0
 13 14  1  0
 14 15  1  0
 15 16  2  0
 16 17  1  0
 17 18  1  0
 18 19  1  0
 19 20  1  0
 20 21  1  0
 21 22  2  0
 22 23  1  0
 23 24  2  0
 24 25  1  0
 25 26  2  0
 26 27  1  0
 17 28  2  0
 28 29  1  0
 29 30  1  0
 30 31  1  0
 31 32  1  0
 32 33  1  0
 33 34  2  0
 34 35  1  0
 35 36  2  0
 36 37  1  0
 37 38  2  0
 38 39  1  0
 29 40  2  0
 14 41  1  0
 41 42  1  0
 10  5  1  0
 42 11  1  0
 40 15  1  0
 27 18  1  0
 39 30  1  0
 26 21  1  0
 38 33  1  0
  4 43  1  0
  4 44  1  0
  6 45  1  0
  7 46  1  0
  8 47  1  0
  9 48  1  0
 10 49  1  0
 12 50  1  0
 12 51  1  0
 13 52  1  0
 13 53  1  0
 14 54  1  0
 19 55  1  0
 19 56  1  0
 20 57  1  0
 20 58  1  0
 22 59  1  0
 23 60  1  0
 24 61  1  0
 25 62  1  0
 27 63  1  0
 27 64  1  0
 31 65  1  0
 31 66  1  0
 32 67  1  0
 32 68  1  0
 34 69  1  0
 35 70  1  0
 36 71  1  0
 37 72  1  0
 39 73  1  0
 39 74  1  0
 41 75  1  0
 41 76  1  0
 42 77  1  0
 42 78  1  0
M  END
>  <smiles>  (10) 
O=S(=O)(Cc1ccccc1)N1CCC(c2nc(N3CCc4ccccc4C3)nc(N3CCc4ccccc4C3)n2)CC1

>  <score_type>  (10) 
oracle

>  <origin>  (10) 
autodockgpu

>  <m_score__min__energy>  (10) 
-12.01

>  <m_primary>  (10) 
energy

>  <rmsd>  (10) 
5.0506906660534066

>  <m_score__min__rmsd>  (10) 
5.0506906660534066

>  <meeko>  (10) 
{"free_energy": -11.67, "intermolecular_energy": -13.46, "internal_energy": -1.91, "cluster_size": 2, "cluster_id": 3, "rank_in_cluster": 1}

>  <energy>  (10) 
-11.64

>  <cluster_rmsd>  (10) 
0.87

>  <cluster>  (10) 
1

$$$$

     RDKit          3D

 78 84  0  0  0  0  0  0  0  0999 V2000
  139.5130   79.0030  218.4350 O   0  0  0  0  0  0  0  0  0  0  0  0
  139.4970   79.2290  219.9400 S   0  0  0  0  0  0  0  0  0  0  0  0
  138.0470   79.3160  220.3830 O   0  0  0  0  0  0  0  0  0  0  0  0
  140.2170   80.8030  220.2420 C   0  0  0  0  0  0  0  0  0  0  0  0
  140.9860   80.8040  221.4960 C   0  0  0  0  0  0  0  0  0  0  0  0
  142.2470   80.2190  221.4640 C   0  0  0  0  0  0  0  0  0  0  0  0
  143.0390   80.1330  222.6050 C   0  0  0  0  0  0  0  0  0  0  0  0
  142.5840   80.6340  223.8130 C   0  0  0  0  0  0  0  0  0  0  0  0
  141.3350   81.2110  223.8380 C   0  0  0  0  0  0  0  0  0  0  0  0
  140.5610   81.2890  222.6970 C   0  0  0  0  0  0  0  0  0  0  0  0
  140.2590   77.9990  220.7710 N   0  0  0  0  0  0  0  0  0  0  0  0
  139.7250   77.4630  221.9410 C   0  0  0  0  0  0  0  0  0  0  0  0
  139.7120   75.9370  221.9780 C   0  0  0  0  0  0  0  0  0  0  0  0
  141.0730   75.4230  221.5690 C   0  0  0  0  0  0  0  0  0  0  0  0
  141.1250   73.9590  221.6080 C   0  0  0  0  0  0  0  0  0  0  0  0
  141.8430   73.2050  220.7330 N   0  0  0  0  0  0  0  0  0  0  0  0
  141.8690   71.8700  220.7940 C   0  0  0  0  0  0  0  0  0  0  0  0
  142.6550   71.1840  219.8290 N   0  0  0  0  0  0  0  0  0  0  0  0
  143.6050   71.9360  219.0490 C   0  0  0  0  0  0  0  0  0  0  0  0
  145.0010   71.4230  219.4190 C   0  0  0  0  0  0  0  0  0  0  0  0
  145.0030   69.9630  219.1430 C   0  0  0  0  0  0  0  0  0  0  0  0
  146.2160   69.3950  218.8010 C   0  0  0  0  0  0  0  0  0  0  0  0
  146.2880   68.0390  218.5320 C   0  0  0  0  0  0  0  0  0  0  0  0
  145.1430   67.2730  218.6100 C   0  0  0  0  0  0  0  0  0  0  0  0
  143.9110   67.8240  218.9530 C   0  0  0  0  0  0  0  0  0  0  0  0
  143.8730   69.1760  219.2150 C   0  0  0  0  0  0  0  0  0  0  0  0
  142.5580   69.7620  219.5810 C   0  0  0  0  0  0  0  0  0  0  0  0
  141.1610   71.2530  221.7530 N   0  0  0  0  0  0  0  0  0  0  0  0
  140.4230   71.9410  222.6580 C   0  0  0  0  0  0  0  0  0  0  0  0
  139.6690   71.2960  223.6790 N   0  0  0  0  0  0  0  0  0  0  0  0
  138.5910   70.4230  223.2700 C   0  0  0  0  0  0  0  0  0  0  0  0
  138.1200   69.4810  224.3270 C   0  0  0  0  0  0  0  0  0  0  0  0
  139.1170   69.2820  225.4060 C   0  0  0  0  0  0  0  0  0  0  0  0
  139.1520   68.0840  226.0890 C   0  0  0  0  0  0  0  0  0  0  0  0
  140.0820   67.8730  227.1120 C   0  0  0  0  0  0  0  0  0  0  0  0
  140.9870   68.8570  227.4610 C   0  0  0  0  0  0  0  0  0  0  0  0
  140.9600   70.0730  226.7760 C   0  0  0  0  0  0  0  0  0  0  0  0
  140.0280   70.2470  225.7720 C   0  0  0  0  0  0  0  0  0  0  0  0
  140.0010   71.5330  225.0510 C   0  0  0  0  0  0  0  0  0  0  0  0
  140.4370   73.2810  222.5450 N   0  0  0  0  0  0  0  0  0  0  0  0
  141.3300   75.9120  220.1620 C   0  0  0  0  0  0  0  0  0  0  0  0
  141.4050   77.4020  220.1890 C   0  0  0  0  0  0  0  0  0  0  0  0
  140.8890   81.0561  219.4087 H   0  0  0  0  0  0  0  0  0  0  0  0
  139.4094   81.5449  220.3278 H   0  0  0  0  0  0  0  0  0  0  0  0
  142.6275   79.8147  220.5144 H   0  0  0  0  0  0  0  0  0  0  0  0
  144.0324   79.6642  222.5469 H   0  0  0  0  0  0  0  0  0  0  0  0
  143.2003   80.5728  224.7221 H   0  0  0  0  0  0  0  0  0  0  0  0
  140.9463   81.6172  224.7834 H   0  0  0  0  0  0  0  0  0  0  0  0
  139.5681   81.7583  222.7594 H   0  0  0  0  0  0  0  0  0  0  0  0
  140.3230   77.8241  222.7907 H   0  0  0  0  0  0  0  0  0  0  0  0
  138.6760   77.7905  221.9901 H   0  0  0  0  0  0  0  0  0  0  0  0
  139.4796   75.5948  222.9973 H   0  0  0  0  0  0  0  0  0  0  0  0
  138.9472   75.5551  221.2857 H   0  0  0  0  0  0  0  0  0  0  0  0
  141.8387   75.7925  222.2670 H   0  0  0  0  0  0  0  0  0  0  0  0
  143.4185   71.7811  217.9760 H   0  0  0  0  0  0  0  0  0  0  0  0
  143.5164   73.0125  219.2570 H   0  0  0  0  0  0  0  0  0  0  0  0
  145.7647   71.9260  218.8076 H   0  0  0  0  0  0  0  0  0  0  0  0
  145.2322   71.6277  220.4748 H   0  0  0  0  0  0  0  0  0  0  0  0
  147.1206   70.0182  218.7428 H   0  0  0  0  0  0  0  0  0  0  0  0
  147.2481   67.5769  218.2589 H   0  0  0  0  0  0  0  0  0  0  0  0
  145.2052   66.1960  218.3950 H   0  0  0  0  0  0  0  0  0  0  0  0
  143.0041   67.2043  219.0124 H   0  0  0  0  0  0  0  0  0  0  0  0
  141.8501   69.5916  218.7564 H   0  0  0  0  0  0  0  0  0  0  0  0
  142.2119   69.2761  220.5052 H   0  0  0  0  0  0  0  0  0  0  0  0
  137.7398   71.0490  222.9641 H   0  0  0  0  0  0  0  0  0  0  0  0
  138.9856   69.8021  222.4522 H   0  0  0  0  0  0  0  0  0  0  0  0
  137.1976   69.8838  224.7709 H   0  0  0  0  0  0  0  0  0  0  0  0
  137.9508   68.5050  223.8488 H   0  0  0  0  0  0  0  0  0  0  0  0
  138.4412   67.2866  225.8264 H   0  0  0  0  0  0  0  0  0  0  0  0
  140.0931   66.9112  227.6457 H   0  0  0  0  0  0  0  0  0  0  0  0
  141.7170   68.6849  228.2657 H   0  0  0  0  0  0  0  0  0  0  0  0
  141.6669   70.8764  227.0308 H   0  0  0  0  0  0  0  0  0  0  0  0
  139.2462   72.1928  225.5036 H   0  0  0  0  0  0  0  0  0  0  0  0
  140.9885   72.0135  225.1148 H   0  0  0  0  0  0  0  0  0  0  0  0
  142.2800   75.4986  219.7925 H   0  0  0  0  0  0  0  0  0  0  0  0
  140.5193   75.5859  219.4939 H   0  0  0  0  0  0  0  0  0  0  0  0
  142.2899   77.6989  220.7710 H   0  0  0  0  0  0  0  0  0  0  0  0
  141.4665   77.7495  219.1471 H   0  0  0  0  0  0  0  0  0  0  0  0
  1  2  2  0
  2  3  2  0
  2  4  1  0
  4  5  1  0
  5  6  2  0
  6  7  1  0
  7  8  2  0
  8  9  1  0
  9 10  2  0
  2 11  1  0
 11 12  1  0
 12 13  1  0
 13 14  1  0
 14 15  1  0
 15 16  2  0
 16 17  1  0
 17 18  1  0
 18 19  1  0
 19 20  1  0
 20 21  1  0
 21 22  2  0
 22 23  1  0
 23 24  2  0
 24 25  1  0
 25 26  2  0
 26 27  1  0
 17 28  2  0
 28 29  1  0
 29 30  1  0
 30 31  1  0
 31 32  1  0
 32 33  1  0
 33 34  2  0
 34 35  1  0
 35 36  2  0
 36 37  1  0
 37 38  2  0
 38 39  1  0
 29 40  2  0
 14 41  1  0
 41 42  1  0
 10  5  1  0
 42 11  1  0
 40 15  1  0
 27 18  1  0
 39 30  1  0
 26 21  1  0
 38 33  1  0
  4 43  1  0
  4 44  1  0
  6 45  1  0
  7 46  1  0
  8 47  1  0
  9 48  1  0
 10 49  1  0
 12 50  1  0
 12 51  1  0
 13 52  1  0
 13 53  1  0
 14 54  1  0
 19 55  1  0
 19 56  1  0
 20 57  1  0
 20 58  1  0
 22 59  1  0
 23 60  1  0
 24 61  1  0
 25 62  1  0
 27 63  1  0
 27 64  1  0
 31 65  1  0
 31 66  1  0
 32 67  1  0
 32 68  1  0
 34 69  1  0
 35 70  1  0
 36 71  1  0
 37 72  1  0
 39 73  1  0
 39 74  1  0
 41 75  1  0
 41 76  1  0
 42 77  1  0
 42 78  1  0
M  END
>  <smiles>  (11) 
O=S(=O)(Cc1ccccc1)N1CCC(c2nc(N3CCc4ccccc4C3)nc(N3CCc4ccccc4C3)n2)CC1

>  <score_type>  (11) 
oracle

>  <origin>  (11) 
autodockgpu

>  <m_score__min__energy>  (11) 
-12.01

>  <m_primary>  (11) 
energy

>  <rmsd>  (11) 
10.927031405956537

>  <m_score__min__rmsd>  (11) 
10.927031405956537

>  <meeko>  (11) 
{"free_energy": -11.01, "intermolecular_energy": -12.8, "internal_energy": -1.9, "cluster_size": 32, "cluster_id": 1, "rank_in_cluster": 28}

>  <energy>  (11) 
-11.52

>  <cluster_rmsd>  (11) 
0.6

>  <cluster>  (11) 
1

$$$$

     RDKit          3D

 78 84  0  0  0  0  0  0  0  0999 V2000
  138.0060   80.4110  221.4740 O   0  0  0  0  0  0  0  0  0  0  0  0
  138.0700   79.1970  222.3900 S   0  0  0  0  0  0  0  0  0  0  0  0
  136.6520   78.8500  222.8060 O   0  0  0  0  0  0  0  0  0  0  0  0
  138.9230   79.6820  223.8460 C   0  0  0  0  0  0  0  0  0  0  0  0
  140.3200   80.0350  223.5510 C   0  0  0  0  0  0  0  0  0  0  0  0
  140.5380   81.2040  222.8300 C   0  0  0  0  0  0  0  0  0  0  0  0
  141.8190   81.6070  222.4650 C   0  0  0  0  0  0  0  0  0  0  0  0
  142.9190   80.8440  222.8150 C   0  0  0  0  0  0  0  0  0  0  0  0
  142.6970   79.6890  223.5290 C   0  0  0  0  0  0  0  0  0  0  0  0
  141.4200   79.3020  223.8840 C   0  0  0  0  0  0  0  0  0  0  0  0
  138.7670   77.8780  221.6400 N   0  0  0  0  0  0  0  0  0  0  0  0
  140.1480   77.7670  221.4870 C   0  0  0  0  0  0  0  0  0  0  0  0
  140.7090   76.4030  221.8760 C   0  0  0  0  0  0  0  0  0  0  0  0
  139.8750   75.3220  221.2250 C   0  0  0  0  0  0  0  0  0  0  0  0
  140.3850   73.9870  221.5480 C   0  0  0  0  0  0  0  0  0  0  0  0
  140.0090   73.2820  222.6490 N   0  0  0  0  0  0  0  0  0  0  0  0
  140.4930   72.0650  222.9170 C   0  0  0  0  0  0  0  0  0  0  0  0
  140.0290   71.4190  224.0950 N   0  0  0  0  0  0  0  0  0  0  0  0
  138.9390   70.4830  223.9860 C   0  0  0  0  0  0  0  0  0  0  0  0
  139.4880   69.1050  224.3750 C   0  0  0  0  0  0  0  0  0  0  0  0
  140.0430   69.2410  225.7460 C   0  0  0  0  0  0  0  0  0  0  0  0
  140.0260   68.1090  226.5400 C   0  0  0  0  0  0  0  0  0  0  0  0
  140.5290   68.1660  227.8280 C   0  0  0  0  0  0  0  0  0  0  0  0
  141.0420   69.3570  228.3010 C   0  0  0  0  0  0  0  0  0  0  0  0
  141.0680   70.5080  227.5190 C   0  0  0  0  0  0  0  0  0  0  0  0
  140.5610   70.4190  226.2410 C   0  0  0  0  0  0  0  0  0  0  0  0
  140.5900   71.6480  225.4090 C   0  0  0  0  0  0  0  0  0  0  0  0
  141.3810   71.5210  222.0700 N   0  0  0  0  0  0  0  0  0  0  0  0
  141.8000   72.1670  220.9540 C   0  0  0  0  0  0  0  0  0  0  0  0
  142.7410   71.5990  220.0490 N   0  0  0  0  0  0  0  0  0  0  0  0
  144.0510   72.2070  219.9710 C   0  0  0  0  0  0  0  0  0  0  0  0
  145.0960   71.3490  219.3410 C   0  0  0  0  0  0  0  0  0  0  0  0
  144.7390   69.9100  219.3430 C   0  0  0  0  0  0  0  0  0  0  0  0
  145.7380   68.9590  219.3840 C   0  0  0  0  0  0  0  0  0  0  0  0
  145.4270   67.5970  219.3860 C   0  0  0  0  0  0  0  0  0  0  0  0
  144.1130   67.1700  219.3500 C   0  0  0  0  0  0  0  0  0  0  0  0
  143.0940   68.1230  219.3090 C   0  0  0  0  0  0  0  0  0  0  0  0
  143.4380   69.4610  219.3070 C   0  0  0  0  0  0  0  0  0  0  0  0
  142.3600   70.4660  219.2630 C   0  0  0  0  0  0  0  0  0  0  0  0
  141.2770   73.3870  220.7390 N   0  0  0  0  0  0  0  0  0  0  0  0
  138.4630   75.4770  221.7420 C   0  0  0  0  0  0  0  0  0  0  0  0
  137.9330   76.7910  221.2770 C   0  0  0  0  0  0  0  0  0  0  0  0
  138.4172   80.5549  224.2843 H   0  0  0  0  0  0  0  0  0  0  0  0
  138.9184   78.8371  224.5503 H   0  0  0  0  0  0  0  0  0  0  0  0
  139.6772   81.8250  222.5413 H   0  0  0  0  0  0  0  0  0  0  0  0
  141.9579   82.5375  221.8950 H   0  0  0  0  0  0  0  0  0  0  0  0
  143.9368   81.1506  222.5319 H   0  0  0  0  0  0  0  0  0  0  0  0
  143.5523   79.0626  223.8223 H   0  0  0  0  0  0  0  0  0  0  0  0
  141.2858   78.3712  224.4546 H   0  0  0  0  0  0  0  0  0  0  0  0
  140.3950   77.9541  220.4315 H   0  0  0  0  0  0  0  0  0  0  0  0
  140.6030   78.5030  222.1661 H   0  0  0  0  0  0  0  0  0  0  0  0
  141.7509   76.3215  221.5328 H   0  0  0  0  0  0  0  0  0  0  0  0
  140.6783   76.2873  222.9695 H   0  0  0  0  0  0  0  0  0  0  0  0
  139.9132   75.4256  220.1306 H   0  0  0  0  0  0  0  0  0  0  0  0
  138.1247   70.7709  224.6672 H   0  0  0  0  0  0  0  0  0  0  0  0
  138.5353   70.4693  222.9628 H   0  0  0  0  0  0  0  0  0  0  0  0
  138.6806   68.3580  224.3647 H   0  0  0  0  0  0  0  0  0  0  0  0
  140.2597   68.7708  223.6659 H   0  0  0  0  0  0  0  0  0  0  0  0
  139.6142   67.1668  226.1493 H   0  0  0  0  0  0  0  0  0  0  0  0
  140.5201   67.2715  228.4682 H   0  0  0  0  0  0  0  0  0  0  0  0
  141.4416   69.3975  229.3250 H   0  0  0  0  0  0  0  0  0  0  0  0
  141.4776   71.4525  227.9064 H   0  0  0  0  0  0  0  0  0  0  0  0
  140.0077   72.4334  225.9131 H   0  0  0  0  0  0  0  0  0  0  0  0
  141.6396   71.9530  225.2850 H   0  0  0  0  0  0  0  0  0  0  0  0
  143.9656   73.1322  219.3822 H   0  0  0  0  0  0  0  0  0  0  0  0
  144.3753   72.3841  221.0071 H   0  0  0  0  0  0  0  0  0  0  0  0
  145.2364   71.6744  218.2997 H   0  0  0  0  0  0  0  0  0  0  0  0
  146.0165   71.4617  219.9326 H   0  0  0  0  0  0  0  0  0  0  0  0
  146.7906   69.2767  219.4155 H   0  0  0  0  0  0  0  0  0  0  0  0
  146.2384   66.8549  219.4166 H   0  0  0  0  0  0  0  0  0  0  0  0
  143.8741   66.0963  219.3536 H   0  0  0  0  0  0  0  0  0  0  0  0
  142.0384   67.8149  219.2789 H   0  0  0  0  0  0  0  0  0  0  0  0
  142.1919   70.7799  218.2222 H   0  0  0  0  0  0  0  0  0  0  0  0
  141.4331   70.0317  219.6656 H   0  0  0  0  0  0  0  0  0  0  0  0
  137.8333   74.6635  221.3524 H   0  0  0  0  0  0  0  0  0  0  0  0
  138.4562   75.4343  222.8412 H   0  0  0  0  0  0  0  0  0  0  0  0
  137.8445   76.7665  220.1808 H   0  0  0  0  0  0  0  0  0  0  0  0
  136.9575   76.9453  221.7612 H   0  0  0  0  0  0  0  0  0  0  0  0
  1  2  2  0
  2  3  2  0
  2  4  1  0
  4  5  1  0
  5  6  2  0
  6  7  1  0
  7  8  2  0
  8  9  1  0
  9 10  2  0
  2 11  1  0
 11 12  1  0
 12 13  1  0
 13 14  1  0
 14 15  1  0
 15 16  2  0
 16 17  1  0
 17 18  1  0
 18 19  1  0
 19 20  1  0
 20 21  1  0
 21 22  2  0
 22 23  1  0
 23 24  2  0
 24 25  1  0
 25 26  2  0
 26 27  1  0
 17 28  2  0
 28 29  1  0
 29 30  1  0
 30 31  1  0
 31 32  1  0
 32 33  1  0
 33 34  2  0
 34 35  1  0
 35 36  2  0
 36 37  1  0
 37 38  2  0
 38 39  1  0
 29 40  2  0
 14 41  1  0
 41 42  1  0
 10  5  1  0
 42 11  1  0
 40 15  1  0
 27 18  1  0
 39 30  1  0
 26 21  1  0
 38 33  1  0
  4 43  1  0
  4 44  1  0
  6 45  1  0
  7 46  1  0
  8 47  1  0
  9 48  1  0
 10 49  1  0
 12 50  1  0
 12 51  1  0
 13 52  1  0
 13 53  1  0
 14 54  1  0
 19 55  1  0
 19 56  1  0
 20 57  1  0
 20 58  1  0
 22 59  1  0
 23 60  1  0
 24 61  1  0
 25 62  1  0
 27 63  1  0
 27 64  1  0
 31 65  1  0
 31 66  1  0
 32 67  1  0
 32 68  1  0
 34 69  1  0
 35 70  1  0
 36 71  1  0
 37 72  1  0
 39 73  1  0
 39 74  1  0
 41 75  1  0
 41 76  1  0
 42 77  1  0
 42 78  1  0
M  END
>  <smiles>  (12) 
O=S(=O)(Cc1ccccc1)N1CCC(c2nc(N3CCc4ccccc4C3)nc(N3CCc4ccccc4C3)n2)CC1

>  <score_type>  (12) 
oracle

>  <origin>  (12) 
autodockgpu

>  <m_score__min__energy>  (12) 
-12.01

>  <m_primary>  (12) 
energy

>  <rmsd>  (12) 
11.381344581369337

>  <m_score__min__rmsd>  (12) 
11.381344581369337

>  <meeko>  (12) 
{"free_energy": -11.9, "intermolecular_energy": -13.69, "internal_energy": -1.74, "cluster_size": 32, "cluster_id": 1, "rank_in_cluster": 3}

>  <energy>  (12) 
-11.46

>  <cluster_rmsd>  (12) 
1.35

>  <cluster>  (12) 
1

$$$$

     RDKit          3D

 78 84  0  0  0  0  0  0  0  0999 V2000
  147.1200   73.7680  217.0950 O   0  0  0  0  0  0  0  0  0  0  0  0
  145.8340   72.9880  216.8630 S   0  0  0  0  0  0  0  0  0  0  0  0
  146.1860   71.7220  216.1050 O   0  0  0  0  0  0  0  0  0  0  0  0
  144.8200   73.9520  215.8010 C   0  0  0  0  0  0  0  0  0  0  0  0
  143.7250   74.5910  216.5460 C   0  0  0  0  0  0  0  0  0  0  0  0
  144.0700   75.6100  217.4280 C   0  0  0  0  0  0  0  0  0  0  0  0
  143.1150   76.2520  218.2100 C   0  0  0  0  0  0  0  0  0  0  0  0
  141.7820   75.8860  218.1280 C   0  0  0  0  0  0  0  0  0  0  0  0
  141.4470   74.8770  217.2550 C   0  0  0  0  0  0  0  0  0  0  0  0
  142.4060   74.2500  216.4850 C   0  0  0  0  0  0  0  0  0  0  0  0
  145.0750   72.5870  218.2940 N   0  0  0  0  0  0  0  0  0  0  0  0
  145.4390   73.1690  219.5070 C   0  0  0  0  0  0  0  0  0  0  0  0
  144.2590   73.6550  220.3430 C   0  0  0  0  0  0  0  0  0  0  0  0
  143.2200   72.5580  220.4150 C   0  0  0  0  0  0  0  0  0  0  0  0
  142.0700   72.9640  221.2270 C   0  0  0  0  0  0  0  0  0  0  0  0
  141.4120   72.1280  222.0740 N   0  0  0  0  0  0  0  0  0  0  0  0
  140.3640   72.5270  222.8010 C   0  0  0  0  0  0  0  0  0  0  0  0
  139.7530   71.5690  223.6540 N   0  0  0  0  0  0  0  0  0  0  0  0
  138.7580   70.6860  223.1000 C   0  0  0  0  0  0  0  0  0  0  0  0
  139.3200   69.2620  223.1850 C   0  0  0  0  0  0  0  0  0  0  0  0
  139.6300   69.0140  224.6160 C   0  0  0  0  0  0  0  0  0  0  0  0
  139.5540   67.7030  225.0520 C   0  0  0  0  0  0  0  0  0  0  0  0
  139.8310   67.4020  226.3750 C   0  0  0  0  0  0  0  0  0  0  0  0
  140.1810   68.4180  227.2400 C   0  0  0  0  0  0  0  0  0  0  0  0
  140.2640   69.7430  226.8230 C   0  0  0  0  0  0  0  0  0  0  0  0
  139.9830   70.0110  225.5000 C   0  0  0  0  0  0  0  0  0  0  0  0
  140.0720   71.4260  225.0580 C   0  0  0  0  0  0  0  0  0  0  0  0
  139.9500   73.8000  222.6930 N   0  0  0  0  0  0  0  0  0  0  0  0
  140.5590   74.6880  221.8700 C   0  0  0  0  0  0  0  0  0  0  0  0
  140.1280   76.0390  221.7470 N   0  0  0  0  0  0  0  0  0  0  0  0
  138.7890   76.3610  222.1900 C   0  0  0  0  0  0  0  0  0  0  0  0
  138.5450   77.8140  222.4210 C   0  0  0  0  0  0  0  0  0  0  0  0
  139.7960   78.5850  222.6130 C   0  0  0  0  0  0  0  0  0  0  0  0
  139.7840   79.7210  223.3970 C   0  0  0  0  0  0  0  0  0  0  0  0
  140.9510   80.4650  223.5920 C   0  0  0  0  0  0  0  0  0  0  0  0
  142.1430   80.0820  223.0070 C   0  0  0  0  0  0  0  0  0  0  0  0
  142.1660   78.9350  222.2120 C   0  0  0  0  0  0  0  0  0  0  0  0
  140.9950   78.2240  222.0400 C   0  0  0  0  0  0  0  0  0  0  0  0
  141.0220   77.0130  221.1990 C   0  0  0  0  0  0  0  0  0  0  0  0
  141.6070   74.2250  221.1640 N   0  0  0  0  0  0  0  0  0  0  0  0
  142.7780   72.2710  218.9980 C   0  0  0  0  0  0  0  0  0  0  0  0
  143.9440   71.7330  218.2410 C   0  0  0  0  0  0  0  0  0  0  0  0
  145.4352   74.7318  215.3283 H   0  0  0  0  0  0  0  0  0  0  0  0
  144.3827   73.2884  215.0405 H   0  0  0  0  0  0  0  0  0  0  0  0
  145.1236   75.9156  217.5091 H   0  0  0  0  0  0  0  0  0  0  0  0
  143.4205   77.0547  218.8972 H   0  0  0  0  0  0  0  0  0  0  0  0
  141.0167   76.3853  218.7404 H   0  0  0  0  0  0  0  0  0  0  0  0
  140.3960   74.5641  217.1689 H   0  0  0  0  0  0  0  0  0  0  0  0
  142.0957   73.4481  215.7989 H   0  0  0  0  0  0  0  0  0  0  0  0
  145.9952   72.4238  220.0947 H   0  0  0  0  0  0  0  0  0  0  0  0
  146.0432   74.0558  219.2650 H   0  0  0  0  0  0  0  0  0  0  0  0
  144.6036   73.9034  221.3577 H   0  0  0  0  0  0  0  0  0  0  0  0
  143.8207   74.5516  219.8804 H   0  0  0  0  0  0  0  0  0  0  0  0
  143.6499   71.6634  220.8892 H   0  0  0  0  0  0  0  0  0  0  0  0
  137.8253   70.7585  223.6786 H   0  0  0  0  0  0  0  0  0  0  0  0
  138.5324   70.9559  222.0578 H   0  0  0  0  0  0  0  0  0  0  0  0
  138.5739   68.5373  222.8270 H   0  0  0  0  0  0  0  0  0  0  0  0
  140.2179   69.1514  222.5592 H   0  0  0  0  0  0  0  0  0  0  0  0
  139.2747   66.9031  224.3505 H   0  0  0  0  0  0  0  0  0  0  0  0
  139.7725   66.3634  226.7325 H   0  0  0  0  0  0  0  0  0  0  0  0
  140.4008   68.1737  228.2898 H   0  0  0  0  0  0  0  0  0  0  0  0
  140.5430   70.5455  227.5217 H   0  0  0  0  0  0  0  0  0  0  0  0
  139.3653   72.0287  225.6473 H   0  0  0  0  0  0  0  0  0  0  0  0
  141.1059   71.7689  225.2115 H   0  0  0  0  0  0  0  0  0  0  0  0
  138.0808   76.0115  221.4243 H   0  0  0  0  0  0  0  0  0  0  0  0
  138.6536   75.8634  223.1616 H   0  0  0  0  0  0  0  0  0  0  0  0
  138.0106   78.2229  221.5508 H   0  0  0  0  0  0  0  0  0  0  0  0
  137.9546   77.9071  223.3445 H   0  0  0  0  0  0  0  0  0  0  0  0
  138.8465   80.0440  223.8731 H   0  0  0  0  0  0  0  0  0  0  0  0
  140.9202   81.3678  224.2197 H   0  0  0  0  0  0  0  0  0  0  0  0
  143.0583   80.6712  223.1652 H   0  0  0  0  0  0  0  0  0  0  0  0
  143.0987   78.6040  221.7319 H   0  0  0  0  0  0  0  0  0  0  0  0
  140.7063   77.2681  220.1766 H   0  0  0  0  0  0  0  0  0  0  0  0
  142.0428   76.6041  221.1729 H   0  0  0  0  0  0  0  0  0  0  0  0
  141.9656   71.5294  219.0053 H   0  0  0  0  0  0  0  0  0  0  0  0
  142.4115   73.1927  218.5225 H   0  0  0  0  0  0  0  0  0  0  0  0
  144.2200   70.7573  218.6675 H   0  0  0  0  0  0  0  0  0  0  0  0
  143.6431   71.6470  217.1865 H   0  0  0  0  0  0  0  0  0  0  0  0
  1  2  2  0
  2  3  2  0
  2  4  1  0
  4  5  1  0
  5  6  2  0
  6  7  1  0
  7  8  2  0
  8  9  1  0
  9 10  2  0
  2 11  1  0
 11 12  1  0
 12 13  1  0
 13 14  1  0
 14 15  1  0
 15 16  2  0
 16 17  1  0
 17 18  1  0
 18 19  1  0
 19 20  1  0
 20 21  1  0
 21 22  2  0
 22 23  1  0
 23 24  2  0
 24 25  1  0
 25 26  2  0
 26 27  1  0
 17 28  2  0
 28 29  1  0
 29 30  1  0
 30 31  1  0
 31 32  1  0
 32 33  1  0
 33 34  2  0
 34 35  1  0
 35 36  2  0
 36 37  1  0
 37 38  2  0
 38 39  1  0
 29 40  2  0
 14 41  1  0
 41 42  1  0
 10  5  1  0
 42 11  1  0
 40 15  1  0
 27 18  1  0
 39 30  1  0
 26 21  1  0
 38 33  1  0
  4 43  1  0
  4 44  1  0
  6 45  1  0
  7 46  1  0
  8 47  1  0
  9 48  1  0
 10 49  1  0
 12 50  1  0
 12 51  1  0
 13 52  1  0
 13 53  1  0
 14 54  1  0
 19 55  1  0
 19 56  1  0
 20 57  1  0
 20 58  1  0
 22 59  1  0
 23 60  1  0
 24 61  1  0
 25 62  1  0
 27 63  1  0
 27 64  1  0
 31 65  1  0
 31 66  1  0
 32 67  1  0
 32 68  1  0
 34 69  1  0
 35 70  1  0
 36 71  1  0
 37 72  1  0
 39 73  1  0
 39 74  1  0
 41 75  1  0
 41 76  1  0
 42 77  1  0
 42 78  1  0
M  END
>  <smiles>  (13) 
O=S(=O)(Cc1ccccc1)N1CCC(c2nc(N3CCc4ccccc4C3)nc(N3CCc4ccccc4C3)n2)CC1

>  <score_type>  (13) 
oracle

>  <origin>  (13) 
autodockgpu

>  <m_score__min__energy>  (13) 
-12.01

>  <m_primary>  (13) 
energy

>  <rmsd>  (13) 
11.18632042803454

>  <m_score__min__rmsd>  (13) 
11.18632042803454

>  <meeko>  (13) 
{"free_energy": -10.33, "intermolecular_energy": -12.11, "internal_energy": -2.87, "cluster_size": 3, "cluster_id": 5, "rank_in_cluster": 2}

>  <energy>  (13) 
-11.29

>  <cluster_rmsd>  (13) 
1.87

>  <cluster>  (13) 
1

$$$$

     RDKit          3D

 78 84  0  0  0  0  0  0  0  0999 V2000
  137.2600   80.1920  222.2910 O   0  0  0  0  0  0  0  0  0  0  0  0
  138.6780   79.6690  222.4670 S   0  0  0  0  0  0  0  0  0  0  0  0
  138.9390   79.5170  223.9540 O   0  0  0  0  0  0  0  0  0  0  0  0
  139.7720   80.9120  221.8820 C   0  0  0  0  0  0  0  0  0  0  0  0
  141.0950   80.7970  222.5140 C   0  0  0  0  0  0  0  0  0  0  0  0
  141.3530   81.6310  223.5960 C   0  0  0  0  0  0  0  0  0  0  0  0
  142.5870   81.6300  224.2400 C   0  0  0  0  0  0  0  0  0  0  0  0
  143.5980   80.7870  223.8120 C   0  0  0  0  0  0  0  0  0  0  0  0
  143.3370   79.9640  222.7410 C   0  0  0  0  0  0  0  0  0  0  0  0
  142.1080   79.9770  222.1130 C   0  0  0  0  0  0  0  0  0  0  0  0
  138.9050   78.1990  221.7090 N   0  0  0  0  0  0  0  0  0  0  0  0
  140.0280   77.9430  220.9250 C   0  0  0  0  0  0  0  0  0  0  0  0
  140.7000   76.6050  221.2180 C   0  0  0  0  0  0  0  0  0  0  0  0
  139.6470   75.5210  221.2490 C   0  0  0  0  0  0  0  0  0  0  0  0
  140.2420   74.2060  221.5060 C   0  0  0  0  0  0  0  0  0  0  0  0
  139.8770   73.4020  222.5400 N   0  0  0  0  0  0  0  0  0  0  0  0
  140.4390   72.2070  222.7490 C   0  0  0  0  0  0  0  0  0  0  0  0
  139.9790   71.4500  223.8600 N   0  0  0  0  0  0  0  0  0  0  0  0
  138.7150   70.7660  223.7550 C   0  0  0  0  0  0  0  0  0  0  0  0
  139.0070   69.2630  223.8350 C   0  0  0  0  0  0  0  0  0  0  0  0
  139.7200   69.0380  225.1190 C   0  0  0  0  0  0  0  0  0  0  0  0
  139.5560   67.8010  225.7150 C   0  0  0  0  0  0  0  0  0  0  0  0
  140.1930   67.5250  226.9120 C   0  0  0  0  0  0  0  0  0  0  0  0
  140.9860   68.4930  227.4950 C   0  0  0  0  0  0  0  0  0  0  0  0
  141.1650   69.7440  226.9130 C   0  0  0  0  0  0  0  0  0  0  0  0
  140.5180   69.9880  225.7210 C   0  0  0  0  0  0  0  0  0  0  0  0
  140.7110   71.3240  225.1020 C   0  0  0  0  0  0  0  0  0  0  0  0
  141.3960   71.7870  221.9060 N   0  0  0  0  0  0  0  0  0  0  0  0
  141.8090   72.5370  220.8550 C   0  0  0  0  0  0  0  0  0  0  0  0
  142.8240   72.1020  219.9560 N   0  0  0  0  0  0  0  0  0  0  0  0
  144.0180   72.9100  219.8460 C   0  0  0  0  0  0  0  0  0  0  0  0
  145.1840   72.2130  219.2290 C   0  0  0  0  0  0  0  0  0  0  0  0
  145.0640   70.7370  219.2770 C   0  0  0  0  0  0  0  0  0  0  0  0
  146.2040   69.9610  219.3330 C   0  0  0  0  0  0  0  0  0  0  0  0
  146.1170   68.5670  219.3780 C   0  0  0  0  0  0  0  0  0  0  0  0
  144.8890   67.9330  219.3680 C   0  0  0  0  0  0  0  0  0  0  0  0
  143.7290   68.7070  219.3110 C   0  0  0  0  0  0  0  0  0  0  0  0
  143.8530   70.0820  219.2670 C   0  0  0  0  0  0  0  0  0  0  0  0
  142.6260   70.8990  219.2070 C   0  0  0  0  0  0  0  0  0  0  0  0
  141.2060   73.7290  220.6980 N   0  0  0  0  0  0  0  0  0  0  0  0
  138.6760   75.8740  222.3530 C   0  0  0  0  0  0  0  0  0  0  0  0
  137.9940   77.1490  221.9880 C   0  0  0  0  0  0  0  0  0  0  0  0
  139.8844   80.8073  220.7928 H   0  0  0  0  0  0  0  0  0  0  0  0
  139.3493   81.8953  222.1357 H   0  0  0  0  0  0  0  0  0  0  0  0
  140.5626   82.3082  223.9519 H   0  0  0  0  0  0  0  0  0  0  0  0
  142.7596   82.3024  225.0933 H   0  0  0  0  0  0  0  0  0  0  0  0
  144.5779   80.7755  224.3118 H   0  0  0  0  0  0  0  0  0  0  0  0
  144.1217   79.2835  222.3787 H   0  0  0  0  0  0  0  0  0  0  0  0
  141.9400   79.3030  221.2601 H   0  0  0  0  0  0  0  0  0  0  0  0
  139.7212   77.9516  219.8687 H   0  0  0  0  0  0  0  0  0  0  0  0
  140.7641   78.7260  221.1598 H   0  0  0  0  0  0  0  0  0  0  0  0
  141.4358   76.3819  220.4313 H   0  0  0  0  0  0  0  0  0  0  0  0
  141.2132   76.6521  222.1898 H   0  0  0  0  0  0  0  0  0  0  0  0
  139.1401   75.4620  220.2745 H   0  0  0  0  0  0  0  0  0  0  0  0
  138.0538   71.0663  224.5812 H   0  0  0  0  0  0  0  0  0  0  0  0
  138.2116   71.0170  222.8097 H   0  0  0  0  0  0  0  0  0  0  0  0
  138.0669   68.6921  223.8175 H   0  0  0  0  0  0  0  0  0  0  0  0
  139.6140   68.9303  222.9801 H   0  0  0  0  0  0  0  0  0  0  0  0
  138.9213   67.0390  225.2391 H   0  0  0  0  0  0  0  0  0  0  0  0
  140.0687   66.5441  227.3942 H   0  0  0  0  0  0  0  0  0  0  0  0
  141.4905   68.2690  228.4464 H   0  0  0  0  0  0  0  0  0  0  0  0
  141.7985   70.5088  227.3861 H   0  0  0  0  0  0  0  0  0  0  0  0
  140.3593   72.0956  225.8027 H   0  0  0  0  0  0  0  0  0  0  0  0
  141.7817   71.4486  224.8828 H   0  0  0  0  0  0  0  0  0  0  0  0
  143.7807   73.7913  219.2320 H   0  0  0  0  0  0  0  0  0  0  0  0
  144.3161   73.1678  220.8730 H   0  0  0  0  0  0  0  0  0  0  0  0
  145.2631   72.5248  218.1771 H   0  0  0  0  0  0  0  0  0  0  0  0
  146.0782   72.4907  219.8062 H   0  0  0  0  0  0  0  0  0  0  0  0
  147.1917   70.4451  219.3423 H   0  0  0  0  0  0  0  0  0  0  0  0
  147.0377   67.9667  219.4220 H   0  0  0  0  0  0  0  0  0  0  0  0
  144.8268   66.8354  219.4044 H   0  0  0  0  0  0  0  0  0  0  0  0
  142.7369   68.2320  219.3013 H   0  0  0  0  0  0  0  0  0  0  0  0
  142.4024   71.1504  218.1597 H   0  0  0  0  0  0  0  0  0  0  0  0
  141.7843   70.3331  219.6329 H   0  0  0  0  0  0  0  0  0  0  0  0
  137.9310   75.0722  222.4633 H   0  0  0  0  0  0  0  0  0  0  0  0
  139.2126   75.9910  223.3061 H   0  0  0  0  0  0  0  0  0  0  0  0
  137.3756   76.9738  221.0953 H   0  0  0  0  0  0  0  0  0  0  0  0
  137.3863   77.4584  222.8511 H   0  0  0  0  0  0  0  0  0  0  0  0
  1  2  2  0
  2  3  2  0
  2  4  1  0
  4  5  1  0
  5  6  2  0
  6  7  1  0
  7  8  2  0
  8  9  1  0
  9 10  2  0
  2 11  1  0
 11 12  1  0
 12 13  1  0
 13 14  1  0
 14 15  1  0
 15 16  2  0
 16 17  1  0
 17 18  1  0
 18 19  1  0
 19 20  1  0
 20 21  1  0
 21 22  2  0
 22 23  1  0
 23 24  2  0
 24 25  1  0
 25 26  2  0
 26 27  1  0
 17 28  2  0
 28 29  1  0
 29 30  1  0
 30 31  1  0
 31 32  1  0
 32 33  1  0
 33 34  2  0
 34 35  1  0
 35 36  2  0
 36 37  1  0
 37 38  2  0
 38 39  1  0
 29 40  2  0
 14 41  1  0
 41 42  1  0
 10  5  1  0
 42 11  1  0
 40 15  1  0
 27 18  1  0
 39 30  1  0
 26 21  1  0
 38 33  1  0
  4 43  1  0
  4 44  1  0
  6 45  1  0
  7 46  1  0
  8 47  1  0
  9 48  1  0
 10 49  1  0
 12 50  1  0
 12 51  1  0
 13 52  1  0
 13 53  1  0
 14 54  1  0
 19 55  1  0
 19 56  1  0
 20 57  1  0
 20 58  1  0
 22 59  1  0
 23 60  1  0
 24 61  1  0
 25 62  1  0
 27 63  1  0
 27 64  1  0
 31 65  1  0
 31 66  1  0
 32 67  1  0
 32 68  1  0
 34 69  1  0
 35 70  1  0
 36 71  1  0
 37 72  1  0
 39 73  1  0
 39 74  1  0
 41 75  1  0
 41 76  1  0
 42 77  1  0
 42 78  1  0
M  END
>  <smiles>  (14) 
O=S(=O)(Cc1ccccc1)N1CCC(c2nc(N3CCc4ccccc4C3)nc(N3CCc4ccccc4C3)n2)CC1

>  <score_type>  (14) 
oracle

>  <origin>  (14) 
autodockgpu

>  <m_score__min__energy>  (14) 
-12.01

>  <m_primary>  (14) 
energy

>  <rmsd>  (14) 
11.362584523442619

>  <m_score__min__rmsd>  (14) 
11.362584523442619

>  <meeko>  (14) 
{"free_energy": -11.82, "intermolecular_energy": -13.61, "internal_energy": -1.77, "cluster_size": 32, "cluster_id": 1, "rank_in_cluster": 5}

>  <energy>  (14) 
-11.29

>  <cluster_rmsd>  (14) 
0.98

>  <cluster>  (14) 
1

$$$$

     RDKit          3D

 78 84  0  0  0  0  0  0  0  0999 V2000
  147.0960   73.7290  217.1780 O   0  0  0  0  0  0  0  0  0  0  0  0
  145.7860   73.0240  216.8550 S   0  0  0  0  0  0  0  0  0  0  0  0
  146.1070   71.8070  216.0080 O   0  0  0  0  0  0  0  0  0  0  0  0
  144.8400   74.1100  215.8490 C   0  0  0  0  0  0  0  0  0  0  0  0
  143.7830   74.7710  216.6280 C   0  0  0  0  0  0  0  0  0  0  0  0
  142.4690   74.4350  216.3240 C   0  0  0  0  0  0  0  0  0  0  0  0
  141.3940   75.0330  216.9740 C   0  0  0  0  0  0  0  0  0  0  0  0
  141.6110   75.9890  217.9510 C   0  0  0  0  0  0  0  0  0  0  0  0
  142.9130   76.3180  218.2480 C   0  0  0  0  0  0  0  0  0  0  0  0
  143.9690   75.7160  217.5940 C   0  0  0  0  0  0  0  0  0  0  0  0
  144.9730   72.5450  218.2320 N   0  0  0  0  0  0  0  0  0  0  0  0
  145.3780   72.9520  219.5020 C   0  0  0  0  0  0  0  0  0  0  0  0
  144.2410   73.4580  220.3850 C   0  0  0  0  0  0  0  0  0  0  0  0
  143.1000   72.4680  220.3340 C   0  0  0  0  0  0  0  0  0  0  0  0
  141.9850   72.8940  221.1850 C   0  0  0  0  0  0  0  0  0  0  0  0
  141.3530   72.0740  222.0670 N   0  0  0  0  0  0  0  0  0  0  0  0
  140.3380   72.4920  222.8290 C   0  0  0  0  0  0  0  0  0  0  0  0
  139.7520   71.5490  223.7170 N   0  0  0  0  0  0  0  0  0  0  0  0
  138.7150   70.6810  223.2190 C   0  0  0  0  0  0  0  0  0  0  0  0
  139.2560   69.2480  223.2850 C   0  0  0  0  0  0  0  0  0  0  0  0
  139.6310   69.0020  224.7020 C   0  0  0  0  0  0  0  0  0  0  0  0
  139.5530   67.6960  225.1490 C   0  0  0  0  0  0  0  0  0  0  0  0
  139.8900   67.3970  226.4580 C   0  0  0  0  0  0  0  0  0  0  0  0
  140.3010   68.4120  227.2990 C   0  0  0  0  0  0  0  0  0  0  0  0
  140.3870   69.7330  226.8690 C   0  0  0  0  0  0  0  0  0  0  0  0
  140.0450   69.9980  225.5600 C   0  0  0  0  0  0  0  0  0  0  0  0
  140.1380   71.4080  225.1050 C   0  0  0  0  0  0  0  0  0  0  0  0
  139.9290   73.7660  222.7200 N   0  0  0  0  0  0  0  0  0  0  0  0
  140.5140   74.6380  221.8620 C   0  0  0  0  0  0  0  0  0  0  0  0
  140.0890   75.9910  221.7390 N   0  0  0  0  0  0  0  0  0  0  0  0
  138.7510   76.3190  222.1820 C   0  0  0  0  0  0  0  0  0  0  0  0
  138.5140   77.7740  222.4110 C   0  0  0  0  0  0  0  0  0  0  0  0
  139.7690   78.5390  222.6020 C   0  0  0  0  0  0  0  0  0  0  0  0
  139.7620   79.6760  223.3860 C   0  0  0  0  0  0  0  0  0  0  0  0
  140.9320   80.4150  223.5800 C   0  0  0  0  0  0  0  0  0  0  0  0
  142.1220   80.0250  222.9950 C   0  0  0  0  0  0  0  0  0  0  0  0
  142.1400   78.8780  222.2010 C   0  0  0  0  0  0  0  0  0  0  0  0
  140.9650   78.1720  222.0300 C   0  0  0  0  0  0  0  0  0  0  0  0
  140.9870   76.9600  221.1900 C   0  0  0  0  0  0  0  0  0  0  0  0
  141.5290   74.1580  221.1230 N   0  0  0  0  0  0  0  0  0  0  0  0
  142.6480   72.3830  218.8940 C   0  0  0  0  0  0  0  0  0  0  0  0
  143.7660   71.8180  218.0830 C   0  0  0  0  0  0  0  0  0  0  0  0
  145.5051   74.8763  215.4242 H   0  0  0  0  0  0  0  0  0  0  0  0
  144.3668   73.5208  215.0497 H   0  0  0  0  0  0  0  0  0  0  0  0
  142.2742   73.6776  215.5504 H   0  0  0  0  0  0  0  0  0  0  0  0
  140.3659   74.7444  216.7099 H   0  0  0  0  0  0  0  0  0  0  0  0
  140.7702   76.4696  218.4726 H   0  0  0  0  0  0  0  0  0  0  0  0
  143.1164   77.0743  219.0204 H   0  0  0  0  0  0  0  0  0  0  0  0
  144.9954   76.0082  217.8608 H   0  0  0  0  0  0  0  0  0  0  0  0
  145.8513   72.0957  220.0048 H   0  0  0  0  0  0  0  0  0  0  0  0
  146.0694   73.7957  219.3598 H   0  0  0  0  0  0  0  0  0  0  0  0
  144.5958   73.5587  221.4213 H   0  0  0  0  0  0  0  0  0  0  0  0
  143.8983   74.4388  220.0237 H   0  0  0  0  0  0  0  0  0  0  0  0
  143.4355   71.4889  220.7065 H   0  0  0  0  0  0  0  0  0  0  0  0
  137.8138   70.7732  223.8430 H   0  0  0  0  0  0  0  0  0  0  0  0
  138.4418   70.9491  222.1877 H   0  0  0  0  0  0  0  0  0  0  0  0
  138.4812   68.5345  222.9678 H   0  0  0  0  0  0  0  0  0  0  0  0
  140.1204   69.1185  222.6171 H   0  0  0  0  0  0  0  0  0  0  0  0
  139.2245   66.8977  224.4673 H   0  0  0  0  0  0  0  0  0  0  0  0
  139.8310   66.3615  226.8243 H   0  0  0  0  0  0  0  0  0  0  0  0
  140.5680   68.1698  228.3382 H   0  0  0  0  0  0  0  0  0  0  0  0
  140.7151   70.5344  227.5473 H   0  0  0  0  0  0  0  0  0  0  0  0
  139.4728   72.0272  225.7247 H   0  0  0  0  0  0  0  0  0  0  0  0
  141.1844   71.7323  225.2047 H   0  0  0  0  0  0  0  0  0  0  0  0
  138.0410   75.9716  221.4170 H   0  0  0  0  0  0  0  0  0  0  0  0
  138.6131   75.8230  223.1541 H   0  0  0  0  0  0  0  0  0  0  0  0
  137.9817   78.1844  221.5402 H   0  0  0  0  0  0  0  0  0  0  0  0
  137.9239   77.8714  223.3342 H   0  0  0  0  0  0  0  0  0  0  0  0
  138.8261   80.0031  223.8625 H   0  0  0  0  0  0  0  0  0  0  0  0
  140.9056   81.3188  224.2064 H   0  0  0  0  0  0  0  0  0  0  0  0
  143.0402   80.6097  223.1529 H   0  0  0  0  0  0  0  0  0  0  0  0
  143.0711   78.5426  221.7208 H   0  0  0  0  0  0  0  0  0  0  0  0
  140.6724   77.2153  220.1673 H   0  0  0  0  0  0  0  0  0  0  0  0
  142.0061   76.5467  221.1641 H   0  0  0  0  0  0  0  0  0  0  0  0
  141.7669   71.7288  218.8190 H   0  0  0  0  0  0  0  0  0  0  0  0
  142.3786   73.3827  218.5224 H   0  0  0  0  0  0  0  0  0  0  0  0
  143.9399   70.7790  218.3995 H   0  0  0  0  0  0  0  0  0  0  0  0
  143.4713   71.8777  217.0249 H   0  0  0  0  0  0  0  0  0  0  0  0
  1  2  2  0
  2  3  2  0
  2  4  1  0
  4  5  1  0
  5  6  2  0
  6  7  1  0
  7  8  2  0
  8  9  1  0
  9 10  2  0
  2 11  1  0
 11 12  1  0
 12 13  1  0
 13 14  1  0
 14 15  1  0
 15 16  2  0
 16 17  1  0
 17 18  1  0
 18 19  1  0
 19 20  1  0
 20 21  1  0
 21 22  2  0
 22 23  1  0
 23 24  2  0
 24 25  1  0
 25 26  2  0
 26 27  1  0
 17 28  2  0
 28 29  1  0
 29 30  1  0
 30 31  1  0
 31 32  1  0
 32 33  1  0
 33 34  2  0
 34 35  1  0
 35 36  2  0
 36 37  1  0
 37 38  2  0
 38 39  1  0
 29 40  2  0
 14 41  1  0
 41 42  1  0
 10  5  1  0
 42 11  1  0
 40 15  1  0
 27 18  1  0
 39 30  1  0
 26 21  1  0
 38 33  1  0
  4 43  1  0
  4 44  1  0
  6 45  1  0
  7 46  1  0
  8 47  1  0
  9 48  1  0
 10 49  1  0
 12 50  1  0
 12 51  1  0
 13 52  1  0
 13 53  1  0
 14 54  1  0
 19 55  1  0
 19 56  1  0
 20 57  1  0
 20 58  1  0
 22 59  1  0
 23 60  1  0
 24 61  1  0
 25 62  1  0
 27 63  1  0
 27 64  1  0
 31 65  1  0
 31 66  1  0
 32 67  1  0
 32 68  1  0
 34 69  1  0
 35 70  1  0
 36 71  1  0
 37 72  1  0
 39 73  1  0
 39 74  1  0
 41 75  1  0
 41 76  1  0
 42 77  1  0
 42 78  1  0
M  END
>  <smiles>  (15) 
O=S(=O)(Cc1ccccc1)N1CCC(c2nc(N3CCc4ccccc4C3)nc(N3CCc4ccccc4C3)n2)CC1

>  <score_type>  (15) 
oracle

>  <origin>  (15) 
autodockgpu

>  <m_score__min__energy>  (15) 
-12.01

>  <m_primary>  (15) 
energy

>  <rmsd>  (15) 
11.230380747737483

>  <m_score__min__rmsd>  (15) 
11.230380747737483

>  <meeko>  (15) 
{"free_energy": -10.32, "intermolecular_energy": -12.11, "internal_energy": -2.84, "cluster_size": 3, "cluster_id": 5, "rank_in_cluster": 3}

>  <energy>  (15) 
-11.29

>  <cluster_rmsd>  (15) 
1.09

>  <cluster>  (15) 
1

$$$$

     RDKit          3D

 78 84  0  0  0  0  0  0  0  0999 V2000
  142.0320   79.2670  218.6510 O   0  0  0  0  0  0  0  0  0  0  0  0
  140.6310   79.4010  219.2310 S   0  0  0  0  0  0  0  0  0  0  0  0
  139.6570   79.5320  218.0740 O   0  0  0  0  0  0  0  0  0  0  0  0
  140.5730   80.9150  220.1190 C   0  0  0  0  0  0  0  0  0  0  0  0
  141.2110   80.7830  221.4380 C   0  0  0  0  0  0  0  0  0  0  0  0
  140.3980   80.9500  222.5530 C   0  0  0  0  0  0  0  0  0  0  0  0
  140.9100   80.8850  223.8450 C   0  0  0  0  0  0  0  0  0  0  0  0
  142.2580   80.6490  224.0530 C   0  0  0  0  0  0  0  0  0  0  0  0
  143.0580   80.4860  222.9450 C   0  0  0  0  0  0  0  0  0  0  0  0
  142.5350   80.5530  221.6690 C   0  0  0  0  0  0  0  0  0  0  0  0
  140.2090   78.0850  220.1670 N   0  0  0  0  0  0  0  0  0  0  0  0
  139.2480   77.1660  219.7500 C   0  0  0  0  0  0  0  0  0  0  0  0
  139.6670   75.7080  219.9170 C   0  0  0  0  0  0  0  0  0  0  0  0
  140.2190   75.5110  221.3110 C   0  0  0  0  0  0  0  0  0  0  0  0
  140.6180   74.1190  221.5350 C   0  0  0  0  0  0  0  0  0  0  0  0
  140.1580   73.3590  222.5650 N   0  0  0  0  0  0  0  0  0  0  0  0
  140.5420   72.0910  222.7440 C   0  0  0  0  0  0  0  0  0  0  0  0
  139.9970   71.3900  223.8530 N   0  0  0  0  0  0  0  0  0  0  0  0
  138.8240   70.5780  223.6500 C   0  0  0  0  0  0  0  0  0  0  0  0
  139.2300   69.1240  223.9150 C   0  0  0  0  0  0  0  0  0  0  0  0
  139.7710   69.0810  225.2980 C   0  0  0  0  0  0  0  0  0  0  0  0
  139.6320   67.8890  225.9850 C   0  0  0  0  0  0  0  0  0  0  0  0
  140.1150   67.7810  227.2780 C   0  0  0  0  0  0  0  0  0  0  0  0
  140.7320   68.8680  227.8620 C   0  0  0  0  0  0  0  0  0  0  0  0
  140.8830   70.0770  227.1890 C   0  0  0  0  0  0  0  0  0  0  0  0
  140.3920   70.1530  225.9030 C   0  0  0  0  0  0  0  0  0  0  0  0
  140.5550   71.4430  225.1870 C   0  0  0  0  0  0  0  0  0  0  0  0
  141.4110   71.5500  221.8750 N   0  0  0  0  0  0  0  0  0  0  0  0
  141.9100   72.2490  220.8260 C   0  0  0  0  0  0  0  0  0  0  0  0
  142.8310   71.6850  219.8990 N   0  0  0  0  0  0  0  0  0  0  0  0
  143.9990   72.4650  219.5530 C   0  0  0  0  0  0  0  0  0  0  0  0
  145.1030   71.6820  218.9250 C   0  0  0  0  0  0  0  0  0  0  0  0
  145.0040   70.2280  219.1950 C   0  0  0  0  0  0  0  0  0  0  0  0
  146.1530   69.4640  219.2430 C   0  0  0  0  0  0  0  0  0  0  0  0
  146.0850   68.0910  219.4960 C   0  0  0  0  0  0  0  0  0  0  0  0
  144.8700   67.4670  219.7030 C   0  0  0  0  0  0  0  0  0  0  0  0
  143.7020   68.2300  219.6560 C   0  0  0  0  0  0  0  0  0  0  0  0
  143.8060   69.5840  219.4030 C   0  0  0  0  0  0  0  0  0  0  0  0
  142.5710   70.3880  219.3530 C   0  0  0  0  0  0  0  0  0  0  0  0
  141.4850   73.5190  220.7000 N   0  0  0  0  0  0  0  0  0  0  0  0
  141.4180   76.4220  221.4490 C   0  0  0  0  0  0  0  0  0  0  0  0
  140.9490   77.8340  221.3500 C   0  0  0  0  0  0  0  0  0  0  0  0
  141.0990   81.6898  219.5419 H   0  0  0  0  0  0  0  0  0  0  0  0
  139.5187   81.1911  220.2681 H   0  0  0  0  0  0  0  0  0  0  0  0
  139.3236   81.1381  222.4104 H   0  0  0  0  0  0  0  0  0  0  0  0
  140.2396   81.0220  224.7063 H   0  0  0  0  0  0  0  0  0  0  0  0
  142.6756   80.5936  225.0691 H   0  0  0  0  0  0  0  0  0  0  0  0
  144.1337   80.2989  223.0785 H   0  0  0  0  0  0  0  0  0  0  0  0
  143.2087   80.4163  220.8103 H   0  0  0  0  0  0  0  0  0  0  0  0
  138.3331   77.3321  220.3377 H   0  0  0  0  0  0  0  0  0  0  0  0
  139.0968   77.3315  218.6731 H   0  0  0  0  0  0  0  0  0  0  0  0
  138.7945   75.0544  219.7700 H   0  0  0  0  0  0  0  0  0  0  0  0
  140.4369   75.4550  219.1732 H   0  0  0  0  0  0  0  0  0  0  0  0
  139.4475   75.7504  222.0577 H   0  0  0  0  0  0  0  0  0  0  0  0
  138.0300   70.8811  224.3483 H   0  0  0  0  0  0  0  0  0  0  0  0
  138.4388   70.6962  222.6265 H   0  0  0  0  0  0  0  0  0  0  0  0
  138.3545   68.4636  223.8290 H   0  0  0  0  0  0  0  0  0  0  0  0
  139.9780   68.7811  223.1850 H   0  0  0  0  0  0  0  0  0  0  0  0
  139.1396   67.0299  225.5060 H   0  0  0  0  0  0  0  0  0  0  0  0
  140.0079   66.8380  227.8341 H   0  0  0  0  0  0  0  0  0  0  0  0
  141.1156   68.7766  228.8889 H   0  0  0  0  0  0  0  0  0  0  0  0
  141.3749   70.9382  227.6647 H   0  0  0  0  0  0  0  0  0  0  0  0
  140.0436   72.2334  225.7560 H   0  0  0  0  0  0  0  0  0  0  0  0
  141.6313   71.6527  225.0999 H   0  0  0  0  0  0  0  0  0  0  0  0
  143.6907   73.2506  218.8474 H   0  0  0  0  0  0  0  0  0  0  0  0
  144.3977   72.8660  220.4965 H   0  0  0  0  0  0  0  0  0  0  0  0
  145.0707   71.8401  217.8369 H   0  0  0  0  0  0  0  0  0  0  0  0
  146.0487   72.0355  219.3617 H   0  0  0  0  0  0  0  0  0  0  0  0
  147.1311   69.9403  219.0806 H   0  0  0  0  0  0  0  0  0  0  0  0
  147.0116   67.4993  219.5308 H   0  0  0  0  0  0  0  0  0  0  0  0
  144.8237   66.3861  219.9017 H   0  0  0  0  0  0  0  0  0  0  0  0
  142.7193   67.7628  219.8171 H   0  0  0  0  0  0  0  0  0  0  0  0
  142.2393   70.4881  218.3090 H   0  0  0  0  0  0  0  0  0  0  0  0
  141.7832   69.8918  219.9388 H   0  0  0  0  0  0  0  0  0  0  0  0
  141.8993   76.2577  222.4244 H   0  0  0  0  0  0  0  0  0  0  0  0
  142.1482   76.2093  220.6543 H   0  0  0  0  0  0  0  0  0  0  0  0
  140.3098   78.0538  222.2178 H   0  0  0  0  0  0  0  0  0  0  0  0
  141.8402   78.4783  221.3264 H   0  0  0  0  0  0  0  0  0  0  0  0
  1  2  2  0
  2  3  2  0
  2  4  1  0
  4  5  1  0
  5  6  2  0
  6  7  1  0
  7  8  2  0
  8  9  1  0
  9 10  2  0
  2 11  1  0
 11 12  1  0
 12 13  1  0
 13 14  1  0
 14 15  1  0
 15 16  2  0
 16 17  1  0
 17 18  1  0
 18 19  1  0
 19 20  1  0
 20 21  1  0
 21 22  2  0
 22 23  1  0
 23 24  2  0
 24 25  1  0
 25 26  2  0
 26 27  1  0
 17 28  2  0
 28 29  1  0
 29 30  1  0
 30 31  1  0
 31 32  1  0
 32 33  1  0
 33 34  2  0
 34 35  1  0
 35 36  2  0
 36 37  1  0
 37 38  2  0
 38 39  1  0
 29 40  2  0
 14 41  1  0
 41 42  1  0
 10  5  1  0
 42 11  1  0
 40 15  1  0
 27 18  1  0
 39 30  1  0
 26 21  1  0
 38 33  1  0
  4 43  1  0
  4 44  1  0
  6 45  1  0
  7 46  1  0
  8 47  1  0
  9 48  1  0
 10 49  1  0
 12 50  1  0
 12 51  1  0
 13 52  1  0
 13 53  1  0
 14 54  1  0
 19 55  1  0
 19 56  1  0
 20 57  1  0
 20 58  1  0
 22 59  1  0
 23 60  1  0
 24 61  1  0
 25 62  1  0
 27 63  1  0
 27 64  1  0
 31 65  1  0
 31 66  1  0
 32 67  1  0
 32 68  1  0
 34 69  1  0
 35 70  1  0
 36 71  1  0
 37 72  1  0
 39 73  1  0
 39 74  1  0
 41 75  1  0
 41 76  1  0
 42 77  1  0
 42 78  1  0
M  END
>  <smiles>  (16) 
O=S(=O)(Cc1ccccc1)N1CCC(c2nc(N3CCc4ccccc4C3)nc(N3CCc4ccccc4C3)n2)CC1

>  <score_type>  (16) 
oracle

>  <origin>  (16) 
autodockgpu

>  <m_score__min__energy>  (16) 
-12.01

>  <m_primary>  (16) 
energy

>  <rmsd>  (16) 
11.35161318552645

>  <m_score__min__rmsd>  (16) 
11.35161318552645

>  <meeko>  (16) 
{"free_energy": -11.09, "intermolecular_energy": -12.88, "internal_energy": -1.68, "cluster_size": 32, "cluster_id": 1, "rank_in_cluster": 23}

>  <energy>  (16) 
-11.26

>  <cluster_rmsd>  (16) 
0.76

>  <cluster>  (16) 
1

$$$$

     RDKit          3D

 78 84  0  0  0  0  0  0  0  0999 V2000
  140.8600   79.1340  217.9910 O   0  0  0  0  0  0  0  0  0  0  0  0
  140.1370   79.3640  219.3100 S   0  0  0  0  0  0  0  0  0  0  0  0
  138.6470   79.4110  219.0240 O   0  0  0  0  0  0  0  0  0  0  0  0
  140.5950   80.9580  219.8880 C   0  0  0  0  0  0  0  0  0  0  0  0
  141.0660   80.9030  221.2800 C   0  0  0  0  0  0  0  0  0  0  0  0
  142.4060   80.5950  221.4830 C   0  0  0  0  0  0  0  0  0  0  0  0
  142.9430   80.4790  222.7610 C   0  0  0  0  0  0  0  0  0  0  0  0
  142.1440   80.6710  223.8750 C   0  0  0  0  0  0  0  0  0  0  0  0
  140.8180   80.9750  223.6690 C   0  0  0  0  0  0  0  0  0  0  0  0
  140.3010   81.0870  222.3940 C   0  0  0  0  0  0  0  0  0  0  0  0
  140.4520   78.1570  220.4190 N   0  0  0  0  0  0  0  0  0  0  0  0
  139.4340   77.5520  221.1540 C   0  0  0  0  0  0  0  0  0  0  0  0
  139.5110   76.0280  221.1860 C   0  0  0  0  0  0  0  0  0  0  0  0
  140.9230   75.6140  221.5340 C   0  0  0  0  0  0  0  0  0  0  0  0
  141.0500   74.1550  221.6000 C   0  0  0  0  0  0  0  0  0  0  0  0
  140.4330   73.3860  222.5370 N   0  0  0  0  0  0  0  0  0  0  0  0
  140.5690   72.0570  222.5720 C   0  0  0  0  0  0  0  0  0  0  0  0
  139.8770   71.3530  223.5940 N   0  0  0  0  0  0  0  0  0  0  0  0
  138.7760   70.5000  223.2230 C   0  0  0  0  0  0  0  0  0  0  0  0
  139.1790   69.0630  223.5750 C   0  0  0  0  0  0  0  0  0  0  0  0
  139.4950   69.0560  225.0270 C   0  0  0  0  0  0  0  0  0  0  0  0
  139.2850   67.8690  225.7050 C   0  0  0  0  0  0  0  0  0  0  0  0
  139.5610   67.7940  227.0590 C   0  0  0  0  0  0  0  0  0  0  0  0
  140.0440   68.9080  227.7140 C   0  0  0  0  0  0  0  0  0  0  0  0
  140.2630   70.1130  227.0510 C   0  0  0  0  0  0  0  0  0  0  0  0
  139.9790   70.1560  225.7030 C   0  0  0  0  0  0  0  0  0  0  0  0
  140.2140   71.4420  224.9980 C   0  0  0  0  0  0  0  0  0  0  0  0
  141.3420   71.4610  221.6500 N   0  0  0  0  0  0  0  0  0  0  0  0
  141.9870   72.1660  220.6880 C   0  0  0  0  0  0  0  0  0  0  0  0
  142.8090   71.5450  219.7050 N   0  0  0  0  0  0  0  0  0  0  0  0
  143.8650   72.3360  219.1140 C   0  0  0  0  0  0  0  0  0  0  0  0
  144.9220   71.5420  218.4230 C   0  0  0  0  0  0  0  0  0  0  0  0
  144.9570   70.1260  218.8600 C   0  0  0  0  0  0  0  0  0  0  0  0
  146.1490   69.4310  218.8270 C   0  0  0  0  0  0  0  0  0  0  0  0
  146.2070   68.0950  219.2340 C   0  0  0  0  0  0  0  0  0  0  0  0
  145.0750   67.4400  219.6790 C   0  0  0  0  0  0  0  0  0  0  0  0
  143.8640   68.1330  219.7170 C   0  0  0  0  0  0  0  0  0  0  0  0
  143.8430   69.4520  219.3070 C   0  0  0  0  0  0  0  0  0  0  0  0
  142.5630   70.1820  219.3460 C   0  0  0  0  0  0  0  0  0  0  0  0
  141.8100   73.4990  220.7050 N   0  0  0  0  0  0  0  0  0  0  0  0
  141.8280   76.1630  220.4550 C   0  0  0  0  0  0  0  0  0  0  0  0
  141.7740   77.6530  220.5100 C   0  0  0  0  0  0  0  0  0  0  0  0
  141.4008   81.3527  219.2517 H   0  0  0  0  0  0  0  0  0  0  0  0
  139.7115   81.6118  219.8444 H   0  0  0  0  0  0  0  0  0  0  0  0
  143.0583   80.4390  220.6111 H   0  0  0  0  0  0  0  0  0  0  0  0
  144.0078   80.2335  222.8870 H   0  0  0  0  0  0  0  0  0  0  0  0
  142.5556   80.5834  224.8913 H   0  0  0  0  0  0  0  0  0  0  0  0
  140.1585   81.1315  224.5353 H   0  0  0  0  0  0  0  0  0  0  0  0
  139.2358   81.3330  222.2723 H   0  0  0  0  0  0  0  0  0  0  0  0
  139.4874   77.9226  222.1883 H   0  0  0  0  0  0  0  0  0  0  0  0
  138.4869   77.8119  220.6585 H   0  0  0  0  0  0  0  0  0  0  0  0
  138.8152   75.6394  221.9442 H   0  0  0  0  0  0  0  0  0  0  0  0
  139.2362   75.6211  220.2017 H   0  0  0  0  0  0  0  0  0  0  0  0
  141.1966   76.0084  222.5238 H   0  0  0  0  0  0  0  0  0  0  0  0
  137.8726   70.7859  223.7816 H   0  0  0  0  0  0  0  0  0  0  0  0
  138.5544   70.5922  222.1495 H   0  0  0  0  0  0  0  0  0  0  0  0
  138.3487   68.3731  223.3636 H   0  0  0  0  0  0  0  0  0  0  0  0
  140.0433   68.7353  222.9786 H   0  0  0  0  0  0  0  0  0  0  0  0
  138.9002   66.9881  225.1702 H   0  0  0  0  0  0  0  0  0  0  0  0
  139.3968   66.8550  227.6079 H   0  0  0  0  0  0  0  0  0  0  0  0
  140.2623   68.8426  228.7901 H   0  0  0  0  0  0  0  0  0  0  0  0
  140.6476   70.9960  227.5824 H   0  0  0  0  0  0  0  0  0  0  0  0
  139.5946   72.2223  225.4643 H   0  0  0  0  0  0  0  0  0  0  0  0
  141.2835   71.6863  225.0787 H   0  0  0  0  0  0  0  0  0  0  0  0
  143.4127   73.0182  218.3792 H   0  0  0  0  0  0  0  0  0  0  0  0
  144.3616   72.8625  219.9424 H   0  0  0  0  0  0  0  0  0  0  0  0
  144.7311   71.5706  217.3401 H   0  0  0  0  0  0  0  0  0  0  0  0
  145.8930   71.9910  218.6791 H   0  0  0  0  0  0  0  0  0  0  0  0
  147.0627   69.9336  218.4768 H   0  0  0  0  0  0  0  0  0  0  0  0
  147.1665   67.5582  219.1995 H   0  0  0  0  0  0  0  0  0  0  0  0
  145.1272   66.3887  219.9984 H   0  0  0  0  0  0  0  0  0  0  0  0
  142.9453   67.6390  220.0662 H   0  0  0  0  0  0  0  0  0  0  0  0
  142.0869   70.1428  218.3552 H   0  0  0  0  0  0  0  0  0  0  0  0
  141.8962   69.7191  220.0883 H   0  0  0  0  0  0  0  0  0  0  0  0
  142.8597   75.8218  220.6260 H   0  0  0  0  0  0  0  0  0  0  0  0
  141.4978   75.8085  219.4674 H   0  0  0  0  0  0  0  0  0  0  0  0
  142.2127   77.9860  221.4622 H   0  0  0  0  0  0  0  0  0  0  0  0
  142.3361   78.0376  219.6462 H   0  0  0  0  0  0  0  0  0  0  0  0
  1  2  2  0
  2  3  2  0
  2  4  1  0
  4  5  1  0
  5  6  2  0
  6  7  1  0
  7  8  2  0
  8  9  1  0
  9 10  2  0
  2 11  1  0
 11 12  1  0
 12 13  1  0
 13 14  1  0
 14 15  1  0
 15 16  2  0
 16 17  1  0
 17 18  1  0
 18 19  1  0
 19 20  1  0
 20 21  1  0
 21 22  2  0
 22 23  1  0
 23 24  2  0
 24 25  1  0
 25 26  2  0
 26 27  1  0
 17 28  2  0
 28 29  1  0
 29 30  1  0
 30 31  1  0
 31 32  1  0
 32 33  1  0
 33 34  2  0
 34 35  1  0
 35 36  2  0
 36 37  1  0
 37 38  2  0
 38 39  1  0
 29 40  2  0
 14 41  1  0
 41 42  1  0
 10  5  1  0
 42 11  1  0
 40 15  1  0
 27 18  1  0
 39 30  1  0
 26 21  1  0
 38 33  1  0
  4 43  1  0
  4 44  1  0
  6 45  1  0
  7 46  1  0
  8 47  1  0
  9 48  1  0
 10 49  1  0
 12 50  1  0
 12 51  1  0
 13 52  1  0
 13 53  1  0
 14 54  1  0
 19 55  1  0
 19 56  1  0
 20 57  1  0
 20 58  1  0
 22 59  1  0
 23 60  1  0
 24 61  1  0
 25 62  1  0
 27 63  1  0
 27 64  1  0
 31 65  1  0
 31 66  1  0
 32 67  1  0
 32 68  1  0
 34 69  1  0
 35 70  1  0
 36 71  1  0
 37 72  1  0
 39 73  1  0
 39 74  1  0
 41 75  1  0
 41 76  1  0
 42 77  1  0
 42 78  1  0
M  END
>  <smiles>  (17) 
O=S(=O)(Cc1ccccc1)N1CCC(c2nc(N3CCc4ccccc4C3)nc(N3CCc4ccccc4C3)n2)CC1

>  <score_type>  (17) 
oracle

>  <origin>  (17) 
autodockgpu

>  <m_score__min__energy>  (17) 
-12.01

>  <m_primary>  (17) 
energy

>  <rmsd>  (17) 
11.245121202799792

>  <m_score__min__rmsd>  (17) 
11.245121202799792

>  <meeko>  (17) 
{"free_energy": -10.88, "intermolecular_energy": -12.67, "internal_energy": -1.95, "cluster_size": 32, "cluster_id": 1, "rank_in_cluster": 31}

>  <energy>  (17) 
-11.22

>  <cluster_rmsd>  (17) 
0.77

>  <cluster>  (17) 
1

$$$$

     RDKit          3D

 78 84  0  0  0  0  0  0  0  0999 V2000
  139.8660   79.0440  218.4280 O   0  0  0  0  0  0  0  0  0  0  0  0
  139.8190   79.1800  219.9430 S   0  0  0  0  0  0  0  0  0  0  0  0
  138.3610   79.1960  220.3660 O   0  0  0  0  0  0  0  0  0  0  0  0
  140.4840   80.7550  220.3480 C   0  0  0  0  0  0  0  0  0  0  0  0
  141.3160   80.6850  221.5590 C   0  0  0  0  0  0  0  0  0  0  0  0
  140.8000   81.2620  222.7140 C   0  0  0  0  0  0  0  0  0  0  0  0
  141.5240   81.2860  223.9020 C   0  0  0  0  0  0  0  0  0  0  0  0
  142.7890   80.7280  223.9630 C   0  0  0  0  0  0  0  0  0  0  0  0
  143.2940   80.1590  222.8160 C   0  0  0  0  0  0  0  0  0  0  0  0
  142.5640   80.1430  221.6450 C   0  0  0  0  0  0  0  0  0  0  0  0
  140.6080   77.9270  220.7120 N   0  0  0  0  0  0  0  0  0  0  0  0
  140.1660   77.4230  221.9340 C   0  0  0  0  0  0  0  0  0  0  0  0
  140.0970   75.8990  221.9910 C   0  0  0  0  0  0  0  0  0  0  0  0
  141.3930   75.3270  221.4610 C   0  0  0  0  0  0  0  0  0  0  0  0
  141.3900   73.8630  221.5130 C   0  0  0  0  0  0  0  0  0  0  0  0
  142.0850   73.0760  220.6480 N   0  0  0  0  0  0  0  0  0  0  0  0
  142.0610   71.7420  220.7200 C   0  0  0  0  0  0  0  0  0  0  0  0
  142.8260   71.0190  219.7650 N   0  0  0  0  0  0  0  0  0  0  0  0
  143.8190   71.7260  218.9960 C   0  0  0  0  0  0  0  0  0  0  0  0
  145.1850   71.1480  219.3830 C   0  0  0  0  0  0  0  0  0  0  0  0
  145.1220   69.6890  219.1070 C   0  0  0  0  0  0  0  0  0  0  0  0
  146.3120   69.0650  218.7790 C   0  0  0  0  0  0  0  0  0  0  0  0
  146.3230   67.7070  218.5110 C   0  0  0  0  0  0  0  0  0  0  0  0
  145.1430   66.9950  218.5760 C   0  0  0  0  0  0  0  0  0  0  0  0
  143.9350   67.6040  218.9040 C   0  0  0  0  0  0  0  0  0  0  0  0
  143.9560   68.9560  219.1660 C   0  0  0  0  0  0  0  0  0  0  0  0
  142.6660   69.6020  219.5150 C   0  0  0  0  0  0  0  0  0  0  0  0
  141.3270   71.1580  221.6810 N   0  0  0  0  0  0  0  0  0  0  0  0
  140.6100   71.8810  222.5770 C   0  0  0  0  0  0  0  0  0  0  0  0
  139.8290   71.2730  223.5990 N   0  0  0  0  0  0  0  0  0  0  0  0
  138.7250   70.4310  223.1920 C   0  0  0  0  0  0  0  0  0  0  0  0
  138.2180   69.5170  224.2570 C   0  0  0  0  0  0  0  0  0  0  0  0
  139.2000   69.2980  225.3450 C   0  0  0  0  0  0  0  0  0  0  0  0
  139.1910   68.1070  226.0420 C   0  0  0  0  0  0  0  0  0  0  0  0
  140.1060   67.8780  227.0730 C   0  0  0  0  0  0  0  0  0  0  0  0
  141.0410   68.8350  227.4170 C   0  0  0  0  0  0  0  0  0  0  0  0
  141.0590   70.0440  226.7190 C   0  0  0  0  0  0  0  0  0  0  0  0
  140.1390   70.2370  225.7060 C   0  0  0  0  0  0  0  0  0  0  0  0
  140.1590   71.5140  224.9710 C   0  0  0  0  0  0  0  0  0  0  0  0
  140.6740   73.2190  222.4520 N   0  0  0  0  0  0  0  0  0  0  0  0
  141.5340   75.7950  220.0300 C   0  0  0  0  0  0  0  0  0  0  0  0
  141.6700   77.2800  220.0320 C   0  0  0  0  0  0  0  0  0  0  0  0
  141.1003   81.1109  219.5092 H   0  0  0  0  0  0  0  0  0  0  0  0
  139.6503   81.4472  220.5374 H   0  0  0  0  0  0  0  0  0  0  0  0
  139.7957   81.7101  222.6880 H   0  0  0  0  0  0  0  0  0  0  0  0
  141.0882   81.7514  224.7983 H   0  0  0  0  0  0  0  0  0  0  0  0
  143.3710   80.7389  224.8963 H   0  0  0  0  0  0  0  0  0  0  0  0
  144.2976   79.7089  222.8330 H   0  0  0  0  0  0  0  0  0  0  0  0
  143.0039   79.6772  220.7508 H   0  0  0  0  0  0  0  0  0  0  0  0
  140.8550   77.7673  222.7193 H   0  0  0  0  0  0  0  0  0  0  0  0
  139.1400   77.7927  222.0773 H   0  0  0  0  0  0  0  0  0  0  0  0
  139.9494   75.5752  223.0319 H   0  0  0  0  0  0  0  0  0  0  0  0
  139.2556   75.5420  221.3790 H   0  0  0  0  0  0  0  0  0  0  0  0
  142.2363   75.6703  222.0782 H   0  0  0  0  0  0  0  0  0  0  0  0
  143.6383   71.5795  217.9209 H   0  0  0  0  0  0  0  0  0  0  0  0
  143.7782   72.8057  219.2025 H   0  0  0  0  0  0  0  0  0  0  0  0
  145.9788   71.6143  218.7810 H   0  0  0  0  0  0  0  0  0  0  0  0
  145.4126   71.3421  220.4415 H   0  0  0  0  0  0  0  0  0  0  0  0
  147.2453   69.6452  218.7314 H   0  0  0  0  0  0  0  0  0  0  0  0
  147.2635   67.2004  218.2487 H   0  0  0  0  0  0  0  0  0  0  0  0
  145.1572   65.9160  218.3627 H   0  0  0  0  0  0  0  0  0  0  0  0
  142.9994   67.0275  218.9521 H   0  0  0  0  0  0  0  0  0  0  0  0
  141.9617   69.4646  218.6813 H   0  0  0  0  0  0  0  0  0  0  0  0
  142.2857   69.1328  220.4344 H   0  0  0  0  0  0  0  0  0  0  0  0
  137.8964   71.0809  222.8740 H   0  0  0  0  0  0  0  0  0  0  0  0
  139.1032   69.7889  222.3829 H   0  0  0  0  0  0  0  0  0  0  0  0
  137.3063   69.9543  224.6900 H   0  0  0  0  0  0  0  0  0  0  0  0
  138.0216   68.5413  223.7885 H   0  0  0  0  0  0  0  0  0  0  0  0
  138.4563   67.3303  225.7835 H   0  0  0  0  0  0  0  0  0  0  0  0
  140.0815   66.9228  227.6180 H   0  0  0  0  0  0  0  0  0  0  0  0
  141.7600   68.6474  228.2281 H   0  0  0  0  0  0  0  0  0  0  0  0
  141.7902   70.8265  226.9701 H   0  0  0  0  0  0  0  0  0  0  0  0
  139.4230   72.2031  225.4108 H   0  0  0  0  0  0  0  0  0  0  0  0
  141.1613   71.9624  225.0366 H   0  0  0  0  0  0  0  0  0  0  0  0
  142.4274   75.3407  219.5768 H   0  0  0  0  0  0  0  0  0  0  0  0
  140.6507   75.4970  219.4460 H   0  0  0  0  0  0  0  0  0  0  0  0
  142.6168   77.5457  220.5249 H   0  0  0  0  0  0  0  0  0  0  0  0
  141.6471   77.6165  218.9850 H   0  0  0  0  0  0  0  0  0  0  0  0
  1  2  2  0
  2  3  2  0
  2  4  1  0
  4  5  1  0
  5  6  2  0
  6  7  1  0
  7  8  2  0
  8  9  1  0
  9 10  2  0
  2 11  1  0
 11 12  1  0
 12 13  1  0
 13 14  1  0
 14 15  1  0
 15 16  2  0
 16 17  1  0
 17 18  1  0
 18 19  1  0
 19 20  1  0
 20 21  1  0
 21 22  2  0
 22 23  1  0
 23 24  2  0
 24 25  1  0
 25 26  2  0
 26 27  1  0
 17 28  2  0
 28 29  1  0
 29 30  1  0
 30 31  1  0
 31 32  1  0
 32 33  1  0
 33 34  2  0
 34 35  1  0
 35 36  2  0
 36 37  1  0
 37 38  2  0
 38 39  1  0
 29 40  2  0
 14 41  1  0
 41 42  1  0
 10  5  1  0
 42 11  1  0
 40 15  1  0
 27 18  1  0
 39 30  1  0
 26 21  1  0
 38 33  1  0
  4 43  1  0
  4 44  1  0
  6 45  1  0
  7 46  1  0
  8 47  1  0
  9 48  1  0
 10 49  1  0
 12 50  1  0
 12 51  1  0
 13 52  1  0
 13 53  1  0
 14 54  1  0
 19 55  1  0
 19 56  1  0
 20 57  1  0
 20 58  1  0
 22 59  1  0
 23 60  1  0
 24 61  1  0
 25 62  1  0
 27 63  1  0
 27 64  1  0
 31 65  1  0
 31 66  1  0
 32 67  1  0
 32 68  1  0
 34 69  1  0
 35 70  1  0
 36 71  1  0
 37 72  1  0
 39 73  1  0
 39 74  1  0
 41 75  1  0
 41 76  1  0
 42 77  1  0
 42 78  1  0
M  END
>  <smiles>  (18) 
O=S(=O)(Cc1ccccc1)N1CCC(c2nc(N3CCc4ccccc4C3)nc(N3CCc4ccccc4C3)n2)CC1

>  <score_type>  (18) 
oracle

>  <origin>  (18) 
autodockgpu

>  <m_score__min__energy>  (18) 
-12.01

>  <m_primary>  (18) 
energy

>  <rmsd>  (18) 
11.168153518296483

>  <m_score__min__rmsd>  (18) 
11.168153518296483

>  <meeko>  (18) 
{"free_energy": -11.06, "intermolecular_energy": -12.85, "internal_energy": -1.9, "cluster_size": 32, "cluster_id": 1, "rank_in_cluster": 26}

>  <energy>  (18) 
-11.21

>  <cluster_rmsd>  (18) 
0.9

>  <cluster>  (18) 
1

$$$$

     RDKit          3D

 78 84  0  0  0  0  0  0  0  0999 V2000
  139.4710   79.3060  218.7590 O   0  0  0  0  0  0  0  0  0  0  0  0
  139.6260   79.4370  220.2670 S   0  0  0  0  0  0  0  0  0  0  0  0
  138.2370   79.4760  220.8780 O   0  0  0  0  0  0  0  0  0  0  0  0
  140.3660   80.9980  220.5850 C   0  0  0  0  0  0  0  0  0  0  0  0
  141.2210   80.9480  221.7800 C   0  0  0  0  0  0  0  0  0  0  0  0
  142.4320   80.2750  221.6640 C   0  0  0  0  0  0  0  0  0  0  0  0
  143.2960   80.1360  222.7450 C   0  0  0  0  0  0  0  0  0  0  0  0
  142.9650   80.6710  223.9780 C   0  0  0  0  0  0  0  0  0  0  0  0
  141.7650   81.3350  224.0880 C   0  0  0  0  0  0  0  0  0  0  0  0
  140.9190   81.4660  223.0050 C   0  0  0  0  0  0  0  0  0  0  0  0
  140.4870   78.1670  220.9250 N   0  0  0  0  0  0  0  0  0  0  0  0
  140.1920   77.6560  222.1870 C   0  0  0  0  0  0  0  0  0  0  0  0
  140.1110   76.1330  222.2390 C   0  0  0  0  0  0  0  0  0  0  0  0
  141.3250   75.5510  221.5510 C   0  0  0  0  0  0  0  0  0  0  0  0
  141.3100   74.0860  221.5900 C   0  0  0  0  0  0  0  0  0  0  0  0
  140.6700   73.3640  222.5480 N   0  0  0  0  0  0  0  0  0  0  0  0
  140.6750   72.0280  222.5580 C   0  0  0  0  0  0  0  0  0  0  0  0
  139.9710   71.3760  223.6060 N   0  0  0  0  0  0  0  0  0  0  0  0
  138.8410   70.5470  223.2700 C   0  0  0  0  0  0  0  0  0  0  0  0
  139.2030   69.1100  223.6610 C   0  0  0  0  0  0  0  0  0  0  0  0
  139.5330   69.1350  225.1090 C   0  0  0  0  0  0  0  0  0  0  0  0
  139.2930   67.9760  225.8240 C   0  0  0  0  0  0  0  0  0  0  0  0
  139.5780   67.9320  227.1780 C   0  0  0  0  0  0  0  0  0  0  0  0
  140.1010   69.0500  227.7950 C   0  0  0  0  0  0  0  0  0  0  0  0
  140.3510   70.2260  227.0950 C   0  0  0  0  0  0  0  0  0  0  0  0
  140.0570   70.2390  225.7490 C   0  0  0  0  0  0  0  0  0  0  0  0
  140.3240   71.4960  225.0040 C   0  0  0  0  0  0  0  0  0  0  0  0
  141.3360   71.3760  221.5870 N   0  0  0  0  0  0  0  0  0  0  0  0
  141.9960   72.0330  220.6010 C   0  0  0  0  0  0  0  0  0  0  0  0
  142.6990   71.3520  219.5670 N   0  0  0  0  0  0  0  0  0  0  0  0
  143.5900   72.1300  218.7350 C   0  0  0  0  0  0  0  0  0  0  0  0
  144.5830   71.3250  217.9670 C   0  0  0  0  0  0  0  0  0  0  0  0
  144.7900   69.9710  218.5350 C   0  0  0  0  0  0  0  0  0  0  0  0
  146.0100   69.3460  218.3800 C   0  0  0  0  0  0  0  0  0  0  0  0
  146.2290   68.0700  218.9070 C   0  0  0  0  0  0  0  0  0  0  0  0
  145.2310   67.4050  219.5930 C   0  0  0  0  0  0  0  0  0  0  0  0
  143.9930   68.0290  219.7560 C   0  0  0  0  0  0  0  0  0  0  0  0
  143.8110   69.2900  219.2220 C   0  0  0  0  0  0  0  0  0  0  0  0
  142.5020   69.9460  219.3940 C   0  0  0  0  0  0  0  0  0  0  0  0
  141.9530   73.3760  220.6460 N   0  0  0  0  0  0  0  0  0  0  0  0
  141.2970   76.0310  220.1170 C   0  0  0  0  0  0  0  0  0  0  0  0
  141.4500   77.5140  220.1150 C   0  0  0  0  0  0  0  0  0  0  0  0
  140.9778   81.2883  219.7181 H   0  0  0  0  0  0  0  0  0  0  0  0
  139.5666   81.7332  220.7594 H   0  0  0  0  0  0  0  0  0  0  0  0
  142.7138   79.8417  220.6930 H   0  0  0  0  0  0  0  0  0  0  0  0
  144.2473   79.5981  222.6195 H   0  0  0  0  0  0  0  0  0  0  0  0
  143.6390   80.5687  224.8413 H   0  0  0  0  0  0  0  0  0  0  0  0
  141.4746   81.7692  225.0561 H   0  0  0  0  0  0  0  0  0  0  0  0
  139.9696   82.0062  223.1344 H   0  0  0  0  0  0  0  0  0  0  0  0
  140.9765   77.9843  222.8847 H   0  0  0  0  0  0  0  0  0  0  0  0
  139.1961   78.0361  222.4583 H   0  0  0  0  0  0  0  0  0  0  0  0
  140.0867   75.8007  223.2873 H   0  0  0  0  0  0  0  0  0  0  0  0
  139.1970   75.7922  221.7306 H   0  0  0  0  0  0  0  0  0  0  0  0
  142.2409   75.8784  222.0647 H   0  0  0  0  0  0  0  0  0  0  0  0
  137.9521   70.8770  223.8276 H   0  0  0  0  0  0  0  0  0  0  0  0
  138.6121   70.6143  222.1962 H   0  0  0  0  0  0  0  0  0  0  0  0
  138.3499   68.4403  223.4776 H   0  0  0  0  0  0  0  0  0  0  0  0
  140.0511   68.7388  223.0670 H   0  0  0  0  0  0  0  0  0  0  0  0
  138.8770   67.0920  225.3186 H   0  0  0  0  0  0  0  0  0  0  0  0
  139.3895   67.0153  227.7560 H   0  0  0  0  0  0  0  0  0  0  0  0
  140.3266   69.0103  228.8709 H   0  0  0  0  0  0  0  0  0  0  0  0
  140.7675   71.1117  227.5970 H   0  0  0  0  0  0  0  0  0  0  0  0
  139.7330   72.3082  225.4523 H   0  0  0  0  0  0  0  0  0  0  0  0
  141.4011   71.7098  225.0681 H   0  0  0  0  0  0  0  0  0  0  0  0
  142.9803   72.6984  218.0172 H   0  0  0  0  0  0  0  0  0  0  0  0
  144.1686   72.7734  219.4142 H   0  0  0  0  0  0  0  0  0  0  0  0
  144.2253   71.2207  216.9320 H   0  0  0  0  0  0  0  0  0  0  0  0
  145.5460   71.8545  218.0154 H   0  0  0  0  0  0  0  0  0  0  0  0
  146.8184   69.8568  217.8364 H   0  0  0  0  0  0  0  0  0  0  0  0
  147.2092   67.5888  218.7737 H   0  0  0  0  0  0  0  0  0  0  0  0
  145.4091   66.4003  220.0040 H   0  0  0  0  0  0  0  0  0  0  0  0
  143.1787   67.5267  220.2988 H   0  0  0  0  0  0  0  0  0  0  0  0
  141.8817   69.7684  218.5031 H   0  0  0  0  0  0  0  0  0  0  0  0
  141.9951   69.5326  220.2784 H   0  0  0  0  0  0  0  0  0  0  0  0
  142.1234   75.5714  219.5550 H   0  0  0  0  0  0  0  0  0  0  0  0
  140.3461   75.7481  219.6419 H   0  0  0  0  0  0  0  0  0  0  0  0
  142.4531   77.7643  220.4907 H   0  0  0  0  0  0  0  0  0  0  0  0
  141.3030   77.8606  219.0814 H   0  0  0  0  0  0  0  0  0  0  0  0
  1  2  2  0
  2  3  2  0
  2  4  1  0
  4  5  1  0
  5  6  2  0
  6  7  1  0
  7  8  2  0
  8  9  1  0
  9 10  2  0
  2 11  1  0
 11 12  1  0
 12 13  1  0
 13 14  1  0
 14 15  1  0
 15 16  2  0
 16 17  1  0
 17 18  1  0
 18 19  1  0
 19 20  1  0
 20 21  1  0
 21 22  2  0
 22 23  1  0
 23 24  2  0
 24 25  1  0
 25 26  2  0
 26 27  1  0
 17 28  2  0
 28 29  1  0
 29 30  1  0
 30 31  1  0
 31 32  1  0
 32 33  1  0
 33 34  2  0
 34 35  1  0
 35 36  2  0
 36 37  1  0
 37 38  2  0
 38 39  1  0
 29 40  2  0
 14 41  1  0
 41 42  1  0
 10  5  1  0
 42 11  1  0
 40 15  1  0
 27 18  1  0
 39 30  1  0
 26 21  1  0
 38 33  1  0
  4 43  1  0
  4 44  1  0
  6 45  1  0
  7 46  1  0
  8 47  1  0
  9 48  1  0
 10 49  1  0
 12 50  1  0
 12 51  1  0
 13 52  1  0
 13 53  1  0
 14 54  1  0
 19 55  1  0
 19 56  1  0
 20 57  1  0
 20 58  1  0
 22 59  1  0
 23 60  1  0
 24 61  1  0
 25 62  1  0
 27 63  1  0
 27 64  1  0
 31 65  1  0
 31 66  1  0
 32 67  1  0
 32 68  1  0
 34 69  1  0
 35 70  1  0
 36 71  1  0
 37 72  1  0
 39 73  1  0
 39 74  1  0
 41 75  1  0
 41 76  1  0
 42 77  1  0
 42 78  1  0
M  END
>  <smiles>  (19) 
O=S(=O)(Cc1ccccc1)N1CCC(c2nc(N3CCc4ccccc4C3)nc(N3CCc4ccccc4C3)n2)CC1

>  <score_type>  (19) 
oracle

>  <origin>  (19) 
autodockgpu

>  <m_score__min__energy>  (19) 
-12.01

>  <m_primary>  (19) 
energy

>  <rmsd>  (19) 
11.205430624647594

>  <m_score__min__rmsd>  (19) 
11.205430624647594

>  <meeko>  (19) 
{"free_energy": -10.91, "intermolecular_energy": -12.7, "internal_energy": -1.9, "cluster_size": 32, "cluster_id": 1, "rank_in_cluster": 29}

>  <energy>  (19) 
-11.15

>  <cluster_rmsd>  (19) 
1.8

>  <cluster>  (19) 
1

$$$$

     RDKit          3D

 78 84  0  0  0  0  0  0  0  0999 V2000
  139.6730   79.9260  218.4940 O   0  0  0  0  0  0  0  0  0  0  0  0
  140.5520   79.4810  219.6550 S   0  0  0  0  0  0  0  0  0  0  0  0
  140.5310   80.5780  220.7030 O   0  0  0  0  0  0  0  0  0  0  0  0
  142.2000   79.3800  219.0560 C   0  0  0  0  0  0  0  0  0  0  0  0
  142.5280   78.0110  218.6310 C   0  0  0  0  0  0  0  0  0  0  0  0
  142.9760   77.1350  219.6130 C   0  0  0  0  0  0  0  0  0  0  0  0
  143.3510   75.8290  219.3100 C   0  0  0  0  0  0  0  0  0  0  0  0
  143.2860   75.3680  218.0060 C   0  0  0  0  0  0  0  0  0  0  0  0
  142.8430   76.2400  217.0380 C   0  0  0  0  0  0  0  0  0  0  0  0
  142.4740   77.5320  217.3560 C   0  0  0  0  0  0  0  0  0  0  0  0
  140.0210   78.0520  220.3350 N   0  0  0  0  0  0  0  0  0  0  0  0
  139.3880   77.0690  219.5760 C   0  0  0  0  0  0  0  0  0  0  0  0
  139.9180   75.6590  219.8170 C   0  0  0  0  0  0  0  0  0  0  0  0
  139.9930   75.4080  221.3070 C   0  0  0  0  0  0  0  0  0  0  0  0
  140.4770   74.0560  221.5970 C   0  0  0  0  0  0  0  0  0  0  0  0
  140.0830   73.3290  222.6760 N   0  0  0  0  0  0  0  0  0  0  0  0
  140.5440   72.0970  222.9150 C   0  0  0  0  0  0  0  0  0  0  0  0
  140.0630   71.4280  224.0730 N   0  0  0  0  0  0  0  0  0  0  0  0
  138.9730   70.4960  223.9310 C   0  0  0  0  0  0  0  0  0  0  0  0
  139.5140   69.1100  224.2990 C   0  0  0  0  0  0  0  0  0  0  0  0
  140.0510   69.2180  225.6800 C   0  0  0  0  0  0  0  0  0  0  0  0
  140.0220   68.0700  226.4510 C   0  0  0  0  0  0  0  0  0  0  0  0
  140.5070   68.1010  227.7470 C   0  0  0  0  0  0  0  0  0  0  0  0
  141.0160   69.2810  228.2510 C   0  0  0  0  0  0  0  0  0  0  0  0
  141.0540   70.4470  227.4920 C   0  0  0  0  0  0  0  0  0  0  0  0
  140.5640   70.3840  226.2060 C   0  0  0  0  0  0  0  0  0  0  0  0
  140.6070   71.6300  225.3990 C   0  0  0  0  0  0  0  0  0  0  0  0
  141.4250   71.5590  222.0570 N   0  0  0  0  0  0  0  0  0  0  0  0
  141.8610   72.2270  220.9600 C   0  0  0  0  0  0  0  0  0  0  0  0
  142.7950   71.6660  220.0440 N   0  0  0  0  0  0  0  0  0  0  0  0
  144.0930   72.2950  219.9370 C   0  0  0  0  0  0  0  0  0  0  0  0
  145.1420   71.4490  219.2960 C   0  0  0  0  0  0  0  0  0  0  0  0
  144.8100   70.0050  219.3190 C   0  0  0  0  0  0  0  0  0  0  0  0
  145.8270   69.0720  219.3510 C   0  0  0  0  0  0  0  0  0  0  0  0
  145.5390   67.7040  219.3730 C   0  0  0  0  0  0  0  0  0  0  0  0
  144.2320   67.2540  219.3640 C   0  0  0  0  0  0  0  0  0  0  0  0
  143.1960   68.1890  219.3320 C   0  0  0  0  0  0  0  0  0  0  0  0
  143.5170   69.5320  219.3110 C   0  0  0  0  0  0  0  0  0  0  0  0
  142.4210   70.5180  219.2760 C   0  0  0  0  0  0  0  0  0  0  0  0
  141.3610   73.4620  220.7750 N   0  0  0  0  0  0  0  0  0  0  0  0
  140.9430   76.4330  221.8840 C   0  0  0  0  0  0  0  0  0  0  0  0
  140.3490   77.7870  221.6880 C   0  0  0  0  0  0  0  0  0  0  0  0
  142.3121   80.0588  218.1977 H   0  0  0  0  0  0  0  0  0  0  0  0
  142.8842   79.6660  219.8684 H   0  0  0  0  0  0  0  0  0  0  0  0
  143.0357   77.4823  220.6550 H   0  0  0  0  0  0  0  0  0  0  0  0
  143.7006   75.1602  220.1103 H   0  0  0  0  0  0  0  0  0  0  0  0
  143.5788   74.3385  217.7522 H   0  0  0  0  0  0  0  0  0  0  0  0
  142.7818   75.9020  215.9930 H   0  0  0  0  0  0  0  0  0  0  0  0
  142.1245   78.1975  216.5529 H   0  0  0  0  0  0  0  0  0  0  0  0
  138.3155   77.0814  219.8199 H   0  0  0  0  0  0  0  0  0  0  0  0
  139.5862   77.3064  218.5204 H   0  0  0  0  0  0  0  0  0  0  0  0
  139.2409   74.9264  219.3534 H   0  0  0  0  0  0  0  0  0  0  0  0
  140.9191   75.5577  219.3726 H   0  0  0  0  0  0  0  0  0  0  0  0
  138.9915   75.4951  221.7535 H   0  0  0  0  0  0  0  0  0  0  0  0
  138.1504   70.7717  224.6072 H   0  0  0  0  0  0  0  0  0  0  0  0
  138.5830   70.5035  222.9025 H   0  0  0  0  0  0  0  0  0  0  0  0
  138.7055   68.3650  224.2631 H   0  0  0  0  0  0  0  0  0  0  0  0
  140.2943   68.7881  223.5936 H   0  0  0  0  0  0  0  0  0  0  0  0
  139.6151   67.1361  226.0359 H   0  0  0  0  0  0  0  0  0  0  0  0
  140.4870   67.1942  228.3693 H   0  0  0  0  0  0  0  0  0  0  0  0
  141.4022   69.3003  229.2808 H   0  0  0  0  0  0  0  0  0  0  0  0
  141.4598   71.3831  227.9032 H   0  0  0  0  0  0  0  0  0  0  0  0
  140.0197   72.4066  225.9108 H   0  0  0  0  0  0  0  0  0  0  0  0
  141.6587   71.9353  225.2954 H   0  0  0  0  0  0  0  0  0  0  0  0
  143.9814   73.2131  219.3415 H   0  0  0  0  0  0  0  0  0  0  0  0
  144.4324   72.4867  220.9656 H   0  0  0  0  0  0  0  0  0  0  0  0
  145.2577   71.7662  218.2491 H   0  0  0  0  0  0  0  0  0  0  0  0
  146.0713   71.5838  219.8690 H   0  0  0  0  0  0  0  0  0  0  0  0
  146.8743   69.4082  219.3593 H   0  0  0  0  0  0  0  0  0  0  0  0
  146.3634   66.9762  219.3978 H   0  0  0  0  0  0  0  0  0  0  0  0
  144.0119   66.1764  219.3818 H   0  0  0  0  0  0  0  0  0  0  0  0
  142.1455   67.8628  219.3237 H   0  0  0  0  0  0  0  0  0  0  0  0
  142.2296   70.8183  218.2352 H   0  0  0  0  0  0  0  0  0  0  0  0
  141.5092   70.0716  219.6995 H   0  0  0  0  0  0  0  0  0  0  0  0
  141.0879   76.2426  222.9577 H   0  0  0  0  0  0  0  0  0  0  0  0
  141.9184   76.3711  221.3793 H   0  0  0  0  0  0  0  0  0  0  0  0
  139.4329   77.8598  222.2925 H   0  0  0  0  0  0  0  0  0  0  0  0
  141.1018   78.5270  221.9974 H   0  0  0  0  0  0  0  0  0  0  0  0
  1  2  2  0
  2  3  2  0
  2  4  1  0
  4  5  1  0
  5  6  2  0
  6  7  1  0
  7  8  2  0
  8  9  1  0
  9 10  2  0
  2 11  1  0
 11 12  1  0
 12 13  1  0
 13 14  1  0
 14 15  1  0
 15 16  2  0
 16 17  1  0
 17 18  1  0
 18 19  1  0
 19 20  1  0
 20 21  1  0
 21 22  2  0
 22 23  1  0
 23 24  2  0
 24 25  1  0
 25 26  2  0
 26 27  1  0
 17 28  2  0
 28 29  1  0
 29 30  1  0
 30 31  1  0
 31 32  1  0
 32 33  1  0
 33 34  2  0
 34 35  1  0
 35 36  2  0
 36 37  1  0
 37 38  2  0
 38 39  1  0
 29 40  2  0
 14 41  1  0
 41 42  1  0
 10  5  1  0
 42 11  1  0
 40 15  1  0
 27 18  1  0
 39 30  1  0
 26 21  1  0
 38 33  1  0
  4 43  1  0
  4 44  1  0
  6 45  1  0
  7 46  1  0
  8 47  1  0
  9 48  1  0
 10 49  1  0
 12 50  1  0
 12 51  1  0
 13 52  1  0
 13 53  1  0
 14 54  1  0
 19 55  1  0
 19 56  1  0
 20 57  1  0
 20 58  1  0
 22 59  1  0
 23 60  1  0
 24 61  1  0
 25 62  1  0
 27 63  1  0
 27 64  1  0
 31 65  1  0
 31 66  1  0
 32 67  1  0
 32 68  1  0
 34 69  1  0
 35 70  1  0
 36 71  1  0
 37 72  1  0
 39 73  1  0
 39 74  1  0
 41 75  1  0
 41 76  1  0
 42 77  1  0
 42 78  1  0
M  END
>  <smiles>  (20) 
O=S(=O)(Cc1ccccc1)N1CCC(c2nc(N3CCc4ccccc4C3)nc(N3CCc4ccccc4C3)n2)CC1

>  <score_type>  (20) 
oracle

>  <origin>  (20) 
autodockgpu

>  <m_score__min__energy>  (20) 
-12.01

>  <m_primary>  (20) 
energy

>  <rmsd>  (20) 
11.376251481888147

>  <m_score__min__rmsd>  (20) 
11.376251481888147

>  <meeko>  (20) 
{"free_energy": -10.27, "intermolecular_energy": -12.06, "internal_energy": -2.65, "cluster_size": 5, "cluster_id": 4, "rank_in_cluster": 2}

>  <energy>  (20) 
-11.14

>  <cluster_rmsd>  (20) 
1.81

>  <cluster>  (20) 
1

$$$$

     RDKit          3D

 78 84  0  0  0  0  0  0  0  0999 V2000
  138.8910   79.2330  219.1590 O   0  0  0  0  0  0  0  0  0  0  0  0
  139.4300   79.2510  220.5820 S   0  0  0  0  0  0  0  0  0  0  0  0
  138.2480   79.1660  221.5300 O   0  0  0  0  0  0  0  0  0  0  0  0
  140.1770   80.8200  220.8390 C   0  0  0  0  0  0  0  0  0  0  0  0
  141.2030   80.7540  221.8900 C   0  0  0  0  0  0  0  0  0  0  0  0
  140.9000   81.3520  223.1080 C   0  0  0  0  0  0  0  0  0  0  0  0
  141.8170   81.3810  224.1550 C   0  0  0  0  0  0  0  0  0  0  0  0
  143.0670   80.8070  224.0060 C   0  0  0  0  0  0  0  0  0  0  0  0
  143.3620   80.2170  222.7980 C   0  0  0  0  0  0  0  0  0  0  0  0
  142.4420   80.1970  221.7690 C   0  0  0  0  0  0  0  0  0  0  0  0
  140.4720   77.9820  220.8770 N   0  0  0  0  0  0  0  0  0  0  0  0
  140.7430   77.5400  222.1710 C   0  0  0  0  0  0  0  0  0  0  0  0
  140.6710   76.0260  222.3400 C   0  0  0  0  0  0  0  0  0  0  0  0
  141.4610   75.3680  221.2310 C   0  0  0  0  0  0  0  0  0  0  0  0
  141.4440   73.9080  221.3570 C   0  0  0  0  0  0  0  0  0  0  0  0
  142.1270   73.0710  220.5310 N   0  0  0  0  0  0  0  0  0  0  0  0
  142.0910   71.7420  220.6720 C   0  0  0  0  0  0  0  0  0  0  0  0
  142.8450   70.9640  219.7520 N   0  0  0  0  0  0  0  0  0  0  0  0
  143.8350   71.6220  218.9380 C   0  0  0  0  0  0  0  0  0  0  0  0
  145.2010   71.0600  219.3460 C   0  0  0  0  0  0  0  0  0  0  0  0
  145.1290   69.5890  219.1520 C   0  0  0  0  0  0  0  0  0  0  0  0
  146.3130   68.9410  218.8500 C   0  0  0  0  0  0  0  0  0  0  0  0
  146.3170   67.5710  218.6570 C   0  0  0  0  0  0  0  0  0  0  0  0
  145.1340   66.8690  218.7700 C   0  0  0  0  0  0  0  0  0  0  0  0
  143.9310   67.5010  219.0730 C   0  0  0  0  0  0  0  0  0  0  0  0
  143.9610   68.8660  219.2600 C   0  0  0  0  0  0  0  0  0  0  0  0
  142.6760   69.5370  219.5830 C   0  0  0  0  0  0  0  0  0  0  0  0
  141.3550   71.2160  221.6640 N   0  0  0  0  0  0  0  0  0  0  0  0
  140.6480   71.9910  222.5240 C   0  0  0  0  0  0  0  0  0  0  0  0
  139.8640   71.4440  223.5790 N   0  0  0  0  0  0  0  0  0  0  0  0
  138.6030   70.8290  223.2300 C   0  0  0  0  0  0  0  0  0  0  0  0
  138.0390   69.9330  224.2810 C   0  0  0  0  0  0  0  0  0  0  0  0
  139.0580   69.4730  225.2540 C   0  0  0  0  0  0  0  0  0  0  0  0
  138.9060   68.2500  225.8750 C   0  0  0  0  0  0  0  0  0  0  0  0
  139.8530   67.7950  226.7970 C   0  0  0  0  0  0  0  0  0  0  0  0
  140.9640   68.5570  227.1060 C   0  0  0  0  0  0  0  0  0  0  0  0
  141.1280   69.7950  226.4840 C   0  0  0  0  0  0  0  0  0  0  0  0
  140.1720   70.2130  225.5790 C   0  0  0  0  0  0  0  0  0  0  0  0
  140.3470   71.5230  224.9230 C   0  0  0  0  0  0  0  0  0  0  0  0
  140.7250   73.3200  222.3310 N   0  0  0  0  0  0  0  0  0  0  0  0
  140.8230   75.7820  219.9240 C   0  0  0  0  0  0  0  0  0  0  0  0
  140.9820   77.2570  219.7700 C   0  0  0  0  0  0  0  0  0  0  0  0
  140.6451   81.1526  219.9008 H   0  0  0  0  0  0  0  0  0  0  0  0
  139.3982   81.5291  221.1562 H   0  0  0  0  0  0  0  0  0  0  0  0
  139.9114   81.8136  223.2478 H   0  0  0  0  0  0  0  0  0  0  0  0
  141.5463   81.8629  225.1060 H   0  0  0  0  0  0  0  0  0  0  0  0
  143.8005   80.8217  224.8256 H   0  0  0  0  0  0  0  0  0  0  0  0
  144.3484   79.7532  222.6499 H   0  0  0  0  0  0  0  0  0  0  0  0
  142.7176   79.7154  220.8192 H   0  0  0  0  0  0  0  0  0  0  0  0
  141.7562   77.8702  222.4437 H   0  0  0  0  0  0  0  0  0  0  0  0
  139.9667   77.9690  222.8217 H   0  0  0  0  0  0  0  0  0  0  0  0
  141.0969   75.7431  223.3140 H   0  0  0  0  0  0  0  0  0  0  0  0
  139.6224   75.6967  222.2948 H   0  0  0  0  0  0  0  0  0  0  0  0
  142.5134   75.6843  221.2806 H   0  0  0  0  0  0  0  0  0  0  0  0
  143.6453   71.4170  217.8740 H   0  0  0  0  0  0  0  0  0  0  0  0
  143.8007   72.7116  219.0847 H   0  0  0  0  0  0  0  0  0  0  0  0
  145.9922   71.4882  218.7130 H   0  0  0  0  0  0  0  0  0  0  0  0
  145.4380   71.3116  220.3903 H   0  0  0  0  0  0  0  0  0  0  0  0
  147.2485   69.5131  218.7636 H   0  0  0  0  0  0  0  0  0  0  0  0
  147.2534   67.0466  218.4159 H   0  0  0  0  0  0  0  0  0  0  0  0
  145.1419   65.7798  218.6164 H   0  0  0  0  0  0  0  0  0  0  0  0
  142.9931   66.9329  219.1597 H   0  0  0  0  0  0  0  0  0  0  0  0
  141.9641   69.3569  218.7640 H   0  0  0  0  0  0  0  0  0  0  0  0
  142.3009   69.1216  220.5300 H   0  0  0  0  0  0  0  0  0  0  0  0
  137.8738   71.6287  223.0329 H   0  0  0  0  0  0  0  0  0  0  0  0
  138.7964   70.1965  222.3510 H   0  0  0  0  0  0  0  0  0  0  0  0
  137.2556   70.4804  224.8256 H   0  0  0  0  0  0  0  0  0  0  0  0
  137.6392   69.0417  223.7753 H   0  0  0  0  0  0  0  0  0  0  0  0
  138.0302   67.6265  225.6419 H   0  0  0  0  0  0  0  0  0  0  0  0
  139.7123   66.8182  227.2828 H   0  0  0  0  0  0  0  0  0  0  0  0
  141.7071   68.1931  227.8308 H   0  0  0  0  0  0  0  0  0  0  0  0
  142.0008   70.4253  226.7097 H   0  0  0  0  0  0  0  0  0  0  0  0
  139.7804   72.2886  225.4732 H   0  0  0  0  0  0  0  0  0  0  0  0
  141.4131   71.7941  224.9174 H   0  0  0  0  0  0  0  0  0  0  0  0
  141.3183   75.2655  219.0886 H   0  0  0  0  0  0  0  0  0  0  0  0
  139.7561   75.5142  219.9222 H   0  0  0  0  0  0  0  0  0  0  0  0
  142.0525   77.4860  219.6626 H   0  0  0  0  0  0  0  0  0  0  0  0
  140.4092   77.5615  218.8817 H   0  0  0  0  0  0  0  0  0  0  0  0
  1  2  2  0
  2  3  2  0
  2  4  1  0
  4  5  1  0
  5  6  2  0
  6  7  1  0
  7  8  2  0
  8  9  1  0
  9 10  2  0
  2 11  1  0
 11 12  1  0
 12 13  1  0
 13 14  1  0
 14 15  1  0
 15 16  2  0
 16 17  1  0
 17 18  1  0
 18 19  1  0
 19 20  1  0
 20 21  1  0
 21 22  2  0
 22 23  1  0
 23 24  2  0
 24 25  1  0
 25 26  2  0
 26 27  1  0
 17 28  2  0
 28 29  1  0
 29 30  1  0
 30 31  1  0
 31 32  1  0
 32 33  1  0
 33 34  2  0
 34 35  1  0
 35 36  2  0
 36 37  1  0
 37 38  2  0
 38 39  1  0
 29 40  2  0
 14 41  1  0
 41 42  1  0
 10  5  1  0
 42 11  1  0
 40 15  1  0
 27 18  1  0
 39 30  1  0
 26 21  1  0
 38 33  1  0
  4 43  1  0
  4 44  1  0
  6 45  1  0
  7 46  1  0
  8 47  1  0
  9 48  1  0
 10 49  1  0
 12 50  1  0
 12 51  1  0
 13 52  1  0
 13 53  1  0
 14 54  1  0
 19 55  1  0
 19 56  1  0
 20 57  1  0
 20 58  1  0
 22 59  1  0
 23 60  1  0
 24 61  1  0
 25 62  1  0
 27 63  1  0
 27 64  1  0
 31 65  1  0
 31 66  1  0
 32 67  1  0
 32 68  1  0
 34 69  1  0
 35 70  1  0
 36 71  1  0
 37 72  1  0
 39 73  1  0
 39 74  1  0
 41 75  1  0
 41 76  1  0
 42 77  1  0
 42 78  1  0
M  END
>  <smiles>  (21) 
O=S(=O)(Cc1ccccc1)N1CCC(c2nc(N3CCc4ccccc4C3)nc(N3CCc4ccccc4C3)n2)CC1

>  <score_type>  (21) 
oracle

>  <origin>  (21) 
autodockgpu

>  <m_score__min__energy>  (21) 
-12.01

>  <m_primary>  (21) 
energy

>  <rmsd>  (21) 
11.252169067875071

>  <m_score__min__rmsd>  (21) 
11.252169067875071

>  <meeko>  (21) 
{"free_energy": -11.06, "intermolecular_energy": -12.85, "internal_energy": -1.81, "cluster_size": 32, "cluster_id": 1, "rank_in_cluster": 27}

>  <energy>  (21) 
-11.13

>  <cluster_rmsd>  (21) 
1.48

>  <cluster>  (21) 
1

$$$$

     RDKit          3D

 78 84  0  0  0  0  0  0  0  0999 V2000
  142.7180   80.0680  222.3680 O   0  0  0  0  0  0  0  0  0  0  0  0
  141.7570   80.0080  221.1900 S   0  0  0  0  0  0  0  0  0  0  0  0
  142.5410   80.3320  219.9310 O   0  0  0  0  0  0  0  0  0  0  0  0
  140.5820   81.2960  221.4040 C   0  0  0  0  0  0  0  0  0  0  0  0
  139.4970   80.8810  222.3050 C   0  0  0  0  0  0  0  0  0  0  0  0
  138.2920   80.5150  221.7170 C   0  0  0  0  0  0  0  0  0  0  0  0
  137.1900   80.1450  222.4820 C   0  0  0  0  0  0  0  0  0  0  0  0
  137.2690   80.1330  223.8640 C   0  0  0  0  0  0  0  0  0  0  0  0
  138.4640   80.4970  224.4400 C   0  0  0  0  0  0  0  0  0  0  0  0
  139.5490   80.8610  223.6680 C   0  0  0  0  0  0  0  0  0  0  0  0
  141.0480   78.5050  221.0310 N   0  0  0  0  0  0  0  0  0  0  0  0
  141.1400   77.7720  219.8490 C   0  0  0  0  0  0  0  0  0  0  0  0
  141.5200   76.3080  220.0530 C   0  0  0  0  0  0  0  0  0  0  0  0
  140.6470   75.7190  221.1390 C   0  0  0  0  0  0  0  0  0  0  0  0
  140.9550   74.3030  221.3620 C   0  0  0  0  0  0  0  0  0  0  0  0
  140.3920   73.5550  222.3470 N   0  0  0  0  0  0  0  0  0  0  0  0
  140.6940   72.2650  222.5260 C   0  0  0  0  0  0  0  0  0  0  0  0
  140.0440   71.5790  223.5870 N   0  0  0  0  0  0  0  0  0  0  0  0
  138.8330   70.8520  223.3010 C   0  0  0  0  0  0  0  0  0  0  0  0
  139.1260   69.3690  223.5520 C   0  0  0  0  0  0  0  0  0  0  0  0
  139.5870   69.2600  224.9600 C   0  0  0  0  0  0  0  0  0  0  0  0
  139.3310   68.0660  225.6090 C   0  0  0  0  0  0  0  0  0  0  0  0
  139.7340   67.8980  226.9230 C   0  0  0  0  0  0  0  0  0  0  0  0
  140.3870   68.9290  227.5660 C   0  0  0  0  0  0  0  0  0  0  0  0
  140.6550   70.1390  226.9320 C   0  0  0  0  0  0  0  0  0  0  0  0
  140.2420   70.2750  225.6240 C   0  0  0  0  0  0  0  0  0  0  0  0
  140.5290   71.5670  224.9500 C   0  0  0  0  0  0  0  0  0  0  0  0
  141.5850   71.6890  221.7030 N   0  0  0  0  0  0  0  0  0  0  0  0
  142.1850   72.3760  220.6990 C   0  0  0  0  0  0  0  0  0  0  0  0
  143.1310   71.7760  219.8210 N   0  0  0  0  0  0  0  0  0  0  0  0
  144.3870   72.4620  219.6130 C   0  0  0  0  0  0  0  0  0  0  0  0
  145.4690   71.6130  219.0350 C   0  0  0  0  0  0  0  0  0  0  0  0
  145.2230   70.1630  219.2160 C   0  0  0  0  0  0  0  0  0  0  0  0
  146.2930   69.2970  219.3160 C   0  0  0  0  0  0  0  0  0  0  0  0
  146.0870   67.9260  219.4870 C   0  0  0  0  0  0  0  0  0  0  0  0
  144.8090   67.4050  219.5610 C   0  0  0  0  0  0  0  0  0  0  0  0
  143.7200   68.2710  219.4610 C   0  0  0  0  0  0  0  0  0  0  0  0
  143.9610   69.6210  219.2920 C   0  0  0  0  0  0  0  0  0  0  0  0
  142.8080   70.5340  219.1860 C   0  0  0  0  0  0  0  0  0  0  0  0
  141.8400   73.6690  220.5710 N   0  0  0  0  0  0  0  0  0  0  0  0
  140.9100   76.5100  222.4000 C   0  0  0  0  0  0  0  0  0  0  0  0
  140.4580   77.9140  222.1760 C   0  0  0  0  0  0  0  0  0  0  0  0
  141.0868   82.1750  221.8313 H   0  0  0  0  0  0  0  0  0  0  0  0
  140.1471   81.5375  220.4229 H   0  0  0  0  0  0  0  0  0  0  0  0
  138.2074   80.5179  220.6203 H   0  0  0  0  0  0  0  0  0  0  0  0
  136.2506   79.8604  221.9856 H   0  0  0  0  0  0  0  0  0  0  0  0
  136.4056   79.8423  224.4805 H   0  0  0  0  0  0  0  0  0  0  0  0
  138.5567   80.4980  225.5361 H   0  0  0  0  0  0  0  0  0  0  0  0
  140.4866   81.1443  224.1686 H   0  0  0  0  0  0  0  0  0  0  0  0
  140.1641   77.8085  219.3428 H   0  0  0  0  0  0  0  0  0  0  0  0
  141.9441   78.2290  219.2535 H   0  0  0  0  0  0  0  0  0  0  0  0
  141.3670   75.7533  219.1155 H   0  0  0  0  0  0  0  0  0  0  0  0
  142.5776   76.2361  220.3467 H   0  0  0  0  0  0  0  0  0  0  0  0
  139.5890   75.7775  220.8436 H   0  0  0  0  0  0  0  0  0  0  0  0
  138.0231   71.1935  223.9623 H   0  0  0  0  0  0  0  0  0  0  0  0
  138.5144   71.0170  222.2612 H   0  0  0  0  0  0  0  0  0  0  0  0
  138.2144   68.7716  223.4038 H   0  0  0  0  0  0  0  0  0  0  0  0
  139.8884   68.9916  222.8546 H   0  0  0  0  0  0  0  0  0  0  0  0
  138.8092   67.2528  225.0833 H   0  0  0  0  0  0  0  0  0  0  0  0
  139.5355   66.9523  227.4486 H   0  0  0  0  0  0  0  0  0  0  0  0
  140.7051   68.7910  228.6099 H   0  0  0  0  0  0  0  0  0  0  0  0
  141.1760   70.9548  227.4545 H   0  0  0  0  0  0  0  0  0  0  0  0
  140.0394   72.3775  225.5097 H   0  0  0  0  0  0  0  0  0  0  0  0
  141.6198   71.7068  224.9270 H   0  0  0  0  0  0  0  0  0  0  0  0
  144.2088   73.3043  218.9283 H   0  0  0  0  0  0  0  0  0  0  0  0
  144.7369   72.7805  220.6060 H   0  0  0  0  0  0  0  0  0  0  0  0
  145.5437   71.8246  217.9581 H   0  0  0  0  0  0  0  0  0  0  0  0
  146.4005   71.8586  219.5660 H   0  0  0  0  0  0  0  0  0  0  0  0
  147.3187   69.6905  219.2604 H   0  0  0  0  0  0  0  0  0  0  0  0
  146.9532   67.2523  219.5638 H   0  0  0  0  0  0  0  0  0  0  0  0
  144.6531   66.3246  219.6966 H   0  0  0  0  0  0  0  0  0  0  0  0
  142.6906   67.8871  219.5155 H   0  0  0  0  0  0  0  0  0  0  0  0
  142.5762   70.7123  218.1256 H   0  0  0  0  0  0  0  0  0  0  0  0
  141.9335   70.0836  219.6784 H   0  0  0  0  0  0  0  0  0  0  0  0
  140.3516   76.0690  223.2388 H   0  0  0  0  0  0  0  0  0  0  0  0
  141.9830   76.4916  222.6417 H   0  0  0  0  0  0  0  0  0  0  0  0
  139.3654   77.9153  222.0486 H   0  0  0  0  0  0  0  0  0  0  0  0
  140.7677   78.5051  223.0505 H   0  0  0  0  0  0  0  0  0  0  0  0
  1  2  2  0
  2  3  2  0
  2  4  1  0
  4  5  1  0
  5  6  2  0
  6  7  1  0
  7  8  2  0
  8  9  1  0
  9 10  2  0
  2 11  1  0
 11 12  1  0
 12 13  1  0
 13 14  1  0
 14 15  1  0
 15 16  2  0
 16 17  1  0
 17 18  1  0
 18 19  1  0
 19 20  1  0
 20 21  1  0
 21 22  2  0
 22 23  1  0
 23 24  2  0
 24 25  1  0
 25 26  2  0
 26 27  1  0
 17 28  2  0
 28 29  1  0
 29 30  1  0
 30 31  1  0
 31 32  1  0
 32 33  1  0
 33 34  2  0
 34 35  1  0
 35 36  2  0
 36 37  1  0
 37 38  2  0
 38 39  1  0
 29 40  2  0
 14 41  1  0
 41 42  1  0
 10  5  1  0
 42 11  1  0
 40 15  1  0
 27 18  1  0
 39 30  1  0
 26 21  1  0
 38 33  1  0
  4 43  1  0
  4 44  1  0
  6 45  1  0
  7 46  1  0
  8 47  1  0
  9 48  1  0
 10 49  1  0
 12 50  1  0
 12 51  1  0
 13 52  1  0
 13 53  1  0
 14 54  1  0
 19 55  1  0
 19 56  1  0
 20 57  1  0
 20 58  1  0
 22 59  1  0
 23 60  1  0
 24 61  1  0
 25 62  1  0
 27 63  1  0
 27 64  1  0
 31 65  1  0
 31 66  1  0
 32 67  1  0
 32 68  1  0
 34 69  1  0
 35 70  1  0
 36 71  1  0
 37 72  1  0
 39 73  1  0
 39 74  1  0
 41 75  1  0
 41 76  1  0
 42 77  1  0
 42 78  1  0
M  END
>  <smiles>  (22) 
O=S(=O)(Cc1ccccc1)N1CCC(c2nc(N3CCc4ccccc4C3)nc(N3CCc4ccccc4C3)n2)CC1

>  <score_type>  (22) 
oracle

>  <origin>  (22) 
autodockgpu

>  <m_score__min__energy>  (22) 
-12.01

>  <m_primary>  (22) 
energy

>  <rmsd>  (22) 
11.080949228584743

>  <m_score__min__rmsd>  (22) 
11.080949228584743

>  <meeko>  (22) 
{"free_energy": -11.14, "intermolecular_energy": -12.93, "internal_energy": -1.84, "cluster_size": 32, "cluster_id": 1, "rank_in_cluster": 20}

>  <energy>  (22) 
-11.12

>  <cluster_rmsd>  (22) 
1.22

>  <cluster>  (22) 
1

$$$$

     RDKit          3D

 78 84  0  0  0  0  0  0  0  0999 V2000
  138.8740   80.6920  221.3390 O   0  0  0  0  0  0  0  0  0  0  0  0
  138.4530   79.4960  222.1800 S   0  0  0  0  0  0  0  0  0  0  0  0
  136.9540   79.5850  222.4030 O   0  0  0  0  0  0  0  0  0  0  0  0
  139.2130   79.6680  223.7540 C   0  0  0  0  0  0  0  0  0  0  0  0
  140.6540   79.9310  223.6230 C   0  0  0  0  0  0  0  0  0  0  0  0
  141.0810   81.2350  223.8430 C   0  0  0  0  0  0  0  0  0  0  0  0
  142.4170   81.5980  223.7050 C   0  0  0  0  0  0  0  0  0  0  0  0
  143.3640   80.6560  223.3420 C   0  0  0  0  0  0  0  0  0  0  0  0
  142.9360   79.3670  223.1260 C   0  0  0  0  0  0  0  0  0  0  0  0
  141.6060   79.0220  223.2670 C   0  0  0  0  0  0  0  0  0  0  0  0
  138.8190   78.0460  221.4390 N   0  0  0  0  0  0  0  0  0  0  0  0
  140.0500   77.8270  220.8210 C   0  0  0  0  0  0  0  0  0  0  0  0
  140.7020   76.4970  221.1860 C   0  0  0  0  0  0  0  0  0  0  0  0
  139.6800   75.3920  221.0470 C   0  0  0  0  0  0  0  0  0  0  0  0
  140.2600   74.0840  221.3650 C   0  0  0  0  0  0  0  0  0  0  0  0
  139.9030   73.3440  222.4480 N   0  0  0  0  0  0  0  0  0  0  0  0
  140.4520   72.1540  222.7120 C   0  0  0  0  0  0  0  0  0  0  0  0
  140.0030   71.4660  223.8710 N   0  0  0  0  0  0  0  0  0  0  0  0
  138.8080   70.6650  223.7810 C   0  0  0  0  0  0  0  0  0  0  0  0
  139.2220   69.2090  224.0190 C   0  0  0  0  0  0  0  0  0  0  0  0
  139.8860   69.1690  225.3480 C   0  0  0  0  0  0  0  0  0  0  0  0
  139.7970   67.9830  226.0540 C   0  0  0  0  0  0  0  0  0  0  0  0
  140.3930   67.8790  227.2990 C   0  0  0  0  0  0  0  0  0  0  0  0
  141.0710   68.9630  227.8170 C   0  0  0  0  0  0  0  0  0  0  0  0
  141.1720   70.1660  227.1240 C   0  0  0  0  0  0  0  0  0  0  0  0
  140.5680   70.2390  225.8870 C   0  0  0  0  0  0  0  0  0  0  0  0
  140.6790   71.5230  225.1500 C   0  0  0  0  0  0  0  0  0  0  0  0
  141.3880   71.6740  221.8770 N   0  0  0  0  0  0  0  0  0  0  0  0
  141.7920   72.3590  220.7790 C   0  0  0  0  0  0  0  0  0  0  0  0
  142.7830   71.8590  219.8880 N   0  0  0  0  0  0  0  0  0  0  0  0
  143.9520   72.6780  219.6540 C   0  0  0  0  0  0  0  0  0  0  0  0
  145.1110   71.9490  219.0620 C   0  0  0  0  0  0  0  0  0  0  0  0
  145.0290   70.4820  219.2560 C   0  0  0  0  0  0  0  0  0  0  0  0
  146.1890   69.7390  219.3430 C   0  0  0  0  0  0  0  0  0  0  0  0
  146.1380   68.3540  219.5250 C   0  0  0  0  0  0  0  0  0  0  0  0
  144.9260   67.6970  219.6240 C   0  0  0  0  0  0  0  0  0  0  0  0
  143.7470   68.4380  219.5380 C   0  0  0  0  0  0  0  0  0  0  0  0
  143.8350   69.8050  219.3570 C   0  0  0  0  0  0  0  0  0  0  0  0
  142.5880   70.5850  219.2650 C   0  0  0  0  0  0  0  0  0  0  0  0
  141.2020   73.5490  220.5680 N   0  0  0  0  0  0  0  0  0  0  0  0
  138.5520   75.7050  222.0040 C   0  0  0  0  0  0  0  0  0  0  0  0
  137.9010   76.9730  221.5660 C   0  0  0  0  0  0  0  0  0  0  0  0
  138.7427   80.5056  224.2899 H   0  0  0  0  0  0  0  0  0  0  0  0
  139.0796   78.7281  224.3097 H   0  0  0  0  0  0  0  0  0  0  0  0
  140.3447   81.9989  224.1334 H   0  0  0  0  0  0  0  0  0  0  0  0
  142.7224   82.6393  223.8854 H   0  0  0  0  0  0  0  0  0  0  0  0
  144.4236   80.9293  223.2300 H   0  0  0  0  0  0  0  0  0  0  0  0
  143.6659   78.5970  222.8358 H   0  0  0  0  0  0  0  0  0  0  0  0
  141.3049   77.9796  223.0861 H   0  0  0  0  0  0  0  0  0  0  0  0
  139.8987   77.8502  219.7317 H   0  0  0  0  0  0  0  0  0  0  0  0
  140.7271   78.6194  221.1727 H   0  0  0  0  0  0  0  0  0  0  0  0
  141.5482   76.3036  220.5103 H   0  0  0  0  0  0  0  0  0  0  0  0
  141.0684   76.5354  222.2225 H   0  0  0  0  0  0  0  0  0  0  0  0
  139.3208   75.3417  220.0085 H   0  0  0  0  0  0  0  0  0  0  0  0
  138.0835   70.9811  224.5460 H   0  0  0  0  0  0  0  0  0  0  0  0
  138.3327   70.7806  222.7958 H   0  0  0  0  0  0  0  0  0  0  0  0
  138.3359   68.5572  224.0175 H   0  0  0  0  0  0  0  0  0  0  0  0
  139.8975   68.8538  223.2268 H   0  0  0  0  0  0  0  0  0  0  0  0
  139.2548   67.1260  225.6279 H   0  0  0  0  0  0  0  0  0  0  0  0
  140.3267   66.9410  227.8698 H   0  0  0  0  0  0  0  0  0  0  0  0
  141.5452   68.8742  228.8056 H   0  0  0  0  0  0  0  0  0  0  0  0
  141.7129   71.0253  227.5471 H   0  0  0  0  0  0  0  0  0  0  0  0
  140.2280   72.3223  225.7564 H   0  0  0  0  0  0  0  0  0  0  0  0
  141.7451   71.7219  224.9660 H   0  0  0  0  0  0  0  0  0  0  0  0
  143.6704   73.4902  218.9677 H   0  0  0  0  0  0  0  0  0  0  0  0
  144.2813   73.0409  220.6388 H   0  0  0  0  0  0  0  0  0  0  0  0
  145.1437   72.1591  217.9827 H   0  0  0  0  0  0  0  0  0  0  0  0
  146.0187   72.2998  219.5748 H   0  0  0  0  0  0  0  0  0  0  0  0
  147.1642   70.2423  219.2683 H   0  0  0  0  0  0  0  0  0  0  0  0
  147.0740   67.7799  219.5902 H   0  0  0  0  0  0  0  0  0  0  0  0
  144.8915   66.6071  219.7683 H   0  0  0  0  0  0  0  0  0  0  0  0
  142.7671   67.9439  219.6128 H   0  0  0  0  0  0  0  0  0  0  0  0
  142.3215   70.7294  218.2076 H   0  0  0  0  0  0  0  0  0  0  0  0
  141.7758   70.0451  219.7738 H   0  0  0  0  0  0  0  0  0  0  0  0
  137.8170   74.8867  221.9921 H   0  0  0  0  0  0  0  0  0  0  0  0
  138.9432   75.8146  223.0262 H   0  0  0  0  0  0  0  0  0  0  0  0
  137.4215   76.8033  220.5907 H   0  0  0  0  0  0  0  0  0  0  0  0
  137.1685   77.2531  222.3373 H   0  0  0  0  0  0  0  0  0  0  0  0
  1  2  2  0
  2  3  2  0
  2  4  1  0
  4  5  1  0
  5  6  2  0
  6  7  1  0
  7  8  2  0
  8  9  1  0
  9 10  2  0
  2 11  1  0
 11 12  1  0
 12 13  1  0
 13 14  1  0
 14 15  1  0
 15 16  2  0
 16 17  1  0
 17 18  1  0
 18 19  1  0
 19 20  1  0
 20 21  1  0
 21 22  2  0
 22 23  1  0
 23 24  2  0
 24 25  1  0
 25 26  2  0
 26 27  1  0
 17 28  2  0
 28 29  1  0
 29 30  1  0
 30 31  1  0
 31 32  1  0
 32 33  1  0
 33 34  2  0
 34 35  1  0
 35 36  2  0
 36 37  1  0
 37 38  2  0
 38 39  1  0
 29 40  2  0
 14 41  1  0
 41 42  1  0
 10  5  1  0
 42 11  1  0
 40 15  1  0
 27 18  1  0
 39 30  1  0
 26 21  1  0
 38 33  1  0
  4 43  1  0
  4 44  1  0
  6 45  1  0
  7 46  1  0
  8 47  1  0
  9 48  1  0
 10 49  1  0
 12 50  1  0
 12 51  1  0
 13 52  1  0
 13 53  1  0
 14 54  1  0
 19 55  1  0
 19 56  1  0
 20 57  1  0
 20 58  1  0
 22 59  1  0
 23 60  1  0
 24 61  1  0
 25 62  1  0
 27 63  1  0
 27 64  1  0
 31 65  1  0
 31 66  1  0
 32 67  1  0
 32 68  1  0
 34 69  1  0
 35 70  1  0
 36 71  1  0
 37 72  1  0
 39 73  1  0
 39 74  1  0
 41 75  1  0
 41 76  1  0
 42 77  1  0
 42 78  1  0
M  END
>  <smiles>  (23) 
O=S(=O)(Cc1ccccc1)N1CCC(c2nc(N3CCc4ccccc4C3)nc(N3CCc4ccccc4C3)n2)CC1

>  <score_type>  (23) 
oracle

>  <origin>  (23) 
autodockgpu

>  <m_score__min__energy>  (23) 
-12.01

>  <m_primary>  (23) 
energy

>  <rmsd>  (23) 
11.292318362289162

>  <m_score__min__rmsd>  (23) 
11.292318362289162

>  <meeko>  (23) 
{"free_energy": -11.71, "intermolecular_energy": -13.5, "internal_energy": -1.85, "cluster_size": 32, "cluster_id": 1, "rank_in_cluster": 8}

>  <energy>  (23) 
-11.09

>  <cluster_rmsd>  (23) 
1.51

>  <cluster>  (23) 
1

$$$$

     RDKit          3D

 78 84  0  0  0  0  0  0  0  0999 V2000
  139.1690   80.6980  220.9350 O   0  0  0  0  0  0  0  0  0  0  0  0
  138.3860   79.8060  221.8880 S   0  0  0  0  0  0  0  0  0  0  0  0
  136.9540   80.3080  221.9260 O   0  0  0  0  0  0  0  0  0  0  0  0
  139.0530   80.0430  223.4950 C   0  0  0  0  0  0  0  0  0  0  0  0
  140.5150   80.1890  223.4490 C   0  0  0  0  0  0  0  0  0  0  0  0
  141.2390   79.1280  222.9150 C   0  0  0  0  0  0  0  0  0  0  0  0
  142.6300   79.1490  222.8620 C   0  0  0  0  0  0  0  0  0  0  0  0
  143.3330   80.2390  223.3450 C   0  0  0  0  0  0  0  0  0  0  0  0
  142.6110   81.2850  223.8720 C   0  0  0  0  0  0  0  0  0  0  0  0
  141.2310   81.2500  223.9180 C   0  0  0  0  0  0  0  0  0  0  0  0
  138.4020   78.2070  221.4100 N   0  0  0  0  0  0  0  0  0  0  0  0
  139.1750   77.7690  220.3360 C   0  0  0  0  0  0  0  0  0  0  0  0
  139.9790   76.5050  220.6230 C   0  0  0  0  0  0  0  0  0  0  0  0
  139.0700   75.4750  221.2540 C   0  0  0  0  0  0  0  0  0  0  0  0
  139.7880   74.2270  221.5310 C   0  0  0  0  0  0  0  0  0  0  0  0
  139.5010   73.4090  222.5790 N   0  0  0  0  0  0  0  0  0  0  0  0
  140.1750   72.2780  222.8060 C   0  0  0  0  0  0  0  0  0  0  0  0
  139.7890   71.4980  223.9300 N   0  0  0  0  0  0  0  0  0  0  0  0
  138.6600   70.6130  223.8040 C   0  0  0  0  0  0  0  0  0  0  0  0
  139.1870   69.1830  223.9650 C   0  0  0  0  0  0  0  0  0  0  0  0
  139.8620   69.1260  225.2870 C   0  0  0  0  0  0  0  0  0  0  0  0
  139.8710   67.9020  225.9310 C   0  0  0  0  0  0  0  0  0  0  0  0
  140.4850   67.7810  227.1650 C   0  0  0  0  0  0  0  0  0  0  0  0
  141.0810   68.8860  227.7360 C   0  0  0  0  0  0  0  0  0  0  0  0
  141.0830   70.1270  227.1050 C   0  0  0  0  0  0  0  0  0  0  0  0
  140.4650   70.2160  225.8770 C   0  0  0  0  0  0  0  0  0  0  0  0
  140.4700   71.5410  225.2070 C   0  0  0  0  0  0  0  0  0  0  0  0
  141.1680   71.9370  221.9700 N   0  0  0  0  0  0  0  0  0  0  0  0
  141.5080   72.7060  220.9050 C   0  0  0  0  0  0  0  0  0  0  0  0
  142.5590   72.3550  220.0130 N   0  0  0  0  0  0  0  0  0  0  0  0
  143.7500   73.1750  220.0190 C   0  0  0  0  0  0  0  0  0  0  0  0
  144.9450   72.5400  219.3900 C   0  0  0  0  0  0  0  0  0  0  0  0
  144.8350   71.0650  219.3060 C   0  0  0  0  0  0  0  0  0  0  0  0
  145.9790   70.2930  219.3390 C   0  0  0  0  0  0  0  0  0  0  0  0
  145.9020   68.9000  219.2600 C   0  0  0  0  0  0  0  0  0  0  0  0
  144.6810   68.2620  219.1480 C   0  0  0  0  0  0  0  0  0  0  0  0
  143.5170   69.0330  219.1140 C   0  0  0  0  0  0  0  0  0  0  0  0
  143.6310   70.4080  219.1930 C   0  0  0  0  0  0  0  0  0  0  0  0
  142.4010   71.2200  219.1550 C   0  0  0  0  0  0  0  0  0  0  0  0
  140.7930   73.8320  220.7300 N   0  0  0  0  0  0  0  0  0  0  0  0
  138.5490   76.0700  222.5420 C   0  0  0  0  0  0  0  0  0  0  0  0
  137.7130   77.2580  222.2070 C   0  0  0  0  0  0  0  0  0  0  0  0
  138.6156   80.9516  223.9343 H   0  0  0  0  0  0  0  0  0  0  0  0
  138.8107   79.1607  224.1056 H   0  0  0  0  0  0  0  0  0  0  0  0
  140.6998   78.2519  222.5255 H   0  0  0  0  0  0  0  0  0  0  0  0
  143.1737   78.2941  222.4336 H   0  0  0  0  0  0  0  0  0  0  0  0
  144.4320   80.2681  223.3088 H   0  0  0  0  0  0  0  0  0  0  0  0
  143.1423   82.1649  224.2637 H   0  0  0  0  0  0  0  0  0  0  0  0
  140.6916   82.1071  224.3475 H   0  0  0  0  0  0  0  0  0  0  0  0
  138.5048   77.5671  219.4874 H   0  0  0  0  0  0  0  0  0  0  0  0
  139.9022   78.5662  220.1221 H   0  0  0  0  0  0  0  0  0  0  0  0
  140.3895   76.1078  219.6829 H   0  0  0  0  0  0  0  0  0  0  0  0
  140.8068   76.7392  221.3085 H   0  0  0  0  0  0  0  0  0  0  0  0
  138.2475   75.2283  220.5666 H   0  0  0  0  0  0  0  0  0  0  0  0
  137.9195   70.8325  224.5873 H   0  0  0  0  0  0  0  0  0  0  0  0
  138.1694   70.7414  222.8279 H   0  0  0  0  0  0  0  0  0  0  0  0
  138.3538   68.4656  223.9330 H   0  0  0  0  0  0  0  0  0  0  0  0
  139.8819   68.9225  223.1531 H   0  0  0  0  0  0  0  0  0  0  0  0
  139.3921   67.0286  225.4642 H   0  0  0  0  0  0  0  0  0  0  0  0
  140.4977   66.8123  227.6859 H   0  0  0  0  0  0  0  0  0  0  0  0
  141.5682   68.7840  228.7169 H   0  0  0  0  0  0  0  0  0  0  0  0
  141.5598   71.0029  227.5692 H   0  0  0  0  0  0  0  0  0  0  0  0
  139.9642   72.2707  225.8563 H   0  0  0  0  0  0  0  0  0  0  0  0
  141.5160   71.8309  225.0282 H   0  0  0  0  0  0  0  0  0  0  0  0
  143.5290   74.1048  219.4744 H   0  0  0  0  0  0  0  0  0  0  0  0
  144.0066   73.3440  221.0752 H   0  0  0  0  0  0  0  0  0  0  0  0
  145.0619   72.9420  218.3728 H   0  0  0  0  0  0  0  0  0  0  0  0
  145.8143   72.7714  220.0231 H   0  0  0  0  0  0  0  0  0  0  0  0
  146.9615   70.7795  219.4284 H   0  0  0  0  0  0  0  0  0  0  0  0
  146.8256   68.3031  219.2873 H   0  0  0  0  0  0  0  0  0  0  0  0
  144.6270   67.1650  219.0866 H   0  0  0  0  0  0  0  0  0  0  0  0
  142.5299   68.5557  219.0262 H   0  0  0  0  0  0  0  0  0  0  0  0
  142.2165   71.5602  218.1253 H   0  0  0  0  0  0  0  0  0  0  0  0
  141.5482   70.6148  219.4963 H   0  0  0  0  0  0  0  0  0  0  0  0
  137.9398   75.3255  223.0755 H   0  0  0  0  0  0  0  0  0  0  0  0
  139.3884   76.3683  223.1874 H   0  0  0  0  0  0  0  0  0  0  0  0
  136.8227   76.9178  221.6577 H   0  0  0  0  0  0  0  0  0  0  0  0
  137.4447   77.7518  223.1526 H   0  0  0  0  0  0  0  0  0  0  0  0
  1  2  2  0
  2  3  2  0
  2  4  1  0
  4  5  1  0
  5  6  2  0
  6  7  1  0
  7  8  2  0
  8  9  1  0
  9 10  2  0
  2 11  1  0
 11 12  1  0
 12 13  1  0
 13 14  1  0
 14 15  1  0
 15 16  2  0
 16 17  1  0
 17 18  1  0
 18 19  1  0
 19 20  1  0
 20 21  1  0
 21 22  2  0
 22 23  1  0
 23 24  2  0
 24 25  1  0
 25 26  2  0
 26 27  1  0
 17 28  2  0
 28 29  1  0
 29 30  1  0
 30 31  1  0
 31 32  1  0
 32 33  1  0
 33 34  2  0
 34 35  1  0
 35 36  2  0
 36 37  1  0
 37 38  2  0
 38 39  1  0
 29 40  2  0
 14 41  1  0
 41 42  1  0
 10  5  1  0
 42 11  1  0
 40 15  1  0
 27 18  1  0
 39 30  1  0
 26 21  1  0
 38 33  1  0
  4 43  1  0
  4 44  1  0
  6 45  1  0
  7 46  1  0
  8 47  1  0
  9 48  1  0
 10 49  1  0
 12 50  1  0
 12 51  1  0
 13 52  1  0
 13 53  1  0
 14 54  1  0
 19 55  1  0
 19 56  1  0
 20 57  1  0
 20 58  1  0
 22 59  1  0
 23 60  1  0
 24 61  1  0
 25 62  1  0
 27 63  1  0
 27 64  1  0
 31 65  1  0
 31 66  1  0
 32 67  1  0
 32 68  1  0
 34 69  1  0
 35 70  1  0
 36 71  1  0
 37 72  1  0
 39 73  1  0
 39 74  1  0
 41 75  1  0
 41 76  1  0
 42 77  1  0
 42 78  1  0
M  END
>  <smiles>  (24) 
O=S(=O)(Cc1ccccc1)N1CCC(c2nc(N3CCc4ccccc4C3)nc(N3CCc4ccccc4C3)n2)CC1

>  <score_type>  (24) 
oracle

>  <origin>  (24) 
autodockgpu

>  <m_score__min__energy>  (24) 
-12.01

>  <m_primary>  (24) 
energy

>  <rmsd>  (24) 
11.301666101390092

>  <m_score__min__rmsd>  (24) 
11.301666101390092

>  <meeko>  (24) 
{"free_energy": -11.21, "intermolecular_energy": -13.0, "internal_energy": -1.94, "cluster_size": 32, "cluster_id": 1, "rank_in_cluster": 18}

>  <energy>  (24) 
-11.08

>  <cluster_rmsd>  (24) 
1.35

>  <cluster>  (24) 
1

$$$$

     RDKit          3D

 78 84  0  0  0  0  0  0  0  0999 V2000
  137.6780   80.5030  221.7020 O   0  0  0  0  0  0  0  0  0  0  0  0
  137.8780   79.3020  222.6150 S   0  0  0  0  0  0  0  0  0  0  0  0
  136.5290   78.9320  223.2040 O   0  0  0  0  0  0  0  0  0  0  0  0
  138.8910   79.8240  223.9520 C   0  0  0  0  0  0  0  0  0  0  0  0
  140.2590   80.1200  223.5000 C   0  0  0  0  0  0  0  0  0  0  0  0
  141.2590   79.2360  223.8870 C   0  0  0  0  0  0  0  0  0  0  0  0
  142.5910   79.4460  223.5450 C   0  0  0  0  0  0  0  0  0  0  0  0
  142.9560   80.5560  222.8030 C   0  0  0  0  0  0  0  0  0  0  0  0
  141.9620   81.4280  222.4230 C   0  0  0  0  0  0  0  0  0  0  0  0
  140.6450   81.2050  222.7690 C   0  0  0  0  0  0  0  0  0  0  0  0
  138.5080   77.9890  221.8000 N   0  0  0  0  0  0  0  0  0  0  0  0
  139.8610   77.9080  221.4740 C   0  0  0  0  0  0  0  0  0  0  0  0
  140.5020   76.5640  221.8060 C   0  0  0  0  0  0  0  0  0  0  0  0
  139.6200   75.4540  221.2790 C   0  0  0  0  0  0  0  0  0  0  0  0
  140.2010   74.1360  221.5520 C   0  0  0  0  0  0  0  0  0  0  0  0
  139.8500   73.3630  222.6140 N   0  0  0  0  0  0  0  0  0  0  0  0
  140.3990   72.1640  222.8370 C   0  0  0  0  0  0  0  0  0  0  0  0
  139.9560   71.4410  223.9770 N   0  0  0  0  0  0  0  0  0  0  0  0
  138.7940   70.5980  223.8530 C   0  0  0  0  0  0  0  0  0  0  0  0
  139.2580   69.1540  224.0760 C   0  0  0  0  0  0  0  0  0  0  0  0
  139.9000   69.1170  225.4150 C   0  0  0  0  0  0  0  0  0  0  0  0
  139.8440   67.9180  226.1010 C   0  0  0  0  0  0  0  0  0  0  0  0
  140.4230   67.8150  227.3530 C   0  0  0  0  0  0  0  0  0  0  0  0
  141.0510   68.9150  227.9000 C   0  0  0  0  0  0  0  0  0  0  0  0
  141.1190   70.1320  227.2280 C   0  0  0  0  0  0  0  0  0  0  0  0
  140.5330   70.2020  225.9830 C   0  0  0  0  0  0  0  0  0  0  0  0
  140.6080   71.5020  225.2680 C   0  0  0  0  0  0  0  0  0  0  0  0
  141.3270   71.7090  221.9810 N   0  0  0  0  0  0  0  0  0  0  0  0
  141.7250   72.4270  220.9010 C   0  0  0  0  0  0  0  0  0  0  0  0
  142.7080   71.9540  219.9880 N   0  0  0  0  0  0  0  0  0  0  0  0
  143.8990   72.7550  219.8060 C   0  0  0  0  0  0  0  0  0  0  0  0
  145.0430   72.0320  219.1790 C   0  0  0  0  0  0  0  0  0  0  0  0
  144.9240   70.5590  219.2900 C   0  0  0  0  0  0  0  0  0  0  0  0
  146.0660   69.7850  219.3400 C   0  0  0  0  0  0  0  0  0  0  0  0
  145.9800   68.3940  219.4440 C   0  0  0  0  0  0  0  0  0  0  0  0
  144.7520   67.7620  219.5010 C   0  0  0  0  0  0  0  0  0  0  0  0
  143.5910   68.5350  219.4510 C   0  0  0  0  0  0  0  0  0  0  0  0
  143.7140   69.9070  219.3480 C   0  0  0  0  0  0  0  0  0  0  0  0
  142.4860   70.7220  219.2950 C   0  0  0  0  0  0  0  0  0  0  0  0
  141.1360   73.6250  220.7320 N   0  0  0  0  0  0  0  0  0  0  0  0
  138.2810   75.5830  221.9690 C   0  0  0  0  0  0  0  0  0  0  0  0
  137.6640   76.8770  221.5590 C   0  0  0  0  0  0  0  0  0  0  0  0
  138.4567   80.7307  224.3983 H   0  0  0  0  0  0  0  0  0  0  0  0
  138.9372   79.0110  224.6916 H   0  0  0  0  0  0  0  0  0  0  0  0
  140.9907   78.3482  224.4784 H   0  0  0  0  0  0  0  0  0  0  0  0
  143.3583   78.7261  223.8660 H   0  0  0  0  0  0  0  0  0  0  0  0
  144.0055   80.7349  222.5264 H   0  0  0  0  0  0  0  0  0  0  0  0
  142.2219   82.3191  221.8327 H   0  0  0  0  0  0  0  0  0  0  0  0
  139.8807   81.9264  222.4444 H   0  0  0  0  0  0  0  0  0  0  0  0
  139.9671   78.0839  220.3933 H   0  0  0  0  0  0  0  0  0  0  0  0
  140.3794   78.6653  222.0804 H   0  0  0  0  0  0  0  0  0  0  0  0
  141.4940   76.5021  221.3346 H   0  0  0  0  0  0  0  0  0  0  0  0
  140.6132   76.4645  222.8958 H   0  0  0  0  0  0  0  0  0  0  0  0
  139.5167   75.5419  220.1874 H   0  0  0  0  0  0  0  0  0  0  0  0
  138.0449   70.8746  224.6095 H   0  0  0  0  0  0  0  0  0  0  0  0
  138.3322   70.7118  222.8612 H   0  0  0  0  0  0  0  0  0  0  0  0
  138.3969   68.4701  224.0489 H   0  0  0  0  0  0  0  0  0  0  0  0
  139.9597   68.8368  223.2905 H   0  0  0  0  0  0  0  0  0  0  0  0
  139.3406   67.0487  225.6526 H   0  0  0  0  0  0  0  0  0  0  0  0
  140.3832   66.8655  227.9070 H   0  0  0  0  0  0  0  0  0  0  0  0
  141.5110   68.8277  228.8954 H   0  0  0  0  0  0  0  0  0  0  0  0
  141.6209   71.0036  227.6734 H   0  0  0  0  0  0  0  0  0  0  0  0
  140.1173   72.2739  225.8791 H   0  0  0  0  0  0  0  0  0  0  0  0
  141.6688   71.7435  225.1055 H   0  0  0  0  0  0  0  0  0  0  0  0
  143.6419   73.6116  219.1656 H   0  0  0  0  0  0  0  0  0  0  0  0
  144.2314   73.0527  220.8114 H   0  0  0  0  0  0  0  0  0  0  0  0
  145.0870   72.3014  218.1134 H   0  0  0  0  0  0  0  0  0  0  0  0
  145.9562   72.3310  219.7145 H   0  0  0  0  0  0  0  0  0  0  0  0
  147.0534   70.2679  219.2976 H   0  0  0  0  0  0  0  0  0  0  0  0
  146.9014   67.7943  219.4810 H   0  0  0  0  0  0  0  0  0  0  0  0
  144.6907   66.6669  219.5845 H   0  0  0  0  0  0  0  0  0  0  0  0
  142.5989   68.0617  219.4927 H   0  0  0  0  0  0  0  0  0  0  0  0
  142.2284   70.9312  218.2462 H   0  0  0  0  0  0  0  0  0  0  0  0
  141.6587   70.1747  219.7705 H   0  0  0  0  0  0  0  0  0  0  0  0
  137.6279   74.7492  221.6719 H   0  0  0  0  0  0  0  0  0  0  0  0
  138.4138   75.5563  223.0606 H   0  0  0  0  0  0  0  0  0  0  0  0
  137.4387   76.8336  220.4832 H   0  0  0  0  0  0  0  0  0  0  0  0
  136.7542   77.0154  222.1615 H   0  0  0  0  0  0  0  0  0  0  0  0
  1  2  2  0
  2  3  2  0
  2  4  1  0
  4  5  1  0
  5  6  2  0
  6  7  1  0
  7  8  2  0
  8  9  1  0
  9 10  2  0
  2 11  1  0
 11 12  1  0
 12 13  1  0
 13 14  1  0
 14 15  1  0
 15 16  2  0
 16 17  1  0
 17 18  1  0
 18 19  1  0
 19 20  1  0
 20 21  1  0
 21 22  2  0
 22 23  1  0
 23 24  2  0
 24 25  1  0
 25 26  2  0
 26 27  1  0
 17 28  2  0
 28 29  1  0
 29 30  1  0
 30 31  1  0
 31 32  1  0
 32 33  1  0
 33 34  2  0
 34 35  1  0
 35 36  2  0
 36 37  1  0
 37 38  2  0
 38 39  1  0
 29 40  2  0
 14 41  1  0
 41 42  1  0
 10  5  1  0
 42 11  1  0
 40 15  1  0
 27 18  1  0
 39 30  1  0
 26 21  1  0
 38 33  1  0
  4 43  1  0
  4 44  1  0
  6 45  1  0
  7 46  1  0
  8 47  1  0
  9 48  1  0
 10 49  1  0
 12 50  1  0
 12 51  1  0
 13 52  1  0
 13 53  1  0
 14 54  1  0
 19 55  1  0
 19 56  1  0
 20 57  1  0
 20 58  1  0
 22 59  1  0
 23 60  1  0
 24 61  1  0
 25 62  1  0
 27 63  1  0
 27 64  1  0
 31 65  1  0
 31 66  1  0
 32 67  1  0
 32 68  1  0
 34 69  1  0
 35 70  1  0
 36 71  1  0
 37 72  1  0
 39 73  1  0
 39 74  1  0
 41 75  1  0
 41 76  1  0
 42 77  1  0
 42 78  1  0
M  END
>  <smiles>  (25) 
O=S(=O)(Cc1ccccc1)N1CCC(c2nc(N3CCc4ccccc4C3)nc(N3CCc4ccccc4C3)n2)CC1

>  <score_type>  (25) 
oracle

>  <origin>  (25) 
autodockgpu

>  <m_score__min__energy>  (25) 
-12.01

>  <m_primary>  (25) 
energy

>  <rmsd>  (25) 
11.369084907583602

>  <m_score__min__rmsd>  (25) 
11.369084907583602

>  <meeko>  (25) 
{"free_energy": -11.92, "intermolecular_energy": -13.71, "internal_energy": -1.74, "cluster_size": 32, "cluster_id": 1, "rank_in_cluster": 2}

>  <energy>  (25) 
-11.08

>  <cluster_rmsd>  (25) 
1.24

>  <cluster>  (25) 
1

$$$$

     RDKit          3D

 78 84  0  0  0  0  0  0  0  0999 V2000
  137.3320   79.9440  222.2180 O   0  0  0  0  0  0  0  0  0  0  0  0
  138.7780   79.4960  222.3820 S   0  0  0  0  0  0  0  0  0  0  0  0
  139.0640   79.3770  223.8680 O   0  0  0  0  0  0  0  0  0  0  0  0
  139.7990   80.7880  221.7690 C   0  0  0  0  0  0  0  0  0  0  0  0
  141.0770   80.8440  222.4940 C   0  0  0  0  0  0  0  0  0  0  0  0
  142.0780   79.9730  222.0780 C   0  0  0  0  0  0  0  0  0  0  0  0
  143.3110   79.9180  222.7220 C   0  0  0  0  0  0  0  0  0  0  0  0
  143.5720   80.7390  223.8050 C   0  0  0  0  0  0  0  0  0  0  0  0
  142.5770   81.5990  224.2120 C   0  0  0  0  0  0  0  0  0  0  0  0
  141.3600   81.6420  223.5620 C   0  0  0  0  0  0  0  0  0  0  0  0
  139.0710   78.0310  221.6390 N   0  0  0  0  0  0  0  0  0  0  0  0
  140.2860   77.7560  221.0130 C   0  0  0  0  0  0  0  0  0  0  0  0
  140.8780   76.3970  221.3740 C   0  0  0  0  0  0  0  0  0  0  0  0
  139.8040   75.3400  221.2410 C   0  0  0  0  0  0  0  0  0  0  0  0
  140.3250   74.0070  221.5550 C   0  0  0  0  0  0  0  0  0  0  0  0
  139.9590   73.2940  222.6530 N   0  0  0  0  0  0  0  0  0  0  0  0
  140.4530   72.0790  222.9140 C   0  0  0  0  0  0  0  0  0  0  0  0
  139.9990   71.4240  224.0890 N   0  0  0  0  0  0  0  0  0  0  0  0
  138.9240   70.4690  223.9780 C   0  0  0  0  0  0  0  0  0  0  0  0
  139.4950   69.1000  224.3650 C   0  0  0  0  0  0  0  0  0  0  0  0
  140.0470   69.2430  225.7370 C   0  0  0  0  0  0  0  0  0  0  0  0
  140.0480   68.1090  226.5290 C   0  0  0  0  0  0  0  0  0  0  0  0
  140.5490   68.1730  227.8180 C   0  0  0  0  0  0  0  0  0  0  0  0
  141.0410   69.3710  228.2930 C   0  0  0  0  0  0  0  0  0  0  0  0
  141.0490   70.5230  227.5130 C   0  0  0  0  0  0  0  0  0  0  0  0
  140.5450   70.4280  226.2340 C   0  0  0  0  0  0  0  0  0  0  0  0
  140.5550   71.6590  225.4050 C   0  0  0  0  0  0  0  0  0  0  0  0
  141.3410   71.5460  222.0600 N   0  0  0  0  0  0  0  0  0  0  0  0
  141.7510   72.2010  220.9460 C   0  0  0  0  0  0  0  0  0  0  0  0
  142.6920   71.6450  220.0340 N   0  0  0  0  0  0  0  0  0  0  0  0
  143.9980   72.2630  219.9540 C   0  0  0  0  0  0  0  0  0  0  0  0
  145.0470   71.4160  219.3140 C   0  0  0  0  0  0  0  0  0  0  0  0
  144.7010   69.9750  219.3110 C   0  0  0  0  0  0  0  0  0  0  0  0
  145.7080   69.0320  219.3430 C   0  0  0  0  0  0  0  0  0  0  0  0
  145.4070   67.6670  219.3400 C   0  0  0  0  0  0  0  0  0  0  0  0
  144.0960   67.2300  219.3070 C   0  0  0  0  0  0  0  0  0  0  0  0
  143.0700   68.1750  219.2750 C   0  0  0  0  0  0  0  0  0  0  0  0
  143.4040   69.5160  219.2780 C   0  0  0  0  0  0  0  0  0  0  0  0
  142.3180   70.5120  219.2440 C   0  0  0  0  0  0  0  0  0  0  0  0
  141.2180   73.4190  220.7390 N   0  0  0  0  0  0  0  0  0  0  0  0
  138.6990   75.7050  222.2050 C   0  0  0  0  0  0  0  0  0  0  0  0
  138.1050   77.0020  221.7710 C   0  0  0  0  0  0  0  0  0  0  0  0
  139.9991   80.6117  220.7018 H   0  0  0  0  0  0  0  0  0  0  0  0
  139.2747   81.7444  221.9120 H   0  0  0  0  0  0  0  0  0  0  0  0
  141.8911   79.3114  221.2193 H   0  0  0  0  0  0  0  0  0  0  0  0
  144.0822   79.2180  222.3680 H   0  0  0  0  0  0  0  0  0  0  0  0
  144.5418   80.7056  224.3231 H   0  0  0  0  0  0  0  0  0  0  0  0
  142.7549   82.2636  225.0703 H   0  0  0  0  0  0  0  0  0  0  0  0
  140.5922   82.3445  223.9183 H   0  0  0  0  0  0  0  0  0  0  0  0
  140.1288   77.7865  219.9247 H   0  0  0  0  0  0  0  0  0  0  0  0
  141.0013   78.5163  221.3598 H   0  0  0  0  0  0  0  0  0  0  0  0
  141.7101   76.1648  220.6931 H   0  0  0  0  0  0  0  0  0  0  0  0
  141.2523   76.4179  222.4081 H   0  0  0  0  0  0  0  0  0  0  0  0
  139.4356   75.3064  220.2051 H   0  0  0  0  0  0  0  0  0  0  0  0
  138.1047   70.7423  224.6592 H   0  0  0  0  0  0  0  0  0  0  0  0
  138.5215   70.4500  222.9545 H   0  0  0  0  0  0  0  0  0  0  0  0
  138.6999   68.3400  224.3531 H   0  0  0  0  0  0  0  0  0  0  0  0
  140.2725   68.7795  223.6559 H   0  0  0  0  0  0  0  0  0  0  0  0
  139.6525   67.1606  226.1364 H   0  0  0  0  0  0  0  0  0  0  0  0
  140.5547   67.2776  228.4569 H   0  0  0  0  0  0  0  0  0  0  0  0
  141.4383   69.4168  229.3177 H   0  0  0  0  0  0  0  0  0  0  0  0
  141.4426   71.4735  227.9024 H   0  0  0  0  0  0  0  0  0  0  0  0
  139.9595   72.4337  225.9103 H   0  0  0  0  0  0  0  0  0  0  0  0
  141.5996   71.9812  225.2829 H   0  0  0  0  0  0  0  0  0  0  0  0
  143.9035   73.1911  219.3712 H   0  0  0  0  0  0  0  0  0  0  0  0
  144.3255   72.4360  220.9898 H   0  0  0  0  0  0  0  0  0  0  0  0
  145.1794   71.7475  218.2735 H   0  0  0  0  0  0  0  0  0  0  0  0
  145.9698   71.5330  219.9011 H   0  0  0  0  0  0  0  0  0  0  0  0
  146.7583   69.3578  219.3712 H   0  0  0  0  0  0  0  0  0  0  0  0
  146.2241   66.9309  219.3642 H   0  0  0  0  0  0  0  0  0  0  0  0
  143.8653   66.1545  219.3060 H   0  0  0  0  0  0  0  0  0  0  0  0
  142.0167   67.8591  219.2479 H   0  0  0  0  0  0  0  0  0  0  0  0
  142.1428   70.8296  218.2055 H   0  0  0  0  0  0  0  0  0  0  0  0
  141.3969   70.0676  219.6491 H   0  0  0  0  0  0  0  0  0  0  0  0
  137.9265   74.9219  222.1984 H   0  0  0  0  0  0  0  0  0  0  0  0
  139.1018   75.7962  223.2245 H   0  0  0  0  0  0  0  0  0  0  0  0
  137.6125   76.8552  220.7984 H   0  0  0  0  0  0  0  0  0  0  0  0
  137.3906   77.3154  222.5465 H   0  0  0  0  0  0  0  0  0  0  0  0
  1  2  2  0
  2  3  2  0
  2  4  1  0
  4  5  1  0
  5  6  2  0
  6  7  1  0
  7  8  2  0
  8  9  1  0
  9 10  2  0
  2 11  1  0
 11 12  1  0
 12 13  1  0
 13 14  1  0
 14 15  1  0
 15 16  2  0
 16 17  1  0
 17 18  1  0
 18 19  1  0
 19 20  1  0
 20 21  1  0
 21 22  2  0
 22 23  1  0
 23 24  2  0
 24 25  1  0
 25 26  2  0
 26 27  1  0
 17 28  2  0
 28 29  1  0
 29 30  1  0
 30 31  1  0
 31 32  1  0
 32 33  1  0
 33 34  2  0
 34 35  1  0
 35 36  2  0
 36 37  1  0
 37 38  2  0
 38 39  1  0
 29 40  2  0
 14 41  1  0
 41 42  1  0
 10  5  1  0
 42 11  1  0
 40 15  1  0
 27 18  1  0
 39 30  1  0
 26 21  1  0
 38 33  1  0
  4 43  1  0
  4 44  1  0
  6 45  1  0
  7 46  1  0
  8 47  1  0
  9 48  1  0
 10 49  1  0
 12 50  1  0
 12 51  1  0
 13 52  1  0
 13 53  1  0
 14 54  1  0
 19 55  1  0
 19 56  1  0
 20 57  1  0
 20 58  1  0
 22 59  1  0
 23 60  1  0
 24 61  1  0
 25 62  1  0
 27 63  1  0
 27 64  1  0
 31 65  1  0
 31 66  1  0
 32 67  1  0
 32 68  1  0
 34 69  1  0
 35 70  1  0
 36 71  1  0
 37 72  1  0
 39 73  1  0
 39 74  1  0
 41 75  1  0
 41 76  1  0
 42 77  1  0
 42 78  1  0
M  END
>  <smiles>  (26) 
O=S(=O)(Cc1ccccc1)N1CCC(c2nc(N3CCc4ccccc4C3)nc(N3CCc4ccccc4C3)n2)CC1

>  <score_type>  (26) 
oracle

>  <origin>  (26) 
autodockgpu

>  <m_score__min__energy>  (26) 
-12.01

>  <m_primary>  (26) 
energy

>  <rmsd>  (26) 
11.372616426484882

>  <m_score__min__rmsd>  (26) 
11.372616426484882

>  <meeko>  (26) 
{"free_energy": -12.01, "intermolecular_energy": -13.8, "internal_energy": -1.72, "cluster_size": 32, "cluster_id": 1, "rank_in_cluster": 1}

>  <energy>  (26) 
-11.06

>  <cluster_rmsd>  (26) 
1.28

>  <cluster>  (26) 
1

$$$$

     RDKit          3D

 78 84  0  0  0  0  0  0  0  0999 V2000
  139.9280   79.2020  218.3520 O   0  0  0  0  0  0  0  0  0  0  0  0
  139.8120   79.3900  219.8570 S   0  0  0  0  0  0  0  0  0  0  0  0
  138.3370   79.4340  220.2100 O   0  0  0  0  0  0  0  0  0  0  0  0
  140.4740   80.9720  220.2400 C   0  0  0  0  0  0  0  0  0  0  0  0
  141.1770   80.9550  221.5320 C   0  0  0  0  0  0  0  0  0  0  0  0
  142.4710   80.4470  221.5410 C   0  0  0  0  0  0  0  0  0  0  0  0
  143.2090   80.3500  222.7170 C   0  0  0  0  0  0  0  0  0  0  0  0
  142.6640   80.7620  223.9200 C   0  0  0  0  0  0  0  0  0  0  0  0
  141.3830   81.2640  223.9060 C   0  0  0  0  0  0  0  0  0  0  0  0
  140.6640   81.3540  222.7300 C   0  0  0  0  0  0  0  0  0  0  0  0
  140.5510   78.1570  220.7050 N   0  0  0  0  0  0  0  0  0  0  0  0
  139.9970   77.6350  221.8730 C   0  0  0  0  0  0  0  0  0  0  0  0
  139.9660   76.1100  221.9200 C   0  0  0  0  0  0  0  0  0  0  0  0
  141.3270   75.5770  221.5300 C   0  0  0  0  0  0  0  0  0  0  0  0
  141.3600   74.1130  221.5800 C   0  0  0  0  0  0  0  0  0  0  0  0
  140.6960   73.3740  222.5080 N   0  0  0  0  0  0  0  0  0  0  0  0
  140.7470   72.0390  222.5280 C   0  0  0  0  0  0  0  0  0  0  0  0
  140.0130   71.3690  223.5430 N   0  0  0  0  0  0  0  0  0  0  0  0
  138.8940   70.5460  223.1590 C   0  0  0  0  0  0  0  0  0  0  0  0
  139.2450   69.1020  223.5360 C   0  0  0  0  0  0  0  0  0  0  0  0
  139.5310   69.1020  224.9940 C   0  0  0  0  0  0  0  0  0  0  0  0
  139.2700   67.9310  225.6800 C   0  0  0  0  0  0  0  0  0  0  0  0
  139.5150   67.8630  227.0410 C   0  0  0  0  0  0  0  0  0  0  0  0
  140.0190   68.9700  227.6930 C   0  0  0  0  0  0  0  0  0  0  0  0
  140.2890   70.1590  227.0210 C   0  0  0  0  0  0  0  0  0  0  0  0
  140.0350   70.1940  225.6670 C   0  0  0  0  0  0  0  0  0  0  0  0
  140.3240   71.4640  224.9540 C   0  0  0  0  0  0  0  0  0  0  0  0
  141.4800   71.4060  221.5980 N   0  0  0  0  0  0  0  0  0  0  0  0
  142.1670   72.0790  220.6430 C   0  0  0  0  0  0  0  0  0  0  0  0
  142.9470   71.4180  219.6520 N   0  0  0  0  0  0  0  0  0  0  0  0
  144.0980   72.1170  219.1250 C   0  0  0  0  0  0  0  0  0  0  0  0
  145.0840   71.2450  218.4220 C   0  0  0  0  0  0  0  0  0  0  0  0
  144.9560   69.8160  218.7920 C   0  0  0  0  0  0  0  0  0  0  0  0
  146.0680   68.9990  218.7540 C   0  0  0  0  0  0  0  0  0  0  0  0
  145.9720   67.6480  219.0980 C   0  0  0  0  0  0  0  0  0  0  0  0
  144.7640   67.0980  219.4830 C   0  0  0  0  0  0  0  0  0  0  0  0
  143.6330   67.9150  219.5250 C   0  0  0  0  0  0  0  0  0  0  0  0
  143.7640   69.2460  219.1790 C   0  0  0  0  0  0  0  0  0  0  0  0
  142.5680   70.1070  219.2220 C   0  0  0  0  0  0  0  0  0  0  0  0
  142.0760   73.4210  220.6760 N   0  0  0  0  0  0  0  0  0  0  0  0
  141.6050   76.0540  220.1230 C   0  0  0  0  0  0  0  0  0  0  0  0
  141.6970   77.5430  220.1410 C   0  0  0  0  0  0  0  0  0  0  0  0
  141.1812   81.2659  219.4504 H   0  0  0  0  0  0  0  0  0  0  0  0
  139.6440   81.6911  220.3041 H   0  0  0  0  0  0  0  0  0  0  0  0
  142.9228   80.1134  220.5952 H   0  0  0  0  0  0  0  0  0  0  0  0
  144.2308   79.9437  222.6898 H   0  0  0  0  0  0  0  0  0  0  0  0
  143.2360   80.6906  224.8569 H   0  0  0  0  0  0  0  0  0  0  0  0
  140.9236   81.5994  224.8475 H   0  0  0  0  0  0  0  0  0  0  0  0
  139.6428   81.7615  222.7615 H   0  0  0  0  0  0  0  0  0  0  0  0
  140.5892   77.9950  222.7272 H   0  0  0  0  0  0  0  0  0  0  0  0
  138.9514   77.9749  221.9078 H   0  0  0  0  0  0  0  0  0  0  0  0
  139.7179   75.7775  222.9388 H   0  0  0  0  0  0  0  0  0  0  0  0
  139.2050   75.7322  221.2213 H   0  0  0  0  0  0  0  0  0  0  0  0
  142.0901   75.9416  222.2334 H   0  0  0  0  0  0  0  0  0  0  0  0
  137.9886   70.8664  223.6953 H   0  0  0  0  0  0  0  0  0  0  0  0
  138.6973   70.6318  222.0801 H   0  0  0  0  0  0  0  0  0  0  0  0
  138.3982   68.4355  223.3152 H   0  0  0  0  0  0  0  0  0  0  0  0
  140.1110   68.7412  222.9617 H   0  0  0  0  0  0  0  0  0  0  0  0
  138.8692   67.0564  225.1468 H   0  0  0  0  0  0  0  0  0  0  0  0
  139.3100   66.9362  227.5969 H   0  0  0  0  0  0  0  0  0  0  0  0
  140.2129   68.9112  228.7742 H   0  0  0  0  0  0  0  0  0  0  0  0
  140.6895   71.0363  227.5502 H   0  0  0  0  0  0  0  0  0  0  0  0
  139.7194   72.2681  225.3989 H   0  0  0  0  0  0  0  0  0  0  0  0
  141.3985   71.6768  225.0546 H   0  0  0  0  0  0  0  0  0  0  0  0
  143.7423   72.8764  218.4131 H   0  0  0  0  0  0  0  0  0  0  0  0
  144.6236   72.5495  219.9891 H   0  0  0  0  0  0  0  0  0  0  0  0
  144.9280   71.3422  217.3375 H   0  0  0  0  0  0  0  0  0  0  0  0
  146.0896   71.5750  218.7219 H   0  0  0  0  0  0  0  0  0  0  0  0
  147.0395   69.4156  218.4498 H   0  0  0  0  0  0  0  0  0  0  0  0
  146.8700   67.0138  219.0619 H   0  0  0  0  0  0  0  0  0  0  0  0
  144.6949   66.0336  219.7520 H   0  0  0  0  0  0  0  0  0  0  0  0
  142.6572   67.5073  219.8275 H   0  0  0  0  0  0  0  0  0  0  0  0
  142.1196   70.1641  218.2192 H   0  0  0  0  0  0  0  0  0  0  0  0
  141.8343   69.6854  219.9248 H   0  0  0  0  0  0  0  0  0  0  0  0
  142.5542   75.6273  219.7666 H   0  0  0  0  0  0  0  0  0  0  0  0
  140.7977   75.7330  219.4483 H   0  0  0  0  0  0  0  0  0  0  0  0
  142.5782   77.8336  220.7319 H   0  0  0  0  0  0  0  0  0  0  0  0
  141.7753   77.8827  219.0977 H   0  0  0  0  0  0  0  0  0  0  0  0
  1  2  2  0
  2  3  2  0
  2  4  1  0
  4  5  1  0
  5  6  2  0
  6  7  1  0
  7  8  2  0
  8  9  1  0
  9 10  2  0
  2 11  1  0
 11 12  1  0
 12 13  1  0
 13 14  1  0
 14 15  1  0
 15 16  2  0
 16 17  1  0
 17 18  1  0
 18 19  1  0
 19 20  1  0
 20 21  1  0
 21 22  2  0
 22 23  1  0
 23 24  2  0
 24 25  1  0
 25 26  2  0
 26 27  1  0
 17 28  2  0
 28 29  1  0
 29 30  1  0
 30 31  1  0
 31 32  1  0
 32 33  1  0
 33 34  2  0
 34 35  1  0
 35 36  2  0
 36 37  1  0
 37 38  2  0
 38 39  1  0
 29 40  2  0
 14 41  1  0
 41 42  1  0
 10  5  1  0
 42 11  1  0
 40 15  1  0
 27 18  1  0
 39 30  1  0
 26 21  1  0
 38 33  1  0
  4 43  1  0
  4 44  1  0
  6 45  1  0
  7 46  1  0
  8 47  1  0
  9 48  1  0
 10 49  1  0
 12 50  1  0
 12 51  1  0
 13 52  1  0
 13 53  1  0
 14 54  1  0
 19 55  1  0
 19 56  1  0
 20 57  1  0
 20 58  1  0
 22 59  1  0
 23 60  1  0
 24 61  1  0
 25 62  1  0
 27 63  1  0
 27 64  1  0
 31 65  1  0
 31 66  1  0
 32 67  1  0
 32 68  1  0
 34 69  1  0
 35 70  1  0
 36 71  1  0
 37 72  1  0
 39 73  1  0
 39 74  1  0
 41 75  1  0
 41 76  1  0
 42 77  1  0
 42 78  1  0
M  END
>  <smiles>  (27) 
O=S(=O)(Cc1ccccc1)N1CCC(c2nc(N3CCc4ccccc4C3)nc(N3CCc4ccccc4C3)n2)CC1

>  <score_type>  (27) 
oracle

>  <origin>  (27) 
autodockgpu

>  <m_score__min__energy>  (27) 
-12.01

>  <m_primary>  (27) 
energy

>  <rmsd>  (27) 
11.184727811303988

>  <m_score__min__rmsd>  (27) 
11.184727811303988

>  <meeko>  (27) 
{"free_energy": -10.89, "intermolecular_energy": -12.68, "internal_energy": -1.95, "cluster_size": 32, "cluster_id": 1, "rank_in_cluster": 30}

>  <energy>  (27) 
-11.06

>  <cluster_rmsd>  (27) 
1.11

>  <cluster>  (27) 
1

$$$$

     RDKit          3D

 78 84  0  0  0  0  0  0  0  0999 V2000
  139.5320   79.1830  218.6200 O   0  0  0  0  0  0  0  0  0  0  0  0
  139.7450   79.3000  220.1220 S   0  0  0  0  0  0  0  0  0  0  0  0
  138.3800   79.3260  220.7870 O   0  0  0  0  0  0  0  0  0  0  0  0
  140.4900   80.8610  220.4270 C   0  0  0  0  0  0  0  0  0  0  0  0
  141.3660   80.8110  221.6070 C   0  0  0  0  0  0  0  0  0  0  0  0
  140.9740   81.5530  222.7160 C   0  0  0  0  0  0  0  0  0  0  0  0
  141.7510   81.6060  223.8690 C   0  0  0  0  0  0  0  0  0  0  0  0
  142.9470   80.9120  223.9400 C   0  0  0  0  0  0  0  0  0  0  0  0
  143.3290   80.1800  222.8390 C   0  0  0  0  0  0  0  0  0  0  0  0
  142.5470   80.1370  221.7020 C   0  0  0  0  0  0  0  0  0  0  0  0
  140.6360   78.0270  220.7320 N   0  0  0  0  0  0  0  0  0  0  0  0
  140.4370   77.5450  222.0250 C   0  0  0  0  0  0  0  0  0  0  0  0
  140.3350   76.0260  222.1150 C   0  0  0  0  0  0  0  0  0  0  0  0
  141.4780   75.4090  221.3410 C   0  0  0  0  0  0  0  0  0  0  0  0
  141.4420   73.9450  221.4120 C   0  0  0  0  0  0  0  0  0  0  0  0
  142.1270   73.1320  220.5630 N   0  0  0  0  0  0  0  0  0  0  0  0
  142.0730   71.7990  220.6530 C   0  0  0  0  0  0  0  0  0  0  0  0
  142.8300   71.0470  219.7150 N   0  0  0  0  0  0  0  0  0  0  0  0
  143.8230   71.7280  218.9230 C   0  0  0  0  0  0  0  0  0  0  0  0
  145.1880   71.1540  219.3200 C   0  0  0  0  0  0  0  0  0  0  0  0
  145.1170   69.6890  219.0840 C   0  0  0  0  0  0  0  0  0  0  0  0
  146.3030   69.0500  218.7690 C   0  0  0  0  0  0  0  0  0  0  0  0
  146.3070   67.6860  218.5380 C   0  0  0  0  0  0  0  0  0  0  0  0
  145.1230   66.9810  218.6270 C   0  0  0  0  0  0  0  0  0  0  0  0
  143.9190   67.6040  218.9430 C   0  0  0  0  0  0  0  0  0  0  0  0
  143.9480   68.9640  219.1680 C   0  0  0  0  0  0  0  0  0  0  0  0
  142.6620   69.6250  219.5050 C   0  0  0  0  0  0  0  0  0  0  0  0
  141.3170   71.2460  221.6140 N   0  0  0  0  0  0  0  0  0  0  0  0
  140.6080   71.9960  222.4930 C   0  0  0  0  0  0  0  0  0  0  0  0
  139.8030   71.4190  223.5160 N   0  0  0  0  0  0  0  0  0  0  0  0
  138.6060   70.7140  223.1130 C   0  0  0  0  0  0  0  0  0  0  0  0
  138.0440   69.8040  224.1530 C   0  0  0  0  0  0  0  0  0  0  0  0
  139.0340   69.4320  225.1910 C   0  0  0  0  0  0  0  0  0  0  0  0
  138.9270   68.2150  225.8310 C   0  0  0  0  0  0  0  0  0  0  0  0
  139.8480   67.8420  226.8140 C   0  0  0  0  0  0  0  0  0  0  0  0
  140.8870   68.6830  227.1670 C   0  0  0  0  0  0  0  0  0  0  0  0
  141.0050   69.9170  226.5250 C   0  0  0  0  0  0  0  0  0  0  0  0
  140.0770   70.2520  225.5590 C   0  0  0  0  0  0  0  0  0  0  0  0
  140.2030   71.5560  224.8830 C   0  0  0  0  0  0  0  0  0  0  0  0
  140.7030   73.3300  222.3520 N   0  0  0  0  0  0  0  0  0  0  0  0
  141.3400   75.8610  219.9050 C   0  0  0  0  0  0  0  0  0  0  0  0
  141.5180   77.3410  219.8600 C   0  0  0  0  0  0  0  0  0  0  0  0
  141.0864   81.1515  219.5495 H   0  0  0  0  0  0  0  0  0  0  0  0
  139.6936   81.5960  220.6155 H   0  0  0  0  0  0  0  0  0  0  0  0
  140.0269   82.1114  222.6808 H   0  0  0  0  0  0  0  0  0  0  0  0
  141.4132   82.2027  224.7291 H   0  0  0  0  0  0  0  0  0  0  0  0
  143.5706   80.9446  224.8456 H   0  0  0  0  0  0  0  0  0  0  0  0
  144.2747   79.6189  222.8654 H   0  0  0  0  0  0  0  0  0  0  0  0
  142.8884   79.5389  220.8442 H   0  0  0  0  0  0  0  0  0  0  0  0
  141.2816   77.8720  222.6493 H   0  0  0  0  0  0  0  0  0  0  0  0
  139.4731   77.9483  222.3688 H   0  0  0  0  0  0  0  0  0  0  0  0
  140.3922   75.7143  223.1684 H   0  0  0  0  0  0  0  0  0  0  0  0
  139.3763   75.6922  221.6913 H   0  0  0  0  0  0  0  0  0  0  0  0
  142.4385   75.7301  221.7702 H   0  0  0  0  0  0  0  0  0  0  0  0
  143.6370   71.5532  217.8530 H   0  0  0  0  0  0  0  0  0  0  0  0
  143.7882   72.8131  219.1002 H   0  0  0  0  0  0  0  0  0  0  0  0
  145.9815   71.6000  218.7024 H   0  0  0  0  0  0  0  0  0  0  0  0
  145.4209   71.3756  220.3720 H   0  0  0  0  0  0  0  0  0  0  0  0
  147.2389   69.6241  218.7025 H   0  0  0  0  0  0  0  0  0  0  0  0
  147.2442   67.1681  218.2859 H   0  0  0  0  0  0  0  0  0  0  0  0
  145.1315   65.8965  218.4430 H   0  0  0  0  0  0  0  0  0  0  0  0
  142.9809   67.0335  219.0106 H   0  0  0  0  0  0  0  0  0  0  0  0
  141.9532   69.4680  218.6786 H   0  0  0  0  0  0  0  0  0  0  0  0
  142.2835   69.1829  220.4384 H   0  0  0  0  0  0  0  0  0  0  0  0
  137.8382   71.4590  222.8572 H   0  0  0  0  0  0  0  0  0  0  0  0
  138.8893   70.0783  222.2612 H   0  0  0  0  0  0  0  0  0  0  0  0
  137.1973   70.3092  224.6408 H   0  0  0  0  0  0  0  0  0  0  0  0
  137.7327   68.8780  223.6474 H   0  0  0  0  0  0  0  0  0  0  0  0
  138.1080   67.5305  225.5650 H   0  0  0  0  0  0  0  0  0  0  0  0
  139.7449   66.8671  227.3130 H   0  0  0  0  0  0  0  0  0  0  0  0
  141.6091   68.3846  227.9413 H   0  0  0  0  0  0  0  0  0  0  0  0
  141.8206   70.6083  226.7834 H   0  0  0  0  0  0  0  0  0  0  0  0
  139.5576   72.2932  225.3829 H   0  0  0  0  0  0  0  0  0  0  0  0
  141.2480   71.8964  224.9295 H   0  0  0  0  0  0  0  0  0  0  0  0
  142.1091   75.3750  219.2867 H   0  0  0  0  0  0  0  0  0  0  0  0
  140.3485   75.5868  219.5153 H   0  0  0  0  0  0  0  0  0  0  0  0
  142.5526   77.5795  220.1476 H   0  0  0  0  0  0  0  0  0  0  0  0
  141.2932   77.6706  218.8349 H   0  0  0  0  0  0  0  0  0  0  0  0
  1  2  2  0
  2  3  2  0
  2  4  1  0
  4  5  1  0
  5  6  2  0
  6  7  1  0
  7  8  2  0
  8  9  1  0
  9 10  2  0
  2 11  1  0
 11 12  1  0
 12 13  1  0
 13 14  1  0
 14 15  1  0
 15 16  2  0
 16 17  1  0
 17 18  1  0
 18 19  1  0
 19 20  1  0
 20 21  1  0
 21 22  2  0
 22 23  1  0
 23 24  2  0
 24 25  1  0
 25 26  2  0
 26 27  1  0
 17 28  2  0
 28 29  1  0
 29 30  1  0
 30 31  1  0
 31 32  1  0
 32 33  1  0
 33 34  2  0
 34 35  1  0
 35 36  2  0
 36 37  1  0
 37 38  2  0
 38 39  1  0
 29 40  2  0
 14 41  1  0
 41 42  1  0
 10  5  1  0
 42 11  1  0
 40 15  1  0
 27 18  1  0
 39 30  1  0
 26 21  1  0
 38 33  1  0
  4 43  1  0
  4 44  1  0
  6 45  1  0
  7 46  1  0
  8 47  1  0
  9 48  1  0
 10 49  1  0
 12 50  1  0
 12 51  1  0
 13 52  1  0
 13 53  1  0
 14 54  1  0
 19 55  1  0
 19 56  1  0
 20 57  1  0
 20 58  1  0
 22 59  1  0
 23 60  1  0
 24 61  1  0
 25 62  1  0
 27 63  1  0
 27 64  1  0
 31 65  1  0
 31 66  1  0
 32 67  1  0
 32 68  1  0
 34 69  1  0
 35 70  1  0
 36 71  1  0
 37 72  1  0
 39 73  1  0
 39 74  1  0
 41 75  1  0
 41 76  1  0
 42 77  1  0
 42 78  1  0
M  END
>  <smiles>  (28) 
O=S(=O)(Cc1ccccc1)N1CCC(c2nc(N3CCc4ccccc4C3)nc(N3CCc4ccccc4C3)n2)CC1

>  <score_type>  (28) 
oracle

>  <origin>  (28) 
autodockgpu

>  <m_score__min__energy>  (28) 
-12.01

>  <m_primary>  (28) 
energy

>  <rmsd>  (28) 
11.16765910652656

>  <m_score__min__rmsd>  (28) 
11.16765910652656

>  <meeko>  (28) 
{"free_energy": -11.08, "intermolecular_energy": -12.87, "internal_energy": -1.85, "cluster_size": 32, "cluster_id": 1, "rank_in_cluster": 25}

>  <energy>  (28) 
-11.01

>  <cluster_rmsd>  (28) 
1.21

>  <cluster>  (28) 
1

$$$$

     RDKit          3D

 78 84  0  0  0  0  0  0  0  0999 V2000
  137.8270   80.7120  221.8070 O   0  0  0  0  0  0  0  0  0  0  0  0
  137.8660   79.4950  222.7200 S   0  0  0  0  0  0  0  0  0  0  0  0
  136.4800   79.3080  223.3100 O   0  0  0  0  0  0  0  0  0  0  0  0
  138.9410   79.8750  224.0550 C   0  0  0  0  0  0  0  0  0  0  0  0
  140.3250   80.0530  223.5900 C   0  0  0  0  0  0  0  0  0  0  0  0
  141.2140   79.0150  223.8410 C   0  0  0  0  0  0  0  0  0  0  0  0
  142.5550   79.0990  223.4780 C   0  0  0  0  0  0  0  0  0  0  0  0
  143.0400   80.2340  222.8510 C   0  0  0  0  0  0  0  0  0  0  0  0
  142.1550   81.2590  222.6060 C   0  0  0  0  0  0  0  0  0  0  0  0
  140.8280   81.1600  222.9720 C   0  0  0  0  0  0  0  0  0  0  0  0
  138.3130   78.1090  221.9030 N   0  0  0  0  0  0  0  0  0  0  0  0
  139.5510   77.9960  221.2740 C   0  0  0  0  0  0  0  0  0  0  0  0
  140.2820   76.6890  221.5670 C   0  0  0  0  0  0  0  0  0  0  0  0
  139.3250   75.5350  221.3710 C   0  0  0  0  0  0  0  0  0  0  0  0
  139.9820   74.2490  221.6190 C   0  0  0  0  0  0  0  0  0  0  0  0
  139.6630   73.4250  222.6530 N   0  0  0  0  0  0  0  0  0  0  0  0
  140.2820   72.2580  222.8540 C   0  0  0  0  0  0  0  0  0  0  0  0
  139.8660   71.4770  223.9650 N   0  0  0  0  0  0  0  0  0  0  0  0
  138.7430   70.5880  223.8050 C   0  0  0  0  0  0  0  0  0  0  0  0
  139.2700   69.1590  223.9820 C   0  0  0  0  0  0  0  0  0  0  0  0
  139.9070   69.1050  225.3230 C   0  0  0  0  0  0  0  0  0  0  0  0
  139.9010   67.8810  225.9670 C   0  0  0  0  0  0  0  0  0  0  0  0
  140.4780   67.7610  227.2190 C   0  0  0  0  0  0  0  0  0  0  0  0
  141.0530   68.8680  227.8070 C   0  0  0  0  0  0  0  0  0  0  0  0
  141.0700   70.1090  227.1770 C   0  0  0  0  0  0  0  0  0  0  0  0
  140.4880   70.1970  225.9310 C   0  0  0  0  0  0  0  0  0  0  0  0
  140.5080   71.5220  225.2620 C   0  0  0  0  0  0  0  0  0  0  0  0
  141.2510   71.8850  222.0030 N   0  0  0  0  0  0  0  0  0  0  0  0
  141.6210   72.6570  220.9510 C   0  0  0  0  0  0  0  0  0  0  0  0
  142.6480   72.2720  220.0440 N   0  0  0  0  0  0  0  0  0  0  0  0
  143.8510   73.0730  220.0090 C   0  0  0  0  0  0  0  0  0  0  0  0
  145.0220   72.4070  219.3680 C   0  0  0  0  0  0  0  0  0  0  0  0
  144.8880   70.9320  219.3150 C   0  0  0  0  0  0  0  0  0  0  0  0
  146.0210   70.1440  219.3400 C   0  0  0  0  0  0  0  0  0  0  0  0
  145.9200   68.7500  219.2910 C   0  0  0  0  0  0  0  0  0  0  0  0
  144.6870   68.1300  219.2170 C   0  0  0  0  0  0  0  0  0  0  0  0
  143.5360   68.9190  219.1910 C   0  0  0  0  0  0  0  0  0  0  0  0
  143.6720   70.2920  219.2410 C   0  0  0  0  0  0  0  0  0  0  0  0
  142.4540   71.1230  219.2120 C   0  0  0  0  0  0  0  0  0  0  0  0
  140.9620   73.8190  220.8020 N   0  0  0  0  0  0  0  0  0  0  0  0
  138.1850   75.7300  222.3440 C   0  0  0  0  0  0  0  0  0  0  0  0
  137.4600   76.9800  221.9740 C   0  0  0  0  0  0  0  0  0  0  0  0
  138.6016   80.8045  224.5354 H   0  0  0  0  0  0  0  0  0  0  0  0
  138.9185   79.0385  224.7690 H   0  0  0  0  0  0  0  0  0  0  0  0
  140.8490   78.1045  224.3388 H   0  0  0  0  0  0  0  0  0  0  0  0
  143.2330   78.2592  223.6904 H   0  0  0  0  0  0  0  0  0  0  0  0
  144.0974   80.3139  222.5584 H   0  0  0  0  0  0  0  0  0  0  0  0
  142.5117   82.1735  222.1096 H   0  0  0  0  0  0  0  0  0  0  0  0
  140.1534   82.0021  222.7581 H   0  0  0  0  0  0  0  0  0  0  0  0
  139.3943   78.0681  220.1876 H   0  0  0  0  0  0  0  0  0  0  0  0
  140.1816   78.8070  221.6672 H   0  0  0  0  0  0  0  0  0  0  0  0
  141.1348   76.5815  220.8806 H   0  0  0  0  0  0  0  0  0  0  0  0
  140.6510   76.6938  222.6033 H   0  0  0  0  0  0  0  0  0  0  0  0
  138.9645   75.5189  220.3319 H   0  0  0  0  0  0  0  0  0  0  0  0
  137.9786   70.8051  224.5656 H   0  0  0  0  0  0  0  0  0  0  0  0
  138.2813   70.7150  222.8147 H   0  0  0  0  0  0  0  0  0  0  0  0
  138.4404   68.4388  223.9266 H   0  0  0  0  0  0  0  0  0  0  0  0
  139.9888   68.9002  223.1905 H   0  0  0  0  0  0  0  0  0  0  0  0
  139.4393   67.0062  225.4857 H   0  0  0  0  0  0  0  0  0  0  0  0
  140.4780   66.7922  227.7401 H   0  0  0  0  0  0  0  0  0  0  0  0
  141.5111   68.7674  228.8020 H   0  0  0  0  0  0  0  0  0  0  0  0
  141.5304   70.9860  227.6554 H   0  0  0  0  0  0  0  0  0  0  0  0
  139.9800   72.2494  225.8960 H   0  0  0  0  0  0  0  0  0  0  0  0
  141.5577   71.8160  225.1149 H   0  0  0  0  0  0  0  0  0  0  0  0
  143.6329   73.9954  219.4508 H   0  0  0  0  0  0  0  0  0  0  0  0
  144.1325   73.2587  221.0560 H   0  0  0  0  0  0  0  0  0  0  0  0
  145.1235   72.7875  218.3409 H   0  0  0  0  0  0  0  0  0  0  0  0
  145.9077   72.6366  219.9786 H   0  0  0  0  0  0  0  0  0  0  0  0
  147.0124   70.6168  219.3990 H   0  0  0  0  0  0  0  0  0  0  0  0
  146.8343   68.1387  219.3116 H   0  0  0  0  0  0  0  0  0  0  0  0
  144.6140   67.0331  219.1792 H   0  0  0  0  0  0  0  0  0  0  0  0
  142.5400   68.4560  219.1318 H   0  0  0  0  0  0  0  0  0  0  0  0
  142.2534   71.4459  218.1798 H   0  0  0  0  0  0  0  0  0  0  0  0
  141.5990   70.5385  219.5826 H   0  0  0  0  0  0  0  0  0  0  0  0
  137.4986   74.8722  222.2891 H   0  0  0  0  0  0  0  0  0  0  0  0
  138.5727   75.8073  223.3705 H   0  0  0  0  0  0  0  0  0  0  0  0
  136.9873   76.8344  220.9915 H   0  0  0  0  0  0  0  0  0  0  0  0
  136.7158   77.1762  222.7599 H   0  0  0  0  0  0  0  0  0  0  0  0
  1  2  2  0
  2  3  2  0
  2  4  1  0
  4  5  1  0
  5  6  2  0
  6  7  1  0
  7  8  2  0
  8  9  1  0
  9 10  2  0
  2 11  1  0
 11 12  1  0
 12 13  1  0
 13 14  1  0
 14 15  1  0
 15 16  2  0
 16 17  1  0
 17 18  1  0
 18 19  1  0
 19 20  1  0
 20 21  1  0
 21 22  2  0
 22 23  1  0
 23 24  2  0
 24 25  1  0
 25 26  2  0
 26 27  1  0
 17 28  2  0
 28 29  1  0
 29 30  1  0
 30 31  1  0
 31 32  1  0
 32 33  1  0
 33 34  2  0
 34 35  1  0
 35 36  2  0
 36 37  1  0
 37 38  2  0
 38 39  1  0
 29 40  2  0
 14 41  1  0
 41 42  1  0
 10  5  1  0
 42 11  1  0
 40 15  1  0
 27 18  1  0
 39 30  1  0
 26 21  1  0
 38 33  1  0
  4 43  1  0
  4 44  1  0
  6 45  1  0
  7 46  1  0
  8 47  1  0
  9 48  1  0
 10 49  1  0
 12 50  1  0
 12 51  1  0
 13 52  1  0
 13 53  1  0
 14 54  1  0
 19 55  1  0
 19 56  1  0
 20 57  1  0
 20 58  1  0
 22 59  1  0
 23 60  1  0
 24 61  1  0
 25 62  1  0
 27 63  1  0
 27 64  1  0
 31 65  1  0
 31 66  1  0
 32 67  1  0
 32 68  1  0
 34 69  1  0
 35 70  1  0
 36 71  1  0
 37 72  1  0
 39 73  1  0
 39 74  1  0
 41 75  1  0
 41 76  1  0
 42 77  1  0
 42 78  1  0
M  END
>  <smiles>  (29) 
O=S(=O)(Cc1ccccc1)N1CCC(c2nc(N3CCc4ccccc4C3)nc(N3CCc4ccccc4C3)n2)CC1

>  <score_type>  (29) 
oracle

>  <origin>  (29) 
autodockgpu

>  <m_score__min__energy>  (29) 
-12.01

>  <m_primary>  (29) 
energy

>  <rmsd>  (29) 
11.339295471721861

>  <m_score__min__rmsd>  (29) 
11.339295471721861

>  <meeko>  (29) 
{"free_energy": -11.76, "intermolecular_energy": -13.55, "internal_energy": -1.91, "cluster_size": 32, "cluster_id": 1, "rank_in_cluster": 6}

>  <energy>  (29) 
-10.91

>  <cluster_rmsd>  (29) 
1.16

>  <cluster>  (29) 
1

$$$$

     RDKit          3D

 78 84  0  0  0  0  0  0  0  0999 V2000
  141.9560   79.9950  223.1980 O   0  0  0  0  0  0  0  0  0  0  0  0
  141.4300   79.9860  221.7700 S   0  0  0  0  0  0  0  0  0  0  0  0
  142.5600   80.4170  220.8540 O   0  0  0  0  0  0  0  0  0  0  0  0
  140.1860   81.2220  221.6610 C   0  0  0  0  0  0  0  0  0  0  0  0
  139.0060   80.8620  222.4610 C   0  0  0  0  0  0  0  0  0  0  0  0
  139.1530   80.8720  223.8440 C   0  0  0  0  0  0  0  0  0  0  0  0
  138.1100   80.5090  224.6910 C   0  0  0  0  0  0  0  0  0  0  0  0
  136.8870   80.1230  224.1690 C   0  0  0  0  0  0  0  0  0  0  0  0
  136.7480   80.1150  222.8000 C   0  0  0  0  0  0  0  0  0  0  0  0
  137.7920   80.4780  221.9740 C   0  0  0  0  0  0  0  0  0  0  0  0
  140.8850   78.4780  221.3100 N   0  0  0  0  0  0  0  0  0  0  0  0
  141.3690   77.8390  220.1690 C   0  0  0  0  0  0  0  0  0  0  0  0
  141.7480   76.3770  220.3880 C   0  0  0  0  0  0  0  0  0  0  0  0
  140.6220   75.6790  221.1160 C   0  0  0  0  0  0  0  0  0  0  0  0
  140.9240   74.2620  221.3340 C   0  0  0  0  0  0  0  0  0  0  0  0
  140.4060   73.5280  222.3550 N   0  0  0  0  0  0  0  0  0  0  0  0
  140.7020   72.2370  222.5280 C   0  0  0  0  0  0  0  0  0  0  0  0
  140.1010   71.5670  223.6290 N   0  0  0  0  0  0  0  0  0  0  0  0
  138.8760   70.8410  223.4120 C   0  0  0  0  0  0  0  0  0  0  0  0
  139.1780   69.3600  223.6680 C   0  0  0  0  0  0  0  0  0  0  0  0
  139.7050   69.2690  225.0540 C   0  0  0  0  0  0  0  0  0  0  0  0
  139.4780   68.0840  225.7310 C   0  0  0  0  0  0  0  0  0  0  0  0
  139.9430   67.9330  227.0260 C   0  0  0  0  0  0  0  0  0  0  0  0
  140.6300   68.9710  227.6230 C   0  0  0  0  0  0  0  0  0  0  0  0
  140.8700   70.1710  226.9600 C   0  0  0  0  0  0  0  0  0  0  0  0
  140.3940   70.2900  225.6720 C   0  0  0  0  0  0  0  0  0  0  0  0
  140.6520   71.5720  224.9670 C   0  0  0  0  0  0  0  0  0  0  0  0
  141.5390   71.6430  221.6630 N   0  0  0  0  0  0  0  0  0  0  0  0
  142.0920   72.3140  220.6220 C   0  0  0  0  0  0  0  0  0  0  0  0
  142.9810   71.6950  219.6990 N   0  0  0  0  0  0  0  0  0  0  0  0
  144.1230   72.4600  219.2480 C   0  0  0  0  0  0  0  0  0  0  0  0
  145.2100   71.6450  218.6300 C   0  0  0  0  0  0  0  0  0  0  0  0
  145.1420   70.2140  219.0070 C   0  0  0  0  0  0  0  0  0  0  0  0
  146.3020   69.4670  219.0610 C   0  0  0  0  0  0  0  0  0  0  0  0
  146.2640   68.1150  219.4120 C   0  0  0  0  0  0  0  0  0  0  0  0
  145.0670   67.4950  219.7160 C   0  0  0  0  0  0  0  0  0  0  0  0
  143.8880   68.2400  219.6650 C   0  0  0  0  0  0  0  0  0  0  0  0
  143.9630   69.5740  219.3130 C   0  0  0  0  0  0  0  0  0  0  0  0
  142.7160   70.3600  219.2590 C   0  0  0  0  0  0  0  0  0  0  0  0
  141.7560   73.6110  220.5020 N   0  0  0  0  0  0  0  0  0  0  0  0
  140.4470   76.3820  222.4440 C   0  0  0  0  0  0  0  0  0  0  0  0
  140.0080   77.7820  222.1800 C   0  0  0  0  0  0  0  0  0  0  0  0
  140.5933   82.1744  222.0312 H   0  0  0  0  0  0  0  0  0  0  0  0
  139.8782   81.3141  220.6089 H   0  0  0  0  0  0  0  0  0  0  0  0
  140.1171   81.1742  224.2790 H   0  0  0  0  0  0  0  0  0  0  0  0
  138.2580   80.5289  225.7808 H   0  0  0  0  0  0  0  0  0  0  0  0
  136.0544   79.8325  224.8266 H   0  0  0  0  0  0  0  0  0  0  0  0
  135.7876   79.8139  222.3562 H   0  0  0  0  0  0  0  0  0  0  0  0
  137.6394   80.4568  220.8848 H   0  0  0  0  0  0  0  0  0  0  0  0
  140.5909   77.8817  219.3926 H   0  0  0  0  0  0  0  0  0  0  0  0
  142.2896   78.3653  219.8767 H   0  0  0  0  0  0  0  0  0  0  0  0
  141.9161   75.8903  219.4160 H   0  0  0  0  0  0  0  0  0  0  0  0
  142.6693   76.3181  220.9861 H   0  0  0  0  0  0  0  0  0  0  0  0
  139.7015   75.7238  220.5154 H   0  0  0  0  0  0  0  0  0  0  0  0
  138.1002   71.1936  224.1076 H   0  0  0  0  0  0  0  0  0  0  0  0
  138.5068   70.9937  222.3871 H   0  0  0  0  0  0  0  0  0  0  0  0
  138.2593   68.7628  223.5710 H   0  0  0  0  0  0  0  0  0  0  0  0
  139.9054   68.9713  222.9401 H   0  0  0  0  0  0  0  0  0  0  0  0
  138.9301   67.2650  225.2421 H   0  0  0  0  0  0  0  0  0  0  0  0
  139.7669   66.9955  227.5738 H   0  0  0  0  0  0  0  0  0  0  0  0
  140.9982   68.8461  228.6520 H   0  0  0  0  0  0  0  0  0  0  0  0
  141.4181   70.9922  227.4450 H   0  0  0  0  0  0  0  0  0  0  0  0
  140.1927   72.3919  225.5386 H   0  0  0  0  0  0  0  0  0  0  0  0
  141.7408   71.7075  224.8891 H   0  0  0  0  0  0  0  0  0  0  0  0
  143.7747   73.1898  218.5023 H   0  0  0  0  0  0  0  0  0  0  0  0
  144.5561   72.9316  220.1424 H   0  0  0  0  0  0  0  0  0  0  0  0
  145.1293   71.7241  217.5358 H   0  0  0  0  0  0  0  0  0  0  0  0
  146.1686   72.0387  218.9989 H   0  0  0  0  0  0  0  0  0  0  0  0
  147.2661   69.9412  218.8252 H   0  0  0  0  0  0  0  0  0  0  0  0
  147.1991   67.5367  219.4468 H   0  0  0  0  0  0  0  0  0  0  0  0
  145.0438   66.4309  219.9939 H   0  0  0  0  0  0  0  0  0  0  0  0
  142.9193   67.7749  219.9001 H   0  0  0  0  0  0  0  0  0  0  0  0
  142.3392   70.3813  218.2258 H   0  0  0  0  0  0  0  0  0  0  0  0
  141.9605   69.8991  219.9123 H   0  0  0  0  0  0  0  0  0  0  0  0
  139.6860   75.8606  223.0431 H   0  0  0  0  0  0  0  0  0  0  0  0
  141.3960   76.3816  223.0002 H   0  0  0  0  0  0  0  0  0  0  0  0
  139.0074   77.7564  221.7237 H   0  0  0  0  0  0  0  0  0  0  0  0
  140.0042   78.3149  223.1423 H   0  0  0  0  0  0  0  0  0  0  0  0
  1  2  2  0
  2  3  2  0
  2  4  1  0
  4  5  1  0
  5  6  2  0
  6  7  1  0
  7  8  2  0
  8  9  1  0
  9 10  2  0
  2 11  1  0
 11 12  1  0
 12 13  1  0
 13 14  1  0
 14 15  1  0
 15 16  2  0
 16 17  1  0
 17 18  1  0
 18 19  1  0
 19 20  1  0
 20 21  1  0
 21 22  2  0
 22 23  1  0
 23 24  2  0
 24 25  1  0
 25 26  2  0
 26 27  1  0
 17 28  2  0
 28 29  1  0
 29 30  1  0
 30 31  1  0
 31 32  1  0
 32 33  1  0
 33 34  2  0
 34 35  1  0
 35 36  2  0
 36 37  1  0
 37 38  2  0
 38 39  1  0
 29 40  2  0
 14 41  1  0
 41 42  1  0
 10  5  1  0
 42 11  1  0
 40 15  1  0
 27 18  1  0
 39 30  1  0
 26 21  1  0
 38 33  1  0
  4 43  1  0
  4 44  1  0
  6 45  1  0
  7 46  1  0
  8 47  1  0
  9 48  1  0
 10 49  1  0
 12 50  1  0
 12 51  1  0
 13 52  1  0
 13 53  1  0
 14 54  1  0
 19 55  1  0
 19 56  1  0
 20 57  1  0
 20 58  1  0
 22 59  1  0
 23 60  1  0
 24 61  1  0
 25 62  1  0
 27 63  1  0
 27 64  1  0
 31 65  1  0
 31 66  1  0
 32 67  1  0
 32 68  1  0
 34 69  1  0
 35 70  1  0
 36 71  1  0
 37 72  1  0
 39 73  1  0
 39 74  1  0
 41 75  1  0
 41 76  1  0
 42 77  1  0
 42 78  1  0
M  END
>  <smiles>  (30) 
O=S(=O)(Cc1ccccc1)N1CCC(c2nc(N3CCc4ccccc4C3)nc(N3CCc4ccccc4C3)n2)CC1

>  <score_type>  (30) 
oracle

>  <origin>  (30) 
autodockgpu

>  <m_score__min__energy>  (30) 
-12.01

>  <m_primary>  (30) 
energy

>  <rmsd>  (30) 
11.102728461602034

>  <m_score__min__rmsd>  (30) 
11.102728461602034

>  <meeko>  (30) 
{"free_energy": -11.15, "intermolecular_energy": -12.94, "internal_energy": -1.85, "cluster_size": 32, "cluster_id": 1, "rank_in_cluster": 19}

>  <energy>  (30) 
-10.89

>  <cluster_rmsd>  (30) 
1.26

>  <cluster>  (30) 
1

$$$$

     RDKit          3D

 78 84  0  0  0  0  0  0  0  0999 V2000
  146.4040   70.1050  217.0660 O   0  0  0  0  0  0  0  0  0  0  0  0
  145.2220   71.0490  216.9020 S   0  0  0  0  0  0  0  0  0  0  0  0
  144.6610   70.8570  215.5050 O   0  0  0  0  0  0  0  0  0  0  0  0
  145.8470   72.6890  216.9780 C   0  0  0  0  0  0  0  0  0  0  0  0
  145.3720   73.3840  218.1840 C   0  0  0  0  0  0  0  0  0  0  0  0
  144.2390   74.1780  218.0510 C   0  0  0  0  0  0  0  0  0  0  0  0
  143.7310   74.9090  219.1200 C   0  0  0  0  0  0  0  0  0  0  0  0
  144.3510   74.8620  220.3570 C   0  0  0  0  0  0  0  0  0  0  0  0
  145.4720   74.0740  220.4830 C   0  0  0  0  0  0  0  0  0  0  0  0
  145.9640   73.3550  219.4120 C   0  0  0  0  0  0  0  0  0  0  0  0
  144.0240   70.7610  218.0270 N   0  0  0  0  0  0  0  0  0  0  0  0
  144.3200   70.3370  219.3210 C   0  0  0  0  0  0  0  0  0  0  0  0
  143.5750   71.1020  220.4120 C   0  0  0  0  0  0  0  0  0  0  0  0
  142.1090   71.1730  220.0510 C   0  0  0  0  0  0  0  0  0  0  0  0
  141.3400   71.8800  221.0790 C   0  0  0  0  0  0  0  0  0  0  0  0
  140.9230   71.3050  222.2390 N   0  0  0  0  0  0  0  0  0  0  0  0
  140.2220   71.9770  223.1570 C   0  0  0  0  0  0  0  0  0  0  0  0
  139.8400   71.2770  224.3330 N   0  0  0  0  0  0  0  0  0  0  0  0
  138.8290   70.2550  224.2320 C   0  0  0  0  0  0  0  0  0  0  0  0
  139.4980   68.9220  224.5850 C   0  0  0  0  0  0  0  0  0  0  0  0
  140.0710   69.0830  225.9460 C   0  0  0  0  0  0  0  0  0  0  0  0
  140.1670   67.9410  226.7210 C   0  0  0  0  0  0  0  0  0  0  0  0
  140.6920   68.0210  227.9990 C   0  0  0  0  0  0  0  0  0  0  0  0
  141.1150   69.2430  228.4820 C   0  0  0  0  0  0  0  0  0  0  0  0
  141.0280   70.4040  227.7180 C   0  0  0  0  0  0  0  0  0  0  0  0
  140.5010   70.2920  226.4500 C   0  0  0  0  0  0  0  0  0  0  0  0
  140.4100   71.5320  225.6380 C   0  0  0  0  0  0  0  0  0  0  0  0
  139.9200   73.2650  222.9260 N   0  0  0  0  0  0  0  0  0  0  0  0
  140.3030   73.9010  221.7910 C   0  0  0  0  0  0  0  0  0  0  0  0
  139.9880   75.2650  221.5360 N   0  0  0  0  0  0  0  0  0  0  0  0
  138.6090   75.5960  221.2520 C   0  0  0  0  0  0  0  0  0  0  0  0
  138.2750   77.0430  221.4010 C   0  0  0  0  0  0  0  0  0  0  0  0
  139.2510   77.7760  222.2410 C   0  0  0  0  0  0  0  0  0  0  0  0
  138.8370   78.8740  222.9670 C   0  0  0  0  0  0  0  0  0  0  0  0
  139.7390   79.5830  223.7660 C   0  0  0  0  0  0  0  0  0  0  0  0
  141.0640   79.2000  223.8490 C   0  0  0  0  0  0  0  0  0  0  0  0
  141.4940   78.0910  223.1190 C   0  0  0  0  0  0  0  0  0  0  0  0
  140.5750   77.4150  222.3400 C   0  0  0  0  0  0  0  0  0  0  0  0
  141.0320   76.2440  221.5690 C   0  0  0  0  0  0  0  0  0  0  0  0
  141.0060   73.1720  220.9060 N   0  0  0  0  0  0  0  0  0  0  0  0
  142.0090   71.9060  218.7330 C   0  0  0  0  0  0  0  0  0  0  0  0
  142.6870   71.0870  217.6870 C   0  0  0  0  0  0  0  0  0  0  0  0
  146.9463   72.6536  216.9938 H   0  0  0  0  0  0  0  0  0  0  0  0
  145.4892   73.2393  216.0953 H   0  0  0  0  0  0  0  0  0  0  0  0
  143.7315   74.2296  217.0764 H   0  0  0  0  0  0  0  0  0  0  0  0
  142.8320   75.5276  218.9817 H   0  0  0  0  0  0  0  0  0  0  0  0
  143.9605   75.4355  221.2106 H   0  0  0  0  0  0  0  0  0  0  0  0
  145.9852   74.0159  221.4542 H   0  0  0  0  0  0  0  0  0  0  0  0
  146.8636   72.7382  219.5541 H   0  0  0  0  0  0  0  0  0  0  0  0
  144.0571   69.2721  219.4045 H   0  0  0  0  0  0  0  0  0  0  0  0
  145.3927   70.5228  219.4787 H   0  0  0  0  0  0  0  0  0  0  0  0
  143.6930   70.5811  221.3736 H   0  0  0  0  0  0  0  0  0  0  0  0
  143.9856   72.1188  220.4989 H   0  0  0  0  0  0  0  0  0  0  0  0
  141.6911   70.1583  219.9758 H   0  0  0  0  0  0  0  0  0  0  0  0
  138.0098   70.4639  224.9357 H   0  0  0  0  0  0  0  0  0  0  0  0
  138.4047   70.2233  223.2176 H   0  0  0  0  0  0  0  0  0  0  0  0
  138.7549   68.1110  224.5794 H   0  0  0  0  0  0  0  0  0  0  0  0
  140.2781   68.6633  223.8538 H   0  0  0  0  0  0  0  0  0  0  0  0
  139.8275   66.9734  226.3230 H   0  0  0  0  0  0  0  0  0  0  0  0
  140.7715   67.1193  228.6240 H   0  0  0  0  0  0  0  0  0  0  0  0
  141.5322   69.3013  229.4981 H   0  0  0  0  0  0  0  0  0  0  0  0
  141.3671   71.3735  228.1119 H   0  0  0  0  0  0  0  0  0  0  0  0
  139.7768   72.2591  226.1676 H   0  0  0  0  0  0  0  0  0  0  0  0
  141.4278   71.9245  225.4966 H   0  0  0  0  0  0  0  0  0  0  0  0
  138.3909   75.2983  220.2158 H   0  0  0  0  0  0  0  0  0  0  0  0
  137.9997   75.0571  221.9925 H   0  0  0  0  0  0  0  0  0  0  0  0
  138.2557   77.5035  220.4022 H   0  0  0  0  0  0  0  0  0  0  0  0
  137.2966   77.1065  221.8997 H   0  0  0  0  0  0  0  0  0  0  0  0
  137.7861   79.1949  222.9166 H   0  0  0  0  0  0  0  0  0  0  0  0
  139.3895   80.4567  224.3357 H   0  0  0  0  0  0  0  0  0  0  0  0
  141.7689   79.7605  224.4806 H   0  0  0  0  0  0  0  0  0  0  0  0
  142.5427   77.7621  223.1630 H   0  0  0  0  0  0  0  0  0  0  0  0
  141.2791   76.5530  220.5426 H   0  0  0  0  0  0  0  0  0  0  0  0
  141.9261   75.8146  222.0446 H   0  0  0  0  0  0  0  0  0  0  0  0
  140.9514   72.0481  218.4661 H   0  0  0  0  0  0  0  0  0  0  0  0
  142.4895   72.8924  218.8114 H   0  0  0  0  0  0  0  0  0  0  0  0
  142.1214   70.1535  217.5499 H   0  0  0  0  0  0  0  0  0  0  0  0
  142.7159   71.6853  216.7644 H   0  0  0  0  0  0  0  0  0  0  0  0
  1  2  2  0
  2  3  2  0
  2  4  1  0
  4  5  1  0
  5  6  2  0
  6  7  1  0
  7  8  2  0
  8  9  1  0
  9 10  2  0
  2 11  1  0
 11 12  1  0
 12 13  1  0
 13 14  1  0
 14 15  1  0
 15 16  2  0
 16 17  1  0
 17 18  1  0
 18 19  1  0
 19 20  1  0
 20 21  1  0
 21 22  2  0
 22 23  1  0
 23 24  2  0
 24 25  1  0
 25 26  2  0
 26 27  1  0
 17 28  2  0
 28 29  1  0
 29 30  1  0
 30 31  1  0
 31 32  1  0
 32 33  1  0
 33 34  2  0
 34 35  1  0
 35 36  2  0
 36 37  1  0
 37 38  2  0
 38 39  1  0
 29 40  2  0
 14 41  1  0
 41 42  1  0
 10  5  1  0
 42 11  1  0
 40 15  1  0
 27 18  1  0
 39 30  1  0
 26 21  1  0
 38 33  1  0
  4 43  1  0
  4 44  1  0
  6 45  1  0
  7 46  1  0
  8 47  1  0
  9 48  1  0
 10 49  1  0
 12 50  1  0
 12 51  1  0
 13 52  1  0
 13 53  1  0
 14 54  1  0
 19 55  1  0
 19 56  1  0
 20 57  1  0
 20 58  1  0
 22 59  1  0
 23 60  1  0
 24 61  1  0
 25 62  1  0
 27 63  1  0
 27 64  1  0
 31 65  1  0
 31 66  1  0
 32 67  1  0
 32 68  1  0
 34 69  1  0
 35 70  1  0
 36 71  1  0
 37 72  1  0
 39 73  1  0
 39 74  1  0
 41 75  1  0
 41 76  1  0
 42 77  1  0
 42 78  1  0
M  END
>  <smiles>  (31) 
O=S(=O)(Cc1ccccc1)N1CCC(c2nc(N3CCc4ccccc4C3)nc(N3CCc4ccccc4C3)n2)CC1

>  <score_type>  (31) 
oracle

>  <origin>  (31) 
autodockgpu

>  <m_score__min__energy>  (31) 
-12.01

>  <m_primary>  (31) 
energy

>  <rmsd>  (31) 
11.60698900550963

>  <m_score__min__rmsd>  (31) 
11.60698900550963

>  <meeko>  (31) 
{"free_energy": -10.32, "intermolecular_energy": -12.1, "internal_energy": -2.78, "cluster_size": 8, "cluster_id": 2, "rank_in_cluster": 7}

>  <energy>  (31) 
-10.88

>  <cluster_rmsd>  (31) 
1.44

>  <cluster>  (31) 
1

$$$$

     RDKit          3D

 78 84  0  0  0  0  0  0  0  0999 V2000
  138.7560   80.7980  221.2120 O   0  0  0  0  0  0  0  0  0  0  0  0
  138.2000   79.7850  222.2020 S   0  0  0  0  0  0  0  0  0  0  0  0
  136.7440   80.1330  222.4580 O   0  0  0  0  0  0  0  0  0  0  0  0
  139.0520   80.0130  223.7210 C   0  0  0  0  0  0  0  0  0  0  0  0
  140.5090   79.9970  223.5210 C   0  0  0  0  0  0  0  0  0  0  0  0
  141.2030   81.1610  223.8340 C   0  0  0  0  0  0  0  0  0  0  0  0
  142.5770   81.2630  223.6440 C   0  0  0  0  0  0  0  0  0  0  0  0
  143.2950   80.1960  223.1320 C   0  0  0  0  0  0  0  0  0  0  0  0
  142.6020   79.0470  222.8250 C   0  0  0  0  0  0  0  0  0  0  0  0
  141.2390   78.9610  223.0190 C   0  0  0  0  0  0  0  0  0  0  0  0
  138.3060   78.2210  221.6290 N   0  0  0  0  0  0  0  0  0  0  0  0
  139.1590   77.8790  220.5820 C   0  0  0  0  0  0  0  0  0  0  0  0
  139.9920   76.6270  220.8410 C   0  0  0  0  0  0  0  0  0  0  0  0
  139.0860   75.5290  221.3490 C   0  0  0  0  0  0  0  0  0  0  0  0
  139.8320   74.2920  221.5950 C   0  0  0  0  0  0  0  0  0  0  0  0
  139.5570   73.4340  222.6140 N   0  0  0  0  0  0  0  0  0  0  0  0
  140.2580   72.3130  222.8130 C   0  0  0  0  0  0  0  0  0  0  0  0
  139.8820   71.4900  223.9090 N   0  0  0  0  0  0  0  0  0  0  0  0
  138.6370   70.7690  223.8370 C   0  0  0  0  0  0  0  0  0  0  0  0
  138.9810   69.2750  223.8300 C   0  0  0  0  0  0  0  0  0  0  0  0
  139.7680   69.0150  225.0630 C   0  0  0  0  0  0  0  0  0  0  0  0
  139.6760   67.7470  225.6060 C   0  0  0  0  0  0  0  0  0  0  0  0
  140.3840   67.4380  226.7540 C   0  0  0  0  0  0  0  0  0  0  0  0
  141.1760   68.4040  227.3400 C   0  0  0  0  0  0  0  0  0  0  0  0
  141.2830   69.6870  226.8100 C   0  0  0  0  0  0  0  0  0  0  0  0
  140.5660   69.9630  225.6670 C   0  0  0  0  0  0  0  0  0  0  0  0
  140.6830   71.3320  225.1040 C   0  0  0  0  0  0  0  0  0  0  0  0
  141.2660   72.0240  221.9760 N   0  0  0  0  0  0  0  0  0  0  0  0
  141.5960   72.8330  220.9380 C   0  0  0  0  0  0  0  0  0  0  0  0
  142.6630   72.5360  220.0450 N   0  0  0  0  0  0  0  0  0  0  0  0
  143.8310   73.3890  220.0850 C   0  0  0  0  0  0  0  0  0  0  0  0
  145.0470   72.8050  219.4480 C   0  0  0  0  0  0  0  0  0  0  0  0
  144.9790   71.3300  219.3220 C   0  0  0  0  0  0  0  0  0  0  0  0
  146.1440   70.5890  219.3430 C   0  0  0  0  0  0  0  0  0  0  0  0
  146.1050   69.1970  219.2250 C   0  0  0  0  0  0  0  0  0  0  0  0
  144.9030   68.5300  219.0860 C   0  0  0  0  0  0  0  0  0  0  0  0
  143.7200   69.2690  219.0620 C   0  0  0  0  0  0  0  0  0  0  0  0
  143.7950   70.6430  219.1810 C   0  0  0  0  0  0  0  0  0  0  0  0
  142.5430   71.4220  219.1550 C   0  0  0  0  0  0  0  0  0  0  0  0
  140.8540   73.9460  220.7910 N   0  0  0  0  0  0  0  0  0  0  0  0
  138.4650   76.0230  222.6360 C   0  0  0  0  0  0  0  0  0  0  0  0
  137.6060   77.2010  222.3220 C   0  0  0  0  0  0  0  0  0  0  0  0
  138.7599   80.9809  224.1545 H   0  0  0  0  0  0  0  0  0  0  0  0
  138.7842   79.1883  224.3979 H   0  0  0  0  0  0  0  0  0  0  0  0
  140.6520   82.0214  224.2415 H   0  0  0  0  0  0  0  0  0  0  0  0
  143.0965   82.1976  223.9022 H   0  0  0  0  0  0  0  0  0  0  0  0
  144.3817   80.2640  222.9759 H   0  0  0  0  0  0  0  0  0  0  0  0
  143.1451   78.1815  222.4175 H   0  0  0  0  0  0  0  0  0  0  0  0
  140.7236   78.0244  222.7598 H   0  0  0  0  0  0  0  0  0  0  0  0
  138.5501   77.7088  219.6818 H   0  0  0  0  0  0  0  0  0  0  0  0
  139.8671   78.7125  220.4644 H   0  0  0  0  0  0  0  0  0  0  0  0
  140.4736   76.3046  219.9061 H   0  0  0  0  0  0  0  0  0  0  0  0
  140.7674   76.8451  221.5902 H   0  0  0  0  0  0  0  0  0  0  0  0
  138.3173   75.2988  220.5966 H   0  0  0  0  0  0  0  0  0  0  0  0
  138.0115   71.0081  224.7097 H   0  0  0  0  0  0  0  0  0  0  0  0
  138.0760   71.0458  222.9322 H   0  0  0  0  0  0  0  0  0  0  0  0
  138.0601   68.6734  223.8336 H   0  0  0  0  0  0  0  0  0  0  0  0
  139.5524   69.0036  222.9300 H   0  0  0  0  0  0  0  0  0  0  0  0
  139.0421   66.9863  225.1271 H   0  0  0  0  0  0  0  0  0  0  0  0
  140.3161   66.4325  227.1949 H   0  0  0  0  0  0  0  0  0  0  0  0
  141.7386   68.1534  228.2514 H   0  0  0  0  0  0  0  0  0  0  0  0
  141.9158   70.4507  227.2858 H   0  0  0  0  0  0  0  0  0  0  0  0
  140.3448   72.0577  225.8583 H   0  0  0  0  0  0  0  0  0  0  0  0
  141.7360   71.5035  224.8360 H   0  0  0  0  0  0  0  0  0  0  0  0
  143.5885   74.3278  219.5655 H   0  0  0  0  0  0  0  0  0  0  0  0
  144.0747   73.5352  221.1477 H   0  0  0  0  0  0  0  0  0  0  0  0
  145.1596   73.2384  218.4433 H   0  0  0  0  0  0  0  0  0  0  0  0
  145.9049   73.0423  220.0942 H   0  0  0  0  0  0  0  0  0  0  0  0
  147.1122   71.0993  219.4537 H   0  0  0  0  0  0  0  0  0  0  0  0
  147.0441   68.6245  219.2430 H   0  0  0  0  0  0  0  0  0  0  0  0
  144.8792   67.4340  218.9957 H   0  0  0  0  0  0  0  0  0  0  0  0
  142.7473   68.7676  218.9506 H   0  0  0  0  0  0  0  0  0  0  0  0
  142.3571   71.7856  218.1336 H   0  0  0  0  0  0  0  0  0  0  0  0
  141.7046   70.7844  219.4722 H   0  0  0  0  0  0  0  0  0  0  0  0
  137.8532   75.2257  223.0833 H   0  0  0  0  0  0  0  0  0  0  0  0
  139.2515   76.3082  223.3502 H   0  0  0  0  0  0  0  0  0  0  0  0
  136.7641   76.8661  221.6982 H   0  0  0  0  0  0  0  0  0  0  0  0
  137.2621   77.6248  223.2771 H   0  0  0  0  0  0  0  0  0  0  0  0
  1  2  2  0
  2  3  2  0
  2  4  1  0
  4  5  1  0
  5  6  2  0
  6  7  1  0
  7  8  2  0
  8  9  1  0
  9 10  2  0
  2 11  1  0
 11 12  1  0
 12 13  1  0
 13 14  1  0
 14 15  1  0
 15 16  2  0
 16 17  1  0
 17 18  1  0
 18 19  1  0
 19 20  1  0
 20 21  1  0
 21 22  2  0
 22 23  1  0
 23 24  2  0
 24 25  1  0
 25 26  2  0
 26 27  1  0
 17 28  2  0
 28 29  1  0
 29 30  1  0
 30 31  1  0
 31 32  1  0
 32 33  1  0
 33 34  2  0
 34 35  1  0
 35 36  2  0
 36 37  1  0
 37 38  2  0
 38 39  1  0
 29 40  2  0
 14 41  1  0
 41 42  1  0
 10  5  1  0
 42 11  1  0
 40 15  1  0
 27 18  1  0
 39 30  1  0
 26 21  1  0
 38 33  1  0
  4 43  1  0
  4 44  1  0
  6 45  1  0
  7 46  1  0
  8 47  1  0
  9 48  1  0
 10 49  1  0
 12 50  1  0
 12 51  1  0
 13 52  1  0
 13 53  1  0
 14 54  1  0
 19 55  1  0
 19 56  1  0
 20 57  1  0
 20 58  1  0
 22 59  1  0
 23 60  1  0
 24 61  1  0
 25 62  1  0
 27 63  1  0
 27 64  1  0
 31 65  1  0
 31 66  1  0
 32 67  1  0
 32 68  1  0
 34 69  1  0
 35 70  1  0
 36 71  1  0
 37 72  1  0
 39 73  1  0
 39 74  1  0
 41 75  1  0
 41 76  1  0
 42 77  1  0
 42 78  1  0
M  END
>  <smiles>  (32) 
O=S(=O)(Cc1ccccc1)N1CCC(c2nc(N3CCc4ccccc4C3)nc(N3CCc4ccccc4C3)n2)CC1

>  <score_type>  (32) 
oracle

>  <origin>  (32) 
autodockgpu

>  <m_score__min__energy>  (32) 
-12.01

>  <m_primary>  (32) 
energy

>  <rmsd>  (32) 
11.355151330195442

>  <m_score__min__rmsd>  (32) 
11.355151330195442

>  <meeko>  (32) 
{"free_energy": -11.29, "intermolecular_energy": -13.08, "internal_energy": -1.97, "cluster_size": 32, "cluster_id": 1, "rank_in_cluster": 14}

>  <energy>  (32) 
-10.59

>  <cluster_rmsd>  (32) 
1.83

>  <cluster>  (32) 
1

$$$$

     RDKit          3D

 78 84  0  0  0  0  0  0  0  0999 V2000
  146.2950   70.0640  216.9660 O   0  0  0  0  0  0  0  0  0  0  0  0
  145.1870   71.0880  216.7660 S   0  0  0  0  0  0  0  0  0  0  0  0
  144.7020   70.9780  215.3320 O   0  0  0  0  0  0  0  0  0  0  0  0
  145.9070   72.6810  216.9390 C   0  0  0  0  0  0  0  0  0  0  0  0
  145.3540   73.3910  218.1020 C   0  0  0  0  0  0  0  0  0  0  0  0
  145.9420   73.1350  219.3360 C   0  0  0  0  0  0  0  0  0  0  0  0
  145.4700   73.7240  220.5050 C   0  0  0  0  0  0  0  0  0  0  0  0
  144.3900   74.5890  220.4660 C   0  0  0  0  0  0  0  0  0  0  0  0
  143.8120   74.8380  219.2420 C   0  0  0  0  0  0  0  0  0  0  0  0
  144.2920   74.2460  218.0910 C   0  0  0  0  0  0  0  0  0  0  0  0
  143.9060   70.8400  217.8070 N   0  0  0  0  0  0  0  0  0  0  0  0
  144.0840   70.2780  219.0700 C   0  0  0  0  0  0  0  0  0  0  0  0
  143.3690   71.0260  220.1910 C   0  0  0  0  0  0  0  0  0  0  0  0
  141.9390   71.2900  219.7730 C   0  0  0  0  0  0  0  0  0  0  0  0
  141.1970   71.9900  220.8250 C   0  0  0  0  0  0  0  0  0  0  0  0
  140.7820   71.3970  221.9770 N   0  0  0  0  0  0  0  0  0  0  0  0
  140.1040   72.0620  222.9180 C   0  0  0  0  0  0  0  0  0  0  0  0
  139.7210   71.3440  224.0830 N   0  0  0  0  0  0  0  0  0  0  0  0
  138.6370   70.3990  223.9880 C   0  0  0  0  0  0  0  0  0  0  0  0
  139.2240   69.0090  224.2610 C   0  0  0  0  0  0  0  0  0  0  0  0
  139.8620   69.0750  225.6010 C   0  0  0  0  0  0  0  0  0  0  0  0
  139.9080   67.8990  226.3280 C   0  0  0  0  0  0  0  0  0  0  0  0
  140.4890   67.8910  227.5850 C   0  0  0  0  0  0  0  0  0  0  0  0
  141.0160   69.0600  228.0930 C   0  0  0  0  0  0  0  0  0  0  0  0
  140.9810   70.2540  227.3790 C   0  0  0  0  0  0  0  0  0  0  0  0
  140.3970   70.2300  226.1310 C   0  0  0  0  0  0  0  0  0  0  0  0
  140.3610   71.5050  225.3710 C   0  0  0  0  0  0  0  0  0  0  0  0
  139.8260   73.3600  222.7190 N   0  0  0  0  0  0  0  0  0  0  0  0
  140.2090   74.0140  221.5950 C   0  0  0  0  0  0  0  0  0  0  0  0
  139.9190   75.3900  221.3740 N   0  0  0  0  0  0  0  0  0  0  0  0
  138.5480   75.7510  221.0860 C   0  0  0  0  0  0  0  0  0  0  0  0
  138.2360   77.1980  221.2710 C   0  0  0  0  0  0  0  0  0  0  0  0
  139.2150   77.8920  222.1400 C   0  0  0  0  0  0  0  0  0  0  0  0
  138.8110   78.9770  222.8920 C   0  0  0  0  0  0  0  0  0  0  0  0
  139.7160   79.6490  223.7190 C   0  0  0  0  0  0  0  0  0  0  0  0
  141.0340   79.2430  223.8040 C   0  0  0  0  0  0  0  0  0  0  0  0
  141.4540   78.1460  223.0490 C   0  0  0  0  0  0  0  0  0  0  0  0
  140.5330   77.5070  222.2420 C   0  0  0  0  0  0  0  0  0  0  0  0
  140.9780   76.3500  221.4440 C   0  0  0  0  0  0  0  0  0  0  0  0
  140.8870   73.2910  220.6860 N   0  0  0  0  0  0  0  0  0  0  0  0
  141.9900   72.1390  218.5230 C   0  0  0  0  0  0  0  0  0  0  0  0
  142.6310   71.3420  217.4390 C   0  0  0  0  0  0  0  0  0  0  0  0
  146.9938   72.5714  217.0690 H   0  0  0  0  0  0  0  0  0  0  0  0
  145.6815   73.2652  216.0347 H   0  0  0  0  0  0  0  0  0  0  0  0
  146.8012   72.4502  219.3892 H   0  0  0  0  0  0  0  0  0  0  0  0
  145.9578   73.5010  221.4654 H   0  0  0  0  0  0  0  0  0  0  0  0
  144.0066   75.0615  221.3824 H   0  0  0  0  0  0  0  0  0  0  0  0
  142.9520   75.5211  219.1798 H   0  0  0  0  0  0  0  0  0  0  0  0
  143.8012   74.4717  217.1328 H   0  0  0  0  0  0  0  0  0  0  0  0
  143.7035   69.2462  219.0457 H   0  0  0  0  0  0  0  0  0  0  0  0
  145.1604   70.3288  219.2910 H   0  0  0  0  0  0  0  0  0  0  0  0
  143.3791   70.4160  221.1063 H   0  0  0  0  0  0  0  0  0  0  0  0
  143.8810   71.9796  220.3871 H   0  0  0  0  0  0  0  0  0  0  0  0
  141.4190   70.3383  219.5888 H   0  0  0  0  0  0  0  0  0  0  0  0
  137.8642   70.6353  224.7343 H   0  0  0  0  0  0  0  0  0  0  0  0
  138.1704   70.4379  222.9926 H   0  0  0  0  0  0  0  0  0  0  0  0
  138.4257   68.2522  224.2573 H   0  0  0  0  0  0  0  0  0  0  0  0
  139.9531   68.7267  223.4873 H   0  0  0  0  0  0  0  0  0  0  0  0
  139.4848   66.9740  225.9093 H   0  0  0  0  0  0  0  0  0  0  0  0
  140.5298   66.9618  228.1723 H   0  0  0  0  0  0  0  0  0  0  0  0
  141.4774   69.0482  229.0915 H   0  0  0  0  0  0  0  0  0  0  0  0
  141.4031   71.1809  227.7946 H   0  0  0  0  0  0  0  0  0  0  0  0
  139.8035   72.2521  225.9549 H   0  0  0  0  0  0  0  0  0  0  0  0
  141.3976   71.8309  225.1998 H   0  0  0  0  0  0  0  0  0  0  0  0
  138.3354   75.4850  220.0400 H   0  0  0  0  0  0  0  0  0  0  0  0
  137.9228   75.2023  221.8058 H   0  0  0  0  0  0  0  0  0  0  0  0
  138.2343   77.6856  220.2850 H   0  0  0  0  0  0  0  0  0  0  0  0
  137.2538   77.2639  221.7618 H   0  0  0  0  0  0  0  0  0  0  0  0
  137.7660   79.3164  222.8399 H   0  0  0  0  0  0  0  0  0  0  0  0
  139.3745   80.5119  224.3095 H   0  0  0  0  0  0  0  0  0  0  0  0
  141.7415   79.7757  224.4564 H   0  0  0  0  0  0  0  0  0  0  0  0
  142.4965   77.7980  223.0959 H   0  0  0  0  0  0  0  0  0  0  0  0
  141.2405   76.6826  220.4289 H   0  0  0  0  0  0  0  0  0  0  0  0
  141.8599   75.8929  221.9166 H   0  0  0  0  0  0  0  0  0  0  0  0
  140.9698   72.4208  218.2234 H   0  0  0  0  0  0  0  0  0  0  0  0
  142.5691   73.0550  218.7116 H   0  0  0  0  0  0  0  0  0  0  0  0
  141.9765   70.4929  217.1929 H   0  0  0  0  0  0  0  0  0  0  0  0
  142.7740   72.0099  216.5767 H   0  0  0  0  0  0  0  0  0  0  0  0
  1  2  2  0
  2  3  2  0
  2  4  1  0
  4  5  1  0
  5  6  2  0
  6  7  1  0
  7  8  2  0
  8  9  1  0
  9 10  2  0
  2 11  1  0
 11 12  1  0
 12 13  1  0
 13 14  1  0
 14 15  1  0
 15 16  2  0
 16 17  1  0
 17 18  1  0
 18 19  1  0
 19 20  1  0
 20 21  1  0
 21 22  2  0
 22 23  1  0
 23 24  2  0
 24 25  1  0
 25 26  2  0
 26 27  1  0
 17 28  2  0
 28 29  1  0
 29 30  1  0
 30 31  1  0
 31 32  1  0
 32 33  1  0
 33 34  2  0
 34 35  1  0
 35 36  2  0
 36 37  1  0
 37 38  2  0
 38 39  1  0
 29 40  2  0
 14 41  1  0
 41 42  1  0
 10  5  1  0
 42 11  1  0
 40 15  1  0
 27 18  1  0
 39 30  1  0
 26 21  1  0
 38 33  1  0
  4 43  1  0
  4 44  1  0
  6 45  1  0
  7 46  1  0
  8 47  1  0
  9 48  1  0
 10 49  1  0
 12 50  1  0
 12 51  1  0
 13 52  1  0
 13 53  1  0
 14 54  1  0
 19 55  1  0
 19 56  1  0
 20 57  1  0
 20 58  1  0
 22 59  1  0
 23 60  1  0
 24 61  1  0
 25 62  1  0
 27 63  1  0
 27 64  1  0
 31 65  1  0
 31 66  1  0
 32 67  1  0
 32 68  1  0
 34 69  1  0
 35 70  1  0
 36 71  1  0
 37 72  1  0
 39 73  1  0
 39 74  1  0
 41 75  1  0
 41 76  1  0
 42 77  1  0
 42 78  1  0
M  END
>  <smiles>  (33) 
O=S(=O)(Cc1ccccc1)N1CCC(c2nc(N3CCc4ccccc4C3)nc(N3CCc4ccccc4C3)n2)CC1

>  <score_type>  (33) 
oracle

>  <origin>  (33) 
autodockgpu

>  <m_score__min__energy>  (33) 
-12.01

>  <m_primary>  (33) 
energy

>  <rmsd>  (33) 
11.461101178832743

>  <m_score__min__rmsd>  (33) 
11.461101178832743

>  <meeko>  (33) 
{"free_energy": -10.38, "intermolecular_energy": -12.17, "internal_energy": -2.74, "cluster_size": 8, "cluster_id": 2, "rank_in_cluster": 6}

>  <energy>  (33) 
-11.76

>  <cluster_rmsd>  (33) 
0.0

>  <cluster>  (33) 
2

$$$$

     RDKit          3D

 78 84  0  0  0  0  0  0  0  0999 V2000
  137.9590   80.7330  221.8400 O   0  0  0  0  0  0  0  0  0  0  0  0
  137.9230   79.5030  222.7350 S   0  0  0  0  0  0  0  0  0  0  0  0
  136.5070   79.3490  223.2610 O   0  0  0  0  0  0  0  0  0  0  0  0
  138.9480   79.8340  224.1220 C   0  0  0  0  0  0  0  0  0  0  0  0
  140.3520   80.0020  223.7180 C   0  0  0  0  0  0  0  0  0  0  0  0
  140.6960   81.2040  223.1120 C   0  0  0  0  0  0  0  0  0  0  0  0
  141.9880   81.4480  222.6570 C   0  0  0  0  0  0  0  0  0  0  0  0
  142.9730   80.4860  222.7980 C   0  0  0  0  0  0  0  0  0  0  0  0
  142.6270   79.2980  223.3980 C   0  0  0  0  0  0  0  0  0  0  0  0
  141.3410   79.0710  223.8460 C   0  0  0  0  0  0  0  0  0  0  0  0
  138.3660   78.1170  221.9180 N   0  0  0  0  0  0  0  0  0  0  0  0
  139.6040   78.0010  221.2880 C   0  0  0  0  0  0  0  0  0  0  0  0
  140.3310   76.6910  221.5810 C   0  0  0  0  0  0  0  0  0  0  0  0
  139.3710   75.5400  221.3850 C   0  0  0  0  0  0  0  0  0  0  0  0
  140.0250   74.2520  221.6320 C   0  0  0  0  0  0  0  0  0  0  0  0
  139.7060   73.4310  222.6690 N   0  0  0  0  0  0  0  0  0  0  0  0
  140.3220   72.2620  222.8690 C   0  0  0  0  0  0  0  0  0  0  0  0
  139.9070   71.4840  223.9830 N   0  0  0  0  0  0  0  0  0  0  0  0
  138.7710   70.6100  223.8330 C   0  0  0  0  0  0  0  0  0  0  0  0
  139.2800   69.1740  224.0000 C   0  0  0  0  0  0  0  0  0  0  0  0
  139.9300   69.1070  225.3350 C   0  0  0  0  0  0  0  0  0  0  0  0
  139.9140   67.8820  225.9750 C   0  0  0  0  0  0  0  0  0  0  0  0
  140.5030   67.7510  227.2210 C   0  0  0  0  0  0  0  0  0  0  0  0
  141.0990   68.8490  227.8060 C   0  0  0  0  0  0  0  0  0  0  0  0
  141.1260   70.0910  227.1790 C   0  0  0  0  0  0  0  0  0  0  0  0
  140.5320   70.1900  225.9390 C   0  0  0  0  0  0  0  0  0  0  0  0
  140.5630   71.5160  225.2730 C   0  0  0  0  0  0  0  0  0  0  0  0
  141.2870   71.8850  222.0160 N   0  0  0  0  0  0  0  0  0  0  0  0
  141.6560   72.6530  220.9610 C   0  0  0  0  0  0  0  0  0  0  0  0
  142.6790   72.2640  220.0510 N   0  0  0  0  0  0  0  0  0  0  0  0
  143.8760   73.0730  219.9970 C   0  0  0  0  0  0  0  0  0  0  0  0
  145.0470   72.4070  219.3550 C   0  0  0  0  0  0  0  0  0  0  0  0
  144.9230   70.9310  219.3230 C   0  0  0  0  0  0  0  0  0  0  0  0
  146.0610   70.1500  219.3490 C   0  0  0  0  0  0  0  0  0  0  0  0
  145.9700   68.7560  219.3190 C   0  0  0  0  0  0  0  0  0  0  0  0
  144.7410   68.1260  219.2620 C   0  0  0  0  0  0  0  0  0  0  0  0
  143.5830   68.9060  219.2350 C   0  0  0  0  0  0  0  0  0  0  0  0
  143.7110   70.2810  219.2660 C   0  0  0  0  0  0  0  0  0  0  0  0
  142.4870   71.1030  219.2370 C   0  0  0  0  0  0  0  0  0  0  0  0
  141.0000   73.8180  220.8140 N   0  0  0  0  0  0  0  0  0  0  0  0
  138.2320   75.7380  222.3590 C   0  0  0  0  0  0  0  0  0  0  0  0
  137.5100   76.9890  221.9890 C   0  0  0  0  0  0  0  0  0  0  0  0
  138.6026   80.7567  224.6113 H   0  0  0  0  0  0  0  0  0  0  0  0
  138.8843   78.9809  224.8135 H   0  0  0  0  0  0  0  0  0  0  0  0
  139.9280   81.9819  222.9889 H   0  0  0  0  0  0  0  0  0  0  0  0
  142.2280   82.4109  222.1825 H   0  0  0  0  0  0  0  0  0  0  0  0
  143.9982   80.6657  222.4421 H   0  0  0  0  0  0  0  0  0  0  0  0
  143.3887   78.5143  223.5233 H   0  0  0  0  0  0  0  0  0  0  0  0
  141.1060   78.1075  224.3219 H   0  0  0  0  0  0  0  0  0  0  0  0
  139.4472   78.0738  220.2017 H   0  0  0  0  0  0  0  0  0  0  0  0
  140.2372   78.8103  221.6804 H   0  0  0  0  0  0  0  0  0  0  0  0
  141.1835   76.5810  220.8946 H   0  0  0  0  0  0  0  0  0  0  0  0
  140.6996   76.6947  222.6174 H   0  0  0  0  0  0  0  0  0  0  0  0
  139.0096   75.5251  220.3462 H   0  0  0  0  0  0  0  0  0  0  0  0
  138.0179   70.8350  224.6026 H   0  0  0  0  0  0  0  0  0  0  0  0
  138.3007   70.7459  222.8479 H   0  0  0  0  0  0  0  0  0  0  0  0
  138.4401   68.4654  223.9507 H   0  0  0  0  0  0  0  0  0  0  0  0
  139.9871   68.9080  223.2005 H   0  0  0  0  0  0  0  0  0  0  0  0
  139.4353   67.0149  225.4964 H   0  0  0  0  0  0  0  0  0  0  0  0
  140.4958   66.7809  227.7395 H   0  0  0  0  0  0  0  0  0  0  0  0
  141.5660   68.7397  228.7959 H   0  0  0  0  0  0  0  0  0  0  0  0
  141.6031   70.9605  227.6547 H   0  0  0  0  0  0  0  0  0  0  0  0
  140.0519   72.2489  225.9145 H   0  0  0  0  0  0  0  0  0  0  0  0
  141.6152   71.7953  225.1152 H   0  0  0  0  0  0  0  0  0  0  0  0
  143.6472   73.9869  219.4292 H   0  0  0  0  0  0  0  0  0  0  0  0
  144.1642   73.2737  221.0394 H   0  0  0  0  0  0  0  0  0  0  0  0
  145.1373   72.7744  218.3221 H   0  0  0  0  0  0  0  0  0  0  0  0
  145.9362   72.6512  219.9548 H   0  0  0  0  0  0  0  0  0  0  0  0
  147.0497   70.6301  219.3938 H   0  0  0  0  0  0  0  0  0  0  0  0
  146.8889   68.1517  219.3411 H   0  0  0  0  0  0  0  0  0  0  0  0
  144.6762   67.0282  219.2383 H   0  0  0  0  0  0  0  0  0  0  0  0
  142.5898   68.4353  219.1900 H   0  0  0  0  0  0  0  0  0  0  0  0
  142.2750   71.4104  218.2023 H   0  0  0  0  0  0  0  0  0  0  0  0
  141.6399   70.5173  219.6236 H   0  0  0  0  0  0  0  0  0  0  0  0
  137.5436   74.8817  222.3050 H   0  0  0  0  0  0  0  0  0  0  0  0
  138.6206   75.8147  223.3852 H   0  0  0  0  0  0  0  0  0  0  0  0
  137.0371   76.8443  221.0064 H   0  0  0  0  0  0  0  0  0  0  0  0
  136.7661   77.1868  222.7748 H   0  0  0  0  0  0  0  0  0  0  0  0
  1  2  2  0
  2  3  2  0
  2  4  1  0
  4  5  1  0
  5  6  2  0
  6  7  1  0
  7  8  2  0
  8  9  1  0
  9 10  2  0
  2 11  1  0
 11 12  1  0
 12 13  1  0
 13 14  1  0
 14 15  1  0
 15 16  2  0
 16 17  1  0
 17 18  1  0
 18 19  1  0
 19 20  1  0
 20 21  1  0
 21 22  2  0
 22 23  1  0
 23 24  2  0
 24 25  1  0
 25 26  2  0
 26 27  1  0
 17 28  2  0
 28 29  1  0
 29 30  1  0
 30 31  1  0
 31 32  1  0
 32 33  1  0
 33 34  2  0
 34 35  1  0
 35 36  2  0
 36 37  1  0
 37 38  2  0
 38 39  1  0
 29 40  2  0
 14 41  1  0
 41 42  1  0
 10  5  1  0
 42 11  1  0
 40 15  1  0
 27 18  1  0
 39 30  1  0
 26 21  1  0
 38 33  1  0
  4 43  1  0
  4 44  1  0
  6 45  1  0
  7 46  1  0
  8 47  1  0
  9 48  1  0
 10 49  1  0
 12 50  1  0
 12 51  1  0
 13 52  1  0
 13 53  1  0
 14 54  1  0
 19 55  1  0
 19 56  1  0
 20 57  1  0
 20 58  1  0
 22 59  1  0
 23 60  1  0
 24 61  1  0
 25 62  1  0
 27 63  1  0
 27 64  1  0
 31 65  1  0
 31 66  1  0
 32 67  1  0
 32 68  1  0
 34 69  1  0
 35 70  1  0
 36 71  1  0
 37 72  1  0
 39 73  1  0
 39 74  1  0
 41 75  1  0
 41 76  1  0
 42 77  1  0
 42 78  1  0
M  END
>  <smiles>  (34) 
O=S(=O)(Cc1ccccc1)N1CCC(c2nc(N3CCc4ccccc4C3)nc(N3CCc4ccccc4C3)n2)CC1

>  <score_type>  (34) 
oracle

>  <origin>  (34) 
autodockgpu

>  <m_score__min__energy>  (34) 
-12.01

>  <m_primary>  (34) 
energy

>  <rmsd>  (34) 
11.346358320168239

>  <m_score__min__rmsd>  (34) 
11.346358320168239

>  <meeko>  (34) 
{"free_energy": -11.76, "intermolecular_energy": -13.55, "internal_energy": -1.93, "cluster_size": 32, "cluster_id": 1, "rank_in_cluster": 7}

>  <energy>  (34) 
-11.28

>  <cluster_rmsd>  (34) 
1.52

>  <cluster>  (34) 
2

$$$$

     RDKit          3D

 78 84  0  0  0  0  0  0  0  0999 V2000
  141.9660   79.4290  219.1440 O   0  0  0  0  0  0  0  0  0  0  0  0
  140.5290   79.5170  219.6390 S   0  0  0  0  0  0  0  0  0  0  0  0
  139.6400   79.8040  218.4430 O   0  0  0  0  0  0  0  0  0  0  0  0
  140.4240   80.9140  220.6990 C   0  0  0  0  0  0  0  0  0  0  0  0
  141.3240   80.7750  221.8530 C   0  0  0  0  0  0  0  0  0  0  0  0
  140.8990   81.3270  223.0560 C   0  0  0  0  0  0  0  0  0  0  0  0
  141.6930   81.2850  224.1980 C   0  0  0  0  0  0  0  0  0  0  0  0
  142.9400   80.6860  224.1620 C   0  0  0  0  0  0  0  0  0  0  0  0
  143.3560   80.1420  222.9680 C   0  0  0  0  0  0  0  0  0  0  0  0
  142.5560   80.1910  221.8440 C   0  0  0  0  0  0  0  0  0  0  0  0
  140.0310   78.1050  220.3770 N   0  0  0  0  0  0  0  0  0  0  0  0
  139.2990   77.1370  219.6910 C   0  0  0  0  0  0  0  0  0  0  0  0
  139.8120   75.7140  219.8870 C   0  0  0  0  0  0  0  0  0  0  0  0
  140.0280   75.4670  221.3630 C   0  0  0  0  0  0  0  0  0  0  0  0
  140.5010   74.1020  221.6120 C   0  0  0  0  0  0  0  0  0  0  0  0
  140.0830   73.3370  222.6550 N   0  0  0  0  0  0  0  0  0  0  0  0
  140.5350   72.0950  222.8570 C   0  0  0  0  0  0  0  0  0  0  0  0
  140.0280   71.3860  223.9790 N   0  0  0  0  0  0  0  0  0  0  0  0
  138.8610   70.5580  223.8050 C   0  0  0  0  0  0  0  0  0  0  0  0
  139.2930   69.1100  224.0580 C   0  0  0  0  0  0  0  0  0  0  0  0
  139.8700   69.0720  225.4260 C   0  0  0  0  0  0  0  0  0  0  0  0
  139.7650   67.8780  226.1150 C   0  0  0  0  0  0  0  0  0  0  0  0
  140.2820   67.7750  227.3950 C   0  0  0  0  0  0  0  0  0  0  0  0
  140.8990   68.8700  227.9650 C   0  0  0  0  0  0  0  0  0  0  0  0
  141.0160   70.0810  227.2890 C   0  0  0  0  0  0  0  0  0  0  0  0
  140.4920   70.1520  226.0170 C   0  0  0  0  0  0  0  0  0  0  0  0
  140.6190   71.4460  225.2980 C   0  0  0  0  0  0  0  0  0  0  0  0
  141.4320   71.5860  221.9970 N   0  0  0  0  0  0  0  0  0  0  0  0
  141.8930   72.2930  220.9360 C   0  0  0  0  0  0  0  0  0  0  0  0
  142.8440   71.7630  220.0190 N   0  0  0  0  0  0  0  0  0  0  0  0
  144.1090   72.4520  219.8880 C   0  0  0  0  0  0  0  0  0  0  0  0
  145.1900   71.6470  219.2500 C   0  0  0  0  0  0  0  0  0  0  0  0
  144.9290   70.1890  219.2990 C   0  0  0  0  0  0  0  0  0  0  0  0
  145.9890   69.3060  219.3340 C   0  0  0  0  0  0  0  0  0  0  0  0
  145.7680   67.9270  219.3800 C   0  0  0  0  0  0  0  0  0  0  0  0
  144.4840   67.4150  219.3920 C   0  0  0  0  0  0  0  0  0  0  0  0
  143.4040   68.2990  219.3560 C   0  0  0  0  0  0  0  0  0  0  0  0
  143.6600   69.6550  219.3110 C   0  0  0  0  0  0  0  0  0  0  0  0
  142.5180   70.5870  219.2720 C   0  0  0  0  0  0  0  0  0  0  0  0
  141.4010   73.5360  220.7870 N   0  0  0  0  0  0  0  0  0  0  0  0
  141.0580   76.4670  221.8370 C   0  0  0  0  0  0  0  0  0  0  0  0
  140.4840   77.8360  221.6930 C   0  0  0  0  0  0  0  0  0  0  0  0
  140.7026   81.8153  220.1333 H   0  0  0  0  0  0  0  0  0  0  0  0
  139.3915   80.9926  221.0702 H   0  0  0  0  0  0  0  0  0  0  0  0
  139.9113   81.8086  223.1064 H   0  0  0  0  0  0  0  0  0  0  0  0
  141.3273   81.7306  225.1349 H   0  0  0  0  0  0  0  0  0  0  0  0
  143.5774   80.6459  225.0576 H   0  0  0  0  0  0  0  0  0  0  0  0
  144.3429   79.6599  222.9084 H   0  0  0  0  0  0  0  0  0  0  0  0
  142.9251   79.7437  220.9093 H   0  0  0  0  0  0  0  0  0  0  0  0
  138.2569   77.1798  220.0404 H   0  0  0  0  0  0  0  0  0  0  0  0
  139.3972   77.3650  218.6194 H   0  0  0  0  0  0  0  0  0  0  0  0
  139.0726   74.9986  219.4978 H   0  0  0  0  0  0  0  0  0  0  0  0
  140.7607   75.5833  219.3458 H   0  0  0  0  0  0  0  0  0  0  0  0
  139.0787   75.5842  221.9063 H   0  0  0  0  0  0  0  0  0  0  0  0
  138.0809   70.8499  224.5235 H   0  0  0  0  0  0  0  0  0  0  0  0
  138.4483   70.6717  222.7917 H   0  0  0  0  0  0  0  0  0  0  0  0
  138.4244   68.4381  223.9937 H   0  0  0  0  0  0  0  0  0  0  0  0
  140.0268   68.7784  223.3087 H   0  0  0  0  0  0  0  0  0  0  0  0
  139.2723   67.0127  225.6476 H   0  0  0  0  0  0  0  0  0  0  0  0
  140.2018   66.8299  227.9522 H   0  0  0  0  0  0  0  0  0  0  0  0
  141.3097   68.7833  228.9818 H   0  0  0  0  0  0  0  0  0  0  0  0
  141.5082   70.9485  227.7529 H   0  0  0  0  0  0  0  0  0  0  0  0
  140.1114   72.2288  225.8807 H   0  0  0  0  0  0  0  0  0  0  0  0
  141.6897   71.6710  225.1839 H   0  0  0  0  0  0  0  0  0  0  0  0
  143.9474   73.3536  219.2789 H   0  0  0  0  0  0  0  0  0  0  0  0
  144.4490   72.6773  220.9096 H   0  0  0  0  0  0  0  0  0  0  0  0
  145.2800   71.9522  218.1970 H   0  0  0  0  0  0  0  0  0  0  0  0
  146.1169   71.8354  219.8116 H   0  0  0  0  0  0  0  0  0  0  0  0
  147.0190   69.6919  219.3256 H   0  0  0  0  0  0  0  0  0  0  0  0
  146.6267   67.2401  219.4070 H   0  0  0  0  0  0  0  0  0  0  0  0
  144.3159   66.3286  219.4293 H   0  0  0  0  0  0  0  0  0  0  0  0
  142.3703   67.9229  219.3633 H   0  0  0  0  0  0  0  0  0  0  0  0
  142.3030   70.8618  218.2288 H   0  0  0  0  0  0  0  0  0  0  0  0
  141.6323   70.1044  219.7109 H   0  0  0  0  0  0  0  0  0  0  0  0
  141.3036   76.2760  222.8921 H   0  0  0  0  0  0  0  0  0  0  0  0
  141.9766   76.3768  221.2386 H   0  0  0  0  0  0  0  0  0  0  0  0
  139.6344   77.9356  222.3846 H   0  0  0  0  0  0  0  0  0  0  0  0
  141.2829   78.5564  221.9225 H   0  0  0  0  0  0  0  0  0  0  0  0
  1  2  2  0
  2  3  2  0
  2  4  1  0
  4  5  1  0
  5  6  2  0
  6  7  1  0
  7  8  2  0
  8  9  1  0
  9 10  2  0
  2 11  1  0
 11 12  1  0
 12 13  1  0
 13 14  1  0
 14 15  1  0
 15 16  2  0
 16 17  1  0
 17 18  1  0
 18 19  1  0
 19 20  1  0
 20 21  1  0
 21 22  2  0
 22 23  1  0
 23 24  2  0
 24 25  1  0
 25 26  2  0
 26 27  1  0
 17 28  2  0
 28 29  1  0
 29 30  1  0
 30 31  1  0
 31 32  1  0
 32 33  1  0
 33 34  2  0
 34 35  1  0
 35 36  2  0
 36 37  1  0
 37 38  2  0
 38 39  1  0
 29 40  2  0
 14 41  1  0
 41 42  1  0
 10  5  1  0
 42 11  1  0
 40 15  1  0
 27 18  1  0
 39 30  1  0
 26 21  1  0
 38 33  1  0
  4 43  1  0
  4 44  1  0
  6 45  1  0
  7 46  1  0
  8 47  1  0
  9 48  1  0
 10 49  1  0
 12 50  1  0
 12 51  1  0
 13 52  1  0
 13 53  1  0
 14 54  1  0
 19 55  1  0
 19 56  1  0
 20 57  1  0
 20 58  1  0
 22 59  1  0
 23 60  1  0
 24 61  1  0
 25 62  1  0
 27 63  1  0
 27 64  1  0
 31 65  1  0
 31 66  1  0
 32 67  1  0
 32 68  1  0
 34 69  1  0
 35 70  1  0
 36 71  1  0
 37 72  1  0
 39 73  1  0
 39 74  1  0
 41 75  1  0
 41 76  1  0
 42 77  1  0
 42 78  1  0
M  END
>  <smiles>  (35) 
O=S(=O)(Cc1ccccc1)N1CCC(c2nc(N3CCc4ccccc4C3)nc(N3CCc4ccccc4C3)n2)CC1

>  <score_type>  (35) 
oracle

>  <origin>  (35) 
autodockgpu

>  <m_score__min__energy>  (35) 
-12.01

>  <m_primary>  (35) 
energy

>  <rmsd>  (35) 
11.416948243322922

>  <m_score__min__rmsd>  (35) 
11.416948243322922

>  <meeko>  (35) 
{"free_energy": -11.46, "intermolecular_energy": -13.25, "internal_energy": -1.66, "cluster_size": 32, "cluster_id": 1, "rank_in_cluster": 12}

>  <energy>  (35) 
-11.15

>  <cluster_rmsd>  (35) 
1.84

>  <cluster>  (35) 
2

$$$$

     RDKit          3D

 78 84  0  0  0  0  0  0  0  0999 V2000
  137.1640   80.5780  221.7960 O   0  0  0  0  0  0  0  0  0  0  0  0
  138.4780   79.8790  222.1120 S   0  0  0  0  0  0  0  0  0  0  0  0
  138.6780   79.9180  223.6170 O   0  0  0  0  0  0  0  0  0  0  0  0
  139.7670   80.8380  221.4020 C   0  0  0  0  0  0  0  0  0  0  0  0
  140.9780   80.8000  222.2350 C   0  0  0  0  0  0  0  0  0  0  0  0
  141.8490   79.7350  222.0360 C   0  0  0  0  0  0  0  0  0  0  0  0
  143.0030   79.5850  222.7980 C   0  0  0  0  0  0  0  0  0  0  0  0
  143.3140   80.5040  223.7860 C   0  0  0  0  0  0  0  0  0  0  0  0
  142.4480   81.5550  223.9790 C   0  0  0  0  0  0  0  0  0  0  0  0
  141.3070   81.6910  223.2140 C   0  0  0  0  0  0  0  0  0  0  0  0
  138.4880   78.2930  221.5920 N   0  0  0  0  0  0  0  0  0  0  0  0
  139.2580   77.8830  220.5040 C   0  0  0  0  0  0  0  0  0  0  0  0
  140.0600   76.6100  220.7540 C   0  0  0  0  0  0  0  0  0  0  0  0
  139.1500   75.5650  221.3600 C   0  0  0  0  0  0  0  0  0  0  0  0
  139.8650   74.3090  221.6010 C   0  0  0  0  0  0  0  0  0  0  0  0
  139.5760   73.4610  222.6240 N   0  0  0  0  0  0  0  0  0  0  0  0
  140.2480   72.3220  222.8190 C   0  0  0  0  0  0  0  0  0  0  0  0
  139.8600   71.5100  223.9190 N   0  0  0  0  0  0  0  0  0  0  0  0
  138.6070   70.8020  223.8480 C   0  0  0  0  0  0  0  0  0  0  0  0
  138.9340   69.3050  223.8520 C   0  0  0  0  0  0  0  0  0  0  0  0
  139.7140   69.0440  225.0890 C   0  0  0  0  0  0  0  0  0  0  0  0
  139.6050   67.7800  225.6400 C   0  0  0  0  0  0  0  0  0  0  0  0
  140.3060   67.4710  226.7930 C   0  0  0  0  0  0  0  0  0  0  0  0
  141.1070   68.4330  227.3760 C   0  0  0  0  0  0  0  0  0  0  0  0
  141.2310   69.7100  226.8380 C   0  0  0  0  0  0  0  0  0  0  0  0
  140.5210   69.9870  225.6900 C   0  0  0  0  0  0  0  0  0  0  0  0
  140.6550   71.3510  225.1180 C   0  0  0  0  0  0  0  0  0  0  0  0
  141.2430   72.0050  221.9750 N   0  0  0  0  0  0  0  0  0  0  0  0
  141.5850   72.8040  220.9340 C   0  0  0  0  0  0  0  0  0  0  0  0
  142.6370   72.4780  220.0330 N   0  0  0  0  0  0  0  0  0  0  0  0
  143.7900   73.3510  219.9990 C   0  0  0  0  0  0  0  0  0  0  0  0
  145.0020   72.7550  219.3660 C   0  0  0  0  0  0  0  0  0  0  0  0
  144.9580   71.2740  219.3210 C   0  0  0  0  0  0  0  0  0  0  0  0
  146.1360   70.5560  219.3540 C   0  0  0  0  0  0  0  0  0  0  0  0
  146.1210   69.1590  219.3120 C   0  0  0  0  0  0  0  0  0  0  0  0
  144.9290   68.4650  219.2360 C   0  0  0  0  0  0  0  0  0  0  0  0
  143.7320   69.1810  219.2010 C   0  0  0  0  0  0  0  0  0  0  0  0
  143.7840   70.5610  219.2450 C   0  0  0  0  0  0  0  0  0  0  0  0
  142.5180   71.3150  219.2070 C   0  0  0  0  0  0  0  0  0  0  0  0
  140.8720   73.9350  220.7910 N   0  0  0  0  0  0  0  0  0  0  0  0
  138.6340   76.1260  222.6650 C   0  0  0  0  0  0  0  0  0  0  0  0
  137.8000   77.3250  222.3650 C   0  0  0  0  0  0  0  0  0  0  0  0
  140.0044   80.4382  220.4051 H   0  0  0  0  0  0  0  0  0  0  0  0
  139.4261   81.8813  221.3300 H   0  0  0  0  0  0  0  0  0  0  0  0
  141.6201   78.9929  221.2570 H   0  0  0  0  0  0  0  0  0  0  0  0
  143.6723   78.7315  222.6147 H   0  0  0  0  0  0  0  0  0  0  0  0
  144.2231   80.3971  224.3960 H   0  0  0  0  0  0  0  0  0  0  0  0
  142.6686   82.3007  224.7570 H   0  0  0  0  0  0  0  0  0  0  0  0
  140.6409   82.5464  223.4001 H   0  0  0  0  0  0  0  0  0  0  0  0
  138.5854   77.7059  219.6518 H   0  0  0  0  0  0  0  0  0  0  0  0
  139.9864   78.6843  220.3106 H   0  0  0  0  0  0  0  0  0  0  0  0
  140.4666   76.2375  219.8022 H   0  0  0  0  0  0  0  0  0  0  0  0
  140.8906   76.8236  221.4428 H   0  0  0  0  0  0  0  0  0  0  0  0
  138.3250   75.3390  220.6684 H   0  0  0  0  0  0  0  0  0  0  0  0
  137.9816   71.0539  224.7172 H   0  0  0  0  0  0  0  0  0  0  0  0
  138.0520   71.0789  222.9396 H   0  0  0  0  0  0  0  0  0  0  0  0
  138.0063   68.7139  223.8565 H   0  0  0  0  0  0  0  0  0  0  0  0
  139.5052   69.0215  222.9557 H   0  0  0  0  0  0  0  0  0  0  0  0
  138.9639   67.0234  225.1640 H   0  0  0  0  0  0  0  0  0  0  0  0
  140.2258   66.4693  227.2403 H   0  0  0  0  0  0  0  0  0  0  0  0
  141.6627   68.1825  228.2917 H   0  0  0  0  0  0  0  0  0  0  0  0
  141.8712   70.4693  227.3108 H   0  0  0  0  0  0  0  0  0  0  0  0
  140.3222   72.0854  225.8662 H   0  0  0  0  0  0  0  0  0  0  0  0
  141.7107   71.5089  224.8524 H   0  0  0  0  0  0  0  0  0  0  0  0
  143.5186   74.2559  219.4356 H   0  0  0  0  0  0  0  0  0  0  0  0
  144.0552   73.5579  221.0463 H   0  0  0  0  0  0  0  0  0  0  0  0
  145.0841   73.1355  218.3372 H   0  0  0  0  0  0  0  0  0  0  0  0
  145.8699   73.0418  219.9780 H   0  0  0  0  0  0  0  0  0  0  0  0
  147.0966   71.0885  219.4140 H   0  0  0  0  0  0  0  0  0  0  0  0
  147.0708   68.6049  219.3398 H   0  0  0  0  0  0  0  0  0  0  0  0
  144.9236   67.3655  219.2036 H   0  0  0  0  0  0  0  0  0  0  0  0
  142.7665   68.6575  219.1396 H   0  0  0  0  0  0  0  0  0  0  0  0
  142.3021   71.6194  218.1722 H   0  0  0  0  0  0  0  0  0  0  0  0
  141.6993   70.6809  219.5779 H   0  0  0  0  0  0  0  0  0  0  0  0
  138.0243   75.3687  223.1797 H   0  0  0  0  0  0  0  0  0  0  0  0
  139.4760   76.4046  223.3158 H   0  0  0  0  0  0  0  0  0  0  0  0
  136.9070   77.0020  221.8099 H   0  0  0  0  0  0  0  0  0  0  0  0
  137.5366   77.7937  223.3246 H   0  0  0  0  0  0  0  0  0  0  0  0
  1  2  2  0
  2  3  2  0
  2  4  1  0
  4  5  1  0
  5  6  2  0
  6  7  1  0
  7  8  2  0
  8  9  1  0
  9 10  2  0
  2 11  1  0
 11 12  1  0
 12 13  1  0
 13 14  1  0
 14 15  1  0
 15 16  2  0
 16 17  1  0
 17 18  1  0
 18 19  1  0
 19 20  1  0
 20 21  1  0
 21 22  2  0
 22 23  1  0
 23 24  2  0
 24 25  1  0
 25 26  2  0
 26 27  1  0
 17 28  2  0
 28 29  1  0
 29 30  1  0
 30 31  1  0
 31 32  1  0
 32 33  1  0
 33 34  2  0
 34 35  1  0
 35 36  2  0
 36 37  1  0
 37 38  2  0
 38 39  1  0
 29 40  2  0
 14 41  1  0
 41 42  1  0
 10  5  1  0
 42 11  1  0
 40 15  1  0
 27 18  1  0
 39 30  1  0
 26 21  1  0
 38 33  1  0
  4 43  1  0
  4 44  1  0
  6 45  1  0
  7 46  1  0
  8 47  1  0
  9 48  1  0
 10 49  1  0
 12 50  1  0
 12 51  1  0
 13 52  1  0
 13 53  1  0
 14 54  1  0
 19 55  1  0
 19 56  1  0
 20 57  1  0
 20 58  1  0
 22 59  1  0
 23 60  1  0
 24 61  1  0
 25 62  1  0
 27 63  1  0
 27 64  1  0
 31 65  1  0
 31 66  1  0
 32 67  1  0
 32 68  1  0
 34 69  1  0
 35 70  1  0
 36 71  1  0
 37 72  1  0
 39 73  1  0
 39 74  1  0
 41 75  1  0
 41 76  1  0
 42 77  1  0
 42 78  1  0
M  END
>  <smiles>  (36) 
O=S(=O)(Cc1ccccc1)N1CCC(c2nc(N3CCc4ccccc4C3)nc(N3CCc4ccccc4C3)n2)CC1

>  <score_type>  (36) 
oracle

>  <origin>  (36) 
autodockgpu

>  <m_score__min__energy>  (36) 
-12.01

>  <m_primary>  (36) 
energy

>  <rmsd>  (36) 
11.349400695207859

>  <m_score__min__rmsd>  (36) 
11.349400695207859

>  <meeko>  (36) 
{"free_energy": -11.26, "intermolecular_energy": -13.05, "internal_energy": -1.88, "cluster_size": 32, "cluster_id": 1, "rank_in_cluster": 16}

>  <energy>  (36) 
-11.04

>  <cluster_rmsd>  (36) 
1.85

>  <cluster>  (36) 
2

$$$$

     RDKit          3D

 78 84  0  0  0  0  0  0  0  0999 V2000
  139.6310   80.2660  218.8690 O   0  0  0  0  0  0  0  0  0  0  0  0
  140.6900   79.6040  219.7380 S   0  0  0  0  0  0  0  0  0  0  0  0
  141.0810   80.5860  220.8280 O   0  0  0  0  0  0  0  0  0  0  0  0
  142.1130   79.3610  218.7380 C   0  0  0  0  0  0  0  0  0  0  0  0
  142.4100   77.9310  218.5730 C   0  0  0  0  0  0  0  0  0  0  0  0
  142.0480   77.3440  217.3660 C   0  0  0  0  0  0  0  0  0  0  0  0
  142.2480   75.9890  217.1250 C   0  0  0  0  0  0  0  0  0  0  0  0
  142.8200   75.1820  218.0930 C   0  0  0  0  0  0  0  0  0  0  0  0
  143.1770   75.7680  219.2860 C   0  0  0  0  0  0  0  0  0  0  0  0
  142.9720   77.1150  219.5110 C   0  0  0  0  0  0  0  0  0  0  0  0
  140.1400   78.1900  220.4350 N   0  0  0  0  0  0  0  0  0  0  0  0
  139.3980   77.2570  219.7130 C   0  0  0  0  0  0  0  0  0  0  0  0
  139.8700   75.8170  219.8870 C   0  0  0  0  0  0  0  0  0  0  0  0
  140.0480   75.5320  221.3620 C   0  0  0  0  0  0  0  0  0  0  0  0
  140.4810   74.1500  221.5900 C   0  0  0  0  0  0  0  0  0  0  0  0
  140.0280   73.3770  222.6130 N   0  0  0  0  0  0  0  0  0  0  0  0
  140.4430   72.1200  222.7950 C   0  0  0  0  0  0  0  0  0  0  0  0
  139.9030   71.4030  223.8970 N   0  0  0  0  0  0  0  0  0  0  0  0
  138.7460   70.5720  223.6800 C   0  0  0  0  0  0  0  0  0  0  0  0
  139.1760   69.1240  223.9410 C   0  0  0  0  0  0  0  0  0  0  0  0
  139.7070   69.0820  225.3280 C   0  0  0  0  0  0  0  0  0  0  0  0
  139.5840   67.8840  226.0070 C   0  0  0  0  0  0  0  0  0  0  0  0
  140.0600   67.7780  227.3030 C   0  0  0  0  0  0  0  0  0  0  0  0
  140.6530   68.8720  227.8980 C   0  0  0  0  0  0  0  0  0  0  0  0
  140.7870   70.0870  227.2320 C   0  0  0  0  0  0  0  0  0  0  0  0
  140.3040   70.1620  225.9430 C   0  0  0  0  0  0  0  0  0  0  0  0
  140.4500   71.4590  225.2350 C   0  0  0  0  0  0  0  0  0  0  0  0
  141.3370   71.6030  221.9370 N   0  0  0  0  0  0  0  0  0  0  0  0
  141.8310   72.3170  220.8950 C   0  0  0  0  0  0  0  0  0  0  0  0
  142.7790   71.7790  219.9800 N   0  0  0  0  0  0  0  0  0  0  0  0
  144.0070   72.5150  219.7720 C   0  0  0  0  0  0  0  0  0  0  0  0
  145.1060   71.7240  219.1460 C   0  0  0  0  0  0  0  0  0  0  0  0
  144.9130   70.2610  219.2840 C   0  0  0  0  0  0  0  0  0  0  0  0
  146.0140   69.4300  219.3350 C   0  0  0  0  0  0  0  0  0  0  0  0
  145.8580   68.0470  219.4640 C   0  0  0  0  0  0  0  0  0  0  0  0
  144.6010   67.4800  219.5450 C   0  0  0  0  0  0  0  0  0  0  0  0
  143.4800   68.3110  219.4940 C   0  0  0  0  0  0  0  0  0  0  0  0
  143.6720   69.6720  219.3650 C   0  0  0  0  0  0  0  0  0  0  0  0
  142.4870   70.5480  219.3100 C   0  0  0  0  0  0  0  0  0  0  0  0
  141.3750   73.5750  220.7650 N   0  0  0  0  0  0  0  0  0  0  0  0
  141.0940   76.4940  221.8780 C   0  0  0  0  0  0  0  0  0  0  0  0
  140.5590   77.8810  221.7530 C   0  0  0  0  0  0  0  0  0  0  0  0
  141.9362   79.8071  217.7482 H   0  0  0  0  0  0  0  0  0  0  0  0
  142.9713   79.8398  219.2321 H   0  0  0  0  0  0  0  0  0  0  0  0
  141.5921   77.9667  216.5821 H   0  0  0  0  0  0  0  0  0  0  0  0
  141.9497   75.5559  216.1589 H   0  0  0  0  0  0  0  0  0  0  0  0
  142.9837   74.1089  217.9149 H   0  0  0  0  0  0  0  0  0  0  0  0
  143.6340   75.1522  220.0747 H   0  0  0  0  0  0  0  0  0  0  0  0
  143.2717   77.5442  220.4784 H   0  0  0  0  0  0  0  0  0  0  0  0
  138.3503   77.3193  220.0423 H   0  0  0  0  0  0  0  0  0  0  0  0
  139.5243   77.5059  218.6490 H   0  0  0  0  0  0  0  0  0  0  0  0
  139.1209   75.1300  219.4664 H   0  0  0  0  0  0  0  0  0  0  0  0
  140.8262   75.6734  219.3626 H   0  0  0  0  0  0  0  0  0  0  0  0
  139.0909   75.6618  221.8884 H   0  0  0  0  0  0  0  0  0  0  0  0
  137.9410   70.8574  224.3732 H   0  0  0  0  0  0  0  0  0  0  0  0
  138.3667   70.6890  222.6541 H   0  0  0  0  0  0  0  0  0  0  0  0
  138.3131   68.4486  223.8444 H   0  0  0  0  0  0  0  0  0  0  0  0
  139.9362   68.7991  223.2153 H   0  0  0  0  0  0  0  0  0  0  0  0
  139.1102   67.0190  225.5199 H   0  0  0  0  0  0  0  0  0  0  0  0
  139.9661   66.8300  227.8530 H   0  0  0  0  0  0  0  0  0  0  0  0
  141.0305   68.7819  228.9273 H   0  0  0  0  0  0  0  0  0  0  0  0
  141.2602   70.9542  227.7158 H   0  0  0  0  0  0  0  0  0  0  0  0
  139.9207   72.2373  225.8042 H   0  0  0  0  0  0  0  0  0  0  0  0
  141.5230   71.6883  225.1573 H   0  0  0  0  0  0  0  0  0  0  0  0
  143.7867   73.3727  219.1194 H   0  0  0  0  0  0  0  0  0  0  0  0
  144.3652   72.8123  220.7687 H   0  0  0  0  0  0  0  0  0  0  0  0
  145.1520   71.9727  218.0755 H   0  0  0  0  0  0  0  0  0  0  0  0
  146.0392   71.9849  219.6667 H   0  0  0  0  0  0  0  0  0  0  0  0
  147.0244   69.8605  219.2735 H   0  0  0  0  0  0  0  0  0  0  0  0
  146.7480   67.4016  219.5015 H   0  0  0  0  0  0  0  0  0  0  0  0
  144.4849   66.3910  219.6480 H   0  0  0  0  0  0  0  0  0  0  0  0
  142.4655   67.8901  219.5553 H   0  0  0  0  0  0  0  0  0  0  0  0
  142.2294   70.7527  218.2604 H   0  0  0  0  0  0  0  0  0  0  0  0
  141.6379   70.0518  219.8028 H   0  0  0  0  0  0  0  0  0  0  0  0
  141.3132   76.2738  222.9332 H   0  0  0  0  0  0  0  0  0  0  0  0
  142.0217   76.3923  221.2958 H   0  0  0  0  0  0  0  0  0  0  0  0
  139.6986   77.9884  222.4299 H   0  0  0  0  0  0  0  0  0  0  0  0
  141.3717   78.5748  222.0140 H   0  0  0  0  0  0  0  0  0  0  0  0
  1  2  2  0
  2  3  2  0
  2  4  1  0
  4  5  1  0
  5  6  2  0
  6  7  1  0
  7  8  2  0
  8  9  1  0
  9 10  2  0
  2 11  1  0
 11 12  1  0
 12 13  1  0
 13 14  1  0
 14 15  1  0
 15 16  2  0
 16 17  1  0
 17 18  1  0
 18 19  1  0
 19 20  1  0
 20 21  1  0
 21 22  2  0
 22 23  1  0
 23 24  2  0
 24 25  1  0
 25 26  2  0
 26 27  1  0
 17 28  2  0
 28 29  1  0
 29 30  1  0
 30 31  1  0
 31 32  1  0
 32 33  1  0
 33 34  2  0
 34 35  1  0
 35 36  2  0
 36 37  1  0
 37 38  2  0
 38 39  1  0
 29 40  2  0
 14 41  1  0
 41 42  1  0
 10  5  1  0
 42 11  1  0
 40 15  1  0
 27 18  1  0
 39 30  1  0
 26 21  1  0
 38 33  1  0
  4 43  1  0
  4 44  1  0
  6 45  1  0
  7 46  1  0
  8 47  1  0
  9 48  1  0
 10 49  1  0
 12 50  1  0
 12 51  1  0
 13 52  1  0
 13 53  1  0
 14 54  1  0
 19 55  1  0
 19 56  1  0
 20 57  1  0
 20 58  1  0
 22 59  1  0
 23 60  1  0
 24 61  1  0
 25 62  1  0
 27 63  1  0
 27 64  1  0
 31 65  1  0
 31 66  1  0
 32 67  1  0
 32 68  1  0
 34 69  1  0
 35 70  1  0
 36 71  1  0
 37 72  1  0
 39 73  1  0
 39 74  1  0
 41 75  1  0
 41 76  1  0
 42 77  1  0
 42 78  1  0
M  END
>  <smiles>  (37) 
O=S(=O)(Cc1ccccc1)N1CCC(c2nc(N3CCc4ccccc4C3)nc(N3CCc4ccccc4C3)n2)CC1

>  <score_type>  (37) 
oracle

>  <origin>  (37) 
autodockgpu

>  <m_score__min__energy>  (37) 
-12.01

>  <m_primary>  (37) 
energy

>  <rmsd>  (37) 
11.369970299810065

>  <m_score__min__rmsd>  (37) 
11.369970299810065

>  <meeko>  (37) 
{"free_energy": -10.2, "intermolecular_energy": -11.99, "internal_energy": -2.69, "cluster_size": 5, "cluster_id": 4, "rank_in_cluster": 4}

>  <energy>  (37) 
-11.02

>  <cluster_rmsd>  (37) 
1.05

>  <cluster>  (37) 
2

$$$$

     RDKit          3D

 78 84  0  0  0  0  0  0  0  0999 V2000
  138.2860   80.6100  221.4620 O   0  0  0  0  0  0  0  0  0  0  0  0
  138.0320   79.3870  222.3300 S   0  0  0  0  0  0  0  0  0  0  0  0
  136.5420   79.3160  222.6130 O   0  0  0  0  0  0  0  0  0  0  0  0
  138.8290   79.6610  223.8710 C   0  0  0  0  0  0  0  0  0  0  0  0
  140.2720   79.8830  223.6910 C   0  0  0  0  0  0  0  0  0  0  0  0
  140.6870   81.1920  223.4730 C   0  0  0  0  0  0  0  0  0  0  0  0
  142.0250   81.5040  223.2510 C   0  0  0  0  0  0  0  0  0  0  0  0
  142.9850   80.5070  223.2430 C   0  0  0  0  0  0  0  0  0  0  0  0
  142.5670   79.2140  223.4590 C   0  0  0  0  0  0  0  0  0  0  0  0
  141.2360   78.9200  223.6780 C   0  0  0  0  0  0  0  0  0  0  0  0
  138.5240   77.9750  221.5890 N   0  0  0  0  0  0  0  0  0  0  0  0
  139.8080   77.8310  221.0650 C   0  0  0  0  0  0  0  0  0  0  0  0
  140.4940   76.5240  221.4500 C   0  0  0  0  0  0  0  0  0  0  0  0
  139.5410   75.3760  221.2070 C   0  0  0  0  0  0  0  0  0  0  0  0
  140.1590   74.0890  221.5400 C   0  0  0  0  0  0  0  0  0  0  0  0
  139.8200   73.3500  222.6300 N   0  0  0  0  0  0  0  0  0  0  0  0
  140.4030   72.1800  222.9090 C   0  0  0  0  0  0  0  0  0  0  0  0
  139.9700   71.4910  224.0740 N   0  0  0  0  0  0  0  0  0  0  0  0
  138.8960   70.5380  223.9550 C   0  0  0  0  0  0  0  0  0  0  0  0
  139.4760   69.1600  224.2940 C   0  0  0  0  0  0  0  0  0  0  0  0
  140.0510   69.2670  225.6600 C   0  0  0  0  0  0  0  0  0  0  0  0
  140.0680   68.1120  226.4210 C   0  0  0  0  0  0  0  0  0  0  0  0
  140.5900   68.1420  227.7030 C   0  0  0  0  0  0  0  0  0  0  0  0
  141.0880   69.3280  228.2020 C   0  0  0  0  0  0  0  0  0  0  0  0
  141.0800   70.5010  227.4540 C   0  0  0  0  0  0  0  0  0  0  0  0
  140.5540   70.4390  226.1820 C   0  0  0  0  0  0  0  0  0  0  0  0
  140.5480   71.6930  225.3850 C   0  0  0  0  0  0  0  0  0  0  0  0
  141.3550   71.7190  222.0820 N   0  0  0  0  0  0  0  0  0  0  0  0
  141.7420   72.4030  220.9770 C   0  0  0  0  0  0  0  0  0  0  0  0
  142.7500   71.9240  220.0950 N   0  0  0  0  0  0  0  0  0  0  0  0
  144.0820   72.4710  220.2330 C   0  0  0  0  0  0  0  0  0  0  0  0
  145.1560   71.6600  219.5880 C   0  0  0  0  0  0  0  0  0  0  0  0
  144.7500   70.2550  219.3460 C   0  0  0  0  0  0  0  0  0  0  0  0
  145.7070   69.2600  219.3440 C   0  0  0  0  0  0  0  0  0  0  0  0
  145.3490   67.9280  219.1170 C   0  0  0  0  0  0  0  0  0  0  0  0
  144.0320   67.5760  218.8920 C   0  0  0  0  0  0  0  0  0  0  0  0
  143.0560   68.5740  218.8930 C   0  0  0  0  0  0  0  0  0  0  0  0
  143.4450   69.8800  219.1190 C   0  0  0  0  0  0  0  0  0  0  0  0
  142.4130   70.9330  219.1180 C   0  0  0  0  0  0  0  0  0  0  0  0
  141.1190   73.5740  220.7520 N   0  0  0  0  0  0  0  0  0  0  0  0
  138.3290   75.6100  222.0800 C   0  0  0  0  0  0  0  0  0  0  0  0
  137.6530   76.8570  221.6200 C   0  0  0  0  0  0  0  0  0  0  0  0
  138.3868   80.5463  224.3513 H   0  0  0  0  0  0  0  0  0  0  0  0
  138.6893   78.7688  224.4991 H   0  0  0  0  0  0  0  0  0  0  0  0
  139.9404   81.9998  223.4761 H   0  0  0  0  0  0  0  0  0  0  0  0
  142.3214   82.5495  223.0808 H   0  0  0  0  0  0  0  0  0  0  0  0
  144.0459   80.7404  223.0699 H   0  0  0  0  0  0  0  0  0  0  0  0
  143.3067   78.3999  223.4572 H   0  0  0  0  0  0  0  0  0  0  0  0
  140.9438   77.8732  223.8477 H   0  0  0  0  0  0  0  0  0  0  0  0
  139.7406   77.8758  219.9680 H   0  0  0  0  0  0  0  0  0  0  0  0
  140.4161   78.6450  221.4865 H   0  0  0  0  0  0  0  0  0  0  0  0
  141.3981   76.3882  220.8383 H   0  0  0  0  0  0  0  0  0  0  0  0
  140.7771   76.5526  222.5126 H   0  0  0  0  0  0  0  0  0  0  0  0
  139.2651   75.3360  220.1429 H   0  0  0  0  0  0  0  0  0  0  0  0
  138.0880   70.7905  224.6575 H   0  0  0  0  0  0  0  0  0  0  0  0
  138.4760   70.5465  222.9384 H   0  0  0  0  0  0  0  0  0  0  0  0
  138.6822   68.3987  224.2747 H   0  0  0  0  0  0  0  0  0  0  0  0
  140.2416   68.8606  223.5631 H   0  0  0  0  0  0  0  0  0  0  0  0
  139.6684   67.1735  226.0093 H   0  0  0  0  0  0  0  0  0  0  0  0
  140.6075   67.2297  228.3174 H   0  0  0  0  0  0  0  0  0  0  0  0
  141.5033   69.3466  229.2204 H   0  0  0  0  0  0  0  0  0  0  0  0
  141.4782   71.4416  227.8623 H   0  0  0  0  0  0  0  0  0  0  0  0
  139.9601   72.4530  225.9205 H   0  0  0  0  0  0  0  0  0  0  0  0
  141.5898   72.0209  225.2537 H   0  0  0  0  0  0  0  0  0  0  0  0
  144.0900   73.4734  219.7801 H   0  0  0  0  0  0  0  0  0  0  0  0
  144.3043   72.4828  221.3102 H   0  0  0  0  0  0  0  0  0  0  0  0
  145.4138   72.1221  218.6236 H   0  0  0  0  0  0  0  0  0  0  0  0
  146.0146   71.6422  220.2753 H   0  0  0  0  0  0  0  0  0  0  0  0
  146.7613   69.5179  219.5227 H   0  0  0  0  0  0  0  0  0  0  0  0
  146.1262   67.1496  219.1175 H   0  0  0  0  0  0  0  0  0  0  0  0
  143.7569   66.5258  218.7148 H   0  0  0  0  0  0  0  0  0  0  0  0
  141.9989   68.3255  218.7174 H   0  0  0  0  0  0  0  0  0  0  0  0
  142.3641   71.3992  218.1229 H   0  0  0  0  0  0  0  0  0  0  0  0
  141.4351   70.4920  219.3613 H   0  0  0  0  0  0  0  0  0  0  0  0
  137.6380   74.7586  221.9926 H   0  0  0  0  0  0  0  0  0  0  0  0
  138.6340   75.7108  223.1320 H   0  0  0  0  0  0  0  0  0  0  0  0
  137.2594   76.6900  220.6065 H   0  0  0  0  0  0  0  0  0  0  0  0
  136.8504   77.0825  222.3376 H   0  0  0  0  0  0  0  0  0  0  0  0
  1  2  2  0
  2  3  2  0
  2  4  1  0
  4  5  1  0
  5  6  2  0
  6  7  1  0
  7  8  2  0
  8  9  1  0
  9 10  2  0
  2 11  1  0
 11 12  1  0
 12 13  1  0
 13 14  1  0
 14 15  1  0
 15 16  2  0
 16 17  1  0
 17 18  1  0
 18 19  1  0
 19 20  1  0
 20 21  1  0
 21 22  2  0
 22 23  1  0
 23 24  2  0
 24 25  1  0
 25 26  2  0
 26 27  1  0
 17 28  2  0
 28 29  1  0
 29 30  1  0
 30 31  1  0
 31 32  1  0
 32 33  1  0
 33 34  2  0
 34 35  1  0
 35 36  2  0
 36 37  1  0
 37 38  2  0
 38 39  1  0
 29 40  2  0
 14 41  1  0
 41 42  1  0
 10  5  1  0
 42 11  1  0
 40 15  1  0
 27 18  1  0
 39 30  1  0
 26 21  1  0
 38 33  1  0
  4 43  1  0
  4 44  1  0
  6 45  1  0
  7 46  1  0
  8 47  1  0
  9 48  1  0
 10 49  1  0
 12 50  1  0
 12 51  1  0
 13 52  1  0
 13 53  1  0
 14 54  1  0
 19 55  1  0
 19 56  1  0
 20 57  1  0
 20 58  1  0
 22 59  1  0
 23 60  1  0
 24 61  1  0
 25 62  1  0
 27 63  1  0
 27 64  1  0
 31 65  1  0
 31 66  1  0
 32 67  1  0
 32 68  1  0
 34 69  1  0
 35 70  1  0
 36 71  1  0
 37 72  1  0
 39 73  1  0
 39 74  1  0
 41 75  1  0
 41 76  1  0
 42 77  1  0
 42 78  1  0
M  END
>  <smiles>  (38) 
O=S(=O)(Cc1ccccc1)N1CCC(c2nc(N3CCc4ccccc4C3)nc(N3CCc4ccccc4C3)n2)CC1

>  <score_type>  (38) 
oracle

>  <origin>  (38) 
autodockgpu

>  <m_score__min__energy>  (38) 
-12.01

>  <m_primary>  (38) 
energy

>  <rmsd>  (38) 
11.326257695208568

>  <m_score__min__rmsd>  (38) 
11.326257695208568

>  <meeko>  (38) 
{"free_energy": -11.68, "intermolecular_energy": -13.47, "internal_energy": -1.88, "cluster_size": 32, "cluster_id": 1, "rank_in_cluster": 9}

>  <energy>  (38) 
-10.38

>  <cluster_rmsd>  (38) 
1.99

>  <cluster>  (38) 
2

$$$$

     RDKit          3D

 78 84  0  0  0  0  0  0  0  0999 V2000
  145.7840   68.9080  217.1300 O   0  0  0  0  0  0  0  0  0  0  0  0
  145.6780   69.2790  218.6020 S   0  0  0  0  0  0  0  0  0  0  0  0
  147.0710   69.6160  219.1010 O   0  0  0  0  0  0  0  0  0  0  0  0
  145.1590   67.8420  219.4690 C   0  0  0  0  0  0  0  0  0  0  0  0
  143.7900   67.4590  219.0930 C   0  0  0  0  0  0  0  0  0  0  0  0
  143.6450   66.6630  217.9630 C   0  0  0  0  0  0  0  0  0  0  0  0
  142.3910   66.2780  217.4990 C   0  0  0  0  0  0  0  0  0  0  0  0
  141.2450   66.6840  218.1610 C   0  0  0  0  0  0  0  0  0  0  0  0
  141.3950   67.4720  219.2790 C   0  0  0  0  0  0  0  0  0  0  0  0
  142.6460   67.8450  219.7270 C   0  0  0  0  0  0  0  0  0  0  0  0
  144.6680   70.5850  218.8510 N   0  0  0  0  0  0  0  0  0  0  0  0
  143.3790   70.6270  218.3210 C   0  0  0  0  0  0  0  0  0  0  0  0
  142.3100   71.0640  219.3180 C   0  0  0  0  0  0  0  0  0  0  0  0
  142.7810   72.3120  220.0300 C   0  0  0  0  0  0  0  0  0  0  0  0
  141.7790   72.7900  220.9870 C   0  0  0  0  0  0  0  0  0  0  0  0
  141.2180   72.0060  221.9460 N   0  0  0  0  0  0  0  0  0  0  0  0
  140.3050   72.4720  222.8050 C   0  0  0  0  0  0  0  0  0  0  0  0
  139.7860   71.5640  223.7670 N   0  0  0  0  0  0  0  0  0  0  0  0
  138.6560   70.7460  223.4070 C   0  0  0  0  0  0  0  0  0  0  0  0
  139.1300   69.2880  223.4230 C   0  0  0  0  0  0  0  0  0  0  0  0
  139.6620   69.0310  224.7860 C   0  0  0  0  0  0  0  0  0  0  0  0
  139.5750   67.7320  225.2540 C   0  0  0  0  0  0  0  0  0  0  0  0
  140.0530   67.4240  226.5160 C   0  0  0  0  0  0  0  0  0  0  0  0
  140.6110   68.4200  227.2900 C   0  0  0  0  0  0  0  0  0  0  0  0
  140.7090   69.7330  226.8380 C   0  0  0  0  0  0  0  0  0  0  0  0
  140.2250   70.0090  225.5780 C   0  0  0  0  0  0  0  0  0  0  0  0
  140.3300   71.4100  225.0990 C   0  0  0  0  0  0  0  0  0  0  0  0
  139.9320   73.7580  222.7180 N   0  0  0  0  0  0  0  0  0  0  0  0
  140.4500   74.5960  221.7860 C   0  0  0  0  0  0  0  0  0  0  0  0
  140.0610   75.9620  221.6850 N   0  0  0  0  0  0  0  0  0  0  0  0
  138.7170   76.3110  222.0890 C   0  0  0  0  0  0  0  0  0  0  0  0
  138.5060   77.7640  222.3500 C   0  0  0  0  0  0  0  0  0  0  0  0
  139.7700   78.4940  222.6050 C   0  0  0  0  0  0  0  0  0  0  0  0
  139.7620   79.6090  223.4180 C   0  0  0  0  0  0  0  0  0  0  0  0
  140.9410   80.3140  223.6740 C   0  0  0  0  0  0  0  0  0  0  0  0
  142.1420   79.9120  223.1200 C   0  0  0  0  0  0  0  0  0  0  0  0
  142.1620   78.7850  222.2960 C   0  0  0  0  0  0  0  0  0  0  0  0
  140.9780   78.1130  222.0650 C   0  0  0  0  0  0  0  0  0  0  0  0
  141.0010   76.9230  221.1940 C   0  0  0  0  0  0  0  0  0  0  0  0
  141.3640   74.0690  220.9510 N   0  0  0  0  0  0  0  0  0  0  0  0
  144.0600   71.9580  220.7520 C   0  0  0  0  0  0  0  0  0  0  0  0
  145.0930   71.6080  219.7350 C   0  0  0  0  0  0  0  0  0  0  0  0
  145.8417   67.0131  219.2306 H   0  0  0  0  0  0  0  0  0  0  0  0
  145.1757   68.0607  220.5469 H   0  0  0  0  0  0  0  0  0  0  0  0
  144.5431   66.3294  217.4225 H   0  0  0  0  0  0  0  0  0  0  0  0
  142.3098   65.6476  216.6012 H   0  0  0  0  0  0  0  0  0  0  0  0
  140.2476   66.3865  217.8051 H   0  0  0  0  0  0  0  0  0  0  0  0
  140.5023   67.8106  219.8252 H   0  0  0  0  0  0  0  0  0  0  0  0
  142.7229   68.4748  220.6256 H   0  0  0  0  0  0  0  0  0  0  0  0
  143.3749   71.3337  217.4780 H   0  0  0  0  0  0  0  0  0  0  0  0
  143.1277   69.6005  218.0158 H   0  0  0  0  0  0  0  0  0  0  0  0
  141.3721   71.2761  218.7837 H   0  0  0  0  0  0  0  0  0  0  0  0
  142.1351   70.2621  220.0504 H   0  0  0  0  0  0  0  0  0  0  0  0
  142.9448   73.1207  219.3025 H   0  0  0  0  0  0  0  0  0  0  0  0
  137.8423   70.8860  224.1338 H   0  0  0  0  0  0  0  0  0  0  0  0
  138.2742   71.0222  222.4130 H   0  0  0  0  0  0  0  0  0  0  0  0
  138.2882   68.6126  223.2103 H   0  0  0  0  0  0  0  0  0  0  0  0
  139.8992   69.1119  222.6566 H   0  0  0  0  0  0  0  0  0  0  0  0
  139.1279   66.9474  224.6260 H   0  0  0  0  0  0  0  0  0  0  0  0
  139.9884   66.3945  226.8981 H   0  0  0  0  0  0  0  0  0  0  0  0
  140.9891   68.1699  228.2922 H   0  0  0  0  0  0  0  0  0  0  0  0
  141.1559   70.5202  227.4631 H   0  0  0  0  0  0  0  0  0  0  0  0
  139.7759   72.0645  225.7879 H   0  0  0  0  0  0  0  0  0  0  0  0
  141.3954   71.6818  225.0671 H   0  0  0  0  0  0  0  0  0  0  0  0
  138.0271   76.0020  221.2899 H   0  0  0  0  0  0  0  0  0  0  0  0
  138.5327   75.7926  223.0416 H   0  0  0  0  0  0  0  0  0  0  0  0
  138.0138   78.2102  221.4732 H   0  0  0  0  0  0  0  0  0  0  0  0
  137.8869   77.8501  223.2552 H   0  0  0  0  0  0  0  0  0  0  0  0
  138.8173   79.9464  223.8694 H   0  0  0  0  0  0  0  0  0  0  0  0
  140.9131   81.2004  224.3248 H   0  0  0  0  0  0  0  0  0  0  0  0
  143.0670   80.4710  223.3250 H   0  0  0  0  0  0  0  0  0  0  0  0
  143.1016   78.4395  221.8402 H   0  0  0  0  0  0  0  0  0  0  0  0
  140.7292   77.2126  220.1682 H   0  0  0  0  0  0  0  0  0  0  0  0
  142.0102   76.4855  221.1928 H   0  0  0  0  0  0  0  0  0  0  0  0
  144.4009   72.8180  221.3471 H   0  0  0  0  0  0  0  0  0  0  0  0
  143.8899   71.1060  221.4267 H   0  0  0  0  0  0  0  0  0  0  0  0
  145.3254   72.5075  219.1460 H   0  0  0  0  0  0  0  0  0  0  0  0
  145.9759   71.2344  220.2743 H   0  0  0  0  0  0  0  0  0  0  0  0
  1  2  2  0
  2  3  2  0
  2  4  1  0
  4  5  1  0
  5  6  2  0
  6  7  1  0
  7  8  2  0
  8  9  1  0
  9 10  2  0
  2 11  1  0
 11 12  1  0
 12 13  1  0
 13 14  1  0
 14 15  1  0
 15 16  2  0
 16 17  1  0
 17 18  1  0
 18 19  1  0
 19 20  1  0
 20 21  1  0
 21 22  2  0
 22 23  1  0
 23 24  2  0
 24 25  1  0
 25 26  2  0
 26 27  1  0
 17 28  2  0
 28 29  1  0
 29 30  1  0
 30 31  1  0
 31 32  1  0
 32 33  1  0
 33 34  2  0
 34 35  1  0
 35 36  2  0
 36 37  1  0
 37 38  2  0
 38 39  1  0
 29 40  2  0
 14 41  1  0
 41 42  1  0
 10  5  1  0
 42 11  1  0
 40 15  1  0
 27 18  1  0
 39 30  1  0
 26 21  1  0
 38 33  1  0
  4 43  1  0
  4 44  1  0
  6 45  1  0
  7 46  1  0
  8 47  1  0
  9 48  1  0
 10 49  1  0
 12 50  1  0
 12 51  1  0
 13 52  1  0
 13 53  1  0
 14 54  1  0
 19 55  1  0
 19 56  1  0
 20 57  1  0
 20 58  1  0
 22 59  1  0
 23 60  1  0
 24 61  1  0
 25 62  1  0
 27 63  1  0
 27 64  1  0
 31 65  1  0
 31 66  1  0
 32 67  1  0
 32 68  1  0
 34 69  1  0
 35 70  1  0
 36 71  1  0
 37 72  1  0
 39 73  1  0
 39 74  1  0
 41 75  1  0
 41 76  1  0
 42 77  1  0
 42 78  1  0
M  END
>  <smiles>  (39) 
O=S(=O)(Cc1ccccc1)N1CCC(c2nc(N3CCc4ccccc4C3)nc(N3CCc4ccccc4C3)n2)CC1

>  <score_type>  (39) 
oracle

>  <origin>  (39) 
autodockgpu

>  <m_score__min__energy>  (39) 
-12.01

>  <m_primary>  (39) 
energy

>  <rmsd>  (39) 
11.237917381425866

>  <m_score__min__rmsd>  (39) 
11.237917381425866

>  <meeko>  (39) 
{"free_energy": -11.04, "intermolecular_energy": -12.83, "internal_energy": -2.07, "cluster_size": 8, "cluster_id": 2, "rank_in_cluster": 4}

>  <energy>  (39) 
-10.32

>  <cluster_rmsd>  (39) 
1.99

>  <cluster>  (39) 
2

$$$$

     RDKit          3D

 78 84  0  0  0  0  0  0  0  0999 V2000
  146.2370   70.0410  216.9280 O   0  0  0  0  0  0  0  0  0  0  0  0
  145.1520   71.0980  216.7750 S   0  0  0  0  0  0  0  0  0  0  0  0
  144.6460   71.0450  215.3450 O   0  0  0  0  0  0  0  0  0  0  0  0
  145.9140   72.6660  216.9870 C   0  0  0  0  0  0  0  0  0  0  0  0
  145.3490   73.3800  218.1420 C   0  0  0  0  0  0  0  0  0  0  0  0
  145.9310   73.1380  219.3810 C   0  0  0  0  0  0  0  0  0  0  0  0
  145.4470   73.7320  220.5430 C   0  0  0  0  0  0  0  0  0  0  0  0
  144.3610   74.5880  220.4910 C   0  0  0  0  0  0  0  0  0  0  0  0
  143.7880   74.8230  219.2610 C   0  0  0  0  0  0  0  0  0  0  0  0
  144.2810   74.2270  218.1180 C   0  0  0  0  0  0  0  0  0  0  0  0
  143.8790   70.8500  217.8250 N   0  0  0  0  0  0  0  0  0  0  0  0
  144.0660   70.2850  219.0850 C   0  0  0  0  0  0  0  0  0  0  0  0
  143.3600   71.0310  220.2130 C   0  0  0  0  0  0  0  0  0  0  0  0
  141.9290   71.2980  219.8080 C   0  0  0  0  0  0  0  0  0  0  0  0
  141.1950   71.9960  220.8670 C   0  0  0  0  0  0  0  0  0  0  0  0
  140.7820   71.4000  222.0170 N   0  0  0  0  0  0  0  0  0  0  0  0
  140.1130   72.0640  222.9660 C   0  0  0  0  0  0  0  0  0  0  0  0
  139.7320   71.3410  224.1280 N   0  0  0  0  0  0  0  0  0  0  0  0
  138.6400   70.4060  224.0340 C   0  0  0  0  0  0  0  0  0  0  0  0
  139.2170   69.0100  224.2960 C   0  0  0  0  0  0  0  0  0  0  0  0
  139.8640   69.0620  225.6320 C   0  0  0  0  0  0  0  0  0  0  0  0
  139.9050   67.8820  226.3520 C   0  0  0  0  0  0  0  0  0  0  0  0
  140.4940   67.8610  227.6040 C   0  0  0  0  0  0  0  0  0  0  0  0
  141.0340   69.0230  228.1160 C   0  0  0  0  0  0  0  0  0  0  0  0
  141.0040   70.2220  227.4090 C   0  0  0  0  0  0  0  0  0  0  0  0
  140.4110   70.2100  226.1650 C   0  0  0  0  0  0  0  0  0  0  0  0
  140.3810   71.4900  225.4130 C   0  0  0  0  0  0  0  0  0  0  0  0
  139.8410   73.3640  222.7750 N   0  0  0  0  0  0  0  0  0  0  0  0
  140.2220   74.0220  221.6520 C   0  0  0  0  0  0  0  0  0  0  0  0
  139.9390   75.4010  221.4400 N   0  0  0  0  0  0  0  0  0  0  0  0
  138.5700   75.7710  221.1570 C   0  0  0  0  0  0  0  0  0  0  0  0
  138.2660   77.2180  221.3510 C   0  0  0  0  0  0  0  0  0  0  0  0
  139.2510   77.9020  222.2220 C   0  0  0  0  0  0  0  0  0  0  0  0
  138.8540   78.9850  222.9810 C   0  0  0  0  0  0  0  0  0  0  0  0
  139.7650   79.6470  223.8100 C   0  0  0  0  0  0  0  0  0  0  0  0
  141.0810   79.2330  223.8900 C   0  0  0  0  0  0  0  0  0  0  0  0
  141.4920   78.1390  223.1270 C   0  0  0  0  0  0  0  0  0  0  0  0
  140.5660   77.5090  222.3190 C   0  0  0  0  0  0  0  0  0  0  0  0
  141.0030   76.3550  221.5130 C   0  0  0  0  0  0  0  0  0  0  0  0
  140.8920   73.3000  220.7360 N   0  0  0  0  0  0  0  0  0  0  0  0
  141.9710   72.1500  218.5590 C   0  0  0  0  0  0  0  0  0  0  0  0
  142.6030   71.3540  217.4680 C   0  0  0  0  0  0  0  0  0  0  0  0
  146.9928   72.5220  217.1468 H   0  0  0  0  0  0  0  0  0  0  0  0
  145.7326   73.2665  216.0834 H   0  0  0  0  0  0  0  0  0  0  0  0
  146.7952   72.4605  219.4447 H   0  0  0  0  0  0  0  0  0  0  0  0
  145.9305   73.5198  221.5080 H   0  0  0  0  0  0  0  0  0  0  0  0
  143.9686   75.0646  221.4014 H   0  0  0  0  0  0  0  0  0  0  0  0
  142.9222   75.4976  219.1882 H   0  0  0  0  0  0  0  0  0  0  0  0
  143.7957   74.4427  217.1547 H   0  0  0  0  0  0  0  0  0  0  0  0
  143.6845   69.2535  219.0612 H   0  0  0  0  0  0  0  0  0  0  0  0
  145.1440   70.3344  219.2980 H   0  0  0  0  0  0  0  0  0  0  0  0
  143.3763   70.4186  221.1266 H   0  0  0  0  0  0  0  0  0  0  0  0
  143.8746   71.9836  220.4069 H   0  0  0  0  0  0  0  0  0  0  0  0
  141.4067   70.3471  219.6263 H   0  0  0  0  0  0  0  0  0  0  0  0
  137.8734   70.6445  224.7860 H   0  0  0  0  0  0  0  0  0  0  0  0
  138.1680   70.4543  223.0416 H   0  0  0  0  0  0  0  0  0  0  0  0
  138.4123   68.2600  224.2930 H   0  0  0  0  0  0  0  0  0  0  0  0
  139.9393   68.7266  223.5163 H   0  0  0  0  0  0  0  0  0  0  0  0
  139.4709   66.9632  225.9309 H   0  0  0  0  0  0  0  0  0  0  0  0
  140.5313   66.9277  228.1850 H   0  0  0  0  0  0  0  0  0  0  0  0
  141.5016   69.0014  229.1114 H   0  0  0  0  0  0  0  0  0  0  0  0
  141.4367   71.1429  227.8270 H   0  0  0  0  0  0  0  0  0  0  0  0
  139.8330   72.2382  226.0045 H   0  0  0  0  0  0  0  0  0  0  0  0
  141.4190   71.8091  225.2379 H   0  0  0  0  0  0  0  0  0  0  0  0
  138.3540   75.5123  220.1099 H   0  0  0  0  0  0  0  0  0  0  0  0
  137.9434   75.2215  221.8749 H   0  0  0  0  0  0  0  0  0  0  0  0
  138.2645   77.7113  220.3678 H   0  0  0  0  0  0  0  0  0  0  0  0
  137.2852   77.2863  221.8444 H   0  0  0  0  0  0  0  0  0  0  0  0
  137.8108   79.3304  222.9331 H   0  0  0  0  0  0  0  0  0  0  0  0
  139.4297   80.5085  224.4062 H   0  0  0  0  0  0  0  0  0  0  0  0
  141.7930   79.7572  224.5444 H   0  0  0  0  0  0  0  0  0  0  0  0
  142.5329   77.7856  223.1684 H   0  0  0  0  0  0  0  0  0  0  0  0
  141.2646   76.6924  220.4992 H   0  0  0  0  0  0  0  0  0  0  0  0
  141.8838   75.8906  221.9804 H   0  0  0  0  0  0  0  0  0  0  0  0
  140.9488   72.4334  218.2679 H   0  0  0  0  0  0  0  0  0  0  0  0
  142.5523   73.0652  218.7449 H   0  0  0  0  0  0  0  0  0  0  0  0
  141.9455   70.5062  217.2251 H   0  0  0  0  0  0  0  0  0  0  0  0
  142.7403   72.0234  216.6060 H   0  0  0  0  0  0  0  0  0  0  0  0
  1  2  2  0
  2  3  2  0
  2  4  1  0
  4  5  1  0
  5  6  2  0
  6  7  1  0
  7  8  2  0
  8  9  1  0
  9 10  2  0
  2 11  1  0
 11 12  1  0
 12 13  1  0
 13 14  1  0
 14 15  1  0
 15 16  2  0
 16 17  1  0
 17 18  1  0
 18 19  1  0
 19 20  1  0
 20 21  1  0
 21 22  2  0
 22 23  1  0
 23 24  2  0
 24 25  1  0
 25 26  2  0
 26 27  1  0
 17 28  2  0
 28 29  1  0
 29 30  1  0
 30 31  1  0
 31 32  1  0
 32 33  1  0
 33 34  2  0
 34 35  1  0
 35 36  2  0
 36 37  1  0
 37 38  2  0
 38 39  1  0
 29 40  2  0
 14 41  1  0
 41 42  1  0
 10  5  1  0
 42 11  1  0
 40 15  1  0
 27 18  1  0
 39 30  1  0
 26 21  1  0
 38 33  1  0
  4 43  1  0
  4 44  1  0
  6 45  1  0
  7 46  1  0
  8 47  1  0
  9 48  1  0
 10 49  1  0
 12 50  1  0
 12 51  1  0
 13 52  1  0
 13 53  1  0
 14 54  1  0
 19 55  1  0
 19 56  1  0
 20 57  1  0
 20 58  1  0
 22 59  1  0
 23 60  1  0
 24 61  1  0
 25 62  1  0
 27 63  1  0
 27 64  1  0
 31 65  1  0
 31 66  1  0
 32 67  1  0
 32 68  1  0
 34 69  1  0
 35 70  1  0
 36 71  1  0
 37 72  1  0
 39 73  1  0
 39 74  1  0
 41 75  1  0
 41 76  1  0
 42 77  1  0
 42 78  1  0
M  END
>  <smiles>  (40) 
O=S(=O)(Cc1ccccc1)N1CCC(c2nc(N3CCc4ccccc4C3)nc(N3CCc4ccccc4C3)n2)CC1

>  <score_type>  (40) 
oracle

>  <origin>  (40) 
autodockgpu

>  <m_score__min__energy>  (40) 
-12.01

>  <m_primary>  (40) 
energy

>  <rmsd>  (40) 
11.492456032598824

>  <m_score__min__rmsd>  (40) 
11.492456032598824

>  <meeko>  (40) 
{"free_energy": -10.31, "intermolecular_energy": -12.1, "internal_energy": -2.74, "cluster_size": 8, "cluster_id": 2, "rank_in_cluster": 8}

>  <energy>  (40) 
-10.31

>  <cluster_rmsd>  (40) 
1.99

>  <cluster>  (40) 
2

$$$$

     RDKit          3D

 78 84  0  0  0  0  0  0  0  0999 V2000
  139.8950   79.1170  218.2790 O   0  0  0  0  0  0  0  0  0  0  0  0
  139.8960   79.2590  219.7940 S   0  0  0  0  0  0  0  0  0  0  0  0
  138.4520   79.2860  220.2620 O   0  0  0  0  0  0  0  0  0  0  0  0
  140.5830   80.8310  220.1730 C   0  0  0  0  0  0  0  0  0  0  0  0
  141.2440   80.8200  221.4860 C   0  0  0  0  0  0  0  0  0  0  0  0
  142.5050   80.2390  221.5540 C   0  0  0  0  0  0  0  0  0  0  0  0
  143.1990   80.1420  222.7560 C   0  0  0  0  0  0  0  0  0  0  0  0
  142.6430   80.6270  223.9270 C   0  0  0  0  0  0  0  0  0  0  0  0
  141.3940   81.2000  223.8540 C   0  0  0  0  0  0  0  0  0  0  0  0
  140.7180   81.2890  222.6530 C   0  0  0  0  0  0  0  0  0  0  0  0
  140.7000   78.0040  220.5440 N   0  0  0  0  0  0  0  0  0  0  0  0
  140.3210   77.5370  221.8010 C   0  0  0  0  0  0  0  0  0  0  0  0
  140.2200   76.0170  221.8970 C   0  0  0  0  0  0  0  0  0  0  0  0
  141.4680   75.4020  221.3040 C   0  0  0  0  0  0  0  0  0  0  0  0
  141.4340   73.9400  221.3890 C   0  0  0  0  0  0  0  0  0  0  0  0
  142.1190   73.1190  220.5480 N   0  0  0  0  0  0  0  0  0  0  0  0
  142.0670   71.7870  220.6510 C   0  0  0  0  0  0  0  0  0  0  0  0
  142.8240   71.0270  219.7190 N   0  0  0  0  0  0  0  0  0  0  0  0
  143.8180   71.7000  218.9220 C   0  0  0  0  0  0  0  0  0  0  0  0
  145.1820   71.1290  219.3240 C   0  0  0  0  0  0  0  0  0  0  0  0
  145.1100   69.6620  219.1010 C   0  0  0  0  0  0  0  0  0  0  0  0
  146.2950   69.0200  218.7910 C   0  0  0  0  0  0  0  0  0  0  0  0
  146.2990   67.6530  218.5710 C   0  0  0  0  0  0  0  0  0  0  0  0
  145.1150   66.9510  218.6660 C   0  0  0  0  0  0  0  0  0  0  0  0
  143.9120   67.5770  218.9770 C   0  0  0  0  0  0  0  0  0  0  0  0
  143.9410   68.9380  219.1900 C   0  0  0  0  0  0  0  0  0  0  0  0
  142.6550   69.6030  219.5220 C   0  0  0  0  0  0  0  0  0  0  0  0
  141.3130   71.2420  221.6190 N   0  0  0  0  0  0  0  0  0  0  0  0
  140.6040   72.0000  222.4920 C   0  0  0  0  0  0  0  0  0  0  0  0
  139.8020   71.4320  223.5220 N   0  0  0  0  0  0  0  0  0  0  0  0
  138.5620   70.7950  223.1350 C   0  0  0  0  0  0  0  0  0  0  0  0
  137.9870   69.8830  224.1650 C   0  0  0  0  0  0  0  0  0  0  0  0
  138.9870   69.4370  225.1640 C   0  0  0  0  0  0  0  0  0  0  0  0
  138.8400   68.2080  225.7740 C   0  0  0  0  0  0  0  0  0  0  0  0
  139.7700   67.7650  226.7190 C   0  0  0  0  0  0  0  0  0  0  0  0
  140.8570   68.5460  227.0640 C   0  0  0  0  0  0  0  0  0  0  0  0
  141.0150   69.7910  226.4520 C   0  0  0  0  0  0  0  0  0  0  0  0
  140.0770   70.1960  225.5230 C   0  0  0  0  0  0  0  0  0  0  0  0
  140.2460   71.5120  224.8800 C   0  0  0  0  0  0  0  0  0  0  0  0
  140.6980   73.3330  222.3370 N   0  0  0  0  0  0  0  0  0  0  0  0
  141.5340   75.8350  219.8570 C   0  0  0  0  0  0  0  0  0  0  0  0
  141.7040   77.3160  219.8160 C   0  0  0  0  0  0  0  0  0  0  0  0
  141.3215   81.0952  219.4018 H   0  0  0  0  0  0  0  0  0  0  0  0
  139.7684   81.5698  220.1994 H   0  0  0  0  0  0  0  0  0  0  0  0
  142.9653   79.8464  220.6353 H   0  0  0  0  0  0  0  0  0  0  0  0
  144.1957   79.6770  222.7757 H   0  0  0  0  0  0  0  0  0  0  0  0
  143.1813   80.5568  224.8837 H   0  0  0  0  0  0  0  0  0  0  0  0
  140.9259   81.5940  224.7681 H   0  0  0  0  0  0  0  0  0  0  0  0
  139.7213   81.7541  222.6375 H   0  0  0  0  0  0  0  0  0  0  0  0
  141.0640   77.8809  222.5357 H   0  0  0  0  0  0  0  0  0  0  0  0
  139.3142   77.9347  221.9967 H   0  0  0  0  0  0  0  0  0  0  0  0
  140.1278   75.7194  222.9520 H   0  0  0  0  0  0  0  0  0  0  0  0
  139.3352   75.6678  221.3446 H   0  0  0  0  0  0  0  0  0  0  0  0
  142.3542   75.7379  221.8623 H   0  0  0  0  0  0  0  0  0  0  0  0
  143.6323   71.5162  217.8535 H   0  0  0  0  0  0  0  0  0  0  0  0
  143.7840   72.7865  219.0902 H   0  0  0  0  0  0  0  0  0  0  0  0
  145.9758   71.5689  218.7025 H   0  0  0  0  0  0  0  0  0  0  0  0
  145.4150   71.3598  220.3740 H   0  0  0  0  0  0  0  0  0  0  0  0
  147.2310   69.5933  218.7195 H   0  0  0  0  0  0  0  0  0  0  0  0
  147.2358   67.1324  218.3232 H   0  0  0  0  0  0  0  0  0  0  0  0
  145.1224   65.8651  218.4908 H   0  0  0  0  0  0  0  0  0  0  0  0
  142.9739   67.0073  219.0500 H   0  0  0  0  0  0  0  0  0  0  0  0
  141.9455   69.4389  218.6976 H   0  0  0  0  0  0  0  0  0  0  0  0
  142.2768   69.1696  220.4596 H   0  0  0  0  0  0  0  0  0  0  0  0
  137.8234   71.5819  222.9222 H   0  0  0  0  0  0  0  0  0  0  0  0
  138.7912   70.1714  222.2583 H   0  0  0  0  0  0  0  0  0  0  0  0
  137.1783   70.4123  224.6902 H   0  0  0  0  0  0  0  0  0  0  0  0
  137.6191   68.9869  223.6437 H   0  0  0  0  0  0  0  0  0  0  0  0
  137.9822   67.5704  225.5140 H   0  0  0  0  0  0  0  0  0  0  0  0
  139.6350   66.7822  227.1942 H   0  0  0  0  0  0  0  0  0  0  0  0
  141.5856   68.1925  227.8085 H   0  0  0  0  0  0  0  0  0  0  0  0
  141.8693   70.4361  226.7047 H   0  0  0  0  0  0  0  0  0  0  0  0
  139.6502   72.2638  225.4183 H   0  0  0  0  0  0  0  0  0  0  0  0
  141.3066   71.8028  224.9058 H   0  0  0  0  0  0  0  0  0  0  0  0
  142.3881   75.3492  219.3625 H   0  0  0  0  0  0  0  0  0  0  0  0
  140.6107   75.5460  219.3336 H   0  0  0  0  0  0  0  0  0  0  0  0
  142.6849   77.5693  220.2444 H   0  0  0  0  0  0  0  0  0  0  0  0
  141.6251   77.6298  218.7647 H   0  0  0  0  0  0  0  0  0  0  0  0
  1  2  2  0
  2  3  2  0
  2  4  1  0
  4  5  1  0
  5  6  2  0
  6  7  1  0
  7  8  2  0
  8  9  1  0
  9 10  2  0
  2 11  1  0
 11 12  1  0
 12 13  1  0
 13 14  1  0
 14 15  1  0
 15 16  2  0
 16 17  1  0
 17 18  1  0
 18 19  1  0
 19 20  1  0
 20 21  1  0
 21 22  2  0
 22 23  1  0
 23 24  2  0
 24 25  1  0
 25 26  2  0
 26 27  1  0
 17 28  2  0
 28 29  1  0
 29 30  1  0
 30 31  1  0
 31 32  1  0
 32 33  1  0
 33 34  2  0
 34 35  1  0
 35 36  2  0
 36 37  1  0
 37 38  2  0
 38 39  1  0
 29 40  2  0
 14 41  1  0
 41 42  1  0
 10  5  1  0
 42 11  1  0
 40 15  1  0
 27 18  1  0
 39 30  1  0
 26 21  1  0
 38 33  1  0
  4 43  1  0
  4 44  1  0
  6 45  1  0
  7 46  1  0
  8 47  1  0
  9 48  1  0
 10 49  1  0
 12 50  1  0
 12 51  1  0
 13 52  1  0
 13 53  1  0
 14 54  1  0
 19 55  1  0
 19 56  1  0
 20 57  1  0
 20 58  1  0
 22 59  1  0
 23 60  1  0
 24 61  1  0
 25 62  1  0
 27 63  1  0
 27 64  1  0
 31 65  1  0
 31 66  1  0
 32 67  1  0
 32 68  1  0
 34 69  1  0
 35 70  1  0
 36 71  1  0
 37 72  1  0
 39 73  1  0
 39 74  1  0
 41 75  1  0
 41 76  1  0
 42 77  1  0
 42 78  1  0
M  END
>  <smiles>  (41) 
O=S(=O)(Cc1ccccc1)N1CCC(c2nc(N3CCc4ccccc4C3)nc(N3CCc4ccccc4C3)n2)CC1

>  <score_type>  (41) 
oracle

>  <origin>  (41) 
autodockgpu

>  <m_score__min__energy>  (41) 
-12.01

>  <m_primary>  (41) 
energy

>  <rmsd>  (41) 
11.186669033106448

>  <m_score__min__rmsd>  (41) 
11.186669033106448

>  <meeko>  (41) 
{"free_energy": -11.08, "intermolecular_energy": -12.87, "internal_energy": -1.92, "cluster_size": 32, "cluster_id": 1, "rank_in_cluster": 24}

>  <energy>  (41) 
-11.67

>  <cluster_rmsd>  (41) 
0.0

>  <cluster>  (41) 
3

$$$$

     RDKit          3D

 78 84  0  0  0  0  0  0  0  0999 V2000
  137.8790   68.1740  225.6790 O   0  0  0  0  0  0  0  0  0  0  0  0
  139.1070   68.3450  224.7970 S   0  0  0  0  0  0  0  0  0  0  0  0
  139.2290   67.1110  223.9210 O   0  0  0  0  0  0  0  0  0  0  0  0
  140.5120   68.3610  225.8510 C   0  0  0  0  0  0  0  0  0  0  0  0
  140.6510   69.6570  226.5330 C   0  0  0  0  0  0  0  0  0  0  0  0
  141.5080   70.5860  225.9540 C   0  0  0  0  0  0  0  0  0  0  0  0
  141.7410   71.8270  226.5400 C   0  0  0  0  0  0  0  0  0  0  0  0
  141.1170   72.1680  227.7270 C   0  0  0  0  0  0  0  0  0  0  0  0
  140.2700   71.2440  228.2950 C   0  0  0  0  0  0  0  0  0  0  0  0
  140.0490   70.0180  227.7010 C   0  0  0  0  0  0  0  0  0  0  0  0
  139.0060   69.7030  223.8330 N   0  0  0  0  0  0  0  0  0  0  0  0
  138.8570   70.9790  224.3760 C   0  0  0  0  0  0  0  0  0  0  0  0
  139.7970   72.0220  223.7790 C   0  0  0  0  0  0  0  0  0  0  0  0
  139.7440   71.9280  222.2710 C   0  0  0  0  0  0  0  0  0  0  0  0
  140.6140   72.9260  221.6420 C   0  0  0  0  0  0  0  0  0  0  0  0
  140.3670   74.2630  221.6640 N   0  0  0  0  0  0  0  0  0  0  0  0
  141.1790   75.1490  221.0810 C   0  0  0  0  0  0  0  0  0  0  0  0
  140.8240   76.5220  221.1670 N   0  0  0  0  0  0  0  0  0  0  0  0
  139.4370   76.8680  221.3550 C   0  0  0  0  0  0  0  0  0  0  0  0
  139.3230   77.5480  222.7240 C   0  0  0  0  0  0  0  0  0  0  0  0
  140.2450   78.7130  222.6960 C   0  0  0  0  0  0  0  0  0  0  0  0
  139.9070   79.7950  223.4880 C   0  0  0  0  0  0  0  0  0  0  0  0
  140.7230   80.9120  223.5090 C   0  0  0  0  0  0  0  0  0  0  0  0
  141.8660   80.9290  222.7370 C   0  0  0  0  0  0  0  0  0  0  0  0
  142.2260   79.8520  221.9330 C   0  0  0  0  0  0  0  0  0  0  0  0
  141.3930   78.7530  221.9340 C   0  0  0  0  0  0  0  0  0  0  0  0
  141.7800   77.6050  221.0750 C   0  0  0  0  0  0  0  0  0  0  0  0
  142.2790   74.7030  220.4530 N   0  0  0  0  0  0  0  0  0  0  0  0
  142.5870   73.3840  220.3920 C   0  0  0  0  0  0  0  0  0  0  0  0
  143.7500   72.9000  219.7280 N   0  0  0  0  0  0  0  0  0  0  0  0
  145.0380   73.2490  220.2860 C   0  0  0  0  0  0  0  0  0  0  0  0
  146.1690   72.4000  219.8130 C   0  0  0  0  0  0  0  0  0  0  0  0
  145.7220   71.1020  219.2540 C   0  0  0  0  0  0  0  0  0  0  0  0
  146.5510   70.0030  219.3350 C   0  0  0  0  0  0  0  0  0  0  0  0
  146.1520   68.7680  218.8150 C   0  0  0  0  0  0  0  0  0  0  0  0
  144.9190   68.6200  218.2100 C   0  0  0  0  0  0  0  0  0  0  0  0
  144.0710   69.7260  218.1230 C   0  0  0  0  0  0  0  0  0  0  0  0
  144.4990   70.9300  218.6470 C   0  0  0  0  0  0  0  0  0  0  0  0
  143.6030   72.0970  218.5530 C   0  0  0  0  0  0  0  0  0  0  0  0
  141.7300   72.5420  220.9980 N   0  0  0  0  0  0  0  0  0  0  0  0
  140.1980   70.5360  221.8950 C   0  0  0  0  0  0  0  0  0  0  0  0
  139.2120   69.5570  222.4380 C   0  0  0  0  0  0  0  0  0  0  0  0
  140.4033   67.5682  226.6058 H   0  0  0  0  0  0  0  0  0  0  0  0
  141.4094   68.1923  225.2376 H   0  0  0  0  0  0  0  0  0  0  0  0
  142.0140   70.3344  225.0103 H   0  0  0  0  0  0  0  0  0  0  0  0
  142.4248   72.5404  226.0568 H   0  0  0  0  0  0  0  0  0  0  0  0
  141.2922   73.1451  228.2009 H   0  0  0  0  0  0  0  0  0  0  0  0
  139.7602   71.4868  229.2390 H   0  0  0  0  0  0  0  0  0  0  0  0
  139.3635   69.3081  228.1870 H   0  0  0  0  0  0  0  0  0  0  0  0
  137.8215   71.3087  224.2052 H   0  0  0  0  0  0  0  0  0  0  0  0
  139.1063   70.9009  225.4445 H   0  0  0  0  0  0  0  0  0  0  0  0
  139.4823   73.0269  224.0970 H   0  0  0  0  0  0  0  0  0  0  0  0
  140.8243   71.8381  224.1266 H   0  0  0  0  0  0  0  0  0  0  0  0
  138.7205   72.1239  221.9188 H   0  0  0  0  0  0  0  0  0  0  0  0
  139.1095   77.5575  220.5629 H   0  0  0  0  0  0  0  0  0  0  0  0
  138.8005   75.9720  221.3090 H   0  0  0  0  0  0  0  0  0  0  0  0
  138.2901   77.8852  222.8957 H   0  0  0  0  0  0  0  0  0  0  0  0
  139.5852   76.8534  223.5356 H   0  0  0  0  0  0  0  0  0  0  0  0
  138.9927   79.7677  224.0990 H   0  0  0  0  0  0  0  0  0  0  0  0
  140.4629   81.7781  224.1352 H   0  0  0  0  0  0  0  0  0  0  0  0
  142.5114   81.8195  222.7576 H   0  0  0  0  0  0  0  0  0  0  0  0
  143.1394   79.8762  221.3205 H   0  0  0  0  0  0  0  0  0  0  0  0
  141.8351   77.9442  220.0300 H   0  0  0  0  0  0  0  0  0  0  0  0
  142.7556   77.2318  221.4200 H   0  0  0  0  0  0  0  0  0  0  0  0
  145.2569   74.2931  220.0176 H   0  0  0  0  0  0  0  0  0  0  0  0
  144.9612   73.0902  221.3718 H   0  0  0  0  0  0  0  0  0  0  0  0
  146.7167   72.9483  219.0324 H   0  0  0  0  0  0  0  0  0  0  0  0
  146.8050   72.1827  220.6838 H   0  0  0  0  0  0  0  0  0  0  0  0
  147.5367   70.0990  219.8138 H   0  0  0  0  0  0  0  0  0  0  0  0
  146.8283   67.9036  218.8886 H   0  0  0  0  0  0  0  0  0  0  0  0
  144.6099   67.6459  217.8030 H   0  0  0  0  0  0  0  0  0  0  0  0
  143.0830   69.6401  217.6472 H   0  0  0  0  0  0  0  0  0  0  0  0
  143.8658   72.6919  217.6658 H   0  0  0  0  0  0  0  0  0  0  0  0
  142.5607   71.7562  218.4668 H   0  0  0  0  0  0  0  0  0  0  0  0
  140.2480   70.4445  220.8000 H   0  0  0  0  0  0  0  0  0  0  0  0
  141.1964   70.3382  222.3123 H   0  0  0  0  0  0  0  0  0  0  0  0
  138.2509   69.7035  221.9233 H   0  0  0  0  0  0  0  0  0  0  0  0
  139.6166   68.5486  222.2661 H   0  0  0  0  0  0  0  0  0  0  0  0
  1  2  2  0
  2  3  2  0
  2  4  1  0
  4  5  1  0
  5  6  2  0
  6  7  1  0
  7  8  2  0
  8  9  1  0
  9 10  2  0
  2 11  1  0
 11 12  1  0
 12 13  1  0
 13 14  1  0
 14 15  1  0
 15 16  2  0
 16 17  1  0
 17 18  1  0
 18 19  1  0
 19 20  1  0
 20 21  1  0
 21 22  2  0
 22 23  1  0
 23 24  2  0
 24 25  1  0
 25 26  2  0
 26 27  1  0
 17 28  2  0
 28 29  1  0
 29 30  1  0
 30 31  1  0
 31 32  1  0
 32 33  1  0
 33 34  2  0
 34 35  1  0
 35 36  2  0
 36 37  1  0
 37 38  2  0
 38 39  1  0
 29 40  2  0
 14 41  1  0
 41 42  1  0
 10  5  1  0
 42 11  1  0
 40 15  1  0
 27 18  1  0
 39 30  1  0
 26 21  1  0
 38 33  1  0
  4 43  1  0
  4 44  1  0
  6 45  1  0
  7 46  1  0
  8 47  1  0
  9 48  1  0
 10 49  1  0
 12 50  1  0
 12 51  1  0
 13 52  1  0
 13 53  1  0
 14 54  1  0
 19 55  1  0
 19 56  1  0
 20 57  1  0
 20 58  1  0
 22 59  1  0
 23 60  1  0
 24 61  1  0
 25 62  1  0
 27 63  1  0
 27 64  1  0
 31 65  1  0
 31 66  1  0
 32 67  1  0
 32 68  1  0
 34 69  1  0
 35 70  1  0
 36 71  1  0
 37 72  1  0
 39 73  1  0
 39 74  1  0
 41 75  1  0
 41 76  1  0
 42 77  1  0
 42 78  1  0
M  END
>  <smiles>  (42) 
O=S(=O)(Cc1ccccc1)N1CCC(c2nc(N3CCc4ccccc4C3)nc(N3CCc4ccccc4C3)n2)CC1

>  <score_type>  (42) 
oracle

>  <origin>  (42) 
autodockgpu

>  <m_score__min__energy>  (42) 
-12.01

>  <m_primary>  (42) 
energy

>  <rmsd>  (42) 
5.000726042517447

>  <m_score__min__rmsd>  (42) 
5.000726042517447

>  <meeko>  (42) 
{"free_energy": -11.54, "intermolecular_energy": -13.33, "internal_energy": -1.95, "cluster_size": 2, "cluster_id": 3, "rank_in_cluster": 2}

>  <energy>  (42) 
-11.54

>  <cluster_rmsd>  (42) 
0.41

>  <cluster>  (42) 
3

$$$$

     RDKit          3D

 78 84  0  0  0  0  0  0  0  0999 V2000
  138.4610   80.7820  221.4820 O   0  0  0  0  0  0  0  0  0  0  0  0
  138.0850   79.5860  222.3440 S   0  0  0  0  0  0  0  0  0  0  0  0
  136.5940   79.6590  222.6210 O   0  0  0  0  0  0  0  0  0  0  0  0
  138.8990   79.7760  223.8890 C   0  0  0  0  0  0  0  0  0  0  0  0
  140.3520   79.9140  223.7110 C   0  0  0  0  0  0  0  0  0  0  0  0
  140.8710   81.2030  223.7220 C   0  0  0  0  0  0  0  0  0  0  0  0
  142.2270   81.4460  223.5220 C   0  0  0  0  0  0  0  0  0  0  0  0
  143.1010   80.3940  223.3050 C   0  0  0  0  0  0  0  0  0  0  0  0
  142.5820   79.1200  223.2950 C   0  0  0  0  0  0  0  0  0  0  0  0
  141.2340   78.8960  223.4950 C   0  0  0  0  0  0  0  0  0  0  0  0
  138.4420   78.1350  221.5990 N   0  0  0  0  0  0  0  0  0  0  0  0
  139.6210   77.9510  220.8800 C   0  0  0  0  0  0  0  0  0  0  0  0
  140.3540   76.6530  221.2090 C   0  0  0  0  0  0  0  0  0  0  0  0
  139.3670   75.5080  221.1780 C   0  0  0  0  0  0  0  0  0  0  0  0
  140.0230   74.2300  221.4670 C   0  0  0  0  0  0  0  0  0  0  0  0
  139.6920   73.4320  222.5170 N   0  0  0  0  0  0  0  0  0  0  0  0
  140.3100   72.2710  222.7540 C   0  0  0  0  0  0  0  0  0  0  0  0
  139.8810   71.5170  223.8800 N   0  0  0  0  0  0  0  0  0  0  0  0
  138.7030   70.6960  223.7550 C   0  0  0  0  0  0  0  0  0  0  0  0
  139.1490   69.2390  223.9180 C   0  0  0  0  0  0  0  0  0  0  0  0
  139.8200   69.1470  225.2400 C   0  0  0  0  0  0  0  0  0  0  0  0
  139.7600   67.9260  225.8870 C   0  0  0  0  0  0  0  0  0  0  0  0
  140.3660   67.7720  227.1220 C   0  0  0  0  0  0  0  0  0  0  0  0
  141.0230   68.8430  227.6900 C   0  0  0  0  0  0  0  0  0  0  0  0
  141.0960   70.0810  227.0570 C   0  0  0  0  0  0  0  0  0  0  0  0
  140.4840   70.2020  225.8290 C   0  0  0  0  0  0  0  0  0  0  0  0
  140.5630   71.5240  225.1560 C   0  0  0  0  0  0  0  0  0  0  0  0
  141.2920   71.8790  221.9260 N   0  0  0  0  0  0  0  0  0  0  0  0
  141.6740   72.6250  220.8600 C   0  0  0  0  0  0  0  0  0  0  0  0
  142.7130   72.2200  219.9750 N   0  0  0  0  0  0  0  0  0  0  0  0
  143.9440   72.9790  219.9910 C   0  0  0  0  0  0  0  0  0  0  0  0
  145.1090   72.2830  219.3710 C   0  0  0  0  0  0  0  0  0  0  0  0
  144.9250   70.8150  219.2870 C   0  0  0  0  0  0  0  0  0  0  0  0
  146.0280   69.9860  219.3300 C   0  0  0  0  0  0  0  0  0  0  0  0
  145.8810   68.5990  219.2520 C   0  0  0  0  0  0  0  0  0  0  0  0
  144.6300   68.0240  219.1320 C   0  0  0  0  0  0  0  0  0  0  0  0
  143.5080   68.8530  219.0870 C   0  0  0  0  0  0  0  0  0  0  0  0
  143.6900   70.2200  219.1660 C   0  0  0  0  0  0  0  0  0  0  0  0
  142.5040   71.0940  219.1180 C   0  0  0  0  0  0  0  0  0  0  0  0
  141.0140   73.7830  220.6740 N   0  0  0  0  0  0  0  0  0  0  0  0
  138.3160   75.7980  222.2250 C   0  0  0  0  0  0  0  0  0  0  0  0
  137.5800   77.0320  221.8240 C   0  0  0  0  0  0  0  0  0  0  0  0
  138.5119   80.6754  224.3903 H   0  0  0  0  0  0  0  0  0  0  0  0
  138.7061   78.8798  224.4969 H   0  0  0  0  0  0  0  0  0  0  0  0
  140.1934   82.0525  223.8930 H   0  0  0  0  0  0  0  0  0  0  0  0
  142.6061   82.4785  223.5364 H   0  0  0  0  0  0  0  0  0  0  0  0
  144.1749   80.5712  223.1458 H   0  0  0  0  0  0  0  0  0  0  0  0
  143.2525   78.2647  223.1247 H   0  0  0  0  0  0  0  0  0  0  0  0
  140.8589   77.8620  223.4796 H   0  0  0  0  0  0  0  0  0  0  0  0
  139.3750   77.9469  219.8079 H   0  0  0  0  0  0  0  0  0  0  0  0
  140.2944   78.7753  221.1575 H   0  0  0  0  0  0  0  0  0  0  0  0
  141.1454   76.4778  220.4653 H   0  0  0  0  0  0  0  0  0  0  0  0
  140.8072   76.7256  222.2087 H   0  0  0  0  0  0  0  0  0  0  0  0
  138.9211   75.4233  220.1760 H   0  0  0  0  0  0  0  0  0  0  0  0
  137.9760   70.9578  224.5379 H   0  0  0  0  0  0  0  0  0  0  0  0
  138.2202   70.8505  222.7787 H   0  0  0  0  0  0  0  0  0  0  0  0
  138.2769   68.5692  223.8874 H   0  0  0  0  0  0  0  0  0  0  0  0
  139.8278   68.9383  223.1063 H   0  0  0  0  0  0  0  0  0  0  0  0
  139.2325   67.0802  225.4218 H   0  0  0  0  0  0  0  0  0  0  0  0
  140.3239   66.8052  227.6449 H   0  0  0  0  0  0  0  0  0  0  0  0
  141.5032   68.7157  228.6714 H   0  0  0  0  0  0  0  0  0  0  0  0
  141.6219   70.9293  227.5195 H   0  0  0  0  0  0  0  0  0  0  0  0
  140.0989   72.2821  225.8040 H   0  0  0  0  0  0  0  0  0  0  0  0
  141.6235   71.7543  224.9765 H   0  0  0  0  0  0  0  0  0  0  0  0
  143.7751   73.9188  219.4450 H   0  0  0  0  0  0  0  0  0  0  0  0
  144.2006   73.1359  221.0491 H   0  0  0  0  0  0  0  0  0  0  0  0
  145.2533   72.6775  218.3544 H   0  0  0  0  0  0  0  0  0  0  0  0
  145.9842   72.4702  220.0105 H   0  0  0  0  0  0  0  0  0  0  0  0
  147.0332   70.4222  219.4267 H   0  0  0  0  0  0  0  0  0  0  0  0
  146.7728   67.9560  219.2865 H   0  0  0  0  0  0  0  0  0  0  0  0
  144.5204   66.9311  219.0729 H   0  0  0  0  0  0  0  0  0  0  0  0
  142.4988   68.4262  218.9905 H   0  0  0  0  0  0  0  0  0  0  0  0
  142.3449   71.4415  218.0865 H   0  0  0  0  0  0  0  0  0  0  0  0
  141.6189   70.5338  219.4540 H   0  0  0  0  0  0  0  0  0  0  0  0
  137.6153   74.9527  222.2921 H   0  0  0  0  0  0  0  0  0  0  0  0
  138.7904   75.9430  223.2068 H   0  0  0  0  0  0  0  0  0  0  0  0
  137.0245   76.8249  220.8974 H   0  0  0  0  0  0  0  0  0  0  0  0
  136.9063   77.3004  222.6511 H   0  0  0  0  0  0  0  0  0  0  0  0
  1  2  2  0
  2  3  2  0
  2  4  1  0
  4  5  1  0
  5  6  2  0
  6  7  1  0
  7  8  2  0
  8  9  1  0
  9 10  2  0
  2 11  1  0
 11 12  1  0
 12 13  1  0
 13 14  1  0
 14 15  1  0
 15 16  2  0
 16 17  1  0
 17 18  1  0
 18 19  1  0
 19 20  1  0
 20 21  1  0
 21 22  2  0
 22 23  1  0
 23 24  2  0
 24 25  1  0
 25 26  2  0
 26 27  1  0
 17 28  2  0
 28 29  1  0
 29 30  1  0
 30 31  1  0
 31 32  1  0
 32 33  1  0
 33 34  2  0
 34 35  1  0
 35 36  2  0
 36 37  1  0
 37 38  2  0
 38 39  1  0
 29 40  2  0
 14 41  1  0
 41 42  1  0
 10  5  1  0
 42 11  1  0
 40 15  1  0
 27 18  1  0
 39 30  1  0
 26 21  1  0
 38 33  1  0
  4 43  1  0
  4 44  1  0
  6 45  1  0
  7 46  1  0
  8 47  1  0
  9 48  1  0
 10 49  1  0
 12 50  1  0
 12 51  1  0
 13 52  1  0
 13 53  1  0
 14 54  1  0
 19 55  1  0
 19 56  1  0
 20 57  1  0
 20 58  1  0
 22 59  1  0
 23 60  1  0
 24 61  1  0
 25 62  1  0
 27 63  1  0
 27 64  1  0
 31 65  1  0
 31 66  1  0
 32 67  1  0
 32 68  1  0
 34 69  1  0
 35 70  1  0
 36 71  1  0
 37 72  1  0
 39 73  1  0
 39 74  1  0
 41 75  1  0
 41 76  1  0
 42 77  1  0
 42 78  1  0
M  END
>  <smiles>  (43) 
O=S(=O)(Cc1ccccc1)N1CCC(c2nc(N3CCc4ccccc4C3)nc(N3CCc4ccccc4C3)n2)CC1

>  <score_type>  (43) 
oracle

>  <origin>  (43) 
autodockgpu

>  <m_score__min__energy>  (43) 
-12.01

>  <m_primary>  (43) 
energy

>  <rmsd>  (43) 
11.277956730512086

>  <m_score__min__rmsd>  (43) 
11.277956730512086

>  <meeko>  (43) 
{"free_energy": -11.64, "intermolecular_energy": -13.43, "internal_energy": -1.92, "cluster_size": 32, "cluster_id": 1, "rank_in_cluster": 10}

>  <energy>  (43) 
-10.44

>  <cluster_rmsd>  (43) 
0.0

>  <cluster>  (43) 
4

$$$$

     RDKit          3D

 78 84  0  0  0  0  0  0  0  0999 V2000
  145.8970   68.9250  217.2020 O   0  0  0  0  0  0  0  0  0  0  0  0
  145.7150   69.2780  218.6710 S   0  0  0  0  0  0  0  0  0  0  0  0
  147.0770   69.6350  219.2380 O   0  0  0  0  0  0  0  0  0  0  0  0
  145.1850   67.8210  219.4980 C   0  0  0  0  0  0  0  0  0  0  0  0
  143.8940   67.3520  218.9740 C   0  0  0  0  0  0  0  0  0  0  0  0
  142.7520   67.7380  219.6670 C   0  0  0  0  0  0  0  0  0  0  0  0
  141.4850   67.3150  219.2780 C   0  0  0  0  0  0  0  0  0  0  0  0
  141.3300   66.4900  218.1770 C   0  0  0  0  0  0  0  0  0  0  0  0
  142.4630   66.1110  217.4950 C   0  0  0  0  0  0  0  0  0  0  0  0
  143.7140   66.5390  217.8940 C   0  0  0  0  0  0  0  0  0  0  0  0
  144.6690   70.5610  218.8860 N   0  0  0  0  0  0  0  0  0  0  0  0
  143.3700   70.5420  218.3820 C   0  0  0  0  0  0  0  0  0  0  0  0
  142.3080   70.9870  219.3820 C   0  0  0  0  0  0  0  0  0  0  0  0
  142.7530   72.2780  220.0310 C   0  0  0  0  0  0  0  0  0  0  0  0
  141.7550   72.7660  220.9880 C   0  0  0  0  0  0  0  0  0  0  0  0
  141.1860   71.9860  221.9470 N   0  0  0  0  0  0  0  0  0  0  0  0
  140.2780   72.4600  222.8060 C   0  0  0  0  0  0  0  0  0  0  0  0
  139.7500   71.5570  223.7670 N   0  0  0  0  0  0  0  0  0  0  0  0
  138.6370   70.7210  223.3940 C   0  0  0  0  0  0  0  0  0  0  0  0
  139.1280   69.2700  223.4360 C   0  0  0  0  0  0  0  0  0  0  0  0
  139.6340   69.0340  224.8130 C   0  0  0  0  0  0  0  0  0  0  0  0
  139.5530   67.7400  225.2930 C   0  0  0  0  0  0  0  0  0  0  0  0
  140.0090   67.4510  226.5680 C   0  0  0  0  0  0  0  0  0  0  0  0
  140.5390   68.4630  227.3420 C   0  0  0  0  0  0  0  0  0  0  0  0
  140.6310   69.7720  226.8780 C   0  0  0  0  0  0  0  0  0  0  0  0
  140.1690   70.0270  225.6050 C   0  0  0  0  0  0  0  0  0  0  0  0
  140.2680   71.4250  225.1120 C   0  0  0  0  0  0  0  0  0  0  0  0
  139.9170   73.7500  222.7190 N   0  0  0  0  0  0  0  0  0  0  0  0
  140.4430   74.5840  221.7880 C   0  0  0  0  0  0  0  0  0  0  0  0
  140.0670   75.9530  221.6870 N   0  0  0  0  0  0  0  0  0  0  0  0
  138.7280   76.3150  222.0950 C   0  0  0  0  0  0  0  0  0  0  0  0
  138.5310   77.7710  222.3560 C   0  0  0  0  0  0  0  0  0  0  0  0
  139.8040   78.4880  222.6070 C   0  0  0  0  0  0  0  0  0  0  0  0
  139.8090   79.6040  223.4190 C   0  0  0  0  0  0  0  0  0  0  0  0
  140.9960   80.2980  223.6710 C   0  0  0  0  0  0  0  0  0  0  0  0
  142.1910   79.8830  223.1140 C   0  0  0  0  0  0  0  0  0  0  0  0
  142.1970   78.7560  222.2910 C   0  0  0  0  0  0  0  0  0  0  0  0
  141.0060   78.0950  222.0640 C   0  0  0  0  0  0  0  0  0  0  0  0
  141.0150   76.9050  221.1930 C   0  0  0  0  0  0  0  0  0  0  0  0
  141.3520   74.0480  220.9530 N   0  0  0  0  0  0  0  0  0  0  0  0
  144.0560   71.9940  220.7410 C   0  0  0  0  0  0  0  0  0  0  0  0
  145.0800   71.6330  219.7180 C   0  0  0  0  0  0  0  0  0  0  0  0
  145.9384   67.0325  219.3541 H   0  0  0  0  0  0  0  0  0  0  0  0
  145.0641   68.0515  220.5668 H   0  0  0  0  0  0  0  0  0  0  0  0
  142.8528   68.3939  220.5443 H   0  0  0  0  0  0  0  0  0  0  0  0
  140.6015   67.6378  219.8483 H   0  0  0  0  0  0  0  0  0  0  0  0
  140.3340   66.1489  217.8582 H   0  0  0  0  0  0  0  0  0  0  0  0
  142.3709   65.4555  216.6164 H   0  0  0  0  0  0  0  0  0  0  0  0
  144.5949   66.2132  217.3214 H   0  0  0  0  0  0  0  0  0  0  0  0
  143.3274   71.2128  217.5113 H   0  0  0  0  0  0  0  0  0  0  0  0
  143.1449   69.4966  218.1241 H   0  0  0  0  0  0  0  0  0  0  0  0
  141.3534   71.1469  218.8594 H   0  0  0  0  0  0  0  0  0  0  0  0
  142.1734   70.2118  220.1507 H   0  0  0  0  0  0  0  0  0  0  0  0
  142.8770   73.0595  219.2668 H   0  0  0  0  0  0  0  0  0  0  0  0
  137.8074   70.8591  224.1030 H   0  0  0  0  0  0  0  0  0  0  0  0
  138.2717   70.9813  222.3896 H   0  0  0  0  0  0  0  0  0  0  0  0
  138.2992   68.5820  223.2129 H   0  0  0  0  0  0  0  0  0  0  0  0
  139.9155   69.0954  222.6881 H   0  0  0  0  0  0  0  0  0  0  0  0
  139.1281   66.9434  224.6646 H   0  0  0  0  0  0  0  0  0  0  0  0
  139.9494   66.4249  226.9600 H   0  0  0  0  0  0  0  0  0  0  0  0
  140.8991   68.2285  228.3546 H   0  0  0  0  0  0  0  0  0  0  0  0
  141.0557   70.5715  227.5028 H   0  0  0  0  0  0  0  0  0  0  0  0
  139.6920   72.0806  225.7816 H   0  0  0  0  0  0  0  0  0  0  0  0
  141.3305   71.7094  225.0993 H   0  0  0  0  0  0  0  0  0  0  0  0
  138.0327   76.0120  221.2983 H   0  0  0  0  0  0  0  0  0  0  0  0
  138.5422   75.7991  223.0486 H   0  0  0  0  0  0  0  0  0  0  0  0
  138.0408   78.2216  221.4805 H   0  0  0  0  0  0  0  0  0  0  0  0
  137.9147   77.8641  223.2624 H   0  0  0  0  0  0  0  0  0  0  0  0
  138.8689   79.9510  223.8727 H   0  0  0  0  0  0  0  0  0  0  0  0
  140.9788   81.1855  224.3207 H   0  0  0  0  0  0  0  0  0  0  0  0
  143.1223   80.4323  223.3162 H   0  0  0  0  0  0  0  0  0  0  0  0
  143.1318   78.4013  221.8323 H   0  0  0  0  0  0  0  0  0  0  0  0
  140.7430   77.1972  220.1680 H   0  0  0  0  0  0  0  0  0  0  0  0
  142.0200   76.4577  221.1887 H   0  0  0  0  0  0  0  0  0  0  0  0
  144.3811   72.8883  221.2928 H   0  0  0  0  0  0  0  0  0  0  0  0
  143.9257   71.1666  221.4540 H   0  0  0  0  0  0  0  0  0  0  0  0
  145.2731   72.5135  219.0876 H   0  0  0  0  0  0  0  0  0  0  0  0
  145.9846   71.3095  220.2537 H   0  0  0  0  0  0  0  0  0  0  0  0
  1  2  2  0
  2  3  2  0
  2  4  1  0
  4  5  1  0
  5  6  2  0
  6  7  1  0
  7  8  2  0
  8  9  1  0
  9 10  2  0
  2 11  1  0
 11 12  1  0
 12 13  1  0
 13 14  1  0
 14 15  1  0
 15 16  2  0
 16 17  1  0
 17 18  1  0
 18 19  1  0
 19 20  1  0
 20 21  1  0
 21 22  2  0
 22 23  1  0
 23 24  2  0
 24 25  1  0
 25 26  2  0
 26 27  1  0
 17 28  2  0
 28 29  1  0
 29 30  1  0
 30 31  1  0
 31 32  1  0
 32 33  1  0
 33 34  2  0
 34 35  1  0
 35 36  2  0
 36 37  1  0
 37 38  2  0
 38 39  1  0
 29 40  2  0
 14 41  1  0
 41 42  1  0
 10  5  1  0
 42 11  1  0
 40 15  1  0
 27 18  1  0
 39 30  1  0
 26 21  1  0
 38 33  1  0
  4 43  1  0
  4 44  1  0
  6 45  1  0
  7 46  1  0
  8 47  1  0
  9 48  1  0
 10 49  1  0
 12 50  1  0
 12 51  1  0
 13 52  1  0
 13 53  1  0
 14 54  1  0
 19 55  1  0
 19 56  1  0
 20 57  1  0
 20 58  1  0
 22 59  1  0
 23 60  1  0
 24 61  1  0
 25 62  1  0
 27 63  1  0
 27 64  1  0
 31 65  1  0
 31 66  1  0
 32 67  1  0
 32 68  1  0
 34 69  1  0
 35 70  1  0
 36 71  1  0
 37 72  1  0
 39 73  1  0
 39 74  1  0
 41 75  1  0
 41 76  1  0
 42 77  1  0
 42 78  1  0
M  END
>  <smiles>  (44) 
O=S(=O)(Cc1ccccc1)N1CCC(c2nc(N3CCc4ccccc4C3)nc(N3CCc4ccccc4C3)n2)CC1

>  <score_type>  (44) 
oracle

>  <origin>  (44) 
autodockgpu

>  <m_score__min__energy>  (44) 
-12.01

>  <m_primary>  (44) 
energy

>  <rmsd>  (44) 
11.242557619723078

>  <m_score__min__rmsd>  (44) 
11.242557619723078

>  <meeko>  (44) 
{"free_energy": -11.15, "intermolecular_energy": -12.94, "internal_energy": -2.0, "cluster_size": 8, "cluster_id": 2, "rank_in_cluster": 3}

>  <energy>  (44) 
-10.27

>  <cluster_rmsd>  (44) 
0.46

>  <cluster>  (44) 
4

$$$$

     RDKit          3D

 78 84  0  0  0  0  0  0  0  0999 V2000
  139.3210   80.0700  218.4990 O   0  0  0  0  0  0  0  0  0  0  0  0
  139.7360   79.7180  219.9200 S   0  0  0  0  0  0  0  0  0  0  0  0
  139.0400   80.6830  220.8620 O   0  0  0  0  0  0  0  0  0  0  0  0
  141.4590   80.0280  220.0560 C   0  0  0  0  0  0  0  0  0  0  0  0
  141.8480   80.2710  221.4530 C   0  0  0  0  0  0  0  0  0  0  0  0
  142.2300   79.1660  222.2040 C   0  0  0  0  0  0  0  0  0  0  0  0
  142.5780   79.2810  223.5460 C   0  0  0  0  0  0  0  0  0  0  0  0
  142.5500   80.5140  224.1730 C   0  0  0  0  0  0  0  0  0  0  0  0
  142.1700   81.6050  223.4250 C   0  0  0  0  0  0  0  0  0  0  0  0
  141.8290   81.4750  222.0940 C   0  0  0  0  0  0  0  0  0  0  0  0
  139.3260   78.1520  220.3260 N   0  0  0  0  0  0  0  0  0  0  0  0
  139.1040   77.1760  219.3560 C   0  0  0  0  0  0  0  0  0  0  0  0
  139.8090   75.8520  219.6320 C   0  0  0  0  0  0  0  0  0  0  0  0
  139.5460   75.4420  221.0630 C   0  0  0  0  0  0  0  0  0  0  0  0
  140.1840   74.1600  221.3780 C   0  0  0  0  0  0  0  0  0  0  0  0
  139.8410   73.3880  222.4430 N   0  0  0  0  0  0  0  0  0  0  0  0
  140.4430   72.2230  222.7040 C   0  0  0  0  0  0  0  0  0  0  0  0
  140.0020   71.4980  223.8440 N   0  0  0  0  0  0  0  0  0  0  0  0
  138.8040   70.7050  223.7380 C   0  0  0  0  0  0  0  0  0  0  0  0
  139.2140   69.2400  223.9220 C   0  0  0  0  0  0  0  0  0  0  0  0
  139.8910   69.1510  225.2420 C   0  0  0  0  0  0  0  0  0  0  0  0
  139.8050   67.9420  225.9070 C   0  0  0  0  0  0  0  0  0  0  0  0
  140.4140   67.7920  227.1410 C   0  0  0  0  0  0  0  0  0  0  0  0
  141.1020   68.8560  227.6890 C   0  0  0  0  0  0  0  0  0  0  0  0
  141.2010   70.0810  227.0360 C   0  0  0  0  0  0  0  0  0  0  0  0
  140.5840   70.1990  225.8100 C   0  0  0  0  0  0  0  0  0  0  0  0
  140.6920   71.5070  225.1160 C   0  0  0  0  0  0  0  0  0  0  0  0
  141.4190   71.8020  221.8850 N   0  0  0  0  0  0  0  0  0  0  0  0
  141.8130   72.5210  220.8040 C   0  0  0  0  0  0  0  0  0  0  0  0
  142.8470   72.0840  219.9300 N   0  0  0  0  0  0  0  0  0  0  0  0
  144.0770   72.8450  219.9080 C   0  0  0  0  0  0  0  0  0  0  0  0
  145.2390   72.1280  219.3080 C   0  0  0  0  0  0  0  0  0  0  0  0
  145.0570   70.6570  219.2810 C   0  0  0  0  0  0  0  0  0  0  0  0
  146.1620   69.8320  219.3490 C   0  0  0  0  0  0  0  0  0  0  0  0
  146.0160   68.4420  219.3240 C   0  0  0  0  0  0  0  0  0  0  0  0
  144.7650   67.8620  219.2330 C   0  0  0  0  0  0  0  0  0  0  0  0
  143.6410   68.6870  219.1640 C   0  0  0  0  0  0  0  0  0  0  0  0
  143.8230   70.0560  219.1900 C   0  0  0  0  0  0  0  0  0  0  0  0
  142.6340   70.9260  219.1170 C   0  0  0  0  0  0  0  0  0  0  0  0
  141.1690   73.6840  220.5950 N   0  0  0  0  0  0  0  0  0  0  0  0
  140.1070   76.5310  221.9490 C   0  0  0  0  0  0  0  0  0  0  0  0
  139.3410   77.7850  221.6960 C   0  0  0  0  0  0  0  0  0  0  0  0
  142.0113   79.1557  219.6765 H   0  0  0  0  0  0  0  0  0  0  0  0
  141.6985   80.9257  219.4671 H   0  0  0  0  0  0  0  0  0  0  0  0
  142.2579   78.1759  221.7255 H   0  0  0  0  0  0  0  0  0  0  0  0
  142.8772   78.3864  224.1119 H   0  0  0  0  0  0  0  0  0  0  0  0
  142.8223   80.6188  225.2336 H   0  0  0  0  0  0  0  0  0  0  0  0
  142.1375   82.5983  223.8964 H   0  0  0  0  0  0  0  0  0  0  0  0
  141.5319   82.3722  221.5312 H   0  0  0  0  0  0  0  0  0  0  0  0
  138.0221   76.9859  219.2986 H   0  0  0  0  0  0  0  0  0  0  0  0
  139.5176   77.5652  218.4140 H   0  0  0  0  0  0  0  0  0  0  0  0
  139.4229   75.0797  218.9504 H   0  0  0  0  0  0  0  0  0  0  0  0
  140.8912   75.9673  219.4719 H   0  0  0  0  0  0  0  0  0  0  0  0
  138.4655   75.3128  221.2237 H   0  0  0  0  0  0  0  0  0  0  0  0
  138.0879   70.9973  224.5202 H   0  0  0  0  0  0  0  0  0  0  0  0
  138.3203   70.8560  222.7616 H   0  0  0  0  0  0  0  0  0  0  0  0
  138.3250   68.5923  223.9070 H   0  0  0  0  0  0  0  0  0  0  0  0
  139.8803   68.9098  223.1114 H   0  0  0  0  0  0  0  0  0  0  0  0
  139.2547   67.1024  225.4572 H   0  0  0  0  0  0  0  0  0  0  0  0
  140.3504   66.8349  227.6794 H   0  0  0  0  0  0  0  0  0  0  0  0
  141.5855   68.7321  228.6692 H   0  0  0  0  0  0  0  0  0  0  0  0
  141.7510   70.9229  227.4818 H   0  0  0  0  0  0  0  0  0  0  0  0
  140.2514   72.2866  225.7548 H   0  0  0  0  0  0  0  0  0  0  0  0
  141.7569   71.7070  224.9264 H   0  0  0  0  0  0  0  0  0  0  0  0
  143.9026   73.7626  219.3270 H   0  0  0  0  0  0  0  0  0  0  0  0
  144.3404   73.0430  220.9575 H   0  0  0  0  0  0  0  0  0  0  0  0
  145.3764   72.4838  218.2762 H   0  0  0  0  0  0  0  0  0  0  0  0
  146.1178   72.3407  219.9345 H   0  0  0  0  0  0  0  0  0  0  0  0
  147.1670   70.2728  219.4236 H   0  0  0  0  0  0  0  0  0  0  0  0
  146.9087   67.8014  219.3775 H   0  0  0  0  0  0  0  0  0  0  0  0
  144.6566   66.7675  219.2152 H   0  0  0  0  0  0  0  0  0  0  0  0
  142.6317   68.2559  219.0905 H   0  0  0  0  0  0  0  0  0  0  0  0
  142.4673   71.2342  218.0743 H   0  0  0  0  0  0  0  0  0  0  0  0
  141.7522   70.3774  219.4795 H   0  0  0  0  0  0  0  0  0  0  0  0
  140.0051   76.2401  223.0049 H   0  0  0  0  0  0  0  0  0  0  0  0
  141.1728   76.6878  221.7263 H   0  0  0  0  0  0  0  0  0  0  0  0
  138.3040   77.6374  222.0319 H   0  0  0  0  0  0  0  0  0  0  0  0
  139.8378   78.5946  222.2507 H   0  0  0  0  0  0  0  0  0  0  0  0
  1  2  2  0
  2  3  2  0
  2  4  1  0
  4  5  1  0
  5  6  2  0
  6  7  1  0
  7  8  2  0
  8  9  1  0
  9 10  2  0
  2 11  1  0
 11 12  1  0
 12 13  1  0
 13 14  1  0
 14 15  1  0
 15 16  2  0
 16 17  1  0
 17 18  1  0
 18 19  1  0
 19 20  1  0
 20 21  1  0
 21 22  2  0
 22 23  1  0
 23 24  2  0
 24 25  1  0
 25 26  2  0
 26 27  1  0
 17 28  2  0
 28 29  1  0
 29 30  1  0
 30 31  1  0
 31 32  1  0
 32 33  1  0
 33 34  2  0
 34 35  1  0
 35 36  2  0
 36 37  1  0
 37 38  2  0
 38 39  1  0
 29 40  2  0
 14 41  1  0
 41 42  1  0
 10  5  1  0
 42 11  1  0
 40 15  1  0
 27 18  1  0
 39 30  1  0
 26 21  1  0
 38 33  1  0
  4 43  1  0
  4 44  1  0
  6 45  1  0
  7 46  1  0
  8 47  1  0
  9 48  1  0
 10 49  1  0
 12 50  1  0
 12 51  1  0
 13 52  1  0
 13 53  1  0
 14 54  1  0
 19 55  1  0
 19 56  1  0
 20 57  1  0
 20 58  1  0
 22 59  1  0
 23 60  1  0
 24 61  1  0
 25 62  1  0
 27 63  1  0
 27 64  1  0
 31 65  1  0
 31 66  1  0
 32 67  1  0
 32 68  1  0
 34 69  1  0
 35 70  1  0
 36 71  1  0
 37 72  1  0
 39 73  1  0
 39 74  1  0
 41 75  1  0
 41 76  1  0
 42 77  1  0
 42 78  1  0
M  END
>  <smiles>  (45) 
O=S(=O)(Cc1ccccc1)N1CCC(c2nc(N3CCc4ccccc4C3)nc(N3CCc4ccccc4C3)n2)CC1

>  <score_type>  (45) 
oracle

>  <origin>  (45) 
autodockgpu

>  <m_score__min__energy>  (45) 
-12.01

>  <m_primary>  (45) 
energy

>  <rmsd>  (45) 
11.269825682650062

>  <m_score__min__rmsd>  (45) 
11.269825682650062

>  <meeko>  (45) 
{"free_energy": -11.12, "intermolecular_energy": -12.91, "internal_energy": -1.89, "cluster_size": 32, "cluster_id": 1, "rank_in_cluster": 22}

>  <energy>  (45) 
-10.26

>  <cluster_rmsd>  (45) 
0.47

>  <cluster>  (45) 
4

$$$$

     RDKit          3D

 78 84  0  0  0  0  0  0  0  0999 V2000
  147.0780   69.6400  219.0270 O   0  0  0  0  0  0  0  0  0  0  0  0
  145.7530   68.8910  219.0140 S   0  0  0  0  0  0  0  0  0  0  0  0
  145.7020   68.0100  220.2490 O   0  0  0  0  0  0  0  0  0  0  0  0
  145.7710   67.8180  217.6240 C   0  0  0  0  0  0  0  0  0  0  0  0
  144.4250   67.3000  217.3350 C   0  0  0  0  0  0  0  0  0  0  0  0
  143.7340   67.8880  216.2820 C   0  0  0  0  0  0  0  0  0  0  0  0
  142.4390   67.4990  215.9510 C   0  0  0  0  0  0  0  0  0  0  0  0
  141.8020   66.5050  216.6730 C   0  0  0  0  0  0  0  0  0  0  0  0
  142.4900   65.9270  217.7150 C   0  0  0  0  0  0  0  0  0  0  0  0
  143.7740   66.3240  218.0300 C   0  0  0  0  0  0  0  0  0  0  0  0
  144.4450   69.9270  219.0150 N   0  0  0  0  0  0  0  0  0  0  0  0
  143.1340   69.4540  219.0230 C   0  0  0  0  0  0  0  0  0  0  0  0
  142.2300   70.1420  220.0410 C   0  0  0  0  0  0  0  0  0  0  0  0
  142.3980   71.6400  219.9170 C   0  0  0  0  0  0  0  0  0  0  0  0
  141.5330   72.3540  220.8600 C   0  0  0  0  0  0  0  0  0  0  0  0
  141.2710   73.6860  220.7830 N   0  0  0  0  0  0  0  0  0  0  0  0
  140.4780   74.3100  221.6600 C   0  0  0  0  0  0  0  0  0  0  0  0
  140.2730   75.7050  221.4820 N   0  0  0  0  0  0  0  0  0  0  0  0
  138.9220   76.2060  221.4420 C   0  0  0  0  0  0  0  0  0  0  0  0
  138.7420   77.1180  222.6620 C   0  0  0  0  0  0  0  0  0  0  0  0
  139.7870   78.1690  222.5620 C   0  0  0  0  0  0  0  0  0  0  0  0
  139.4920   79.3970  223.1250 C   0  0  0  0  0  0  0  0  0  0  0  0
  140.4220   80.4200  223.0680 C   0  0  0  0  0  0  0  0  0  0  0  0
  141.6350   80.1980  222.4490 C   0  0  0  0  0  0  0  0  0  0  0  0
  141.9530   78.9700  221.8760 C   0  0  0  0  0  0  0  0  0  0  0  0
  141.0060   77.9710  221.9500 C   0  0  0  0  0  0  0  0  0  0  0  0
  141.3490   76.6620  221.3380 C   0  0  0  0  0  0  0  0  0  0  0  0
  139.9200   73.5950  222.6500 N   0  0  0  0  0  0  0  0  0  0  0  0
  140.1380   72.2640  222.7870 C   0  0  0  0  0  0  0  0  0  0  0  0
  139.5520   71.4970  223.8330 N   0  0  0  0  0  0  0  0  0  0  0  0
  138.3120   70.8090  223.5500 C   0  0  0  0  0  0  0  0  0  0  0  0
  137.9720   69.7210  224.5120 C   0  0  0  0  0  0  0  0  0  0  0  0
  139.1480   69.2370  225.2730 C   0  0  0  0  0  0  0  0  0  0  0  0
  139.1840   67.9300  225.7150 C   0  0  0  0  0  0  0  0  0  0  0  0
  140.2820   67.4510  226.4350 C   0  0  0  0  0  0  0  0  0  0  0  0
  141.3560   68.2720  226.7210 C   0  0  0  0  0  0  0  0  0  0  0  0
  141.3300   69.5960  226.2790 C   0  0  0  0  0  0  0  0  0  0  0  0
  140.2290   70.0360  225.5710 C   0  0  0  0  0  0  0  0  0  0  0  0
  140.2030   71.4350  225.1060 C   0  0  0  0  0  0  0  0  0  0  0  0
  140.9450   71.6940  221.8740 N   0  0  0  0  0  0  0  0  0  0  0  0
  143.8490   71.9510  220.2070 C   0  0  0  0  0  0  0  0  0  0  0  0
  144.6860   71.3180  219.1480 C   0  0  0  0  0  0  0  0  0  0  0  0
  146.1381   68.3722  216.7476 H   0  0  0  0  0  0  0  0  0  0  0  0
  146.4310   66.9672  217.8490 H   0  0  0  0  0  0  0  0  0  0  0  0
  144.2225   68.6803  215.6957 H   0  0  0  0  0  0  0  0  0  0  0  0
  141.9195   67.9841  215.1115 H   0  0  0  0  0  0  0  0  0  0  0  0
  140.7792   66.1874  216.4221 H   0  0  0  0  0  0  0  0  0  0  0  0
  142.0085   65.1349  218.3072 H   0  0  0  0  0  0  0  0  0  0  0  0
  144.2897   65.8363  218.8704 H   0  0  0  0  0  0  0  0  0  0  0  0
  142.7055   69.6069  218.0215 H   0  0  0  0  0  0  0  0  0  0  0  0
  143.1815   68.3924  219.3072 H   0  0  0  0  0  0  0  0  0  0  0  0
  141.1819   69.8712  219.8457 H   0  0  0  0  0  0  0  0  0  0  0  0
  142.5030   69.8206  221.0570 H   0  0  0  0  0  0  0  0  0  0  0  0
  142.1134   71.9678  218.9063 H   0  0  0  0  0  0  0  0  0  0  0  0
  138.7589   76.7776  220.5164 H   0  0  0  0  0  0  0  0  0  0  0  0
  138.1973   75.3787  221.4617 H   0  0  0  0  0  0  0  0  0  0  0  0
  137.7414   77.5749  222.6504 H   0  0  0  0  0  0  0  0  0  0  0  0
  138.8373   76.5508  223.5997 H   0  0  0  0  0  0  0  0  0  0  0  0
  138.5215   79.5601  223.6164 H   0  0  0  0  0  0  0  0  0  0  0  0
  140.1964   81.4008  223.5119 H   0  0  0  0  0  0  0  0  0  0  0  0
  142.3712   81.0142  222.4072 H   0  0  0  0  0  0  0  0  0  0  0  0
  142.9223   78.8032  221.3833 H   0  0  0  0  0  0  0  0  0  0  0  0
  141.5521   76.8115  220.2673 H   0  0  0  0  0  0  0  0  0  0  0  0
  142.2340   76.2631  221.8554 H   0  0  0  0  0  0  0  0  0  0  0  0
  137.4978   71.5485  223.5666 H   0  0  0  0  0  0  0  0  0  0  0  0
  138.4388   70.3289  222.5685 H   0  0  0  0  0  0  0  0  0  0  0  0
  137.2256   70.1026  225.2242 H   0  0  0  0  0  0  0  0  0  0  0  0
  137.5842   68.8731  223.9284 H   0  0  0  0  0  0  0  0  0  0  0  0
  138.3400   67.2586  225.4984 H   0  0  0  0  0  0  0  0  0  0  0  0
  140.2913   66.4061  226.7787 H   0  0  0  0  0  0  0  0  0  0  0  0
  142.2174   67.8886  227.2876 H   0  0  0  0  0  0  0  0  0  0  0  0
  142.1693   70.2748  226.4904 H   0  0  0  0  0  0  0  0  0  0  0  0
  139.6529   72.0532  225.8308 H   0  0  0  0  0  0  0  0  0  0  0  0
  141.2321   71.8121  225.0130 H   0  0  0  0  0  0  0  0  0  0  0  0
  144.0039   73.0400  220.2017 H   0  0  0  0  0  0  0  0  0  0  0  0
  144.1296   71.5588  221.1957 H   0  0  0  0  0  0  0  0  0  0  0  0
  144.4656   71.8063  218.1873 H   0  0  0  0  0  0  0  0  0  0  0  0
  145.7393   71.4452  219.4384 H   0  0  0  0  0  0  0  0  0  0  0  0
  1  2  2  0
  2  3  2  0
  2  4  1  0
  4  5  1  0
  5  6  2  0
  6  7  1  0
  7  8  2  0
  8  9  1  0
  9 10  2  0
  2 11  1  0
 11 12  1  0
 12 13  1  0
 13 14  1  0
 14 15  1  0
 15 16  2  0
 16 17  1  0
 17 18  1  0
 18 19  1  0
 19 20  1  0
 20 21  1  0
 21 22  2  0
 22 23  1  0
 23 24  2  0
 24 25  1  0
 25 26  2  0
 26 27  1  0
 17 28  2  0
 28 29  1  0
 29 30  1  0
 30 31  1  0
 31 32  1  0
 32 33  1  0
 33 34  2  0
 34 35  1  0
 35 36  2  0
 36 37  1  0
 37 38  2  0
 38 39  1  0
 29 40  2  0
 14 41  1  0
 41 42  1  0
 10  5  1  0
 42 11  1  0
 40 15  1  0
 27 18  1  0
 39 30  1  0
 26 21  1  0
 38 33  1  0
  4 43  1  0
  4 44  1  0
  6 45  1  0
  7 46  1  0
  8 47  1  0
  9 48  1  0
 10 49  1  0
 12 50  1  0
 12 51  1  0
 13 52  1  0
 13 53  1  0
 14 54  1  0
 19 55  1  0
 19 56  1  0
 20 57  1  0
 20 58  1  0
 22 59  1  0
 23 60  1  0
 24 61  1  0
 25 62  1  0
 27 63  1  0
 27 64  1  0
 31 65  1  0
 31 66  1  0
 32 67  1  0
 32 68  1  0
 34 69  1  0
 35 70  1  0
 36 71  1  0
 37 72  1  0
 39 73  1  0
 39 74  1  0
 41 75  1  0
 41 76  1  0
 42 77  1  0
 42 78  1  0
M  END
>  <smiles>  (46) 
O=S(=O)(Cc1ccccc1)N1CCC(c2nc(N3CCc4ccccc4C3)nc(N3CCc4ccccc4C3)n2)CC1

>  <score_type>  (46) 
oracle

>  <origin>  (46) 
autodockgpu

>  <m_score__min__energy>  (46) 
-12.01

>  <m_primary>  (46) 
energy

>  <rmsd>  (46) 
4.896910366846001

>  <m_score__min__rmsd>  (46) 
4.896910366846001

>  <meeko>  (46) 
{"free_energy": -11.28, "intermolecular_energy": -13.07, "internal_energy": -1.78, "cluster_size": 8, "cluster_id": 2, "rank_in_cluster": 2}

>  <energy>  (46) 
-10.2

>  <cluster_rmsd>  (46) 
0.3

>  <cluster>  (46) 
4

$$$$

     RDKit          3D

 78 84  0  0  0  0  0  0  0  0999 V2000
  147.1070   73.7790  217.2270 O   0  0  0  0  0  0  0  0  0  0  0  0
  145.8560   72.9770  216.8990 S   0  0  0  0  0  0  0  0  0  0  0  0
  146.2810   71.7450  216.1200 O   0  0  0  0  0  0  0  0  0  0  0  0
  144.8770   73.9520  215.8140 C   0  0  0  0  0  0  0  0  0  0  0  0
  143.8440   74.6940  216.5520 C   0  0  0  0  0  0  0  0  0  0  0  0
  142.5180   74.3980  216.2540 C   0  0  0  0  0  0  0  0  0  0  0  0
  141.4650   75.0700  216.8660 C   0  0  0  0  0  0  0  0  0  0  0  0
  141.7160   76.0620  217.7980 C   0  0  0  0  0  0  0  0  0  0  0  0
  143.0290   76.3510  218.0890 C   0  0  0  0  0  0  0  0  0  0  0  0
  144.0630   75.6750  217.4730 C   0  0  0  0  0  0  0  0  0  0  0  0
  145.0290   72.5080  218.2710 N   0  0  0  0  0  0  0  0  0  0  0  0
  145.4230   72.9230  219.5420 C   0  0  0  0  0  0  0  0  0  0  0  0
  144.2790   73.4370  220.4110 C   0  0  0  0  0  0  0  0  0  0  0  0
  143.1360   72.4480  220.3560 C   0  0  0  0  0  0  0  0  0  0  0  0
  142.0140   72.8820  221.1940 C   0  0  0  0  0  0  0  0  0  0  0  0
  141.3760   72.0700  222.0790 N   0  0  0  0  0  0  0  0  0  0  0  0
  140.3540   72.4950  222.8290 C   0  0  0  0  0  0  0  0  0  0  0  0
  139.7620   71.5610  223.7210 N   0  0  0  0  0  0  0  0  0  0  0  0
  138.7140   70.7030  223.2300 C   0  0  0  0  0  0  0  0  0  0  0  0
  139.2390   69.2640  223.2970 C   0  0  0  0  0  0  0  0  0  0  0  0
  139.6180   69.0180  224.7120 C   0  0  0  0  0  0  0  0  0  0  0  0
  139.5280   67.7140  225.1640 C   0  0  0  0  0  0  0  0  0  0  0  0
  139.8670   67.4140  226.4720 C   0  0  0  0  0  0  0  0  0  0  0  0
  140.2920   68.4260  227.3080 C   0  0  0  0  0  0  0  0  0  0  0  0
  140.3910   69.7450  226.8750 C   0  0  0  0  0  0  0  0  0  0  0  0
  140.0460   70.0110  225.5670 C   0  0  0  0  0  0  0  0  0  0  0  0
  140.1530   71.4190  225.1080 C   0  0  0  0  0  0  0  0  0  0  0  0
  139.9460   73.7680  222.7040 N   0  0  0  0  0  0  0  0  0  0  0  0
  140.5360   74.6320  221.8420 C   0  0  0  0  0  0  0  0  0  0  0  0
  140.1110   75.9830  221.7010 N   0  0  0  0  0  0  0  0  0  0  0  0
  138.7730   76.3160  222.1380 C   0  0  0  0  0  0  0  0  0  0  0  0
  138.5350   77.7740  222.3500 C   0  0  0  0  0  0  0  0  0  0  0  0
  139.7890   78.5410  222.5330 C   0  0  0  0  0  0  0  0  0  0  0  0
  139.7810   79.6870  223.3030 C   0  0  0  0  0  0  0  0  0  0  0  0
  140.9510   80.4290  223.4900 C   0  0  0  0  0  0  0  0  0  0  0  0
  142.1420   80.0330  222.9120 C   0  0  0  0  0  0  0  0  0  0  0  0
  142.1620   78.8750  222.1320 C   0  0  0  0  0  0  0  0  0  0  0  0
  140.9870   78.1670  221.9680 C   0  0  0  0  0  0  0  0  0  0  0  0
  141.0100   76.9460  221.1420 C   0  0  0  0  0  0  0  0  0  0  0  0
  141.5580   74.1450  221.1150 N   0  0  0  0  0  0  0  0  0  0  0  0
  142.6980   72.3540  218.9120 C   0  0  0  0  0  0  0  0  0  0  0  0
  143.8220   71.7820  218.1160 C   0  0  0  0  0  0  0  0  0  0  0  0
  145.5272   74.6677  215.2895 H   0  0  0  0  0  0  0  0  0  0  0  0
  144.3796   73.2823  215.0970 H   0  0  0  0  0  0  0  0  0  0  0  0
  142.2965   73.6130  215.5160 H   0  0  0  0  0  0  0  0  0  0  0  0
  140.4274   74.8117  216.6079 H   0  0  0  0  0  0  0  0  0  0  0  0
  140.8929   76.6013  218.2896 H   0  0  0  0  0  0  0  0  0  0  0  0
  143.2591   77.1348  218.8257 H   0  0  0  0  0  0  0  0  0  0  0  0
  145.0990   75.9368  217.7342 H   0  0  0  0  0  0  0  0  0  0  0  0
  145.8901   72.0693  220.0550 H   0  0  0  0  0  0  0  0  0  0  0  0
  146.1171   73.7645  219.4004 H   0  0  0  0  0  0  0  0  0  0  0  0
  144.6244   73.5441  221.4499 H   0  0  0  0  0  0  0  0  0  0  0  0
  143.9415   74.4160  220.0400 H   0  0  0  0  0  0  0  0  0  0  0  0
  143.4655   71.4706  220.7382 H   0  0  0  0  0  0  0  0  0  0  0  0
  137.8167   70.8066  223.8578 H   0  0  0  0  0  0  0  0  0  0  0  0
  138.4398   70.9715  222.1991 H   0  0  0  0  0  0  0  0  0  0  0  0
  138.4545   68.5585  222.9857 H   0  0  0  0  0  0  0  0  0  0  0  0
  140.0983   69.1227  222.6250 H   0  0  0  0  0  0  0  0  0  0  0  0
  139.1879   66.9175  224.4858 H   0  0  0  0  0  0  0  0  0  0  0  0
  139.7983   66.3800  226.8410 H   0  0  0  0  0  0  0  0  0  0  0  0
  140.5604   68.1833  228.3468 H   0  0  0  0  0  0  0  0  0  0  0  0
  140.7312   70.5441  227.5501 H   0  0  0  0  0  0  0  0  0  0  0  0
  139.4978   72.0473  225.7293 H   0  0  0  0  0  0  0  0  0  0  0  0
  141.2035   71.7316  225.2020 H   0  0  0  0  0  0  0  0  0  0  0  0
  138.0642   75.9596  221.3760 H   0  0  0  0  0  0  0  0  0  0  0  0
  138.6340   75.8314  223.1157 H   0  0  0  0  0  0  0  0  0  0  0  0
  138.0033   78.1741  221.4741 H   0  0  0  0  0  0  0  0  0  0  0  0
  137.9440   77.8819  223.2714 H   0  0  0  0  0  0  0  0  0  0  0  0
  138.8443   80.0196  223.7742 H   0  0  0  0  0  0  0  0  0  0  0  0
  140.9231   81.3403  224.1055 H   0  0  0  0  0  0  0  0  0  0  0  0
  143.0595   80.6205  223.0639 H   0  0  0  0  0  0  0  0  0  0  0  0
  143.0940   78.5335  221.6579 H   0  0  0  0  0  0  0  0  0  0  0  0
  140.6967   77.1898  220.1161 H   0  0  0  0  0  0  0  0  0  0  0  0
  142.0291   76.5324  221.1220 H   0  0  0  0  0  0  0  0  0  0  0  0
  141.8165   71.7008  218.8328 H   0  0  0  0  0  0  0  0  0  0  0  0
  142.4342   73.3517  218.5311 H   0  0  0  0  0  0  0  0  0  0  0  0
  143.9912   70.7450  218.4415 H   0  0  0  0  0  0  0  0  0  0  0  0
  143.5373   71.8350  217.0548 H   0  0  0  0  0  0  0  0  0  0  0  0
  1  2  2  0
  2  3  2  0
  2  4  1  0
  4  5  1  0
  5  6  2  0
  6  7  1  0
  7  8  2  0
  8  9  1  0
  9 10  2  0
  2 11  1  0
 11 12  1  0
 12 13  1  0
 13 14  1  0
 14 15  1  0
 15 16  2  0
 16 17  1  0
 17 18  1  0
 18 19  1  0
 19 20  1  0
 20 21  1  0
 21 22  2  0
 22 23  1  0
 23 24  2  0
 24 25  1  0
 25 26  2  0
 26 27  1  0
 17 28  2  0
 28 29  1  0
 29 30  1  0
 30 31  1  0
 31 32  1  0
 32 33  1  0
 33 34  2  0
 34 35  1  0
 35 36  2  0
 36 37  1  0
 37 38  2  0
 38 39  1  0
 29 40  2  0
 14 41  1  0
 41 42  1  0
 10  5  1  0
 42 11  1  0
 40 15  1  0
 27 18  1  0
 39 30  1  0
 26 21  1  0
 38 33  1  0
  4 43  1  0
  4 44  1  0
  6 45  1  0
  7 46  1  0
  8 47  1  0
  9 48  1  0
 10 49  1  0
 12 50  1  0
 12 51  1  0
 13 52  1  0
 13 53  1  0
 14 54  1  0
 19 55  1  0
 19 56  1  0
 20 57  1  0
 20 58  1  0
 22 59  1  0
 23 60  1  0
 24 61  1  0
 25 62  1  0
 27 63  1  0
 27 64  1  0
 31 65  1  0
 31 66  1  0
 32 67  1  0
 32 68  1  0
 34 69  1  0
 35 70  1  0
 36 71  1  0
 37 72  1  0
 39 73  1  0
 39 74  1  0
 41 75  1  0
 41 76  1  0
 42 77  1  0
 42 78  1  0
M  END
>  <smiles>  (47) 
O=S(=O)(Cc1ccccc1)N1CCC(c2nc(N3CCc4ccccc4C3)nc(N3CCc4ccccc4C3)n2)CC1

>  <score_type>  (47) 
oracle

>  <origin>  (47) 
autodockgpu

>  <m_score__min__energy>  (47) 
-12.01

>  <m_primary>  (47) 
energy

>  <rmsd>  (47) 
11.223526440038754

>  <m_score__min__rmsd>  (47) 
11.223526440038754

>  <meeko>  (47) 
{"free_energy": -10.39, "intermolecular_energy": -12.18, "internal_energy": -2.8, "cluster_size": 3, "cluster_id": 5, "rank_in_cluster": 1}

>  <energy>  (47) 
-9.63

>  <cluster_rmsd>  (47) 
0.54

>  <cluster>  (47) 
4

$$$$

     RDKit          3D

 78 84  0  0  0  0  0  0  0  0999 V2000
  147.4300   70.0230  219.4460 O   0  0  0  0  0  0  0  0  0  0  0  0
  146.0950   69.4410  219.0040 S   0  0  0  0  0  0  0  0  0  0  0  0
  145.7680   68.2750  219.9200 O   0  0  0  0  0  0  0  0  0  0  0  0
  146.3190   68.7770  217.3940 C   0  0  0  0  0  0  0  0  0  0  0  0
  145.9350   69.7480  216.3590 C   0  0  0  0  0  0  0  0  0  0  0  0
  144.7450   69.5120  215.6800 C   0  0  0  0  0  0  0  0  0  0  0  0
  144.3110   70.3480  214.6560 C   0  0  0  0  0  0  0  0  0  0  0  0
  145.0640   71.4490  214.2850 C   0  0  0  0  0  0  0  0  0  0  0  0
  146.2410   71.6780  214.9600 C   0  0  0  0  0  0  0  0  0  0  0  0
  146.6580   70.8390  215.9740 C   0  0  0  0  0  0  0  0  0  0  0  0
  144.8640   70.5660  219.0740 N   0  0  0  0  0  0  0  0  0  0  0  0
  143.5540   70.2430  218.7250 C   0  0  0  0  0  0  0  0  0  0  0  0
  142.5070   70.7220  219.7260 C   0  0  0  0  0  0  0  0  0  0  0  0
  142.7700   72.1730  220.0590 C   0  0  0  0  0  0  0  0  0  0  0  0
  141.7770   72.6920  221.0040 C   0  0  0  0  0  0  0  0  0  0  0  0
  141.2180   71.9490  221.9960 N   0  0  0  0  0  0  0  0  0  0  0  0
  140.3130   72.4510  222.8410 C   0  0  0  0  0  0  0  0  0  0  0  0
  139.7960   71.5840  223.8410 N   0  0  0  0  0  0  0  0  0  0  0  0
  138.6730   70.7420  223.5130 C   0  0  0  0  0  0  0  0  0  0  0  0
  139.1570   69.2900  223.5970 C   0  0  0  0  0  0  0  0  0  0  0  0
  139.6840   69.0980  224.9730 C   0  0  0  0  0  0  0  0  0  0  0  0
  139.6050   67.8210  225.4980 C   0  0  0  0  0  0  0  0  0  0  0  0
  140.0780   67.5730  226.7750 C   0  0  0  0  0  0  0  0  0  0  0  0
  140.6250   68.6080  227.5060 C   0  0  0  0  0  0  0  0  0  0  0  0
  140.7160   69.9000  226.9960 C   0  0  0  0  0  0  0  0  0  0  0  0
  140.2360   70.1150  225.7220 C   0  0  0  0  0  0  0  0  0  0  0  0
  140.3340   71.4950  225.1810 C   0  0  0  0  0  0  0  0  0  0  0  0
  139.9450   73.7350  222.7070 N   0  0  0  0  0  0  0  0  0  0  0  0
  140.4620   74.5350  221.7410 C   0  0  0  0  0  0  0  0  0  0  0  0
  140.0790   75.8970  221.5890 N   0  0  0  0  0  0  0  0  0  0  0  0
  138.7110   76.2500  221.9010 C   0  0  0  0  0  0  0  0  0  0  0  0
  138.4820   77.7080  222.1200 C   0  0  0  0  0  0  0  0  0  0  0  0
  139.7270   78.4450  222.4410 C   0  0  0  0  0  0  0  0  0  0  0  0
  139.6660   79.5750  223.2310 C   0  0  0  0  0  0  0  0  0  0  0  0
  140.8260   80.2880  223.5480 C   0  0  0  0  0  0  0  0  0  0  0  0
  142.0600   79.8780  223.0790 C   0  0  0  0  0  0  0  0  0  0  0  0
  142.1330   78.7360  222.2800 C   0  0  0  0  0  0  0  0  0  0  0  0
  140.9670   78.0570  221.9870 C   0  0  0  0  0  0  0  0  0  0  0  0
  141.0470   76.8510  221.1410 C   0  0  0  0  0  0  0  0  0  0  0  0
  141.3670   73.9710  220.9210 N   0  0  0  0  0  0  0  0  0  0  0  0
  144.1520   72.2460  220.6690 C   0  0  0  0  0  0  0  0  0  0  0  0
  145.1440   71.8390  219.6330 C   0  0  0  0  0  0  0  0  0  0  0  0
  147.3777   68.5102  217.2603 H   0  0  0  0  0  0  0  0  0  0  0  0
  145.6786   67.8885  217.2920 H   0  0  0  0  0  0  0  0  0  0  0  0
  144.1314   68.6428  215.9592 H   0  0  0  0  0  0  0  0  0  0  0  0
  143.3645   70.1330  214.1384 H   0  0  0  0  0  0  0  0  0  0  0  0
  144.7324   72.1184  213.4775 H   0  0  0  0  0  0  0  0  0  0  0  0
  146.8606   72.5449  214.6869 H   0  0  0  0  0  0  0  0  0  0  0  0
  147.6052   71.0575  216.4889 H   0  0  0  0  0  0  0  0  0  0  0  0
  143.3337   70.7002  217.7491 H   0  0  0  0  0  0  0  0  0  0  0  0
  143.4930   69.1449  218.7029 H   0  0  0  0  0  0  0  0  0  0  0  0
  141.5036   70.6207  219.2867 H   0  0  0  0  0  0  0  0  0  0  0  0
  142.5639   70.1150  220.6416 H   0  0  0  0  0  0  0  0  0  0  0  0
  142.7014   72.7862  219.1484 H   0  0  0  0  0  0  0  0  0  0  0  0
  137.8548   70.9088  224.2290 H   0  0  0  0  0  0  0  0  0  0  0  0
  138.2942   70.9702  222.5058 H   0  0  0  0  0  0  0  0  0  0  0  0
  138.3210   68.5997  223.4108 H   0  0  0  0  0  0  0  0  0  0  0  0
  139.9314   69.0854  222.8431 H   0  0  0  0  0  0  0  0  0  0  0  0
  139.1679   67.0055  224.9031 H   0  0  0  0  0  0  0  0  0  0  0  0
  140.0185   66.5613  227.2028 H   0  0  0  0  0  0  0  0  0  0  0  0
  140.9997   68.4062  228.5204 H   0  0  0  0  0  0  0  0  0  0  0  0
  141.1541   70.7178  227.5869 H   0  0  0  0  0  0  0  0  0  0  0  0
  139.7715   72.1758  225.8369 H   0  0  0  0  0  0  0  0  0  0  0  0
  141.3975   71.7735  225.1427 H   0  0  0  0  0  0  0  0  0  0  0  0
  138.0732   75.9238  221.0662 H   0  0  0  0  0  0  0  0  0  0  0  0
  138.4677   75.7495  222.8498 H   0  0  0  0  0  0  0  0  0  0  0  0
  138.0464   78.1363  221.2052 H   0  0  0  0  0  0  0  0  0  0  0  0
  137.8060   77.8104  222.9817 H   0  0  0  0  0  0  0  0  0  0  0  0
  138.6942   79.9183  223.6154 H   0  0  0  0  0  0  0  0  0  0  0  0
  140.7559   81.1866  224.1786 H   0  0  0  0  0  0  0  0  0  0  0  0
  142.9697   80.4426  223.3314 H   0  0  0  0  0  0  0  0  0  0  0  0
  143.1000   78.3839  221.8915 H   0  0  0  0  0  0  0  0  0  0  0  0
  140.8406   77.1211  220.0949 H   0  0  0  0  0  0  0  0  0  0  0  0
  142.0549   76.4160  221.2119 H   0  0  0  0  0  0  0  0  0  0  0  0
  144.3592   73.2749  220.9983 H   0  0  0  0  0  0  0  0  0  0  0  0
  144.2175   71.5768  221.5395 H   0  0  0  0  0  0  0  0  0  0  0  0
  145.1362   72.5866  218.8261 H   0  0  0  0  0  0  0  0  0  0  0  0
  146.1272   71.7768  220.1223 H   0  0  0  0  0  0  0  0  0  0  0  0
  1  2  2  0
  2  3  2  0
  2  4  1  0
  4  5  1  0
  5  6  2  0
  6  7  1  0
  7  8  2  0
  8  9  1  0
  9 10  2  0
  2 11  1  0
 11 12  1  0
 12 13  1  0
 13 14  1  0
 14 15  1  0
 15 16  2  0
 16 17  1  0
 17 18  1  0
 18 19  1  0
 19 20  1  0
 20 21  1  0
 21 22  2  0
 22 23  1  0
 23 24  2  0
 24 25  1  0
 25 26  2  0
 26 27  1  0
 17 28  2  0
 28 29  1  0
 29 30  1  0
 30 31  1  0
 31 32  1  0
 32 33  1  0
 33 34  2  0
 34 35  1  0
 35 36  2  0
 36 37  1  0
 37 38  2  0
 38 39  1  0
 29 40  2  0
 14 41  1  0
 41 42  1  0
 10  5  1  0
 42 11  1  0
 40 15  1  0
 27 18  1  0
 39 30  1  0
 26 21  1  0
 38 33  1  0
  4 43  1  0
  4 44  1  0
  6 45  1  0
  7 46  1  0
  8 47  1  0
  9 48  1  0
 10 49  1  0
 12 50  1  0
 12 51  1  0
 13 52  1  0
 13 53  1  0
 14 54  1  0
 19 55  1  0
 19 56  1  0
 20 57  1  0
 20 58  1  0
 22 59  1  0
 23 60  1  0
 24 61  1  0
 25 62  1  0
 27 63  1  0
 27 64  1  0
 31 65  1  0
 31 66  1  0
 32 67  1  0
 32 68  1  0
 34 69  1  0
 35 70  1  0
 36 71  1  0
 37 72  1  0
 39 73  1  0
 39 74  1  0
 41 75  1  0
 41 76  1  0
 42 77  1  0
 42 78  1  0
M  END
>  <smiles>  (48) 
O=S(=O)(Cc1ccccc1)N1CCC(c2nc(N3CCc4ccccc4C3)nc(N3CCc4ccccc4C3)n2)CC1

>  <score_type>  (48) 
oracle

>  <origin>  (48) 
autodockgpu

>  <m_score__min__energy>  (48) 
-12.01

>  <m_primary>  (48) 
energy

>  <rmsd>  (48) 
11.246071584762097

>  <m_score__min__rmsd>  (48) 
11.246071584762097

>  <meeko>  (48) 
{"free_energy": -11.02, "intermolecular_energy": -12.81, "internal_energy": -1.89, "cluster_size": 8, "cluster_id": 2, "rank_in_cluster": 5}

>  <energy>  (48) 
-10.39

>  <cluster_rmsd>  (48) 
0.0

>  <cluster>  (48) 
5

$$$$

     RDKit          3D

 78 84  0  0  0  0  0  0  0  0999 V2000
  137.3610   80.5670  221.8400 O   0  0  0  0  0  0  0  0  0  0  0  0
  138.6720   79.8550  222.1390 S   0  0  0  0  0  0  0  0  0  0  0  0
  138.8790   79.8680  223.6420 O   0  0  0  0  0  0  0  0  0  0  0  0
  139.9640   80.8180  221.4390 C   0  0  0  0  0  0  0  0  0  0  0  0
  141.1570   80.8120  222.2980 C   0  0  0  0  0  0  0  0  0  0  0  0
  142.1340   79.8640  222.0170 C   0  0  0  0  0  0  0  0  0  0  0  0
  143.2830   79.7490  222.7930 C   0  0  0  0  0  0  0  0  0  0  0  0
  143.4810   80.5850  223.8780 C   0  0  0  0  0  0  0  0  0  0  0  0
  142.5100   81.5210  224.1520 C   0  0  0  0  0  0  0  0  0  0  0  0
  141.3760   81.6240  223.3720 C   0  0  0  0  0  0  0  0  0  0  0  0
  138.6710   78.2780  221.5920 N   0  0  0  0  0  0  0  0  0  0  0  0
  139.4850   77.8670  220.5380 C   0  0  0  0  0  0  0  0  0  0  0  0
  140.2420   76.5690  220.8060 C   0  0  0  0  0  0  0  0  0  0  0  0
  139.2770   75.5380  221.3470 C   0  0  0  0  0  0  0  0  0  0  0  0
  139.9490   74.2610  221.6020 C   0  0  0  0  0  0  0  0  0  0  0  0
  139.6380   73.4400  222.6410 N   0  0  0  0  0  0  0  0  0  0  0  0
  140.2700   72.2800  222.8480 C   0  0  0  0  0  0  0  0  0  0  0  0
  139.8620   71.5010  223.9640 N   0  0  0  0  0  0  0  0  0  0  0  0
  138.7360   70.6150  223.8140 C   0  0  0  0  0  0  0  0  0  0  0  0
  139.2610   69.1850  223.9860 C   0  0  0  0  0  0  0  0  0  0  0  0
  139.9090   69.1290  225.3220 C   0  0  0  0  0  0  0  0  0  0  0  0
  139.9060   67.9050  225.9660 C   0  0  0  0  0  0  0  0  0  0  0  0
  140.4930   67.7840  227.2130 C   0  0  0  0  0  0  0  0  0  0  0  0
  141.0770   68.8900  227.7960 C   0  0  0  0  0  0  0  0  0  0  0  0
  141.0910   70.1310  227.1650 C   0  0  0  0  0  0  0  0  0  0  0  0
  140.4980   70.2190  225.9250 C   0  0  0  0  0  0  0  0  0  0  0  0
  140.5160   71.5450  225.2540 C   0  0  0  0  0  0  0  0  0  0  0  0
  141.2450   71.9150  222.0010 N   0  0  0  0  0  0  0  0  0  0  0  0
  141.6070   72.6840  220.9450 C   0  0  0  0  0  0  0  0  0  0  0  0
  142.6390   72.3060  220.0410 N   0  0  0  0  0  0  0  0  0  0  0  0
  143.8420   73.1080  220.0200 C   0  0  0  0  0  0  0  0  0  0  0  0
  145.0170   72.4470  219.3800 C   0  0  0  0  0  0  0  0  0  0  0  0
  144.8830   70.9720  219.3150 C   0  0  0  0  0  0  0  0  0  0  0  0
  146.0150   70.1830  219.3400 C   0  0  0  0  0  0  0  0  0  0  0  0
  145.9150   68.7900  219.2790 C   0  0  0  0  0  0  0  0  0  0  0  0
  144.6820   68.1710  219.1930 C   0  0  0  0  0  0  0  0  0  0  0  0
  143.5310   68.9600  219.1670 C   0  0  0  0  0  0  0  0  0  0  0  0
  143.6670   70.3330  219.2280 C   0  0  0  0  0  0  0  0  0  0  0  0
  142.4500   71.1640  219.1990 C   0  0  0  0  0  0  0  0  0  0  0  0
  140.9340   73.8390  220.7890 N   0  0  0  0  0  0  0  0  0  0  0  0
  138.7090   76.0910  222.6340 C   0  0  0  0  0  0  0  0  0  0  0  0
  137.9200   77.3150  222.3120 C   0  0  0  0  0  0  0  0  0  0  0  0
  140.2282   80.4029  220.4552 H   0  0  0  0  0  0  0  0  0  0  0  0
  139.6111   81.8552  221.3404 H   0  0  0  0  0  0  0  0  0  0  0  0
  141.9953   79.1882  221.1602 H   0  0  0  0  0  0  0  0  0  0  0  0
  144.0383   78.9894  222.5428 H   0  0  0  0  0  0  0  0  0  0  0  0
  144.3843   80.5040  224.5006 H   0  0  0  0  0  0  0  0  0  0  0  0
  142.6400   82.1993  225.0081 H   0  0  0  0  0  0  0  0  0  0  0  0
  140.6240   82.3860  223.6247 H   0  0  0  0  0  0  0  0  0  0  0  0
  138.8529   77.7213  219.6496 H   0  0  0  0  0  0  0  0  0  0  0  0
  140.2418   78.6526  220.3961 H   0  0  0  0  0  0  0  0  0  0  0  0
  140.6871   76.2017  219.8695 H   0  0  0  0  0  0  0  0  0  0  0  0
  141.0415   76.7501  221.5395 H   0  0  0  0  0  0  0  0  0  0  0  0
  138.4826   75.3439  220.6113 H   0  0  0  0  0  0  0  0  0  0  0  0
  137.9789   70.8338  224.5815 H   0  0  0  0  0  0  0  0  0  0  0  0
  138.2658   70.7433  222.8279 H   0  0  0  0  0  0  0  0  0  0  0  0
  138.4293   68.4668  223.9371 H   0  0  0  0  0  0  0  0  0  0  0  0
  139.9726   68.9249  223.1885 H   0  0  0  0  0  0  0  0  0  0  0  0
  139.4387   67.0311  225.4886 H   0  0  0  0  0  0  0  0  0  0  0  0
  140.4941   66.8155  227.7346 H   0  0  0  0  0  0  0  0  0  0  0  0
  141.5443   68.7884  228.7866 H   0  0  0  0  0  0  0  0  0  0  0  0
  141.5577   71.0074  227.6385 H   0  0  0  0  0  0  0  0  0  0  0  0
  139.9964   72.2747  225.8924 H   0  0  0  0  0  0  0  0  0  0  0  0
  141.5652   71.8355  225.0967 H   0  0  0  0  0  0  0  0  0  0  0  0
  143.6270   74.0350  219.4683 H   0  0  0  0  0  0  0  0  0  0  0  0
  144.1173   73.2855  221.0701 H   0  0  0  0  0  0  0  0  0  0  0  0
  145.1241   72.8354  218.3564 H   0  0  0  0  0  0  0  0  0  0  0  0
  145.8995   72.6720  219.9969 H   0  0  0  0  0  0  0  0  0  0  0  0
  147.0062   70.6551  219.4086 H   0  0  0  0  0  0  0  0  0  0  0  0
  146.8292   68.1786  219.2997 H   0  0  0  0  0  0  0  0  0  0  0  0
  144.6092   67.0744  219.1458 H   0  0  0  0  0  0  0  0  0  0  0  0
  142.5353   68.4974  219.0993 H   0  0  0  0  0  0  0  0  0  0  0  0
  142.2552   71.4952  218.1683 H   0  0  0  0  0  0  0  0  0  0  0  0
  141.5930   70.5766  219.5603 H   0  0  0  0  0  0  0  0  0  0  0  0
  138.0561   75.3411  223.1045 H   0  0  0  0  0  0  0  0  0  0  0  0
  139.5231   76.3383  223.3312 H   0  0  0  0  0  0  0  0  0  0  0  0
  137.0497   77.0230  221.7060 H   0  0  0  0  0  0  0  0  0  0  0  0
  137.6177   77.7748  223.2645 H   0  0  0  0  0  0  0  0  0  0  0  0
  1  2  2  0
  2  3  2  0
  2  4  1  0
  4  5  1  0
  5  6  2  0
  6  7  1  0
  7  8  2  0
  8  9  1  0
  9 10  2  0
  2 11  1  0
 11 12  1  0
 12 13  1  0
 13 14  1  0
 14 15  1  0
 15 16  2  0
 16 17  1  0
 17 18  1  0
 18 19  1  0
 19 20  1  0
 20 21  1  0
 21 22  2  0
 22 23  1  0
 23 24  2  0
 24 25  1  0
 25 26  2  0
 26 27  1  0
 17 28  2  0
 28 29  1  0
 29 30  1  0
 30 31  1  0
 31 32  1  0
 32 33  1  0
 33 34  2  0
 34 35  1  0
 35 36  2  0
 36 37  1  0
 37 38  2  0
 38 39  1  0
 29 40  2  0
 14 41  1  0
 41 42  1  0
 10  5  1  0
 42 11  1  0
 40 15  1  0
 27 18  1  0
 39 30  1  0
 26 21  1  0
 38 33  1  0
  4 43  1  0
  4 44  1  0
  6 45  1  0
  7 46  1  0
  8 47  1  0
  9 48  1  0
 10 49  1  0
 12 50  1  0
 12 51  1  0
 13 52  1  0
 13 53  1  0
 14 54  1  0
 19 55  1  0
 19 56  1  0
 20 57  1  0
 20 58  1  0
 22 59  1  0
 23 60  1  0
 24 61  1  0
 25 62  1  0
 27 63  1  0
 27 64  1  0
 31 65  1  0
 31 66  1  0
 32 67  1  0
 32 68  1  0
 34 69  1  0
 35 70  1  0
 36 71  1  0
 37 72  1  0
 39 73  1  0
 39 74  1  0
 41 75  1  0
 41 76  1  0
 42 77  1  0
 42 78  1  0
M  END
>  <smiles>  (49) 
O=S(=O)(Cc1ccccc1)N1CCC(c2nc(N3CCc4ccccc4C3)nc(N3CCc4ccccc4C3)n2)CC1

>  <score_type>  (49) 
oracle

>  <origin>  (49) 
autodockgpu

>  <m_score__min__energy>  (49) 
-12.01

>  <m_primary>  (49) 
energy

>  <rmsd>  (49) 
11.318835945418563

>  <m_score__min__rmsd>  (49) 
11.318835945418563

>  <meeko>  (49) 
{"free_energy": -11.52, "intermolecular_energy": -13.31, "internal_energy": -1.84, "cluster_size": 32, "cluster_id": 1, "rank_in_cluster": 11}

>  <energy>  (49) 
-10.33

>  <cluster_rmsd>  (49) 
0.15

>  <cluster>  (49) 
5

$$$$

     RDKit          3D

 78 84  0  0  0  0  0  0  0  0999 V2000
  139.7930   80.6410  219.6640 O   0  0  0  0  0  0  0  0  0  0  0  0
  140.8920   79.6260  219.9450 S   0  0  0  0  0  0  0  0  0  0  0  0
  141.8310   80.2280  220.9750 O   0  0  0  0  0  0  0  0  0  0  0  0
  141.8180   79.4310  218.4650 C   0  0  0  0  0  0  0  0  0  0  0  0
  142.4070   78.0870  218.3800 C   0  0  0  0  0  0  0  0  0  0  0  0
  142.3910   77.4670  217.1350 C   0  0  0  0  0  0  0  0  0  0  0  0
  142.8870   76.1800  216.9550 C   0  0  0  0  0  0  0  0  0  0  0  0
  143.4140   75.4770  218.0240 C   0  0  0  0  0  0  0  0  0  0  0  0
  143.4270   76.0950  219.2540 C   0  0  0  0  0  0  0  0  0  0  0  0
  142.9320   77.3730  219.4160 C   0  0  0  0  0  0  0  0  0  0  0  0
  140.2840   78.1840  220.5230 N   0  0  0  0  0  0  0  0  0  0  0  0
  139.6550   77.2640  219.6860 C   0  0  0  0  0  0  0  0  0  0  0  0
  140.1270   75.8250  219.8750 C   0  0  0  0  0  0  0  0  0  0  0  0
  140.1240   75.4950  221.3510 C   0  0  0  0  0  0  0  0  0  0  0  0
  140.5500   74.1130  221.5890 C   0  0  0  0  0  0  0  0  0  0  0  0
  140.1040   73.3560  222.6270 N   0  0  0  0  0  0  0  0  0  0  0  0
  140.5120   72.0970  222.8190 C   0  0  0  0  0  0  0  0  0  0  0  0
  139.9800   71.3980  223.9350 N   0  0  0  0  0  0  0  0  0  0  0  0
  138.8090   70.5810  223.7460 C   0  0  0  0  0  0  0  0  0  0  0  0
  139.2230   69.1290  224.0120 C   0  0  0  0  0  0  0  0  0  0  0  0
  139.7770   69.0920  225.3900 C   0  0  0  0  0  0  0  0  0  0  0  0
  139.6480   67.9020  226.0820 C   0  0  0  0  0  0  0  0  0  0  0  0
  140.1440   67.8000  227.3700 C   0  0  0  0  0  0  0  0  0  0  0  0
  140.7620   68.8910  227.9460 C   0  0  0  0  0  0  0  0  0  0  0  0
  140.9020   70.0980  227.2670 C   0  0  0  0  0  0  0  0  0  0  0  0
  140.3990   70.1680  225.9860 C   0  0  0  0  0  0  0  0  0  0  0  0
  140.5500   71.4580  225.2640 C   0  0  0  0  0  0  0  0  0  0  0  0
  141.3920   71.5640  221.9560 N   0  0  0  0  0  0  0  0  0  0  0  0
  141.8770   72.2620  220.9000 C   0  0  0  0  0  0  0  0  0  0  0  0
  142.8100   71.7060  219.9790 N   0  0  0  0  0  0  0  0  0  0  0  0
  143.9960   72.4750  219.6760 C   0  0  0  0  0  0  0  0  0  0  0  0
  145.1010   71.6910  219.0520 C   0  0  0  0  0  0  0  0  0  0  0  0
  144.9760   70.2330  219.2860 C   0  0  0  0  0  0  0  0  0  0  0  0
  146.1120   69.4510  219.3400 C   0  0  0  0  0  0  0  0  0  0  0  0
  146.0190   68.0730  219.5580 C   0  0  0  0  0  0  0  0  0  0  0  0
  144.7910   67.4630  219.7260 C   0  0  0  0  0  0  0  0  0  0  0  0
  143.6350   68.2440  219.6720 C   0  0  0  0  0  0  0  0  0  0  0  0
  143.7640   69.6020  219.4540 C   0  0  0  0  0  0  0  0  0  0  0  0
  142.5420   70.4260  219.3980 C   0  0  0  0  0  0  0  0  0  0  0  0
  141.4290   73.5220  220.7610 N   0  0  0  0  0  0  0  0  0  0  0  0
  141.0790   76.4550  222.0240 C   0  0  0  0  0  0  0  0  0  0  0  0
  140.5400   77.8370  221.8740 C   0  0  0  0  0  0  0  0  0  0  0  0
  141.1531   79.5866  217.6026 H   0  0  0  0  0  0  0  0  0  0  0  0
  142.6333   80.1694  218.4642 H   0  0  0  0  0  0  0  0  0  0  0  0
  141.9760   78.0077  216.2716 H   0  0  0  0  0  0  0  0  0  0  0  0
  142.8601   75.7183  215.9569 H   0  0  0  0  0  0  0  0  0  0  0  0
  143.8093   74.4586  217.8953 H   0  0  0  0  0  0  0  0  0  0  0  0
  143.8391   75.5609  220.1228 H   0  0  0  0  0  0  0  0  0  0  0  0
  142.9621   77.8314  220.4155 H   0  0  0  0  0  0  0  0  0  0  0  0
  138.5734   77.3014  219.8826 H   0  0  0  0  0  0  0  0  0  0  0  0
  139.9095   77.5483  218.6543 H   0  0  0  0  0  0  0  0  0  0  0  0
  139.4487   75.1416  219.3430 H   0  0  0  0  0  0  0  0  0  0  0  0
  141.1439   75.7116  219.4712 H   0  0  0  0  0  0  0  0  0  0  0  0
  139.1063   75.5940  221.7567 H   0  0  0  0  0  0  0  0  0  0  0  0
  138.0205   70.8834  224.4508 H   0  0  0  0  0  0  0  0  0  0  0  0
  138.4138   70.6942  222.7257 H   0  0  0  0  0  0  0  0  0  0  0  0
  138.3492   68.4651  223.9361 H   0  0  0  0  0  0  0  0  0  0  0  0
  139.9657   68.7868  223.2762 H   0  0  0  0  0  0  0  0  0  0  0  0
  139.1532   67.0399  225.6108 H   0  0  0  0  0  0  0  0  0  0  0  0
  140.0465   66.8579  227.9294 H   0  0  0  0  0  0  0  0  0  0  0  0
  141.1548   68.8045  228.9698 H   0  0  0  0  0  0  0  0  0  0  0  0
  141.3952   70.9627  227.7350 H   0  0  0  0  0  0  0  0  0  0  0  0
  140.0402   72.2479  225.8351 H   0  0  0  0  0  0  0  0  0  0  0  0
  141.6245   71.6726  225.1667 H   0  0  0  0  0  0  0  0  0  0  0  0
  143.7142   73.2820  218.9836 H   0  0  0  0  0  0  0  0  0  0  0  0
  144.3811   72.8465  220.6371 H   0  0  0  0  0  0  0  0  0  0  0  0
  145.0928   71.8746  217.9675 H   0  0  0  0  0  0  0  0  0  0  0  0
  146.0426   72.0206  219.5154 H   0  0  0  0  0  0  0  0  0  0  0  0
  147.1002   69.9164  219.2103 H   0  0  0  0  0  0  0  0  0  0  0  0
  146.9359   67.4665  219.5962 H   0  0  0  0  0  0  0  0  0  0  0  0
  144.7250   66.3788  219.8996 H   0  0  0  0  0  0  0  0  0  0  0  0
  142.6424   67.7876  219.8003 H   0  0  0  0  0  0  0  0  0  0  0  0
  142.2331   70.5551  218.3502 H   0  0  0  0  0  0  0  0  0  0  0  0
  141.7352   69.9286  219.9563 H   0  0  0  0  0  0  0  0  0  0  0  0
  141.1671   76.2043  223.0914 H   0  0  0  0  0  0  0  0  0  0  0  0
  142.0743   76.3850  221.5610 H   0  0  0  0  0  0  0  0  0  0  0  0
  139.5996   77.9107  222.4399 H   0  0  0  0  0  0  0  0  0  0  0  0
  141.3019   78.5326  222.2556 H   0  0  0  0  0  0  0  0  0  0  0  0
  1  2  2  0
  2  3  2  0
  2  4  1  0
  4  5  1  0
  5  6  2  0
  6  7  1  0
  7  8  2  0
  8  9  1  0
  9 10  2  0
  2 11  1  0
 11 12  1  0
 12 13  1  0
 13 14  1  0
 14 15  1  0
 15 16  2  0
 16 17  1  0
 17 18  1  0
 18 19  1  0
 19 20  1  0
 20 21  1  0
 21 22  2  0
 22 23  1  0
 23 24  2  0
 24 25  1  0
 25 26  2  0
 26 27  1  0
 17 28  2  0
 28 29  1  0
 29 30  1  0
 30 31  1  0
 31 32  1  0
 32 33  1  0
 33 34  2  0
 34 35  1  0
 35 36  2  0
 36 37  1  0
 37 38  2  0
 38 39  1  0
 29 40  2  0
 14 41  1  0
 41 42  1  0
 10  5  1  0
 42 11  1  0
 40 15  1  0
 27 18  1  0
 39 30  1  0
 26 21  1  0
 38 33  1  0
  4 43  1  0
  4 44  1  0
  6 45  1  0
  7 46  1  0
  8 47  1  0
  9 48  1  0
 10 49  1  0
 12 50  1  0
 12 51  1  0
 13 52  1  0
 13 53  1  0
 14 54  1  0
 19 55  1  0
 19 56  1  0
 20 57  1  0
 20 58  1  0
 22 59  1  0
 23 60  1  0
 24 61  1  0
 25 62  1  0
 27 63  1  0
 27 64  1  0
 31 65  1  0
 31 66  1  0
 32 67  1  0
 32 68  1  0
 34 69  1  0
 35 70  1  0
 36 71  1  0
 37 72  1  0
 39 73  1  0
 39 74  1  0
 41 75  1  0
 41 76  1  0
 42 77  1  0
 42 78  1  0
M  END
>  <smiles>  (50) 
O=S(=O)(Cc1ccccc1)N1CCC(c2nc(N3CCc4ccccc4C3)nc(N3CCc4ccccc4C3)n2)CC1

>  <score_type>  (50) 
oracle

>  <origin>  (50) 
autodockgpu

>  <m_score__min__energy>  (50) 
-12.01

>  <m_primary>  (50) 
energy

>  <rmsd>  (50) 
11.387686642822281

>  <m_score__min__rmsd>  (50) 
11.387686642822281

>  <meeko>  (50) 
{"free_energy": -10.44, "intermolecular_energy": -12.23, "internal_energy": -2.51, "cluster_size": 5, "cluster_id": 4, "rank_in_cluster": 1}

>  <energy>  (50) 
-10.32

>  <cluster_rmsd>  (50) 
0.09

>  <cluster>  (50) 
5

$$$$
