
     RDKit          3D

 69 75  0  0  0  0  0  0  0  0999 V2000
  139.0990   71.9420  219.2840 O   0  0  0  0  0  0  0  0  0  0  0  0
  139.8410   72.1890  220.2860 C   0  0  0  0  0  0  0  0  0  0  0  0
  139.7020   71.2710  221.4040 C   0  0  0  0  0  0  0  0  0  0  0  0
  140.0060   71.3680  222.7290 C   0  0  0  0  0  0  0  0  0  0  0  0
  139.6750   70.1560  223.3140 C   0  0  0  0  0  0  0  0  0  0  0  0
  139.7640   69.6740  224.5950 C   0  0  0  0  0  0  0  0  0  0  0  0
  140.2300   70.4200  225.7440 C   0  0  0  0  0  0  0  0  0  0  0  0
  139.7970   70.0990  227.0250 C   0  0  0  0  0  0  0  0  0  0  0  0
  140.1830   70.8500  228.1340 C   0  0  0  0  0  0  0  0  0  0  0  0
  141.0300   71.9480  227.9350 C   0  0  0  0  0  0  0  0  0  0  0  0
  141.4640   72.2650  226.6410 C   0  0  0  0  0  0  0  0  0  0  0  0
  141.0560   71.4930  225.5550 C   0  0  0  0  0  0  0  0  0  0  0  0
  139.3360   68.3680  224.8460 C   0  0  0  0  0  0  0  0  0  0  0  0
  138.8360   67.5610  223.8750 C   0  0  0  0  0  0  0  0  0  0  0  0
  138.7430   68.0280  222.5950 C   0  0  0  0  0  0  0  0  0  0  0  0
  139.1650   69.3320  222.3260 C   0  0  0  0  0  0  0  0  0  0  0  0
  139.1920   70.0230  221.1960 N   0  0  0  0  0  0  0  0  0  0  0  0
  140.7410   73.3170  220.2840 N   0  0  0  0  0  0  0  0  0  0  0  0
  140.2170   74.6700  220.1910 C   0  0  0  0  0  0  0  0  0  0  0  0
  141.4190   75.5580  220.2210 C   0  0  1  0  0  0  0  0  0  0  0  0
  141.5060   76.4120  218.9770 C   0  0  0  0  0  0  0  0  0  0  0  0
  142.2290   77.6390  219.4600 C   0  0  0  0  0  0  0  0  0  0  0  0
  142.0900   77.7160  220.8790 N   0  0  0  0  0  0  0  0  0  0  0  0
  141.4230   78.9760  221.2810 C   0  0  0  0  0  0  0  0  0  0  0  0
  142.3090   79.8150  222.1410 C   0  0  0  0  0  0  0  0  0  0  0  0
  141.6630   80.6630  223.1590 C   0  0  0  0  0  0  0  0  0  0  0  0
  140.4690   80.0630  223.8330 C   0  0  0  0  0  0  0  0  0  0  0  0
  139.5050   79.6630  222.7210 C   0  0  0  0  0  0  0  0  0  0  0  0
  140.1530   78.5440  221.9620 C   0  0  0  0  0  0  0  0  0  0  0  0
  141.3420   76.5900  221.3240 C   0  0  0  0  0  0  0  0  0  0  0  0
  142.5480   74.6390  220.3720 C   0  0  0  0  0  0  0  0  0  0  0  0
  143.9040   74.9000  220.4650 C   0  0  0  0  0  0  0  0  0  0  0  0
  144.8400   73.8940  220.6020 C   0  0  0  0  0  0  0  0  0  0  0  0
  144.3980   72.5920  220.6460 C   0  0  0  0  0  0  0  0  0  0  0  0
  143.0590   72.2930  220.5590 C   0  0  0  0  0  0  0  0  0  0  0  0
  142.1490   73.3210  220.4220 C   0  0  0  0  0  0  0  0  0  0  0  0
  140.4338   72.2440  223.2385 H   0  0  0  0  0  0  0  0  0  0  0  0
  139.1345   69.2324  227.1670 H   0  0  0  0  0  0  0  0  0  0  0  0
  139.8307   70.5866  229.1422 H   0  0  0  0  0  0  0  0  0  0  0  0
  141.3530   72.5587  228.7910 H   0  0  0  0  0  0  0  0  0  0  0  0
  142.1293   73.1265  226.4818 H   0  0  0  0  0  0  0  0  0  0  0  0
  141.3998   71.7479  224.5417 H   0  0  0  0  0  0  0  0  0  0  0  0
  139.4069   67.9775  225.8719 H   0  0  0  0  0  0  0  0  0  0  0  0
  138.5085   66.5393  224.1175 H   0  0  0  0  0  0  0  0  0  0  0  0
  138.3440   67.3903  221.7924 H   0  0  0  0  0  0  0  0  0  0  0  0
  138.8590   69.6330  220.2790 H   0  0  0  0  0  0  0  0  0  0  0  0
  139.6611   74.8047  219.2514 H   0  0  0  0  0  0  0  0  0  0  0  0
  139.5171   74.8972  221.0086 H   0  0  0  0  0  0  0  0  0  0  0  0
  142.0764   75.9024  218.1865 H   0  0  0  0  0  0  0  0  0  0  0  0
  140.5241   76.6335  218.5333 H   0  0  0  0  0  0  0  0  0  0  0  0
  143.2943   77.5709  219.1944 H   0  0  0  0  0  0  0  0  0  0  0  0
  141.8033   78.5376  218.9897 H   0  0  0  0  0  0  0  0  0  0  0  0
  141.1971   79.6275  220.4240 H   0  0  0  0  0  0  0  0  0  0  0  0
  142.9976   79.1365  222.6658 H   0  0  0  0  0  0  0  0  0  0  0  0
  142.7851   80.5231  221.4468 H   0  0  0  0  0  0  0  0  0  0  0  0
  142.4100   80.8919  223.9333 H   0  0  0  0  0  0  0  0  0  0  0  0
  141.2939   81.5501  222.6235 H   0  0  0  0  0  0  0  0  0  0  0  0
  140.7654   79.1788  224.4164 H   0  0  0  0  0  0  0  0  0  0  0  0
  140.0026   80.7760  224.5288 H   0  0  0  0  0  0  0  0  0  0  0  0
  138.5508   79.3249  223.1514 H   0  0  0  0  0  0  0  0  0  0  0  0
  139.2929   80.5157  222.0592 H   0  0  0  0  0  0  0  0  0  0  0  0
  140.3872   77.7298  222.6636 H   0  0  0  0  0  0  0  0  0  0  0  0
  139.4494   78.2138  221.1836 H   0  0  0  0  0  0  0  0  0  0  0  0
  141.7764   76.1879  222.2512 H   0  0  0  0  0  0  0  0  0  0  0  0
  140.2988   76.8656  221.5378 H   0  0  0  0  0  0  0  0  0  0  0  0
  144.2478   75.9443  220.4285 H   0  0  0  0  0  0  0  0  0  0  0  0
  145.9124   74.1279  220.6742 H   0  0  0  0  0  0  0  0  0  0  0  0
  145.1283   71.7764  220.7526 H   0  0  0  0  0  0  0  0  0  0  0  0
  142.7176   71.2480  220.5981 H   0  0  0  0  0  0  0  0  0  0  0  0
  1  2  2  0
  2  3  1  0
  3  4  2  0
  4  5  1  0
  5  6  2  0
  6  7  1  0
  7  8  2  0
  8  9  1  0
  9 10  2  0
 10 11  1  0
 11 12  2  0
  6 13  1  0
 13 14  2  0
 14 15  1  0
 15 16  2  0
 16 17  1  0
  2 18  1  0
 18 19  1  0
 20 19  1  6
 20 21  1  0
 21 22  1  0
 22 23  1  0
 23 24  1  0
 24 25  1  0
 25 26  1  0
 26 27  1  0
 27 28  1  0
 28 29  1  0
 23 30  1  0
 20 31  1  0
 31 32  2  0
 32 33  1  0
 33 34  2  0
 34 35  1  0
 35 36  2  0
 17  3  1  0
 36 18  1  0
 16  5  1  0
 30 20  1  0
 36 31  1  0
 12  7  1  0
 29 24  1  0
  4 37  1  0
  8 38  1  0
  9 39  1  0
 10 40  1  0
 11 41  1  0
 12 42  1  0
 13 43  1  0
 14 44  1  0
 15 45  1  0
 17 46  1  0
 19 47  1  0
 19 48  1  0
 21 49  1  0
 21 50  1  0
 22 51  1  0
 22 52  1  0
 24 53  1  0
 25 54  1  0
 25 55  1  0
 26 56  1  0
 26 57  1  0
 27 58  1  0
 27 59  1  0
 28 60  1  0
 28 61  1  0
 29 62  1  0
 29 63  1  0
 30 64  1  0
 30 65  1  0
 32 66  1  0
 33 67  1  0
 34 68  1  0
 35 69  1  0
M  END
>  <smiles>  (1) 
O=C(c1cc2c(-c3ccccc3)cccc2[nH]1)N1C[C@]2(CCN(C3CCCCC3)C2)c2ccccc21

>  <score_type>  (1) 
oracle

>  <origin>  (1) 
autodockgpu

>  <m_score__min__energy>  (1) 
-10.609999999999999

>  <m_primary>  (1) 
energy

>  <rmsd>  (1) 
3.2912845086930687

>  <m_score__min__rmsd>  (1) 
3.2912845086930687

>  <meeko>  (1) 
{"free_energy": -10.12, "intermolecular_energy": -11.31, "internal_energy": -1.97, "cluster_size": 42, "cluster_id": 1, "rank_in_cluster": 41}

>  <energy>  (1) 
-10.61

>  <cluster_rmsd>  (1) 
0.0

>  <cluster>  (1) 
1

$$$$

     RDKit          3D

 69 75  0  0  0  0  0  0  0  0999 V2000
  137.9360   72.6450  220.1090 O   0  0  0  0  0  0  0  0  0  0  0  0
  138.9110   72.7210  220.9210 C   0  0  0  0  0  0  0  0  0  0  0  0
  139.0000   71.6410  221.8890 C   0  0  0  0  0  0  0  0  0  0  0  0
  139.4180   71.5860  223.1840 C   0  0  0  0  0  0  0  0  0  0  0  0
  139.3020   70.2680  223.5960 C   0  0  0  0  0  0  0  0  0  0  0  0
  139.5770   69.6220  224.7750 C   0  0  0  0  0  0  0  0  0  0  0  0
  140.0560   70.2520  225.9880 C   0  0  0  0  0  0  0  0  0  0  0  0
  140.7420   71.4590  225.9400 C   0  0  0  0  0  0  0  0  0  0  0  0
  141.2670   72.0450  227.0910 C   0  0  0  0  0  0  0  0  0  0  0  0
  141.0860   71.3890  228.3150 C   0  0  0  0  0  0  0  0  0  0  0  0
  140.3910   70.1730  228.3570 C   0  0  0  0  0  0  0  0  0  0  0  0
  139.8810   69.6160  227.1850 C   0  0  0  0  0  0  0  0  0  0  0  0
  139.3440   68.2470  224.8510 C   0  0  0  0  0  0  0  0  0  0  0  0
  138.8570   67.5270  223.8070 C   0  0  0  0  0  0  0  0  0  0  0  0
  138.5800   68.1580  222.6280 C   0  0  0  0  0  0  0  0  0  0  0  0
  138.8060   69.5320  222.5340 C   0  0  0  0  0  0  0  0  0  0  0  0
  138.6330   70.3770  221.5280 N   0  0  0  0  0  0  0  0  0  0  0  0
  139.8410   73.8230  220.8660 N   0  0  0  0  0  0  0  0  0  0  0  0
  139.3940   75.1730  221.1700 C   0  0  0  0  0  0  0  0  0  0  0  0
  140.6080   76.0310  221.0150 C   0  0  1  0  0  0  0  0  0  0  0  0
  140.3950   77.1050  219.9730 C   0  0  0  0  0  0  0  0  0  0  0  0
  141.2970   78.2130  220.4410 C   0  0  0  0  0  0  0  0  0  0  0  0
  141.5650   78.0200  221.8300 N   0  0  0  0  0  0  0  0  0  0  0  0
  141.1140   79.1860  222.6260 C   0  0  0  0  0  0  0  0  0  0  0  0
  140.3810   80.1750  221.7800 C   0  0  0  0  0  0  0  0  0  0  0  0
  140.4840   81.5970  222.1540 C   0  0  0  0  0  0  0  0  0  0  0  0
  141.8220   82.0330  222.6660 C   0  0  0  0  0  0  0  0  0  0  0  0
  142.1580   81.1070  223.8300 C   0  0  0  0  0  0  0  0  0  0  0  0
  142.3650   79.7380  223.2520 C   0  0  0  0  0  0  0  0  0  0  0  0
  140.9040   76.8360  222.2610 C   0  0  0  0  0  0  0  0  0  0  0  0
  141.6770   75.0930  220.6690 C   0  0  0  0  0  0  0  0  0  0  0  0
  143.0180   75.3230  220.4160 C   0  0  0  0  0  0  0  0  0  0  0  0
  143.8930   74.3030  220.0960 C   0  0  0  0  0  0  0  0  0  0  0  0
  143.4040   73.0190  220.0300 C   0  0  0  0  0  0  0  0  0  0  0  0
  142.0780   72.7510  220.2780 C   0  0  0  0  0  0  0  0  0  0  0  0
  141.2290   73.7920  220.5930 C   0  0  0  0  0  0  0  0  0  0  0  0
  139.7800   72.4299  223.7896 H   0  0  0  0  0  0  0  0  0  0  0  0
  140.8740   71.9640  224.9717 H   0  0  0  0  0  0  0  0  0  0  0  0
  141.8105   72.9999  227.0390 H   0  0  0  0  0  0  0  0  0  0  0  0
  141.4881   71.8269  229.2405 H   0  0  0  0  0  0  0  0  0  0  0  0
  140.2474   69.6563  229.3174 H   0  0  0  0  0  0  0  0  0  0  0  0
  139.3359   68.6614  227.2239 H   0  0  0  0  0  0  0  0  0  0  0  0
  139.5637   67.7259  225.7945 H   0  0  0  0  0  0  0  0  0  0  0  0
  138.6872   66.4451  223.9104 H   0  0  0  0  0  0  0  0  0  0  0  0
  138.1865   67.5944  221.7693 H   0  0  0  0  0  0  0  0  0  0  0  0
  138.2640   70.0820  220.5910 H   0  0  0  0  0  0  0  0  0  0  0  0
  138.6076   75.4865  220.4676 H   0  0  0  0  0  0  0  0  0  0  0  0
  138.9643   75.2466  222.1799 H   0  0  0  0  0  0  0  0  0  0  0  0
  140.6893   76.7507  218.9741 H   0  0  0  0  0  0  0  0  0  0  0  0
  139.3435   77.4133  219.8765 H   0  0  0  0  0  0  0  0  0  0  0  0
  142.2394   78.1893  219.8741 H   0  0  0  0  0  0  0  0  0  0  0  0
  140.8124   79.1875  220.2816 H   0  0  0  0  0  0  0  0  0  0  0  0
  140.3847   78.9120  223.4025 H   0  0  0  0  0  0  0  0  0  0  0  0
  140.7611   80.0759  220.7525 H   0  0  0  0  0  0  0  0  0  0  0  0
  139.3180   79.9257  221.9136 H   0  0  0  0  0  0  0  0  0  0  0  0
  140.2487   82.1995  221.2642 H   0  0  0  0  0  0  0  0  0  0  0  0
  139.7798   81.7424  222.9864 H   0  0  0  0  0  0  0  0  0  0  0  0
  142.5808   81.9410  221.8750 H   0  0  0  0  0  0  0  0  0  0  0  0
  141.8041   83.0856  222.9851 H   0  0  0  0  0  0  0  0  0  0  0  0
  143.0752   81.4482  224.3323 H   0  0  0  0  0  0  0  0  0  0  0  0
  141.3488   81.1016  224.5751 H   0  0  0  0  0  0  0  0  0  0  0  0
  143.1499   79.7938  222.4833 H   0  0  0  0  0  0  0  0  0  0  0  0
  142.6537   79.0665  224.0740 H   0  0  0  0  0  0  0  0  0  0  0  0
  141.5544   76.2628  222.9381 H   0  0  0  0  0  0  0  0  0  0  0  0
  139.9806   77.0734  222.8097 H   0  0  0  0  0  0  0  0  0  0  0  0
  143.4002   76.3530  220.4716 H   0  0  0  0  0  0  0  0  0  0  0  0
  144.9547   74.5125  219.8988 H   0  0  0  0  0  0  0  0  0  0  0  0
  144.0844   72.1933  219.7748 H   0  0  0  0  0  0  0  0  0  0  0  0
  141.6991   71.7196  220.2259 H   0  0  0  0  0  0  0  0  0  0  0  0
  1  2  2  0
  2  3  1  0
  3  4  2  0
  4  5  1  0
  5  6  2  0
  6  7  1  0
  7  8  2  0
  8  9  1  0
  9 10  2  0
 10 11  1  0
 11 12  2  0
  6 13  1  0
 13 14  2  0
 14 15  1  0
 15 16  2  0
 16 17  1  0
  2 18  1  0
 18 19  1  0
 20 19  1  1
 20 21  1  0
 21 22  1  0
 22 23  1  0
 23 24  1  0
 24 25  1  0
 25 26  1  0
 26 27  1  0
 27 28  1  0
 28 29  1  0
 23 30  1  0
 20 31  1  0
 31 32  2  0
 32 33  1  0
 33 34  2  0
 34 35  1  0
 35 36  2  0
 17  3  1  0
 36 18  1  0
 16  5  1  0
 30 20  1  0
 36 31  1  0
 12  7  1  0
 29 24  1  0
  4 37  1  0
  8 38  1  0
  9 39  1  0
 10 40  1  0
 11 41  1  0
 12 42  1  0
 13 43  1  0
 14 44  1  0
 15 45  1  0
 17 46  1  0
 19 47  1  0
 19 48  1  0
 21 49  1  0
 21 50  1  0
 22 51  1  0
 22 52  1  0
 24 53  1  0
 25 54  1  0
 25 55  1  0
 26 56  1  0
 26 57  1  0
 27 58  1  0
 27 59  1  0
 28 60  1  0
 28 61  1  0
 29 62  1  0
 29 63  1  0
 30 64  1  0
 30 65  1  0
 32 66  1  0
 33 67  1  0
 34 68  1  0
 35 69  1  0
M  END
>  <smiles>  (2) 
O=C(c1cc2c(-c3ccccc3)cccc2[nH]1)N1C[C@]2(CCN(C3CCCCC3)C2)c2ccccc21

>  <score_type>  (2) 
oracle

>  <origin>  (2) 
autodockgpu

>  <m_score__min__energy>  (2) 
-10.609999999999999

>  <m_primary>  (2) 
energy

>  <rmsd>  (2) 
2.535816557292317

>  <m_score__min__rmsd>  (2) 
2.535816557292317

>  <meeko>  (2) 
{"free_energy": -10.32, "intermolecular_energy": -11.51, "internal_energy": -1.82, "cluster_size": 42, "cluster_id": 1, "rank_in_cluster": 34}

>  <energy>  (2) 
-10.61

>  <cluster_rmsd>  (2) 
0.1

>  <cluster>  (2) 
1

$$$$

     RDKit          3D

 69 75  0  0  0  0  0  0  0  0999 V2000
  138.3000   72.6920  219.9080 O   0  0  0  0  0  0  0  0  0  0  0  0
  139.2810   72.7350  220.7140 C   0  0  0  0  0  0  0  0  0  0  0  0
  139.2870   71.7080  221.7420 C   0  0  0  0  0  0  0  0  0  0  0  0
  139.6760   71.7030  223.0480 C   0  0  0  0  0  0  0  0  0  0  0  0
  139.4750   70.4200  223.5300 C   0  0  0  0  0  0  0  0  0  0  0  0
  139.6880   69.8280  224.7500 C   0  0  0  0  0  0  0  0  0  0  0  0
  140.1780   70.4980  225.9360 C   0  0  0  0  0  0  0  0  0  0  0  0
  139.7590   70.1030  227.2000 C   0  0  0  0  0  0  0  0  0  0  0  0
  140.1700   70.7800  228.3480 C   0  0  0  0  0  0  0  0  0  0  0  0
  141.0260   71.8790  228.2040 C   0  0  0  0  0  0  0  0  0  0  0  0
  141.4470   72.2700  226.9250 C   0  0  0  0  0  0  0  0  0  0  0  0
  141.0140   71.5710  225.8000 C   0  0  0  0  0  0  0  0  0  0  0  0
  139.3740   68.4750  224.8970 C   0  0  0  0  0  0  0  0  0  0  0  0
  138.8660   67.7260  223.8840 C   0  0  0  0  0  0  0  0  0  0  0  0
  138.6500   68.3030  222.6650 C   0  0  0  0  0  0  0  0  0  0  0  0
  138.9580   69.6550  222.5000 C   0  0  0  0  0  0  0  0  0  0  0  0
  138.8550   70.4490  221.4440 N   0  0  0  0  0  0  0  0  0  0  0  0
  140.2970   73.7530  220.5950 N   0  0  0  0  0  0  0  0  0  0  0  0
  139.9210   75.1550  220.5070 C   0  0  0  0  0  0  0  0  0  0  0  0
  141.2110   75.9000  220.3990 C   0  0  1  0  0  0  0  0  0  0  0  0
  141.2750   76.7140  219.1260 C   0  0  0  0  0  0  0  0  0  0  0  0
  142.1730   77.8590  219.5020 C   0  0  0  0  0  0  0  0  0  0  0  0
  142.1790   77.9810  220.9250 N   0  0  0  0  0  0  0  0  0  0  0  0
  141.6970   79.3170  221.3470 C   0  0  0  0  0  0  0  0  0  0  0  0
  142.5480   79.8870  222.4330 C   0  0  0  0  0  0  0  0  0  0  0  0
  141.8930   80.7700  223.4160 C   0  0  0  0  0  0  0  0  0  0  0  0
  140.5030   80.3780  223.8070 C   0  0  0  0  0  0  0  0  0  0  0  0
  139.7070   80.2710  222.5110 C   0  0  0  0  0  0  0  0  0  0  0  0
  140.2640   79.1040  221.7520 C   0  0  0  0  0  0  0  0  0  0  0  0
  141.3550   76.9570  221.4720 C   0  0  0  0  0  0  0  0  0  0  0  0
  142.2400   74.8630  220.4740 C   0  0  0  0  0  0  0  0  0  0  0  0
  143.6200   74.9690  220.4340 C   0  0  0  0  0  0  0  0  0  0  0  0
  144.4470   73.8660  220.5150 C   0  0  0  0  0  0  0  0  0  0  0  0
  143.8690   72.6240  220.6400 C   0  0  0  0  0  0  0  0  0  0  0  0
  142.5030   72.4780  220.6870 C   0  0  0  0  0  0  0  0  0  0  0  0
  141.7040   73.5990  220.6010 C   0  0  0  0  0  0  0  0  0  0  0  0
  140.0750   72.5579  223.6137 H   0  0  0  0  0  0  0  0  0  0  0  0
  139.0880   69.2368  227.2978 H   0  0  0  0  0  0  0  0  0  0  0  0
  139.8297   70.4582  229.3433 H   0  0  0  0  0  0  0  0  0  0  0  0
  141.3668   72.4333  229.0909 H   0  0  0  0  0  0  0  0  0  0  0  0
  142.1213   73.1314  226.8093 H   0  0  0  0  0  0  0  0  0  0  0  0
  141.3461   71.8837  224.7990 H   0  0  0  0  0  0  0  0  0  0  0  0
  139.5450   67.9966  225.8726 H   0  0  0  0  0  0  0  0  0  0  0  0
  138.6305   66.6635  224.0441 H   0  0  0  0  0  0  0  0  0  0  0  0
  138.2417   67.7146  221.8301 H   0  0  0  0  0  0  0  0  0  0  0  0
  138.4880   70.1220  220.5160 H   0  0  0  0  0  0  0  0  0  0  0  0
  139.2976   75.3322  219.6182 H   0  0  0  0  0  0  0  0  0  0  0  0
  139.3312   75.4780  221.3775 H   0  0  0  0  0  0  0  0  0  0  0  0
  141.7070   76.1266  218.3024 H   0  0  0  0  0  0  0  0  0  0  0  0
  140.2865   77.0377  218.7682 H   0  0  0  0  0  0  0  0  0  0  0  0
  143.1939   77.6638  219.1419 H   0  0  0  0  0  0  0  0  0  0  0  0
  141.8078   78.7906  219.0451 H   0  0  0  0  0  0  0  0  0  0  0  0
  141.7617   80.0645  220.5426 H   0  0  0  0  0  0  0  0  0  0  0  0
  142.9848   79.0431  222.9871 H   0  0  0  0  0  0  0  0  0  0  0  0
  143.2718   80.5324  221.9137 H   0  0  0  0  0  0  0  0  0  0  0  0
  142.5108   80.7814  224.3261 H   0  0  0  0  0  0  0  0  0  0  0  0
  141.8044   81.7521  222.9285 H   0  0  0  0  0  0  0  0  0  0  0  0
  140.5130   79.4096  224.3287 H   0  0  0  0  0  0  0  0  0  0  0  0
  140.0570   81.1160  224.4899 H   0  0  0  0  0  0  0  0  0  0  0  0
  138.6428   80.1041  222.7336 H   0  0  0  0  0  0  0  0  0  0  0  0
  139.7866   81.1971  221.9228 H   0  0  0  0  0  0  0  0  0  0  0  0
  140.2056   78.2083  222.3878 H   0  0  0  0  0  0  0  0  0  0  0  0
  139.6694   78.9851  220.8343 H   0  0  0  0  0  0  0  0  0  0  0  0
  141.8276   76.5271  222.3675 H   0  0  0  0  0  0  0  0  0  0  0  0
  140.3742   77.3545  221.7720 H   0  0  0  0  0  0  0  0  0  0  0  0
  144.0733   75.9663  220.3343 H   0  0  0  0  0  0  0  0  0  0  0  0
  145.5408   73.9778  220.4804 H   0  0  0  0  0  0  0  0  0  0  0  0
  144.5107   71.7328  220.7034 H   0  0  0  0  0  0  0  0  0  0  0  0
  142.0528   71.4798  220.7919 H   0  0  0  0  0  0  0  0  0  0  0  0
  1  2  2  0
  2  3  1  0
  3  4  2  0
  4  5  1  0
  5  6  2  0
  6  7  1  0
  7  8  2  0
  8  9  1  0
  9 10  2  0
 10 11  1  0
 11 12  2  0
  6 13  1  0
 13 14  2  0
 14 15  1  0
 15 16  2  0
 16 17  1  0
  2 18  1  0
 18 19  1  0
 20 19  1  1
 20 21  1  0
 21 22  1  0
 22 23  1  0
 23 24  1  0
 24 25  1  0
 25 26  1  0
 26 27  1  0
 27 28  1  0
 28 29  1  0
 23 30  1  0
 20 31  1  0
 31 32  2  0
 32 33  1  0
 33 34  2  0
 34 35  1  0
 35 36  2  0
 17  3  1  0
 36 18  1  0
 16  5  1  0
 30 20  1  0
 36 31  1  0
 12  7  1  0
 29 24  1  0
  4 37  1  0
  8 38  1  0
  9 39  1  0
 10 40  1  0
 11 41  1  0
 12 42  1  0
 13 43  1  0
 14 44  1  0
 15 45  1  0
 17 46  1  0
 19 47  1  0
 19 48  1  0
 21 49  1  0
 21 50  1  0
 22 51  1  0
 22 52  1  0
 24 53  1  0
 25 54  1  0
 25 55  1  0
 26 56  1  0
 26 57  1  0
 27 58  1  0
 27 59  1  0
 28 60  1  0
 28 61  1  0
 29 62  1  0
 29 63  1  0
 30 64  1  0
 30 65  1  0
 32 66  1  0
 33 67  1  0
 34 68  1  0
 35 69  1  0
M  END
>  <smiles>  (3) 
O=C(c1cc2c(-c3ccccc3)cccc2[nH]1)N1C[C@]2(CCN(C3CCCCC3)C2)c2ccccc21

>  <score_type>  (3) 
oracle

>  <origin>  (3) 
autodockgpu

>  <m_score__min__energy>  (3) 
-10.609999999999999

>  <m_primary>  (3) 
energy

>  <rmsd>  (3) 
3.1480790237387506

>  <m_score__min__rmsd>  (3) 
3.1480790237387506

>  <meeko>  (3) 
{"free_energy": -10.4, "intermolecular_energy": -11.6, "internal_energy": -1.94, "cluster_size": 42, "cluster_id": 1, "rank_in_cluster": 24}

>  <energy>  (3) 
-10.6

>  <cluster_rmsd>  (3) 
0.04

>  <cluster>  (3) 
1

$$$$

     RDKit          3D

 69 75  0  0  0  0  0  0  0  0999 V2000
  137.6490   73.2790  220.5120 O   0  0  0  0  0  0  0  0  0  0  0  0
  138.7340   73.2140  221.1700 C   0  0  0  0  0  0  0  0  0  0  0  0
  138.8680   72.0550  222.0350 C   0  0  0  0  0  0  0  0  0  0  0  0
  139.3420   71.8900  223.3020 C   0  0  0  0  0  0  0  0  0  0  0  0
  139.2490   70.5410  223.6030 C   0  0  0  0  0  0  0  0  0  0  0  0
  139.5770   69.7980  224.7080 C   0  0  0  0  0  0  0  0  0  0  0  0
  140.1050   70.3230  225.9490 C   0  0  0  0  0  0  0  0  0  0  0  0
  139.7250   69.7820  227.1710 C   0  0  0  0  0  0  0  0  0  0  0  0
  140.1730   70.3200  228.3770 C   0  0  0  0  0  0  0  0  0  0  0  0
  141.0270   71.4290  228.3360 C   0  0  0  0  0  0  0  0  0  0  0  0
  141.4080   71.9680  227.1000 C   0  0  0  0  0  0  0  0  0  0  0  0
  140.9390   71.4060  225.9150 C   0  0  0  0  0  0  0  0  0  0  0  0
  139.3510   68.4190  224.6740 C   0  0  0  0  0  0  0  0  0  0  0  0
  138.8220   67.7900  223.5940 C   0  0  0  0  0  0  0  0  0  0  0  0
  138.4920   68.5180  222.4860 C   0  0  0  0  0  0  0  0  0  0  0  0
  138.7090   69.8970  222.5030 C   0  0  0  0  0  0  0  0  0  0  0  0
  138.4900   70.8240  221.5820 N   0  0  0  0  0  0  0  0  0  0  0  0
  139.7380   74.2430  221.0500 N   0  0  0  0  0  0  0  0  0  0  0  0
  139.4080   75.6260  221.3570 C   0  0  0  0  0  0  0  0  0  0  0  0
  140.6720   76.3890  221.1270 C   0  0  1  0  0  0  0  0  0  0  0  0
  140.4860   77.4640  220.0810 C   0  0  0  0  0  0  0  0  0  0  0  0
  141.4900   78.5070  220.4860 C   0  0  0  0  0  0  0  0  0  0  0  0
  141.8140   78.3120  221.8630 N   0  0  0  0  0  0  0  0  0  0  0  0
  141.4910   79.5170  222.6620 C   0  0  0  0  0  0  0  0  0  0  0  0
  140.1650   79.3880  223.3350 C   0  0  0  0  0  0  0  0  0  0  0  0
  139.3880   80.6230  223.5470 C   0  0  0  0  0  0  0  0  0  0  0  0
  139.4710   81.6330  222.4460 C   0  0  0  0  0  0  0  0  0  0  0  0
  140.9540   81.9160  222.2360 C   0  0  0  0  0  0  0  0  0  0  0  0
  141.5650   80.6610  221.6880 C   0  0  0  0  0  0  0  0  0  0  0  0
  141.0910   77.1840  222.3440 C   0  0  0  0  0  0  0  0  0  0  0  0
  141.6500   75.3710  220.7430 C   0  0  0  0  0  0  0  0  0  0  0  0
  142.9900   75.4970  220.4190 C   0  0  0  0  0  0  0  0  0  0  0  0
  143.7690   74.4110  220.0710 C   0  0  0  0  0  0  0  0  0  0  0  0
  143.1840   73.1660  220.0500 C   0  0  0  0  0  0  0  0  0  0  0  0
  141.8570   73.0010  220.3670 C   0  0  0  0  0  0  0  0  0  0  0  0
  141.1040   74.1060  220.7090 C   0  0  0  0  0  0  0  0  0  0  0  0
  139.7268   72.6808  223.9627 H   0  0  0  0  0  0  0  0  0  0  0  0
  139.0555   68.9094  227.1876 H   0  0  0  0  0  0  0  0  0  0  0  0
  139.8629   69.8835  229.3379 H   0  0  0  0  0  0  0  0  0  0  0  0
  141.3974   71.8754  229.2706 H   0  0  0  0  0  0  0  0  0  0  0  0
  142.0800   72.8382  227.0654 H   0  0  0  0  0  0  0  0  0  0  0  0
  141.2407   71.8351  224.9481 H   0  0  0  0  0  0  0  0  0  0  0  0
  139.6125   67.8194  225.5584 H   0  0  0  0  0  0  0  0  0  0  0  0
  138.6601   66.7021  223.6106 H   0  0  0  0  0  0  0  0  0  0  0  0
  138.0643   68.0278  221.5990 H   0  0  0  0  0  0  0  0  0  0  0  0
  138.0810   70.6090  220.6390 H   0  0  0  0  0  0  0  0  0  0  0  0
  138.6111   75.9896  220.6916 H   0  0  0  0  0  0  0  0  0  0  0  0
  139.0383   75.7424  222.3864 H   0  0  0  0  0  0  0  0  0  0  0  0
  140.7018   77.0774  219.0740 H   0  0  0  0  0  0  0  0  0  0  0  0
  139.4566   77.8487  220.0330 H   0  0  0  0  0  0  0  0  0  0  0  0
  142.3979   78.4062  219.8731 H   0  0  0  0  0  0  0  0  0  0  0  0
  141.0708   79.5128  220.3357 H   0  0  0  0  0  0  0  0  0  0  0  0
  142.1932   79.6745  223.4939 H   0  0  0  0  0  0  0  0  0  0  0  0
  139.5493   78.7118  222.7237 H   0  0  0  0  0  0  0  0  0  0  0  0
  140.3976   79.0252  224.3471 H   0  0  0  0  0  0  0  0  0  0  0  0
  138.3317   80.3419  223.6702 H   0  0  0  0  0  0  0  0  0  0  0  0
  139.8245   81.1061  224.4336 H   0  0  0  0  0  0  0  0  0  0  0  0
  139.0260   81.2294  221.5245 H   0  0  0  0  0  0  0  0  0  0  0  0
  138.9213   82.5505  222.7029 H   0  0  0  0  0  0  0  0  0  0  0  0
  141.0837   82.7426  221.5219 H   0  0  0  0  0  0  0  0  0  0  0  0
  141.4361   82.2081  223.1806 H   0  0  0  0  0  0  0  0  0  0  0  0
  141.0295   80.3787  220.7696 H   0  0  0  0  0  0  0  0  0  0  0  0
  142.6274   80.8639  221.4876 H   0  0  0  0  0  0  0  0  0  0  0  0
  141.7321   76.5717  222.9952 H   0  0  0  0  0  0  0  0  0  0  0  0
  140.2170   77.4952  222.9350 H   0  0  0  0  0  0  0  0  0  0  0  0
  143.4499   76.4960  220.4394 H   0  0  0  0  0  0  0  0  0  0  0  0
  144.8316   74.5384  219.8167 H   0  0  0  0  0  0  0  0  0  0  0  0
  143.7880   72.2887  219.7751 H   0  0  0  0  0  0  0  0  0  0  0  0
  141.4005   72.0004  220.3484 H   0  0  0  0  0  0  0  0  0  0  0  0
  1  2  2  0
  2  3  1  0
  3  4  2  0
  4  5  1  0
  5  6  2  0
  6  7  1  0
  7  8  2  0
  8  9  1  0
  9 10  2  0
 10 11  1  0
 11 12  2  0
  6 13  1  0
 13 14  2  0
 14 15  1  0
 15 16  2  0
 16 17  1  0
  2 18  1  0
 18 19  1  0
 20 19  1  1
 20 21  1  0
 21 22  1  0
 22 23  1  0
 23 24  1  0
 24 25  1  0
 25 26  1  0
 26 27  1  0
 27 28  1  0
 28 29  1  0
 23 30  1  0
 20 31  1  0
 31 32  2  0
 32 33  1  0
 33 34  2  0
 34 35  1  0
 35 36  2  0
 17  3  1  0
 36 18  1  0
 16  5  1  0
 30 20  1  0
 36 31  1  0
 12  7  1  0
 29 24  1  0
  4 37  1  0
  8 38  1  0
  9 39  1  0
 10 40  1  0
 11 41  1  0
 12 42  1  0
 13 43  1  0
 14 44  1  0
 15 45  1  0
 17 46  1  0
 19 47  1  0
 19 48  1  0
 21 49  1  0
 21 50  1  0
 22 51  1  0
 22 52  1  0
 24 53  1  0
 25 54  1  0
 25 55  1  0
 26 56  1  0
 26 57  1  0
 27 58  1  0
 27 59  1  0
 28 60  1  0
 28 61  1  0
 29 62  1  0
 29 63  1  0
 30 64  1  0
 30 65  1  0
 32 66  1  0
 33 67  1  0
 34 68  1  0
 35 69  1  0
M  END
>  <smiles>  (4) 
O=C(c1cc2c(-c3ccccc3)cccc2[nH]1)N1C[C@]2(CCN(C3CCCCC3)C2)c2ccccc21

>  <score_type>  (4) 
oracle

>  <origin>  (4) 
autodockgpu

>  <m_score__min__energy>  (4) 
-10.609999999999999

>  <m_primary>  (4) 
energy

>  <rmsd>  (4) 
2.592203623568806

>  <m_score__min__rmsd>  (4) 
2.592203623568806

>  <meeko>  (4) 
{"free_energy": -10.16, "intermolecular_energy": -11.36, "internal_energy": -1.94, "cluster_size": 42, "cluster_id": 1, "rank_in_cluster": 40}

>  <energy>  (4) 
-10.6

>  <cluster_rmsd>  (4) 
0.08

>  <cluster>  (4) 
1

$$$$

     RDKit          3D

 69 75  0  0  0  0  0  0  0  0999 V2000
  140.5440   70.8760  219.3590 O   0  0  0  0  0  0  0  0  0  0  0  0
  140.6650   71.5900  220.4040 C   0  0  0  0  0  0  0  0  0  0  0  0
  140.0390   71.0520  221.5990 C   0  0  0  0  0  0  0  0  0  0  0  0
  140.3080   71.1850  222.9290 C   0  0  0  0  0  0  0  0  0  0  0  0
  139.3840   70.4120  223.6130 C   0  0  0  0  0  0  0  0  0  0  0  0
  139.1720   70.1540  224.9440 C   0  0  0  0  0  0  0  0  0  0  0  0
  139.9180   70.7320  226.0410 C   0  0  0  0  0  0  0  0  0  0  0  0
  140.8030   71.7810  225.8260 C   0  0  0  0  0  0  0  0  0  0  0  0
  141.5780   72.3040  226.8600 C   0  0  0  0  0  0  0  0  0  0  0  0
  141.4460   71.7490  228.1390 C   0  0  0  0  0  0  0  0  0  0  0  0
  140.5500   70.6920  228.3500 C   0  0  0  0  0  0  0  0  0  0  0  0
  139.7930   70.1930  227.2910 C   0  0  0  0  0  0  0  0  0  0  0  0
  138.1270   69.2980  225.2980 C   0  0  0  0  0  0  0  0  0  0  0  0
  137.3140   68.7130  224.3800 C   0  0  0  0  0  0  0  0  0  0  0  0
  137.5150   68.9600  223.0510 C   0  0  0  0  0  0  0  0  0  0  0  0
  138.5540   69.8150  222.6790 C   0  0  0  0  0  0  0  0  0  0  0  0
  138.9680   70.2150  221.4850 N   0  0  0  0  0  0  0  0  0  0  0  0
  141.3720   72.8470  220.3680 N   0  0  0  0  0  0  0  0  0  0  0  0
  140.6370   74.0970  220.2560 C   0  0  0  0  0  0  0  0  0  0  0  0
  141.6820   75.1650  220.2520 C   0  0  1  0  0  0  0  0  0  0  0  0
  141.6170   75.9960  218.9910 C   0  0  0  0  0  0  0  0  0  0  0  0
  142.1410   77.3320  219.4400 C   0  0  0  0  0  0  0  0  0  0  0  0
  142.0070   77.4160  220.8590 N   0  0  0  0  0  0  0  0  0  0  0  0
  141.1510   78.5620  221.2470 C   0  0  0  0  0  0  0  0  0  0  0  0
  141.9640   79.6960  221.7770 C   0  0  0  0  0  0  0  0  0  0  0  0
  141.3440   80.5520  222.8060 C   0  0  0  0  0  0  0  0  0  0  0  0
  140.4790   79.8420  223.7990 C   0  0  0  0  0  0  0  0  0  0  0  0
  139.4410   79.0720  222.9900 C   0  0  0  0  0  0  0  0  0  0  0  0
  140.1760   77.9990  222.2440 C   0  0  0  0  0  0  0  0  0  0  0  0
  141.4540   76.1950  221.3360 C   0  0  0  0  0  0  0  0  0  0  0  0
  142.9450   74.4420  220.4040 C   0  0  0  0  0  0  0  0  0  0  0  0
  144.2430   74.9180  220.4720 C   0  0  0  0  0  0  0  0  0  0  0  0
  145.3300   74.0780  220.6140 C   0  0  0  0  0  0  0  0  0  0  0  0
  145.1030   72.7230  220.6900 C   0  0  0  0  0  0  0  0  0  0  0  0
  143.8280   72.2130  220.6280 C   0  0  0  0  0  0  0  0  0  0  0  0
  142.7630   73.0780  220.4840 C   0  0  0  0  0  0  0  0  0  0  0  0
  141.1090   71.7925  223.3755 H   0  0  0  0  0  0  0  0  0  0  0  0
  140.8943   72.2087  224.8167 H   0  0  0  0  0  0  0  0  0  0  0  0
  142.2769   73.1332  226.6756 H   0  0  0  0  0  0  0  0  0  0  0  0
  142.0435   72.1413  228.9752 H   0  0  0  0  0  0  0  0  0  0  0  0
  140.4438   70.2550  229.3539 H   0  0  0  0  0  0  0  0  0  0  0  0
  139.0924   69.3624  227.4619 H   0  0  0  0  0  0  0  0  0  0  0  0
  137.9550   69.0887  226.3641 H   0  0  0  0  0  0  0  0  0  0  0  0
  136.5011   68.0464  224.7037 H   0  0  0  0  0  0  0  0  0  0  0  0
  136.8713   68.4947  222.2900 H   0  0  0  0  0  0  0  0  0  0  0  0
  138.5110   69.9100  220.5900 H   0  0  0  0  0  0  0  0  0  0  0  0
  140.0567   74.1212  219.3218 H   0  0  0  0  0  0  0  0  0  0  0  0
  139.9182   74.2272  221.0785 H   0  0  0  0  0  0  0  0  0  0  0  0
  142.2518   75.5672  218.2016 H   0  0  0  0  0  0  0  0  0  0  0  0
  140.6072   76.0493  218.5581 H   0  0  0  0  0  0  0  0  0  0  0  0
  143.2006   77.4282  219.1608 H   0  0  0  0  0  0  0  0  0  0  0  0
  141.5728   78.1416  218.9586 H   0  0  0  0  0  0  0  0  0  0  0  0
  140.6153   79.0004  220.3921 H   0  0  0  0  0  0  0  0  0  0  0  0
  142.8811   79.2704  222.2104 H   0  0  0  0  0  0  0  0  0  0  0  0
  142.1179   80.3600  220.9136 H   0  0  0  0  0  0  0  0  0  0  0  0
  142.1506   81.0560  223.3585 H   0  0  0  0  0  0  0  0  0  0  0  0
  140.6792   81.2413  222.2648 H   0  0  0  0  0  0  0  0  0  0  0  0
  141.0827   79.1482  224.4024 H   0  0  0  0  0  0  0  0  0  0  0  0
  140.0008   80.5507  224.4911 H   0  0  0  0  0  0  0  0  0  0  0  0
  138.6956   78.6221  223.6623 H   0  0  0  0  0  0  0  0  0  0  0  0
  138.9094   79.7396  222.2959 H   0  0  0  0  0  0  0  0  0  0  0  0
  140.7273   77.3798  222.9670 H   0  0  0  0  0  0  0  0  0  0  0  0
  139.4336   77.4055  221.6902 H   0  0  0  0  0  0  0  0  0  0  0  0
  141.9577   75.8871  222.2641 H   0  0  0  0  0  0  0  0  0  0  0  0
  140.3826   76.3052  221.5596 H   0  0  0  0  0  0  0  0  0  0  0  0
  144.4146   76.0028  220.4108 H   0  0  0  0  0  0  0  0  0  0  0  0
  146.3518   74.4821  220.6651 H   0  0  0  0  0  0  0  0  0  0  0  0
  145.9555   72.0369  220.8022 H   0  0  0  0  0  0  0  0  0  0  0  0
  143.6589   71.1280  220.6925 H   0  0  0  0  0  0  0  0  0  0  0  0
  1  2  2  0
  2  3  1  0
  3  4  2  0
  4  5  1  0
  5  6  2  0
  6  7  1  0
  7  8  2  0
  8  9  1  0
  9 10  2  0
 10 11  1  0
 11 12  2  0
  6 13  1  0
 13 14  2  0
 14 15  1  0
 15 16  2  0
 16 17  1  0
  2 18  1  0
 18 19  1  0
 20 19  1  6
 20 21  1  0
 21 22  1  0
 22 23  1  0
 23 24  1  0
 24 25  1  0
 25 26  1  0
 26 27  1  0
 27 28  1  0
 28 29  1  0
 23 30  1  0
 20 31  1  0
 31 32  2  0
 32 33  1  0
 33 34  2  0
 34 35  1  0
 35 36  2  0
 17  3  1  0
 36 18  1  0
 16  5  1  0
 30 20  1  0
 36 31  1  0
 12  7  1  0
 29 24  1  0
  4 37  1  0
  8 38  1  0
  9 39  1  0
 10 40  1  0
 11 41  1  0
 12 42  1  0
 13 43  1  0
 14 44  1  0
 15 45  1  0
 17 46  1  0
 19 47  1  0
 19 48  1  0
 21 49  1  0
 21 50  1  0
 22 51  1  0
 22 52  1  0
 24 53  1  0
 25 54  1  0
 25 55  1  0
 26 56  1  0
 26 57  1  0
 27 58  1  0
 27 59  1  0
 28 60  1  0
 28 61  1  0
 29 62  1  0
 29 63  1  0
 30 64  1  0
 30 65  1  0
 32 66  1  0
 33 67  1  0
 34 68  1  0
 35 69  1  0
M  END
>  <smiles>  (5) 
O=C(c1cc2c(-c3ccccc3)cccc2[nH]1)N1C[C@]2(CCN(C3CCCCC3)C2)c2ccccc21

>  <score_type>  (5) 
oracle

>  <origin>  (5) 
autodockgpu

>  <m_score__min__energy>  (5) 
-10.609999999999999

>  <m_primary>  (5) 
energy

>  <rmsd>  (5) 
3.2978601283743716

>  <m_score__min__rmsd>  (5) 
3.2978601283743716

>  <meeko>  (5) 
{"free_energy": -10.24, "intermolecular_energy": -11.43, "internal_energy": -1.84, "cluster_size": 42, "cluster_id": 1, "rank_in_cluster": 35}

>  <energy>  (5) 
-10.59

>  <cluster_rmsd>  (5) 
0.07

>  <cluster>  (5) 
1

$$$$

     RDKit          3D

 69 75  0  0  0  0  0  0  0  0999 V2000
  138.2480   72.7850  219.9720 O   0  0  0  0  0  0  0  0  0  0  0  0
  139.2440   72.8080  220.7610 C   0  0  0  0  0  0  0  0  0  0  0  0
  139.2560   71.7710  221.7780 C   0  0  0  0  0  0  0  0  0  0  0  0
  139.6560   71.7510  223.0810 C   0  0  0  0  0  0  0  0  0  0  0  0
  139.4560   70.4630  223.5500 C   0  0  0  0  0  0  0  0  0  0  0  0
  139.6780   69.8570  224.7620 C   0  0  0  0  0  0  0  0  0  0  0  0
  140.1790   70.5130  225.9500 C   0  0  0  0  0  0  0  0  0  0  0  0
  139.7750   70.1010  227.2140 C   0  0  0  0  0  0  0  0  0  0  0  0
  140.1970   70.7640  228.3660 C   0  0  0  0  0  0  0  0  0  0  0  0
  141.0490   71.8670  228.2260 C   0  0  0  0  0  0  0  0  0  0  0  0
  141.4540   72.2760  226.9490 C   0  0  0  0  0  0  0  0  0  0  0  0
  141.0110   71.5900  225.8190 C   0  0  0  0  0  0  0  0  0  0  0  0
  139.3610   68.5030  224.8960 C   0  0  0  0  0  0  0  0  0  0  0  0
  138.8440   67.7660  223.8800 C   0  0  0  0  0  0  0  0  0  0  0  0
  138.6190   68.3570  222.6690 C   0  0  0  0  0  0  0  0  0  0  0  0
  138.9280   69.7090  222.5160 C   0  0  0  0  0  0  0  0  0  0  0  0
  138.8190   70.5160  221.4700 N   0  0  0  0  0  0  0  0  0  0  0  0
  140.2690   73.8160  220.6340 N   0  0  0  0  0  0  0  0  0  0  0  0
  139.9060   75.2220  220.5640 C   0  0  0  0  0  0  0  0  0  0  0  0
  141.2040   75.9540  220.4420 C   0  0  1  0  0  0  0  0  0  0  0  0
  141.2560   76.7780  219.1760 C   0  0  0  0  0  0  0  0  0  0  0  0
  142.1730   77.9100  219.5470 C   0  0  0  0  0  0  0  0  0  0  0  0
  142.2020   78.0200  220.9700 N   0  0  0  0  0  0  0  0  0  0  0  0
  141.7420   79.3580  221.4110 C   0  0  0  0  0  0  0  0  0  0  0  0
  142.5650   79.8740  222.5440 C   0  0  0  0  0  0  0  0  0  0  0  0
  141.8980   80.7480  223.5260 C   0  0  0  0  0  0  0  0  0  0  0  0
  140.4830   80.3860  223.8530 C   0  0  0  0  0  0  0  0  0  0  0  0
  139.7350   80.3370  222.5250 C   0  0  0  0  0  0  0  0  0  0  0  0
  140.2890   79.1760  221.7550 C   0  0  0  0  0  0  0  0  0  0  0  0
  141.3760   77.0000  221.5210 C   0  0  0  0  0  0  0  0  0  0  0  0
  142.2220   74.9050  220.4930 C   0  0  0  0  0  0  0  0  0  0  0  0
  143.6020   74.9970  220.4320 C   0  0  0  0  0  0  0  0  0  0  0  0
  144.4180   73.8840  220.4910 C   0  0  0  0  0  0  0  0  0  0  0  0
  143.8280   72.6470  220.6150 C   0  0  0  0  0  0  0  0  0  0  0  0
  142.4610   72.5160  220.6810 C   0  0  0  0  0  0  0  0  0  0  0  0
  141.6740   73.6470  220.6180 C   0  0  0  0  0  0  0  0  0  0  0  0
  140.0616   72.5987  223.6528 H   0  0  0  0  0  0  0  0  0  0  0  0
  139.1071   69.2321  227.3081 H   0  0  0  0  0  0  0  0  0  0  0  0
  139.8687   70.4288  229.3609 H   0  0  0  0  0  0  0  0  0  0  0  0
  141.3989   72.4103  229.1161 H   0  0  0  0  0  0  0  0  0  0  0  0
  142.1238   73.1414  226.8374 H   0  0  0  0  0  0  0  0  0  0  0  0
  141.3319   71.9163  224.8187 H   0  0  0  0  0  0  0  0  0  0  0  0
  139.5377   68.0137  225.8652 H   0  0  0  0  0  0  0  0  0  0  0  0
  138.6083   66.7021  224.0305 H   0  0  0  0  0  0  0  0  0  0  0  0
  138.2025   67.7785  221.8312 H   0  0  0  0  0  0  0  0  0  0  0  0
  138.4430   70.1990  220.5420 H   0  0  0  0  0  0  0  0  0  0  0  0
  139.2707   75.4136  219.6867 H   0  0  0  0  0  0  0  0  0  0  0  0
  139.3327   75.5440  221.4458 H   0  0  0  0  0  0  0  0  0  0  0  0
  141.6678   76.1932  218.3403 H   0  0  0  0  0  0  0  0  0  0  0  0
  140.2654   77.1157  218.8374 H   0  0  0  0  0  0  0  0  0  0  0  0
  143.1860   77.7062  219.1696 H   0  0  0  0  0  0  0  0  0  0  0  0
  141.8118   78.8494  219.1031 H   0  0  0  0  0  0  0  0  0  0  0  0
  141.8597   80.1244  220.6308 H   0  0  0  0  0  0  0  0  0  0  0  0
  142.9567   79.0033  223.0902 H   0  0  0  0  0  0  0  0  0  0  0  0
  143.3251   80.5128  222.0705 H   0  0  0  0  0  0  0  0  0  0  0  0
  142.4803   80.7163  224.4587 H   0  0  0  0  0  0  0  0  0  0  0  0
  141.8559   81.7453  223.0638 H   0  0  0  0  0  0  0  0  0  0  0  0
  140.4457   79.4041  224.3474 H   0  0  0  0  0  0  0  0  0  0  0  0
  140.0317   81.1181  224.5389 H   0  0  0  0  0  0  0  0  0  0  0  0
  138.6588   80.1943  222.7022 H   0  0  0  0  0  0  0  0  0  0  0  0
  139.8625   81.2762  221.9667 H   0  0  0  0  0  0  0  0  0  0  0  0
  140.1810   78.2653  222.3624 H   0  0  0  0  0  0  0  0  0  0  0  0
  139.7277   79.1000  220.8120 H   0  0  0  0  0  0  0  0  0  0  0  0
  141.8580   76.5576  222.4052 H   0  0  0  0  0  0  0  0  0  0  0  0
  140.4042   77.4052  221.8395 H   0  0  0  0  0  0  0  0  0  0  0  0
  144.0644   75.9902  220.3332 H   0  0  0  0  0  0  0  0  0  0  0  0
  145.5123   73.9840  220.4401 H   0  0  0  0  0  0  0  0  0  0  0  0
  144.4605   71.7483  220.6621 H   0  0  0  0  0  0  0  0  0  0  0  0
  142.0009   71.5221  220.7827 H   0  0  0  0  0  0  0  0  0  0  0  0
  1  2  2  0
  2  3  1  0
  3  4  2  0
  4  5  1  0
  5  6  2  0
  6  7  1  0
  7  8  2  0
  8  9  1  0
  9 10  2  0
 10 11  1  0
 11 12  2  0
  6 13  1  0
 13 14  2  0
 14 15  1  0
 15 16  2  0
 16 17  1  0
  2 18  1  0
 18 19  1  0
 20 19  1  1
 20 21  1  0
 21 22  1  0
 22 23  1  0
 23 24  1  0
 24 25  1  0
 25 26  1  0
 26 27  1  0
 27 28  1  0
 28 29  1  0
 23 30  1  0
 20 31  1  0
 31 32  2  0
 32 33  1  0
 33 34  2  0
 34 35  1  0
 35 36  2  0
 17  3  1  0
 36 18  1  0
 16  5  1  0
 30 20  1  0
 36 31  1  0
 12  7  1  0
 29 24  1  0
  4 37  1  0
  8 38  1  0
  9 39  1  0
 10 40  1  0
 11 41  1  0
 12 42  1  0
 13 43  1  0
 14 44  1  0
 15 45  1  0
 17 46  1  0
 19 47  1  0
 19 48  1  0
 21 49  1  0
 21 50  1  0
 22 51  1  0
 22 52  1  0
 24 53  1  0
 25 54  1  0
 25 55  1  0
 26 56  1  0
 26 57  1  0
 27 58  1  0
 27 59  1  0
 28 60  1  0
 28 61  1  0
 29 62  1  0
 29 63  1  0
 30 64  1  0
 30 65  1  0
 32 66  1  0
 33 67  1  0
 34 68  1  0
 35 69  1  0
M  END
>  <smiles>  (6) 
O=C(c1cc2c(-c3ccccc3)cccc2[nH]1)N1C[C@]2(CCN(C3CCCCC3)C2)c2ccccc21

>  <score_type>  (6) 
oracle

>  <origin>  (6) 
autodockgpu

>  <m_score__min__energy>  (6) 
-10.609999999999999

>  <m_primary>  (6) 
energy

>  <rmsd>  (6) 
3.1386148075698204

>  <m_score__min__rmsd>  (6) 
3.1386148075698204

>  <meeko>  (6) 
{"free_energy": -10.39, "intermolecular_energy": -11.58, "internal_energy": -1.94, "cluster_size": 42, "cluster_id": 1, "rank_in_cluster": 26}

>  <energy>  (6) 
-10.59

>  <cluster_rmsd>  (6) 
0.09

>  <cluster>  (6) 
1

$$$$

     RDKit          3D

 69 75  0  0  0  0  0  0  0  0999 V2000
  139.1050   71.7100  219.4880 O   0  0  0  0  0  0  0  0  0  0  0  0
  139.8360   72.0220  220.4800 C   0  0  0  0  0  0  0  0  0  0  0  0
  139.7560   71.1220  221.6180 C   0  0  0  0  0  0  0  0  0  0  0  0
  140.0140   71.2790  222.9460 C   0  0  0  0  0  0  0  0  0  0  0  0
  139.7860   70.0560  223.5550 C   0  0  0  0  0  0  0  0  0  0  0  0
  139.8870   69.6160  224.8510 C   0  0  0  0  0  0  0  0  0  0  0  0
  140.2480   70.4310  225.9910 C   0  0  0  0  0  0  0  0  0  0  0  0
  141.0930   71.5250  225.8450 C   0  0  0  0  0  0  0  0  0  0  0  0
  141.5030   72.2800  226.9430 C   0  0  0  0  0  0  0  0  0  0  0  0
  141.0410   71.9150  228.2140 C   0  0  0  0  0  0  0  0  0  0  0  0
  140.1880   70.8130  228.3540 C   0  0  0  0  0  0  0  0  0  0  0  0
  139.8000   70.0790  227.2330 C   0  0  0  0  0  0  0  0  0  0  0  0
  139.5790   68.2810  225.1260 C   0  0  0  0  0  0  0  0  0  0  0  0
  139.1850   67.4060  224.1650 C   0  0  0  0  0  0  0  0  0  0  0  0
  139.0810   67.8320  222.8710 C   0  0  0  0  0  0  0  0  0  0  0  0
  139.3830   69.1620  222.5780 C   0  0  0  0  0  0  0  0  0  0  0  0
  139.3730   69.8260  221.4310 N   0  0  0  0  0  0  0  0  0  0  0  0
  140.6680   73.2000  220.4480 N   0  0  0  0  0  0  0  0  0  0  0  0
  140.0640   74.5220  220.4630 C   0  0  0  0  0  0  0  0  0  0  0  0
  141.2140   75.4770  220.4250 C   0  0  1  0  0  0  0  0  0  0  0  0
  141.1390   76.3840  219.2180 C   0  0  0  0  0  0  0  0  0  0  0  0
  141.8350   77.6310  219.6890 C   0  0  0  0  0  0  0  0  0  0  0  0
  141.8230   77.6430  221.1170 N   0  0  0  0  0  0  0  0  0  0  0  0
  141.1270   78.8450  221.6330 C   0  0  0  0  0  0  0  0  0  0  0  0
  141.8040   80.1000  221.1910 C   0  0  0  0  0  0  0  0  0  0  0  0
  141.7380   81.2620  222.0970 C   0  0  0  0  0  0  0  0  0  0  0  0
  141.8280   80.9460  223.5570 C   0  0  0  0  0  0  0  0  0  0  0  0
  140.7270   79.9300  223.8440 C   0  0  0  0  0  0  0  0  0  0  0  0
  141.1000   78.6680  223.1270 C   0  0  0  0  0  0  0  0  0  0  0  0
  141.1820   76.4580  221.5760 C   0  0  0  0  0  0  0  0  0  0  0  0
  142.4000   74.6210  220.4330 C   0  0  0  0  0  0  0  0  0  0  0  0
  143.7430   74.9580  220.4160 C   0  0  0  0  0  0  0  0  0  0  0  0
  144.7420   74.0030  220.4230 C   0  0  0  0  0  0  0  0  0  0  0  0
  144.3780   72.6770  220.4480 C   0  0  0  0  0  0  0  0  0  0  0  0
  143.0550   72.3040  220.4680 C   0  0  0  0  0  0  0  0  0  0  0  0
  142.0810   73.2810  220.4590 C   0  0  0  0  0  0  0  0  0  0  0  0
  140.3422   72.2042  223.4423 H   0  0  0  0  0  0  0  0  0  0  0  0
  141.4462   71.8013  224.8405 H   0  0  0  0  0  0  0  0  0  0  0  0
  142.1737   73.1423  226.8142 H   0  0  0  0  0  0  0  0  0  0  0  0
  141.3471   72.4919  229.0991 H   0  0  0  0  0  0  0  0  0  0  0  0
  139.8229   70.5254  229.3510 H   0  0  0  0  0  0  0  0  0  0  0  0
  139.1309   69.2137  227.3493 H   0  0  0  0  0  0  0  0  0  0  0  0
  139.6589   67.9242  226.1635 H   0  0  0  0  0  0  0  0  0  0  0  0
  138.9516   66.3633  224.4262 H   0  0  0  0  0  0  0  0  0  0  0  0
  138.7655   67.1401  222.0762 H   0  0  0  0  0  0  0  0  0  0  0  0
  139.1040   69.3840  220.5170 H   0  0  0  0  0  0  0  0  0  0  0  0
  139.4175   74.6611  219.5839 H   0  0  0  0  0  0  0  0  0  0  0  0
  139.4305   74.6753  221.3491 H   0  0  0  0  0  0  0  0  0  0  0  0
  141.6612   75.9408  218.3572 H   0  0  0  0  0  0  0  0  0  0  0  0
  140.1097   76.5651  218.8748 H   0  0  0  0  0  0  0  0  0  0  0  0
  142.8735   77.6361  219.3263 H   0  0  0  0  0  0  0  0  0  0  0  0
  141.3193   78.5212  219.2996 H   0  0  0  0  0  0  0  0  0  0  0  0
  140.1047   78.9446  221.2393 H   0  0  0  0  0  0  0  0  0  0  0  0
  142.8668   79.8639  221.0341 H   0  0  0  0  0  0  0  0  0  0  0  0
  141.2552   80.4136  220.2908 H   0  0  0  0  0  0  0  0  0  0  0  0
  142.5694   81.9365  221.8443 H   0  0  0  0  0  0  0  0  0  0  0  0
  140.7439   81.7076  221.9450 H   0  0  0  0  0  0  0  0  0  0  0  0
  142.8130   80.5173  223.7939 H   0  0  0  0  0  0  0  0  0  0  0  0
  141.7064   81.8511  224.1701 H   0  0  0  0  0  0  0  0  0  0  0  0
  140.6572   79.7437  224.9258 H   0  0  0  0  0  0  0  0  0  0  0  0
  139.7498   80.3021  223.5026 H   0  0  0  0  0  0  0  0  0  0  0  0
  142.0985   78.3521  223.4636 H   0  0  0  0  0  0  0  0  0  0  0  0
  140.3378   77.9104  223.3618 H   0  0  0  0  0  0  0  0  0  0  0  0
  141.7212   76.0455  222.4416 H   0  0  0  0  0  0  0  0  0  0  0  0
  140.1493   76.6630  221.8944 H   0  0  0  0  0  0  0  0  0  0  0  0
  144.0241   76.0213  220.3963 H   0  0  0  0  0  0  0  0  0  0  0  0
  145.8021   74.2962  220.4089 H   0  0  0  0  0  0  0  0  0  0  0  0
  145.1585   71.9019  220.4521 H   0  0  0  0  0  0  0  0  0  0  0  0
  142.7765   71.2401  220.4909 H   0  0  0  0  0  0  0  0  0  0  0  0
  1  2  2  0
  2  3  1  0
  3  4  2  0
  4  5  1  0
  5  6  2  0
  6  7  1  0
  7  8  2  0
  8  9  1  0
  9 10  2  0
 10 11  1  0
 11 12  2  0
  6 13  1  0
 13 14  2  0
 14 15  1  0
 15 16  2  0
 16 17  1  0
  2 18  1  0
 18 19  1  0
 20 19  1  1
 20 21  1  0
 21 22  1  0
 22 23  1  0
 23 24  1  0
 24 25  1  0
 25 26  1  0
 26 27  1  0
 27 28  1  0
 28 29  1  0
 23 30  1  0
 20 31  1  0
 31 32  2  0
 32 33  1  0
 33 34  2  0
 34 35  1  0
 35 36  2  0
 17  3  1  0
 36 18  1  0
 16  5  1  0
 30 20  1  0
 36 31  1  0
 12  7  1  0
 29 24  1  0
  4 37  1  0
  8 38  1  0
  9 39  1  0
 10 40  1  0
 11 41  1  0
 12 42  1  0
 13 43  1  0
 14 44  1  0
 15 45  1  0
 17 46  1  0
 19 47  1  0
 19 48  1  0
 21 49  1  0
 21 50  1  0
 22 51  1  0
 22 52  1  0
 24 53  1  0
 25 54  1  0
 25 55  1  0
 26 56  1  0
 26 57  1  0
 27 58  1  0
 27 59  1  0
 28 60  1  0
 28 61  1  0
 29 62  1  0
 29 63  1  0
 30 64  1  0
 30 65  1  0
 32 66  1  0
 33 67  1  0
 34 68  1  0
 35 69  1  0
M  END
>  <smiles>  (7) 
O=C(c1cc2c(-c3ccccc3)cccc2[nH]1)N1C[C@]2(CCN(C3CCCCC3)C2)c2ccccc21

>  <score_type>  (7) 
oracle

>  <origin>  (7) 
autodockgpu

>  <m_score__min__energy>  (7) 
-10.609999999999999

>  <m_primary>  (7) 
energy

>  <rmsd>  (7) 
3.0964270598399923

>  <m_score__min__rmsd>  (7) 
3.0964270598399923

>  <meeko>  (7) 
{"free_energy": -10.53, "intermolecular_energy": -11.72, "internal_energy": -1.92, "cluster_size": 42, "cluster_id": 1, "rank_in_cluster": 14}

>  <energy>  (7) 
-10.58

>  <cluster_rmsd>  (7) 
0.08

>  <cluster>  (7) 
1

$$$$

     RDKit          3D

 69 75  0  0  0  0  0  0  0  0999 V2000
  138.1960   72.8140  219.9930 O   0  0  0  0  0  0  0  0  0  0  0  0
  139.2040   72.8250  220.7680 C   0  0  0  0  0  0  0  0  0  0  0  0
  139.2240   71.7800  221.7770 C   0  0  0  0  0  0  0  0  0  0  0  0
  139.6280   71.7510  223.0780 C   0  0  0  0  0  0  0  0  0  0  0  0
  139.4350   70.4600  223.5390 C   0  0  0  0  0  0  0  0  0  0  0  0
  139.6640   69.8450  224.7440 C   0  0  0  0  0  0  0  0  0  0  0  0
  140.1660   70.4940  225.9360 C   0  0  0  0  0  0  0  0  0  0  0  0
  139.7480   70.0890  227.1980 C   0  0  0  0  0  0  0  0  0  0  0  0
  140.1710   70.7460  228.3520 C   0  0  0  0  0  0  0  0  0  0  0  0
  141.0400   71.8370  228.2180 C   0  0  0  0  0  0  0  0  0  0  0  0
  141.4590   72.2390  226.9430 C   0  0  0  0  0  0  0  0  0  0  0  0
  141.0140   71.5590  225.8110 C   0  0  0  0  0  0  0  0  0  0  0  0
  139.3540   68.4890  224.8700 C   0  0  0  0  0  0  0  0  0  0  0  0
  138.8360   67.7580  223.8490 C   0  0  0  0  0  0  0  0  0  0  0  0
  138.6040   68.3570  222.6440 C   0  0  0  0  0  0  0  0  0  0  0  0
  138.9070   69.7120  222.5000 C   0  0  0  0  0  0  0  0  0  0  0  0
  138.7910   70.5250  221.4610 N   0  0  0  0  0  0  0  0  0  0  0  0
  140.2340   73.8270  220.6330 N   0  0  0  0  0  0  0  0  0  0  0  0
  139.8780   75.2340  220.5420 C   0  0  0  0  0  0  0  0  0  0  0  0
  141.1790   75.9590  220.4180 C   0  0  1  0  0  0  0  0  0  0  0  0
  141.2430   76.7640  219.1400 C   0  0  0  0  0  0  0  0  0  0  0  0
  142.1610   77.8980  219.5020 C   0  0  0  0  0  0  0  0  0  0  0  0
  142.1820   78.0270  220.9240 N   0  0  0  0  0  0  0  0  0  0  0  0
  141.7240   79.3730  221.3430 C   0  0  0  0  0  0  0  0  0  0  0  0
  142.5850   79.9290  222.4290 C   0  0  0  0  0  0  0  0  0  0  0  0
  141.9450   80.8260  223.4100 C   0  0  0  0  0  0  0  0  0  0  0  0
  140.5480   80.4600  223.8000 C   0  0  0  0  0  0  0  0  0  0  0  0
  139.7510   80.3650  222.5040 C   0  0  0  0  0  0  0  0  0  0  0  0
  140.2880   79.1870  221.7470 C   0  0  0  0  0  0  0  0  0  0  0  0
  141.3480   77.0190  221.4840 C   0  0  0  0  0  0  0  0  0  0  0  0
  142.1920   74.9060  220.4890 C   0  0  0  0  0  0  0  0  0  0  0  0
  143.5730   74.9920  220.4360 C   0  0  0  0  0  0  0  0  0  0  0  0
  144.3840   73.8760  220.5150 C   0  0  0  0  0  0  0  0  0  0  0  0
  143.7890   72.6430  220.6530 C   0  0  0  0  0  0  0  0  0  0  0  0
  142.4200   72.5190  220.7120 C   0  0  0  0  0  0  0  0  0  0  0  0
  141.6380   73.6520  220.6280 C   0  0  0  0  0  0  0  0  0  0  0  0
  140.0322   72.5961  223.6546 H   0  0  0  0  0  0  0  0  0  0  0  0
  139.0673   69.2297  227.2882 H   0  0  0  0  0  0  0  0  0  0  0  0
  139.8307   70.4159  229.3446 H   0  0  0  0  0  0  0  0  0  0  0  0
  141.3918   72.3757  229.1102 H   0  0  0  0  0  0  0  0  0  0  0  0
  142.1418   73.0946  226.8351 H   0  0  0  0  0  0  0  0  0  0  0  0
  141.3464   71.8804  224.8129 H   0  0  0  0  0  0  0  0  0  0  0  0
  139.5367   67.9931  225.8347 H   0  0  0  0  0  0  0  0  0  0  0  0
  138.6052   66.6920  223.9917 H   0  0  0  0  0  0  0  0  0  0  0  0
  138.1866   67.7832  221.8035 H   0  0  0  0  0  0  0  0  0  0  0  0
  138.4130   70.2150  220.5310 H   0  0  0  0  0  0  0  0  0  0  0  0
  139.2487   75.4165  219.6584 H   0  0  0  0  0  0  0  0  0  0  0  0
  139.3013   75.5700  221.4164 H   0  0  0  0  0  0  0  0  0  0  0  0
  141.6591   76.1657  218.3160 H   0  0  0  0  0  0  0  0  0  0  0  0
  140.2562   77.0997  218.7886 H   0  0  0  0  0  0  0  0  0  0  0  0
  143.1756   77.6863  219.1335 H   0  0  0  0  0  0  0  0  0  0  0  0
  141.8049   78.8325  219.0438 H   0  0  0  0  0  0  0  0  0  0  0  0
  141.8027   80.1178  220.5374 H   0  0  0  0  0  0  0  0  0  0  0  0
  143.0056   79.0781  222.9850 H   0  0  0  0  0  0  0  0  0  0  0  0
  143.3214   80.5596  221.9094 H   0  0  0  0  0  0  0  0  0  0  0  0
  142.5619   80.8279  224.3207 H   0  0  0  0  0  0  0  0  0  0  0  0
  141.8749   81.8087  222.9207 H   0  0  0  0  0  0  0  0  0  0  0  0
  140.5401   79.4925  224.3234 H   0  0  0  0  0  0  0  0  0  0  0  0
  140.1149   81.2075  224.4809 H   0  0  0  0  0  0  0  0  0  0  0  0
  138.6839   80.2172  222.7263 H   0  0  0  0  0  0  0  0  0  0  0  0
  139.8471   81.2886  221.9144 H   0  0  0  0  0  0  0  0  0  0  0  0
  140.2129   78.2934  222.3841 H   0  0  0  0  0  0  0  0  0  0  0  0
  139.6922   79.0779  220.8288 H   0  0  0  0  0  0  0  0  0  0  0  0
  141.8221   76.5869  222.3776 H   0  0  0  0  0  0  0  0  0  0  0  0
  140.3760   77.4326  221.7909 H   0  0  0  0  0  0  0  0  0  0  0  0
  144.0401   75.9819  220.3274 H   0  0  0  0  0  0  0  0  0  0  0  0
  145.4789   73.9710  220.4687 H   0  0  0  0  0  0  0  0  0  0  0  0
  144.4176   71.7425  220.7171 H   0  0  0  0  0  0  0  0  0  0  0  0
  141.9549   71.5285  220.8248 H   0  0  0  0  0  0  0  0  0  0  0  0
  1  2  2  0
  2  3  1  0
  3  4  2  0
  4  5  1  0
  5  6  2  0
  6  7  1  0
  7  8  2  0
  8  9  1  0
  9 10  2  0
 10 11  1  0
 11 12  2  0
  6 13  1  0
 13 14  2  0
 14 15  1  0
 15 16  2  0
 16 17  1  0
  2 18  1  0
 18 19  1  0
 20 19  1  1
 20 21  1  0
 21 22  1  0
 22 23  1  0
 23 24  1  0
 24 25  1  0
 25 26  1  0
 26 27  1  0
 27 28  1  0
 28 29  1  0
 23 30  1  0
 20 31  1  0
 31 32  2  0
 32 33  1  0
 33 34  2  0
 34 35  1  0
 35 36  2  0
 17  3  1  0
 36 18  1  0
 16  5  1  0
 30 20  1  0
 36 31  1  0
 12  7  1  0
 29 24  1  0
  4 37  1  0
  8 38  1  0
  9 39  1  0
 10 40  1  0
 11 41  1  0
 12 42  1  0
 13 43  1  0
 14 44  1  0
 15 45  1  0
 17 46  1  0
 19 47  1  0
 19 48  1  0
 21 49  1  0
 21 50  1  0
 22 51  1  0
 22 52  1  0
 24 53  1  0
 25 54  1  0
 25 55  1  0
 26 56  1  0
 26 57  1  0
 27 58  1  0
 27 59  1  0
 28 60  1  0
 28 61  1  0
 29 62  1  0
 29 63  1  0
 30 64  1  0
 30 65  1  0
 32 66  1  0
 33 67  1  0
 34 68  1  0
 35 69  1  0
M  END
>  <smiles>  (8) 
O=C(c1cc2c(-c3ccccc3)cccc2[nH]1)N1C[C@]2(CCN(C3CCCCC3)C2)c2ccccc21

>  <score_type>  (8) 
oracle

>  <origin>  (8) 
autodockgpu

>  <m_score__min__energy>  (8) 
-10.609999999999999

>  <m_primary>  (8) 
energy

>  <rmsd>  (8) 
3.122552993269086

>  <m_score__min__rmsd>  (8) 
3.122552993269086

>  <meeko>  (8) 
{"free_energy": -10.42, "intermolecular_energy": -11.62, "internal_energy": -1.94, "cluster_size": 42, "cluster_id": 1, "rank_in_cluster": 21}

>  <energy>  (8) 
-10.58

>  <cluster_rmsd>  (8) 
0.99

>  <cluster>  (8) 
1

$$$$

     RDKit          3D

 69 75  0  0  0  0  0  0  0  0999 V2000
  139.5590   74.4860  222.3420 O   0  0  0  0  0  0  0  0  0  0  0  0
  140.3370   73.5110  222.0960 C   0  0  0  0  0  0  0  0  0  0  0  0
  139.9530   72.2430  222.6920 C   0  0  0  0  0  0  0  0  0  0  0  0
  140.2580   71.6430  223.8770 C   0  0  0  0  0  0  0  0  0  0  0  0
  139.6180   70.4140  223.8900 C   0  0  0  0  0  0  0  0  0  0  0  0
  139.5660   69.3900  224.8020 C   0  0  0  0  0  0  0  0  0  0  0  0
  140.1970   69.3890  226.1040 C   0  0  0  0  0  0  0  0  0  0  0  0
  140.5440   68.1970  226.7260 C   0  0  0  0  0  0  0  0  0  0  0  0
  141.0920   68.1760  228.0080 C   0  0  0  0  0  0  0  0  0  0  0  0
  141.2910   69.3960  228.6680 C   0  0  0  0  0  0  0  0  0  0  0  0
  140.9400   70.5950  228.0340 C   0  0  0  0  0  0  0  0  0  0  0  0
  140.3930   70.5770  226.7520 C   0  0  0  0  0  0  0  0  0  0  0  0
  138.8110   68.2570  224.4860 C   0  0  0  0  0  0  0  0  0  0  0  0
  138.1290   68.1320  223.3190 C   0  0  0  0  0  0  0  0  0  0  0  0
  138.1740   69.1440  222.4030 C   0  0  0  0  0  0  0  0  0  0  0  0
  138.9220   70.2840  222.7010 C   0  0  0  0  0  0  0  0  0  0  0  0
  139.1390   71.3910  222.0050 N   0  0  0  0  0  0  0  0  0  0  0  0
  141.5170   73.6890  221.2850 N   0  0  0  0  0  0  0  0  0  0  0  0
  142.4280   72.5770  221.0660 C   0  0  0  0  0  0  0  0  0  0  0  0
  143.5110   73.1250  220.1940 C   0  0  1  0  0  0  0  0  0  0  0  0
  144.8660   73.0010  220.8510 C   0  0  0  0  0  0  0  0  0  0  0  0
  145.8010   72.8870  219.6790 C   0  0  0  0  0  0  0  0  0  0  0  0
  145.0510   72.4570  218.5430 N   0  0  0  0  0  0  0  0  0  0  0  0
  145.5750   71.1760  218.0130 C   0  0  0  0  0  0  0  0  0  0  0  0
  144.5580   70.4740  217.1760 C   0  0  0  0  0  0  0  0  0  0  0  0
  144.5880   69.0000  217.1650 C   0  0  0  0  0  0  0  0  0  0  0  0
  144.9240   68.3530  218.4730 C   0  0  0  0  0  0  0  0  0  0  0  0
  146.2530   68.9520  218.9180 C   0  0  0  0  0  0  0  0  0  0  0  0
  145.9990   70.3970  219.2280 C   0  0  0  0  0  0  0  0  0  0  0  0
  143.6870   72.3190  218.9250 C   0  0  0  0  0  0  0  0  0  0  0  0
  143.1130   74.5100  219.9430 C   0  0  0  0  0  0  0  0  0  0  0  0
  143.7320   75.4950  219.1930 C   0  0  0  0  0  0  0  0  0  0  0  0
  143.2080   76.7670  219.0700 C   0  0  0  0  0  0  0  0  0  0  0  0
  142.0290   77.0540  219.7180 C   0  0  0  0  0  0  0  0  0  0  0  0
  141.3830   76.1010  220.4710 C   0  0  0  0  0  0  0  0  0  0  0  0
  141.9330   74.8400  220.5750 C   0  0  0  0  0  0  0  0  0  0  0  0
  140.8933   72.0568  224.6740 H   0  0  0  0  0  0  0  0  0  0  0  0
  140.3828   67.2472  226.1950 H   0  0  0  0  0  0  0  0  0  0  0  0
  141.3616   67.2246  228.4897 H   0  0  0  0  0  0  0  0  0  0  0  0
  141.7213   69.4122  229.6802 H   0  0  0  0  0  0  0  0  0  0  0  0
  141.0966   71.5539  228.5497 H   0  0  0  0  0  0  0  0  0  0  0  0
  140.1181   71.5217  226.2600 H   0  0  0  0  0  0  0  0  0  0  0  0
  138.7677   67.4326  225.2130 H   0  0  0  0  0  0  0  0  0  0  0  0
  137.5448   67.2230  223.1128 H   0  0  0  0  0  0  0  0  0  0  0  0
  137.6316   69.0622  221.4495 H   0  0  0  0  0  0  0  0  0  0  0  0
  138.7260   71.5580  221.0540 H   0  0  0  0  0  0  0  0  0  0  0  0
  142.8433   72.2244  222.0216 H   0  0  0  0  0  0  0  0  0  0  0  0
  141.9230   71.7163  220.6033 H   0  0  0  0  0  0  0  0  0  0  0  0
  145.0956   73.8914  221.4548 H   0  0  0  0  0  0  0  0  0  0  0  0
  144.9350   72.1503  221.5450 H   0  0  0  0  0  0  0  0  0  0  0  0
  146.2589   73.8657  219.4728 H   0  0  0  0  0  0  0  0  0  0  0  0
  146.5982   72.1624  219.9013 H   0  0  0  0  0  0  0  0  0  0  0  0
  146.4258   71.3159  217.3300 H   0  0  0  0  0  0  0  0  0  0  0  0
  143.5652   70.7810  217.5367 H   0  0  0  0  0  0  0  0  0  0  0  0
  144.7935   70.7676  216.1424 H   0  0  0  0  0  0  0  0  0  0  0  0
  143.5947   68.6430  216.8554 H   0  0  0  0  0  0  0  0  0  0  0  0
  145.3953   68.7192  216.4726 H   0  0  0  0  0  0  0  0  0  0  0  0
  144.1418   68.5675  219.2160 H   0  0  0  0  0  0  0  0  0  0  0  0
  144.9921   67.2597  218.3723 H   0  0  0  0  0  0  0  0  0  0  0  0
  146.6207   68.4319  219.8149 H   0  0  0  0  0  0  0  0  0  0  0  0
  147.0148   68.8466  218.1315 H   0  0  0  0  0  0  0  0  0  0  0  0
  145.2035   70.4618  219.9850 H   0  0  0  0  0  0  0  0  0  0  0  0
  146.9399   70.8326  219.5954 H   0  0  0  0  0  0  0  0  0  0  0  0
  143.0297   72.7084  218.1336 H   0  0  0  0  0  0  0  0  0  0  0  0
  143.4243   71.2630  219.0855 H   0  0  0  0  0  0  0  0  0  0  0  0
  144.6738   75.2565  218.6771 H   0  0  0  0  0  0  0  0  0  0  0  0
  143.7210   77.5319  218.4685 H   0  0  0  0  0  0  0  0  0  0  0  0
  141.5959   78.0615  219.6327 H   0  0  0  0  0  0  0  0  0  0  0  0
  140.4399   76.3413  220.9836 H   0  0  0  0  0  0  0  0  0  0  0  0
  1  2  2  0
  2  3  1  0
  3  4  2  0
  4  5  1  0
  5  6  2  0
  6  7  1  0
  7  8  2  0
  8  9  1  0
  9 10  2  0
 10 11  1  0
 11 12  2  0
  6 13  1  0
 13 14  2  0
 14 15  1  0
 15 16  2  0
 16 17  1  0
  2 18  1  0
 18 19  1  0
 20 19  1  1
 20 21  1  0
 21 22  1  0
 22 23  1  0
 23 24  1  0
 24 25  1  0
 25 26  1  0
 26 27  1  0
 27 28  1  0
 28 29  1  0
 23 30  1  0
 20 31  1  0
 31 32  2  0
 32 33  1  0
 33 34  2  0
 34 35  1  0
 35 36  2  0
 17  3  1  0
 36 18  1  0
 16  5  1  0
 30 20  1  0
 36 31  1  0
 12  7  1  0
 29 24  1  0
  4 37  1  0
  8 38  1  0
  9 39  1  0
 10 40  1  0
 11 41  1  0
 12 42  1  0
 13 43  1  0
 14 44  1  0
 15 45  1  0
 17 46  1  0
 19 47  1  0
 19 48  1  0
 21 49  1  0
 21 50  1  0
 22 51  1  0
 22 52  1  0
 24 53  1  0
 25 54  1  0
 25 55  1  0
 26 56  1  0
 26 57  1  0
 27 58  1  0
 27 59  1  0
 28 60  1  0
 28 61  1  0
 29 62  1  0
 29 63  1  0
 30 64  1  0
 30 65  1  0
 32 66  1  0
 33 67  1  0
 34 68  1  0
 35 69  1  0
M  END
>  <smiles>  (9) 
O=C(c1cc2c(-c3ccccc3)cccc2[nH]1)N1C[C@]2(CCN(C3CCCCC3)C2)c2ccccc21

>  <score_type>  (9) 
oracle

>  <origin>  (9) 
autodockgpu

>  <m_score__min__energy>  (9) 
-10.609999999999999

>  <m_primary>  (9) 
energy

>  <rmsd>  (9) 
7.41122860167494

>  <m_score__min__rmsd>  (9) 
7.41122860167494

>  <meeko>  (9) 
{"free_energy": -10.38, "intermolecular_energy": -11.57, "internal_energy": -1.66, "cluster_size": 6, "cluster_id": 2, "rank_in_cluster": 2}

>  <energy>  (9) 
-10.57

>  <cluster_rmsd>  (9) 
0.23

>  <cluster>  (9) 
1

$$$$

     RDKit          3D

 69 75  0  0  0  0  0  0  0  0999 V2000
  137.8020   73.2190  220.3860 O   0  0  0  0  0  0  0  0  0  0  0  0
  138.9070   73.1080  221.0040 C   0  0  0  0  0  0  0  0  0  0  0  0
  138.9970   71.9840  221.9200 C   0  0  0  0  0  0  0  0  0  0  0  0
  139.4510   71.8610  223.1990 C   0  0  0  0  0  0  0  0  0  0  0  0
  139.3160   70.5300  223.5560 C   0  0  0  0  0  0  0  0  0  0  0  0
  139.6090   69.8260  224.6970 C   0  0  0  0  0  0  0  0  0  0  0  0
  140.1370   70.3900  225.9210 C   0  0  0  0  0  0  0  0  0  0  0  0
  139.7500   69.8920  227.1590 C   0  0  0  0  0  0  0  0  0  0  0  0
  140.1970   70.4670  228.3470 C   0  0  0  0  0  0  0  0  0  0  0  0
  141.0570   71.5700  228.2720 C   0  0  0  0  0  0  0  0  0  0  0  0
  141.4450   72.0660  227.0210 C   0  0  0  0  0  0  0  0  0  0  0  0
  140.9770   71.4660  225.8530 C   0  0  0  0  0  0  0  0  0  0  0  0
  139.3460   68.4540  224.7180 C   0  0  0  0  0  0  0  0  0  0  0  0
  138.8120   67.7930  223.6590 C   0  0  0  0  0  0  0  0  0  0  0  0
  138.5170   68.4820  222.5170 C   0  0  0  0  0  0  0  0  0  0  0  0
  138.7720   69.8530  222.4770 C   0  0  0  0  0  0  0  0  0  0  0  0
  138.5910   70.7460  221.5150 N   0  0  0  0  0  0  0  0  0  0  0  0
  139.9730   74.0570  220.7940 N   0  0  0  0  0  0  0  0  0  0  0  0
  139.6790   75.4780  220.6990 C   0  0  0  0  0  0  0  0  0  0  0  0
  141.0040   76.1380  220.4890 C   0  0  1  0  0  0  0  0  0  0  0  0
  141.0330   76.9210  219.1960 C   0  0  0  0  0  0  0  0  0  0  0  0
  142.0230   78.0140  219.4860 C   0  0  0  0  0  0  0  0  0  0  0  0
  142.1310   78.1620  220.9020 N   0  0  0  0  0  0  0  0  0  0  0  0
  141.7620   79.5350  221.3230 C   0  0  0  0  0  0  0  0  0  0  0  0
  142.6340   80.0190  222.4340 C   0  0  0  0  0  0  0  0  0  0  0  0
  142.0380   80.9510  223.4080 C   0  0  0  0  0  0  0  0  0  0  0  0
  140.6080   80.6850  223.7620 C   0  0  0  0  0  0  0  0  0  0  0  0
  139.8390   80.6590  222.4460 C   0  0  0  0  0  0  0  0  0  0  0  0
  140.3060   79.4510  221.6910 C   0  0  0  0  0  0  0  0  0  0  0  0
  141.2840   77.2040  221.5250 C   0  0  0  0  0  0  0  0  0  0  0  0
  141.9690   75.0390  220.5220 C   0  0  0  0  0  0  0  0  0  0  0  0
  143.3470   75.0570  220.3890 C   0  0  0  0  0  0  0  0  0  0  0  0
  144.1080   73.9050  220.4420 C   0  0  0  0  0  0  0  0  0  0  0  0
  143.4640   72.7040  220.6340 C   0  0  0  0  0  0  0  0  0  0  0  0
  142.0970   72.6470  220.7720 C   0  0  0  0  0  0  0  0  0  0  0  0
  141.3650   73.8150  220.7130 C   0  0  0  0  0  0  0  0  0  0  0  0
  139.8503   72.6686  223.8302 H   0  0  0  0  0  0  0  0  0  0  0  0
  139.0755   69.0242  227.2023 H   0  0  0  0  0  0  0  0  0  0  0  0
  139.8819   70.0641  229.3208 H   0  0  0  0  0  0  0  0  0  0  0  0
  141.4265   72.0452  229.1927 H   0  0  0  0  0  0  0  0  0  0  0  0
  142.1210   72.9316  226.9599 H   0  0  0  0  0  0  0  0  0  0  0  0
  141.2848   71.8599  224.8732 H   0  0  0  0  0  0  0  0  0  0  0  0
  139.5812   67.8859  225.6301 H   0  0  0  0  0  0  0  0  0  0  0  0
  138.6186   66.7119  223.7202 H   0  0  0  0  0  0  0  0  0  0  0  0
  138.0868   67.9660  221.6460 H   0  0  0  0  0  0  0  0  0  0  0  0
  138.1890   70.5010  220.5770 H   0  0  0  0  0  0  0  0  0  0  0  0
  139.0094   75.6776  219.8494 H   0  0  0  0  0  0  0  0  0  0  0  0
  139.1698   75.8540  221.5986 H   0  0  0  0  0  0  0  0  0  0  0  0
  141.3722   76.2917  218.3600 H   0  0  0  0  0  0  0  0  0  0  0  0
  140.0447   77.2992  218.8955 H   0  0  0  0  0  0  0  0  0  0  0  0
  143.0037   77.7480  219.0646 H   0  0  0  0  0  0  0  0  0  0  0  0
  141.6865   78.9580  219.0325 H   0  0  0  0  0  0  0  0  0  0  0  0
  141.9146   80.2782  220.5265 H   0  0  0  0  0  0  0  0  0  0  0  0
  142.9790   79.1356  222.9913 H   0  0  0  0  0  0  0  0  0  0  0  0
  143.4255   80.5996  221.9375 H   0  0  0  0  0  0  0  0  0  0  0  0
  142.6313   80.9000  224.3329 H   0  0  0  0  0  0  0  0  0  0  0  0
  142.0513   81.9402  222.9270 H   0  0  0  0  0  0  0  0  0  0  0  0
  140.5166   79.7166  224.2757 H   0  0  0  0  0  0  0  0  0  0  0  0
  140.2139   81.4563  224.4401 H   0  0  0  0  0  0  0  0  0  0  0  0
  138.7587   80.5888  222.6408 H   0  0  0  0  0  0  0  0  0  0  0  0
  140.0180   81.5775  221.8678 H   0  0  0  0  0  0  0  0  0  0  0  0
  140.1504   78.5603  222.3175 H   0  0  0  0  0  0  0  0  0  0  0  0
  139.7261   79.3925  220.7581 H   0  0  0  0  0  0  0  0  0  0  0  0
  141.7875   76.7625  222.3977 H   0  0  0  0  0  0  0  0  0  0  0  0
  140.3518   77.6686  221.8789 H   0  0  0  0  0  0  0  0  0  0  0  0
  143.8533   76.0215  220.2359 H   0  0  0  0  0  0  0  0  0  0  0  0
  145.2018   73.9468  220.3334 H   0  0  0  0  0  0  0  0  0  0  0  0
  144.0519   71.7753  220.6778 H   0  0  0  0  0  0  0  0  0  0  0  0
  141.5931   71.6817  220.9276 H   0  0  0  0  0  0  0  0  0  0  0  0
  1  2  2  0
  2  3  1  0
  3  4  2  0
  4  5  1  0
  5  6  2  0
  6  7  1  0
  7  8  2  0
  8  9  1  0
  9 10  2  0
 10 11  1  0
 11 12  2  0
  6 13  1  0
 13 14  2  0
 14 15  1  0
 15 16  2  0
 16 17  1  0
  2 18  1  0
 18 19  1  0
 20 19  1  1
 20 21  1  0
 21 22  1  0
 22 23  1  0
 23 24  1  0
 24 25  1  0
 25 26  1  0
 26 27  1  0
 27 28  1  0
 28 29  1  0
 23 30  1  0
 20 31  1  0
 31 32  2  0
 32 33  1  0
 33 34  2  0
 34 35  1  0
 35 36  2  0
 17  3  1  0
 36 18  1  0
 16  5  1  0
 30 20  1  0
 36 31  1  0
 12  7  1  0
 29 24  1  0
  4 37  1  0
  8 38  1  0
  9 39  1  0
 10 40  1  0
 11 41  1  0
 12 42  1  0
 13 43  1  0
 14 44  1  0
 15 45  1  0
 17 46  1  0
 19 47  1  0
 19 48  1  0
 21 49  1  0
 21 50  1  0
 22 51  1  0
 22 52  1  0
 24 53  1  0
 25 54  1  0
 25 55  1  0
 26 56  1  0
 26 57  1  0
 27 58  1  0
 27 59  1  0
 28 60  1  0
 28 61  1  0
 29 62  1  0
 29 63  1  0
 30 64  1  0
 30 65  1  0
 32 66  1  0
 33 67  1  0
 34 68  1  0
 35 69  1  0
M  END
>  <smiles>  (10) 
O=C(c1cc2c(-c3ccccc3)cccc2[nH]1)N1C[C@]2(CCN(C3CCCCC3)C2)c2ccccc21

>  <score_type>  (10) 
oracle

>  <origin>  (10) 
autodockgpu

>  <m_score__min__energy>  (10) 
-10.609999999999999

>  <m_primary>  (10) 
energy

>  <rmsd>  (10) 
3.0370687753280534

>  <m_score__min__rmsd>  (10) 
3.0370687753280534

>  <meeko>  (10) 
{"free_energy": -10.36, "intermolecular_energy": -11.56, "internal_energy": -1.91, "cluster_size": 42, "cluster_id": 1, "rank_in_cluster": 32}

>  <energy>  (10) 
-10.57

>  <cluster_rmsd>  (10) 
0.07

>  <cluster>  (10) 
1

$$$$

     RDKit          3D

 69 75  0  0  0  0  0  0  0  0999 V2000
  137.6570   73.2170  220.5690 O   0  0  0  0  0  0  0  0  0  0  0  0
  138.7390   73.1650  221.2330 C   0  0  0  0  0  0  0  0  0  0  0  0
  138.8750   72.0180  222.1130 C   0  0  0  0  0  0  0  0  0  0  0  0
  139.3630   71.8690  223.3770 C   0  0  0  0  0  0  0  0  0  0  0  0
  139.2630   70.5250  223.6990 C   0  0  0  0  0  0  0  0  0  0  0  0
  139.5980   69.7950  224.8110 C   0  0  0  0  0  0  0  0  0  0  0  0
  140.1440   70.3350  226.0380 C   0  0  0  0  0  0  0  0  0  0  0  0
  140.7910   71.5650  226.0490 C   0  0  0  0  0  0  0  0  0  0  0  0
  141.3800   72.0680  227.2080 C   0  0  0  0  0  0  0  0  0  0  0  0
  141.3070   71.3030  228.3790 C   0  0  0  0  0  0  0  0  0  0  0  0
  140.6510   70.0650  228.3620 C   0  0  0  0  0  0  0  0  0  0  0  0
  140.0750   69.5930  227.1840 C   0  0  0  0  0  0  0  0  0  0  0  0
  139.3620   68.4180  224.8000 C   0  0  0  0  0  0  0  0  0  0  0  0
  138.8160   67.7770  223.7350 C   0  0  0  0  0  0  0  0  0  0  0  0
  138.4780   68.4910  222.6210 C   0  0  0  0  0  0  0  0  0  0  0  0
  138.7060   69.8680  222.6150 C   0  0  0  0  0  0  0  0  0  0  0  0
  138.4830   70.7840  221.6830 N   0  0  0  0  0  0  0  0  0  0  0  0
  139.7400   74.1980  221.1050 N   0  0  0  0  0  0  0  0  0  0  0  0
  139.4050   75.5810  221.4060 C   0  0  0  0  0  0  0  0  0  0  0  0
  140.6660   76.3480  221.1680 C   0  0  1  0  0  0  0  0  0  0  0  0
  140.4710   77.4180  220.1180 C   0  0  0  0  0  0  0  0  0  0  0  0
  141.4730   78.4660  220.5150 C   0  0  0  0  0  0  0  0  0  0  0  0
  141.8040   78.2770  221.8910 N   0  0  0  0  0  0  0  0  0  0  0  0
  141.4790   79.4850  222.6860 C   0  0  0  0  0  0  0  0  0  0  0  0
  140.1370   79.3720  223.3300 C   0  0  0  0  0  0  0  0  0  0  0  0
  139.3720   80.6170  223.5290 C   0  0  0  0  0  0  0  0  0  0  0  0
  139.4930   81.6290  222.4330 C   0  0  0  0  0  0  0  0  0  0  0  0
  140.9850   81.8920  222.2560 C   0  0  0  0  0  0  0  0  0  0  0  0
  141.5900   80.6310  221.7180 C   0  0  0  0  0  0  0  0  0  0  0  0
  141.0860   77.1490  222.3800 C   0  0  0  0  0  0  0  0  0  0  0  0
  141.6460   75.3310  220.7840 C   0  0  0  0  0  0  0  0  0  0  0  0
  142.9840   75.4620  220.4540 C   0  0  0  0  0  0  0  0  0  0  0  0
  143.7660   74.3770  220.1080 C   0  0  0  0  0  0  0  0  0  0  0  0
  143.1850   73.1300  220.0940 C   0  0  0  0  0  0  0  0  0  0  0  0
  141.8600   72.9610  220.4180 C   0  0  0  0  0  0  0  0  0  0  0  0
  141.1050   74.0640  220.7580 C   0  0  0  0  0  0  0  0  0  0  0  0
  139.7617   72.6666  224.0210 H   0  0  0  0  0  0  0  0  0  0  0  0
  140.8394   72.1551  225.1219 H   0  0  0  0  0  0  0  0  0  0  0  0
  141.8900   73.0426  227.2030 H   0  0  0  0  0  0  0  0  0  0  0  0
  141.7632   71.6729  229.3091 H   0  0  0  0  0  0  0  0  0  0  0  0
  140.5905   69.4638  229.2812 H   0  0  0  0  0  0  0  0  0  0  0  0
  139.5628   68.6195  227.1764 H   0  0  0  0  0  0  0  0  0  0  0  0
  139.6293   67.8295  225.6901 H   0  0  0  0  0  0  0  0  0  0  0  0
  138.6471   66.6906  223.7692 H   0  0  0  0  0  0  0  0  0  0  0  0
  138.0353   67.9913  221.7467 H   0  0  0  0  0  0  0  0  0  0  0  0
  138.0620   70.5580  220.7480 H   0  0  0  0  0  0  0  0  0  0  0  0
  138.6046   75.9379  220.7412 H   0  0  0  0  0  0  0  0  0  0  0  0
  139.0377   75.7013  222.4359 H   0  0  0  0  0  0  0  0  0  0  0  0
  140.6839   77.0282  219.1117 H   0  0  0  0  0  0  0  0  0  0  0  0
  139.4399   77.7985  220.0723 H   0  0  0  0  0  0  0  0  0  0  0  0
  142.3784   78.3664  219.8983 H   0  0  0  0  0  0  0  0  0  0  0  0
  141.0493   79.4697  220.3633 H   0  0  0  0  0  0  0  0  0  0  0  0
  142.1650   79.6309  223.5334 H   0  0  0  0  0  0  0  0  0  0  0  0
  139.5256   78.7058  222.7036 H   0  0  0  0  0  0  0  0  0  0  0  0
  140.3429   79.0034  224.3457 H   0  0  0  0  0  0  0  0  0  0  0  0
  138.3095   80.3499  223.6280 H   0  0  0  0  0  0  0  0  0  0  0  0
  139.7951   81.0915  224.4267 H   0  0  0  0  0  0  0  0  0  0  0  0
  139.0626   81.2342  221.5008 H   0  0  0  0  0  0  0  0  0  0  0  0
  138.9507   82.5534  222.6807 H   0  0  0  0  0  0  0  0  0  0  0  0
  141.1417   82.7187  221.5474 H   0  0  0  0  0  0  0  0  0  0  0  0
  141.4504   82.1747  223.2117 H   0  0  0  0  0  0  0  0  0  0  0  0
  141.0709   80.3590  220.7871 H   0  0  0  0  0  0  0  0  0  0  0  0
  142.6593   80.8198  221.5420 H   0  0  0  0  0  0  0  0  0  0  0  0
  141.7310   76.5416  223.0319 H   0  0  0  0  0  0  0  0  0  0  0  0
  140.2132   77.4599  222.9729 H   0  0  0  0  0  0  0  0  0  0  0  0
  143.4396   76.4631  220.4677 H   0  0  0  0  0  0  0  0  0  0  0  0
  144.8274   74.5069  219.8500 H   0  0  0  0  0  0  0  0  0  0  0  0
  143.7907   72.2539  219.8190 H   0  0  0  0  0  0  0  0  0  0  0  0
  141.4074   71.9585  220.4063 H   0  0  0  0  0  0  0  0  0  0  0  0
  1  2  2  0
  2  3  1  0
  3  4  2  0
  4  5  1  0
  5  6  2  0
  6  7  1  0
  7  8  2  0
  8  9  1  0
  9 10  2  0
 10 11  1  0
 11 12  2  0
  6 13  1  0
 13 14  2  0
 14 15  1  0
 15 16  2  0
 16 17  1  0
  2 18  1  0
 18 19  1  0
 20 19  1  1
 20 21  1  0
 21 22  1  0
 22 23  1  0
 23 24  1  0
 24 25  1  0
 25 26  1  0
 26 27  1  0
 27 28  1  0
 28 29  1  0
 23 30  1  0
 20 31  1  0
 31 32  2  0
 32 33  1  0
 33 34  2  0
 34 35  1  0
 35 36  2  0
 17  3  1  0
 36 18  1  0
 16  5  1  0
 30 20  1  0
 36 31  1  0
 12  7  1  0
 29 24  1  0
  4 37  1  0
  8 38  1  0
  9 39  1  0
 10 40  1  0
 11 41  1  0
 12 42  1  0
 13 43  1  0
 14 44  1  0
 15 45  1  0
 17 46  1  0
 19 47  1  0
 19 48  1  0
 21 49  1  0
 21 50  1  0
 22 51  1  0
 22 52  1  0
 24 53  1  0
 25 54  1  0
 25 55  1  0
 26 56  1  0
 26 57  1  0
 27 58  1  0
 27 59  1  0
 28 60  1  0
 28 61  1  0
 29 62  1  0
 29 63  1  0
 30 64  1  0
 30 65  1  0
 32 66  1  0
 33 67  1  0
 34 68  1  0
 35 69  1  0
M  END
>  <smiles>  (11) 
O=C(c1cc2c(-c3ccccc3)cccc2[nH]1)N1C[C@]2(CCN(C3CCCCC3)C2)c2ccccc21

>  <score_type>  (11) 
oracle

>  <origin>  (11) 
autodockgpu

>  <m_score__min__energy>  (11) 
-10.609999999999999

>  <m_primary>  (11) 
energy

>  <rmsd>  (11) 
2.3745097358661864

>  <m_score__min__rmsd>  (11) 
2.3745097358661864

>  <meeko>  (11) 
{"free_energy": -10.19, "intermolecular_energy": -11.38, "internal_energy": -1.9, "cluster_size": 42, "cluster_id": 1, "rank_in_cluster": 38}

>  <energy>  (11) 
-10.55

>  <cluster_rmsd>  (11) 
0.17

>  <cluster>  (11) 
1

$$$$

     RDKit          3D

 69 75  0  0  0  0  0  0  0  0999 V2000
  137.9950   72.9880  220.1400 O   0  0  0  0  0  0  0  0  0  0  0  0
  139.0450   72.9590  220.8570 C   0  0  0  0  0  0  0  0  0  0  0  0
  139.1000   71.8870  221.8360 C   0  0  0  0  0  0  0  0  0  0  0  0
  139.5030   71.8370  223.1370 C   0  0  0  0  0  0  0  0  0  0  0  0
  139.3550   70.5260  223.5610 C   0  0  0  0  0  0  0  0  0  0  0  0
  139.6030   69.8870  224.7490 C   0  0  0  0  0  0  0  0  0  0  0  0
  140.0810   70.5200  225.9600 C   0  0  0  0  0  0  0  0  0  0  0  0
  140.9240   71.6220  225.9030 C   0  0  0  0  0  0  0  0  0  0  0  0
  141.4460   72.2010  227.0590 C   0  0  0  0  0  0  0  0  0  0  0  0
  141.0990   71.6470  228.2980 C   0  0  0  0  0  0  0  0  0  0  0  0
  140.2460   70.5370  228.3490 C   0  0  0  0  0  0  0  0  0  0  0  0
  139.7450   69.9830  227.1720 C   0  0  0  0  0  0  0  0  0  0  0  0
  139.3410   68.5180  224.8360 C   0  0  0  0  0  0  0  0  0  0  0  0
  138.8500   67.7980  223.7940 C   0  0  0  0  0  0  0  0  0  0  0  0
  138.6000   68.4210  222.6050 C   0  0  0  0  0  0  0  0  0  0  0  0
  138.8550   69.7900  222.5010 C   0  0  0  0  0  0  0  0  0  0  0  0
  138.7120   70.6280  221.4840 N   0  0  0  0  0  0  0  0  0  0  0  0
  140.0860   73.9440  220.6890 N   0  0  0  0  0  0  0  0  0  0  0  0
  139.7500   75.3570  220.6130 C   0  0  0  0  0  0  0  0  0  0  0  0
  141.0580   76.0610  220.4460 C   0  0  1  0  0  0  0  0  0  0  0  0
  141.0920   76.8690  219.1690 C   0  0  0  0  0  0  0  0  0  0  0  0
  142.0410   77.9860  219.5010 C   0  0  0  0  0  0  0  0  0  0  0  0
  142.1120   78.1110  220.9220 N   0  0  0  0  0  0  0  0  0  0  0  0
  141.6910   79.4630  221.3590 C   0  0  0  0  0  0  0  0  0  0  0  0
  142.5470   79.9680  222.4730 C   0  0  0  0  0  0  0  0  0  0  0  0
  141.9180   80.8660  223.4600 C   0  0  0  0  0  0  0  0  0  0  0  0
  140.5010   80.5400  223.8150 C   0  0  0  0  0  0  0  0  0  0  0  0
  139.7290   80.4990  222.5000 C   0  0  0  0  0  0  0  0  0  0  0  0
  140.2410   79.3180  221.7300 C   0  0  0  0  0  0  0  0  0  0  0  0
  141.2810   77.1150  221.5080 C   0  0  0  0  0  0  0  0  0  0  0  0
  142.0560   74.9910  220.4810 C   0  0  0  0  0  0  0  0  0  0  0  0
  143.4350   75.0540  220.3800 C   0  0  0  0  0  0  0  0  0  0  0  0
  144.2300   73.9260  220.4300 C   0  0  0  0  0  0  0  0  0  0  0  0
  143.6190   72.7020  220.5850 C   0  0  0  0  0  0  0  0  0  0  0  0
  142.2520   72.6000  220.6900 C   0  0  0  0  0  0  0  0  0  0  0  0
  141.4860   73.7460  220.6360 C   0  0  0  0  0  0  0  0  0  0  0  0
  139.8759   72.6795  223.7379 H   0  0  0  0  0  0  0  0  0  0  0  0
  141.1860   72.0480  224.9233 H   0  0  0  0  0  0  0  0  0  0  0  0
  142.1147   73.0724  226.9995 H   0  0  0  0  0  0  0  0  0  0  0  0
  141.4949   72.0821  229.2275 H   0  0  0  0  0  0  0  0  0  0  0  0
  139.9707   70.1012  229.3207 H   0  0  0  0  0  0  0  0  0  0  0  0
  139.0768   69.1105  227.2183 H   0  0  0  0  0  0  0  0  0  0  0  0
  139.5403   68.0019  225.7867 H   0  0  0  0  0  0  0  0  0  0  0  0
  138.6553   66.7213  223.9072 H   0  0  0  0  0  0  0  0  0  0  0  0
  138.2060   67.8564  221.7471 H   0  0  0  0  0  0  0  0  0  0  0  0
  138.3470   70.3300  220.5450 H   0  0  0  0  0  0  0  0  0  0  0  0
  139.0940   75.5520  219.7518 H   0  0  0  0  0  0  0  0  0  0  0  0
  139.2090   75.7002  221.5072 H   0  0  0  0  0  0  0  0  0  0  0  0
  141.4690   76.2662  218.3297 H   0  0  0  0  0  0  0  0  0  0  0  0
  140.0994   77.2228  218.8533 H   0  0  0  0  0  0  0  0  0  0  0  0
  143.0387   77.7577  219.0980 H   0  0  0  0  0  0  0  0  0  0  0  0
  141.6862   78.9275  219.0564 H   0  0  0  0  0  0  0  0  0  0  0  0
  141.8116   80.2204  220.5705 H   0  0  0  0  0  0  0  0  0  0  0  0
  142.9277   79.0925  223.0193 H   0  0  0  0  0  0  0  0  0  0  0  0
  143.3137   80.5844  221.9809 H   0  0  0  0  0  0  0  0  0  0  0  0
  142.5160   80.8281  224.3825 H   0  0  0  0  0  0  0  0  0  0  0  0
  141.8911   81.8603  222.9903 H   0  0  0  0  0  0  0  0  0  0  0  0
  140.4494   79.5629  224.3176 H   0  0  0  0  0  0  0  0  0  0  0  0
  140.0791   81.2872  224.5033 H   0  0  0  0  0  0  0  0  0  0  0  0
  138.6528   80.3844  222.6967 H   0  0  0  0  0  0  0  0  0  0  0  0
  139.8700   81.4303  221.9318 H   0  0  0  0  0  0  0  0  0  0  0  0
  140.1224   78.4151  222.3471 H   0  0  0  0  0  0  0  0  0  0  0  0
  139.6609   79.2471  220.7981 H   0  0  0  0  0  0  0  0  0  0  0  0
  141.7783   76.6725  222.3838 H   0  0  0  0  0  0  0  0  0  0  0  0
  140.3271   77.5436  221.8490 H   0  0  0  0  0  0  0  0  0  0  0  0
  143.9141   76.0363  220.2556 H   0  0  0  0  0  0  0  0  0  0  0  0
  145.3242   74.0035  220.3480 H   0  0  0  0  0  0  0  0  0  0  0  0
  144.2344   71.7912  220.6255 H   0  0  0  0  0  0  0  0  0  0  0  0
  141.7750   71.6168  220.8155 H   0  0  0  0  0  0  0  0  0  0  0  0
  1  2  2  0
  2  3  1  0
  3  4  2  0
  4  5  1  0
  5  6  2  0
  6  7  1  0
  7  8  2  0
  8  9  1  0
  9 10  2  0
 10 11  1  0
 11 12  2  0
  6 13  1  0
 13 14  2  0
 14 15  1  0
 15 16  2  0
 16 17  1  0
  2 18  1  0
 18 19  1  0
 20 19  1  1
 20 21  1  0
 21 22  1  0
 22 23  1  0
 23 24  1  0
 24 25  1  0
 25 26  1  0
 26 27  1  0
 27 28  1  0
 28 29  1  0
 23 30  1  0
 20 31  1  0
 31 32  2  0
 32 33  1  0
 33 34  2  0
 34 35  1  0
 35 36  2  0
 17  3  1  0
 36 18  1  0
 16  5  1  0
 30 20  1  0
 36 31  1  0
 12  7  1  0
 29 24  1  0
  4 37  1  0
  8 38  1  0
  9 39  1  0
 10 40  1  0
 11 41  1  0
 12 42  1  0
 13 43  1  0
 14 44  1  0
 15 45  1  0
 17 46  1  0
 19 47  1  0
 19 48  1  0
 21 49  1  0
 21 50  1  0
 22 51  1  0
 22 52  1  0
 24 53  1  0
 25 54  1  0
 25 55  1  0
 26 56  1  0
 26 57  1  0
 27 58  1  0
 27 59  1  0
 28 60  1  0
 28 61  1  0
 29 62  1  0
 29 63  1  0
 30 64  1  0
 30 65  1  0
 32 66  1  0
 33 67  1  0
 34 68  1  0
 35 69  1  0
M  END
>  <smiles>  (12) 
O=C(c1cc2c(-c3ccccc3)cccc2[nH]1)N1C[C@]2(CCN(C3CCCCC3)C2)c2ccccc21

>  <score_type>  (12) 
oracle

>  <origin>  (12) 
autodockgpu

>  <m_score__min__energy>  (12) 
-10.609999999999999

>  <m_primary>  (12) 
energy

>  <rmsd>  (12) 
2.913628327897991

>  <m_score__min__rmsd>  (12) 
2.913628327897991

>  <meeko>  (12) 
{"free_energy": -10.39, "intermolecular_energy": -11.59, "internal_energy": -1.93, "cluster_size": 42, "cluster_id": 1, "rank_in_cluster": 25}

>  <energy>  (12) 
-10.54

>  <cluster_rmsd>  (12) 
1.01

>  <cluster>  (12) 
1

$$$$

     RDKit          3D

 69 75  0  0  0  0  0  0  0  0999 V2000
  138.6930   72.0960  219.6400 O   0  0  0  0  0  0  0  0  0  0  0  0
  139.5340   72.3150  220.5680 C   0  0  0  0  0  0  0  0  0  0  0  0
  139.5210   71.3540  221.6570 C   0  0  0  0  0  0  0  0  0  0  0  0
  139.8170   71.4490  222.9840 C   0  0  0  0  0  0  0  0  0  0  0  0
  139.6510   70.1880  223.5320 C   0  0  0  0  0  0  0  0  0  0  0  0
  139.8090   69.6830  224.7980 C   0  0  0  0  0  0  0  0  0  0  0  0
  140.1780   70.4490  225.9690 C   0  0  0  0  0  0  0  0  0  0  0  0
  141.0370   71.5370  225.8660 C   0  0  0  0  0  0  0  0  0  0  0  0
  141.4550   72.2440  226.9930 C   0  0  0  0  0  0  0  0  0  0  0  0
  140.9870   71.8360  228.2480 C   0  0  0  0  0  0  0  0  0  0  0  0
  140.1190   70.7400  228.3450 C   0  0  0  0  0  0  0  0  0  0  0  0
  139.7240   70.0560  227.1970 C   0  0  0  0  0  0  0  0  0  0  0  0
  139.5560   68.3250  225.0100 C   0  0  0  0  0  0  0  0  0  0  0  0
  139.1610   67.4900  224.0150 C   0  0  0  0  0  0  0  0  0  0  0  0
  139.0010   67.9790  222.7500 C   0  0  0  0  0  0  0  0  0  0  0  0
  139.2480   69.3340  222.5200 C   0  0  0  0  0  0  0  0  0  0  0  0
  139.1780   70.0570  221.4120 N   0  0  0  0  0  0  0  0  0  0  0  0
  140.4180   73.4540  220.5160 N   0  0  0  0  0  0  0  0  0  0  0  0
  139.8740   74.8030  220.5280 C   0  0  0  0  0  0  0  0  0  0  0  0
  141.0650   75.7040  220.4670 C   0  0  1  0  0  0  0  0  0  0  0  0
  141.0140   76.6050  219.2550 C   0  0  0  0  0  0  0  0  0  0  0  0
  141.7720   77.8220  219.7060 C   0  0  0  0  0  0  0  0  0  0  0  0
  141.7810   77.8450  221.1340 N   0  0  0  0  0  0  0  0  0  0  0  0
  141.1460   79.0810  221.6500 C   0  0  0  0  0  0  0  0  0  0  0  0
  141.8210   80.3030  221.1210 C   0  0  0  0  0  0  0  0  0  0  0  0
  141.8400   81.4970  221.9870 C   0  0  0  0  0  0  0  0  0  0  0  0
  142.0160   81.2290  223.4490 C   0  0  0  0  0  0  0  0  0  0  0  0
  140.9140   80.2510  223.8410 C   0  0  0  0  0  0  0  0  0  0  0  0
  141.2110   78.9560  223.1480 C   0  0  0  0  0  0  0  0  0  0  0  0
  141.0930   76.6940  221.6110 C   0  0  0  0  0  0  0  0  0  0  0  0
  142.2120   74.7960  220.4660 C   0  0  0  0  0  0  0  0  0  0  0  0
  143.5680   75.0710  220.4280 C   0  0  0  0  0  0  0  0  0  0  0  0
  144.5220   74.0730  220.4290 C   0  0  0  0  0  0  0  0  0  0  0  0
  144.1000   72.7640  220.4700 C   0  0  0  0  0  0  0  0  0  0  0  0
  142.7620   72.4520  220.5100 C   0  0  0  0  0  0  0  0  0  0  0  0
  141.8330   73.4710  220.5070 C   0  0  0  0  0  0  0  0  0  0  0  0
  140.1294   72.3575  223.5197 H   0  0  0  0  0  0  0  0  0  0  0  0
  141.3951   71.8473  224.8733 H   0  0  0  0  0  0  0  0  0  0  0  0
  142.1365   73.1022  226.8982 H   0  0  0  0  0  0  0  0  0  0  0  0
  141.2997   72.3741  229.1550 H   0  0  0  0  0  0  0  0  0  0  0  0
  139.7486   70.4189  229.3297 H   0  0  0  0  0  0  0  0  0  0  0  0
  139.0436   69.1956  227.2794 H   0  0  0  0  0  0  0  0  0  0  0  0
  139.6819   67.9163  226.0235 H   0  0  0  0  0  0  0  0  0  0  0  0
  138.9712   66.4273  224.2263 H   0  0  0  0  0  0  0  0  0  0  0  0
  138.6841   67.3190  221.9290 H   0  0  0  0  0  0  0  0  0  0  0  0
  138.8940   69.6540  220.4840 H   0  0  0  0  0  0  0  0  0  0  0  0
  139.2226   74.9644  219.6564 H   0  0  0  0  0  0  0  0  0  0  0  0
  139.2599   74.9917  221.4209 H   0  0  0  0  0  0  0  0  0  0  0  0
  141.5031   76.1326  218.3904 H   0  0  0  0  0  0  0  0  0  0  0  0
  139.9891   76.8303  218.9253 H   0  0  0  0  0  0  0  0  0  0  0  0
  142.8044   77.7774  219.3288 H   0  0  0  0  0  0  0  0  0  0  0  0
  141.2916   78.7318  219.3167 H   0  0  0  0  0  0  0  0  0  0  0  0
  140.1029   79.1921  221.3189 H   0  0  0  0  0  0  0  0  0  0  0  0
  142.8659   80.0354  220.9051 H   0  0  0  0  0  0  0  0  0  0  0  0
  141.2221   80.5990  220.2471 H   0  0  0  0  0  0  0  0  0  0  0  0
  142.6688   82.1411  221.6582 H   0  0  0  0  0  0  0  0  0  0  0  0
  140.8488   81.9623  221.8821 H   0  0  0  0  0  0  0  0  0  0  0  0
  143.0044   80.7849  223.6384 H   0  0  0  0  0  0  0  0  0  0  0  0
  141.9537   82.1573  224.0358 H   0  0  0  0  0  0  0  0  0  0  0  0
  140.9097   80.1038  224.9311 H   0  0  0  0  0  0  0  0  0  0  0  0
  139.9257   80.6352  223.5485 H   0  0  0  0  0  0  0  0  0  0  0  0
  142.2215   78.6267  223.4318 H   0  0  0  0  0  0  0  0  0  0  0  0
  140.4484   78.2263  223.4578 H   0  0  0  0  0  0  0  0  0  0  0  0
  141.6244   76.2638  222.4727 H   0  0  0  0  0  0  0  0  0  0  0  0
  140.0751   76.9481  221.9415 H   0  0  0  0  0  0  0  0  0  0  0  0
  143.8967   76.1203  220.3959 H   0  0  0  0  0  0  0  0  0  0  0  0
  145.5938   74.3185  220.3978 H   0  0  0  0  0  0  0  0  0  0  0  0
  144.8450   71.9547  220.4708 H   0  0  0  0  0  0  0  0  0  0  0  0
  142.4362   71.4019  220.5440 H   0  0  0  0  0  0  0  0  0  0  0  0
  1  2  2  0
  2  3  1  0
  3  4  2  0
  4  5  1  0
  5  6  2  0
  6  7  1  0
  7  8  2  0
  8  9  1  0
  9 10  2  0
 10 11  1  0
 11 12  2  0
  6 13  1  0
 13 14  2  0
 14 15  1  0
 15 16  2  0
 16 17  1  0
  2 18  1  0
 18 19  1  0
 20 19  1  1
 20 21  1  0
 21 22  1  0
 22 23  1  0
 23 24  1  0
 24 25  1  0
 25 26  1  0
 26 27  1  0
 27 28  1  0
 28 29  1  0
 23 30  1  0
 20 31  1  0
 31 32  2  0
 32 33  1  0
 33 34  2  0
 34 35  1  0
 35 36  2  0
 17  3  1  0
 36 18  1  0
 16  5  1  0
 30 20  1  0
 36 31  1  0
 12  7  1  0
 29 24  1  0
  4 37  1  0
  8 38  1  0
  9 39  1  0
 10 40  1  0
 11 41  1  0
 12 42  1  0
 13 43  1  0
 14 44  1  0
 15 45  1  0
 17 46  1  0
 19 47  1  0
 19 48  1  0
 21 49  1  0
 21 50  1  0
 22 51  1  0
 22 52  1  0
 24 53  1  0
 25 54  1  0
 25 55  1  0
 26 56  1  0
 26 57  1  0
 27 58  1  0
 27 59  1  0
 28 60  1  0
 28 61  1  0
 29 62  1  0
 29 63  1  0
 30 64  1  0
 30 65  1  0
 32 66  1  0
 33 67  1  0
 34 68  1  0
 35 69  1  0
M  END
>  <smiles>  (13) 
O=C(c1cc2c(-c3ccccc3)cccc2[nH]1)N1C[C@]2(CCN(C3CCCCC3)C2)c2ccccc21

>  <score_type>  (13) 
oracle

>  <origin>  (13) 
autodockgpu

>  <m_score__min__energy>  (13) 
-10.609999999999999

>  <m_primary>  (13) 
energy

>  <rmsd>  (13) 
2.97686108948439

>  <m_score__min__rmsd>  (13) 
2.97686108948439

>  <meeko>  (13) 
{"free_energy": -10.61, "intermolecular_energy": -11.81, "internal_energy": -1.9, "cluster_size": 42, "cluster_id": 1, "rank_in_cluster": 1}

>  <energy>  (13) 
-10.53

>  <cluster_rmsd>  (13) 
1.02

>  <cluster>  (13) 
1

$$$$

     RDKit          3D

 69 75  0  0  0  0  0  0  0  0999 V2000
  138.6170   72.1450  219.6870 O   0  0  0  0  0  0  0  0  0  0  0  0
  139.4770   72.3510  220.5990 C   0  0  0  0  0  0  0  0  0  0  0  0
  139.4790   71.3820  221.6820 C   0  0  0  0  0  0  0  0  0  0  0  0
  139.7850   71.4700  223.0070 C   0  0  0  0  0  0  0  0  0  0  0  0
  139.6300   70.2050  223.5490 C   0  0  0  0  0  0  0  0  0  0  0  0
  139.8010   69.6920  224.8100 C   0  0  0  0  0  0  0  0  0  0  0  0
  140.1770   70.4530  225.9830 C   0  0  0  0  0  0  0  0  0  0  0  0
  141.0300   71.5450  225.8800 C   0  0  0  0  0  0  0  0  0  0  0  0
  141.4530   72.2460  227.0080 C   0  0  0  0  0  0  0  0  0  0  0  0
  140.9970   71.8280  228.2640 C   0  0  0  0  0  0  0  0  0  0  0  0
  140.1360   70.7270  228.3610 C   0  0  0  0  0  0  0  0  0  0  0  0
  139.7340   70.0490  227.2110 C   0  0  0  0  0  0  0  0  0  0  0  0
  139.5570   68.3320  225.0140 C   0  0  0  0  0  0  0  0  0  0  0  0
  139.1580   67.5010  224.0170 C   0  0  0  0  0  0  0  0  0  0  0  0
  138.9850   67.9980  222.7570 C   0  0  0  0  0  0  0  0  0  0  0  0
  139.2230   69.3550  222.5340 C   0  0  0  0  0  0  0  0  0  0  0  0
  139.1400   70.0850  221.4310 N   0  0  0  0  0  0  0  0  0  0  0  0
  140.3680   73.4840  220.5380 N   0  0  0  0  0  0  0  0  0  0  0  0
  139.8340   74.8360  220.5540 C   0  0  0  0  0  0  0  0  0  0  0  0
  141.0300   75.7300  220.4810 C   0  0  1  0  0  0  0  0  0  0  0  0
  140.9740   76.6300  219.2680 C   0  0  0  0  0  0  0  0  0  0  0  0
  141.7440   77.8420  219.7120 C   0  0  0  0  0  0  0  0  0  0  0  0
  141.7660   77.8670  221.1390 N   0  0  0  0  0  0  0  0  0  0  0  0
  141.1450   79.1070  221.6600 C   0  0  0  0  0  0  0  0  0  0  0  0
  141.8240   80.3240  221.1250 C   0  0  0  0  0  0  0  0  0  0  0  0
  141.8590   81.5180  221.9910 C   0  0  0  0  0  0  0  0  0  0  0  0
  142.0450   81.2490  223.4510 C   0  0  0  0  0  0  0  0  0  0  0  0
  140.9380   80.2800  223.8530 C   0  0  0  0  0  0  0  0  0  0  0  0
  141.2210   78.9820  223.1570 C   0  0  0  0  0  0  0  0  0  0  0  0
  141.0750   76.7200  221.6230 C   0  0  0  0  0  0  0  0  0  0  0  0
  142.1710   74.8140  220.4700 C   0  0  0  0  0  0  0  0  0  0  0  0
  143.5280   75.0800  220.4190 C   0  0  0  0  0  0  0  0  0  0  0  0
  144.4760   74.0750  220.4120 C   0  0  0  0  0  0  0  0  0  0  0  0
  144.0450   72.7700  220.4580 C   0  0  0  0  0  0  0  0  0  0  0  0
  142.7050   72.4660  220.5120 C   0  0  0  0  0  0  0  0  0  0  0  0
  141.7830   73.4920  220.5160 C   0  0  0  0  0  0  0  0  0  0  0  0
  140.0970   72.3769  223.5457 H   0  0  0  0  0  0  0  0  0  0  0  0
  141.3791   71.8632  224.8866 H   0  0  0  0  0  0  0  0  0  0  0  0
  142.1297   73.1080  226.9136 H   0  0  0  0  0  0  0  0  0  0  0  0
  141.3137   72.3624  229.1718 H   0  0  0  0  0  0  0  0  0  0  0  0
  139.7764   70.3967  229.3467 H   0  0  0  0  0  0  0  0  0  0  0  0
  139.0575   69.1854  227.2925 H   0  0  0  0  0  0  0  0  0  0  0  0
  139.6937   67.9172  226.0236 H   0  0  0  0  0  0  0  0  0  0  0  0
  138.9756   66.4359  224.2227 H   0  0  0  0  0  0  0  0  0  0  0  0
  138.6645   67.3420  221.9343 H   0  0  0  0  0  0  0  0  0  0  0  0
  138.8510   69.6870  220.5040 H   0  0  0  0  0  0  0  0  0  0  0  0
  139.1755   75.0010  219.6885 H   0  0  0  0  0  0  0  0  0  0  0  0
  139.2302   75.0292  221.4529 H   0  0  0  0  0  0  0  0  0  0  0  0
  141.4524   76.1536  218.3996 H   0  0  0  0  0  0  0  0  0  0  0  0
  139.9479   76.8616  218.9464 H   0  0  0  0  0  0  0  0  0  0  0  0
  142.7727   77.7900  219.3259 H   0  0  0  0  0  0  0  0  0  0  0  0
  141.2657   78.7545  219.3264 H   0  0  0  0  0  0  0  0  0  0  0  0
  140.1000   79.2255  221.3377 H   0  0  0  0  0  0  0  0  0  0  0  0
  142.8650   80.0490  220.9000 H   0  0  0  0  0  0  0  0  0  0  0  0
  141.2198   80.6242  220.2562 H   0  0  0  0  0  0  0  0  0  0  0  0
  142.6898   82.1560  221.6553 H   0  0  0  0  0  0  0  0  0  0  0  0
  140.8704   81.9905  221.8943 H   0  0  0  0  0  0  0  0  0  0  0  0
  143.0312   80.7967  223.6322 H   0  0  0  0  0  0  0  0  0  0  0  0
  141.9953   82.1780  224.0379 H   0  0  0  0  0  0  0  0  0  0  0  0
  140.9413   80.1332  224.9432 H   0  0  0  0  0  0  0  0  0  0  0  0
  139.9499   80.6715  223.5693 H   0  0  0  0  0  0  0  0  0  0  0  0
  142.2314   78.6460  223.4328 H   0  0  0  0  0  0  0  0  0  0  0  0
  140.4558   78.2577  223.4729 H   0  0  0  0  0  0  0  0  0  0  0  0
  141.6117   76.2870  222.4800 H   0  0  0  0  0  0  0  0  0  0  0  0
  140.0617   76.9808  221.9625 H   0  0  0  0  0  0  0  0  0  0  0  0
  143.8633   76.1270  220.3828 H   0  0  0  0  0  0  0  0  0  0  0  0
  145.5492   74.3129  220.3707 H   0  0  0  0  0  0  0  0  0  0  0  0
  144.7845   71.9557  220.4515 H   0  0  0  0  0  0  0  0  0  0  0  0
  142.3726   71.4182  220.5515 H   0  0  0  0  0  0  0  0  0  0  0  0
  1  2  2  0
  2  3  1  0
  3  4  2  0
  4  5  1  0
  5  6  2  0
  6  7  1  0
  7  8  2  0
  8  9  1  0
  9 10  2  0
 10 11  1  0
 11 12  2  0
  6 13  1  0
 13 14  2  0
 14 15  1  0
 15 16  2  0
 16 17  1  0
  2 18  1  0
 18 19  1  0
 20 19  1  1
 20 21  1  0
 21 22  1  0
 22 23  1  0
 23 24  1  0
 24 25  1  0
 25 26  1  0
 26 27  1  0
 27 28  1  0
 28 29  1  0
 23 30  1  0
 20 31  1  0
 31 32  2  0
 32 33  1  0
 33 34  2  0
 34 35  1  0
 35 36  2  0
 17  3  1  0
 36 18  1  0
 16  5  1  0
 30 20  1  0
 36 31  1  0
 12  7  1  0
 29 24  1  0
  4 37  1  0
  8 38  1  0
  9 39  1  0
 10 40  1  0
 11 41  1  0
 12 42  1  0
 13 43  1  0
 14 44  1  0
 15 45  1  0
 17 46  1  0
 19 47  1  0
 19 48  1  0
 21 49  1  0
 21 50  1  0
 22 51  1  0
 22 52  1  0
 24 53  1  0
 25 54  1  0
 25 55  1  0
 26 56  1  0
 26 57  1  0
 27 58  1  0
 27 59  1  0
 28 60  1  0
 28 61  1  0
 29 62  1  0
 29 63  1  0
 30 64  1  0
 30 65  1  0
 32 66  1  0
 33 67  1  0
 34 68  1  0
 35 69  1  0
M  END
>  <smiles>  (14) 
O=C(c1cc2c(-c3ccccc3)cccc2[nH]1)N1C[C@]2(CCN(C3CCCCC3)C2)c2ccccc21

>  <score_type>  (14) 
oracle

>  <origin>  (14) 
autodockgpu

>  <m_score__min__energy>  (14) 
-10.609999999999999

>  <m_primary>  (14) 
energy

>  <rmsd>  (14) 
2.965371155872105

>  <m_score__min__rmsd>  (14) 
2.965371155872105

>  <meeko>  (14) 
{"free_energy": -10.6, "intermolecular_energy": -11.8, "internal_energy": -1.89, "cluster_size": 42, "cluster_id": 1, "rank_in_cluster": 3}

>  <energy>  (14) 
-10.53

>  <cluster_rmsd>  (14) 
0.27

>  <cluster>  (14) 
1

$$$$

     RDKit          3D

 69 75  0  0  0  0  0  0  0  0999 V2000
  137.7150   73.1880  220.3850 O   0  0  0  0  0  0  0  0  0  0  0  0
  138.7780   73.1510  221.0810 C   0  0  0  0  0  0  0  0  0  0  0  0
  138.9000   72.0080  221.9690 C   0  0  0  0  0  0  0  0  0  0  0  0
  139.3660   71.8650  223.2420 C   0  0  0  0  0  0  0  0  0  0  0  0
  139.2630   70.5230  223.5670 C   0  0  0  0  0  0  0  0  0  0  0  0
  139.5800   69.7990  224.6890 C   0  0  0  0  0  0  0  0  0  0  0  0
  140.1030   70.3460  225.9230 C   0  0  0  0  0  0  0  0  0  0  0  0
  139.7040   69.8370  227.1530 C   0  0  0  0  0  0  0  0  0  0  0  0
  140.1470   70.3960  228.3510 C   0  0  0  0  0  0  0  0  0  0  0  0
  141.0160   71.4930  228.2940 C   0  0  0  0  0  0  0  0  0  0  0  0
  141.4170   71.9990  227.0500 C   0  0  0  0  0  0  0  0  0  0  0  0
  140.9520   71.4160  225.8730 C   0  0  0  0  0  0  0  0  0  0  0  0
  139.3480   68.4210  224.6800 C   0  0  0  0  0  0  0  0  0  0  0  0
  138.8220   67.7740  223.6080 C   0  0  0  0  0  0  0  0  0  0  0  0
  138.5030   68.4820  222.4850 C   0  0  0  0  0  0  0  0  0  0  0  0
  138.7270   69.8600  222.4770 C   0  0  0  0  0  0  0  0  0  0  0  0
  138.5190   70.7710  221.5370 N   0  0  0  0  0  0  0  0  0  0  0  0
  139.7700   74.1940  220.9780 N   0  0  0  0  0  0  0  0  0  0  0  0
  139.4250   75.5660  221.3130 C   0  0  0  0  0  0  0  0  0  0  0  0
  140.6790   76.3490  221.0940 C   0  0  1  0  0  0  0  0  0  0  0  0
  140.4770   77.4420  220.0700 C   0  0  0  0  0  0  0  0  0  0  0  0
  141.4700   78.4890  220.4930 C   0  0  0  0  0  0  0  0  0  0  0  0
  141.8010   78.2700  221.8640 N   0  0  0  0  0  0  0  0  0  0  0  0
  141.4660   79.4550  222.6880 C   0  0  0  0  0  0  0  0  0  0  0  0
  140.1070   79.3350  223.2930 C   0  0  0  0  0  0  0  0  0  0  0  0
  139.3480   80.5800  223.5110 C   0  0  0  0  0  0  0  0  0  0  0  0
  139.5050   81.6240  222.4510 C   0  0  0  0  0  0  0  0  0  0  0  0
  141.0030   81.8790  222.3200 C   0  0  0  0  0  0  0  0  0  0  0  0
  141.6110   80.6290  221.7580 C   0  0  0  0  0  0  0  0  0  0  0  0
  141.0920   77.1250  222.3250 C   0  0  0  0  0  0  0  0  0  0  0  0
  141.6670   75.3500  220.6870 C   0  0  0  0  0  0  0  0  0  0  0  0
  143.0040   75.4990  220.3610 C   0  0  0  0  0  0  0  0  0  0  0  0
  143.7960   74.4290  219.9900 C   0  0  0  0  0  0  0  0  0  0  0  0
  143.2250   73.1780  219.9450 C   0  0  0  0  0  0  0  0  0  0  0  0
  141.9010   72.9900  220.2640 C   0  0  0  0  0  0  0  0  0  0  0  0
  141.1370   74.0790  220.6300 C   0  0  0  0  0  0  0  0  0  0  0  0
  139.7517   72.6659  223.8899 H   0  0  0  0  0  0  0  0  0  0  0  0
  139.0232   68.9735  227.1821 H   0  0  0  0  0  0  0  0  0  0  0  0
  139.8217   69.9852  229.3182 H   0  0  0  0  0  0  0  0  0  0  0  0
  141.3824   71.9557  229.2222 H   0  0  0  0  0  0  0  0  0  0  0  0
  142.1010   72.8592  227.0027 H   0  0  0  0  0  0  0  0  0  0  0  0
  141.2694   71.8185  224.8997 H   0  0  0  0  0  0  0  0  0  0  0  0
  139.6016   67.8370  225.5770 H   0  0  0  0  0  0  0  0  0  0  0  0
  138.6542   66.6875  223.6442 H   0  0  0  0  0  0  0  0  0  0  0  0
  138.0783   67.9771  221.6048 H   0  0  0  0  0  0  0  0  0  0  0  0
  138.1160   70.5390  220.5960 H   0  0  0  0  0  0  0  0  0  0  0  0
  138.6215   75.9329  220.6575 H   0  0  0  0  0  0  0  0  0  0  0  0
  139.0578   75.6575  222.3459 H   0  0  0  0  0  0  0  0  0  0  0  0
  140.6944   77.0780  219.0550 H   0  0  0  0  0  0  0  0  0  0  0  0
  139.4429   77.8152  220.0323 H   0  0  0  0  0  0  0  0  0  0  0  0
  142.3768   78.4117  219.8752 H   0  0  0  0  0  0  0  0  0  0  0  0
  141.0381   79.4925  220.3647 H   0  0  0  0  0  0  0  0  0  0  0  0
  142.1308   79.5680  223.5570 H   0  0  0  0  0  0  0  0  0  0  0  0
  139.5065   78.6944  222.6304 H   0  0  0  0  0  0  0  0  0  0  0  0
  140.2831   78.9332  224.3017 H   0  0  0  0  0  0  0  0  0  0  0  0
  138.2812   80.3197  223.5750 H   0  0  0  0  0  0  0  0  0  0  0  0
  139.7525   81.0227  224.4332 H   0  0  0  0  0  0  0  0  0  0  0  0
  139.0953   81.2622  221.4964 H   0  0  0  0  0  0  0  0  0  0  0  0
  138.9641   82.5451  222.7137 H   0  0  0  0  0  0  0  0  0  0  0  0
  141.1845   82.7258  221.6417 H   0  0  0  0  0  0  0  0  0  0  0  0
  141.4464   82.1279  223.2954 H   0  0  0  0  0  0  0  0  0  0  0  0
  141.1130   80.3902  220.8067 H   0  0  0  0  0  0  0  0  0  0  0  0
  142.6858   80.8132  221.6138 H   0  0  0  0  0  0  0  0  0  0  0  0
  141.7415   76.5076  222.9629 H   0  0  0  0  0  0  0  0  0  0  0  0
  140.2161   77.4149  222.9240 H   0  0  0  0  0  0  0  0  0  0  0  0
  143.4513   76.5033  220.3985 H   0  0  0  0  0  0  0  0  0  0  0  0
  144.8567   74.5739  219.7370 H   0  0  0  0  0  0  0  0  0  0  0  0
  143.8380   72.3140  219.6489 H   0  0  0  0  0  0  0  0  0  0  0  0
  141.4566   71.9844  220.2279 H   0  0  0  0  0  0  0  0  0  0  0  0
  1  2  2  0
  2  3  1  0
  3  4  2  0
  4  5  1  0
  5  6  2  0
  6  7  1  0
  7  8  2  0
  8  9  1  0
  9 10  2  0
 10 11  1  0
 11 12  2  0
  6 13  1  0
 13 14  2  0
 14 15  1  0
 15 16  2  0
 16 17  1  0
  2 18  1  0
 18 19  1  0
 20 19  1  1
 20 21  1  0
 21 22  1  0
 22 23  1  0
 23 24  1  0
 24 25  1  0
 25 26  1  0
 26 27  1  0
 27 28  1  0
 28 29  1  0
 23 30  1  0
 20 31  1  0
 31 32  2  0
 32 33  1  0
 33 34  2  0
 34 35  1  0
 35 36  2  0
 17  3  1  0
 36 18  1  0
 16  5  1  0
 30 20  1  0
 36 31  1  0
 12  7  1  0
 29 24  1  0
  4 37  1  0
  8 38  1  0
  9 39  1  0
 10 40  1  0
 11 41  1  0
 12 42  1  0
 13 43  1  0
 14 44  1  0
 15 45  1  0
 17 46  1  0
 19 47  1  0
 19 48  1  0
 21 49  1  0
 21 50  1  0
 22 51  1  0
 22 52  1  0
 24 53  1  0
 25 54  1  0
 25 55  1  0
 26 56  1  0
 26 57  1  0
 27 58  1  0
 27 59  1  0
 28 60  1  0
 28 61  1  0
 29 62  1  0
 29 63  1  0
 30 64  1  0
 30 65  1  0
 32 66  1  0
 33 67  1  0
 34 68  1  0
 35 69  1  0
M  END
>  <smiles>  (15) 
O=C(c1cc2c(-c3ccccc3)cccc2[nH]1)N1C[C@]2(CCN(C3CCCCC3)C2)c2ccccc21

>  <score_type>  (15) 
oracle

>  <origin>  (15) 
autodockgpu

>  <m_score__min__energy>  (15) 
-10.609999999999999

>  <m_primary>  (15) 
energy

>  <rmsd>  (15) 
2.5943236426666783

>  <m_score__min__rmsd>  (15) 
2.5943236426666783

>  <meeko>  (15) 
{"free_energy": -10.19, "intermolecular_energy": -11.39, "internal_energy": -1.94, "cluster_size": 42, "cluster_id": 1, "rank_in_cluster": 37}

>  <energy>  (15) 
-10.53

>  <cluster_rmsd>  (15) 
0.18

>  <cluster>  (15) 
1

$$$$

     RDKit          3D

 69 75  0  0  0  0  0  0  0  0999 V2000
  140.9410   73.3040  220.1450 O   0  0  0  0  0  0  0  0  0  0  0  0
  140.4110   73.6150  221.2570 C   0  0  0  0  0  0  0  0  0  0  0  0
  140.0850   72.4970  222.1250 C   0  0  0  0  0  0  0  0  0  0  0  0
  140.3460   72.2310  223.4360 C   0  0  0  0  0  0  0  0  0  0  0  0
  139.8080   70.9870  223.7170 C   0  0  0  0  0  0  0  0  0  0  0  0
  139.7680   70.2110  224.8480 C   0  0  0  0  0  0  0  0  0  0  0  0
  140.2970   70.5840  226.1430 C   0  0  0  0  0  0  0  0  0  0  0  0
  140.7320   71.8800  226.3870 C   0  0  0  0  0  0  0  0  0  0  0  0
  141.3050   72.2390  227.6070 C   0  0  0  0  0  0  0  0  0  0  0  0
  141.4350   71.2570  228.5970 C   0  0  0  0  0  0  0  0  0  0  0  0
  140.9920   69.9510  228.3450 C   0  0  0  0  0  0  0  0  0  0  0  0
  140.4260   69.6290  227.1130 C   0  0  0  0  0  0  0  0  0  0  0  0
  139.1320   68.9690  224.7820 C   0  0  0  0  0  0  0  0  0  0  0  0
  138.5520   68.5020  223.6460 C   0  0  0  0  0  0  0  0  0  0  0  0
  138.5850   69.2640  222.5130 C   0  0  0  0  0  0  0  0  0  0  0  0
  139.2160   70.5080  222.5610 C   0  0  0  0  0  0  0  0  0  0  0  0
  139.3960   71.4310  221.6270 N   0  0  0  0  0  0  0  0  0  0  0  0
  140.1550   74.9940  221.5980 N   0  0  0  0  0  0  0  0  0  0  0  0
  141.1940   75.9960  221.4220 C   0  0  0  0  0  0  0  0  0  0  0  0
  140.5770   77.2810  221.8680 C   0  0  1  0  0  0  0  0  0  0  0  0
  141.3530   77.9020  223.0070 C   0  0  0  0  0  0  0  0  0  0  0  0
  141.0950   79.3720  222.8310 C   0  0  0  0  0  0  0  0  0  0  0  0
  140.6880   79.6010  221.4820 N   0  0  0  0  0  0  0  0  0  0  0  0
  141.6120   80.5370  220.7990 C   0  0  0  0  0  0  0  0  0  0  0  0
  141.0450   81.9160  220.7350 C   0  0  0  0  0  0  0  0  0  0  0  0
  141.4110   82.7480  219.5730 C   0  0  0  0  0  0  0  0  0  0  0  0
  141.5210   82.0200  218.2700 C   0  0  0  0  0  0  0  0  0  0  0  0
  142.5090   80.8820  218.4970 C   0  0  0  0  0  0  0  0  0  0  0  0
  141.8600   79.9220  219.4480 C   0  0  0  0  0  0  0  0  0  0  0  0
  140.6480   78.3520  220.8010 C   0  0  0  0  0  0  0  0  0  0  0  0
  139.2050   76.9230  222.2300 C   0  0  0  0  0  0  0  0  0  0  0  0
  138.1720   77.7130  222.7030 C   0  0  0  0  0  0  0  0  0  0  0  0
  136.9260   77.1950  223.0010 C   0  0  0  0  0  0  0  0  0  0  0  0
  136.7170   75.8480  222.8180 C   0  0  0  0  0  0  0  0  0  0  0  0
  137.7190   75.0320  222.3470 C   0  0  0  0  0  0  0  0  0  0  0  0
  138.9520   75.5790  222.0600 C   0  0  0  0  0  0  0  0  0  0  0  0
  140.8839   72.8833  224.1396 H   0  0  0  0  0  0  0  0  0  0  0  0
  140.6222   72.6409  225.6002 H   0  0  0  0  0  0  0  0  0  0  0  0
  141.6466   73.2689  227.7872 H   0  0  0  0  0  0  0  0  0  0  0  0
  141.8833   71.5096  229.5692 H   0  0  0  0  0  0  0  0  0  0  0  0
  141.0915   69.1785  229.1217 H   0  0  0  0  0  0  0  0  0  0  0  0
  140.0816   68.6023  226.9201 H   0  0  0  0  0  0  0  0  0  0  0  0
  139.0996   68.3439  225.6866 H   0  0  0  0  0  0  0  0  0  0  0  0
  138.0598   67.5183  223.6386 H   0  0  0  0  0  0  0  0  0  0  0  0
  138.1236   68.9045  221.5814 H   0  0  0  0  0  0  0  0  0  0  0  0
  139.0440   71.3240  220.6430 H   0  0  0  0  0  0  0  0  0  0  0  0
  142.0716   75.7545  222.0396 H   0  0  0  0  0  0  0  0  0  0  0  0
  141.5441   76.0473  220.3805 H   0  0  0  0  0  0  0  0  0  0  0  0
  140.9787   77.5487  223.9792 H   0  0  0  0  0  0  0  0  0  0  0  0
  142.4225   77.6452  222.9933 H   0  0  0  0  0  0  0  0  0  0  0  0
  140.2992   79.6942  223.5187 H   0  0  0  0  0  0  0  0  0  0  0  0
  142.0079   79.9445  223.0521 H   0  0  0  0  0  0  0  0  0  0  0  0
  142.5600   80.6684  221.3413 H   0  0  0  0  0  0  0  0  0  0  0  0
  139.9490   81.8226  220.7416 H   0  0  0  0  0  0  0  0  0  0  0  0
  141.4771   82.4379  221.6015 H   0  0  0  0  0  0  0  0  0  0  0  0
  140.6454   83.5298  219.4611 H   0  0  0  0  0  0  0  0  0  0  0  0
  142.4163   83.1402  219.7863 H   0  0  0  0  0  0  0  0  0  0  0  0
  140.5403   81.6194  217.9737 H   0  0  0  0  0  0  0  0  0  0  0  0
  141.8605   82.6894  217.4658 H   0  0  0  0  0  0  0  0  0  0  0  0
  142.7308   80.3785  217.5445 H   0  0  0  0  0  0  0  0  0  0  0  0
  143.4569   81.2607  218.9070 H   0  0  0  0  0  0  0  0  0  0  0  0
  140.8976   79.5999  219.0238 H   0  0  0  0  0  0  0  0  0  0  0  0
  142.5430   79.0708  219.5857 H   0  0  0  0  0  0  0  0  0  0  0  0
  139.7609   78.3013  220.1525 H   0  0  0  0  0  0  0  0  0  0  0  0
  141.5342   78.2189  220.1631 H   0  0  0  0  0  0  0  0  0  0  0  0
  138.3486   78.7892  222.8466 H   0  0  0  0  0  0  0  0  0  0  0  0
  136.1209   77.8442  223.3755 H   0  0  0  0  0  0  0  0  0  0  0  0
  135.7327   75.4164  223.0521 H   0  0  0  0  0  0  0  0  0  0  0  0
  137.5392   73.9567  222.2011 H   0  0  0  0  0  0  0  0  0  0  0  0
  1  2  2  0
  2  3  1  0
  3  4  2  0
  4  5  1  0
  5  6  2  0
  6  7  1  0
  7  8  2  0
  8  9  1  0
  9 10  2  0
 10 11  1  0
 11 12  2  0
  6 13  1  0
 13 14  2  0
 14 15  1  0
 15 16  2  0
 16 17  1  0
  2 18  1  0
 18 19  1  0
 20 19  1  6
 20 21  1  0
 21 22  1  0
 22 23  1  0
 23 24  1  0
 24 25  1  0
 25 26  1  0
 26 27  1  0
 27 28  1  0
 28 29  1  0
 23 30  1  0
 20 31  1  0
 31 32  2  0
 32 33  1  0
 33 34  2  0
 34 35  1  0
 35 36  2  0
 17  3  1  0
 36 18  1  0
 16  5  1  0
 30 20  1  0
 36 31  1  0
 12  7  1  0
 29 24  1  0
  4 37  1  0
  8 38  1  0
  9 39  1  0
 10 40  1  0
 11 41  1  0
 12 42  1  0
 13 43  1  0
 14 44  1  0
 15 45  1  0
 17 46  1  0
 19 47  1  0
 19 48  1  0
 21 49  1  0
 21 50  1  0
 22 51  1  0
 22 52  1  0
 24 53  1  0
 25 54  1  0
 25 55  1  0
 26 56  1  0
 26 57  1  0
 27 58  1  0
 27 59  1  0
 28 60  1  0
 28 61  1  0
 29 62  1  0
 29 63  1  0
 30 64  1  0
 30 65  1  0
 32 66  1  0
 33 67  1  0
 34 68  1  0
 35 69  1  0
M  END
>  <smiles>  (16) 
O=C(c1cc2c(-c3ccccc3)cccc2[nH]1)N1C[C@]2(CCN(C3CCCCC3)C2)c2ccccc21

>  <score_type>  (16) 
oracle

>  <origin>  (16) 
autodockgpu

>  <m_score__min__energy>  (16) 
-10.609999999999999

>  <m_primary>  (16) 
energy

>  <rmsd>  (16) 
2.669712474725779

>  <m_score__min__rmsd>  (16) 
2.669712474725779

>  <meeko>  (16) 
{"free_energy": -10.14, "intermolecular_energy": -11.34, "internal_energy": -1.74, "cluster_size": 1, "cluster_id": 3, "rank_in_cluster": 1}

>  <energy>  (16) 
-10.5

>  <cluster_rmsd>  (16) 
1.05

>  <cluster>  (16) 
1

$$$$

     RDKit          3D

 69 75  0  0  0  0  0  0  0  0999 V2000
  140.6270   70.7910  219.4190 O   0  0  0  0  0  0  0  0  0  0  0  0
  140.6910   71.5440  220.4410 C   0  0  0  0  0  0  0  0  0  0  0  0
  140.0230   71.0400  221.6280 C   0  0  0  0  0  0  0  0  0  0  0  0
  140.3260   71.0870  222.9560 C   0  0  0  0  0  0  0  0  0  0  0  0
  139.3250   70.4050  223.6290 C   0  0  0  0  0  0  0  0  0  0  0  0
  139.1040   70.1230  224.9540 C   0  0  0  0  0  0  0  0  0  0  0  0
  139.9310   70.5630  226.0570 C   0  0  0  0  0  0  0  0  0  0  0  0
  140.0340   69.8040  227.2160 C   0  0  0  0  0  0  0  0  0  0  0  0
  140.7730   70.2450  228.3120 C   0  0  0  0  0  0  0  0  0  0  0  0
  141.4230   71.4830  228.2240 C   0  0  0  0  0  0  0  0  0  0  0  0
  141.3180   72.2420  227.0510 C   0  0  0  0  0  0  0  0  0  0  0  0
  140.5680   71.7690  225.9750 C   0  0  0  0  0  0  0  0  0  0  0  0
  137.9670   69.3870  225.2970 C   0  0  0  0  0  0  0  0  0  0  0  0
  137.0750   68.9420  224.3740 C   0  0  0  0  0  0  0  0  0  0  0  0
  137.2840   69.2150  223.0520 C   0  0  0  0  0  0  0  0  0  0  0  0
  138.4140   69.9510  222.6910 C   0  0  0  0  0  0  0  0  0  0  0  0
  138.8560   70.3440  221.5050 N   0  0  0  0  0  0  0  0  0  0  0  0
  141.3800   72.8110  220.3890 N   0  0  0  0  0  0  0  0  0  0  0  0
  140.6240   74.0510  220.3150 C   0  0  0  0  0  0  0  0  0  0  0  0
  141.6540   75.1340  220.2800 C   0  0  1  0  0  0  0  0  0  0  0  0
  141.5290   75.9740  219.0290 C   0  0  0  0  0  0  0  0  0  0  0  0
  142.0510   77.3140  219.4690 C   0  0  0  0  0  0  0  0  0  0  0  0
  141.9710   77.3850  220.8920 N   0  0  0  0  0  0  0  0  0  0  0  0
  141.1150   78.5160  221.3210 C   0  0  0  0  0  0  0  0  0  0  0  0
  141.6170   79.8160  220.7860 C   0  0  0  0  0  0  0  0  0  0  0  0
  141.3880   81.0210  221.6040 C   0  0  0  0  0  0  0  0  0  0  0  0
  141.5100   80.8280  223.0830 C   0  0  0  0  0  0  0  0  0  0  0  0
  140.5560   79.6960  223.4470 C   0  0  0  0  0  0  0  0  0  0  0  0
  141.1020   78.4470  222.8240 C   0  0  0  0  0  0  0  0  0  0  0  0
  141.4520   76.1520  221.3800 C   0  0  0  0  0  0  0  0  0  0  0  0
  142.9310   74.4280  220.3780 C   0  0  0  0  0  0  0  0  0  0  0  0
  144.2240   74.9220  220.4010 C   0  0  0  0  0  0  0  0  0  0  0  0
  145.3270   74.0950  220.4950 C   0  0  0  0  0  0  0  0  0  0  0  0
  145.1210   72.7370  220.5680 C   0  0  0  0  0  0  0  0  0  0  0  0
  143.8510   72.2090  220.5510 C   0  0  0  0  0  0  0  0  0  0  0  0
  142.7710   73.0610  220.4540 C   0  0  0  0  0  0  0  0  0  0  0  0
  141.2016   71.5751  223.4089 H   0  0  0  0  0  0  0  0  0  0  0  0
  139.5205   68.8327  227.2698 H   0  0  0  0  0  0  0  0  0  0  0  0
  140.8443   69.6354  229.2249 H   0  0  0  0  0  0  0  0  0  0  0  0
  142.0137   71.8578  229.0729 H   0  0  0  0  0  0  0  0  0  0  0  0
  141.8286   73.2136  226.9788 H   0  0  0  0  0  0  0  0  0  0  0  0
  140.4888   72.3691  225.0565 H   0  0  0  0  0  0  0  0  0  0  0  0
  137.7867   69.1585  226.3578 H   0  0  0  0  0  0  0  0  0  0  0  0
  136.1918   68.3667  224.6886 H   0  0  0  0  0  0  0  0  0  0  0  0
  136.5763   68.8621  222.2874 H   0  0  0  0  0  0  0  0  0  0  0  0
  138.3520   70.1320  220.6080 H   0  0  0  0  0  0  0  0  0  0  0  0
  140.0083   74.0741  219.4037 H   0  0  0  0  0  0  0  0  0  0  0  0
  139.9351   74.1649  221.1650 H   0  0  0  0  0  0  0  0  0  0  0  0
  142.1391   75.5606  218.2124 H   0  0  0  0  0  0  0  0  0  0  0  0
  140.5027   76.0161  218.6354 H   0  0  0  0  0  0  0  0  0  0  0  0
  143.0975   77.4278  219.1499 H   0  0  0  0  0  0  0  0  0  0  0  0
  141.4529   78.1189  219.0168 H   0  0  0  0  0  0  0  0  0  0  0  0
  140.0915   78.4461  220.9242 H   0  0  0  0  0  0  0  0  0  0  0  0
  142.7030   79.7163  220.6426 H   0  0  0  0  0  0  0  0  0  0  0  0
  141.0356   79.9852  219.8677 H   0  0  0  0  0  0  0  0  0  0  0  0
  142.1220   81.7817  221.2998 H   0  0  0  0  0  0  0  0  0  0  0  0
  140.3437   81.3152  221.4228 H   0  0  0  0  0  0  0  0  0  0  0  0
  142.5424   80.5559  223.3477 H   0  0  0  0  0  0  0  0  0  0  0  0
  141.2621   81.7506  223.6283 H   0  0  0  0  0  0  0  0  0  0  0  0
  140.5044   79.5819  224.5399 H   0  0  0  0  0  0  0  0  0  0  0  0
  139.5398   79.9056  223.0817 H   0  0  0  0  0  0  0  0  0  0  0  0
  142.1317   78.2954  223.1799 H   0  0  0  0  0  0  0  0  0  0  0  0
  140.4483   77.6121  223.1165 H   0  0  0  0  0  0  0  0  0  0  0  0
  141.9938   75.8442  222.2865 H   0  0  0  0  0  0  0  0  0  0  0  0
  140.3883   76.2456  221.6441 H   0  0  0  0  0  0  0  0  0  0  0  0
  144.3786   76.0095  220.3425 H   0  0  0  0  0  0  0  0  0  0  0  0
  146.3446   74.5124  220.5110 H   0  0  0  0  0  0  0  0  0  0  0  0
  145.9864   72.0619  220.6412 H   0  0  0  0  0  0  0  0  0  0  0  0
  143.6988   71.1214  220.6139 H   0  0  0  0  0  0  0  0  0  0  0  0
  1  2  2  0
  2  3  1  0
  3  4  2  0
  4  5  1  0
  5  6  2  0
  6  7  1  0
  7  8  2  0
  8  9  1  0
  9 10  2  0
 10 11  1  0
 11 12  2  0
  6 13  1  0
 13 14  2  0
 14 15  1  0
 15 16  2  0
 16 17  1  0
  2 18  1  0
 18 19  1  0
 20 19  1  6
 20 21  1  0
 21 22  1  0
 22 23  1  0
 23 24  1  0
 24 25  1  0
 25 26  1  0
 26 27  1  0
 27 28  1  0
 28 29  1  0
 23 30  1  0
 20 31  1  0
 31 32  2  0
 32 33  1  0
 33 34  2  0
 34 35  1  0
 35 36  2  0
 17  3  1  0
 36 18  1  0
 16  5  1  0
 30 20  1  0
 36 31  1  0
 12  7  1  0
 29 24  1  0
  4 37  1  0
  8 38  1  0
  9 39  1  0
 10 40  1  0
 11 41  1  0
 12 42  1  0
 13 43  1  0
 14 44  1  0
 15 45  1  0
 17 46  1  0
 19 47  1  0
 19 48  1  0
 21 49  1  0
 21 50  1  0
 22 51  1  0
 22 52  1  0
 24 53  1  0
 25 54  1  0
 25 55  1  0
 26 56  1  0
 26 57  1  0
 27 58  1  0
 27 59  1  0
 28 60  1  0
 28 61  1  0
 29 62  1  0
 29 63  1  0
 30 64  1  0
 30 65  1  0
 32 66  1  0
 33 67  1  0
 34 68  1  0
 35 69  1  0
M  END
>  <smiles>  (17) 
O=C(c1cc2c(-c3ccccc3)cccc2[nH]1)N1C[C@]2(CCN(C3CCCCC3)C2)c2ccccc21

>  <score_type>  (17) 
oracle

>  <origin>  (17) 
autodockgpu

>  <m_score__min__energy>  (17) 
-10.609999999999999

>  <m_primary>  (17) 
energy

>  <rmsd>  (17) 
3.2638396387689315

>  <m_score__min__rmsd>  (17) 
3.2638396387689315

>  <meeko>  (17) 
{"free_energy": -10.53, "intermolecular_energy": -11.72, "internal_energy": -1.78, "cluster_size": 42, "cluster_id": 1, "rank_in_cluster": 13}

>  <energy>  (17) 
-10.49

>  <cluster_rmsd>  (17) 
1.01

>  <cluster>  (17) 
1

$$$$

     RDKit          3D

 69 75  0  0  0  0  0  0  0  0999 V2000
  140.4980   70.8870  219.3680 O   0  0  0  0  0  0  0  0  0  0  0  0
  140.6140   71.6090  220.4070 C   0  0  0  0  0  0  0  0  0  0  0  0
  139.9750   71.0870  221.6020 C   0  0  0  0  0  0  0  0  0  0  0  0
  140.2930   71.1420  222.9260 C   0  0  0  0  0  0  0  0  0  0  0  0
  139.3200   70.4330  223.6110 C   0  0  0  0  0  0  0  0  0  0  0  0
  139.1230   70.1450  224.9380 C   0  0  0  0  0  0  0  0  0  0  0  0
  139.9510   70.6080  226.0310 C   0  0  0  0  0  0  0  0  0  0  0  0
  139.9740   69.9300  227.2440 C   0  0  0  0  0  0  0  0  0  0  0  0
  140.7150   70.3990  228.3270 C   0  0  0  0  0  0  0  0  0  0  0  0
  141.4490   71.5820  228.1710 C   0  0  0  0  0  0  0  0  0  0  0  0
  141.4230   72.2600  226.9450 C   0  0  0  0  0  0  0  0  0  0  0  0
  140.6690   71.7620  225.8840 C   0  0  0  0  0  0  0  0  0  0  0  0
  138.0110   69.3780  225.2950 C   0  0  0  0  0  0  0  0  0  0  0  0
  137.1210   68.9080  224.3830 C   0  0  0  0  0  0  0  0  0  0  0  0
  137.3060   69.1860  223.0590 C   0  0  0  0  0  0  0  0  0  0  0  0
  138.4110   69.9530  222.6840 C   0  0  0  0  0  0  0  0  0  0  0  0
  138.8260   70.3590  221.4930 N   0  0  0  0  0  0  0  0  0  0  0  0
  141.3300   72.8620  220.3650 N   0  0  0  0  0  0  0  0  0  0  0  0
  140.6010   74.1180  220.2880 C   0  0  0  0  0  0  0  0  0  0  0  0
  141.6540   75.1790  220.2670 C   0  0  1  0  0  0  0  0  0  0  0  0
  141.5600   76.0250  219.0170 C   0  0  0  0  0  0  0  0  0  0  0  0
  142.1050   77.3520  219.4670 C   0  0  0  0  0  0  0  0  0  0  0  0
  142.0120   77.4200  220.8900 N   0  0  0  0  0  0  0  0  0  0  0  0
  141.1750   78.5680  221.3130 C   0  0  0  0  0  0  0  0  0  0  0  0
  141.8560   79.8690  221.0470 C   0  0  0  0  0  0  0  0  0  0  0  0
  141.5710   80.9860  221.9660 C   0  0  0  0  0  0  0  0  0  0  0  0
  141.4120   80.6100  223.4060 C   0  0  0  0  0  0  0  0  0  0  0  0
  140.3300   79.5370  223.4520 C   0  0  0  0  0  0  0  0  0  0  0  0
  140.8890   78.3240  222.7700 C   0  0  0  0  0  0  0  0  0  0  0  0
  141.4620   76.1980  221.3680 C   0  0  0  0  0  0  0  0  0  0  0  0
  142.9150   74.4460  220.3760 C   0  0  0  0  0  0  0  0  0  0  0  0
  144.2180   74.9120  220.4130 C   0  0  0  0  0  0  0  0  0  0  0  0
  145.3020   74.0620  220.5160 C   0  0  0  0  0  0  0  0  0  0  0  0
  145.0670   72.7080  220.5830 C   0  0  0  0  0  0  0  0  0  0  0  0
  143.7870   72.2070  220.5510 C   0  0  0  0  0  0  0  0  0  0  0  0
  142.7250   73.0820  220.4460 C   0  0  0  0  0  0  0  0  0  0  0  0
  141.1604   71.6539  223.3682 H   0  0  0  0  0  0  0  0  0  0  0  0
  139.3938   69.0017  227.3517 H   0  0  0  0  0  0  0  0  0  0  0  0
  140.7234   69.8531  229.2820 H   0  0  0  0  0  0  0  0  0  0  0  0
  142.0436   71.9772  229.0079 H   0  0  0  0  0  0  0  0  0  0  0  0
  141.9996   73.1883  226.8196 H   0  0  0  0  0  0  0  0  0  0  0  0
  140.6515   72.2996  224.9245 H   0  0  0  0  0  0  0  0  0  0  0  0
  137.8498   69.1453  226.3580 H   0  0  0  0  0  0  0  0  0  0  0  0
  136.2582   68.3083  224.7083 H   0  0  0  0  0  0  0  0  0  0  0  0
  136.5990   68.8133  222.3032 H   0  0  0  0  0  0  0  0  0  0  0  0
  138.3180   70.1320  220.6020 H   0  0  0  0  0  0  0  0  0  0  0  0
  139.9950   74.1572  219.3708 H   0  0  0  0  0  0  0  0  0  0  0  0
  139.9062   74.2436  221.1315 H   0  0  0  0  0  0  0  0  0  0  0  0
  142.1701   75.6013  218.2057 H   0  0  0  0  0  0  0  0  0  0  0  0
  140.5392   76.0896  218.6122 H   0  0  0  0  0  0  0  0  0  0  0  0
  143.1569   77.4450  219.1589 H   0  0  0  0  0  0  0  0  0  0  0  0
  141.5283   78.1706  219.0117 H   0  0  0  0  0  0  0  0  0  0  0  0
  140.2369   78.6412  220.7432 H   0  0  0  0  0  0  0  0  0  0  0  0
  142.9402   79.6858  221.0771 H   0  0  0  0  0  0  0  0  0  0  0  0
  141.4618   80.1983  220.0743 H   0  0  0  0  0  0  0  0  0  0  0  0
  142.4001   81.7052  221.8929 H   0  0  0  0  0  0  0  0  0  0  0  0
  140.5999   81.3961  221.6515 H   0  0  0  0  0  0  0  0  0  0  0  0
  142.3583   80.2137  223.8027 H   0  0  0  0  0  0  0  0  0  0  0  0
  141.1367   81.4814  224.0183 H   0  0  0  0  0  0  0  0  0  0  0  0
  140.0761   79.3006  224.4958 H   0  0  0  0  0  0  0  0  0  0  0  0
  139.4127   79.8816  222.9522 H   0  0  0  0  0  0  0  0  0  0  0  0
  141.8253   78.0367  223.2709 H   0  0  0  0  0  0  0  0  0  0  0  0
  140.1362   77.5246  222.8356 H   0  0  0  0  0  0  0  0  0  0  0  0
  141.9872   75.8760  222.2793 H   0  0  0  0  0  0  0  0  0  0  0  0
  140.3977   76.3136  221.6209 H   0  0  0  0  0  0  0  0  0  0  0  0
  144.3963   75.9961  220.3585 H   0  0  0  0  0  0  0  0  0  0  0  0
  146.3279   74.4579  220.5438 H   0  0  0  0  0  0  0  0  0  0  0  0
  145.9173   72.0148  220.6635 H   0  0  0  0  0  0  0  0  0  0  0  0
  143.6117   71.1226  220.6084 H   0  0  0  0  0  0  0  0  0  0  0  0
  1  2  2  0
  2  3  1  0
  3  4  2  0
  4  5  1  0
  5  6  2  0
  6  7  1  0
  7  8  2  0
  8  9  1  0
  9 10  2  0
 10 11  1  0
 11 12  2  0
  6 13  1  0
 13 14  2  0
 14 15  1  0
 15 16  2  0
 16 17  1  0
  2 18  1  0
 18 19  1  0
 20 19  1  6
 20 21  1  0
 21 22  1  0
 22 23  1  0
 23 24  1  0
 24 25  1  0
 25 26  1  0
 26 27  1  0
 27 28  1  0
 28 29  1  0
 23 30  1  0
 20 31  1  0
 31 32  2  0
 32 33  1  0
 33 34  2  0
 34 35  1  0
 35 36  2  0
 17  3  1  0
 36 18  1  0
 16  5  1  0
 30 20  1  0
 36 31  1  0
 12  7  1  0
 29 24  1  0
  4 37  1  0
  8 38  1  0
  9 39  1  0
 10 40  1  0
 11 41  1  0
 12 42  1  0
 13 43  1  0
 14 44  1  0
 15 45  1  0
 17 46  1  0
 19 47  1  0
 19 48  1  0
 21 49  1  0
 21 50  1  0
 22 51  1  0
 22 52  1  0
 24 53  1  0
 25 54  1  0
 25 55  1  0
 26 56  1  0
 26 57  1  0
 27 58  1  0
 27 59  1  0
 28 60  1  0
 28 61  1  0
 29 62  1  0
 29 63  1  0
 30 64  1  0
 30 65  1  0
 32 66  1  0
 33 67  1  0
 34 68  1  0
 35 69  1  0
M  END
>  <smiles>  (18) 
O=C(c1cc2c(-c3ccccc3)cccc2[nH]1)N1C[C@]2(CCN(C3CCCCC3)C2)c2ccccc21

>  <score_type>  (18) 
oracle

>  <origin>  (18) 
autodockgpu

>  <m_score__min__energy>  (18) 
-10.609999999999999

>  <m_primary>  (18) 
energy

>  <rmsd>  (18) 
3.3097387737221786

>  <m_score__min__rmsd>  (18) 
3.3097387737221786

>  <meeko>  (18) 
{"free_energy": -10.58, "intermolecular_energy": -11.78, "internal_energy": -1.78, "cluster_size": 42, "cluster_id": 1, "rank_in_cluster": 8}

>  <energy>  (18) 
-10.47

>  <cluster_rmsd>  (18) 
0.18

>  <cluster>  (18) 
1

$$$$

     RDKit          3D

 69 75  0  0  0  0  0  0  0  0999 V2000
  137.2760   73.5080  221.0140 O   0  0  0  0  0  0  0  0  0  0  0  0
  138.4420   73.3110  221.4800 C   0  0  0  0  0  0  0  0  0  0  0  0
  138.6170   72.0690  222.2130 C   0  0  0  0  0  0  0  0  0  0  0  0
  139.1160   71.7800  223.4480 C   0  0  0  0  0  0  0  0  0  0  0  0
  139.0580   70.4050  223.6010 C   0  0  0  0  0  0  0  0  0  0  0  0
  139.4210   69.5540  224.6160 C   0  0  0  0  0  0  0  0  0  0  0  0
  139.9570   69.9560  225.8990 C   0  0  0  0  0  0  0  0  0  0  0  0
  140.5120   71.2170  226.0750 C   0  0  0  0  0  0  0  0  0  0  0  0
  141.0920   71.5950  227.2850 C   0  0  0  0  0  0  0  0  0  0  0  0
  141.1040   70.6700  228.3370 C   0  0  0  0  0  0  0  0  0  0  0  0
  140.5410   69.4000  228.1530 C   0  0  0  0  0  0  0  0  0  0  0  0
  139.9710   69.0570  226.9280 C   0  0  0  0  0  0  0  0  0  0  0  0
  139.2270   68.1820  224.4350 C   0  0  0  0  0  0  0  0  0  0  0  0
  138.6950   67.6600  223.3000 C   0  0  0  0  0  0  0  0  0  0  0  0
  138.3310   68.4950  222.2830 C   0  0  0  0  0  0  0  0  0  0  0  0
  138.5160   69.8690  222.4460 C   0  0  0  0  0  0  0  0  0  0  0  0
  138.2610   70.8860  221.6340 N   0  0  0  0  0  0  0  0  0  0  0  0
  139.4940   74.2790  221.2850 N   0  0  0  0  0  0  0  0  0  0  0  0
  139.2550   75.6860  221.5670 C   0  0  0  0  0  0  0  0  0  0  0  0
  140.5460   76.3710  221.2580 C   0  0  1  0  0  0  0  0  0  0  0  0
  140.3690   77.4280  220.1910 C   0  0  0  0  0  0  0  0  0  0  0  0
  141.4460   78.4240  220.5200 C   0  0  0  0  0  0  0  0  0  0  0  0
  141.8250   78.2460  221.8850 N   0  0  0  0  0  0  0  0  0  0  0  0
  141.6060   79.4870  222.6640 C   0  0  0  0  0  0  0  0  0  0  0  0
  140.2530   79.5060  223.2940 C   0  0  0  0  0  0  0  0  0  0  0  0
  139.6050   80.8190  223.4720 C   0  0  0  0  0  0  0  0  0  0  0  0
  139.8300   81.8030  222.3670 C   0  0  0  0  0  0  0  0  0  0  0  0
  141.3420   81.9250  222.2030 C   0  0  0  0  0  0  0  0  0  0  0  0
  141.8320   80.6060  221.6850 C   0  0  0  0  0  0  0  0  0  0  0  0
  141.0650   77.1730  222.4310 C   0  0  0  0  0  0  0  0  0  0  0  0
  141.4480   75.2910  220.8570 C   0  0  0  0  0  0  0  0  0  0  0  0
  142.7750   75.3340  220.4680 C   0  0  0  0  0  0  0  0  0  0  0  0
  143.4770   74.1980  220.1150 C   0  0  0  0  0  0  0  0  0  0  0  0
  142.8250   72.9870  220.1560 C   0  0  0  0  0  0  0  0  0  0  0  0
  141.5070   72.9040  220.5400 C   0  0  0  0  0  0  0  0  0  0  0  0
  140.8330   74.0570  220.8850 C   0  0  0  0  0  0  0  0  0  0  0  0
  139.4940   72.5036  224.1852 H   0  0  0  0  0  0  0  0  0  0  0  0
  140.4935   71.9337  225.2407 H   0  0  0  0  0  0  0  0  0  0  0  0
  141.5300   72.5962  227.4108 H   0  0  0  0  0  0  0  0  0  0  0  0
  141.5537   70.9396  229.3040 H   0  0  0  0  0  0  0  0  0  0  0  0
  140.5489   68.6718  228.9774 H   0  0  0  0  0  0  0  0  0  0  0  0
  139.5307   68.0586  226.7891 H   0  0  0  0  0  0  0  0  0  0  0  0
  139.5172   67.4968  225.2452 H   0  0  0  0  0  0  0  0  0  0  0  0
  138.5584   66.5730  223.2007 H   0  0  0  0  0  0  0  0  0  0  0  0
  137.9006   68.0931  221.3539 H   0  0  0  0  0  0  0  0  0  0  0  0
  137.8420   70.7630  220.6790 H   0  0  0  0  0  0  0  0  0  0  0  0
  138.4487   76.0760  220.9285 H   0  0  0  0  0  0  0  0  0  0  0  0
  138.9413   75.8495  222.6086 H   0  0  0  0  0  0  0  0  0  0  0  0
  140.5158   77.0043  219.1865 H   0  0  0  0  0  0  0  0  0  0  0  0
  139.3608   77.8677  220.1793 H   0  0  0  0  0  0  0  0  0  0  0  0
  142.3166   78.2582  219.8684 H   0  0  0  0  0  0  0  0  0  0  0  0
  141.0745   79.4473  220.3620 H   0  0  0  0  0  0  0  0  0  0  0  0
  142.2940   79.5784  223.5174 H   0  0  0  0  0  0  0  0  0  0  0  0
  139.5888   78.8926  222.6675 H   0  0  0  0  0  0  0  0  0  0  0  0
  140.4133   79.1309  224.3156 H   0  0  0  0  0  0  0  0  0  0  0  0
  138.5214   80.6528  223.5625 H   0  0  0  0  0  0  0  0  0  0  0  0
  140.0617   81.2623  224.3692 H   0  0  0  0  0  0  0  0  0  0  0  0
  139.3739   81.4392  221.4344 H   0  0  0  0  0  0  0  0  0  0  0  0
  139.3734   82.7764  222.5995 H   0  0  0  0  0  0  0  0  0  0  0  0
  141.5814   82.7251  221.4871 H   0  0  0  0  0  0  0  0  0  0  0  0
  141.8228   82.1752  223.1602 H   0  0  0  0  0  0  0  0  0  0  0  0
  141.2984   80.3724  220.7519 H   0  0  0  0  0  0  0  0  0  0  0  0
  142.9158   80.6924  221.5181 H   0  0  0  0  0  0  0  0  0  0  0  0
  141.7018   76.5431  223.0695 H   0  0  0  0  0  0  0  0  0  0  0  0
  140.2383   77.5480  223.0523 H   0  0  0  0  0  0  0  0  0  0  0  0
  143.2887   76.3063  220.4388 H   0  0  0  0  0  0  0  0  0  0  0  0
  144.5316   74.2599  219.8086 H   0  0  0  0  0  0  0  0  0  0  0  0
  143.3664   72.0709  219.8773 H   0  0  0  0  0  0  0  0  0  0  0  0
  140.9966   71.9301  220.5716 H   0  0  0  0  0  0  0  0  0  0  0  0
  1  2  2  0
  2  3  1  0
  3  4  2  0
  4  5  1  0
  5  6  2  0
  6  7  1  0
  7  8  2  0
  8  9  1  0
  9 10  2  0
 10 11  1  0
 11 12  2  0
  6 13  1  0
 13 14  2  0
 14 15  1  0
 15 16  2  0
 16 17  1  0
  2 18  1  0
 18 19  1  0
 20 19  1  1
 20 21  1  0
 21 22  1  0
 22 23  1  0
 23 24  1  0
 24 25  1  0
 25 26  1  0
 26 27  1  0
 27 28  1  0
 28 29  1  0
 23 30  1  0
 20 31  1  0
 31 32  2  0
 32 33  1  0
 33 34  2  0
 34 35  1  0
 35 36  2  0
 17  3  1  0
 36 18  1  0
 16  5  1  0
 30 20  1  0
 36 31  1  0
 12  7  1  0
 29 24  1  0
  4 37  1  0
  8 38  1  0
  9 39  1  0
 10 40  1  0
 11 41  1  0
 12 42  1  0
 13 43  1  0
 14 44  1  0
 15 45  1  0
 17 46  1  0
 19 47  1  0
 19 48  1  0
 21 49  1  0
 21 50  1  0
 22 51  1  0
 22 52  1  0
 24 53  1  0
 25 54  1  0
 25 55  1  0
 26 56  1  0
 26 57  1  0
 27 58  1  0
 27 59  1  0
 28 60  1  0
 28 61  1  0
 29 62  1  0
 29 63  1  0
 30 64  1  0
 30 65  1  0
 32 66  1  0
 33 67  1  0
 34 68  1  0
 35 69  1  0
M  END
>  <smiles>  (19) 
O=C(c1cc2c(-c3ccccc3)cccc2[nH]1)N1C[C@]2(CCN(C3CCCCC3)C2)c2ccccc21

>  <score_type>  (19) 
oracle

>  <origin>  (19) 
autodockgpu

>  <m_score__min__energy>  (19) 
-10.609999999999999

>  <m_primary>  (19) 
energy

>  <rmsd>  (19) 
2.2693144615572898

>  <m_score__min__rmsd>  (19) 
2.2693144615572898

>  <meeko>  (19) 
{"free_energy": -10.09, "intermolecular_energy": -11.28, "internal_energy": -1.85, "cluster_size": 42, "cluster_id": 1, "rank_in_cluster": 42}

>  <energy>  (19) 
-10.47

>  <cluster_rmsd>  (19) 
0.16

>  <cluster>  (19) 
1

$$$$

     RDKit          3D

 69 75  0  0  0  0  0  0  0  0999 V2000
  141.5490   75.3770  220.0590 O   0  0  0  0  0  0  0  0  0  0  0  0
  140.7860   75.5040  221.0680 C   0  0  0  0  0  0  0  0  0  0  0  0
  140.7210   76.8410  221.6340 C   0  0  0  0  0  0  0  0  0  0  0  0
  139.7220   77.5490  222.2310 C   0  0  0  0  0  0  0  0  0  0  0  0
  140.2360   78.7950  222.5480 C   0  0  0  0  0  0  0  0  0  0  0  0
  139.7040   79.9110  223.1440 C   0  0  0  0  0  0  0  0  0  0  0  0
  138.3590   80.0230  223.6680 C   0  0  0  0  0  0  0  0  0  0  0  0
  137.3080   79.3240  223.0880 C   0  0  0  0  0  0  0  0  0  0  0  0
  135.9970   79.4730  223.5400 C   0  0  0  0  0  0  0  0  0  0  0  0
  135.7540   80.3490  224.6050 C   0  0  0  0  0  0  0  0  0  0  0  0
  136.8190   81.0490  225.1870 C   0  0  0  0  0  0  0  0  0  0  0  0
  138.1170   80.8770  224.7080 C   0  0  0  0  0  0  0  0  0  0  0  0
  140.5210   81.0320  223.3080 C   0  0  0  0  0  0  0  0  0  0  0  0
  141.8170   81.0610  222.9040 C   0  0  0  0  0  0  0  0  0  0  0  0
  142.3590   79.9580  222.3080 C   0  0  0  0  0  0  0  0  0  0  0  0
  141.5580   78.8280  222.1360 C   0  0  0  0  0  0  0  0  0  0  0  0
  141.8210   77.6470  221.5950 N   0  0  0  0  0  0  0  0  0  0  0  0
  140.0580   74.3760  221.5960 N   0  0  0  0  0  0  0  0  0  0  0  0
  140.7730   73.1980  222.0630 C   0  0  0  0  0  0  0  0  0  0  0  0
  139.7100   72.2570  222.5320 C   0  0  1  0  0  0  0  0  0  0  0  0
  139.7610   70.9470  221.7800 C   0  0  0  0  0  0  0  0  0  0  0  0
  139.2160   69.9640  222.7780 C   0  0  0  0  0  0  0  0  0  0  0  0
  139.3490   70.5250  224.0840 N   0  0  0  0  0  0  0  0  0  0  0  0
  140.1870   69.6620  224.9510 C   0  0  0  0  0  0  0  0  0  0  0  0
  139.4920   68.3850  225.2870 C   0  0  0  0  0  0  0  0  0  0  0  0
  139.7890   67.7740  226.5950 C   0  0  0  0  0  0  0  0  0  0  0  0
  139.9800   68.7350  227.7260 C   0  0  0  0  0  0  0  0  0  0  0  0
  141.0700   69.7050  227.2840 C   0  0  0  0  0  0  0  0  0  0  0  0
  140.5050   70.5100  226.1520 C   0  0  0  0  0  0  0  0  0  0  0  0
  139.9230   71.8220  223.9650 C   0  0  0  0  0  0  0  0  0  0  0  0
  138.4600   72.9900  222.3350 C   0  0  0  0  0  0  0  0  0  0  0  0
  137.1540   72.6150  222.6020 C   0  0  0  0  0  0  0  0  0  0  0  0
  136.0810   73.4460  222.3440 C   0  0  0  0  0  0  0  0  0  0  0  0
  136.3300   74.6870  221.8040 C   0  0  0  0  0  0  0  0  0  0  0  0
  137.6140   75.0960  221.5280 C   0  0  0  0  0  0  0  0  0  0  0  0
  138.6640   74.2420  221.7960 C   0  0  0  0  0  0  0  0  0  0  0  0
  138.6982   77.1967  222.4250 H   0  0  0  0  0  0  0  0  0  0  0  0
  137.5143   78.6376  222.2536 H   0  0  0  0  0  0  0  0  0  0  0  0
  135.1731   78.9153  223.0708 H   0  0  0  0  0  0  0  0  0  0  0  0
  134.7304   80.4871  224.9834 H   0  0  0  0  0  0  0  0  0  0  0  0
  136.6304   81.7366  226.0247 H   0  0  0  0  0  0  0  0  0  0  0  0
  138.9490   81.4301  225.1682 H   0  0  0  0  0  0  0  0  0  0  0  0
  140.0969   81.9284  223.7841 H   0  0  0  0  0  0  0  0  0  0  0  0
  142.4252   81.9650  223.0554 H   0  0  0  0  0  0  0  0  0  0  0  0
  143.4059   79.9602  221.9703 H   0  0  0  0  0  0  0  0  0  0  0  0
  142.7600   77.3970  221.1960 H   0  0  0  0  0  0  0  0  0  0  0  0
  141.3527   72.7481  221.2435 H   0  0  0  0  0  0  0  0  0  0  0  0
  141.4897   73.4407  222.8614 H   0  0  0  0  0  0  0  0  0  0  0  0
  139.1328   70.9841  220.8778 H   0  0  0  0  0  0  0  0  0  0  0  0
  140.7696   70.6900  221.4241 H   0  0  0  0  0  0  0  0  0  0  0  0
  138.1549   69.7679  222.5645 H   0  0  0  0  0  0  0  0  0  0  0  0
  139.7712   69.0164  222.7161 H   0  0  0  0  0  0  0  0  0  0  0  0
  141.1127   69.3344  224.4552 H   0  0  0  0  0  0  0  0  0  0  0  0
  138.4099   68.5794  225.2519 H   0  0  0  0  0  0  0  0  0  0  0  0
  139.8633   67.6602  224.5476 H   0  0  0  0  0  0  0  0  0  0  0  0
  138.9542   67.1065  226.8547 H   0  0  0  0  0  0  0  0  0  0  0  0
  140.7510   67.2543  226.4743 H   0  0  0  0  0  0  0  0  0  0  0  0
  139.0448   69.2785  227.9261 H   0  0  0  0  0  0  0  0  0  0  0  0
  140.2617   68.2119  228.6518 H   0  0  0  0  0  0  0  0  0  0  0  0
  141.3475   70.3672  228.1173 H   0  0  0  0  0  0  0  0  0  0  0  0
  141.9742   69.1636  226.9688 H   0  0  0  0  0  0  0  0  0  0  0  0
  139.5814   71.0004  226.4932 H   0  0  0  0  0  0  0  0  0  0  0  0
  141.2642   71.2472  225.8517 H   0  0  0  0  0  0  0  0  0  0  0  0
  139.4256   72.5221  224.6524 H   0  0  0  0  0  0  0  0  0  0  0  0
  140.9926   71.8083  224.2214 H   0  0  0  0  0  0  0  0  0  0  0  0
  136.9645   71.6214  223.0343 H   0  0  0  0  0  0  0  0  0  0  0  0
  135.0527   73.1236  222.5648 H   0  0  0  0  0  0  0  0  0  0  0  0
  135.4889   75.3627  221.5897 H   0  0  0  0  0  0  0  0  0  0  0  0
  137.8013   76.0914  221.0990 H   0  0  0  0  0  0  0  0  0  0  0  0
  1  2  2  0
  2  3  1  0
  3  4  2  0
  4  5  1  0
  5  6  2  0
  6  7  1  0
  7  8  2  0
  8  9  1  0
  9 10  2  0
 10 11  1  0
 11 12  2  0
  6 13  1  0
 13 14  2  0
 14 15  1  0
 15 16  2  0
 16 17  1  0
  2 18  1  0
 18 19  1  0
 20 19  1  6
 20 21  1  0
 21 22  1  0
 22 23  1  0
 23 24  1  0
 24 25  1  0
 25 26  1  0
 26 27  1  0
 27 28  1  0
 28 29  1  0
 23 30  1  0
 20 31  1  0
 31 32  2  0
 32 33  1  0
 33 34  2  0
 34 35  1  0
 35 36  2  0
 17  3  1  0
 36 18  1  0
 16  5  1  0
 30 20  1  0
 36 31  1  0
 12  7  1  0
 29 24  1  0
  4 37  1  0
  8 38  1  0
  9 39  1  0
 10 40  1  0
 11 41  1  0
 12 42  1  0
 13 43  1  0
 14 44  1  0
 15 45  1  0
 17 46  1  0
 19 47  1  0
 19 48  1  0
 21 49  1  0
 21 50  1  0
 22 51  1  0
 22 52  1  0
 24 53  1  0
 25 54  1  0
 25 55  1  0
 26 56  1  0
 26 57  1  0
 27 58  1  0
 27 59  1  0
 28 60  1  0
 28 61  1  0
 29 62  1  0
 29 63  1  0
 30 64  1  0
 30 65  1  0
 32 66  1  0
 33 67  1  0
 34 68  1  0
 35 69  1  0
M  END
>  <smiles>  (20) 
O=C(c1cc2c(-c3ccccc3)cccc2[nH]1)N1C[C@]2(CCN(C3CCCCC3)C2)c2ccccc21

>  <score_type>  (20) 
oracle

>  <origin>  (20) 
autodockgpu

>  <m_score__min__energy>  (20) 
-10.609999999999999

>  <m_primary>  (20) 
energy

>  <rmsd>  (20) 
10.563107442364112

>  <m_score__min__rmsd>  (20) 
10.563107442364112

>  <meeko>  (20) 
{"free_energy": -10.01, "intermolecular_energy": -11.2, "internal_energy": -1.93, "cluster_size": 1, "cluster_id": 4, "rank_in_cluster": 1}

>  <energy>  (20) 
-10.46

>  <cluster_rmsd>  (20) 
0.98

>  <cluster>  (20) 
1

$$$$

     RDKit          3D

 69 75  0  0  0  0  0  0  0  0999 V2000
  140.6580   70.7960  219.4140 O   0  0  0  0  0  0  0  0  0  0  0  0
  140.7090   71.5530  220.4340 C   0  0  0  0  0  0  0  0  0  0  0  0
  140.0320   71.0480  221.6160 C   0  0  0  0  0  0  0  0  0  0  0  0
  140.2970   71.1420  222.9500 C   0  0  0  0  0  0  0  0  0  0  0  0
  139.3100   70.4320  223.6140 C   0  0  0  0  0  0  0  0  0  0  0  0
  139.0660   70.1730  224.9400 C   0  0  0  0  0  0  0  0  0  0  0  0
  139.8430   70.6780  226.0510 C   0  0  0  0  0  0  0  0  0  0  0  0
  140.6810   71.7750  225.8950 C   0  0  0  0  0  0  0  0  0  0  0  0
  141.4860   72.2320  226.9380 C   0  0  0  0  0  0  0  0  0  0  0  0
  141.4330   71.5580  228.1650 C   0  0  0  0  0  0  0  0  0  0  0  0
  140.5840   70.4540  228.3170 C   0  0  0  0  0  0  0  0  0  0  0  0
  139.7950   70.0240  227.2510 C   0  0  0  0  0  0  0  0  0  0  0  0
  137.9550   69.3950  225.2720 C   0  0  0  0  0  0  0  0  0  0  0  0
  137.1100   68.8860  224.3380 C   0  0  0  0  0  0  0  0  0  0  0  0
  137.3420   69.1350  223.0160 C   0  0  0  0  0  0  0  0  0  0  0  0
  138.4470   69.9130  222.6650 C   0  0  0  0  0  0  0  0  0  0  0  0
  138.9010   70.2970  221.4810 N   0  0  0  0  0  0  0  0  0  0  0  0
  141.3900   72.8240  220.3840 N   0  0  0  0  0  0  0  0  0  0  0  0
  140.6280   74.0590  220.3000 C   0  0  0  0  0  0  0  0  0  0  0  0
  141.6510   75.1480  220.2710 C   0  0  1  0  0  0  0  0  0  0  0  0
  141.5330   75.9840  219.0170 C   0  0  0  0  0  0  0  0  0  0  0  0
  142.0430   77.3270  219.4570 C   0  0  0  0  0  0  0  0  0  0  0  0
  141.9500   77.4020  220.8800 N   0  0  0  0  0  0  0  0  0  0  0  0
  141.0830   78.5290  221.2980 C   0  0  0  0  0  0  0  0  0  0  0  0
  141.6880   79.8460  220.9410 C   0  0  0  0  0  0  0  0  0  0  0  0
  141.3990   80.9890  221.8260 C   0  0  0  0  0  0  0  0  0  0  0  0
  141.3310   80.6710  223.2870 C   0  0  0  0  0  0  0  0  0  0  0  0
  140.3040   79.5540  223.4350 C   0  0  0  0  0  0  0  0  0  0  0  0
  140.8830   78.3380  222.7770 C   0  0  0  0  0  0  0  0  0  0  0  0
  141.4340   76.1680  221.3670 C   0  0  0  0  0  0  0  0  0  0  0  0
  142.9320   74.4490  220.3820 C   0  0  0  0  0  0  0  0  0  0  0  0
  144.2220   74.9510  220.4150 C   0  0  0  0  0  0  0  0  0  0  0  0
  145.3290   74.1310  220.5210 C   0  0  0  0  0  0  0  0  0  0  0  0
  145.1300   72.7720  220.5960 C   0  0  0  0  0  0  0  0  0  0  0  0
  143.8640   72.2370  220.5690 C   0  0  0  0  0  0  0  0  0  0  0  0
  142.7790   73.0820  220.4610 C   0  0  0  0  0  0  0  0  0  0  0  0
  141.1372   71.6807  223.4125 H   0  0  0  0  0  0  0  0  0  0  0  0
  140.7102   72.2952  224.9262 H   0  0  0  0  0  0  0  0  0  0  0  0
  142.1466   73.1007  226.8006 H   0  0  0  0  0  0  0  0  0  0  0  0
  142.0562   71.8946  229.0066 H   0  0  0  0  0  0  0  0  0  0  0  0
  140.5398   69.9248  229.2803 H   0  0  0  0  0  0  0  0  0  0  0  0
  139.1315   69.1555  227.3757 H   0  0  0  0  0  0  0  0  0  0  0  0
  137.7559   69.1857  226.3334 H   0  0  0  0  0  0  0  0  0  0  0  0
  136.2459   68.2782  224.6445 H   0  0  0  0  0  0  0  0  0  0  0  0
  136.6719   68.7309  222.2429 H   0  0  0  0  0  0  0  0  0  0  0  0
  138.4320   70.0390  220.5770 H   0  0  0  0  0  0  0  0  0  0  0  0
  140.0202   74.0759  219.3833 H   0  0  0  0  0  0  0  0  0  0  0  0
  139.9314   74.1710  221.1439 H   0  0  0  0  0  0  0  0  0  0  0  0
  142.1528   75.5717  218.2072 H   0  0  0  0  0  0  0  0  0  0  0  0
  140.5100   76.0194  218.6143 H   0  0  0  0  0  0  0  0  0  0  0  0
  143.0916   77.4457  219.1468 H   0  0  0  0  0  0  0  0  0  0  0  0
  141.4444   78.1271  218.9971 H   0  0  0  0  0  0  0  0  0  0  0  0
  140.1145   78.5347  220.7764 H   0  0  0  0  0  0  0  0  0  0  0  0
  142.7797   79.7126  220.9206 H   0  0  0  0  0  0  0  0  0  0  0  0
  141.2292   80.1138  219.9778 H   0  0  0  0  0  0  0  0  0  0  0  0
  142.1893   81.7399  221.6789 H   0  0  0  0  0  0  0  0  0  0  0  0
  140.3952   81.3415  221.5464 H   0  0  0  0  0  0  0  0  0  0  0  0
  142.3137   80.3353  223.6498 H   0  0  0  0  0  0  0  0  0  0  0  0
  141.0468   81.5557  223.8757 H   0  0  0  0  0  0  0  0  0  0  0  0
  140.1144   79.3535  224.4998 H   0  0  0  0  0  0  0  0  0  0  0  0
  139.3478   79.8351  222.9696 H   0  0  0  0  0  0  0  0  0  0  0  0
  141.8558   78.1150  223.2395 H   0  0  0  0  0  0  0  0  0  0  0  0
  140.1725   77.5099  222.9161 H   0  0  0  0  0  0  0  0  0  0  0  0
  141.9699   75.8656  222.2788 H   0  0  0  0  0  0  0  0  0  0  0  0
  140.3677   76.2563  221.6222 H   0  0  0  0  0  0  0  0  0  0  0  0
  144.3705   76.0393  220.3548 H   0  0  0  0  0  0  0  0  0  0  0  0
  146.3440   74.5543  220.5448 H   0  0  0  0  0  0  0  0  0  0  0  0
  145.9985   72.1021  220.6790 H   0  0  0  0  0  0  0  0  0  0  0  0
  143.7180   71.1486  220.6327 H   0  0  0  0  0  0  0  0  0  0  0  0
  1  2  2  0
  2  3  1  0
  3  4  2  0
  4  5  1  0
  5  6  2  0
  6  7  1  0
  7  8  2  0
  8  9  1  0
  9 10  2  0
 10 11  1  0
 11 12  2  0
  6 13  1  0
 13 14  2  0
 14 15  1  0
 15 16  2  0
 16 17  1  0
  2 18  1  0
 18 19  1  0
 20 19  1  6
 20 21  1  0
 21 22  1  0
 22 23  1  0
 23 24  1  0
 24 25  1  0
 25 26  1  0
 26 27  1  0
 27 28  1  0
 28 29  1  0
 23 30  1  0
 20 31  1  0
 31 32  2  0
 32 33  1  0
 33 34  2  0
 34 35  1  0
 35 36  2  0
 17  3  1  0
 36 18  1  0
 16  5  1  0
 30 20  1  0
 36 31  1  0
 12  7  1  0
 29 24  1  0
  4 37  1  0
  8 38  1  0
  9 39  1  0
 10 40  1  0
 11 41  1  0
 12 42  1  0
 13 43  1  0
 14 44  1  0
 15 45  1  0
 17 46  1  0
 19 47  1  0
 19 48  1  0
 21 49  1  0
 21 50  1  0
 22 51  1  0
 22 52  1  0
 24 53  1  0
 25 54  1  0
 25 55  1  0
 26 56  1  0
 26 57  1  0
 27 58  1  0
 27 59  1  0
 28 60  1  0
 28 61  1  0
 29 62  1  0
 29 63  1  0
 30 64  1  0
 30 65  1  0
 32 66  1  0
 33 67  1  0
 34 68  1  0
 35 69  1  0
M  END
>  <smiles>  (21) 
O=C(c1cc2c(-c3ccccc3)cccc2[nH]1)N1C[C@]2(CCN(C3CCCCC3)C2)c2ccccc21

>  <score_type>  (21) 
oracle

>  <origin>  (21) 
autodockgpu

>  <m_score__min__energy>  (21) 
-10.609999999999999

>  <m_primary>  (21) 
energy

>  <rmsd>  (21) 
3.1444358806496493

>  <m_score__min__rmsd>  (21) 
3.1444358806496493

>  <meeko>  (21) 
{"free_energy": -10.49, "intermolecular_energy": -11.68, "internal_energy": -1.78, "cluster_size": 42, "cluster_id": 1, "rank_in_cluster": 17}

>  <energy>  (21) 
-10.42

>  <cluster_rmsd>  (21) 
0.58

>  <cluster>  (21) 
1

$$$$

     RDKit          3D

 69 75  0  0  0  0  0  0  0  0999 V2000
  137.9700   73.0340  220.1800 O   0  0  0  0  0  0  0  0  0  0  0  0
  139.0290   72.9890  220.8820 C   0  0  0  0  0  0  0  0  0  0  0  0
  139.0870   71.9090  221.8520 C   0  0  0  0  0  0  0  0  0  0  0  0
  139.4910   71.8490  223.1520 C   0  0  0  0  0  0  0  0  0  0  0  0
  139.3470   70.5340  223.5640 C   0  0  0  0  0  0  0  0  0  0  0  0
  139.5980   69.8860  224.7470 C   0  0  0  0  0  0  0  0  0  0  0  0
  140.0740   70.5090  225.9640 C   0  0  0  0  0  0  0  0  0  0  0  0
  140.9230   71.6070  225.9160 C   0  0  0  0  0  0  0  0  0  0  0  0
  141.4430   72.1780  227.0770 C   0  0  0  0  0  0  0  0  0  0  0  0
  141.0880   71.6190  228.3110 C   0  0  0  0  0  0  0  0  0  0  0  0
  140.2290   70.5120  228.3530 C   0  0  0  0  0  0  0  0  0  0  0  0
  139.7300   69.9670  227.1710 C   0  0  0  0  0  0  0  0  0  0  0  0
  139.3400   68.5150  224.8220 C   0  0  0  0  0  0  0  0  0  0  0  0
  138.8510   67.8020  223.7740 C   0  0  0  0  0  0  0  0  0  0  0  0
  138.5980   68.4350  222.5910 C   0  0  0  0  0  0  0  0  0  0  0  0
  138.8490   69.8060  222.4980 C   0  0  0  0  0  0  0  0  0  0  0  0
  138.7030   70.6520  221.4890 N   0  0  0  0  0  0  0  0  0  0  0  0
  140.0760   73.9660  220.7080 N   0  0  0  0  0  0  0  0  0  0  0  0
  139.7510   75.3810  220.6300 C   0  0  0  0  0  0  0  0  0  0  0  0
  141.0630   76.0750  220.4560 C   0  0  1  0  0  0  0  0  0  0  0  0
  141.0970   76.8810  219.1780 C   0  0  0  0  0  0  0  0  0  0  0  0
  142.0560   77.9920  219.5040 C   0  0  0  0  0  0  0  0  0  0  0  0
  142.1340   78.1180  220.9230 N   0  0  0  0  0  0  0  0  0  0  0  0
  141.7260   79.4740  221.3600 C   0  0  0  0  0  0  0  0  0  0  0  0
  142.5840   79.9720  222.4750 C   0  0  0  0  0  0  0  0  0  0  0  0
  141.9620   80.8750  223.4610 C   0  0  0  0  0  0  0  0  0  0  0  0
  140.5420   80.5630  223.8130 C   0  0  0  0  0  0  0  0  0  0  0  0
  139.7710   80.5290  222.4980 C   0  0  0  0  0  0  0  0  0  0  0  0
  140.2730   79.3430  221.7290 C   0  0  0  0  0  0  0  0  0  0  0  0
  141.2990   77.1300  221.5150 C   0  0  0  0  0  0  0  0  0  0  0  0
  142.0530   74.9990  220.4890 C   0  0  0  0  0  0  0  0  0  0  0  0
  143.4320   75.0510  220.3820 C   0  0  0  0  0  0  0  0  0  0  0  0
  144.2190   73.9170  220.4300 C   0  0  0  0  0  0  0  0  0  0  0  0
  143.6000   72.6980  220.5900 C   0  0  0  0  0  0  0  0  0  0  0  0
  142.2320   72.6060  220.7020 C   0  0  0  0  0  0  0  0  0  0  0  0
  141.4750   73.7580  220.6490 C   0  0  0  0  0  0  0  0  0  0  0  0
  139.8618   72.6872  223.7602 H   0  0  0  0  0  0  0  0  0  0  0  0
  141.1915   72.0362  224.9394 H   0  0  0  0  0  0  0  0  0  0  0  0
  142.1159   73.0466  227.0249 H   0  0  0  0  0  0  0  0  0  0  0  0
  141.4820   72.0473  229.2445 H   0  0  0  0  0  0  0  0  0  0  0  0
  139.9480   70.0722  229.3213 H   0  0  0  0  0  0  0  0  0  0  0  0
  139.0570   69.0977  227.2096 H   0  0  0  0  0  0  0  0  0  0  0  0
  139.5410   67.9914  225.7683 H   0  0  0  0  0  0  0  0  0  0  0  0
  138.6605   66.7236  223.8777 H   0  0  0  0  0  0  0  0  0  0  0  0
  138.2046   67.8767  221.7287 H   0  0  0  0  0  0  0  0  0  0  0  0
  138.3390   70.3610  220.5480 H   0  0  0  0  0  0  0  0  0  0  0  0
  139.0930   75.5789  219.7711 H   0  0  0  0  0  0  0  0  0  0  0  0
  139.2167   75.7302  221.5258 H   0  0  0  0  0  0  0  0  0  0  0  0
  141.4657   76.2744  218.3377 H   0  0  0  0  0  0  0  0  0  0  0  0
  140.1056   77.2417  218.8666 H   0  0  0  0  0  0  0  0  0  0  0  0
  143.0502   77.7559  219.0968 H   0  0  0  0  0  0  0  0  0  0  0  0
  141.7064   78.9355  219.0595 H   0  0  0  0  0  0  0  0  0  0  0  0
  141.8564   80.2297  220.5714 H   0  0  0  0  0  0  0  0  0  0  0  0
  142.9566   79.0933  223.0219 H   0  0  0  0  0  0  0  0  0  0  0  0
  143.3561   80.5823  221.9837 H   0  0  0  0  0  0  0  0  0  0  0  0
  142.5579   80.8306  224.3846 H   0  0  0  0  0  0  0  0  0  0  0  0
  141.9456   81.8698  222.9918 H   0  0  0  0  0  0  0  0  0  0  0  0
  140.4802   79.5866  224.3158 H   0  0  0  0  0  0  0  0  0  0  0  0
  140.1266   81.3150  224.4999 H   0  0  0  0  0  0  0  0  0  0  0  0
  138.6936   80.4244  222.6938 H   0  0  0  0  0  0  0  0  0  0  0  0
  139.9208   81.4588  221.9297 H   0  0  0  0  0  0  0  0  0  0  0  0
  140.1448   78.4414  222.3460 H   0  0  0  0  0  0  0  0  0  0  0  0
  139.6938   79.2776  220.7961 H   0  0  0  0  0  0  0  0  0  0  0  0
  141.7973   76.6858  222.3893 H   0  0  0  0  0  0  0  0  0  0  0  0
  140.3499   77.5664  221.8597 H   0  0  0  0  0  0  0  0  0  0  0  0
  143.9181   76.0295  220.2543 H   0  0  0  0  0  0  0  0  0  0  0  0
  145.3133   73.9863  220.3425 H   0  0  0  0  0  0  0  0  0  0  0  0
  144.2090   71.7828  220.6289 H   0  0  0  0  0  0  0  0  0  0  0  0
  141.7481   71.6267  220.8321 H   0  0  0  0  0  0  0  0  0  0  0  0
  1  2  2  0
  2  3  1  0
  3  4  2  0
  4  5  1  0
  5  6  2  0
  6  7  1  0
  7  8  2  0
  8  9  1  0
  9 10  2  0
 10 11  1  0
 11 12  2  0
  6 13  1  0
 13 14  2  0
 14 15  1  0
 15 16  2  0
 16 17  1  0
  2 18  1  0
 18 19  1  0
 20 19  1  1
 20 21  1  0
 21 22  1  0
 22 23  1  0
 23 24  1  0
 24 25  1  0
 25 26  1  0
 26 27  1  0
 27 28  1  0
 28 29  1  0
 23 30  1  0
 20 31  1  0
 31 32  2  0
 32 33  1  0
 33 34  2  0
 34 35  1  0
 35 36  2  0
 17  3  1  0
 36 18  1  0
 16  5  1  0
 30 20  1  0
 36 31  1  0
 12  7  1  0
 29 24  1  0
  4 37  1  0
  8 38  1  0
  9 39  1  0
 10 40  1  0
 11 41  1  0
 12 42  1  0
 13 43  1  0
 14 44  1  0
 15 45  1  0
 17 46  1  0
 19 47  1  0
 19 48  1  0
 21 49  1  0
 21 50  1  0
 22 51  1  0
 22 52  1  0
 24 53  1  0
 25 54  1  0
 25 55  1  0
 26 56  1  0
 26 57  1  0
 27 58  1  0
 27 59  1  0
 28 60  1  0
 28 61  1  0
 29 62  1  0
 29 63  1  0
 30 64  1  0
 30 65  1  0
 32 66  1  0
 33 67  1  0
 34 68  1  0
 35 69  1  0
M  END
>  <smiles>  (22) 
O=C(c1cc2c(-c3ccccc3)cccc2[nH]1)N1C[C@]2(CCN(C3CCCCC3)C2)c2ccccc21

>  <score_type>  (22) 
oracle

>  <origin>  (22) 
autodockgpu

>  <m_score__min__energy>  (22) 
-10.609999999999999

>  <m_primary>  (22) 
energy

>  <rmsd>  (22) 
2.9072761423841205

>  <m_score__min__rmsd>  (22) 
2.9072761423841205

>  <meeko>  (22) 
{"free_energy": -10.39, "intermolecular_energy": -11.58, "internal_energy": -1.92, "cluster_size": 42, "cluster_id": 1, "rank_in_cluster": 27}

>  <energy>  (22) 
-10.41

>  <cluster_rmsd>  (22) 
0.6

>  <cluster>  (22) 
1

$$$$

     RDKit          3D

 69 75  0  0  0  0  0  0  0  0999 V2000
  139.9380   74.5600  222.1060 O   0  0  0  0  0  0  0  0  0  0  0  0
  140.6010   73.4930  221.9150 C   0  0  0  0  0  0  0  0  0  0  0  0
  140.0690   72.3050  222.5610 C   0  0  0  0  0  0  0  0  0  0  0  0
  140.3430   71.6890  223.7450 C   0  0  0  0  0  0  0  0  0  0  0  0
  139.5350   70.5670  223.8200 C   0  0  0  0  0  0  0  0  0  0  0  0
  139.3810   69.5780  224.7590 C   0  0  0  0  0  0  0  0  0  0  0  0
  140.0700   69.5100  226.0300 C   0  0  0  0  0  0  0  0  0  0  0  0
  140.4080   68.2860  226.5920 C   0  0  0  0  0  0  0  0  0  0  0  0
  141.0120   68.2020  227.8460 C   0  0  0  0  0  0  0  0  0  0  0  0
  141.2780   69.3890  228.5390 C   0  0  0  0  0  0  0  0  0  0  0  0
  140.9370   70.6210  227.9650 C   0  0  0  0  0  0  0  0  0  0  0  0
  140.3320   70.6670  226.7100 C   0  0  0  0  0  0  0  0  0  0  0  0
  138.4560   68.5610  224.5090 C   0  0  0  0  0  0  0  0  0  0  0  0
  137.7060   68.5150  223.3780 C   0  0  0  0  0  0  0  0  0  0  0  0
  137.8500   69.4920  222.4350 C   0  0  0  0  0  0  0  0  0  0  0  0
  138.7690   70.5170  222.6680 C   0  0  0  0  0  0  0  0  0  0  0  0
  139.1080   71.5680  221.9350 N   0  0  0  0  0  0  0  0  0  0  0  0
  141.8020   73.4980  221.1140 N   0  0  0  0  0  0  0  0  0  0  0  0
  142.7330   72.3830  221.1860 C   0  0  0  0  0  0  0  0  0  0  0  0
  143.8330   72.7310  220.2350 C   0  0  1  0  0  0  0  0  0  0  0  0
  145.1700   72.7910  220.9370 C   0  0  0  0  0  0  0  0  0  0  0  0
  146.1390   72.4230  219.8480 C   0  0  0  0  0  0  0  0  0  0  0  0
  145.4270   71.7240  218.8260 N   0  0  0  0  0  0  0  0  0  0  0  0
  145.9830   70.3650  218.6260 C   0  0  0  0  0  0  0  0  0  0  0  0
  146.1550   70.0530  217.1760 C   0  0  0  0  0  0  0  0  0  0  0  0
  146.0010   68.6470  216.7610 C   0  0  0  0  0  0  0  0  0  0  0  0
  144.9360   67.8770  217.4770 C   0  0  0  0  0  0  0  0  0  0  0  0
  145.2410   68.0070  218.9650 C   0  0  0  0  0  0  0  0  0  0  0  0
  145.0240   69.4450  219.3310 C   0  0  0  0  0  0  0  0  0  0  0  0
  144.0550   71.6540  219.1970 C   0  0  0  0  0  0  0  0  0  0  0  0
  143.4240   74.0110  219.6560 C   0  0  0  0  0  0  0  0  0  0  0  0
  144.0530   74.8040  218.7120 C   0  0  0  0  0  0  0  0  0  0  0  0
  143.5160   76.0010  218.2800 C   0  0  0  0  0  0  0  0  0  0  0  0
  142.3150   76.4100  218.8130 C   0  0  0  0  0  0  0  0  0  0  0  0
  141.6600   75.6480  219.7520 C   0  0  0  0  0  0  0  0  0  0  0  0
  142.2230   74.4580  220.1640 C   0  0  0  0  0  0  0  0  0  0  0  0
  141.0704   72.0211  224.5004 H   0  0  0  0  0  0  0  0  0  0  0  0
  140.1944   67.3616  226.0353 H   0  0  0  0  0  0  0  0  0  0  0  0
  141.2734   67.2259  228.2806 H   0  0  0  0  0  0  0  0  0  0  0  0
  141.7530   69.3547  229.5306 H   0  0  0  0  0  0  0  0  0  0  0  0
  141.1474   71.5550  228.5066 H   0  0  0  0  0  0  0  0  0  0  0  0
  140.0646   71.6369  226.2654 H   0  0  0  0  0  0  0  0  0  0  0  0
  138.3303   67.7657  225.2585 H   0  0  0  0  0  0  0  0  0  0  0  0
  136.9876   67.6966  223.2226 H   0  0  0  0  0  0  0  0  0  0  0  0
  137.2541   69.4719  221.5106 H   0  0  0  0  0  0  0  0  0  0  0  0
  138.6760   71.7750  221.0000 H   0  0  0  0  0  0  0  0  0  0  0  0
  143.1261   72.2736  222.2075 H   0  0  0  0  0  0  0  0  0  0  0  0
  142.2523   71.4278  220.9280 H   0  0  0  0  0  0  0  0  0  0  0  0
  145.3707   73.8025  221.3199 H   0  0  0  0  0  0  0  0  0  0  0  0
  145.2301   72.1290  221.8134 H   0  0  0  0  0  0  0  0  0  0  0  0
  146.5902   73.3345  219.4290 H   0  0  0  0  0  0  0  0  0  0  0  0
  146.9385   71.7858  220.2540 H   0  0  0  0  0  0  0  0  0  0  0  0
  146.9959   70.2560  219.0408 H   0  0  0  0  0  0  0  0  0  0  0  0
  145.4115   70.6440  216.6210 H   0  0  0  0  0  0  0  0  0  0  0  0
  147.2055   70.2966  216.9589 H   0  0  0  0  0  0  0  0  0  0  0  0
  145.7641   68.6347  215.6869 H   0  0  0  0  0  0  0  0  0  0  0  0
  146.9512   68.1524  217.0111 H   0  0  0  0  0  0  0  0  0  0  0  0
  143.9451   68.2990  217.2530 H   0  0  0  0  0  0  0  0  0  0  0  0
  144.9243   66.8232  217.1619 H   0  0  0  0  0  0  0  0  0  0  0  0
  144.5658   67.3626  219.5471 H   0  0  0  0  0  0  0  0  0  0  0  0
  146.2735   67.6970  219.1835 H   0  0  0  0  0  0  0  0  0  0  0  0
  143.9968   69.7283  219.0580 H   0  0  0  0  0  0  0  0  0  0  0  0
  145.1948   69.5461  220.4129 H   0  0  0  0  0  0  0  0  0  0  0  0
  143.4151   71.8338  218.3205 H   0  0  0  0  0  0  0  0  0  0  0  0
  143.8019   70.6605  219.5956 H   0  0  0  0  0  0  0  0  0  0  0  0
  145.0129   74.4697  218.2916 H   0  0  0  0  0  0  0  0  0  0  0  0
  144.0359   76.6127  217.5279 H   0  0  0  0  0  0  0  0  0  0  0  0
  141.8720   77.3612  218.4829 H   0  0  0  0  0  0  0  0  0  0  0  0
  140.6991   75.9833  220.1693 H   0  0  0  0  0  0  0  0  0  0  0  0
  1  2  2  0
  2  3  1  0
  3  4  2  0
  4  5  1  0
  5  6  2  0
  6  7  1  0
  7  8  2  0
  8  9  1  0
  9 10  2  0
 10 11  1  0
 11 12  2  0
  6 13  1  0
 13 14  2  0
 14 15  1  0
 15 16  2  0
 16 17  1  0
  2 18  1  0
 18 19  1  0
 20 19  1  1
 20 21  1  0
 21 22  1  0
 22 23  1  0
 23 24  1  0
 24 25  1  0
 25 26  1  0
 26 27  1  0
 27 28  1  0
 28 29  1  0
 23 30  1  0
 20 31  1  0
 31 32  2  0
 32 33  1  0
 33 34  2  0
 34 35  1  0
 35 36  2  0
 17  3  1  0
 36 18  1  0
 16  5  1  0
 30 20  1  0
 36 31  1  0
 12  7  1  0
 29 24  1  0
  4 37  1  0
  8 38  1  0
  9 39  1  0
 10 40  1  0
 11 41  1  0
 12 42  1  0
 13 43  1  0
 14 44  1  0
 15 45  1  0
 17 46  1  0
 19 47  1  0
 19 48  1  0
 21 49  1  0
 21 50  1  0
 22 51  1  0
 22 52  1  0
 24 53  1  0
 25 54  1  0
 25 55  1  0
 26 56  1  0
 26 57  1  0
 27 58  1  0
 27 59  1  0
 28 60  1  0
 28 61  1  0
 29 62  1  0
 29 63  1  0
 30 64  1  0
 30 65  1  0
 32 66  1  0
 33 67  1  0
 34 68  1  0
 35 69  1  0
M  END
>  <smiles>  (23) 
O=C(c1cc2c(-c3ccccc3)cccc2[nH]1)N1C[C@]2(CCN(C3CCCCC3)C2)c2ccccc21

>  <score_type>  (23) 
oracle

>  <origin>  (23) 
autodockgpu

>  <m_score__min__energy>  (23) 
-10.609999999999999

>  <m_primary>  (23) 
energy

>  <rmsd>  (23) 
7.7731837254050715

>  <m_score__min__rmsd>  (23) 
7.7731837254050715

>  <meeko>  (23) 
{"free_energy": -10.31, "intermolecular_energy": -11.5, "internal_energy": -1.66, "cluster_size": 6, "cluster_id": 2, "rank_in_cluster": 6}

>  <energy>  (23) 
-10.4

>  <cluster_rmsd>  (23) 
0.22

>  <cluster>  (23) 
1

$$$$

     RDKit          3D

 69 75  0  0  0  0  0  0  0  0999 V2000
  139.5740   74.5060  222.3090 O   0  0  0  0  0  0  0  0  0  0  0  0
  140.3310   73.5240  222.0320 C   0  0  0  0  0  0  0  0  0  0  0  0
  139.9300   72.2490  222.5990 C   0  0  0  0  0  0  0  0  0  0  0  0
  140.2070   71.6290  223.7810 C   0  0  0  0  0  0  0  0  0  0  0  0
  139.5620   70.4030  223.7610 C   0  0  0  0  0  0  0  0  0  0  0  0
  139.4860   69.3640  224.6550 C   0  0  0  0  0  0  0  0  0  0  0  0
  140.0890   69.3410  225.9710 C   0  0  0  0  0  0  0  0  0  0  0  0
  140.5360   68.1500  226.5280 C   0  0  0  0  0  0  0  0  0  0  0  0
  141.0580   68.1010  227.8200 C   0  0  0  0  0  0  0  0  0  0  0  0
  141.1270   69.2890  228.5570 C   0  0  0  0  0  0  0  0  0  0  0  0
  140.6770   70.4880  227.9880 C   0  0  0  0  0  0  0  0  0  0  0  0
  140.1590   70.4990  226.6940 C   0  0  0  0  0  0  0  0  0  0  0  0
  138.7340   68.2400  224.3060 C   0  0  0  0  0  0  0  0  0  0  0  0
  138.0770   68.1360  223.1220 C   0  0  0  0  0  0  0  0  0  0  0  0
  138.1460   69.1620  222.2230 C   0  0  0  0  0  0  0  0  0  0  0  0
  138.8920   70.2940  222.5550 C   0  0  0  0  0  0  0  0  0  0  0  0
  139.1280   71.4100  221.8820 N   0  0  0  0  0  0  0  0  0  0  0  0
  141.5070   73.7010  221.2140 N   0  0  0  0  0  0  0  0  0  0  0  0
  142.4270   72.5940  221.0070 C   0  0  0  0  0  0  0  0  0  0  0  0
  143.5010   73.1390  220.1230 C   0  0  1  0  0  0  0  0  0  0  0  0
  144.8600   73.0370  220.7770 C   0  0  0  0  0  0  0  0  0  0  0  0
  145.7920   72.9150  219.6030 C   0  0  0  0  0  0  0  0  0  0  0  0
  145.0420   72.4620  218.4760 N   0  0  0  0  0  0  0  0  0  0  0  0
  145.5750   71.1790  217.9620 C   0  0  0  0  0  0  0  0  0  0  0  0
  144.5840   70.4850  217.0880 C   0  0  0  0  0  0  0  0  0  0  0  0
  144.6040   69.0110  217.0750 C   0  0  0  0  0  0  0  0  0  0  0  0
  144.8890   68.3590  218.3920 C   0  0  0  0  0  0  0  0  0  0  0  0
  146.2060   68.9480  218.8860 C   0  0  0  0  0  0  0  0  0  0  0  0
  145.9510   70.3940  219.1900 C   0  0  0  0  0  0  0  0  0  0  0  0
  143.6800   72.3180  218.8650 C   0  0  0  0  0  0  0  0  0  0  0  0
  143.0900   74.5170  219.8540 C   0  0  0  0  0  0  0  0  0  0  0  0
  143.6980   75.4970  219.0880 C   0  0  0  0  0  0  0  0  0  0  0  0
  143.1620   76.7620  218.9490 C   0  0  0  0  0  0  0  0  0  0  0  0
  141.9830   77.0480  219.5980 C   0  0  0  0  0  0  0  0  0  0  0  0
  141.3480   76.1000  220.3660 C   0  0  0  0  0  0  0  0  0  0  0  0
  141.9100   74.8460  220.4860 C   0  0  0  0  0  0  0  0  0  0  0  0
  140.8267   72.0275  224.5978 H   0  0  0  0  0  0  0  0  0  0  0  0
  140.4769   67.2244  225.9366 H   0  0  0  0  0  0  0  0  0  0  0  0
  141.4075   67.1508  228.2501 H   0  0  0  0  0  0  0  0  0  0  0  0
  141.5330   69.2815  229.5793 H   0  0  0  0  0  0  0  0  0  0  0  0
  140.7327   71.4233  228.5643 H   0  0  0  0  0  0  0  0  0  0  0  0
  139.8053   71.4427  226.2531 H   0  0  0  0  0  0  0  0  0  0  0  0
  138.6713   67.4049  225.0192 H   0  0  0  0  0  0  0  0  0  0  0  0
  137.4940   67.2328  222.8889 H   0  0  0  0  0  0  0  0  0  0  0  0
  137.6241   69.0975  221.2568 H   0  0  0  0  0  0  0  0  0  0  0  0
  138.7360   71.5940  220.9250 H   0  0  0  0  0  0  0  0  0  0  0  0
  142.8494   72.2587  221.9658 H   0  0  0  0  0  0  0  0  0  0  0  0
  141.9279   71.7222  220.5588 H   0  0  0  0  0  0  0  0  0  0  0  0
  145.0834   73.9380  221.3672 H   0  0  0  0  0  0  0  0  0  0  0  0
  144.9395   72.1970  221.4828 H   0  0  0  0  0  0  0  0  0  0  0  0
  146.2401   73.8948  219.3813 H   0  0  0  0  0  0  0  0  0  0  0  0
  146.5967   72.2010  219.8325 H   0  0  0  0  0  0  0  0  0  0  0  0
  146.4500   71.3151  217.3094 H   0  0  0  0  0  0  0  0  0  0  0  0
  143.5810   70.7982  217.4135 H   0  0  0  0  0  0  0  0  0  0  0  0
  144.8588   70.7785  216.0641 H   0  0  0  0  0  0  0  0  0  0  0  0
  143.6197   68.6617  216.7298 H   0  0  0  0  0  0  0  0  0  0  0  0
  145.4334   68.7260  216.4110 H   0  0  0  0  0  0  0  0  0  0  0  0
  144.0823   68.5771  219.1073 H   0  0  0  0  0  0  0  0  0  0  0  0
  144.9535   67.2656  218.2908 H   0  0  0  0  0  0  0  0  0  0  0  0
  146.5376   68.4235  219.7943 H   0  0  0  0  0  0  0  0  0  0  0  0
  146.9948   68.8389  218.1271 H   0  0  0  0  0  0  0  0  0  0  0  0
  145.1299   70.4627  219.9187 H   0  0  0  0  0  0  0  0  0  0  0  0
  146.8814   70.8224  219.5910 H   0  0  0  0  0  0  0  0  0  0  0  0
  143.0169   72.6911  218.0706 H   0  0  0  0  0  0  0  0  0  0  0  0
  143.4271   71.2620  219.0410 H   0  0  0  0  0  0  0  0  0  0  0  0
  144.6403   75.2598  218.5725 H   0  0  0  0  0  0  0  0  0  0  0  0
  143.6655   77.5227  218.3343 H   0  0  0  0  0  0  0  0  0  0  0  0
  141.5412   78.0507  219.5011 H   0  0  0  0  0  0  0  0  0  0  0  0
  140.4041   76.3387  220.8779 H   0  0  0  0  0  0  0  0  0  0  0  0
  1  2  2  0
  2  3  1  0
  3  4  2  0
  4  5  1  0
  5  6  2  0
  6  7  1  0
  7  8  2  0
  8  9  1  0
  9 10  2  0
 10 11  1  0
 11 12  2  0
  6 13  1  0
 13 14  2  0
 14 15  1  0
 15 16  2  0
 16 17  1  0
  2 18  1  0
 18 19  1  0
 20 19  1  1
 20 21  1  0
 21 22  1  0
 22 23  1  0
 23 24  1  0
 24 25  1  0
 25 26  1  0
 26 27  1  0
 27 28  1  0
 28 29  1  0
 23 30  1  0
 20 31  1  0
 31 32  2  0
 32 33  1  0
 33 34  2  0
 34 35  1  0
 35 36  2  0
 17  3  1  0
 36 18  1  0
 16  5  1  0
 30 20  1  0
 36 31  1  0
 12  7  1  0
 29 24  1  0
  4 37  1  0
  8 38  1  0
  9 39  1  0
 10 40  1  0
 11 41  1  0
 12 42  1  0
 13 43  1  0
 14 44  1  0
 15 45  1  0
 17 46  1  0
 19 47  1  0
 19 48  1  0
 21 49  1  0
 21 50  1  0
 22 51  1  0
 22 52  1  0
 24 53  1  0
 25 54  1  0
 25 55  1  0
 26 56  1  0
 26 57  1  0
 27 58  1  0
 27 59  1  0
 28 60  1  0
 28 61  1  0
 29 62  1  0
 29 63  1  0
 30 64  1  0
 30 65  1  0
 32 66  1  0
 33 67  1  0
 34 68  1  0
 35 69  1  0
M  END
>  <smiles>  (24) 
O=C(c1cc2c(-c3ccccc3)cccc2[nH]1)N1C[C@]2(CCN(C3CCCCC3)C2)c2ccccc21

>  <score_type>  (24) 
oracle

>  <origin>  (24) 
autodockgpu

>  <m_score__min__energy>  (24) 
-10.609999999999999

>  <m_primary>  (24) 
energy

>  <rmsd>  (24) 
7.404347222785064

>  <m_score__min__rmsd>  (24) 
7.404347222785064

>  <meeko>  (24) 
{"free_energy": -10.35, "intermolecular_energy": -11.54, "internal_energy": -1.69, "cluster_size": 6, "cluster_id": 2, "rank_in_cluster": 3}

>  <energy>  (24) 
-10.4

>  <cluster_rmsd>  (24) 
0.55

>  <cluster>  (24) 
1

$$$$

     RDKit          3D

 69 75  0  0  0  0  0  0  0  0999 V2000
  137.9990   72.8070  220.0560 O   0  0  0  0  0  0  0  0  0  0  0  0
  138.9600   72.8930  220.8830 C   0  0  0  0  0  0  0  0  0  0  0  0
  139.0340   71.8230  221.8630 C   0  0  0  0  0  0  0  0  0  0  0  0
  139.4650   71.7750  223.1550 C   0  0  0  0  0  0  0  0  0  0  0  0
  139.3240   70.4650  223.5850 C   0  0  0  0  0  0  0  0  0  0  0  0
  139.5970   69.8280  224.7700 C   0  0  0  0  0  0  0  0  0  0  0  0
  140.1010   70.4630  225.9690 C   0  0  0  0  0  0  0  0  0  0  0  0
  140.8290   71.6440  225.8970 C   0  0  0  0  0  0  0  0  0  0  0  0
  141.3780   72.2320  227.0360 C   0  0  0  0  0  0  0  0  0  0  0  0
  141.1800   71.6040  228.2720 C   0  0  0  0  0  0  0  0  0  0  0  0
  140.4430   70.4130  228.3380 C   0  0  0  0  0  0  0  0  0  0  0  0
  139.9100   69.8540  227.1780 C   0  0  0  0  0  0  0  0  0  0  0  0
  139.3340   68.4600  224.8650 C   0  0  0  0  0  0  0  0  0  0  0  0
  138.8200   67.7380  223.8350 C   0  0  0  0  0  0  0  0  0  0  0  0
  138.5460   68.3600  222.6510 C   0  0  0  0  0  0  0  0  0  0  0  0
  138.8010   69.7270  222.5380 C   0  0  0  0  0  0  0  0  0  0  0  0
  138.6370   70.5640  221.5230 N   0  0  0  0  0  0  0  0  0  0  0  0
  139.8890   73.9960  220.8310 N   0  0  0  0  0  0  0  0  0  0  0  0
  139.4730   75.3230  221.2540 C   0  0  0  0  0  0  0  0  0  0  0  0
  140.6770   76.1880  221.0650 C   0  0  1  0  0  0  0  0  0  0  0  0
  140.3940   77.3280  220.1140 C   0  0  0  0  0  0  0  0  0  0  0  0
  141.3340   78.4030  220.5850 C   0  0  0  0  0  0  0  0  0  0  0  0
  141.7020   78.1200  221.9350 N   0  0  0  0  0  0  0  0  0  0  0  0
  141.3170   79.2320  222.8360 C   0  0  0  0  0  0  0  0  0  0  0  0
  139.8690   79.1700  223.1930 C   0  0  0  0  0  0  0  0  0  0  0  0
  139.1740   80.4470  223.4390 C   0  0  0  0  0  0  0  0  0  0  0  0
  139.5850   81.5840  222.5570 C   0  0  0  0  0  0  0  0  0  0  0  0
  141.0970   81.7140  222.7030 C   0  0  0  0  0  0  0  0  0  0  0  0
  141.7020   80.4840  222.0960 C   0  0  0  0  0  0  0  0  0  0  0  0
  141.0680   76.9100  222.3360 C   0  0  0  0  0  0  0  0  0  0  0  0
  141.7120   75.2740  220.5820 C   0  0  0  0  0  0  0  0  0  0  0  0
  143.0330   75.5200  220.2470 C   0  0  0  0  0  0  0  0  0  0  0  0
  143.8760   74.5220  219.7980 C   0  0  0  0  0  0  0  0  0  0  0  0
  143.3760   73.2450  219.6850 C   0  0  0  0  0  0  0  0  0  0  0  0
  142.0710   72.9620  220.0110 C   0  0  0  0  0  0  0  0  0  0  0  0
  141.2530   73.9810  220.4550 C   0  0  0  0  0  0  0  0  0  0  0  0
  139.8523   72.6181  223.7459 H   0  0  0  0  0  0  0  0  0  0  0  0
  140.9757   72.1262  224.9193 H   0  0  0  0  0  0  0  0  0  0  0  0
  141.9531   73.1671  226.9653 H   0  0  0  0  0  0  0  0  0  0  0  0
  141.6013   72.0437  229.1881 H   0  0  0  0  0  0  0  0  0  0  0  0
  140.2851   69.9186  229.3079 H   0  0  0  0  0  0  0  0  0  0  0  0
  139.3333   68.9190  227.2354 H   0  0  0  0  0  0  0  0  0  0  0  0
  139.5519   67.9456  225.8126 H   0  0  0  0  0  0  0  0  0  0  0  0
  138.6264   66.6617  223.9541 H   0  0  0  0  0  0  0  0  0  0  0  0
  138.1324   67.7946  221.8029 H   0  0  0  0  0  0  0  0  0  0  0  0
  138.2510   70.2640  220.5930 H   0  0  0  0  0  0  0  0  0  0  0  0
  138.6385   75.6820  220.6337 H   0  0  0  0  0  0  0  0  0  0  0  0
  139.1194   75.3312  222.2956 H   0  0  0  0  0  0  0  0  0  0  0  0
  140.6120   77.0396  219.0751 H   0  0  0  0  0  0  0  0  0  0  0  0
  139.3399   77.6426  220.1160 H   0  0  0  0  0  0  0  0  0  0  0  0
  142.2321   78.4156  219.9500 H   0  0  0  0  0  0  0  0  0  0  0  0
  140.8443   79.3862  220.5249 H   0  0  0  0  0  0  0  0  0  0  0  0
  141.8302   79.1864  223.8079 H   0  0  0  0  0  0  0  0  0  0  0  0
  139.3472   78.6645  222.3670 H   0  0  0  0  0  0  0  0  0  0  0  0
  139.8404   78.6443  224.1588 H   0  0  0  0  0  0  0  0  0  0  0  0
  138.0963   80.2794  223.2959 H   0  0  0  0  0  0  0  0  0  0  0  0
  139.4440   80.7457  224.4627 H   0  0  0  0  0  0  0  0  0  0  0  0
  139.3204   81.3696  221.5111 H   0  0  0  0  0  0  0  0  0  0  0  0
  139.0743   82.5157  222.8418 H   0  0  0  0  0  0  0  0  0  0  0  0
  141.4522   82.6106  222.1738 H   0  0  0  0  0  0  0  0  0  0  0  0
  141.3828   81.8117  223.7607 H   0  0  0  0  0  0  0  0  0  0  0  0
  141.3590   80.3985  221.0543 H   0  0  0  0  0  0  0  0  0  0  0  0
  142.7959   80.5847  222.1525 H   0  0  0  0  0  0  0  0  0  0  0  0
  141.7634   76.2936  222.9246 H   0  0  0  0  0  0  0  0  0  0  0  0
  140.1888   77.1114  222.9656 H   0  0  0  0  0  0  0  0  0  0  0  0
  143.4239   76.5438  220.3415 H   0  0  0  0  0  0  0  0  0  0  0  0
  144.9216   74.7428  219.5371 H   0  0  0  0  0  0  0  0  0  0  0  0
  144.0316   72.4372  219.3278 H   0  0  0  0  0  0  0  0  0  0  0  0
  141.6836   71.9366  219.9192 H   0  0  0  0  0  0  0  0  0  0  0  0
  1  2  2  0
  2  3  1  0
  3  4  2  0
  4  5  1  0
  5  6  2  0
  6  7  1  0
  7  8  2  0
  8  9  1  0
  9 10  2  0
 10 11  1  0
 11 12  2  0
  6 13  1  0
 13 14  2  0
 14 15  1  0
 15 16  2  0
 16 17  1  0
  2 18  1  0
 18 19  1  0
 20 19  1  1
 20 21  1  0
 21 22  1  0
 22 23  1  0
 23 24  1  0
 24 25  1  0
 25 26  1  0
 26 27  1  0
 27 28  1  0
 28 29  1  0
 23 30  1  0
 20 31  1  0
 31 32  2  0
 32 33  1  0
 33 34  2  0
 34 35  1  0
 35 36  2  0
 17  3  1  0
 36 18  1  0
 16  5  1  0
 30 20  1  0
 36 31  1  0
 12  7  1  0
 29 24  1  0
  4 37  1  0
  8 38  1  0
  9 39  1  0
 10 40  1  0
 11 41  1  0
 12 42  1  0
 13 43  1  0
 14 44  1  0
 15 45  1  0
 17 46  1  0
 19 47  1  0
 19 48  1  0
 21 49  1  0
 21 50  1  0
 22 51  1  0
 22 52  1  0
 24 53  1  0
 25 54  1  0
 25 55  1  0
 26 56  1  0
 26 57  1  0
 27 58  1  0
 27 59  1  0
 28 60  1  0
 28 61  1  0
 29 62  1  0
 29 63  1  0
 30 64  1  0
 30 65  1  0
 32 66  1  0
 33 67  1  0
 34 68  1  0
 35 69  1  0
M  END
>  <smiles>  (25) 
O=C(c1cc2c(-c3ccccc3)cccc2[nH]1)N1C[C@]2(CCN(C3CCCCC3)C2)c2ccccc21

>  <score_type>  (25) 
oracle

>  <origin>  (25) 
autodockgpu

>  <m_score__min__energy>  (25) 
-10.609999999999999

>  <m_primary>  (25) 
energy

>  <rmsd>  (25) 
2.4429561471128776

>  <m_score__min__rmsd>  (25) 
2.4429561471128776

>  <meeko>  (25) 
{"free_energy": -10.18, "intermolecular_energy": -11.38, "internal_energy": -1.92, "cluster_size": 42, "cluster_id": 1, "rank_in_cluster": 39}

>  <energy>  (25) 
-10.39

>  <cluster_rmsd>  (25) 
0.66

>  <cluster>  (25) 
1

$$$$

     RDKit          3D

 69 75  0  0  0  0  0  0  0  0999 V2000
  138.3260   72.4490  219.8240 O   0  0  0  0  0  0  0  0  0  0  0  0
  139.2190   72.6220  220.7120 C   0  0  0  0  0  0  0  0  0  0  0  0
  139.2710   71.6060  221.7480 C   0  0  0  0  0  0  0  0  0  0  0  0
  139.6250   71.6380  223.0640 C   0  0  0  0  0  0  0  0  0  0  0  0
  139.5030   70.3470  223.5520 C   0  0  0  0  0  0  0  0  0  0  0  0
  139.7260   69.7800  224.7820 C   0  0  0  0  0  0  0  0  0  0  0  0
  140.1360   70.4910  225.9740 C   0  0  0  0  0  0  0  0  0  0  0  0
  141.0000   71.5760  225.8930 C   0  0  0  0  0  0  0  0  0  0  0  0
  141.4570   72.2300  227.0370 C   0  0  0  0  0  0  0  0  0  0  0  0
  141.0230   71.7690  228.2870 C   0  0  0  0  0  0  0  0  0  0  0  0
  140.1510   70.6760  228.3600 C   0  0  0  0  0  0  0  0  0  0  0  0
  139.7160   70.0460  227.1960 C   0  0  0  0  0  0  0  0  0  0  0  0
  139.5040   68.4090  224.9320 C   0  0  0  0  0  0  0  0  0  0  0  0
  139.0780   67.6190  223.9130 C   0  0  0  0  0  0  0  0  0  0  0  0
  138.8530   68.1710  222.6840 C   0  0  0  0  0  0  0  0  0  0  0  0
  139.0680   69.5390  222.5150 C   0  0  0  0  0  0  0  0  0  0  0  0
  138.9370   70.3180  221.4510 N   0  0  0  0  0  0  0  0  0  0  0  0
  140.0970   73.7670  220.6690 N   0  0  0  0  0  0  0  0  0  0  0  0
  139.6000   75.0840  221.0350 C   0  0  0  0  0  0  0  0  0  0  0  0
  140.7690   76.0010  220.8750 C   0  0  1  0  0  0  0  0  0  0  0  0
  140.4770   77.1000  219.8800 C   0  0  0  0  0  0  0  0  0  0  0  0
  141.3430   78.2300  220.3620 C   0  0  0  0  0  0  0  0  0  0  0  0
  141.6620   78.0020  221.7340 N   0  0  0  0  0  0  0  0  0  0  0  0
  141.1840   79.1180  222.5850 C   0  0  0  0  0  0  0  0  0  0  0  0
  140.3740   80.0950  221.7990 C   0  0  0  0  0  0  0  0  0  0  0  0
  140.4220   81.5080  222.2180 C   0  0  0  0  0  0  0  0  0  0  0  0
  141.7540   81.9930  222.6980 C   0  0  0  0  0  0  0  0  0  0  0  0
  142.1770   81.0470  223.8160 C   0  0  0  0  0  0  0  0  0  0  0  0
  142.4290   79.7100  223.1860 C   0  0  0  0  0  0  0  0  0  0  0  0
  141.0680   76.7740  222.1400 C   0  0  0  0  0  0  0  0  0  0  0  0
  141.8670   75.1250  220.4650 C   0  0  0  0  0  0  0  0  0  0  0  0
  143.1890   75.4240  220.1810 C   0  0  0  0  0  0  0  0  0  0  0  0
  144.0980   74.4570  219.7990 C   0  0  0  0  0  0  0  0  0  0  0  0
  143.6640   73.1550  219.7010 C   0  0  0  0  0  0  0  0  0  0  0  0
  142.3600   72.8190  219.9770 C   0  0  0  0  0  0  0  0  0  0  0  0
  141.4760   73.8080  220.3550 C   0  0  0  0  0  0  0  0  0  0  0  0
  139.9472   72.5231  223.6322 H   0  0  0  0  0  0  0  0  0  0  0  0
  141.3310   71.9271  224.9045 H   0  0  0  0  0  0  0  0  0  0  0  0
  142.1419   73.0873  226.9598 H   0  0  0  0  0  0  0  0  0  0  0  0
  141.3661   72.2639  229.2075 H   0  0  0  0  0  0  0  0  0  0  0  0
  139.8080   70.3133  229.3402 H   0  0  0  0  0  0  0  0  0  0  0  0
  139.0319   69.1871  227.2608 H   0  0  0  0  0  0  0  0  0  0  0  0
  139.6816   67.9505  225.9160 H   0  0  0  0  0  0  0  0  0  0  0  0
  138.9155   66.5433  224.0759 H   0  0  0  0  0  0  0  0  0  0  0  0
  138.5091   67.5492  221.8443 H   0  0  0  0  0  0  0  0  0  0  0  0
  138.6180   69.9590  220.5170 H   0  0  0  0  0  0  0  0  0  0  0  0
  138.7788   75.3856  220.3682 H   0  0  0  0  0  0  0  0  0  0  0  0
  139.1994   75.1027  222.0593 H   0  0  0  0  0  0  0  0  0  0  0  0
  140.7559   76.7950  218.8606 H   0  0  0  0  0  0  0  0  0  0  0  0
  139.4105   77.3636  219.8253 H   0  0  0  0  0  0  0  0  0  0  0  0
  142.2677   78.2686  219.7674 H   0  0  0  0  0  0  0  0  0  0  0  0
  140.8106   79.1863  220.2525 H   0  0  0  0  0  0  0  0  0  0  0  0
  140.4974   78.7842  223.3770 H   0  0  0  0  0  0  0  0  0  0  0  0
  140.7209   80.0480  220.7562 H   0  0  0  0  0  0  0  0  0  0  0  0
  139.3298   79.7889  221.9600 H   0  0  0  0  0  0  0  0  0  0  0  0
  140.1259   82.1267  221.3580 H   0  0  0  0  0  0  0  0  0  0  0  0
  139.7424   81.5909  223.0790 H   0  0  0  0  0  0  0  0  0  0  0  0
  142.4871   81.9657  221.8784 H   0  0  0  0  0  0  0  0  0  0  0  0
  141.6962   83.0321  223.0543 H   0  0  0  0  0  0  0  0  0  0  0  0
  143.0944   81.4169  224.2972 H   0  0  0  0  0  0  0  0  0  0  0  0
  141.3962   80.9768  224.5877 H   0  0  0  0  0  0  0  0  0  0  0  0
  143.1823   79.8289  222.3933 H   0  0  0  0  0  0  0  0  0  0  0  0
  142.7793   79.0274  223.9743 H   0  0  0  0  0  0  0  0  0  0  0  0
  141.7642   76.2073  222.7757 H   0  0  0  0  0  0  0  0  0  0  0  0
  140.1525   76.9496  222.7239 H   0  0  0  0  0  0  0  0  0  0  0  0
  143.5267   76.4677  220.2625 H   0  0  0  0  0  0  0  0  0  0  0  0
  145.1428   74.7211  219.5786 H   0  0  0  0  0  0  0  0  0  0  0  0
  144.3721   72.3701  219.3968 H   0  0  0  0  0  0  0  0  0  0  0  0
  142.0256   71.7741  219.8974 H   0  0  0  0  0  0  0  0  0  0  0  0
  1  2  2  0
  2  3  1  0
  3  4  2  0
  4  5  1  0
  5  6  2  0
  6  7  1  0
  7  8  2  0
  8  9  1  0
  9 10  2  0
 10 11  1  0
 11 12  2  0
  6 13  1  0
 13 14  2  0
 14 15  1  0
 15 16  2  0
 16 17  1  0
  2 18  1  0
 18 19  1  0
 20 19  1  1
 20 21  1  0
 21 22  1  0
 22 23  1  0
 23 24  1  0
 24 25  1  0
 25 26  1  0
 26 27  1  0
 27 28  1  0
 28 29  1  0
 23 30  1  0
 20 31  1  0
 31 32  2  0
 32 33  1  0
 33 34  2  0
 34 35  1  0
 35 36  2  0
 17  3  1  0
 36 18  1  0
 16  5  1  0
 30 20  1  0
 36 31  1  0
 12  7  1  0
 29 24  1  0
  4 37  1  0
  8 38  1  0
  9 39  1  0
 10 40  1  0
 11 41  1  0
 12 42  1  0
 13 43  1  0
 14 44  1  0
 15 45  1  0
 17 46  1  0
 19 47  1  0
 19 48  1  0
 21 49  1  0
 21 50  1  0
 22 51  1  0
 22 52  1  0
 24 53  1  0
 25 54  1  0
 25 55  1  0
 26 56  1  0
 26 57  1  0
 27 58  1  0
 27 59  1  0
 28 60  1  0
 28 61  1  0
 29 62  1  0
 29 63  1  0
 30 64  1  0
 30 65  1  0
 32 66  1  0
 33 67  1  0
 34 68  1  0
 35 69  1  0
M  END
>  <smiles>  (26) 
O=C(c1cc2c(-c3ccccc3)cccc2[nH]1)N1C[C@]2(CCN(C3CCCCC3)C2)c2ccccc21

>  <score_type>  (26) 
oracle

>  <origin>  (26) 
autodockgpu

>  <m_score__min__energy>  (26) 
-10.609999999999999

>  <m_primary>  (26) 
energy

>  <rmsd>  (26) 
2.587516512659616

>  <m_score__min__rmsd>  (26) 
2.587516512659616

>  <meeko>  (26) 
{"free_energy": -10.39, "intermolecular_energy": -11.58, "internal_energy": -1.86, "cluster_size": 42, "cluster_id": 1, "rank_in_cluster": 28}

>  <energy>  (26) 
-10.39

>  <cluster_rmsd>  (26) 
0.58

>  <cluster>  (26) 
1

$$$$

     RDKit          3D

 69 75  0  0  0  0  0  0  0  0999 V2000
  138.8600   71.9810  219.5840 O   0  0  0  0  0  0  0  0  0  0  0  0
  139.6630   72.2290  220.5370 C   0  0  0  0  0  0  0  0  0  0  0  0
  139.6250   71.2870  221.6430 C   0  0  0  0  0  0  0  0  0  0  0  0
  139.8980   71.4050  222.9730 C   0  0  0  0  0  0  0  0  0  0  0  0
  139.7130   70.1550  223.5410 C   0  0  0  0  0  0  0  0  0  0  0  0
  139.8460   69.6720  224.8180 C   0  0  0  0  0  0  0  0  0  0  0  0
  140.2000   70.4560  225.9820 C   0  0  0  0  0  0  0  0  0  0  0  0
  141.0660   71.5370  225.8740 C   0  0  0  0  0  0  0  0  0  0  0  0
  141.4700   72.2620  226.9950 C   0  0  0  0  0  0  0  0  0  0  0  0
  140.9790   71.8780  228.2490 C   0  0  0  0  0  0  0  0  0  0  0  0
  140.1050   70.7880  228.3510 C   0  0  0  0  0  0  0  0  0  0  0  0
  139.7240   70.0850  227.2080 C   0  0  0  0  0  0  0  0  0  0  0  0
  139.5790   68.3200  225.0500 C   0  0  0  0  0  0  0  0  0  0  0  0
  139.1950   67.4690  224.0630 C   0  0  0  0  0  0  0  0  0  0  0  0
  139.0610   67.9370  222.7870 C   0  0  0  0  0  0  0  0  0  0  0  0
  139.3220   69.2850  222.5370 C   0  0  0  0  0  0  0  0  0  0  0  0
  139.2760   69.9890  221.4150 N   0  0  0  0  0  0  0  0  0  0  0  0
  140.5320   73.3800  220.4960 N   0  0  0  0  0  0  0  0  0  0  0  0
  139.9700   74.7210  220.5030 C   0  0  0  0  0  0  0  0  0  0  0  0
  141.1480   75.6390  220.4570 C   0  0  1  0  0  0  0  0  0  0  0  0
  141.0990   76.5400  219.2440 C   0  0  0  0  0  0  0  0  0  0  0  0
  141.8350   77.7670  219.7060 C   0  0  0  0  0  0  0  0  0  0  0  0
  141.8270   77.7890  221.1330 N   0  0  0  0  0  0  0  0  0  0  0  0
  141.1700   79.0160  221.6430 C   0  0  0  0  0  0  0  0  0  0  0  0
  141.8370   80.2480  221.1280 C   0  0  0  0  0  0  0  0  0  0  0  0
  141.8280   81.4390  221.9970 C   0  0  0  0  0  0  0  0  0  0  0  0
  141.9860   81.1690  223.4610 C   0  0  0  0  0  0  0  0  0  0  0  0
  140.8890   80.1770  223.8330 C   0  0  0  0  0  0  0  0  0  0  0  0
  141.2140   78.8870  223.1410 C   0  0  0  0  0  0  0  0  0  0  0  0
  141.1490   76.6280  221.6010 C   0  0  0  0  0  0  0  0  0  0  0  0
  142.3070   74.7470  220.4680 C   0  0  0  0  0  0  0  0  0  0  0  0
  143.6600   75.0410  220.4460 C   0  0  0  0  0  0  0  0  0  0  0  0
  144.6280   74.0560  220.4570 C   0  0  0  0  0  0  0  0  0  0  0  0
  144.2240   72.7410  220.4920 C   0  0  0  0  0  0  0  0  0  0  0  0
  142.8890   72.4100  220.5170 C   0  0  0  0  0  0  0  0  0  0  0  0
  141.9460   73.4170  220.5040 C   0  0  0  0  0  0  0  0  0  0  0  0
  140.2073   72.3212  223.4973 H   0  0  0  0  0  0  0  0  0  0  0  0
  141.4416   71.8278  224.8818 H   0  0  0  0  0  0  0  0  0  0  0  0
  142.1577   73.1148  226.8964 H   0  0  0  0  0  0  0  0  0  0  0  0
  141.2788   72.4308  229.1515 H   0  0  0  0  0  0  0  0  0  0  0  0
  139.7180   70.4856  229.3353 H   0  0  0  0  0  0  0  0  0  0  0  0
  139.0382   69.2293  227.2938 H   0  0  0  0  0  0  0  0  0  0  0  0
  139.6839   67.9291  226.0728 H   0  0  0  0  0  0  0  0  0  0  0  0
  138.9937   66.4116  224.2898 H   0  0  0  0  0  0  0  0  0  0  0  0
  138.7534   67.2648  221.9724 H   0  0  0  0  0  0  0  0  0  0  0  0
  139.0060   69.5720  220.4900 H   0  0  0  0  0  0  0  0  0  0  0  0
  139.3267   74.8744  219.6240 H   0  0  0  0  0  0  0  0  0  0  0  0
  139.3434   74.8998  221.3893 H   0  0  0  0  0  0  0  0  0  0  0  0
  141.6051   76.0750  218.3851 H   0  0  0  0  0  0  0  0  0  0  0  0
  140.0753   76.7512  218.9012 H   0  0  0  0  0  0  0  0  0  0  0  0
  142.8723   77.7369  219.3411 H   0  0  0  0  0  0  0  0  0  0  0  0
  141.3463   78.6704  219.3122 H   0  0  0  0  0  0  0  0  0  0  0  0
  140.1309   79.1156  221.2962 H   0  0  0  0  0  0  0  0  0  0  0  0
  142.8883   79.9944  220.9270 H   0  0  0  0  0  0  0  0  0  0  0  0
  141.2473   80.5391  220.2463 H   0  0  0  0  0  0  0  0  0  0  0  0
  142.6533   82.0946  221.6822 H   0  0  0  0  0  0  0  0  0  0  0  0
  140.8326   81.8919  221.8788 H   0  0  0  0  0  0  0  0  0  0  0  0
  142.9765   80.7356  223.6639 H   0  0  0  0  0  0  0  0  0  0  0  0
  141.9050   82.0946  224.0497 H   0  0  0  0  0  0  0  0  0  0  0  0
  140.8685   80.0269  224.9225 H   0  0  0  0  0  0  0  0  0  0  0  0
  139.9008   80.5500  223.5259 H   0  0  0  0  0  0  0  0  0  0  0  0
  142.2243   78.5703  223.4393 H   0  0  0  0  0  0  0  0  0  0  0  0
  140.4569   78.1461  223.4374 H   0  0  0  0  0  0  0  0  0  0  0  0
  141.6760   76.2044  222.4687 H   0  0  0  0  0  0  0  0  0  0  0  0
  140.1238   76.8681  221.9193 H   0  0  0  0  0  0  0  0  0  0  0  0
  143.9744   76.0948  220.4188 H   0  0  0  0  0  0  0  0  0  0  0  0
  145.6966   74.3164  220.4382 H   0  0  0  0  0  0  0  0  0  0  0  0
  144.9802   71.9422  220.5001 H   0  0  0  0  0  0  0  0  0  0  0  0
  142.5772   71.3555  220.5470 H   0  0  0  0  0  0  0  0  0  0  0  0
  1  2  2  0
  2  3  1  0
  3  4  2  0
  4  5  1  0
  5  6  2  0
  6  7  1  0
  7  8  2  0
  8  9  1  0
  9 10  2  0
 10 11  1  0
 11 12  2  0
  6 13  1  0
 13 14  2  0
 14 15  1  0
 15 16  2  0
 16 17  1  0
  2 18  1  0
 18 19  1  0
 20 19  1  1
 20 21  1  0
 21 22  1  0
 22 23  1  0
 23 24  1  0
 24 25  1  0
 25 26  1  0
 26 27  1  0
 27 28  1  0
 28 29  1  0
 23 30  1  0
 20 31  1  0
 31 32  2  0
 32 33  1  0
 33 34  2  0
 34 35  1  0
 35 36  2  0
 17  3  1  0
 36 18  1  0
 16  5  1  0
 30 20  1  0
 36 31  1  0
 12  7  1  0
 29 24  1  0
  4 37  1  0
  8 38  1  0
  9 39  1  0
 10 40  1  0
 11 41  1  0
 12 42  1  0
 13 43  1  0
 14 44  1  0
 15 45  1  0
 17 46  1  0
 19 47  1  0
 19 48  1  0
 21 49  1  0
 21 50  1  0
 22 51  1  0
 22 52  1  0
 24 53  1  0
 25 54  1  0
 25 55  1  0
 26 56  1  0
 26 57  1  0
 27 58  1  0
 27 59  1  0
 28 60  1  0
 28 61  1  0
 29 62  1  0
 29 63  1  0
 30 64  1  0
 30 65  1  0
 32 66  1  0
 33 67  1  0
 34 68  1  0
 35 69  1  0
M  END
>  <smiles>  (27) 
O=C(c1cc2c(-c3ccccc3)cccc2[nH]1)N1C[C@]2(CCN(C3CCCCC3)C2)c2ccccc21

>  <score_type>  (27) 
oracle

>  <origin>  (27) 
autodockgpu

>  <m_score__min__energy>  (27) 
-10.609999999999999

>  <m_primary>  (27) 
energy

>  <rmsd>  (27) 
3.016065229331491

>  <m_score__min__rmsd>  (27) 
3.016065229331491

>  <meeko>  (27) 
{"free_energy": -10.61, "intermolecular_energy": -11.8, "internal_energy": -1.9, "cluster_size": 42, "cluster_id": 1, "rank_in_cluster": 2}

>  <energy>  (27) 
-10.39

>  <cluster_rmsd>  (27) 
0.67

>  <cluster>  (27) 
1

$$$$

     RDKit          3D

 69 75  0  0  0  0  0  0  0  0999 V2000
  139.0260   71.9880  219.3750 O   0  0  0  0  0  0  0  0  0  0  0  0
  139.7560   72.2520  220.3820 C   0  0  0  0  0  0  0  0  0  0  0  0
  139.6420   71.3240  221.4930 C   0  0  0  0  0  0  0  0  0  0  0  0
  139.9150   71.4300  222.8240 C   0  0  0  0  0  0  0  0  0  0  0  0
  139.6340   70.2010  223.3990 C   0  0  0  0  0  0  0  0  0  0  0  0
  139.7230   69.7190  224.6810 C   0  0  0  0  0  0  0  0  0  0  0  0
  140.1280   70.4830  225.8410 C   0  0  0  0  0  0  0  0  0  0  0  0
  140.9970   71.5600  225.7160 C   0  0  0  0  0  0  0  0  0  0  0  0
  141.4480   72.2640  226.8320 C   0  0  0  0  0  0  0  0  0  0  0  0
  141.0040   71.8650  228.0980 C   0  0  0  0  0  0  0  0  0  0  0  0
  140.1250   70.7790  228.2170 C   0  0  0  0  0  0  0  0  0  0  0  0
  139.6960   70.0970  227.0790 C   0  0  0  0  0  0  0  0  0  0  0  0
  139.3560   68.3920  224.9190 C   0  0  0  0  0  0  0  0  0  0  0  0
  138.9160   67.5650  223.9350 C   0  0  0  0  0  0  0  0  0  0  0  0
  138.8240   68.0320  222.6550 C   0  0  0  0  0  0  0  0  0  0  0  0
  139.1860   69.3560  222.3990 C   0  0  0  0  0  0  0  0  0  0  0  0
  139.1990   70.0530  221.2720 N   0  0  0  0  0  0  0  0  0  0  0  0
  140.6200   73.4080  220.3900 N   0  0  0  0  0  0  0  0  0  0  0  0
  140.0500   74.7460  220.4040 C   0  0  0  0  0  0  0  0  0  0  0  0
  141.2250   75.6700  220.4130 C   0  0  1  0  0  0  0  0  0  0  0  0
  141.2100   76.5940  219.2160 C   0  0  0  0  0  0  0  0  0  0  0  0
  141.9240   77.8150  219.7230 C   0  0  0  0  0  0  0  0  0  0  0  0
  141.8700   77.8100  221.1500 N   0  0  0  0  0  0  0  0  0  0  0  0
  141.1900   79.0240  221.6610 C   0  0  0  0  0  0  0  0  0  0  0  0
  141.8180   80.2680  221.1270 C   0  0  0  0  0  0  0  0  0  0  0  0
  141.7940   81.4660  221.9870 C   0  0  0  0  0  0  0  0  0  0  0  0
  141.9810   81.2110  223.4500 C   0  0  0  0  0  0  0  0  0  0  0  0
  140.9150   80.1950  223.8470 C   0  0  0  0  0  0  0  0  0  0  0  0
  141.2610   78.9080  223.1590 C   0  0  0  0  0  0  0  0  0  0  0  0
  141.1840   76.6380  221.5750 C   0  0  0  0  0  0  0  0  0  0  0  0
  142.3880   74.7830  220.4450 C   0  0  0  0  0  0  0  0  0  0  0  0
  143.7390   75.0840  220.4710 C   0  0  0  0  0  0  0  0  0  0  0  0
  144.7120   74.1040  220.4950 C   0  0  0  0  0  0  0  0  0  0  0  0
  144.3130   72.7870  220.4920 C   0  0  0  0  0  0  0  0  0  0  0  0
  142.9800   72.4490  220.4690 C   0  0  0  0  0  0  0  0  0  0  0  0
  142.0330   73.4520  220.4440 C   0  0  0  0  0  0  0  0  0  0  0  0
  140.2886   72.3241  223.3446 H   0  0  0  0  0  0  0  0  0  0  0  0
  141.3366   71.8639  224.7148 H   0  0  0  0  0  0  0  0  0  0  0  0
  142.1373   73.1139  226.7199 H   0  0  0  0  0  0  0  0  0  0  0  0
  141.3434   72.4014  228.9964 H   0  0  0  0  0  0  0  0  0  0  0  0
  139.7730   70.4643  229.2105 H   0  0  0  0  0  0  0  0  0  0  0  0
  139.0072   69.2450  227.1779 H   0  0  0  0  0  0  0  0  0  0  0  0
  139.4262   68.0010  225.9448 H   0  0  0  0  0  0  0  0  0  0  0  0
  138.6359   66.5270  224.1676 H   0  0  0  0  0  0  0  0  0  0  0  0
  138.4722   67.3789  221.8428 H   0  0  0  0  0  0  0  0  0  0  0  0
  138.9040   69.6500  220.3480 H   0  0  0  0  0  0  0  0  0  0  0  0
  139.4344   74.9129  219.5078 H   0  0  0  0  0  0  0  0  0  0  0  0
  139.3939   74.9053  221.2724 H   0  0  0  0  0  0  0  0  0  0  0  0
  141.7455   76.1476  218.3651 H   0  0  0  0  0  0  0  0  0  0  0  0
  140.1965   76.8070  218.8453 H   0  0  0  0  0  0  0  0  0  0  0  0
  142.9726   77.7966  219.3911 H   0  0  0  0  0  0  0  0  0  0  0  0
  141.4438   78.7234  219.3303 H   0  0  0  0  0  0  0  0  0  0  0  0
  140.1434   79.0946  221.3297 H   0  0  0  0  0  0  0  0  0  0  0  0
  142.8719   80.0385  220.9109 H   0  0  0  0  0  0  0  0  0  0  0  0
  141.2066   80.5379  220.2533 H   0  0  0  0  0  0  0  0  0  0  0  0
  142.5984   82.1385  221.6544 H   0  0  0  0  0  0  0  0  0  0  0  0
  140.7866   81.8947  221.8808 H   0  0  0  0  0  0  0  0  0  0  0  0
  142.9850   80.8038  223.6404 H   0  0  0  0  0  0  0  0  0  0  0  0
  141.8858   82.1389  224.0330 H   0  0  0  0  0  0  0  0  0  0  0  0
  140.9158   80.0528  224.9378 H   0  0  0  0  0  0  0  0  0  0  0  0
  139.9130   80.5410  223.5534 H   0  0  0  0  0  0  0  0  0  0  0  0
  142.2835   78.6188  223.4433 H   0  0  0  0  0  0  0  0  0  0  0  0
  140.5272   78.1510  223.4729 H   0  0  0  0  0  0  0  0  0  0  0  0
  141.6854   76.2011  222.4512 H   0  0  0  0  0  0  0  0  0  0  0  0
  140.1480   76.8671  221.8651 H   0  0  0  0  0  0  0  0  0  0  0  0
  144.0481   76.1397  220.4726 H   0  0  0  0  0  0  0  0  0  0  0  0
  145.7792   74.3696  220.5160 H   0  0  0  0  0  0  0  0  0  0  0  0
  145.0726   71.9916  220.5083 H   0  0  0  0  0  0  0  0  0  0  0  0
  142.6729   71.3927  220.4705 H   0  0  0  0  0  0  0  0  0  0  0  0
  1  2  2  0
  2  3  1  0
  3  4  2  0
  4  5  1  0
  5  6  2  0
  6  7  1  0
  7  8  2  0
  8  9  1  0
  9 10  2  0
 10 11  1  0
 11 12  2  0
  6 13  1  0
 13 14  2  0
 14 15  1  0
 15 16  2  0
 16 17  1  0
  2 18  1  0
 18 19  1  0
 20 19  1  6
 20 21  1  0
 21 22  1  0
 22 23  1  0
 23 24  1  0
 24 25  1  0
 25 26  1  0
 26 27  1  0
 27 28  1  0
 28 29  1  0
 23 30  1  0
 20 31  1  0
 31 32  2  0
 32 33  1  0
 33 34  2  0
 34 35  1  0
 35 36  2  0
 17  3  1  0
 36 18  1  0
 16  5  1  0
 30 20  1  0
 36 31  1  0
 12  7  1  0
 29 24  1  0
  4 37  1  0
  8 38  1  0
  9 39  1  0
 10 40  1  0
 11 41  1  0
 12 42  1  0
 13 43  1  0
 14 44  1  0
 15 45  1  0
 17 46  1  0
 19 47  1  0
 19 48  1  0
 21 49  1  0
 21 50  1  0
 22 51  1  0
 22 52  1  0
 24 53  1  0
 25 54  1  0
 25 55  1  0
 26 56  1  0
 26 57  1  0
 27 58  1  0
 27 59  1  0
 28 60  1  0
 28 61  1  0
 29 62  1  0
 29 63  1  0
 30 64  1  0
 30 65  1  0
 32 66  1  0
 33 67  1  0
 34 68  1  0
 35 69  1  0
M  END
>  <smiles>  (28) 
O=C(c1cc2c(-c3ccccc3)cccc2[nH]1)N1C[C@]2(CCN(C3CCCCC3)C2)c2ccccc21

>  <score_type>  (28) 
oracle

>  <origin>  (28) 
autodockgpu

>  <m_score__min__energy>  (28) 
-10.609999999999999

>  <m_primary>  (28) 
energy

>  <rmsd>  (28) 
2.9991888216009213

>  <m_score__min__rmsd>  (28) 
2.9991888216009213

>  <meeko>  (28) 
{"free_energy": -10.47, "intermolecular_energy": -11.67, "internal_energy": -1.92, "cluster_size": 42, "cluster_id": 1, "rank_in_cluster": 18}

>  <energy>  (28) 
-10.39

>  <cluster_rmsd>  (28) 
0.63

>  <cluster>  (28) 
1

$$$$

     RDKit          3D

 69 75  0  0  0  0  0  0  0  0999 V2000
  137.8270   73.1910  220.3450 O   0  0  0  0  0  0  0  0  0  0  0  0
  138.9230   73.1020  220.9840 C   0  0  0  0  0  0  0  0  0  0  0  0
  139.0130   71.9890  221.9130 C   0  0  0  0  0  0  0  0  0  0  0  0
  139.4620   71.8820  223.1950 C   0  0  0  0  0  0  0  0  0  0  0  0
  139.3290   70.5540  223.5660 C   0  0  0  0  0  0  0  0  0  0  0  0
  139.6190   69.8640  224.7160 C   0  0  0  0  0  0  0  0  0  0  0  0
  140.1400   70.4430  225.9360 C   0  0  0  0  0  0  0  0  0  0  0  0
  139.7360   69.9690  227.1780 C   0  0  0  0  0  0  0  0  0  0  0  0
  140.1770   70.5590  228.3610 C   0  0  0  0  0  0  0  0  0  0  0  0
  141.0480   71.6530  228.2770 C   0  0  0  0  0  0  0  0  0  0  0  0
  141.4530   72.1250  227.0210 C   0  0  0  0  0  0  0  0  0  0  0  0
  140.9900   71.5110  225.8590 C   0  0  0  0  0  0  0  0  0  0  0  0
  139.3600   68.4910  224.7520 C   0  0  0  0  0  0  0  0  0  0  0  0
  138.8330   67.8170  223.6970 C   0  0  0  0  0  0  0  0  0  0  0  0
  138.5400   68.4920  222.5470 C   0  0  0  0  0  0  0  0  0  0  0  0
  138.7920   69.8640  222.4930 C   0  0  0  0  0  0  0  0  0  0  0  0
  138.6120   70.7450  221.5200 N   0  0  0  0  0  0  0  0  0  0  0  0
  139.9800   74.0640  220.7840 N   0  0  0  0  0  0  0  0  0  0  0  0
  139.6710   75.4830  220.7000 C   0  0  0  0  0  0  0  0  0  0  0  0
  140.9880   76.1580  220.4970 C   0  0  1  0  0  0  0  0  0  0  0  0
  141.0100   76.9530  219.2110 C   0  0  0  0  0  0  0  0  0  0  0  0
  141.9890   78.0540  219.5110 C   0  0  0  0  0  0  0  0  0  0  0  0
  142.0940   78.1910  220.9280 N   0  0  0  0  0  0  0  0  0  0  0  0
  141.7100   79.5560  221.3600 C   0  0  0  0  0  0  0  0  0  0  0  0
  142.5700   80.0360  222.4830 C   0  0  0  0  0  0  0  0  0  0  0  0
  141.9590   80.9530  223.4620 C   0  0  0  0  0  0  0  0  0  0  0  0
  140.5290   80.6710  223.8030 C   0  0  0  0  0  0  0  0  0  0  0  0
  139.7690   80.6520  222.4810 C   0  0  0  0  0  0  0  0  0  0  0  0
  140.2530   79.4560  221.7170 C   0  0  0  0  0  0  0  0  0  0  0  0
  141.2560   77.2180  221.5420 C   0  0  0  0  0  0  0  0  0  0  0  0
  141.9650   75.0690  220.5210 C   0  0  0  0  0  0  0  0  0  0  0  0
  143.3430   75.1030  220.3890 C   0  0  0  0  0  0  0  0  0  0  0  0
  144.1150   73.9590  220.4330 C   0  0  0  0  0  0  0  0  0  0  0  0
  143.4840   72.7500  220.6150 C   0  0  0  0  0  0  0  0  0  0  0  0
  142.1180   72.6770  220.7510 C   0  0  0  0  0  0  0  0  0  0  0  0
  141.3740   73.8370  220.7020 C   0  0  0  0  0  0  0  0  0  0  0  0
  139.8564   72.6977  223.8188 H   0  0  0  0  0  0  0  0  0  0  0  0
  139.0526   69.1086  227.2287 H   0  0  0  0  0  0  0  0  0  0  0  0
  139.8488   70.1746  229.3380 H   0  0  0  0  0  0  0  0  0  0  0  0
  141.4127   72.1398  229.1935 H   0  0  0  0  0  0  0  0  0  0  0  0
  142.1384   72.9827  226.9523 H   0  0  0  0  0  0  0  0  0  0  0  0
  141.3096   71.8871  224.8759 H   0  0  0  0  0  0  0  0  0  0  0  0
  139.5923   67.9339  225.6716 H   0  0  0  0  0  0  0  0  0  0  0  0
  138.6438   66.7358  223.7686 H   0  0  0  0  0  0  0  0  0  0  0  0
  138.1139   67.9653  221.6804 H   0  0  0  0  0  0  0  0  0  0  0  0
  138.2140   70.4890  220.5830 H   0  0  0  0  0  0  0  0  0  0  0  0
  139.0003   75.6824  219.8513 H   0  0  0  0  0  0  0  0  0  0  0  0
  139.1569   75.8464  221.6020 H   0  0  0  0  0  0  0  0  0  0  0  0
  141.3561   76.3346  218.3697 H   0  0  0  0  0  0  0  0  0  0  0  0
  140.0181   77.3240  218.9136 H   0  0  0  0  0  0  0  0  0  0  0  0
  142.9727   77.8015  219.0884 H   0  0  0  0  0  0  0  0  0  0  0  0
  141.6436   78.9983  219.0649 H   0  0  0  0  0  0  0  0  0  0  0  0
  141.8617   80.3082  220.5718 H   0  0  0  0  0  0  0  0  0  0  0  0
  142.9182   79.1498  223.0338 H   0  0  0  0  0  0  0  0  0  0  0  0
  143.3603   80.6282  221.9984 H   0  0  0  0  0  0  0  0  0  0  0  0
  142.5462   80.8978  224.3905 H   0  0  0  0  0  0  0  0  0  0  0  0
  141.9671   81.9471  222.9911 H   0  0  0  0  0  0  0  0  0  0  0  0
  140.4425   79.6966  224.3060 H   0  0  0  0  0  0  0  0  0  0  0  0
  140.1235   81.4319  224.4861 H   0  0  0  0  0  0  0  0  0  0  0  0
  138.6880   80.5697  222.6674 H   0  0  0  0  0  0  0  0  0  0  0  0
  139.9430   81.5782  221.9137 H   0  0  0  0  0  0  0  0  0  0  0  0
  140.1010   78.5577  222.3334 H   0  0  0  0  0  0  0  0  0  0  0  0
  139.6805   79.4025  220.7792 H   0  0  0  0  0  0  0  0  0  0  0  0
  141.7633   76.7743  222.4114 H   0  0  0  0  0  0  0  0  0  0  0  0
  140.3186   77.6698  221.8986 H   0  0  0  0  0  0  0  0  0  0  0  0
  143.8393   76.0739  220.2443 H   0  0  0  0  0  0  0  0  0  0  0  0
  145.2084   74.0130  220.3251 H   0  0  0  0  0  0  0  0  0  0  0  0
  144.0819   71.8274  220.6523 H   0  0  0  0  0  0  0  0  0  0  0  0
  141.6244   71.7049  220.8972 H   0  0  0  0  0  0  0  0  0  0  0  0
  1  2  2  0
  2  3  1  0
  3  4  2  0
  4  5  1  0
  5  6  2  0
  6  7  1  0
  7  8  2  0
  8  9  1  0
  9 10  2  0
 10 11  1  0
 11 12  2  0
  6 13  1  0
 13 14  2  0
 14 15  1  0
 15 16  2  0
 16 17  1  0
  2 18  1  0
 18 19  1  0
 20 19  1  1
 20 21  1  0
 21 22  1  0
 22 23  1  0
 23 24  1  0
 24 25  1  0
 25 26  1  0
 26 27  1  0
 27 28  1  0
 28 29  1  0
 23 30  1  0
 20 31  1  0
 31 32  2  0
 32 33  1  0
 33 34  2  0
 34 35  1  0
 35 36  2  0
 17  3  1  0
 36 18  1  0
 16  5  1  0
 30 20  1  0
 36 31  1  0
 12  7  1  0
 29 24  1  0
  4 37  1  0
  8 38  1  0
  9 39  1  0
 10 40  1  0
 11 41  1  0
 12 42  1  0
 13 43  1  0
 14 44  1  0
 15 45  1  0
 17 46  1  0
 19 47  1  0
 19 48  1  0
 21 49  1  0
 21 50  1  0
 22 51  1  0
 22 52  1  0
 24 53  1  0
 25 54  1  0
 25 55  1  0
 26 56  1  0
 26 57  1  0
 27 58  1  0
 27 59  1  0
 28 60  1  0
 28 61  1  0
 29 62  1  0
 29 63  1  0
 30 64  1  0
 30 65  1  0
 32 66  1  0
 33 67  1  0
 34 68  1  0
 35 69  1  0
M  END
>  <smiles>  (29) 
O=C(c1cc2c(-c3ccccc3)cccc2[nH]1)N1C[C@]2(CCN(C3CCCCC3)C2)c2ccccc21

>  <score_type>  (29) 
oracle

>  <origin>  (29) 
autodockgpu

>  <m_score__min__energy>  (29) 
-10.609999999999999

>  <m_primary>  (29) 
energy

>  <rmsd>  (29) 
3.0391297718264965

>  <m_score__min__rmsd>  (29) 
3.0391297718264965

>  <meeko>  (29) 
{"free_energy": -10.38, "intermolecular_energy": -11.58, "internal_energy": -1.92, "cluster_size": 42, "cluster_id": 1, "rank_in_cluster": 30}

>  <energy>  (29) 
-10.39

>  <cluster_rmsd>  (29) 
0.68

>  <cluster>  (29) 
1

$$$$

     RDKit          3D

 69 75  0  0  0  0  0  0  0  0999 V2000
  138.6000   72.0930  219.6990 O   0  0  0  0  0  0  0  0  0  0  0  0
  139.4650   72.2930  220.6090 C   0  0  0  0  0  0  0  0  0  0  0  0
  139.4680   71.3190  221.6880 C   0  0  0  0  0  0  0  0  0  0  0  0
  139.8020   71.3950  223.0070 C   0  0  0  0  0  0  0  0  0  0  0  0
  139.6310   70.1310  223.5460 C   0  0  0  0  0  0  0  0  0  0  0  0
  139.8170   69.6090  224.8020 C   0  0  0  0  0  0  0  0  0  0  0  0
  140.2310   70.3560  225.9700 C   0  0  0  0  0  0  0  0  0  0  0  0
  139.7410   70.0360  227.2300 C   0  0  0  0  0  0  0  0  0  0  0  0
  140.0780   70.7870  228.3550 C   0  0  0  0  0  0  0  0  0  0  0  0
  140.9340   71.8840  228.1930 C   0  0  0  0  0  0  0  0  0  0  0  0
  141.4260   72.2000  226.9190 C   0  0  0  0  0  0  0  0  0  0  0  0
  141.0660   71.4270  225.8170 C   0  0  0  0  0  0  0  0  0  0  0  0
  139.5490   68.2530  225.0050 C   0  0  0  0  0  0  0  0  0  0  0  0
  139.1130   67.4350  224.0130 C   0  0  0  0  0  0  0  0  0  0  0  0
  138.9260   67.9410  222.7580 C   0  0  0  0  0  0  0  0  0  0  0  0
  139.1870   69.2940  222.5360 C   0  0  0  0  0  0  0  0  0  0  0  0
  139.0970   70.0310  221.4380 N   0  0  0  0  0  0  0  0  0  0  0  0
  140.3590   73.4240  220.5500 N   0  0  0  0  0  0  0  0  0  0  0  0
  139.8280   74.7770  220.5600 C   0  0  0  0  0  0  0  0  0  0  0  0
  141.0260   75.6680  220.4910 C   0  0  1  0  0  0  0  0  0  0  0  0
  140.9780   76.5650  219.2760 C   0  0  0  0  0  0  0  0  0  0  0  0
  141.7490   77.7770  219.7200 C   0  0  0  0  0  0  0  0  0  0  0  0
  141.7640   77.8040  221.1470 N   0  0  0  0  0  0  0  0  0  0  0  0
  141.1440   79.0480  221.6620 C   0  0  0  0  0  0  0  0  0  0  0  0
  141.8050   80.2620  221.1010 C   0  0  0  0  0  0  0  0  0  0  0  0
  141.8470   81.4670  221.9490 C   0  0  0  0  0  0  0  0  0  0  0  0
  142.0590   81.2190  223.4100 C   0  0  0  0  0  0  0  0  0  0  0  0
  140.9660   80.2480  223.8430 C   0  0  0  0  0  0  0  0  0  0  0  0
  141.2460   78.9430  223.1590 C   0  0  0  0  0  0  0  0  0  0  0  0
  141.0680   76.6610  221.6310 C   0  0  0  0  0  0  0  0  0  0  0  0
  142.1650   74.7490  220.4880 C   0  0  0  0  0  0  0  0  0  0  0  0
  143.5230   75.0120  220.4420 C   0  0  0  0  0  0  0  0  0  0  0  0
  144.4690   74.0050  220.4420 C   0  0  0  0  0  0  0  0  0  0  0  0
  144.0350   72.7000  220.4890 C   0  0  0  0  0  0  0  0  0  0  0  0
  142.6940   72.4000  220.5370 C   0  0  0  0  0  0  0  0  0  0  0  0
  141.7740   73.4280  220.5340 C   0  0  0  0  0  0  0  0  0  0  0  0
  140.1436   72.2926  223.5433 H   0  0  0  0  0  0  0  0  0  0  0  0
  139.0718   69.1702  227.3425 H   0  0  0  0  0  0  0  0  0  0  0  0
  139.6811   70.5244  229.3467 H   0  0  0  0  0  0  0  0  0  0  0  0
  141.2190   72.4951  229.0621 H   0  0  0  0  0  0  0  0  0  0  0  0
  142.0983   73.0608  226.7888 H   0  0  0  0  0  0  0  0  0  0  0  0
  141.4555   71.6798  224.8198 H   0  0  0  0  0  0  0  0  0  0  0  0
  139.6973   67.8307  226.0098 H   0  0  0  0  0  0  0  0  0  0  0  0
  138.9119   66.3732  224.2182 H   0  0  0  0  0  0  0  0  0  0  0  0
  138.5767   67.2952  221.9389 H   0  0  0  0  0  0  0  0  0  0  0  0
  138.7820   69.6430  220.5150 H   0  0  0  0  0  0  0  0  0  0  0  0
  139.1743   74.9414  219.6907 H   0  0  0  0  0  0  0  0  0  0  0  0
  139.2200   74.9737  221.4554 H   0  0  0  0  0  0  0  0  0  0  0  0
  141.4593   76.0852  218.4110 H   0  0  0  0  0  0  0  0  0  0  0  0
  139.9538   76.7983  218.9495 H   0  0  0  0  0  0  0  0  0  0  0  0
  142.7793   77.7220  219.3387 H   0  0  0  0  0  0  0  0  0  0  0  0
  141.2753   78.6899  219.3298 H   0  0  0  0  0  0  0  0  0  0  0  0
  140.0933   79.1557  221.3547 H   0  0  0  0  0  0  0  0  0  0  0  0
  142.8439   79.9908  220.8620 H   0  0  0  0  0  0  0  0  0  0  0  0
  141.1832   80.5470  220.2395 H   0  0  0  0  0  0  0  0  0  0  0  0
  142.6682   82.1052  221.5908 H   0  0  0  0  0  0  0  0  0  0  0  0
  140.8541   81.9324  221.8623 H   0  0  0  0  0  0  0  0  0  0  0  0
  143.0513   80.7762  223.5810 H   0  0  0  0  0  0  0  0  0  0  0  0
  142.0122   82.1555  223.9851 H   0  0  0  0  0  0  0  0  0  0  0  0
  140.9888   80.1153  224.9347 H   0  0  0  0  0  0  0  0  0  0  0  0
  139.9706   80.6292  223.5711 H   0  0  0  0  0  0  0  0  0  0  0  0
  142.2632   78.6172  223.4220 H   0  0  0  0  0  0  0  0  0  0  0  0
  140.4911   78.2179  223.4970 H   0  0  0  0  0  0  0  0  0  0  0  0
  141.5995   76.2289  222.4917 H   0  0  0  0  0  0  0  0  0  0  0  0
  140.0539   76.9253  221.9653 H   0  0  0  0  0  0  0  0  0  0  0  0
  143.8606   76.0582  220.4042 H   0  0  0  0  0  0  0  0  0  0  0  0
  145.5428   74.2407  220.4053 H   0  0  0  0  0  0  0  0  0  0  0  0
  144.7726   71.8839  220.4881 H   0  0  0  0  0  0  0  0  0  0  0  0
  142.3588   71.3531  220.5773 H   0  0  0  0  0  0  0  0  0  0  0  0
  1  2  2  0
  2  3  1  0
  3  4  2  0
  4  5  1  0
  5  6  2  0
  6  7  1  0
  7  8  2  0
  8  9  1  0
  9 10  2  0
 10 11  1  0
 11 12  2  0
  6 13  1  0
 13 14  2  0
 14 15  1  0
 15 16  2  0
 16 17  1  0
  2 18  1  0
 18 19  1  0
 20 19  1  1
 20 21  1  0
 21 22  1  0
 22 23  1  0
 23 24  1  0
 24 25  1  0
 25 26  1  0
 26 27  1  0
 27 28  1  0
 28 29  1  0
 23 30  1  0
 20 31  1  0
 31 32  2  0
 32 33  1  0
 33 34  2  0
 34 35  1  0
 35 36  2  0
 17  3  1  0
 36 18  1  0
 16  5  1  0
 30 20  1  0
 36 31  1  0
 12  7  1  0
 29 24  1  0
  4 37  1  0
  8 38  1  0
  9 39  1  0
 10 40  1  0
 11 41  1  0
 12 42  1  0
 13 43  1  0
 14 44  1  0
 15 45  1  0
 17 46  1  0
 19 47  1  0
 19 48  1  0
 21 49  1  0
 21 50  1  0
 22 51  1  0
 22 52  1  0
 24 53  1  0
 25 54  1  0
 25 55  1  0
 26 56  1  0
 26 57  1  0
 27 58  1  0
 27 59  1  0
 28 60  1  0
 28 61  1  0
 29 62  1  0
 29 63  1  0
 30 64  1  0
 30 65  1  0
 32 66  1  0
 33 67  1  0
 34 68  1  0
 35 69  1  0
M  END
>  <smiles>  (30) 
O=C(c1cc2c(-c3ccccc3)cccc2[nH]1)N1C[C@]2(CCN(C3CCCCC3)C2)c2ccccc21

>  <score_type>  (30) 
oracle

>  <origin>  (30) 
autodockgpu

>  <m_score__min__energy>  (30) 
-10.609999999999999

>  <m_primary>  (30) 
energy

>  <rmsd>  (30) 
3.125712572131754

>  <m_score__min__rmsd>  (30) 
3.125712572131754

>  <meeko>  (30) 
{"free_energy": -10.58, "intermolecular_energy": -11.78, "internal_energy": -1.89, "cluster_size": 42, "cluster_id": 1, "rank_in_cluster": 7}

>  <energy>  (30) 
-10.38

>  <cluster_rmsd>  (30) 
0.74

>  <cluster>  (30) 
1

$$$$

     RDKit          3D

 69 75  0  0  0  0  0  0  0  0999 V2000
  139.5700   74.3800  222.3400 O   0  0  0  0  0  0  0  0  0  0  0  0
  140.3510   73.4080  222.0920 C   0  0  0  0  0  0  0  0  0  0  0  0
  139.9660   72.1360  222.6800 C   0  0  0  0  0  0  0  0  0  0  0  0
  140.2200   71.5550  223.8850 C   0  0  0  0  0  0  0  0  0  0  0  0
  139.6110   70.3110  223.8770 C   0  0  0  0  0  0  0  0  0  0  0  0
  139.5340   69.2940  224.7950 C   0  0  0  0  0  0  0  0  0  0  0  0
  140.0930   69.3210  226.1290 C   0  0  0  0  0  0  0  0  0  0  0  0
  140.3580   70.5270  226.7660 C   0  0  0  0  0  0  0  0  0  0  0  0
  140.9570   70.5700  228.0240 C   0  0  0  0  0  0  0  0  0  0  0  0
  141.2910   69.3610  228.6460 C   0  0  0  0  0  0  0  0  0  0  0  0
  141.0200   68.1480  227.9990 C   0  0  0  0  0  0  0  0  0  0  0  0
  140.4200   68.1430  226.7410 C   0  0  0  0  0  0  0  0  0  0  0  0
  138.8250   68.1400  224.4510 C   0  0  0  0  0  0  0  0  0  0  0  0
  138.2100   67.9870  223.2490 C   0  0  0  0  0  0  0  0  0  0  0  0
  138.2800   68.9920  222.3270 C   0  0  0  0  0  0  0  0  0  0  0  0
  138.9840   70.1530  222.6530 C   0  0  0  0  0  0  0  0  0  0  0  0
  139.2110   71.2580  221.9590 N   0  0  0  0  0  0  0  0  0  0  0  0
  141.5340   73.5920  221.2870 N   0  0  0  0  0  0  0  0  0  0  0  0
  142.4510   72.4830  221.0710 C   0  0  0  0  0  0  0  0  0  0  0  0
  143.5350   73.0370  220.2050 C   0  0  1  0  0  0  0  0  0  0  0  0
  144.8880   72.9180  220.8690 C   0  0  0  0  0  0  0  0  0  0  0  0
  145.8290   72.8090  219.7020 C   0  0  0  0  0  0  0  0  0  0  0  0
  145.0870   72.3780  218.5610 N   0  0  0  0  0  0  0  0  0  0  0  0
  145.6190   71.0990  218.0330 C   0  0  0  0  0  0  0  0  0  0  0  0
  144.6250   70.4150  217.1540 C   0  0  0  0  0  0  0  0  0  0  0  0
  144.6440   68.9410  217.1260 C   0  0  0  0  0  0  0  0  0  0  0  0
  144.9330   68.2760  218.4350 C   0  0  0  0  0  0  0  0  0  0  0  0
  146.2510   68.8590  218.9310 C   0  0  0  0  0  0  0  0  0  0  0  0
  145.9980   70.3020  219.2510 C   0  0  0  0  0  0  0  0  0  0  0  0
  143.7210   72.2340  218.9360 C   0  0  0  0  0  0  0  0  0  0  0  0
  143.1330   74.4210  219.9540 C   0  0  0  0  0  0  0  0  0  0  0  0
  143.7530   75.4090  219.2080 C   0  0  0  0  0  0  0  0  0  0  0  0
  143.2240   76.6790  219.0840 C   0  0  0  0  0  0  0  0  0  0  0  0
  142.0400   76.9600  219.7270 C   0  0  0  0  0  0  0  0  0  0  0  0
  141.3940   76.0040  220.4750 C   0  0  0  0  0  0  0  0  0  0  0  0
  141.9490   74.7450  220.5810 C   0  0  0  0  0  0  0  0  0  0  0  0
  140.8006   71.9921  224.7108 H   0  0  0  0  0  0  0  0  0  0  0  0
  140.0890   71.4693  226.2663 H   0  0  0  0  0  0  0  0  0  0  0  0
  141.1625   71.5318  228.5167 H   0  0  0  0  0  0  0  0  0  0  0  0
  141.7644   69.3633  229.6389 H   0  0  0  0  0  0  0  0  0  0  0  0
  141.2816   67.1967  228.4854 H   0  0  0  0  0  0  0  0  0  0  0  0
  140.2087   67.1875  226.2386 H   0  0  0  0  0  0  0  0  0  0  0  0
  138.7621   67.3217  225.1835 H   0  0  0  0  0  0  0  0  0  0  0  0
  137.6606   67.0618  223.0206 H   0  0  0  0  0  0  0  0  0  0  0  0
  137.7914   68.8889  221.3469 H   0  0  0  0  0  0  0  0  0  0  0  0
  138.8470   71.4060  220.9850 H   0  0  0  0  0  0  0  0  0  0  0  0
  142.8634   72.1309  222.0281 H   0  0  0  0  0  0  0  0  0  0  0  0
  141.9519   71.6204  220.6053 H   0  0  0  0  0  0  0  0  0  0  0  0
  145.1109   73.8088  221.4747 H   0  0  0  0  0  0  0  0  0  0  0  0
  144.9571   72.0670  221.5625 H   0  0  0  0  0  0  0  0  0  0  0  0
  146.2845   73.7896  219.4997 H   0  0  0  0  0  0  0  0  0  0  0  0
  146.6273   72.0866  219.9275 H   0  0  0  0  0  0  0  0  0  0  0  0
  146.4930   71.2407  217.3803 H   0  0  0  0  0  0  0  0  0  0  0  0
  143.6231   70.7257  217.4851 H   0  0  0  0  0  0  0  0  0  0  0  0
  144.8972   70.7189  216.1325 H   0  0  0  0  0  0  0  0  0  0  0  0
  143.6583   68.5958  216.7807 H   0  0  0  0  0  0  0  0  0  0  0  0
  145.4708   68.6621  216.4563 H   0  0  0  0  0  0  0  0  0  0  0  0
  144.1286   68.4871  219.1549 H   0  0  0  0  0  0  0  0  0  0  0  0
  144.9970   67.1837  218.3223 H   0  0  0  0  0  0  0  0  0  0  0  0
  146.5850   68.3248  219.8327 H   0  0  0  0  0  0  0  0  0  0  0  0
  147.0373   68.7575  218.1685 H   0  0  0  0  0  0  0  0  0  0  0  0
  145.1792   70.3637  219.9830 H   0  0  0  0  0  0  0  0  0  0  0  0
  146.9298   70.7257  219.6538 H   0  0  0  0  0  0  0  0  0  0  0  0
  143.0663   72.6220  218.1418 H   0  0  0  0  0  0  0  0  0  0  0  0
  143.4619   71.1766  219.0936 H   0  0  0  0  0  0  0  0  0  0  0  0
  144.6985   75.1747  218.6969 H   0  0  0  0  0  0  0  0  0  0  0  0
  143.7365   77.4470  218.4860 H   0  0  0  0  0  0  0  0  0  0  0  0
  141.6033   77.9659  219.6411 H   0  0  0  0  0  0  0  0  0  0  0  0
  140.4469   76.2398  220.9824 H   0  0  0  0  0  0  0  0  0  0  0  0
  1  2  2  0
  2  3  1  0
  3  4  2  0
  4  5  1  0
  5  6  2  0
  6  7  1  0
  7  8  2  0
  8  9  1  0
  9 10  2  0
 10 11  1  0
 11 12  2  0
  6 13  1  0
 13 14  2  0
 14 15  1  0
 15 16  2  0
 16 17  1  0
  2 18  1  0
 18 19  1  0
 20 19  1  1
 20 21  1  0
 21 22  1  0
 22 23  1  0
 23 24  1  0
 24 25  1  0
 25 26  1  0
 26 27  1  0
 27 28  1  0
 28 29  1  0
 23 30  1  0
 20 31  1  0
 31 32  2  0
 32 33  1  0
 33 34  2  0
 34 35  1  0
 35 36  2  0
 17  3  1  0
 36 18  1  0
 16  5  1  0
 30 20  1  0
 36 31  1  0
 12  7  1  0
 29 24  1  0
  4 37  1  0
  8 38  1  0
  9 39  1  0
 10 40  1  0
 11 41  1  0
 12 42  1  0
 13 43  1  0
 14 44  1  0
 15 45  1  0
 17 46  1  0
 19 47  1  0
 19 48  1  0
 21 49  1  0
 21 50  1  0
 22 51  1  0
 22 52  1  0
 24 53  1  0
 25 54  1  0
 25 55  1  0
 26 56  1  0
 26 57  1  0
 27 58  1  0
 27 59  1  0
 28 60  1  0
 28 61  1  0
 29 62  1  0
 29 63  1  0
 30 64  1  0
 30 65  1  0
 32 66  1  0
 33 67  1  0
 34 68  1  0
 35 69  1  0
M  END
>  <smiles>  (31) 
O=C(c1cc2c(-c3ccccc3)cccc2[nH]1)N1C[C@]2(CCN(C3CCCCC3)C2)c2ccccc21

>  <score_type>  (31) 
oracle

>  <origin>  (31) 
autodockgpu

>  <m_score__min__energy>  (31) 
-10.609999999999999

>  <m_primary>  (31) 
energy

>  <rmsd>  (31) 
7.3349510361556005

>  <m_score__min__rmsd>  (31) 
7.3349510361556005

>  <meeko>  (31) 
{"free_energy": -10.39, "intermolecular_energy": -11.59, "internal_energy": -1.66, "cluster_size": 6, "cluster_id": 2, "rank_in_cluster": 1}

>  <energy>  (31) 
-10.38

>  <cluster_rmsd>  (31) 
0.72

>  <cluster>  (31) 
1

$$$$

     RDKit          3D

 69 75  0  0  0  0  0  0  0  0999 V2000
  138.6820   72.1010  219.6590 O   0  0  0  0  0  0  0  0  0  0  0  0
  139.5330   72.3040  220.5800 C   0  0  0  0  0  0  0  0  0  0  0  0
  139.5250   71.3320  221.6590 C   0  0  0  0  0  0  0  0  0  0  0  0
  139.8750   71.4010  222.9750 C   0  0  0  0  0  0  0  0  0  0  0  0
  139.6810   70.1420  223.5170 C   0  0  0  0  0  0  0  0  0  0  0  0
  139.8680   69.6170  224.7710 C   0  0  0  0  0  0  0  0  0  0  0  0
  140.3110   70.3550  225.9340 C   0  0  0  0  0  0  0  0  0  0  0  0
  139.9330   69.9640  227.2130 C   0  0  0  0  0  0  0  0  0  0  0  0
  140.2970   70.7020  228.3380 C   0  0  0  0  0  0  0  0  0  0  0  0
  141.0630   71.8600  228.1570 C   0  0  0  0  0  0  0  0  0  0  0  0
  141.4430   72.2480  226.8650 C   0  0  0  0  0  0  0  0  0  0  0  0
  141.0590   71.4860  225.7620 C   0  0  0  0  0  0  0  0  0  0  0  0
  139.5710   68.2670  224.9790 C   0  0  0  0  0  0  0  0  0  0  0  0
  139.1060   67.4590  223.9920 C   0  0  0  0  0  0  0  0  0  0  0  0
  138.9170   67.9680  222.7390 C   0  0  0  0  0  0  0  0  0  0  0  0
  139.2070   69.3150  222.5130 C   0  0  0  0  0  0  0  0  0  0  0  0
  139.1230   70.0520  221.4150 N   0  0  0  0  0  0  0  0  0  0  0  0
  140.4250   73.4380  220.5310 N   0  0  0  0  0  0  0  0  0  0  0  0
  139.8900   74.7900  220.5450 C   0  0  0  0  0  0  0  0  0  0  0  0
  141.0860   75.6840  220.4870 C   0  0  1  0  0  0  0  0  0  0  0  0
  141.0420   76.5880  219.2750 C   0  0  0  0  0  0  0  0  0  0  0  0
  141.8070   77.7990  219.7300 C   0  0  0  0  0  0  0  0  0  0  0  0
  141.8150   77.8200  221.1580 N   0  0  0  0  0  0  0  0  0  0  0  0
  141.1880   79.0590  221.6750 C   0  0  0  0  0  0  0  0  0  0  0  0
  141.8070   80.2770  221.0740 C   0  0  0  0  0  0  0  0  0  0  0  0
  141.8530   81.4950  221.9040 C   0  0  0  0  0  0  0  0  0  0  0  0
  142.1180   81.2730  223.3600 C   0  0  0  0  0  0  0  0  0  0  0  0
  141.0590   80.2880  223.8430 C   0  0  0  0  0  0  0  0  0  0  0  0
  141.3410   78.9780  223.1690 C   0  0  0  0  0  0  0  0  0  0  0  0
  141.1190   76.6720  221.6320 C   0  0  0  0  0  0  0  0  0  0  0  0
  142.2270   74.7690  220.4850 C   0  0  0  0  0  0  0  0  0  0  0  0
  143.5850   75.0360  220.4490 C   0  0  0  0  0  0  0  0  0  0  0  0
  144.5330   74.0320  220.4500 C   0  0  0  0  0  0  0  0  0  0  0  0
  144.1030   72.7250  220.4870 C   0  0  0  0  0  0  0  0  0  0  0  0
  142.7620   72.4210  220.5260 C   0  0  0  0  0  0  0  0  0  0  0  0
  141.8400   73.4470  220.5230 C   0  0  0  0  0  0  0  0  0  0  0  0
  140.2428   72.2909  223.5068 H   0  0  0  0  0  0  0  0  0  0  0  0
  139.3327   69.0511  227.3404 H   0  0  0  0  0  0  0  0  0  0  0  0
  139.9896   70.3821  229.3446 H   0  0  0  0  0  0  0  0  0  0  0  0
  141.3655   72.4631  229.0258 H   0  0  0  0  0  0  0  0  0  0  0  0
  142.0461   73.1565  226.7205 H   0  0  0  0  0  0  0  0  0  0  0  0
  141.3591   71.7962  224.7502 H   0  0  0  0  0  0  0  0  0  0  0  0
  139.7200   67.8422  225.9827 H   0  0  0  0  0  0  0  0  0  0  0  0
  138.8831   66.4021  224.2001 H   0  0  0  0  0  0  0  0  0  0  0  0
  138.5439   67.3299  221.9244 H   0  0  0  0  0  0  0  0  0  0  0  0
  138.7890   69.6710  220.4950 H   0  0  0  0  0  0  0  0  0  0  0  0
  139.2406   74.9571  219.6730 H   0  0  0  0  0  0  0  0  0  0  0  0
  139.2765   74.9807  221.4379 H   0  0  0  0  0  0  0  0  0  0  0  0
  141.5294   76.1141  218.4102 H   0  0  0  0  0  0  0  0  0  0  0  0
  140.0191   76.8201  218.9437 H   0  0  0  0  0  0  0  0  0  0  0  0
  142.8395   77.7486  219.3539 H   0  0  0  0  0  0  0  0  0  0  0  0
  141.3321   78.7123  219.3424 H   0  0  0  0  0  0  0  0  0  0  0  0
  140.1258   79.1427  221.4017 H   0  0  0  0  0  0  0  0  0  0  0  0
  142.8426   80.0221  220.8046 H   0  0  0  0  0  0  0  0  0  0  0  0
  141.1527   80.5371  220.2289 H   0  0  0  0  0  0  0  0  0  0  0  0
  142.6490   82.1438  221.5098 H   0  0  0  0  0  0  0  0  0  0  0  0
  140.8484   81.9392  221.8443 H   0  0  0  0  0  0  0  0  0  0  0  0
  143.1238   80.8517  223.5041 H   0  0  0  0  0  0  0  0  0  0  0  0
  142.0721   82.2169  223.9230 H   0  0  0  0  0  0  0  0  0  0  0  0
  141.1205   80.1722  224.9352 H   0  0  0  0  0  0  0  0  0  0  0  0
  140.0481   80.6463  223.5987 H   0  0  0  0  0  0  0  0  0  0  0  0
  142.3722   78.6748  223.4029 H   0  0  0  0  0  0  0  0  0  0  0  0
  140.6115   78.2441  223.5422 H   0  0  0  0  0  0  0  0  0  0  0  0
  141.6466   76.2371  222.4937 H   0  0  0  0  0  0  0  0  0  0  0  0
  140.1022   76.9321  221.9612 H   0  0  0  0  0  0  0  0  0  0  0  0
  143.9201   76.0833  220.4186 H   0  0  0  0  0  0  0  0  0  0  0  0
  145.6063   74.2710  220.4219 H   0  0  0  0  0  0  0  0  0  0  0  0
  144.8430   71.9111  220.4854 H   0  0  0  0  0  0  0  0  0  0  0  0
  142.4291   71.3731  220.5592 H   0  0  0  0  0  0  0  0  0  0  0  0
  1  2  2  0
  2  3  1  0
  3  4  2  0
  4  5  1  0
  5  6  2  0
  6  7  1  0
  7  8  2  0
  8  9  1  0
  9 10  2  0
 10 11  1  0
 11 12  2  0
  6 13  1  0
 13 14  2  0
 14 15  1  0
 15 16  2  0
 16 17  1  0
  2 18  1  0
 18 19  1  0
 20 19  1  1
 20 21  1  0
 21 22  1  0
 22 23  1  0
 23 24  1  0
 24 25  1  0
 25 26  1  0
 26 27  1  0
 27 28  1  0
 28 29  1  0
 23 30  1  0
 20 31  1  0
 31 32  2  0
 32 33  1  0
 33 34  2  0
 34 35  1  0
 35 36  2  0
 17  3  1  0
 36 18  1  0
 16  5  1  0
 30 20  1  0
 36 31  1  0
 12  7  1  0
 29 24  1  0
  4 37  1  0
  8 38  1  0
  9 39  1  0
 10 40  1  0
 11 41  1  0
 12 42  1  0
 13 43  1  0
 14 44  1  0
 15 45  1  0
 17 46  1  0
 19 47  1  0
 19 48  1  0
 21 49  1  0
 21 50  1  0
 22 51  1  0
 22 52  1  0
 24 53  1  0
 25 54  1  0
 25 55  1  0
 26 56  1  0
 26 57  1  0
 27 58  1  0
 27 59  1  0
 28 60  1  0
 28 61  1  0
 29 62  1  0
 29 63  1  0
 30 64  1  0
 30 65  1  0
 32 66  1  0
 33 67  1  0
 34 68  1  0
 35 69  1  0
M  END
>  <smiles>  (32) 
O=C(c1cc2c(-c3ccccc3)cccc2[nH]1)N1C[C@]2(CCN(C3CCCCC3)C2)c2ccccc21

>  <score_type>  (32) 
oracle

>  <origin>  (32) 
autodockgpu

>  <m_score__min__energy>  (32) 
-10.609999999999999

>  <m_primary>  (32) 
energy

>  <rmsd>  (32) 
3.1187107684940014

>  <m_score__min__rmsd>  (32) 
3.1187107684940014

>  <meeko>  (32) 
{"free_energy": -10.59, "intermolecular_energy": -11.79, "internal_energy": -1.87, "cluster_size": 42, "cluster_id": 1, "rank_in_cluster": 6}

>  <energy>  (32) 
-10.36

>  <cluster_rmsd>  (32) 
0.74

>  <cluster>  (32) 
1

$$$$

     RDKit          3D

 69 75  0  0  0  0  0  0  0  0999 V2000
  138.5920   72.1710  219.7440 O   0  0  0  0  0  0  0  0  0  0  0  0
  139.4640   72.3690  220.6460 C   0  0  0  0  0  0  0  0  0  0  0  0
  139.4760   71.3950  221.7240 C   0  0  0  0  0  0  0  0  0  0  0  0
  139.7820   71.4790  223.0490 C   0  0  0  0  0  0  0  0  0  0  0  0
  139.6390   70.2090  223.5840 C   0  0  0  0  0  0  0  0  0  0  0  0
  139.8150   69.6910  224.8430 C   0  0  0  0  0  0  0  0  0  0  0  0
  140.1830   70.4490  226.0190 C   0  0  0  0  0  0  0  0  0  0  0  0
  141.0460   71.5350  225.9260 C   0  0  0  0  0  0  0  0  0  0  0  0
  141.4620   72.2330  227.0580 C   0  0  0  0  0  0  0  0  0  0  0  0
  140.9890   71.8190  228.3100 C   0  0  0  0  0  0  0  0  0  0  0  0
  140.1180   70.7240  228.3970 C   0  0  0  0  0  0  0  0  0  0  0  0
  139.7240   70.0480  227.2430 C   0  0  0  0  0  0  0  0  0  0  0  0
  139.5850   68.3270  225.0400 C   0  0  0  0  0  0  0  0  0  0  0  0
  139.1930   67.4980  224.0380 C   0  0  0  0  0  0  0  0  0  0  0  0
  139.0150   68.0000  222.7810 C   0  0  0  0  0  0  0  0  0  0  0  0
  139.2400   69.3610  222.5650 C   0  0  0  0  0  0  0  0  0  0  0  0
  139.1500   70.0960  221.4660 N   0  0  0  0  0  0  0  0  0  0  0  0
  140.3600   73.4980  220.5800 N   0  0  0  0  0  0  0  0  0  0  0  0
  139.8300   74.8530  220.5840 C   0  0  0  0  0  0  0  0  0  0  0  0
  141.0290   75.7410  220.5090 C   0  0  1  0  0  0  0  0  0  0  0  0
  140.9800   76.6330  219.2890 C   0  0  0  0  0  0  0  0  0  0  0  0
  141.7530   77.8460  219.7260 C   0  0  0  0  0  0  0  0  0  0  0  0
  141.7710   77.8810  221.1530 N   0  0  0  0  0  0  0  0  0  0  0  0
  141.1520   79.1270  221.6630 C   0  0  0  0  0  0  0  0  0  0  0  0
  141.8380   80.3380  221.1240 C   0  0  0  0  0  0  0  0  0  0  0  0
  141.8740   81.5370  221.9810 C   0  0  0  0  0  0  0  0  0  0  0  0
  142.0530   81.2770  223.4440 C   0  0  0  0  0  0  0  0  0  0  0  0
  140.9410   80.3150  223.8470 C   0  0  0  0  0  0  0  0  0  0  0  0
  141.2210   79.0110  223.1610 C   0  0  0  0  0  0  0  0  0  0  0  0
  141.0740   76.7400  221.6440 C   0  0  0  0  0  0  0  0  0  0  0  0
  142.1670   74.8220  220.5080 C   0  0  0  0  0  0  0  0  0  0  0  0
  143.5250   75.0830  220.4590 C   0  0  0  0  0  0  0  0  0  0  0  0
  144.4700   74.0750  220.4620 C   0  0  0  0  0  0  0  0  0  0  0  0
  144.0350   72.7710  220.5160 C   0  0  0  0  0  0  0  0  0  0  0  0
  142.6930   72.4730  220.5680 C   0  0  0  0  0  0  0  0  0  0  0  0
  141.7750   73.5020  220.5620 C   0  0  0  0  0  0  0  0  0  0  0  0
  140.0858   72.3858  223.5925 H   0  0  0  0  0  0  0  0  0  0  0  0
  141.4086   71.8504  224.9365 H   0  0  0  0  0  0  0  0  0  0  0  0
  142.1464   73.0897  226.9705 H   0  0  0  0  0  0  0  0  0  0  0  0
  141.2998   72.3511  229.2212 H   0  0  0  0  0  0  0  0  0  0  0  0
  139.7443   70.3972  229.3786 H   0  0  0  0  0  0  0  0  0  0  0  0
  139.0413   69.1887  227.3175 H   0  0  0  0  0  0  0  0  0  0  0  0
  139.7271   67.9077  226.0470 H   0  0  0  0  0  0  0  0  0  0  0  0
  139.0202   66.4302  224.2378 H   0  0  0  0  0  0  0  0  0  0  0  0
  138.7006   67.3453  221.9548 H   0  0  0  0  0  0  0  0  0  0  0  0
  138.8640   69.7000  220.5360 H   0  0  0  0  0  0  0  0  0  0  0  0
  139.1754   75.0140  219.7148 H   0  0  0  0  0  0  0  0  0  0  0  0
  139.2231   75.0552  221.4789 H   0  0  0  0  0  0  0  0  0  0  0  0
  141.4593   76.1486  218.4255 H   0  0  0  0  0  0  0  0  0  0  0  0
  139.9555   76.8659  218.9631 H   0  0  0  0  0  0  0  0  0  0  0  0
  142.7826   77.7878  219.3431 H   0  0  0  0  0  0  0  0  0  0  0  0
  141.2791   78.7573  219.3323 H   0  0  0  0  0  0  0  0  0  0  0  0
  140.1091   79.2474  221.3346 H   0  0  0  0  0  0  0  0  0  0  0  0
  142.8790   80.0574  220.9057 H   0  0  0  0  0  0  0  0  0  0  0  0
  141.2383   80.6350  220.2510 H   0  0  0  0  0  0  0  0  0  0  0  0
  142.7087   82.1695  221.6444 H   0  0  0  0  0  0  0  0  0  0  0  0
  140.8877   82.0129  221.8769 H   0  0  0  0  0  0  0  0  0  0  0  0
  143.0368   80.8224  223.6324 H   0  0  0  0  0  0  0  0  0  0  0  0
  142.0044   82.2100  224.0247 H   0  0  0  0  0  0  0  0  0  0  0  0
  140.9390   80.1753  224.9381 H   0  0  0  0  0  0  0  0  0  0  0  0
  139.9560   80.7087  223.5559 H   0  0  0  0  0  0  0  0  0  0  0  0
  142.2287   78.6721  223.4434 H   0  0  0  0  0  0  0  0  0  0  0  0
  140.4513   78.2920  223.4784 H   0  0  0  0  0  0  0  0  0  0  0  0
  141.6064   76.3117  222.5060 H   0  0  0  0  0  0  0  0  0  0  0  0
  140.0607   77.0071  221.9784 H   0  0  0  0  0  0  0  0  0  0  0  0
  143.8638   76.1287  220.4162 H   0  0  0  0  0  0  0  0  0  0  0  0
  145.5440   74.3095  220.4222 H   0  0  0  0  0  0  0  0  0  0  0  0
  144.7716   71.9540  220.5176 H   0  0  0  0  0  0  0  0  0  0  0  0
  142.3563   71.4268  220.6138 H   0  0  0  0  0  0  0  0  0  0  0  0
  1  2  2  0
  2  3  1  0
  3  4  2  0
  4  5  1  0
  5  6  2  0
  6  7  1  0
  7  8  2  0
  8  9  1  0
  9 10  2  0
 10 11  1  0
 11 12  2  0
  6 13  1  0
 13 14  2  0
 14 15  1  0
 15 16  2  0
 16 17  1  0
  2 18  1  0
 18 19  1  0
 20 19  1  1
 20 21  1  0
 21 22  1  0
 22 23  1  0
 23 24  1  0
 24 25  1  0
 25 26  1  0
 26 27  1  0
 27 28  1  0
 28 29  1  0
 23 30  1  0
 20 31  1  0
 31 32  2  0
 32 33  1  0
 33 34  2  0
 34 35  1  0
 35 36  2  0
 17  3  1  0
 36 18  1  0
 16  5  1  0
 30 20  1  0
 36 31  1  0
 12  7  1  0
 29 24  1  0
  4 37  1  0
  8 38  1  0
  9 39  1  0
 10 40  1  0
 11 41  1  0
 12 42  1  0
 13 43  1  0
 14 44  1  0
 15 45  1  0
 17 46  1  0
 19 47  1  0
 19 48  1  0
 21 49  1  0
 21 50  1  0
 22 51  1  0
 22 52  1  0
 24 53  1  0
 25 54  1  0
 25 55  1  0
 26 56  1  0
 26 57  1  0
 27 58  1  0
 27 59  1  0
 28 60  1  0
 28 61  1  0
 29 62  1  0
 29 63  1  0
 30 64  1  0
 30 65  1  0
 32 66  1  0
 33 67  1  0
 34 68  1  0
 35 69  1  0
M  END
>  <smiles>  (33) 
O=C(c1cc2c(-c3ccccc3)cccc2[nH]1)N1C[C@]2(CCN(C3CCCCC3)C2)c2ccccc21

>  <score_type>  (33) 
oracle

>  <origin>  (33) 
autodockgpu

>  <m_score__min__energy>  (33) 
-10.609999999999999

>  <m_primary>  (33) 
energy

>  <rmsd>  (33) 
2.96338196179766

>  <m_score__min__rmsd>  (33) 
2.96338196179766

>  <meeko>  (33) 
{"free_energy": -10.59, "intermolecular_energy": -11.79, "internal_energy": -1.89, "cluster_size": 42, "cluster_id": 1, "rank_in_cluster": 5}

>  <energy>  (33) 
-10.33

>  <cluster_rmsd>  (33) 
0.76

>  <cluster>  (33) 
1

$$$$

     RDKit          3D

 69 75  0  0  0  0  0  0  0  0999 V2000
  137.8790   73.1420  220.2970 O   0  0  0  0  0  0  0  0  0  0  0  0
  138.9620   73.0690  220.9570 C   0  0  0  0  0  0  0  0  0  0  0  0
  139.0400   71.9710  221.9050 C   0  0  0  0  0  0  0  0  0  0  0  0
  139.4670   71.8870  223.1970 C   0  0  0  0  0  0  0  0  0  0  0  0
  139.3330   70.5650  223.5870 C   0  0  0  0  0  0  0  0  0  0  0  0
  139.6060   69.8950  224.7530 C   0  0  0  0  0  0  0  0  0  0  0  0
  140.1030   70.4960  225.9720 C   0  0  0  0  0  0  0  0  0  0  0  0
  140.8590   71.6610  225.9340 C   0  0  0  0  0  0  0  0  0  0  0  0
  141.4010   72.2160  227.0930 C   0  0  0  0  0  0  0  0  0  0  0  0
  141.1670   71.5710  228.3140 C   0  0  0  0  0  0  0  0  0  0  0  0
  140.4020   70.3980  228.3450 C   0  0  0  0  0  0  0  0  0  0  0  0
  139.8770   69.8710  227.1660 C   0  0  0  0  0  0  0  0  0  0  0  0
  139.3500   68.5220  224.8070 C   0  0  0  0  0  0  0  0  0  0  0  0
  138.8440   67.8290  223.7550 C   0  0  0  0  0  0  0  0  0  0  0  0
  138.5680   68.4840  222.5890 C   0  0  0  0  0  0  0  0  0  0  0  0
  138.8160   69.8560  222.5170 C   0  0  0  0  0  0  0  0  0  0  0  0
  138.6500   70.7200  221.5260 N   0  0  0  0  0  0  0  0  0  0  0  0
  140.0180   74.0330  220.7610 N   0  0  0  0  0  0  0  0  0  0  0  0
  139.7060   75.4510  220.6720 C   0  0  0  0  0  0  0  0  0  0  0  0
  141.0230   76.1290  220.4760 C   0  0  1  0  0  0  0  0  0  0  0  0
  141.0510   76.9210  219.1880 C   0  0  0  0  0  0  0  0  0  0  0  0
  142.0250   78.0250  219.4920 C   0  0  0  0  0  0  0  0  0  0  0  0
  142.1210   78.1660  220.9090 N   0  0  0  0  0  0  0  0  0  0  0  0
  141.7310   79.5300  221.3360 C   0  0  0  0  0  0  0  0  0  0  0  0
  142.5840   80.0150  222.4620 C   0  0  0  0  0  0  0  0  0  0  0  0
  141.9650   80.9340  223.4350 C   0  0  0  0  0  0  0  0  0  0  0  0
  140.5340   80.6490  223.7700 C   0  0  0  0  0  0  0  0  0  0  0  0
  139.7810   80.6240  222.4440 C   0  0  0  0  0  0  0  0  0  0  0  0
  140.2720   79.4270  221.6860 C   0  0  0  0  0  0  0  0  0  0  0  0
  141.2820   77.1920  221.5210 C   0  0  0  0  0  0  0  0  0  0  0  0
  142.0020   75.0420  220.5080 C   0  0  0  0  0  0  0  0  0  0  0  0
  143.3810   75.0790  220.3850 C   0  0  0  0  0  0  0  0  0  0  0  0
  144.1560   73.9370  220.4370 C   0  0  0  0  0  0  0  0  0  0  0  0
  143.5260   72.7270  220.6170 C   0  0  0  0  0  0  0  0  0  0  0  0
  142.1590   72.6510  220.7450 C   0  0  0  0  0  0  0  0  0  0  0  0
  141.4130   73.8100  220.6880 C   0  0  0  0  0  0  0  0  0  0  0  0
  139.8469   72.7145  223.8142 H   0  0  0  0  0  0  0  0  0  0  0  0
  141.0340   72.1569  224.9679 H   0  0  0  0  0  0  0  0  0  0  0  0
  141.9983   73.1387  227.0492 H   0  0  0  0  0  0  0  0  0  0  0  0
  141.5824   71.9840  229.2451 H   0  0  0  0  0  0  0  0  0  0  0  0
  140.2148   69.8909  229.3030 H   0  0  0  0  0  0  0  0  0  0  0  0
  139.2786   68.9486  227.1969 H   0  0  0  0  0  0  0  0  0  0  0  0
  139.5674   67.9810  225.7398 H   0  0  0  0  0  0  0  0  0  0  0  0
  138.6578   66.7483  223.8412 H   0  0  0  0  0  0  0  0  0  0  0  0
  138.1586   67.9416  221.7240 H   0  0  0  0  0  0  0  0  0  0  0  0
  138.2690   70.4470  220.5870 H   0  0  0  0  0  0  0  0  0  0  0  0
  139.0402   75.6469  219.8185 H   0  0  0  0  0  0  0  0  0  0  0  0
  139.1851   75.8151  221.5699 H   0  0  0  0  0  0  0  0  0  0  0  0
  141.4041   76.3015  218.3504 H   0  0  0  0  0  0  0  0  0  0  0  0
  140.0601   77.2885  218.8831 H   0  0  0  0  0  0  0  0  0  0  0  0
  143.0120   77.7741  219.0763 H   0  0  0  0  0  0  0  0  0  0  0  0
  141.6795   78.9673  219.0418 H   0  0  0  0  0  0  0  0  0  0  0  0
  141.8844   80.2808  220.5468 H   0  0  0  0  0  0  0  0  0  0  0  0
  142.9311   79.1312  223.0174 H   0  0  0  0  0  0  0  0  0  0  0  0
  143.3760   80.6071  221.9802 H   0  0  0  0  0  0  0  0  0  0  0  0
  142.5477   80.8840  224.3667 H   0  0  0  0  0  0  0  0  0  0  0  0
  141.9724   81.9263  222.9604 H   0  0  0  0  0  0  0  0  0  0  0  0
  140.4476   79.6759  224.2755 H   0  0  0  0  0  0  0  0  0  0  0  0
  140.1229   81.4105  224.4490 H   0  0  0  0  0  0  0  0  0  0  0  0
  138.6993   80.5394  222.6249 H   0  0  0  0  0  0  0  0  0  0  0  0
  139.9557   81.5490  221.8748 H   0  0  0  0  0  0  0  0  0  0  0  0
  140.1193   78.5301  222.3043 H   0  0  0  0  0  0  0  0  0  0  0  0
  139.7044   79.3691  220.7456 H   0  0  0  0  0  0  0  0  0  0  0  0
  141.7856   76.7516  222.3941 H   0  0  0  0  0  0  0  0  0  0  0  0
  140.3415   77.6418  221.8719 H   0  0  0  0  0  0  0  0  0  0  0  0
  143.8758   76.0508  220.2410 H   0  0  0  0  0  0  0  0  0  0  0  0
  145.2500   73.9933  220.3370 H   0  0  0  0  0  0  0  0  0  0  0  0
  144.1255   71.8057  220.6592 H   0  0  0  0  0  0  0  0  0  0  0  0
  141.6665   71.6783  220.8910 H   0  0  0  0  0  0  0  0  0  0  0  0
  1  2  2  0
  2  3  1  0
  3  4  2  0
  4  5  1  0
  5  6  2  0
  6  7  1  0
  7  8  2  0
  8  9  1  0
  9 10  2  0
 10 11  1  0
 11 12  2  0
  6 13  1  0
 13 14  2  0
 14 15  1  0
 15 16  2  0
 16 17  1  0
  2 18  1  0
 18 19  1  0
 20 19  1  1
 20 21  1  0
 21 22  1  0
 22 23  1  0
 23 24  1  0
 24 25  1  0
 25 26  1  0
 26 27  1  0
 27 28  1  0
 28 29  1  0
 23 30  1  0
 20 31  1  0
 31 32  2  0
 32 33  1  0
 33 34  2  0
 34 35  1  0
 35 36  2  0
 17  3  1  0
 36 18  1  0
 16  5  1  0
 30 20  1  0
 36 31  1  0
 12  7  1  0
 29 24  1  0
  4 37  1  0
  8 38  1  0
  9 39  1  0
 10 40  1  0
 11 41  1  0
 12 42  1  0
 13 43  1  0
 14 44  1  0
 15 45  1  0
 17 46  1  0
 19 47  1  0
 19 48  1  0
 21 49  1  0
 21 50  1  0
 22 51  1  0
 22 52  1  0
 24 53  1  0
 25 54  1  0
 25 55  1  0
 26 56  1  0
 26 57  1  0
 27 58  1  0
 27 59  1  0
 28 60  1  0
 28 61  1  0
 29 62  1  0
 29 63  1  0
 30 64  1  0
 30 65  1  0
 32 66  1  0
 33 67  1  0
 34 68  1  0
 35 69  1  0
M  END
>  <smiles>  (34) 
O=C(c1cc2c(-c3ccccc3)cccc2[nH]1)N1C[C@]2(CCN(C3CCCCC3)C2)c2ccccc21

>  <score_type>  (34) 
oracle

>  <origin>  (34) 
autodockgpu

>  <m_score__min__energy>  (34) 
-10.609999999999999

>  <m_primary>  (34) 
energy

>  <rmsd>  (34) 
2.8720912425605296

>  <m_score__min__rmsd>  (34) 
2.8720912425605296

>  <meeko>  (34) 
{"free_energy": -10.38, "intermolecular_energy": -11.57, "internal_energy": -1.9, "cluster_size": 42, "cluster_id": 1, "rank_in_cluster": 31}

>  <energy>  (34) 
-10.32

>  <cluster_rmsd>  (34) 
0.74

>  <cluster>  (34) 
1

$$$$

     RDKit          3D

 69 75  0  0  0  0  0  0  0  0999 V2000
  138.6150   72.1220  219.7130 O   0  0  0  0  0  0  0  0  0  0  0  0
  139.4770   72.3220  220.6250 C   0  0  0  0  0  0  0  0  0  0  0  0
  139.4780   71.3490  221.7040 C   0  0  0  0  0  0  0  0  0  0  0  0
  139.8230   71.4220  223.0210 C   0  0  0  0  0  0  0  0  0  0  0  0
  139.6430   70.1600  223.5610 C   0  0  0  0  0  0  0  0  0  0  0  0
  139.8320   69.6370  224.8160 C   0  0  0  0  0  0  0  0  0  0  0  0
  140.2610   70.3810  225.9810 C   0  0  0  0  0  0  0  0  0  0  0  0
  139.7990   70.0480  227.2480 C   0  0  0  0  0  0  0  0  0  0  0  0
  140.1510   70.7950  228.3710 C   0  0  0  0  0  0  0  0  0  0  0  0
  140.9930   71.9010  228.2000 C   0  0  0  0  0  0  0  0  0  0  0  0
  141.4580   72.2300  226.9190 C   0  0  0  0  0  0  0  0  0  0  0  0
  141.0830   71.4610  225.8190 C   0  0  0  0  0  0  0  0  0  0  0  0
  139.5520   68.2840  225.0220 C   0  0  0  0  0  0  0  0  0  0  0  0
  139.1010   67.4700  224.0330 C   0  0  0  0  0  0  0  0  0  0  0  0
  138.9100   67.9770  222.7800 C   0  0  0  0  0  0  0  0  0  0  0  0
  139.1830   69.3270  222.5550 C   0  0  0  0  0  0  0  0  0  0  0  0
  139.0930   70.0640  221.4580 N   0  0  0  0  0  0  0  0  0  0  0  0
  140.3730   73.4520  220.5660 N   0  0  0  0  0  0  0  0  0  0  0  0
  139.8420   74.8060  220.5690 C   0  0  0  0  0  0  0  0  0  0  0  0
  141.0410   75.6960  220.5030 C   0  0  1  0  0  0  0  0  0  0  0  0
  140.9990   76.5900  219.2840 C   0  0  0  0  0  0  0  0  0  0  0  0
  141.7680   77.8020  219.7290 C   0  0  0  0  0  0  0  0  0  0  0  0
  141.7760   77.8350  221.1560 N   0  0  0  0  0  0  0  0  0  0  0  0
  141.1540   79.0800  221.6640 C   0  0  0  0  0  0  0  0  0  0  0  0
  141.8450   80.2920  221.1340 C   0  0  0  0  0  0  0  0  0  0  0  0
  141.8730   81.4890  221.9950 C   0  0  0  0  0  0  0  0  0  0  0  0
  142.0380   81.2250  223.4590 C   0  0  0  0  0  0  0  0  0  0  0  0
  140.9220   80.2620  223.8490 C   0  0  0  0  0  0  0  0  0  0  0  0
  141.2090   78.9600  223.1620 C   0  0  0  0  0  0  0  0  0  0  0  0
  141.0780   76.6930  221.6400 C   0  0  0  0  0  0  0  0  0  0  0  0
  142.1790   74.7770  220.5080 C   0  0  0  0  0  0  0  0  0  0  0  0
  143.5370   75.0390  220.4690 C   0  0  0  0  0  0  0  0  0  0  0  0
  144.4830   74.0320  220.4770 C   0  0  0  0  0  0  0  0  0  0  0  0
  144.0480   72.7280  220.5260 C   0  0  0  0  0  0  0  0  0  0  0  0
  142.7070   72.4280  220.5680 C   0  0  0  0  0  0  0  0  0  0  0  0
  141.7870   73.4560  220.5580 C   0  0  0  0  0  0  0  0  0  0  0  0
  140.1779   72.3161  223.5545 H   0  0  0  0  0  0  0  0  0  0  0  0
  139.1405   69.1751  227.3678 H   0  0  0  0  0  0  0  0  0  0  0  0
  139.7761   70.5221  229.3685 H   0  0  0  0  0  0  0  0  0  0  0  0
  141.2884   72.5093  229.0676 H   0  0  0  0  0  0  0  0  0  0  0  0
  142.1205   73.0973  226.7818 H   0  0  0  0  0  0  0  0  0  0  0  0
  141.4501   71.7243  224.8160 H   0  0  0  0  0  0  0  0  0  0  0  0
  139.7030   67.8608  226.0260 H   0  0  0  0  0  0  0  0  0  0  0  0
  138.8912   66.4102  224.2400 H   0  0  0  0  0  0  0  0  0  0  0  0
  138.5481   67.3343  221.9639 H   0  0  0  0  0  0  0  0  0  0  0  0
  138.7680   69.6790  220.5360 H   0  0  0  0  0  0  0  0  0  0  0  0
  139.1927   74.9679  219.6960 H   0  0  0  0  0  0  0  0  0  0  0  0
  139.2295   75.0060  221.4606 H   0  0  0  0  0  0  0  0  0  0  0  0
  141.4844   76.1077  218.4227 H   0  0  0  0  0  0  0  0  0  0  0  0
  139.9767   76.8226  218.9512 H   0  0  0  0  0  0  0  0  0  0  0  0
  142.8003   77.7449  219.3535 H   0  0  0  0  0  0  0  0  0  0  0  0
  141.2961   78.7136  219.3337 H   0  0  0  0  0  0  0  0  0  0  0  0
  140.1141   79.2022  221.3268 H   0  0  0  0  0  0  0  0  0  0  0  0
  142.8879   80.0119  220.9245 H   0  0  0  0  0  0  0  0  0  0  0  0
  141.2537   80.5912  220.2560 H   0  0  0  0  0  0  0  0  0  0  0  0
  142.7109   82.1222  221.6681 H   0  0  0  0  0  0  0  0  0  0  0  0
  140.8878   81.9653  221.8828 H   0  0  0  0  0  0  0  0  0  0  0  0
  143.0199   80.7697  223.6556 H   0  0  0  0  0  0  0  0  0  0  0  0
  141.9839   82.1564  224.0417 H   0  0  0  0  0  0  0  0  0  0  0  0
  140.9096   80.1194  224.9396 H   0  0  0  0  0  0  0  0  0  0  0  0
  139.9397   80.6564  223.5499 H   0  0  0  0  0  0  0  0  0  0  0  0
  142.2141   78.6207  223.4529 H   0  0  0  0  0  0  0  0  0  0  0  0
  140.4367   78.2399  223.4702 H   0  0  0  0  0  0  0  0  0  0  0  0
  141.6057   76.2637  222.5044 H   0  0  0  0  0  0  0  0  0  0  0  0
  140.0623   76.9583  221.9685 H   0  0  0  0  0  0  0  0  0  0  0  0
  143.8752   76.0850  220.4303 H   0  0  0  0  0  0  0  0  0  0  0  0
  145.5571   74.2672  220.4450 H   0  0  0  0  0  0  0  0  0  0  0  0
  144.7853   71.9117  220.5317 H   0  0  0  0  0  0  0  0  0  0  0  0
  142.3717   71.3812  220.6091 H   0  0  0  0  0  0  0  0  0  0  0  0
  1  2  2  0
  2  3  1  0
  3  4  2  0
  4  5  1  0
  5  6  2  0
  6  7  1  0
  7  8  2  0
  8  9  1  0
  9 10  2  0
 10 11  1  0
 11 12  2  0
  6 13  1  0
 13 14  2  0
 14 15  1  0
 15 16  2  0
 16 17  1  0
  2 18  1  0
 18 19  1  0
 20 19  1  1
 20 21  1  0
 21 22  1  0
 22 23  1  0
 23 24  1  0
 24 25  1  0
 25 26  1  0
 26 27  1  0
 27 28  1  0
 28 29  1  0
 23 30  1  0
 20 31  1  0
 31 32  2  0
 32 33  1  0
 33 34  2  0
 34 35  1  0
 35 36  2  0
 17  3  1  0
 36 18  1  0
 16  5  1  0
 30 20  1  0
 36 31  1  0
 12  7  1  0
 29 24  1  0
  4 37  1  0
  8 38  1  0
  9 39  1  0
 10 40  1  0
 11 41  1  0
 12 42  1  0
 13 43  1  0
 14 44  1  0
 15 45  1  0
 17 46  1  0
 19 47  1  0
 19 48  1  0
 21 49  1  0
 21 50  1  0
 22 51  1  0
 22 52  1  0
 24 53  1  0
 25 54  1  0
 25 55  1  0
 26 56  1  0
 26 57  1  0
 27 58  1  0
 27 59  1  0
 28 60  1  0
 28 61  1  0
 29 62  1  0
 29 63  1  0
 30 64  1  0
 30 65  1  0
 32 66  1  0
 33 67  1  0
 34 68  1  0
 35 69  1  0
M  END
>  <smiles>  (35) 
O=C(c1cc2c(-c3ccccc3)cccc2[nH]1)N1C[C@]2(CCN(C3CCCCC3)C2)c2ccccc21

>  <score_type>  (35) 
oracle

>  <origin>  (35) 
autodockgpu

>  <m_score__min__energy>  (35) 
-10.609999999999999

>  <m_primary>  (35) 
energy

>  <rmsd>  (35) 
3.127872503340036

>  <m_score__min__rmsd>  (35) 
3.127872503340036

>  <meeko>  (35) 
{"free_energy": -10.57, "intermolecular_energy": -11.76, "internal_energy": -1.89, "cluster_size": 42, "cluster_id": 1, "rank_in_cluster": 10}

>  <energy>  (35) 
-10.24

>  <cluster_rmsd>  (35) 
1.03

>  <cluster>  (35) 
1

$$$$

     RDKit          3D

 69 75  0  0  0  0  0  0  0  0999 V2000
  140.7240   70.7090  219.4660 O   0  0  0  0  0  0  0  0  0  0  0  0
  140.7530   71.4870  220.4700 C   0  0  0  0  0  0  0  0  0  0  0  0
  140.0640   71.0010  221.6530 C   0  0  0  0  0  0  0  0  0  0  0  0
  140.3280   71.0960  222.9870 C   0  0  0  0  0  0  0  0  0  0  0  0
  139.3260   70.4080  223.6520 C   0  0  0  0  0  0  0  0  0  0  0  0
  139.0740   70.1600  224.9780 C   0  0  0  0  0  0  0  0  0  0  0  0
  139.8580   70.6550  226.0900 C   0  0  0  0  0  0  0  0  0  0  0  0
  140.6430   71.7930  225.9570 C   0  0  0  0  0  0  0  0  0  0  0  0
  141.4550   72.2440  226.9970 C   0  0  0  0  0  0  0  0  0  0  0  0
  141.4640   71.5220  228.1970 C   0  0  0  0  0  0  0  0  0  0  0  0
  140.6680   70.3760  228.3250 C   0  0  0  0  0  0  0  0  0  0  0  0
  139.8700   69.9540  227.2630 C   0  0  0  0  0  0  0  0  0  0  0  0
  137.9480   69.4040  225.3120 C   0  0  0  0  0  0  0  0  0  0  0  0
  137.0950   68.9080  224.3780 C   0  0  0  0  0  0  0  0  0  0  0  0
  137.3350   69.1470  223.0550 C   0  0  0  0  0  0  0  0  0  0  0  0
  138.4550   69.9010  222.7030 C   0  0  0  0  0  0  0  0  0  0  0  0
  138.9200   70.2710  221.5190 N   0  0  0  0  0  0  0  0  0  0  0  0
  141.4250   72.7630  220.4030 N   0  0  0  0  0  0  0  0  0  0  0  0
  140.6520   73.9910  220.3050 C   0  0  0  0  0  0  0  0  0  0  0  0
  141.6670   75.0870  220.2610 C   0  0  1  0  0  0  0  0  0  0  0  0
  141.5400   75.9060  218.9970 C   0  0  0  0  0  0  0  0  0  0  0  0
  142.0400   77.2600  219.4200 C   0  0  0  0  0  0  0  0  0  0  0  0
  141.9480   77.3510  220.8420 N   0  0  0  0  0  0  0  0  0  0  0  0
  141.0720   78.4760  221.2470 C   0  0  0  0  0  0  0  0  0  0  0  0
  141.6860   79.7950  220.9110 C   0  0  0  0  0  0  0  0  0  0  0  0
  141.3770   80.9330  221.7960 C   0  0  0  0  0  0  0  0  0  0  0  0
  141.2770   80.6070  223.2530 C   0  0  0  0  0  0  0  0  0  0  0  0
  140.2460   79.4900  223.3720 C   0  0  0  0  0  0  0  0  0  0  0  0
  140.8390   78.2770  222.7190 C   0  0  0  0  0  0  0  0  0  0  0  0
  141.4430   76.1190  221.3440 C   0  0  0  0  0  0  0  0  0  0  0  0
  142.9530   74.4010  220.3790 C   0  0  0  0  0  0  0  0  0  0  0  0
  144.2390   74.9130  220.4040 C   0  0  0  0  0  0  0  0  0  0  0  0
  145.3520   74.1030  220.5180 C   0  0  0  0  0  0  0  0  0  0  0  0
  145.1650   72.7440  220.6110 C   0  0  0  0  0  0  0  0  0  0  0  0
  143.9030   72.1980  220.5920 C   0  0  0  0  0  0  0  0  0  0  0  0
  142.8110   73.0330  220.4750 C   0  0  0  0  0  0  0  0  0  0  0  0
  141.1774   71.6206  223.4489 H   0  0  0  0  0  0  0  0  0  0  0  0
  140.6237   72.3514  225.0094 H   0  0  0  0  0  0  0  0  0  0  0  0
  142.0739   73.1456  226.8777 H   0  0  0  0  0  0  0  0  0  0  0  0
  142.0936   71.8533  229.0359 H   0  0  0  0  0  0  0  0  0  0  0  0
  140.6729   69.8075  229.2667 H   0  0  0  0  0  0  0  0  0  0  0  0
  139.2475   69.0533  227.3695 H   0  0  0  0  0  0  0  0  0  0  0  0
  137.7436   69.2021  226.3738 H   0  0  0  0  0  0  0  0  0  0  0  0
  136.2183   68.3188  224.6849 H   0  0  0  0  0  0  0  0  0  0  0  0
  136.6587   68.7529  222.2821 H   0  0  0  0  0  0  0  0  0  0  0  0
  138.4480   70.0180  220.6150 H   0  0  0  0  0  0  0  0  0  0  0  0
  140.0427   73.9918  219.3891 H   0  0  0  0  0  0  0  0  0  0  0  0
  139.9552   74.1080  221.1480 H   0  0  0  0  0  0  0  0  0  0  0  0
  142.1619   75.4888  218.1913 H   0  0  0  0  0  0  0  0  0  0  0  0
  140.5161   75.9278  218.5955 H   0  0  0  0  0  0  0  0  0  0  0  0
  143.0872   77.3837  219.1069 H   0  0  0  0  0  0  0  0  0  0  0  0
  141.4346   78.0496  218.9510 H   0  0  0  0  0  0  0  0  0  0  0  0
  140.1153   78.4850  220.7041 H   0  0  0  0  0  0  0  0  0  0  0  0
  142.7778   79.6611  220.9149 H   0  0  0  0  0  0  0  0  0  0  0  0
  141.2499   80.0685  219.9389 H   0  0  0  0  0  0  0  0  0  0  0  0
  142.1700   81.6850  221.6706 H   0  0  0  0  0  0  0  0  0  0  0  0
  140.3794   81.2866  221.4964 H   0  0  0  0  0  0  0  0  0  0  0  0
  142.2513   80.2683  223.6352 H   0  0  0  0  0  0  0  0  0  0  0  0
  140.9808   81.4886  223.8405 H   0  0  0  0  0  0  0  0  0  0  0  0
  140.0331   79.2832  224.4312 H   0  0  0  0  0  0  0  0  0  0  0  0
  139.3002   79.7746  222.8878 H   0  0  0  0  0  0  0  0  0  0  0  0
  141.8011   78.0505  223.2017 H   0  0  0  0  0  0  0  0  0  0  0  0
  140.1246   77.4489  222.8370 H   0  0  0  0  0  0  0  0  0  0  0  0
  141.9822   75.8323  222.2589 H   0  0  0  0  0  0  0  0  0  0  0  0
  140.3761   76.2018  221.5986 H   0  0  0  0  0  0  0  0  0  0  0  0
  144.3792   76.0016  220.3306 H   0  0  0  0  0  0  0  0  0  0  0  0
  146.3636   74.5348  220.5340 H   0  0  0  0  0  0  0  0  0  0  0  0
  146.0392   72.0826  220.7021 H   0  0  0  0  0  0  0  0  0  0  0  0
  143.7659   71.1093  220.6691 H   0  0  0  0  0  0  0  0  0  0  0  0
  1  2  2  0
  2  3  1  0
  3  4  2  0
  4  5  1  0
  5  6  2  0
  6  7  1  0
  7  8  2  0
  8  9  1  0
  9 10  2  0
 10 11  1  0
 11 12  2  0
  6 13  1  0
 13 14  2  0
 14 15  1  0
 15 16  2  0
 16 17  1  0
  2 18  1  0
 18 19  1  0
 20 19  1  6
 20 21  1  0
 21 22  1  0
 22 23  1  0
 23 24  1  0
 24 25  1  0
 25 26  1  0
 26 27  1  0
 27 28  1  0
 28 29  1  0
 23 30  1  0
 20 31  1  0
 31 32  2  0
 32 33  1  0
 33 34  2  0
 34 35  1  0
 35 36  2  0
 17  3  1  0
 36 18  1  0
 16  5  1  0
 30 20  1  0
 36 31  1  0
 12  7  1  0
 29 24  1  0
  4 37  1  0
  8 38  1  0
  9 39  1  0
 10 40  1  0
 11 41  1  0
 12 42  1  0
 13 43  1  0
 14 44  1  0
 15 45  1  0
 17 46  1  0
 19 47  1  0
 19 48  1  0
 21 49  1  0
 21 50  1  0
 22 51  1  0
 22 52  1  0
 24 53  1  0
 25 54  1  0
 25 55  1  0
 26 56  1  0
 26 57  1  0
 27 58  1  0
 27 59  1  0
 28 60  1  0
 28 61  1  0
 29 62  1  0
 29 63  1  0
 30 64  1  0
 30 65  1  0
 32 66  1  0
 33 67  1  0
 34 68  1  0
 35 69  1  0
M  END
>  <smiles>  (36) 
O=C(c1cc2c(-c3ccccc3)cccc2[nH]1)N1C[C@]2(CCN(C3CCCCC3)C2)c2ccccc21

>  <score_type>  (36) 
oracle

>  <origin>  (36) 
autodockgpu

>  <m_score__min__energy>  (36) 
-10.609999999999999

>  <m_primary>  (36) 
energy

>  <rmsd>  (36) 
3.160118349376715

>  <m_score__min__rmsd>  (36) 
3.160118349376715

>  <meeko>  (36) 
{"free_energy": -10.5, "intermolecular_energy": -11.7, "internal_energy": -1.78, "cluster_size": 42, "cluster_id": 1, "rank_in_cluster": 16}

>  <energy>  (36) 
-10.22

>  <cluster_rmsd>  (36) 
1.26

>  <cluster>  (36) 
1

$$$$

     RDKit          3D

 69 75  0  0  0  0  0  0  0  0999 V2000
  139.9160   74.5500  222.1650 O   0  0  0  0  0  0  0  0  0  0  0  0
  140.5810   73.4850  221.9650 C   0  0  0  0  0  0  0  0  0  0  0  0
  140.0530   72.2930  222.6060 C   0  0  0  0  0  0  0  0  0  0  0  0
  140.3340   71.6700  223.7850 C   0  0  0  0  0  0  0  0  0  0  0  0
  139.5270   70.5470  223.8580 C   0  0  0  0  0  0  0  0  0  0  0  0
  139.3790   69.5510  224.7910 C   0  0  0  0  0  0  0  0  0  0  0  0
  140.0750   69.4760  226.0570 C   0  0  0  0  0  0  0  0  0  0  0  0
  140.4260   68.2490  226.6060 C   0  0  0  0  0  0  0  0  0  0  0  0
  141.0370   68.1570  227.8550 C   0  0  0  0  0  0  0  0  0  0  0  0
  141.2980   69.3390  228.5590 C   0  0  0  0  0  0  0  0  0  0  0  0
  140.9440   70.5740  227.9990 C   0  0  0  0  0  0  0  0  0  0  0  0
  140.3330   70.6280  226.7480 C   0  0  0  0  0  0  0  0  0  0  0  0
  138.4540   68.5350  224.5400 C   0  0  0  0  0  0  0  0  0  0  0  0
  137.6970   68.4950  223.4130 C   0  0  0  0  0  0  0  0  0  0  0  0
  137.8350   69.4790  222.4750 C   0  0  0  0  0  0  0  0  0  0  0  0
  138.7540   70.5030  222.7100 C   0  0  0  0  0  0  0  0  0  0  0  0
  139.0880   71.5580  221.9810 N   0  0  0  0  0  0  0  0  0  0  0  0
  141.7780   73.4960  221.1590 N   0  0  0  0  0  0  0  0  0  0  0  0
  142.7100   72.3810  221.2190 C   0  0  0  0  0  0  0  0  0  0  0  0
  143.8050   72.7370  220.2670 C   0  0  1  0  0  0  0  0  0  0  0  0
  145.1460   72.7930  220.9630 C   0  0  0  0  0  0  0  0  0  0  0  0
  146.1110   72.4330  219.8680 C   0  0  0  0  0  0  0  0  0  0  0  0
  145.3950   71.7410  218.8440 N   0  0  0  0  0  0  0  0  0  0  0  0
  145.9500   70.3830  218.6320 C   0  0  0  0  0  0  0  0  0  0  0  0
  146.0910   70.0720  217.1790 C   0  0  0  0  0  0  0  0  0  0  0  0
  145.9330   68.6640  216.7680 C   0  0  0  0  0  0  0  0  0  0  0  0
  144.8870   67.8910  217.5080 C   0  0  0  0  0  0  0  0  0  0  0  0
  145.2240   68.0230  218.9890 C   0  0  0  0  0  0  0  0  0  0  0  0
  145.0110   69.4610  219.3590 C   0  0  0  0  0  0  0  0  0  0  0  0
  144.0240   71.6670  219.2190 C   0  0  0  0  0  0  0  0  0  0  0  0
  143.3940   74.0200  219.6980 C   0  0  0  0  0  0  0  0  0  0  0  0
  144.0180   74.8200  218.7560 C   0  0  0  0  0  0  0  0  0  0  0  0
  143.4780   76.0200  218.3350 C   0  0  0  0  0  0  0  0  0  0  0  0
  142.2800   76.4240  218.8760 C   0  0  0  0  0  0  0  0  0  0  0  0
  141.6290   75.6550  219.8130 C   0  0  0  0  0  0  0  0  0  0  0  0
  142.1950   74.4630  220.2140 C   0  0  0  0  0  0  0  0  0  0  0  0
  141.0655   71.9980  224.5382 H   0  0  0  0  0  0  0  0  0  0  0  0
  140.2166   67.3284  226.0414 H   0  0  0  0  0  0  0  0  0  0  0  0
  141.3080   67.1785  228.2781 H   0  0  0  0  0  0  0  0  0  0  0  0
  141.7789   69.2983  229.5475 H   0  0  0  0  0  0  0  0  0  0  0  0
  141.1493   71.5041  228.5492 H   0  0  0  0  0  0  0  0  0  0  0  0
  140.0571   71.6006  226.3144 H   0  0  0  0  0  0  0  0  0  0  0  0
  138.3337   67.7349  225.2852 H   0  0  0  0  0  0  0  0  0  0  0  0
  136.9785   67.6769  223.2566 H   0  0  0  0  0  0  0  0  0  0  0  0
  137.2342   69.4645  221.5537 H   0  0  0  0  0  0  0  0  0  0  0  0
  138.6510   71.7710  221.0500 H   0  0  0  0  0  0  0  0  0  0  0  0
  143.1072   72.2641  222.2381 H   0  0  0  0  0  0  0  0  0  0  0  0
  142.2291   71.4274  220.9558 H   0  0  0  0  0  0  0  0  0  0  0  0
  145.3478   73.8020  221.3517 H   0  0  0  0  0  0  0  0  0  0  0  0
  145.2103   72.1246  221.8343 H   0  0  0  0  0  0  0  0  0  0  0  0
  146.5604   73.3475  219.4536 H   0  0  0  0  0  0  0  0  0  0  0  0
  146.9124   71.7934  220.2664 H   0  0  0  0  0  0  0  0  0  0  0  0
  146.9722   70.2762  219.0240 H   0  0  0  0  0  0  0  0  0  0  0  0
  145.3331   70.6600  216.6406 H   0  0  0  0  0  0  0  0  0  0  0  0
  147.1353   70.3200  216.9381 H   0  0  0  0  0  0  0  0  0  0  0  0
  145.6724   68.6500  215.6994 H   0  0  0  0  0  0  0  0  0  0  0  0
  146.8903   68.1730  216.9971 H   0  0  0  0  0  0  0  0  0  0  0  0
  143.8900   68.3093  217.3056 H   0  0  0  0  0  0  0  0  0  0  0  0
  144.8723   66.8369  217.1940 H   0  0  0  0  0  0  0  0  0  0  0  0
  144.5634   67.3771  219.5861 H   0  0  0  0  0  0  0  0  0  0  0  0
  146.2620   67.7161  219.1850 H   0  0  0  0  0  0  0  0  0  0  0  0
  143.9769   69.7409  219.1095 H   0  0  0  0  0  0  0  0  0  0  0  0
  145.2064   69.5634  220.4366 H   0  0  0  0  0  0  0  0  0  0  0  0
  143.3810   71.8532  218.3461 H   0  0  0  0  0  0  0  0  0  0  0  0
  143.7727   70.6703  219.6106 H   0  0  0  0  0  0  0  0  0  0  0  0
  144.9759   74.4891  218.3284 H   0  0  0  0  0  0  0  0  0  0  0  0
  143.9940   76.6375  217.5850 H   0  0  0  0  0  0  0  0  0  0  0  0
  141.8350   77.3772  218.5545 H   0  0  0  0  0  0  0  0  0  0  0  0
  140.6696   75.9866  220.2367 H   0  0  0  0  0  0  0  0  0  0  0  0
  1  2  2  0
  2  3  1  0
  3  4  2  0
  4  5  1  0
  5  6  2  0
  6  7  1  0
  7  8  2  0
  8  9  1  0
  9 10  2  0
 10 11  1  0
 11 12  2  0
  6 13  1  0
 13 14  2  0
 14 15  1  0
 15 16  2  0
 16 17  1  0
  2 18  1  0
 18 19  1  0
 20 19  1  1
 20 21  1  0
 21 22  1  0
 22 23  1  0
 23 24  1  0
 24 25  1  0
 25 26  1  0
 26 27  1  0
 27 28  1  0
 28 29  1  0
 23 30  1  0
 20 31  1  0
 31 32  2  0
 32 33  1  0
 33 34  2  0
 34 35  1  0
 35 36  2  0
 17  3  1  0
 36 18  1  0
 16  5  1  0
 30 20  1  0
 36 31  1  0
 12  7  1  0
 29 24  1  0
  4 37  1  0
  8 38  1  0
  9 39  1  0
 10 40  1  0
 11 41  1  0
 12 42  1  0
 13 43  1  0
 14 44  1  0
 15 45  1  0
 17 46  1  0
 19 47  1  0
 19 48  1  0
 21 49  1  0
 21 50  1  0
 22 51  1  0
 22 52  1  0
 24 53  1  0
 25 54  1  0
 25 55  1  0
 26 56  1  0
 26 57  1  0
 27 58  1  0
 27 59  1  0
 28 60  1  0
 28 61  1  0
 29 62  1  0
 29 63  1  0
 30 64  1  0
 30 65  1  0
 32 66  1  0
 33 67  1  0
 34 68  1  0
 35 69  1  0
M  END
>  <smiles>  (37) 
O=C(c1cc2c(-c3ccccc3)cccc2[nH]1)N1C[C@]2(CCN(C3CCCCC3)C2)c2ccccc21

>  <score_type>  (37) 
oracle

>  <origin>  (37) 
autodockgpu

>  <m_score__min__energy>  (37) 
-10.609999999999999

>  <m_primary>  (37) 
energy

>  <rmsd>  (37) 
7.756897554400291

>  <m_score__min__rmsd>  (37) 
7.756897554400291

>  <meeko>  (37) 
{"free_energy": -10.34, "intermolecular_energy": -11.54, "internal_energy": -1.66, "cluster_size": 6, "cluster_id": 2, "rank_in_cluster": 4}

>  <energy>  (37) 
-10.19

>  <cluster_rmsd>  (37) 
0.95

>  <cluster>  (37) 
1

$$$$

     RDKit          3D

 69 75  0  0  0  0  0  0  0  0999 V2000
  138.4340   72.1650  219.8880 O   0  0  0  0  0  0  0  0  0  0  0  0
  139.3590   72.3290  220.7440 C   0  0  0  0  0  0  0  0  0  0  0  0
  139.4020   71.3430  221.8090 C   0  0  0  0  0  0  0  0  0  0  0  0
  139.7410   71.4120  223.1280 C   0  0  0  0  0  0  0  0  0  0  0  0
  139.6180   70.1360  223.6500 C   0  0  0  0  0  0  0  0  0  0  0  0
  139.8280   69.6040  224.8980 C   0  0  0  0  0  0  0  0  0  0  0  0
  140.2220   70.3500  226.0740 C   0  0  0  0  0  0  0  0  0  0  0  0
  139.6940   70.0430  227.3220 C   0  0  0  0  0  0  0  0  0  0  0  0
  140.0120   70.7940  228.4520 C   0  0  0  0  0  0  0  0  0  0  0  0
  140.8890   71.8770  228.3090 C   0  0  0  0  0  0  0  0  0  0  0  0
  141.4200   72.1800  227.0480 C   0  0  0  0  0  0  0  0  0  0  0  0
  141.0780   71.4080  225.9390 C   0  0  0  0  0  0  0  0  0  0  0  0
  139.6090   68.2370  225.0850 C   0  0  0  0  0  0  0  0  0  0  0  0
  139.1970   67.4170  224.0830 C   0  0  0  0  0  0  0  0  0  0  0  0
  138.9850   67.9330  222.8370 C   0  0  0  0  0  0  0  0  0  0  0  0
  139.1970   69.2980  222.6320 C   0  0  0  0  0  0  0  0  0  0  0  0
  139.0760   70.0450  221.5440 N   0  0  0  0  0  0  0  0  0  0  0  0
  140.2800   73.4360  220.6400 N   0  0  0  0  0  0  0  0  0  0  0  0
  139.7820   74.8020  220.6290 C   0  0  0  0  0  0  0  0  0  0  0  0
  141.0000   75.6600  220.5150 C   0  0  1  0  0  0  0  0  0  0  0  0
  140.9500   76.5300  219.2800 C   0  0  0  0  0  0  0  0  0  0  0  0
  141.7600   77.7320  219.6810 C   0  0  0  0  0  0  0  0  0  0  0  0
  141.8040   77.7920  221.1070 N   0  0  0  0  0  0  0  0  0  0  0  0
  141.2240   79.0630  221.6040 C   0  0  0  0  0  0  0  0  0  0  0  0
  142.1640   80.2060  221.4080 C   0  0  0  0  0  0  0  0  0  0  0  0
  142.1160   81.3010  222.3940 C   0  0  0  0  0  0  0  0  0  0  0  0
  141.8750   80.8820  223.8110 C   0  0  0  0  0  0  0  0  0  0  0  0
  140.5920   80.0590  223.8020 C   0  0  0  0  0  0  0  0  0  0  0  0
  140.8870   78.7990  223.0460 C   0  0  0  0  0  0  0  0  0  0  0  0
  141.0890   76.6780  221.6310 C   0  0  0  0  0  0  0  0  0  0  0  0
  142.1160   74.7140  220.5120 C   0  0  0  0  0  0  0  0  0  0  0  0
  143.4790   74.9410  220.4350 C   0  0  0  0  0  0  0  0  0  0  0  0
  144.3990   73.9110  220.4400 C   0  0  0  0  0  0  0  0  0  0  0  0
  143.9340   72.6190  220.5260 C   0  0  0  0  0  0  0  0  0  0  0  0
  142.5870   72.3540  220.6070 C   0  0  0  0  0  0  0  0  0  0  0  0
  141.6940   73.4040  220.5980 C   0  0  0  0  0  0  0  0  0  0  0  0
  140.0539   72.3136  223.6751 H   0  0  0  0  0  0  0  0  0  0  0  0
  139.0094   69.1877  227.4203 H   0  0  0  0  0  0  0  0  0  0  0  0
  139.5842   70.5422  229.4336 H   0  0  0  0  0  0  0  0  0  0  0  0
  141.1598   72.4872  229.1832 H   0  0  0  0  0  0  0  0  0  0  0  0
  142.1089   73.0298  226.9330 H   0  0  0  0  0  0  0  0  0  0  0  0
  141.4981   71.6506  224.9517 H   0  0  0  0  0  0  0  0  0  0  0  0
  139.7768   67.8072  226.0836 H   0  0  0  0  0  0  0  0  0  0  0  0
  139.0356   66.3458  224.2742 H   0  0  0  0  0  0  0  0  0  0  0  0
  138.6538   67.2865  222.0110 H   0  0  0  0  0  0  0  0  0  0  0  0
  138.7690   69.6590  220.6170 H   0  0  0  0  0  0  0  0  0  0  0  0
  139.1147   74.9627  219.7694 H   0  0  0  0  0  0  0  0  0  0  0  0
  139.1973   75.0346  221.5312 H   0  0  0  0  0  0  0  0  0  0  0  0
  141.4018   76.0185  218.4173 H   0  0  0  0  0  0  0  0  0  0  0  0
  139.9257   76.7816  218.9678 H   0  0  0  0  0  0  0  0  0  0  0  0
  142.7809   77.6418  219.2815 H   0  0  0  0  0  0  0  0  0  0  0  0
  141.3015   78.6474  219.2787 H   0  0  0  0  0  0  0  0  0  0  0  0
  140.3240   79.3646  221.0481 H   0  0  0  0  0  0  0  0  0  0  0  0
  143.1856   79.7983  221.4173 H   0  0  0  0  0  0  0  0  0  0  0  0
  141.8515   80.6676  220.4597 H   0  0  0  0  0  0  0  0  0  0  0  0
  143.0781   81.8330  222.3568 H   0  0  0  0  0  0  0  0  0  0  0  0
  141.2540   81.9236  222.1123 H   0  0  0  0  0  0  0  0  0  0  0  0
  142.7153   80.2733  224.1763 H   0  0  0  0  0  0  0  0  0  0  0  0
  141.7859   81.7538  224.4758 H   0  0  0  0  0  0  0  0  0  0  0  0
  140.2891   79.8197  224.8320 H   0  0  0  0  0  0  0  0  0  0  0  0
  139.7699   80.6173  223.3303 H   0  0  0  0  0  0  0  0  0  0  0  0
  141.7400   78.2929  223.5215 H   0  0  0  0  0  0  0  0  0  0  0  0
  139.9830   78.1727  223.0707 H   0  0  0  0  0  0  0  0  0  0  0  0
  141.6263   76.2524  222.4914 H   0  0  0  0  0  0  0  0  0  0  0  0
  140.0886   76.9755  221.9782 H   0  0  0  0  0  0  0  0  0  0  0  0
  143.8420   75.9772  220.3675 H   0  0  0  0  0  0  0  0  0  0  0  0
  145.4774   74.1186  220.3768 H   0  0  0  0  0  0  0  0  0  0  0  0
  144.6510   71.7848  220.5300 H   0  0  0  0  0  0  0  0  0  0  0  0
  142.2267   71.3171  220.6781 H   0  0  0  0  0  0  0  0  0  0  0  0
  1  2  2  0
  2  3  1  0
  3  4  2  0
  4  5  1  0
  5  6  2  0
  6  7  1  0
  7  8  2  0
  8  9  1  0
  9 10  2  0
 10 11  1  0
 11 12  2  0
  6 13  1  0
 13 14  2  0
 14 15  1  0
 15 16  2  0
 16 17  1  0
  2 18  1  0
 18 19  1  0
 20 19  1  1
 20 21  1  0
 21 22  1  0
 22 23  1  0
 23 24  1  0
 24 25  1  0
 25 26  1  0
 26 27  1  0
 27 28  1  0
 28 29  1  0
 23 30  1  0
 20 31  1  0
 31 32  2  0
 32 33  1  0
 33 34  2  0
 34 35  1  0
 35 36  2  0
 17  3  1  0
 36 18  1  0
 16  5  1  0
 30 20  1  0
 36 31  1  0
 12  7  1  0
 29 24  1  0
  4 37  1  0
  8 38  1  0
  9 39  1  0
 10 40  1  0
 11 41  1  0
 12 42  1  0
 13 43  1  0
 14 44  1  0
 15 45  1  0
 17 46  1  0
 19 47  1  0
 19 48  1  0
 21 49  1  0
 21 50  1  0
 22 51  1  0
 22 52  1  0
 24 53  1  0
 25 54  1  0
 25 55  1  0
 26 56  1  0
 26 57  1  0
 27 58  1  0
 27 59  1  0
 28 60  1  0
 28 61  1  0
 29 62  1  0
 29 63  1  0
 30 64  1  0
 30 65  1  0
 32 66  1  0
 33 67  1  0
 34 68  1  0
 35 69  1  0
M  END
>  <smiles>  (38) 
O=C(c1cc2c(-c3ccccc3)cccc2[nH]1)N1C[C@]2(CCN(C3CCCCC3)C2)c2ccccc21

>  <score_type>  (38) 
oracle

>  <origin>  (38) 
autodockgpu

>  <m_score__min__energy>  (38) 
-10.609999999999999

>  <m_primary>  (38) 
energy

>  <rmsd>  (38) 
3.2134428184186956

>  <m_score__min__rmsd>  (38) 
3.2134428184186956

>  <meeko>  (38) 
{"free_energy": -10.57, "intermolecular_energy": -11.77, "internal_energy": -1.89, "cluster_size": 42, "cluster_id": 1, "rank_in_cluster": 9}

>  <energy>  (38) 
-10.19

>  <cluster_rmsd>  (38) 
0.99

>  <cluster>  (38) 
1

$$$$

     RDKit          3D

 69 75  0  0  0  0  0  0  0  0999 V2000
  140.9840   70.4900  219.6780 O   0  0  0  0  0  0  0  0  0  0  0  0
  140.8830   71.3430  220.6140 C   0  0  0  0  0  0  0  0  0  0  0  0
  140.0910   70.9220  221.7560 C   0  0  0  0  0  0  0  0  0  0  0  0
  140.3260   70.9160  223.0990 C   0  0  0  0  0  0  0  0  0  0  0  0
  139.2090   70.3690  223.7080 C   0  0  0  0  0  0  0  0  0  0  0  0
  138.8820   70.1070  225.0150 C   0  0  0  0  0  0  0  0  0  0  0  0
  139.7000   70.4220  226.1660 C   0  0  0  0  0  0  0  0  0  0  0  0
  140.3770   71.6320  226.2480 C   0  0  0  0  0  0  0  0  0  0  0  0
  141.2220   71.9230  227.3190 C   0  0  0  0  0  0  0  0  0  0  0  0
  141.3780   70.9620  228.3260 C   0  0  0  0  0  0  0  0  0  0  0  0
  140.6900   69.7450  228.2370 C   0  0  0  0  0  0  0  0  0  0  0  0
  139.8550   69.4880  227.1510 C   0  0  0  0  0  0  0  0  0  0  0  0
  137.6400   69.5260  225.2870 C   0  0  0  0  0  0  0  0  0  0  0  0
  136.7480   69.2130  224.3120 C   0  0  0  0  0  0  0  0  0  0  0  0
  137.0620   69.4670  223.0070 C   0  0  0  0  0  0  0  0  0  0  0  0
  138.2980   70.0480  222.7160 C   0  0  0  0  0  0  0  0  0  0  0  0
  138.8500   70.3900  221.5610 N   0  0  0  0  0  0  0  0  0  0  0  0
  141.5150   72.6370  220.5110 N   0  0  0  0  0  0  0  0  0  0  0  0
  140.7050   73.8400  220.4030 C   0  0  0  0  0  0  0  0  0  0  0  0
  141.6860   74.9640  220.3220 C   0  0  1  0  0  0  0  0  0  0  0  0
  141.5150   75.7550  219.0450 C   0  0  0  0  0  0  0  0  0  0  0  0
  141.9810   77.1300  219.4340 C   0  0  0  0  0  0  0  0  0  0  0  0
  141.9100   77.2460  220.8550 N   0  0  0  0  0  0  0  0  0  0  0  0
  141.0080   78.3530  221.2540 C   0  0  0  0  0  0  0  0  0  0  0  0
  141.7780   79.5610  221.6740 C   0  0  0  0  0  0  0  0  0  0  0  0
  141.1770   80.4240  222.7070 C   0  0  0  0  0  0  0  0  0  0  0  0
  140.4330   79.7090  223.7910 C   0  0  0  0  0  0  0  0  0  0  0  0
  139.3940   78.8370  223.0940 C   0  0  0  0  0  0  0  0  0  0  0  0
  140.1450   77.7780  222.3440 C   0  0  0  0  0  0  0  0  0  0  0  0
  141.4490   76.0100  221.3890 C   0  0  0  0  0  0  0  0  0  0  0  0
  142.9940   74.3180  220.4310 C   0  0  0  0  0  0  0  0  0  0  0  0
  144.2640   74.8680  220.4240 C   0  0  0  0  0  0  0  0  0  0  0  0
  145.4030   74.0940  220.5350 C   0  0  0  0  0  0  0  0  0  0  0  0
  145.2570   72.7310  220.6560 C   0  0  0  0  0  0  0  0  0  0  0  0
  144.0120   72.1480  220.6690 C   0  0  0  0  0  0  0  0  0  0  0  0
  142.8940   72.9490  220.5550 C   0  0  0  0  0  0  0  0  0  0  0  0
  141.2334   71.2781  223.6044 H   0  0  0  0  0  0  0  0  0  0  0  0
  140.2438   72.3777  225.4503 H   0  0  0  0  0  0  0  0  0  0  0  0
  141.7534   72.8847  227.3715 H   0  0  0  0  0  0  0  0  0  0  0  0
  142.0379   71.1621  229.1830 H   0  0  0  0  0  0  0  0  0  0  0  0
  140.8092   68.9892  229.0273 H   0  0  0  0  0  0  0  0  0  0  0  0
  139.3188   68.5297  227.0867 H   0  0  0  0  0  0  0  0  0  0  0  0
  137.3744   69.3137  226.3331 H   0  0  0  0  0  0  0  0  0  0  0  0
  135.7803   68.7585  224.5710 H   0  0  0  0  0  0  0  0  0  0  0  0
  136.3553   69.2188  222.2014 H   0  0  0  0  0  0  0  0  0  0  0  0
  138.3710   70.2550  220.6370 H   0  0  0  0  0  0  0  0  0  0  0  0
  140.0815   73.8057  219.4974 H   0  0  0  0  0  0  0  0  0  0  0  0
  140.0188   73.9526  221.2553 H   0  0  0  0  0  0  0  0  0  0  0  0
  142.1362   75.3408  218.2372 H   0  0  0  0  0  0  0  0  0  0  0  0
  140.4847   75.7393  218.6600 H   0  0  0  0  0  0  0  0  0  0  0  0
  143.0188   77.2784  219.1008 H   0  0  0  0  0  0  0  0  0  0  0  0
  141.3443   77.8921  218.9609 H   0  0  0  0  0  0  0  0  0  0  0  0
  140.3860   78.7141  220.4217 H   0  0  0  0  0  0  0  0  0  0  0  0
  142.7498   79.2160  222.0569 H   0  0  0  0  0  0  0  0  0  0  0  0
  141.8250   80.1913  220.7737 H   0  0  0  0  0  0  0  0  0  0  0  0
  141.9853   81.0039  223.1764 H   0  0  0  0  0  0  0  0  0  0  0  0
  140.4314   81.0432  222.1868 H   0  0  0  0  0  0  0  0  0  0  0  0
  141.1224   79.0844  224.3780 H   0  0  0  0  0  0  0  0  0  0  0  0
  139.9587   80.4183  224.4852 H   0  0  0  0  0  0  0  0  0  0  0  0
  138.7289   78.3739  223.8377 H   0  0  0  0  0  0  0  0  0  0  0  0
  138.7719   79.4354  222.4122 H   0  0  0  0  0  0  0  0  0  0  0  0
  140.7860   77.2311  223.0511 H   0  0  0  0  0  0  0  0  0  0  0  0
  139.4070   77.1122  221.8727 H   0  0  0  0  0  0  0  0  0  0  0  0
  142.0108   75.7570  222.3002 H   0  0  0  0  0  0  0  0  0  0  0  0
  140.3844   76.0669  221.6598 H   0  0  0  0  0  0  0  0  0  0  0  0
  144.3701   75.9585  220.3267 H   0  0  0  0  0  0  0  0  0  0  0  0
  146.4014   74.5556  220.5269 H   0  0  0  0  0  0  0  0  0  0  0  0
  146.1517   72.0971  220.7438 H   0  0  0  0  0  0  0  0  0  0  0  0
  143.9083   71.0575  220.7690 H   0  0  0  0  0  0  0  0  0  0  0  0
  1  2  2  0
  2  3  1  0
  3  4  2  0
  4  5  1  0
  5  6  2  0
  6  7  1  0
  7  8  2  0
  8  9  1  0
  9 10  2  0
 10 11  1  0
 11 12  2  0
  6 13  1  0
 13 14  2  0
 14 15  1  0
 15 16  2  0
 16 17  1  0
  2 18  1  0
 18 19  1  0
 20 19  1  6
 20 21  1  0
 21 22  1  0
 22 23  1  0
 23 24  1  0
 24 25  1  0
 25 26  1  0
 26 27  1  0
 27 28  1  0
 28 29  1  0
 23 30  1  0
 20 31  1  0
 31 32  2  0
 32 33  1  0
 33 34  2  0
 34 35  1  0
 35 36  2  0
 17  3  1  0
 36 18  1  0
 16  5  1  0
 30 20  1  0
 36 31  1  0
 12  7  1  0
 29 24  1  0
  4 37  1  0
  8 38  1  0
  9 39  1  0
 10 40  1  0
 11 41  1  0
 12 42  1  0
 13 43  1  0
 14 44  1  0
 15 45  1  0
 17 46  1  0
 19 47  1  0
 19 48  1  0
 21 49  1  0
 21 50  1  0
 22 51  1  0
 22 52  1  0
 24 53  1  0
 25 54  1  0
 25 55  1  0
 26 56  1  0
 26 57  1  0
 27 58  1  0
 27 59  1  0
 28 60  1  0
 28 61  1  0
 29 62  1  0
 29 63  1  0
 30 64  1  0
 30 65  1  0
 32 66  1  0
 33 67  1  0
 34 68  1  0
 35 69  1  0
M  END
>  <smiles>  (39) 
O=C(c1cc2c(-c3ccccc3)cccc2[nH]1)N1C[C@]2(CCN(C3CCCCC3)C2)c2ccccc21

>  <score_type>  (39) 
oracle

>  <origin>  (39) 
autodockgpu

>  <m_score__min__energy>  (39) 
-10.609999999999999

>  <m_primary>  (39) 
energy

>  <rmsd>  (39) 
3.2882249984653216

>  <m_score__min__rmsd>  (39) 
3.2882249984653216

>  <meeko>  (39) 
{"free_energy": -10.22, "intermolecular_energy": -11.42, "internal_energy": -1.79, "cluster_size": 42, "cluster_id": 1, "rank_in_cluster": 36}

>  <energy>  (39) 
-10.18

>  <cluster_rmsd>  (39) 
0.89

>  <cluster>  (39) 
1

$$$$

     RDKit          3D

 69 75  0  0  0  0  0  0  0  0999 V2000
  138.8830   72.0150  219.3840 O   0  0  0  0  0  0  0  0  0  0  0  0
  139.6540   72.2410  220.3690 C   0  0  0  0  0  0  0  0  0  0  0  0
  139.5680   71.2830  221.4580 C   0  0  0  0  0  0  0  0  0  0  0  0
  139.9050   71.3440  222.7770 C   0  0  0  0  0  0  0  0  0  0  0  0
  139.6220   70.1050  223.3290 C   0  0  0  0  0  0  0  0  0  0  0  0
  139.7580   69.5830  224.5910 C   0  0  0  0  0  0  0  0  0  0  0  0
  140.2340   70.3040  225.7520 C   0  0  0  0  0  0  0  0  0  0  0  0
  139.9570   69.8490  227.0360 C   0  0  0  0  0  0  0  0  0  0  0  0
  140.3510   70.5660  228.1640 C   0  0  0  0  0  0  0  0  0  0  0  0
  141.0440   71.7700  227.9810 C   0  0  0  0  0  0  0  0  0  0  0  0
  141.3230   72.2210  226.6840 C   0  0  0  0  0  0  0  0  0  0  0  0
  140.9120   71.4780  225.5790 C   0  0  0  0  0  0  0  0  0  0  0  0
  139.3710   68.2580  224.8080 C   0  0  0  0  0  0  0  0  0  0  0  0
  138.8670   67.4710  223.8230 C   0  0  0  0  0  0  0  0  0  0  0  0
  138.7270   67.9780  222.5630 C   0  0  0  0  0  0  0  0  0  0  0  0
  139.1080   69.3000  222.3270 C   0  0  0  0  0  0  0  0  0  0  0  0
  139.0860   70.0300  221.2210 N   0  0  0  0  0  0  0  0  0  0  0  0
  140.5330   73.3850  220.3770 N   0  0  0  0  0  0  0  0  0  0  0  0
  139.9820   74.7310  220.3870 C   0  0  0  0  0  0  0  0  0  0  0  0
  141.1690   75.6390  220.3950 C   0  0  1  0  0  0  0  0  0  0  0  0
  141.1690   76.5600  219.1970 C   0  0  0  0  0  0  0  0  0  0  0  0
  141.8990   77.7720  219.7030 C   0  0  0  0  0  0  0  0  0  0  0  0
  141.8430   77.7710  221.1300 N   0  0  0  0  0  0  0  0  0  0  0  0
  141.1790   78.9950  221.6370 C   0  0  0  0  0  0  0  0  0  0  0  0
  141.8480   80.2300  221.1310 C   0  0  0  0  0  0  0  0  0  0  0  0
  141.8300   81.4190  222.0030 C   0  0  0  0  0  0  0  0  0  0  0  0
  141.9760   81.1460  223.4670 C   0  0  0  0  0  0  0  0  0  0  0  0
  140.8790   80.1500  223.8280 C   0  0  0  0  0  0  0  0  0  0  0  0
  141.2110   78.8630  223.1350 C   0  0  0  0  0  0  0  0  0  0  0  0
  141.1400   76.6090  221.5550 C   0  0  0  0  0  0  0  0  0  0  0  0
  142.3200   74.7360  220.4310 C   0  0  0  0  0  0  0  0  0  0  0  0
  143.6750   75.0180  220.4600 C   0  0  0  0  0  0  0  0  0  0  0  0
  144.6340   74.0240  220.4870 C   0  0  0  0  0  0  0  0  0  0  0  0
  144.2180   72.7130  220.4860 C   0  0  0  0  0  0  0  0  0  0  0  0
  142.8800   72.3940  220.4610 C   0  0  0  0  0  0  0  0  0  0  0  0
  141.9470   73.4090  220.4320 C   0  0  0  0  0  0  0  0  0  0  0  0
  140.3233   72.2139  223.3046 H   0  0  0  0  0  0  0  0  0  0  0  0
  139.4142   68.9009  227.1646 H   0  0  0  0  0  0  0  0  0  0  0  0
  140.1233   70.1955  229.1744 H   0  0  0  0  0  0  0  0  0  0  0  0
  141.3677   72.3587  228.8520 H   0  0  0  0  0  0  0  0  0  0  0  0
  141.8684   73.1650  226.5375 H   0  0  0  0  0  0  0  0  0  0  0  0
  141.1342   71.8378  224.5635 H   0  0  0  0  0  0  0  0  0  0  0  0
  139.4790   67.8354  225.8178 H   0  0  0  0  0  0  0  0  0  0  0  0
  138.5737   66.4329  224.0385 H   0  0  0  0  0  0  0  0  0  0  0  0
  138.3221   67.3572  221.7502 H   0  0  0  0  0  0  0  0  0  0  0  0
  138.7390   69.6610  220.3010 H   0  0  0  0  0  0  0  0  0  0  0  0
  139.3697   74.9041  219.4897 H   0  0  0  0  0  0  0  0  0  0  0  0
  139.3275   74.9014  221.2546 H   0  0  0  0  0  0  0  0  0  0  0  0
  141.6998   76.1045  218.3480 H   0  0  0  0  0  0  0  0  0  0  0  0
  140.1592   76.7863  218.8240 H   0  0  0  0  0  0  0  0  0  0  0  0
  142.9477   77.7384  219.3727 H   0  0  0  0  0  0  0  0  0  0  0  0
  141.4317   78.6860  219.3078 H   0  0  0  0  0  0  0  0  0  0  0  0
  140.1427   79.0927  221.2813 H   0  0  0  0  0  0  0  0  0  0  0  0
  142.9014   79.9788  220.9378 H   0  0  0  0  0  0  0  0  0  0  0  0
  141.2646   80.5225  220.2455 H   0  0  0  0  0  0  0  0  0  0  0  0
  142.6569   82.0766  221.6967 H   0  0  0  0  0  0  0  0  0  0  0  0
  140.8349   81.8706  221.8776 H   0  0  0  0  0  0  0  0  0  0  0  0
  142.9660   80.7151  223.6772 H   0  0  0  0  0  0  0  0  0  0  0  0
  141.8870   82.0702  224.0569 H   0  0  0  0  0  0  0  0  0  0  0  0
  140.8513   79.9966  224.9169 H   0  0  0  0  0  0  0  0  0  0  0  0
  139.8923   80.5217  223.5146 H   0  0  0  0  0  0  0  0  0  0  0  0
  142.2193   78.5469  223.4405 H   0  0  0  0  0  0  0  0  0  0  0  0
  140.4520   78.1208  223.4231 H   0  0  0  0  0  0  0  0  0  0  0  0
  141.6338   76.1663  222.4326 H   0  0  0  0  0  0  0  0  0  0  0  0
  140.1067   76.8531  221.8426 H   0  0  0  0  0  0  0  0  0  0  0  0
  143.9991   76.0692  220.4616 H   0  0  0  0  0  0  0  0  0  0  0  0
  145.7048   74.2750  220.5088 H   0  0  0  0  0  0  0  0  0  0  0  0
  144.9666   71.9072  220.5055 H   0  0  0  0  0  0  0  0  0  0  0  0
  142.5583   71.3421  220.4641 H   0  0  0  0  0  0  0  0  0  0  0  0
  1  2  2  0
  2  3  1  0
  3  4  2  0
  4  5  1  0
  5  6  2  0
  6  7  1  0
  7  8  2  0
  8  9  1  0
  9 10  2  0
 10 11  1  0
 11 12  2  0
  6 13  1  0
 13 14  2  0
 14 15  1  0
 15 16  2  0
 16 17  1  0
  2 18  1  0
 18 19  1  0
 20 19  1  6
 20 21  1  0
 21 22  1  0
 22 23  1  0
 23 24  1  0
 24 25  1  0
 25 26  1  0
 26 27  1  0
 27 28  1  0
 28 29  1  0
 23 30  1  0
 20 31  1  0
 31 32  2  0
 32 33  1  0
 33 34  2  0
 34 35  1  0
 35 36  2  0
 17  3  1  0
 36 18  1  0
 16  5  1  0
 30 20  1  0
 36 31  1  0
 12  7  1  0
 29 24  1  0
  4 37  1  0
  8 38  1  0
  9 39  1  0
 10 40  1  0
 11 41  1  0
 12 42  1  0
 13 43  1  0
 14 44  1  0
 15 45  1  0
 17 46  1  0
 19 47  1  0
 19 48  1  0
 21 49  1  0
 21 50  1  0
 22 51  1  0
 22 52  1  0
 24 53  1  0
 25 54  1  0
 25 55  1  0
 26 56  1  0
 26 57  1  0
 27 58  1  0
 27 59  1  0
 28 60  1  0
 28 61  1  0
 29 62  1  0
 29 63  1  0
 30 64  1  0
 30 65  1  0
 32 66  1  0
 33 67  1  0
 34 68  1  0
 35 69  1  0
M  END
>  <smiles>  (40) 
O=C(c1cc2c(-c3ccccc3)cccc2[nH]1)N1C[C@]2(CCN(C3CCCCC3)C2)c2ccccc21

>  <score_type>  (40) 
oracle

>  <origin>  (40) 
autodockgpu

>  <m_score__min__energy>  (40) 
-10.609999999999999

>  <m_primary>  (40) 
energy

>  <rmsd>  (40) 
3.140541437380429

>  <m_score__min__rmsd>  (40) 
3.140541437380429

>  <meeko>  (40) 
{"free_energy": -10.4, "intermolecular_energy": -11.6, "internal_energy": -1.87, "cluster_size": 42, "cluster_id": 1, "rank_in_cluster": 23}

>  <energy>  (40) 
-10.16

>  <cluster_rmsd>  (40) 
0.98

>  <cluster>  (40) 
1

$$$$

     RDKit          3D

 69 75  0  0  0  0  0  0  0  0999 V2000
  138.6790   72.0630  219.7150 O   0  0  0  0  0  0  0  0  0  0  0  0
  139.5280   72.2840  220.6350 C   0  0  0  0  0  0  0  0  0  0  0  0
  139.5230   71.3270  221.7280 C   0  0  0  0  0  0  0  0  0  0  0  0
  139.8180   71.4290  223.0550 C   0  0  0  0  0  0  0  0  0  0  0  0
  139.6600   70.1690  223.6080 C   0  0  0  0  0  0  0  0  0  0  0  0
  139.8220   69.6700  224.8760 C   0  0  0  0  0  0  0  0  0  0  0  0
  140.1860   70.4430  226.0440 C   0  0  0  0  0  0  0  0  0  0  0  0
  141.0450   71.5300  225.9390 C   0  0  0  0  0  0  0  0  0  0  0  0
  141.4570   72.2440  227.0630 C   0  0  0  0  0  0  0  0  0  0  0  0
  140.9820   71.8440  228.3190 C   0  0  0  0  0  0  0  0  0  0  0  0
  140.1140   70.7490  228.4170 C   0  0  0  0  0  0  0  0  0  0  0  0
  139.7240   70.0570  227.2720 C   0  0  0  0  0  0  0  0  0  0  0  0
  139.5790   68.3110  225.0930 C   0  0  0  0  0  0  0  0  0  0  0  0
  139.1900   67.4690  224.1010 C   0  0  0  0  0  0  0  0  0  0  0  0
  139.0270   67.9520  222.8340 C   0  0  0  0  0  0  0  0  0  0  0  0
  139.2640   69.3080  222.5990 C   0  0  0  0  0  0  0  0  0  0  0  0
  139.1890   70.0260  221.4880 N   0  0  0  0  0  0  0  0  0  0  0  0
  140.4140   73.4210  220.5720 N   0  0  0  0  0  0  0  0  0  0  0  0
  139.8730   74.7710  220.5870 C   0  0  0  0  0  0  0  0  0  0  0  0
  141.0650   75.6700  220.5130 C   0  0  1  0  0  0  0  0  0  0  0  0
  141.0040   76.5690  219.2990 C   0  0  0  0  0  0  0  0  0  0  0  0
  141.7690   77.7850  219.7410 C   0  0  0  0  0  0  0  0  0  0  0  0
  141.7920   77.8110  221.1680 N   0  0  0  0  0  0  0  0  0  0  0  0
  141.1650   79.0490  221.6880 C   0  0  0  0  0  0  0  0  0  0  0  0
  141.7700   80.2670  221.0740 C   0  0  0  0  0  0  0  0  0  0  0  0
  141.8210   81.4900  221.8970 C   0  0  0  0  0  0  0  0  0  0  0  0
  142.1060   81.2750  223.3510 C   0  0  0  0  0  0  0  0  0  0  0  0
  141.0590   80.2870  223.8520 C   0  0  0  0  0  0  0  0  0  0  0  0
  141.3390   78.9760  223.1800 C   0  0  0  0  0  0  0  0  0  0  0  0
  141.1060   76.6620  221.6540 C   0  0  0  0  0  0  0  0  0  0  0  0
  142.2100   74.7590  220.5020 C   0  0  0  0  0  0  0  0  0  0  0  0
  143.5660   75.0320  220.4500 C   0  0  0  0  0  0  0  0  0  0  0  0
  144.5190   74.0320  220.4430 C   0  0  0  0  0  0  0  0  0  0  0  0
  144.0940   72.7240  220.4900 C   0  0  0  0  0  0  0  0  0  0  0  0
  142.7560   72.4140  220.5450 C   0  0  0  0  0  0  0  0  0  0  0  0
  141.8290   73.4360  220.5490 C   0  0  0  0  0  0  0  0  0  0  0  0
  140.1243   72.3416  223.5872 H   0  0  0  0  0  0  0  0  0  0  0  0
  141.4082   71.8340  224.9462 H   0  0  0  0  0  0  0  0  0  0  0  0
  142.1391   73.1015  226.9662 H   0  0  0  0  0  0  0  0  0  0  0  0
  141.2895   72.3877  229.2245 H   0  0  0  0  0  0  0  0  0  0  0  0
  139.7387   70.4340  229.4018 H   0  0  0  0  0  0  0  0  0  0  0  0
  139.0425   69.1977  227.3561 H   0  0  0  0  0  0  0  0  0  0  0  0
  139.7080   67.9071  226.1080 H   0  0  0  0  0  0  0  0  0  0  0  0
  139.0076   66.4058  224.3164 H   0  0  0  0  0  0  0  0  0  0  0  0
  138.7154   67.2866  222.0154 H   0  0  0  0  0  0  0  0  0  0  0  0
  138.9090   69.6180  220.5620 H   0  0  0  0  0  0  0  0  0  0  0  0
  139.2136   74.9322  219.7215 H   0  0  0  0  0  0  0  0  0  0  0  0
  139.2681   74.9623  221.4856 H   0  0  0  0  0  0  0  0  0  0  0  0
  141.4838   76.0940  218.4306 H   0  0  0  0  0  0  0  0  0  0  0  0
  139.9765   76.7958  218.9783 H   0  0  0  0  0  0  0  0  0  0  0  0
  142.7976   77.7374  219.3540 H   0  0  0  0  0  0  0  0  0  0  0  0
  141.2865   78.6950  219.3550 H   0  0  0  0  0  0  0  0  0  0  0  0
  140.0988   79.1254  221.4286 H   0  0  0  0  0  0  0  0  0  0  0  0
  142.8033   80.0157  220.7926 H   0  0  0  0  0  0  0  0  0  0  0  0
  141.1030   80.5199  220.2367 H   0  0  0  0  0  0  0  0  0  0  0  0
  142.6089   82.1405  221.4895 H   0  0  0  0  0  0  0  0  0  0  0  0
  140.8142   81.9303  221.8477 H   0  0  0  0  0  0  0  0  0  0  0  0
  143.1158   80.8594  223.4836 H   0  0  0  0  0  0  0  0  0  0  0  0
  142.0623   82.2210  223.9106 H   0  0  0  0  0  0  0  0  0  0  0  0
  141.1355   80.1762  224.9437 H   0  0  0  0  0  0  0  0  0  0  0  0
  140.0431   80.6390  223.6197 H   0  0  0  0  0  0  0  0  0  0  0  0
  142.3751   78.6797  223.4009 H   0  0  0  0  0  0  0  0  0  0  0  0
  140.6187   78.2399  223.5665 H   0  0  0  0  0  0  0  0  0  0  0  0
  141.6447   76.2325  222.5115 H   0  0  0  0  0  0  0  0  0  0  0  0
  140.0918   76.9190  221.9936 H   0  0  0  0  0  0  0  0  0  0  0  0
  143.8959   76.0807  220.4130 H   0  0  0  0  0  0  0  0  0  0  0  0
  145.5909   74.2752  220.4009 H   0  0  0  0  0  0  0  0  0  0  0  0
  144.8373   71.9132  220.4835 H   0  0  0  0  0  0  0  0  0  0  0  0
  142.4285   71.3647  220.5853 H   0  0  0  0  0  0  0  0  0  0  0  0
  1  2  2  0
  2  3  1  0
  3  4  2  0
  4  5  1  0
  5  6  2  0
  6  7  1  0
  7  8  2  0
  8  9  1  0
  9 10  2  0
 10 11  1  0
 11 12  2  0
  6 13  1  0
 13 14  2  0
 14 15  1  0
 15 16  2  0
 16 17  1  0
  2 18  1  0
 18 19  1  0
 20 19  1  1
 20 21  1  0
 21 22  1  0
 22 23  1  0
 23 24  1  0
 24 25  1  0
 25 26  1  0
 26 27  1  0
 27 28  1  0
 28 29  1  0
 23 30  1  0
 20 31  1  0
 31 32  2  0
 32 33  1  0
 33 34  2  0
 34 35  1  0
 35 36  2  0
 17  3  1  0
 36 18  1  0
 16  5  1  0
 30 20  1  0
 36 31  1  0
 12  7  1  0
 29 24  1  0
  4 37  1  0
  8 38  1  0
  9 39  1  0
 10 40  1  0
 11 41  1  0
 12 42  1  0
 13 43  1  0
 14 44  1  0
 15 45  1  0
 17 46  1  0
 19 47  1  0
 19 48  1  0
 21 49  1  0
 21 50  1  0
 22 51  1  0
 22 52  1  0
 24 53  1  0
 25 54  1  0
 25 55  1  0
 26 56  1  0
 26 57  1  0
 27 58  1  0
 27 59  1  0
 28 60  1  0
 28 61  1  0
 29 62  1  0
 29 63  1  0
 30 64  1  0
 30 65  1  0
 32 66  1  0
 33 67  1  0
 34 68  1  0
 35 69  1  0
M  END
>  <smiles>  (41) 
O=C(c1cc2c(-c3ccccc3)cccc2[nH]1)N1C[C@]2(CCN(C3CCCCC3)C2)c2ccccc21

>  <score_type>  (41) 
oracle

>  <origin>  (41) 
autodockgpu

>  <m_score__min__energy>  (41) 
-10.609999999999999

>  <m_primary>  (41) 
energy

>  <rmsd>  (41) 
2.9766518782736284

>  <m_score__min__rmsd>  (41) 
2.9766518782736284

>  <meeko>  (41) 
{"free_energy": -10.6, "intermolecular_energy": -11.79, "internal_energy": -1.89, "cluster_size": 42, "cluster_id": 1, "rank_in_cluster": 4}

>  <energy>  (41) 
-10.12

>  <cluster_rmsd>  (41) 
0.56

>  <cluster>  (41) 
1

$$$$

     RDKit          3D

 69 75  0  0  0  0  0  0  0  0999 V2000
  138.8710   72.0650  219.4100 O   0  0  0  0  0  0  0  0  0  0  0  0
  139.6430   72.3080  220.3900 C   0  0  0  0  0  0  0  0  0  0  0  0
  139.5610   71.3680  221.4950 C   0  0  0  0  0  0  0  0  0  0  0  0
  139.8620   71.4630  222.8210 C   0  0  0  0  0  0  0  0  0  0  0  0
  139.6050   70.2270  223.3890 C   0  0  0  0  0  0  0  0  0  0  0  0
  139.7250   69.7320  224.6640 C   0  0  0  0  0  0  0  0  0  0  0  0
  140.1490   70.4890  225.8220 C   0  0  0  0  0  0  0  0  0  0  0  0
  141.0150   71.5670  225.6910 C   0  0  0  0  0  0  0  0  0  0  0  0
  141.4840   72.2650  226.8030 C   0  0  0  0  0  0  0  0  0  0  0  0
  141.0610   71.8550  228.0740 C   0  0  0  0  0  0  0  0  0  0  0  0
  140.1860   70.7680  228.2000 C   0  0  0  0  0  0  0  0  0  0  0  0
  139.7390   70.0940  227.0650 C   0  0  0  0  0  0  0  0  0  0  0  0
  139.3750   68.4000  224.8970 C   0  0  0  0  0  0  0  0  0  0  0  0
  138.9210   67.5790  223.9150 C   0  0  0  0  0  0  0  0  0  0  0  0
  138.7970   68.0580  222.6420 C   0  0  0  0  0  0  0  0  0  0  0  0
  139.1410   69.3870  222.3900 C   0  0  0  0  0  0  0  0  0  0  0  0
  139.1240   70.0950  221.2700 N   0  0  0  0  0  0  0  0  0  0  0  0
  140.5210   73.4530  220.3780 N   0  0  0  0  0  0  0  0  0  0  0  0
  139.9680   74.7980  220.3870 C   0  0  0  0  0  0  0  0  0  0  0  0
  141.1540   75.7080  220.3730 C   0  0  1  0  0  0  0  0  0  0  0  0
  141.1350   76.6210  219.1680 C   0  0  0  0  0  0  0  0  0  0  0  0
  141.8710   77.8380  219.6560 C   0  0  0  0  0  0  0  0  0  0  0  0
  141.8350   77.8460  221.0830 N   0  0  0  0  0  0  0  0  0  0  0  0
  141.1760   79.0730  221.5920 C   0  0  0  0  0  0  0  0  0  0  0  0
  141.8340   80.3050  221.0650 C   0  0  0  0  0  0  0  0  0  0  0  0
  141.8280   81.5000  221.9280 C   0  0  0  0  0  0  0  0  0  0  0  0
  141.9980   81.2390  223.3920 C   0  0  0  0  0  0  0  0  0  0  0  0
  140.9080   80.2440  223.7790 C   0  0  0  0  0  0  0  0  0  0  0  0
  141.2330   78.9520  223.0900 C   0  0  0  0  0  0  0  0  0  0  0  0
  141.1400   76.6860  221.5270 C   0  0  0  0  0  0  0  0  0  0  0  0
  142.3060   74.8070  220.3980 C   0  0  0  0  0  0  0  0  0  0  0  0
  143.6610   75.0910  220.4060 C   0  0  0  0  0  0  0  0  0  0  0  0
  144.6220   74.0990  220.4260 C   0  0  0  0  0  0  0  0  0  0  0  0
  144.2070   72.7870  220.4400 C   0  0  0  0  0  0  0  0  0  0  0  0
  142.8700   72.4660  220.4360 C   0  0  0  0  0  0  0  0  0  0  0  0
  141.9350   73.4800  220.4130 C   0  0  0  0  0  0  0  0  0  0  0  0
  140.2388   72.3553  223.3424 H   0  0  0  0  0  0  0  0  0  0  0  0
  141.3383   71.8773  224.6864 H   0  0  0  0  0  0  0  0  0  0  0  0
  142.1696   73.1171  226.6852 H   0  0  0  0  0  0  0  0  0  0  0  0
  141.4148   72.3850  228.9706 H   0  0  0  0  0  0  0  0  0  0  0  0
  139.8511   70.4458  229.1970 H   0  0  0  0  0  0  0  0  0  0  0  0
  139.0532   69.2404  227.1697 H   0  0  0  0  0  0  0  0  0  0  0  0
  139.4710   67.9998  225.9171 H   0  0  0  0  0  0  0  0  0  0  0  0
  138.6552   66.5363  224.1431 H   0  0  0  0  0  0  0  0  0  0  0  0
  138.4333   67.4093  221.8315 H   0  0  0  0  0  0  0  0  0  0  0  0
  138.8130   69.6990  220.3490 H   0  0  0  0  0  0  0  0  0  0  0  0
  139.3433   74.9644  219.4970 H   0  0  0  0  0  0  0  0  0  0  0  0
  139.3251   74.9730  221.2623 H   0  0  0  0  0  0  0  0  0  0  0  0
  141.6541   76.1605  218.3145 H   0  0  0  0  0  0  0  0  0  0  0  0
  140.1197   76.8432  218.8077 H   0  0  0  0  0  0  0  0  0  0  0  0
  142.9150   77.8036  219.3112 H   0  0  0  0  0  0  0  0  0  0  0  0
  141.3971   78.7489  219.2615 H   0  0  0  0  0  0  0  0  0  0  0  0
  140.1335   79.1663  221.2535 H   0  0  0  0  0  0  0  0  0  0  0  0
  142.8845   80.0543  220.8562 H   0  0  0  0  0  0  0  0  0  0  0  0
  141.2356   80.5895  220.1869 H   0  0  0  0  0  0  0  0  0  0  0  0
  142.6487   82.1565  221.6033 H   0  0  0  0  0  0  0  0  0  0  0  0
  140.8300   81.9486  221.8153 H   0  0  0  0  0  0  0  0  0  0  0  0
  142.9919   80.8111  223.5897 H   0  0  0  0  0  0  0  0  0  0  0  0
  141.9170   82.1678  223.9757 H   0  0  0  0  0  0  0  0  0  0  0  0
  140.8979   80.0991  224.8694 H   0  0  0  0  0  0  0  0  0  0  0  0
  139.9153   80.6112  223.4794 H   0  0  0  0  0  0  0  0  0  0  0  0
  142.2472   78.6413  223.3813 H   0  0  0  0  0  0  0  0  0  0  0  0
  140.4814   78.2094  223.3961 H   0  0  0  0  0  0  0  0  0  0  0  0
  141.6473   76.2503  222.4004 H   0  0  0  0  0  0  0  0  0  0  0  0
  140.1107   76.9304  221.8285 H   0  0  0  0  0  0  0  0  0  0  0  0
  143.9833   76.1427  220.3961 H   0  0  0  0  0  0  0  0  0  0  0  0
  145.6926   74.3515  220.4306 H   0  0  0  0  0  0  0  0  0  0  0  0
  144.9568   71.9823  220.4546 H   0  0  0  0  0  0  0  0  0  0  0  0
  142.5499   71.4137  220.4510 H   0  0  0  0  0  0  0  0  0  0  0  0
  1  2  2  0
  2  3  1  0
  3  4  2  0
  4  5  1  0
  5  6  2  0
  6  7  1  0
  7  8  2  0
  8  9  1  0
  9 10  2  0
 10 11  1  0
 11 12  2  0
  6 13  1  0
 13 14  2  0
 14 15  1  0
 15 16  2  0
 16 17  1  0
  2 18  1  0
 18 19  1  0
 20 19  1  1
 20 21  1  0
 21 22  1  0
 22 23  1  0
 23 24  1  0
 24 25  1  0
 25 26  1  0
 26 27  1  0
 27 28  1  0
 28 29  1  0
 23 30  1  0
 20 31  1  0
 31 32  2  0
 32 33  1  0
 33 34  2  0
 34 35  1  0
 35 36  2  0
 17  3  1  0
 36 18  1  0
 16  5  1  0
 30 20  1  0
 36 31  1  0
 12  7  1  0
 29 24  1  0
  4 37  1  0
  8 38  1  0
  9 39  1  0
 10 40  1  0
 11 41  1  0
 12 42  1  0
 13 43  1  0
 14 44  1  0
 15 45  1  0
 17 46  1  0
 19 47  1  0
 19 48  1  0
 21 49  1  0
 21 50  1  0
 22 51  1  0
 22 52  1  0
 24 53  1  0
 25 54  1  0
 25 55  1  0
 26 56  1  0
 26 57  1  0
 27 58  1  0
 27 59  1  0
 28 60  1  0
 28 61  1  0
 29 62  1  0
 29 63  1  0
 30 64  1  0
 30 65  1  0
 32 66  1  0
 33 67  1  0
 34 68  1  0
 35 69  1  0
M  END
>  <smiles>  (42) 
O=C(c1cc2c(-c3ccccc3)cccc2[nH]1)N1C[C@]2(CCN(C3CCCCC3)C2)c2ccccc21

>  <score_type>  (42) 
oracle

>  <origin>  (42) 
autodockgpu

>  <m_score__min__energy>  (42) 
-10.609999999999999

>  <m_primary>  (42) 
energy

>  <rmsd>  (42) 
2.9714951286433715

>  <m_score__min__rmsd>  (42) 
2.9714951286433715

>  <meeko>  (42) 
{"free_energy": -10.47, "intermolecular_energy": -11.66, "internal_energy": -1.91, "cluster_size": 42, "cluster_id": 1, "rank_in_cluster": 19}

>  <energy>  (42) 
-10.09

>  <cluster_rmsd>  (42) 
1.14

>  <cluster>  (42) 
1

$$$$

     RDKit          3D

 69 75  0  0  0  0  0  0  0  0999 V2000
  138.1940   72.5620  219.8980 O   0  0  0  0  0  0  0  0  0  0  0  0
  139.1080   72.6900  220.7720 C   0  0  0  0  0  0  0  0  0  0  0  0
  139.1510   71.6480  221.7840 C   0  0  0  0  0  0  0  0  0  0  0  0
  139.5360   71.6380  223.0910 C   0  0  0  0  0  0  0  0  0  0  0  0
  139.3830   70.3410  223.5530 C   0  0  0  0  0  0  0  0  0  0  0  0
  139.6160   69.7380  224.7640 C   0  0  0  0  0  0  0  0  0  0  0  0
  140.0780   70.4070  225.9610 C   0  0  0  0  0  0  0  0  0  0  0  0
  140.9320   71.5000  225.8820 C   0  0  0  0  0  0  0  0  0  0  0  0
  141.4370   72.1140  227.0270 C   0  0  0  0  0  0  0  0  0  0  0  0
  141.0640   71.6050  228.2770 C   0  0  0  0  0  0  0  0  0  0  0  0
  140.2000   70.5040  228.3500 C   0  0  0  0  0  0  0  0  0  0  0  0
  139.7150   69.9140  227.1840 C   0  0  0  0  0  0  0  0  0  0  0  0
  139.3540   68.3710  224.8880 C   0  0  0  0  0  0  0  0  0  0  0  0
  138.8770   67.6200  223.8620 C   0  0  0  0  0  0  0  0  0  0  0  0
  138.6420   68.2070  222.6520 C   0  0  0  0  0  0  0  0  0  0  0  0
  138.8980   69.5720  222.5090 C   0  0  0  0  0  0  0  0  0  0  0  0
  138.7680   70.3780  221.4660 N   0  0  0  0  0  0  0  0  0  0  0  0
  140.0170   73.8100  220.7390 N   0  0  0  0  0  0  0  0  0  0  0  0
  139.5520   75.1390  221.1030 C   0  0  0  0  0  0  0  0  0  0  0  0
  140.7470   76.0250  220.9540 C   0  0  1  0  0  0  0  0  0  0  0  0
  140.4940   77.1330  219.9580 C   0  0  0  0  0  0  0  0  0  0  0  0
  141.3860   78.2390  220.4490 C   0  0  0  0  0  0  0  0  0  0  0  0
  141.6860   78.0000  221.8240 N   0  0  0  0  0  0  0  0  0  0  0  0
  141.2310   79.1280  222.6710 C   0  0  0  0  0  0  0  0  0  0  0  0
  140.3750   80.0790  221.9020 C   0  0  0  0  0  0  0  0  0  0  0  0
  140.4220   81.5010  222.2900 C   0  0  0  0  0  0  0  0  0  0  0  0
  141.7680   82.0110  222.7010 C   0  0  0  0  0  0  0  0  0  0  0  0
  142.2510   81.0940  223.8190 C   0  0  0  0  0  0  0  0  0  0  0  0
  142.4930   79.7480  223.2050 C   0  0  0  0  0  0  0  0  0  0  0  0
  141.0560   76.7880  222.2230 C   0  0  0  0  0  0  0  0  0  0  0  0
  141.8250   75.1200  220.5520 C   0  0  0  0  0  0  0  0  0  0  0  0
  143.1560   75.3840  220.2810 C   0  0  0  0  0  0  0  0  0  0  0  0
  144.0420   74.3930  219.9050 C   0  0  0  0  0  0  0  0  0  0  0  0
  143.5740   73.1030  219.8010 C   0  0  0  0  0  0  0  0  0  0  0  0
  142.2590   72.8020  220.0660 C   0  0  0  0  0  0  0  0  0  0  0  0
  141.3990   73.8150  220.4370 C   0  0  0  0  0  0  0  0  0  0  0  0
  139.9002   72.4989  223.6709 H   0  0  0  0  0  0  0  0  0  0  0  0
  141.2161   71.8897  224.8934 H   0  0  0  0  0  0  0  0  0  0  0  0
  142.1129   72.9784  226.9504 H   0  0  0  0  0  0  0  0  0  0  0  0
  141.4477   72.0676  229.1983 H   0  0  0  0  0  0  0  0  0  0  0  0
  139.9036   70.1040  229.3309 H   0  0  0  0  0  0  0  0  0  0  0  0
  139.0382   69.0492  227.2477 H   0  0  0  0  0  0  0  0  0  0  0  0
  139.5418   67.8834  225.8560 H   0  0  0  0  0  0  0  0  0  0  0  0
  138.6815   66.5470  224.0048 H   0  0  0  0  0  0  0  0  0  0  0  0
  138.2587   67.6164  221.8068 H   0  0  0  0  0  0  0  0  0  0  0  0
  138.4150   70.0520  220.5320 H   0  0  0  0  0  0  0  0  0  0  0  0
  138.7447   75.4633  220.4299 H   0  0  0  0  0  0  0  0  0  0  0  0
  139.1433   75.1670  222.1239 H   0  0  0  0  0  0  0  0  0  0  0  0
  140.7737   76.8217  218.9407 H   0  0  0  0  0  0  0  0  0  0  0  0
  139.4355   77.4256  219.8945 H   0  0  0  0  0  0  0  0  0  0  0  0
  142.3167   78.2533  219.8629 H   0  0  0  0  0  0  0  0  0  0  0  0
  140.8811   79.2097  220.3358 H   0  0  0  0  0  0  0  0  0  0  0  0
  140.5834   78.8021  223.4983 H   0  0  0  0  0  0  0  0  0  0  0  0
  140.6771   80.0150  220.8462 H   0  0  0  0  0  0  0  0  0  0  0  0
  139.3430   79.7635  222.1149 H   0  0  0  0  0  0  0  0  0  0  0  0
  140.0805   82.0983  221.4317 H   0  0  0  0  0  0  0  0  0  0  0  0
  139.7790   81.5940  223.1776 H   0  0  0  0  0  0  0  0  0  0  0  0
  142.4649   81.9744  221.8507 H   0  0  0  0  0  0  0  0  0  0  0  0
  141.7131   83.0567  223.0378 H   0  0  0  0  0  0  0  0  0  0  0  0
  143.1833   81.4850  224.2526 H   0  0  0  0  0  0  0  0  0  0  0  0
  141.5056   81.0304  224.6254 H   0  0  0  0  0  0  0  0  0  0  0  0
  143.2092   79.8604  222.3777 H   0  0  0  0  0  0  0  0  0  0  0  0
  142.8864   79.0861  223.9905 H   0  0  0  0  0  0  0  0  0  0  0  0
  141.7314   76.2019  222.8636 H   0  0  0  0  0  0  0  0  0  0  0  0
  140.1407   76.9872  222.7996 H   0  0  0  0  0  0  0  0  0  0  0  0
  143.5210   76.4180  220.3679 H   0  0  0  0  0  0  0  0  0  0  0  0
  145.0954   74.6291  219.6940 H   0  0  0  0  0  0  0  0  0  0  0  0
  144.2632   72.2998  219.5010 H   0  0  0  0  0  0  0  0  0  0  0  0
  141.8971   71.7665  219.9833 H   0  0  0  0  0  0  0  0  0  0  0  0
  1  2  2  0
  2  3  1  0
  3  4  2  0
  4  5  1  0
  5  6  2  0
  6  7  1  0
  7  8  2  0
  8  9  1  0
  9 10  2  0
 10 11  1  0
 11 12  2  0
  6 13  1  0
 13 14  2  0
 14 15  1  0
 15 16  2  0
 16 17  1  0
  2 18  1  0
 18 19  1  0
 20 19  1  1
 20 21  1  0
 21 22  1  0
 22 23  1  0
 23 24  1  0
 24 25  1  0
 25 26  1  0
 26 27  1  0
 27 28  1  0
 28 29  1  0
 23 30  1  0
 20 31  1  0
 31 32  2  0
 32 33  1  0
 33 34  2  0
 34 35  1  0
 35 36  2  0
 17  3  1  0
 36 18  1  0
 16  5  1  0
 30 20  1  0
 36 31  1  0
 12  7  1  0
 29 24  1  0
  4 37  1  0
  8 38  1  0
  9 39  1  0
 10 40  1  0
 11 41  1  0
 12 42  1  0
 13 43  1  0
 14 44  1  0
 15 45  1  0
 17 46  1  0
 19 47  1  0
 19 48  1  0
 21 49  1  0
 21 50  1  0
 22 51  1  0
 22 52  1  0
 24 53  1  0
 25 54  1  0
 25 55  1  0
 26 56  1  0
 26 57  1  0
 27 58  1  0
 27 59  1  0
 28 60  1  0
 28 61  1  0
 29 62  1  0
 29 63  1  0
 30 64  1  0
 30 65  1  0
 32 66  1  0
 33 67  1  0
 34 68  1  0
 35 69  1  0
M  END
>  <smiles>  (43) 
O=C(c1cc2c(-c3ccccc3)cccc2[nH]1)N1C[C@]2(CCN(C3CCCCC3)C2)c2ccccc21

>  <score_type>  (43) 
oracle

>  <origin>  (43) 
autodockgpu

>  <m_score__min__energy>  (43) 
-10.609999999999999

>  <m_primary>  (43) 
energy

>  <rmsd>  (43) 
2.5606115062076222

>  <m_score__min__rmsd>  (43) 
2.5606115062076222

>  <meeko>  (43) 
{"free_energy": -10.39, "intermolecular_energy": -11.58, "internal_energy": -1.86, "cluster_size": 42, "cluster_id": 1, "rank_in_cluster": 29}

>  <energy>  (43) 
-10.39

>  <cluster_rmsd>  (43) 
0.0

>  <cluster>  (43) 
2

$$$$

     RDKit          3D

 69 75  0  0  0  0  0  0  0  0999 V2000
  137.9420   72.7000  220.0940 O   0  0  0  0  0  0  0  0  0  0  0  0
  138.9240   72.7470  220.9010 C   0  0  0  0  0  0  0  0  0  0  0  0
  139.0020   71.6490  221.8490 C   0  0  0  0  0  0  0  0  0  0  0  0
  139.4180   71.5690  223.1450 C   0  0  0  0  0  0  0  0  0  0  0  0
  139.2910   70.2450  223.5340 C   0  0  0  0  0  0  0  0  0  0  0  0
  139.5590   69.5770  224.7020 C   0  0  0  0  0  0  0  0  0  0  0  0
  140.0400   70.1820  225.9260 C   0  0  0  0  0  0  0  0  0  0  0  0
  139.5880   69.7410  227.1640 C   0  0  0  0  0  0  0  0  0  0  0  0
  139.9910   70.3570  228.3480 C   0  0  0  0  0  0  0  0  0  0  0  0
  140.8730   71.4430  228.2680 C   0  0  0  0  0  0  0  0  0  0  0  0
  141.3260   71.8810  227.0170 C   0  0  0  0  0  0  0  0  0  0  0  0
  140.9010   71.2420  225.8540 C   0  0  0  0  0  0  0  0  0  0  0  0
  139.3150   68.2030  224.7540 C   0  0  0  0  0  0  0  0  0  0  0  0
  138.8230   67.5050  223.6970 C   0  0  0  0  0  0  0  0  0  0  0  0
  138.5540   68.1580  222.5280 C   0  0  0  0  0  0  0  0  0  0  0  0
  138.7900   69.5320  222.4580 C   0  0  0  0  0  0  0  0  0  0  0  0
  138.6270   70.3950  221.4670 N   0  0  0  0  0  0  0  0  0  0  0  0
  139.8710   73.8350  220.8560 N   0  0  0  0  0  0  0  0  0  0  0  0
  139.4540   75.1820  221.2090 C   0  0  0  0  0  0  0  0  0  0  0  0
  140.6790   76.0240  221.0510 C   0  0  1  0  0  0  0  0  0  0  0  0
  140.4620   77.1320  220.0450 C   0  0  0  0  0  0  0  0  0  0  0  0
  141.3930   78.2100  220.5250 C   0  0  0  0  0  0  0  0  0  0  0  0
  141.6870   77.9730  221.9020 N   0  0  0  0  0  0  0  0  0  0  0  0
  141.2730   79.1230  222.7400 C   0  0  0  0  0  0  0  0  0  0  0  0
  140.3690   80.0460  221.9940 C   0  0  0  0  0  0  0  0  0  0  0  0
  140.4290   81.4790  222.3360 C   0  0  0  0  0  0  0  0  0  0  0  0
  141.7920   82.0090  222.6550 C   0  0  0  0  0  0  0  0  0  0  0  0
  142.3430   81.1280  223.7700 C   0  0  0  0  0  0  0  0  0  0  0  0
  142.5590   79.7650  223.1840 C   0  0  0  0  0  0  0  0  0  0  0  0
  141.0160   76.7870  222.3130 C   0  0  0  0  0  0  0  0  0  0  0  0
  141.7230   75.0790  220.6550 C   0  0  0  0  0  0  0  0  0  0  0  0
  143.0630   75.2940  220.3790 C   0  0  0  0  0  0  0  0  0  0  0  0
  143.9130   74.2700  220.0110 C   0  0  0  0  0  0  0  0  0  0  0  0
  143.4000   72.9960  219.9190 C   0  0  0  0  0  0  0  0  0  0  0  0
  142.0760   72.7430  220.1880 C   0  0  0  0  0  0  0  0  0  0  0  0
  141.2520   73.7880  220.5520 C   0  0  0  0  0  0  0  0  0  0  0  0
  139.7855   72.3997  223.7655 H   0  0  0  0  0  0  0  0  0  0  0  0
  138.8967   68.8867  227.2108 H   0  0  0  0  0  0  0  0  0  0  0  0
  139.6253   69.9991  229.3218 H   0  0  0  0  0  0  0  0  0  0  0  0
  141.2086   71.9499  229.1848 H   0  0  0  0  0  0  0  0  0  0  0  0
  142.0196   72.7323  226.9525 H   0  0  0  0  0  0  0  0  0  0  0  0
  141.2593   71.5914  224.8745 H   0  0  0  0  0  0  0  0  0  0  0  0
  139.5298   67.6639  225.6885 H   0  0  0  0  0  0  0  0  0  0  0  0
  138.6429   66.4232  223.7822 H   0  0  0  0  0  0  0  0  0  0  0  0
  138.1591   67.6118  221.6586 H   0  0  0  0  0  0  0  0  0  0  0  0
  138.2570   70.1190  220.5240 H   0  0  0  0  0  0  0  0  0  0  0  0
  138.6575   75.5288  220.5342 H   0  0  0  0  0  0  0  0  0  0  0  0
  139.0482   75.2331  222.2301 H   0  0  0  0  0  0  0  0  0  0  0  0
  140.7284   76.8024  219.0299 H   0  0  0  0  0  0  0  0  0  0  0  0
  139.4142   77.4606  219.9806 H   0  0  0  0  0  0  0  0  0  0  0  0
  142.3227   78.1864  219.9375 H   0  0  0  0  0  0  0  0  0  0  0  0
  140.9222   79.1968  220.4040 H   0  0  0  0  0  0  0  0  0  0  0  0
  140.6753   78.8181  223.6117 H   0  0  0  0  0  0  0  0  0  0  0  0
  140.6106   79.9517  220.9250 H   0  0  0  0  0  0  0  0  0  0  0  0
  139.3529   79.7323  222.2753 H   0  0  0  0  0  0  0  0  0  0  0  0
  140.0357   82.0482  221.4808 H   0  0  0  0  0  0  0  0  0  0  0  0
  139.8371   81.5949  223.2559 H   0  0  0  0  0  0  0  0  0  0  0  0
  142.4403   81.9512  221.7683 H   0  0  0  0  0  0  0  0  0  0  0  0
  141.7488   83.0640  222.9633 H   0  0  0  0  0  0  0  0  0  0  0  0
  143.2956   81.5363  224.1385 H   0  0  0  0  0  0  0  0  0  0  0  0
  141.6442   81.0848  224.6184 H   0  0  0  0  0  0  0  0  0  0  0  0
  143.2274   79.8556  222.3151 H   0  0  0  0  0  0  0  0  0  0  0  0
  142.9997   79.1290  223.9659 H   0  0  0  0  0  0  0  0  0  0  0  0
  141.6717   76.1837  222.9580 H   0  0  0  0  0  0  0  0  0  0  0  0
  140.1091   77.0227  222.8891 H   0  0  0  0  0  0  0  0  0  0  0  0
  143.4639   76.3155  220.4556 H   0  0  0  0  0  0  0  0  0  0  0  0
  144.9737   74.4674  219.7967 H   0  0  0  0  0  0  0  0  0  0  0  0
  144.0604   72.1668  219.6254 H   0  0  0  0  0  0  0  0  0  0  0  0
  141.6784   71.7201  220.1140 H   0  0  0  0  0  0  0  0  0  0  0  0
  1  2  2  0
  2  3  1  0
  3  4  2  0
  4  5  1  0
  5  6  2  0
  6  7  1  0
  7  8  2  0
  8  9  1  0
  9 10  2  0
 10 11  1  0
 11 12  2  0
  6 13  1  0
 13 14  2  0
 14 15  1  0
 15 16  2  0
 16 17  1  0
  2 18  1  0
 18 19  1  0
 20 19  1  1
 20 21  1  0
 21 22  1  0
 22 23  1  0
 23 24  1  0
 24 25  1  0
 25 26  1  0
 26 27  1  0
 27 28  1  0
 28 29  1  0
 23 30  1  0
 20 31  1  0
 31 32  2  0
 32 33  1  0
 33 34  2  0
 34 35  1  0
 35 36  2  0
 17  3  1  0
 36 18  1  0
 16  5  1  0
 30 20  1  0
 36 31  1  0
 12  7  1  0
 29 24  1  0
  4 37  1  0
  8 38  1  0
  9 39  1  0
 10 40  1  0
 11 41  1  0
 12 42  1  0
 13 43  1  0
 14 44  1  0
 15 45  1  0
 17 46  1  0
 19 47  1  0
 19 48  1  0
 21 49  1  0
 21 50  1  0
 22 51  1  0
 22 52  1  0
 24 53  1  0
 25 54  1  0
 25 55  1  0
 26 56  1  0
 26 57  1  0
 27 58  1  0
 27 59  1  0
 28 60  1  0
 28 61  1  0
 29 62  1  0
 29 63  1  0
 30 64  1  0
 30 65  1  0
 32 66  1  0
 33 67  1  0
 34 68  1  0
 35 69  1  0
M  END
>  <smiles>  (44) 
O=C(c1cc2c(-c3ccccc3)cccc2[nH]1)N1C[C@]2(CCN(C3CCCCC3)C2)c2ccccc21

>  <score_type>  (44) 
oracle

>  <origin>  (44) 
autodockgpu

>  <m_score__min__energy>  (44) 
-10.609999999999999

>  <m_primary>  (44) 
energy

>  <rmsd>  (44) 
2.733212577724018

>  <m_score__min__rmsd>  (44) 
2.733212577724018

>  <meeko>  (44) 
{"free_energy": -10.33, "intermolecular_energy": -11.53, "internal_energy": -1.85, "cluster_size": 42, "cluster_id": 1, "rank_in_cluster": 33}

>  <energy>  (44) 
-10.38

>  <cluster_rmsd>  (44) 
0.11

>  <cluster>  (44) 
2

$$$$

     RDKit          3D

 69 75  0  0  0  0  0  0  0  0999 V2000
  139.8960   74.5180  222.1170 O   0  0  0  0  0  0  0  0  0  0  0  0
  140.5810   73.4610  221.9440 C   0  0  0  0  0  0  0  0  0  0  0  0
  140.0670   72.2720  222.6000 C   0  0  0  0  0  0  0  0  0  0  0  0
  140.3250   71.6900  223.8050 C   0  0  0  0  0  0  0  0  0  0  0  0
  139.5500   70.5450  223.8810 C   0  0  0  0  0  0  0  0  0  0  0  0
  139.3990   69.5710  224.8360 C   0  0  0  0  0  0  0  0  0  0  0  0
  140.0510   69.5520  226.1280 C   0  0  0  0  0  0  0  0  0  0  0  0
  140.3910   70.7360  226.7710 C   0  0  0  0  0  0  0  0  0  0  0  0
  141.0790   70.7340  227.9840 C   0  0  0  0  0  0  0  0  0  0  0  0
  141.4250   69.5020  228.5530 C   0  0  0  0  0  0  0  0  0  0  0  0
  141.0770   68.3120  227.9000 C   0  0  0  0  0  0  0  0  0  0  0  0
  140.3910   68.3520  226.6880 C   0  0  0  0  0  0  0  0  0  0  0  0
  138.5140   68.5210  224.5820 C   0  0  0  0  0  0  0  0  0  0  0  0
  137.7990   68.4260  223.4310 C   0  0  0  0  0  0  0  0  0  0  0  0
  137.9410   69.3880  222.4720 C   0  0  0  0  0  0  0  0  0  0  0  0
  138.8200   70.4460  222.7090 C   0  0  0  0  0  0  0  0  0  0  0  0
  139.1480   71.4910  221.9630 N   0  0  0  0  0  0  0  0  0  0  0  0
  141.7870   73.4800  221.1520 N   0  0  0  0  0  0  0  0  0  0  0  0
  142.7020   72.3500  221.1860 C   0  0  0  0  0  0  0  0  0  0  0  0
  143.8130   72.7190  220.2570 C   0  0  1  0  0  0  0  0  0  0  0  0
  145.1470   72.7330  220.9690 C   0  0  0  0  0  0  0  0  0  0  0  0
  146.1180   72.3940  219.8740 C   0  0  0  0  0  0  0  0  0  0  0  0
  145.4040   71.7450  218.8210 N   0  0  0  0  0  0  0  0  0  0  0  0
  145.9420   70.3870  218.5720 C   0  0  0  0  0  0  0  0  0  0  0  0
  146.0060   70.0840  217.1120 C   0  0  0  0  0  0  0  0  0  0  0  0
  145.8210   68.6800  216.7000 C   0  0  0  0  0  0  0  0  0  0  0  0
  144.8110   67.9060  217.4890 C   0  0  0  0  0  0  0  0  0  0  0  0
  145.2250   68.0270  218.9510 C   0  0  0  0  0  0  0  0  0  0  0  0
  145.0370   69.4630  219.3410 C   0  0  0  0  0  0  0  0  0  0  0  0
  144.0280   71.6800  219.1790 C   0  0  0  0  0  0  0  0  0  0  0  0
  143.4270   74.0260  219.7260 C   0  0  0  0  0  0  0  0  0  0  0  0
  144.0730   74.8460  218.8160 C   0  0  0  0  0  0  0  0  0  0  0  0
  143.5560   76.0660  218.4270 C   0  0  0  0  0  0  0  0  0  0  0  0
  142.3580   76.4710  218.9680 C   0  0  0  0  0  0  0  0  0  0  0  0
  141.6850   75.6830  219.8730 C   0  0  0  0  0  0  0  0  0  0  0  0
  142.2290   74.4700  220.2420 C   0  0  0  0  0  0  0  0  0  0  0  0
  141.0192   72.0606  224.5736 H   0  0  0  0  0  0  0  0  0  0  0  0
  140.1113   71.6962  226.3130 H   0  0  0  0  0  0  0  0  0  0  0  0
  141.3438   71.6782  228.4823 H   0  0  0  0  0  0  0  0  0  0  0  0
  141.9680   69.4686  229.5091 H   0  0  0  0  0  0  0  0  0  0  0  0
  141.3463   67.3431  228.3458 H   0  0  0  0  0  0  0  0  0  0  0  0
  140.1219   67.4144  226.1796 H   0  0  0  0  0  0  0  0  0  0  0  0
  138.3909   67.7387  225.3454 H   0  0  0  0  0  0  0  0  0  0  0  0
  137.1118   67.5818  223.2727 H   0  0  0  0  0  0  0  0  0  0  0  0
  137.3738   69.3301  221.5313 H   0  0  0  0  0  0  0  0  0  0  0  0
  138.7380   71.6640  221.0110 H   0  0  0  0  0  0  0  0  0  0  0  0
  143.0863   72.1951  222.2050 H   0  0  0  0  0  0  0  0  0  0  0  0
  142.2098   71.4127  220.8874 H   0  0  0  0  0  0  0  0  0  0  0  0
  145.3590   73.7261  221.3920 H   0  0  0  0  0  0  0  0  0  0  0  0
  145.1919   72.0365  221.8192 H   0  0  0  0  0  0  0  0  0  0  0  0
  146.5847   73.3146  219.4936 H   0  0  0  0  0  0  0  0  0  0  0  0
  146.9057   71.7305  220.2604 H   0  0  0  0  0  0  0  0  0  0  0  0
  146.9828   70.2748  218.9098 H   0  0  0  0  0  0  0  0  0  0  0  0
  145.2238   70.6785  216.6174 H   0  0  0  0  0  0  0  0  0  0  0  0
  147.0378   70.3286  216.8196 H   0  0  0  0  0  0  0  0  0  0  0  0
  145.5049   68.6745  215.6464 H   0  0  0  0  0  0  0  0  0  0  0  0
  146.7868   68.1835  216.8749 H   0  0  0  0  0  0  0  0  0  0  0  0
  143.8066   68.3296  217.3414 H   0  0  0  0  0  0  0  0  0  0  0  0
  144.7755   66.8540  217.1696 H   0  0  0  0  0  0  0  0  0  0  0  0
  144.5940   67.3794  219.5774 H   0  0  0  0  0  0  0  0  0  0  0  0
  146.2706   67.7153  219.0906 H   0  0  0  0  0  0  0  0  0  0  0  0
  143.9926   69.7484  219.1469 H   0  0  0  0  0  0  0  0  0  0  0  0
  145.2877   69.5575  220.4079 H   0  0  0  0  0  0  0  0  0  0  0  0
  143.3975   71.9030  218.3056 H   0  0  0  0  0  0  0  0  0  0  0  0
  143.7579   70.6754  219.5365 H   0  0  0  0  0  0  0  0  0  0  0  0
  145.0306   74.5142  218.3884 H   0  0  0  0  0  0  0  0  0  0  0  0
  144.0893   76.6985  217.7021 H   0  0  0  0  0  0  0  0  0  0  0  0
  141.9311   77.4407  218.6723 H   0  0  0  0  0  0  0  0  0  0  0  0
  140.7259   76.0157  220.2967 H   0  0  0  0  0  0  0  0  0  0  0  0
  1  2  2  0
  2  3  1  0
  3  4  2  0
  4  5  1  0
  5  6  2  0
  6  7  1  0
  7  8  2  0
  8  9  1  0
  9 10  2  0
 10 11  1  0
 11 12  2  0
  6 13  1  0
 13 14  2  0
 14 15  1  0
 15 16  2  0
 16 17  1  0
  2 18  1  0
 18 19  1  0
 20 19  1  1
 20 21  1  0
 21 22  1  0
 22 23  1  0
 23 24  1  0
 24 25  1  0
 25 26  1  0
 26 27  1  0
 27 28  1  0
 28 29  1  0
 23 30  1  0
 20 31  1  0
 31 32  2  0
 32 33  1  0
 33 34  2  0
 34 35  1  0
 35 36  2  0
 17  3  1  0
 36 18  1  0
 16  5  1  0
 30 20  1  0
 36 31  1  0
 12  7  1  0
 29 24  1  0
  4 37  1  0
  8 38  1  0
  9 39  1  0
 10 40  1  0
 11 41  1  0
 12 42  1  0
 13 43  1  0
 14 44  1  0
 15 45  1  0
 17 46  1  0
 19 47  1  0
 19 48  1  0
 21 49  1  0
 21 50  1  0
 22 51  1  0
 22 52  1  0
 24 53  1  0
 25 54  1  0
 25 55  1  0
 26 56  1  0
 26 57  1  0
 27 58  1  0
 27 59  1  0
 28 60  1  0
 28 61  1  0
 29 62  1  0
 29 63  1  0
 30 64  1  0
 30 65  1  0
 32 66  1  0
 33 67  1  0
 34 68  1  0
 35 69  1  0
M  END
>  <smiles>  (45) 
O=C(c1cc2c(-c3ccccc3)cccc2[nH]1)N1C[C@]2(CCN(C3CCCCC3)C2)c2ccccc21

>  <score_type>  (45) 
oracle

>  <origin>  (45) 
autodockgpu

>  <m_score__min__energy>  (45) 
-10.609999999999999

>  <m_primary>  (45) 
energy

>  <rmsd>  (45) 
7.632580383994286

>  <m_score__min__rmsd>  (45) 
7.632580383994286

>  <meeko>  (45) 
{"free_energy": -10.33, "intermolecular_energy": -11.53, "internal_energy": -1.66, "cluster_size": 6, "cluster_id": 2, "rank_in_cluster": 5}

>  <energy>  (45) 
-10.35

>  <cluster_rmsd>  (45) 
0.17

>  <cluster>  (45) 
2

$$$$

     RDKit          3D

 69 75  0  0  0  0  0  0  0  0999 V2000
  138.3640   72.2430  219.9180 O   0  0  0  0  0  0  0  0  0  0  0  0
  139.2990   72.3960  220.7660 C   0  0  0  0  0  0  0  0  0  0  0  0
  139.3550   71.3970  221.8180 C   0  0  0  0  0  0  0  0  0  0  0  0
  139.7040   71.4510  223.1340 C   0  0  0  0  0  0  0  0  0  0  0  0
  139.5890   70.1680  223.6420 C   0  0  0  0  0  0  0  0  0  0  0  0
  139.8120   69.6220  224.8810 C   0  0  0  0  0  0  0  0  0  0  0  0
  140.2130   70.3540  226.0630 C   0  0  0  0  0  0  0  0  0  0  0  0
  139.6910   70.0340  227.3100 C   0  0  0  0  0  0  0  0  0  0  0  0
  140.0160   70.7720  228.4480 C   0  0  0  0  0  0  0  0  0  0  0  0
  140.8930   71.8560  228.3110 C   0  0  0  0  0  0  0  0  0  0  0  0
  141.4180   72.1720  227.0510 C   0  0  0  0  0  0  0  0  0  0  0  0
  141.0690   71.4130  225.9360 C   0  0  0  0  0  0  0  0  0  0  0  0
  139.6000   68.2520  225.0530 C   0  0  0  0  0  0  0  0  0  0  0  0
  139.1820   67.4430  224.0450 C   0  0  0  0  0  0  0  0  0  0  0  0
  138.9580   67.9730  222.8060 C   0  0  0  0  0  0  0  0  0  0  0  0
  139.1640   69.3410  222.6170 C   0  0  0  0  0  0  0  0  0  0  0  0
  139.0310   70.1010  221.5400 N   0  0  0  0  0  0  0  0  0  0  0  0
  140.2190   73.5040  220.6650 N   0  0  0  0  0  0  0  0  0  0  0  0
  139.7200   74.8700  220.6630 C   0  0  0  0  0  0  0  0  0  0  0  0
  140.9370   75.7300  220.5500 C   0  0  1  0  0  0  0  0  0  0  0  0
  140.8820   76.6070  219.3200 C   0  0  0  0  0  0  0  0  0  0  0  0
  141.6920   77.8070  219.7250 C   0  0  0  0  0  0  0  0  0  0  0  0
  141.7410   77.8590  221.1510 N   0  0  0  0  0  0  0  0  0  0  0  0
  141.1630   79.1260  221.6570 C   0  0  0  0  0  0  0  0  0  0  0  0
  141.8900   80.3130  221.1180 C   0  0  0  0  0  0  0  0  0  0  0  0
  141.9630   81.5120  221.9750 C   0  0  0  0  0  0  0  0  0  0  0  0
  142.1280   81.2480  223.4390 C   0  0  0  0  0  0  0  0  0  0  0  0
  140.9840   80.3230  223.8390 C   0  0  0  0  0  0  0  0  0  0  0  0
  141.2240   79.0100  223.1560 C   0  0  0  0  0  0  0  0  0  0  0  0
  141.0300   76.7420  221.6710 C   0  0  0  0  0  0  0  0  0  0  0  0
  142.0530   74.7840  220.5370 C   0  0  0  0  0  0  0  0  0  0  0  0
  143.4160   75.0130  220.4560 C   0  0  0  0  0  0  0  0  0  0  0  0
  144.3370   73.9840  220.4530 C   0  0  0  0  0  0  0  0  0  0  0  0
  143.8740   72.6910  220.5330 C   0  0  0  0  0  0  0  0  0  0  0  0
  142.5270   72.4240  220.6170 C   0  0  0  0  0  0  0  0  0  0  0  0
  141.6320   73.4740  220.6170 C   0  0  0  0  0  0  0  0  0  0  0  0
  140.0185   72.3469  223.6894 H   0  0  0  0  0  0  0  0  0  0  0  0
  139.0054   69.1787  227.4020 H   0  0  0  0  0  0  0  0  0  0  0  0
  139.5940   70.5093  229.4293 H   0  0  0  0  0  0  0  0  0  0  0  0
  141.1686   72.4572  229.1900 H   0  0  0  0  0  0  0  0  0  0  0  0
  142.1078   73.0219  226.9418 H   0  0  0  0  0  0  0  0  0  0  0  0
  141.4837   71.6666  224.9493 H   0  0  0  0  0  0  0  0  0  0  0  0
  139.7787   67.8106  226.0446 H   0  0  0  0  0  0  0  0  0  0  0  0
  139.0251   66.3692  224.2251 H   0  0  0  0  0  0  0  0  0  0  0  0
  138.6224   67.3355  221.9748 H   0  0  0  0  0  0  0  0  0  0  0  0
  138.7180   69.7260  220.6100 H   0  0  0  0  0  0  0  0  0  0  0  0
  139.0499   75.0349  219.8064 H   0  0  0  0  0  0  0  0  0  0  0  0
  139.1380   75.0971  221.5684 H   0  0  0  0  0  0  0  0  0  0  0  0
  141.3314   76.1008  218.4529 H   0  0  0  0  0  0  0  0  0  0  0  0
  139.8564   76.8594  219.0126 H   0  0  0  0  0  0  0  0  0  0  0  0
  142.7116   77.7201  219.3214 H   0  0  0  0  0  0  0  0  0  0  0  0
  141.2312   78.7242  219.3296 H   0  0  0  0  0  0  0  0  0  0  0  0
  140.1257   79.2808  221.3251 H   0  0  0  0  0  0  0  0  0  0  0  0
  142.9218   79.9981  220.9027 H   0  0  0  0  0  0  0  0  0  0  0  0
  141.3031   80.6284  220.2428 H   0  0  0  0  0  0  0  0  0  0  0  0
  142.8195   82.1159  221.6408 H   0  0  0  0  0  0  0  0  0  0  0  0
  140.9934   82.0202  221.8670 H   0  0  0  0  0  0  0  0  0  0  0  0
  143.0958   80.7620  223.6316 H   0  0  0  0  0  0  0  0  0  0  0  0
  142.1074   82.1828  224.0185 H   0  0  0  0  0  0  0  0  0  0  0  0
  140.9734   80.1850  224.9303 H   0  0  0  0  0  0  0  0  0  0  0  0
  140.0134   80.7480  223.5436 H   0  0  0  0  0  0  0  0  0  0  0  0
  142.2195   78.6394  223.4418 H   0  0  0  0  0  0  0  0  0  0  0  0
  140.4309   78.3165  223.4722 H   0  0  0  0  0  0  0  0  0  0  0  0
  141.5714   76.3122  222.5266 H   0  0  0  0  0  0  0  0  0  0  0  0
  140.0307   77.0367  222.0239 H   0  0  0  0  0  0  0  0  0  0  0  0
  143.7776   76.0499  220.3918 H   0  0  0  0  0  0  0  0  0  0  0  0
  145.4150   74.1932  220.3882 H   0  0  0  0  0  0  0  0  0  0  0  0
  144.5920   71.8576  220.5298 H   0  0  0  0  0  0  0  0  0  0  0  0
  142.1680   71.3863  220.6833 H   0  0  0  0  0  0  0  0  0  0  0  0
  1  2  2  0
  2  3  1  0
  3  4  2  0
  4  5  1  0
  5  6  2  0
  6  7  1  0
  7  8  2  0
  8  9  1  0
  9 10  2  0
 10 11  1  0
 11 12  2  0
  6 13  1  0
 13 14  2  0
 14 15  1  0
 15 16  2  0
 16 17  1  0
  2 18  1  0
 18 19  1  0
 20 19  1  1
 20 21  1  0
 21 22  1  0
 22 23  1  0
 23 24  1  0
 24 25  1  0
 25 26  1  0
 26 27  1  0
 27 28  1  0
 28 29  1  0
 23 30  1  0
 20 31  1  0
 31 32  2  0
 32 33  1  0
 33 34  2  0
 34 35  1  0
 35 36  2  0
 17  3  1  0
 36 18  1  0
 16  5  1  0
 30 20  1  0
 36 31  1  0
 12  7  1  0
 29 24  1  0
  4 37  1  0
  8 38  1  0
  9 39  1  0
 10 40  1  0
 11 41  1  0
 12 42  1  0
 13 43  1  0
 14 44  1  0
 15 45  1  0
 17 46  1  0
 19 47  1  0
 19 48  1  0
 21 49  1  0
 21 50  1  0
 22 51  1  0
 22 52  1  0
 24 53  1  0
 25 54  1  0
 25 55  1  0
 26 56  1  0
 26 57  1  0
 27 58  1  0
 27 59  1  0
 28 60  1  0
 28 61  1  0
 29 62  1  0
 29 63  1  0
 30 64  1  0
 30 65  1  0
 32 66  1  0
 33 67  1  0
 34 68  1  0
 35 69  1  0
M  END
>  <smiles>  (46) 
O=C(c1cc2c(-c3ccccc3)cccc2[nH]1)N1C[C@]2(CCN(C3CCCCC3)C2)c2ccccc21

>  <score_type>  (46) 
oracle

>  <origin>  (46) 
autodockgpu

>  <m_score__min__energy>  (46) 
-10.609999999999999

>  <m_primary>  (46) 
energy

>  <rmsd>  (46) 
3.1180775906175358

>  <m_score__min__rmsd>  (46) 
3.1180775906175358

>  <meeko>  (46) 
{"free_energy": -10.53, "intermolecular_energy": -11.72, "internal_energy": -1.88, "cluster_size": 42, "cluster_id": 1, "rank_in_cluster": 15}

>  <energy>  (46) 
-10.34

>  <cluster_rmsd>  (46) 
0.65

>  <cluster>  (46) 
2

$$$$

     RDKit          3D

 69 75  0  0  0  0  0  0  0  0999 V2000
  138.1070   72.8740  220.0410 O   0  0  0  0  0  0  0  0  0  0  0  0
  139.1310   72.8670  220.7950 C   0  0  0  0  0  0  0  0  0  0  0  0
  139.1630   71.8100  221.7910 C   0  0  0  0  0  0  0  0  0  0  0  0
  139.5460   71.7770  223.0980 C   0  0  0  0  0  0  0  0  0  0  0  0
  139.3820   70.4740  223.5400 C   0  0  0  0  0  0  0  0  0  0  0  0
  139.6070   69.8510  224.7410 C   0  0  0  0  0  0  0  0  0  0  0  0
  140.0710   70.4980  225.9500 C   0  0  0  0  0  0  0  0  0  0  0  0
  140.9360   71.5840  225.8890 C   0  0  0  0  0  0  0  0  0  0  0  0
  141.4440   72.1760  227.0440 C   0  0  0  0  0  0  0  0  0  0  0  0
  141.0620   71.6530  228.2860 C   0  0  0  0  0  0  0  0  0  0  0  0
  140.1880   70.5590  228.3400 C   0  0  0  0  0  0  0  0  0  0  0  0
  139.7010   69.9910  227.1640 C   0  0  0  0  0  0  0  0  0  0  0  0
  139.3330   68.4850  224.8450 C   0  0  0  0  0  0  0  0  0  0  0  0
  138.8530   67.7530  223.8070 C   0  0  0  0  0  0  0  0  0  0  0  0
  138.6250   68.3600  222.6050 C   0  0  0  0  0  0  0  0  0  0  0  0
  138.8920   69.7250  222.4830 C   0  0  0  0  0  0  0  0  0  0  0  0
  138.7710   70.5490  221.4520 N   0  0  0  0  0  0  0  0  0  0  0  0
  140.1660   73.8620  220.6500 N   0  0  0  0  0  0  0  0  0  0  0  0
  139.8190   75.2720  220.5650 C   0  0  0  0  0  0  0  0  0  0  0  0
  141.1230   75.9880  220.4270 C   0  0  1  0  0  0  0  0  0  0  0  0
  141.1780   76.7950  219.1510 C   0  0  0  0  0  0  0  0  0  0  0  0
  142.1090   77.9220  219.5030 C   0  0  0  0  0  0  0  0  0  0  0  0
  142.1470   78.0480  220.9250 N   0  0  0  0  0  0  0  0  0  0  0  0
  141.7030   79.3970  221.3520 C   0  0  0  0  0  0  0  0  0  0  0  0
  142.5880   79.9510  222.4190 C   0  0  0  0  0  0  0  0  0  0  0  0
  141.9720   80.8510  223.4110 C   0  0  0  0  0  0  0  0  0  0  0  0
  140.5810   80.4920  223.8310 C   0  0  0  0  0  0  0  0  0  0  0  0
  139.7580   80.3990  222.5510 C   0  0  0  0  0  0  0  0  0  0  0  0
  140.2740   79.2170  221.7850 C   0  0  0  0  0  0  0  0  0  0  0  0
  141.3120   77.0450  221.4930 C   0  0  0  0  0  0  0  0  0  0  0  0
  142.1300   74.9280  220.4860 C   0  0  0  0  0  0  0  0  0  0  0  0
  143.5100   75.0040  220.4160 C   0  0  0  0  0  0  0  0  0  0  0  0
  144.3150   73.8830  220.4850 C   0  0  0  0  0  0  0  0  0  0  0  0
  143.7120   72.6540  220.6270 C   0  0  0  0  0  0  0  0  0  0  0  0
  142.3440   72.5390  220.7020 C   0  0  0  0  0  0  0  0  0  0  0  0
  141.5690   73.6780  220.6290 C   0  0  0  0  0  0  0  0  0  0  0  0
  139.9162   72.6260  223.6915 H   0  0  0  0  0  0  0  0  0  0  0  0
  141.2263   71.9855  224.9069 H   0  0  0  0  0  0  0  0  0  0  0  0
  142.1292   73.0343  226.9817 H   0  0  0  0  0  0  0  0  0  0  0  0
  141.4465   72.0992  229.2150 H   0  0  0  0  0  0  0  0  0  0  0  0
  139.8852   70.1470  229.3139 H   0  0  0  0  0  0  0  0  0  0  0  0
  139.0163   69.1315  227.2132 H   0  0  0  0  0  0  0  0  0  0  0  0
  139.5134   67.9822  225.8066 H   0  0  0  0  0  0  0  0  0  0  0  0
  138.6494   66.6794  223.9332 H   0  0  0  0  0  0  0  0  0  0  0  0
  138.2389   67.7852  221.7503 H   0  0  0  0  0  0  0  0  0  0  0  0
  138.4180   70.2390  220.5130 H   0  0  0  0  0  0  0  0  0  0  0  0
  139.1809   75.4602  219.6890 H   0  0  0  0  0  0  0  0  0  0  0  0
  139.2550   75.6107  221.4465 H   0  0  0  0  0  0  0  0  0  0  0  0
  141.5795   76.1952  218.3209 H   0  0  0  0  0  0  0  0  0  0  0  0
  140.1894   77.1391  218.8129 H   0  0  0  0  0  0  0  0  0  0  0  0
  143.1176   77.7033  219.1224 H   0  0  0  0  0  0  0  0  0  0  0  0
  141.7553   78.8599  219.0499 H   0  0  0  0  0  0  0  0  0  0  0  0
  141.7685   80.1409  220.5443 H   0  0  0  0  0  0  0  0  0  0  0  0
  143.0167   79.0993  222.9674 H   0  0  0  0  0  0  0  0  0  0  0  0
  143.3160   80.5782  221.8836 H   0  0  0  0  0  0  0  0  0  0  0  0
  142.6076   80.8515  224.3088 H   0  0  0  0  0  0  0  0  0  0  0  0
  141.8955   81.8330  222.9212 H   0  0  0  0  0  0  0  0  0  0  0  0
  140.5792   79.5254  224.3560 H   0  0  0  0  0  0  0  0  0  0  0  0
  140.1653   81.2420  224.5199 H   0  0  0  0  0  0  0  0  0  0  0  0
  138.6948   80.2568  222.7946 H   0  0  0  0  0  0  0  0  0  0  0  0
  139.8471   81.3213  221.9582 H   0  0  0  0  0  0  0  0  0  0  0  0
  140.2080   78.3247  222.4248 H   0  0  0  0  0  0  0  0  0  0  0  0
  139.6591   79.1084  220.8794 H   0  0  0  0  0  0  0  0  0  0  0  0
  141.7932   76.6078  222.3803 H   0  0  0  0  0  0  0  0  0  0  0  0
  140.3467   77.4651  221.8118 H   0  0  0  0  0  0  0  0  0  0  0  0
  143.9824   75.9908  220.3015 H   0  0  0  0  0  0  0  0  0  0  0  0
  145.4100   73.9707  220.4279 H   0  0  0  0  0  0  0  0  0  0  0  0
  144.3348   71.7489  220.6814 H   0  0  0  0  0  0  0  0  0  0  0  0
  141.8735   71.5516  220.8187 H   0  0  0  0  0  0  0  0  0  0  0  0
  1  2  2  0
  2  3  1  0
  3  4  2  0
  4  5  1  0
  5  6  2  0
  6  7  1  0
  7  8  2  0
  8  9  1  0
  9 10  2  0
 10 11  1  0
 11 12  2  0
  6 13  1  0
 13 14  2  0
 14 15  1  0
 15 16  2  0
 16 17  1  0
  2 18  1  0
 18 19  1  0
 20 19  1  1
 20 21  1  0
 21 22  1  0
 22 23  1  0
 23 24  1  0
 24 25  1  0
 25 26  1  0
 26 27  1  0
 27 28  1  0
 28 29  1  0
 23 30  1  0
 20 31  1  0
 31 32  2  0
 32 33  1  0
 33 34  2  0
 34 35  1  0
 35 36  2  0
 17  3  1  0
 36 18  1  0
 16  5  1  0
 30 20  1  0
 36 31  1  0
 12  7  1  0
 29 24  1  0
  4 37  1  0
  8 38  1  0
  9 39  1  0
 10 40  1  0
 11 41  1  0
 12 42  1  0
 13 43  1  0
 14 44  1  0
 15 45  1  0
 17 46  1  0
 19 47  1  0
 19 48  1  0
 21 49  1  0
 21 50  1  0
 22 51  1  0
 22 52  1  0
 24 53  1  0
 25 54  1  0
 25 55  1  0
 26 56  1  0
 26 57  1  0
 27 58  1  0
 27 59  1  0
 28 60  1  0
 28 61  1  0
 29 62  1  0
 29 63  1  0
 30 64  1  0
 30 65  1  0
 32 66  1  0
 33 67  1  0
 34 68  1  0
 35 69  1  0
M  END
>  <smiles>  (47) 
O=C(c1cc2c(-c3ccccc3)cccc2[nH]1)N1C[C@]2(CCN(C3CCCCC3)C2)c2ccccc21

>  <score_type>  (47) 
oracle

>  <origin>  (47) 
autodockgpu

>  <m_score__min__energy>  (47) 
-10.609999999999999

>  <m_primary>  (47) 
energy

>  <rmsd>  (47) 
2.948469470644663

>  <m_score__min__rmsd>  (47) 
2.948469470644663

>  <meeko>  (47) 
{"free_energy": -10.41, "intermolecular_energy": -11.6, "internal_energy": -1.93, "cluster_size": 42, "cluster_id": 1, "rank_in_cluster": 22}

>  <energy>  (47) 
-10.33

>  <cluster_rmsd>  (47) 
0.62

>  <cluster>  (47) 
2

$$$$

     RDKit          3D

 69 75  0  0  0  0  0  0  0  0999 V2000
  138.8280   71.9660  219.6170 O   0  0  0  0  0  0  0  0  0  0  0  0
  139.6380   72.2170  220.5630 C   0  0  0  0  0  0  0  0  0  0  0  0
  139.6060   71.2800  221.6730 C   0  0  0  0  0  0  0  0  0  0  0  0
  139.8940   71.4000  223.0000 C   0  0  0  0  0  0  0  0  0  0  0  0
  139.7080   70.1540  223.5740 C   0  0  0  0  0  0  0  0  0  0  0  0
  139.8500   69.6740  224.8520 C   0  0  0  0  0  0  0  0  0  0  0  0
  140.2220   70.4610  226.0090 C   0  0  0  0  0  0  0  0  0  0  0  0
  141.0470   71.5710  225.8790 C   0  0  0  0  0  0  0  0  0  0  0  0
  141.4670   72.3000  226.9910 C   0  0  0  0  0  0  0  0  0  0  0  0
  141.0360   71.8900  228.2590 C   0  0  0  0  0  0  0  0  0  0  0  0
  140.2030   70.7710  228.3820 C   0  0  0  0  0  0  0  0  0  0  0  0
  139.8040   70.0650  227.2480 C   0  0  0  0  0  0  0  0  0  0  0  0
  139.5790   68.3250  225.0910 C   0  0  0  0  0  0  0  0  0  0  0  0
  139.1800   67.4730  224.1120 C   0  0  0  0  0  0  0  0  0  0  0  0
  139.0350   67.9360  222.8350 C   0  0  0  0  0  0  0  0  0  0  0  0
  139.3010   69.2830  222.5780 C   0  0  0  0  0  0  0  0  0  0  0  0
  139.2480   69.9820  221.4540 N   0  0  0  0  0  0  0  0  0  0  0  0
  140.5090   73.3660  220.5120 N   0  0  0  0  0  0  0  0  0  0  0  0
  139.9480   74.7080  220.5100 C   0  0  0  0  0  0  0  0  0  0  0  0
  141.1280   75.6240  220.4540 C   0  0  1  0  0  0  0  0  0  0  0  0
  141.0780   76.5160  219.2350 C   0  0  0  0  0  0  0  0  0  0  0  0
  141.8170   77.7450  219.6850 C   0  0  0  0  0  0  0  0  0  0  0  0
  141.8120   77.7780  221.1120 N   0  0  0  0  0  0  0  0  0  0  0  0
  141.1580   79.0100  221.6140 C   0  0  0  0  0  0  0  0  0  0  0  0
  141.9840   80.2200  221.3340 C   0  0  0  0  0  0  0  0  0  0  0  0
  141.9020   81.3360  222.2940 C   0  0  0  0  0  0  0  0  0  0  0  0
  141.7840   80.9400  223.7330 C   0  0  0  0  0  0  0  0  0  0  0  0
  140.5760   80.0130  223.8230 C   0  0  0  0  0  0  0  0  0  0  0  0
  140.9310   78.7600  223.0800 C   0  0  0  0  0  0  0  0  0  0  0  0
  141.1340   76.6210  221.5910 C   0  0  0  0  0  0  0  0  0  0  0  0
  142.2860   74.7300  220.4690 C   0  0  0  0  0  0  0  0  0  0  0  0
  143.6390   75.0210  220.4420 C   0  0  0  0  0  0  0  0  0  0  0  0
  144.6060   74.0350  220.4580 C   0  0  0  0  0  0  0  0  0  0  0  0
  144.1990   72.7210  220.5040 C   0  0  0  0  0  0  0  0  0  0  0  0
  142.8640   72.3930  220.5350 C   0  0  0  0  0  0  0  0  0  0  0  0
  141.9230   73.4010  220.5160 C   0  0  0  0  0  0  0  0  0  0  0  0
  140.2144   72.3160  223.5181 H   0  0  0  0  0  0  0  0  0  0  0  0
  141.3763   71.8818  224.8765 H   0  0  0  0  0  0  0  0  0  0  0  0
  142.1214   73.1765  226.8751 H   0  0  0  0  0  0  0  0  0  0  0  0
  141.3507   72.4450  229.1551 H   0  0  0  0  0  0  0  0  0  0  0  0
  139.8623   70.4480  229.3768 H   0  0  0  0  0  0  0  0  0  0  0  0
  139.1505   69.1862  227.3511 H   0  0  0  0  0  0  0  0  0  0  0  0
  139.6934   67.9370  226.1139 H   0  0  0  0  0  0  0  0  0  0  0  0
  138.9750   66.4178  224.3454 H   0  0  0  0  0  0  0  0  0  0  0  0
  138.7155   67.2623  222.0262 H   0  0  0  0  0  0  0  0  0  0  0  0
  138.9650   69.5630  220.5330 H   0  0  0  0  0  0  0  0  0  0  0  0
  139.3028   74.8554  219.6314 H   0  0  0  0  0  0  0  0  0  0  0  0
  139.3234   74.8946  221.3960 H   0  0  0  0  0  0  0  0  0  0  0  0
  141.5811   76.0436  218.3785 H   0  0  0  0  0  0  0  0  0  0  0  0
  140.0537   76.7267  218.8937 H   0  0  0  0  0  0  0  0  0  0  0  0
  142.8534   77.7102  219.3181 H   0  0  0  0  0  0  0  0  0  0  0  0
  141.3294   78.6462  219.2849 H   0  0  0  0  0  0  0  0  0  0  0  0
  140.2043   79.2202  221.1077 H   0  0  0  0  0  0  0  0  0  0  0  0
  143.0352   79.8988  221.2908 H   0  0  0  0  0  0  0  0  0  0  0  0
  141.5778   80.6262  220.3959 H   0  0  0  0  0  0  0  0  0  0  0  0
  142.8109   81.9457  222.1836 H   0  0  0  0  0  0  0  0  0  0  0  0
  140.9745   81.8755  222.0519 H   0  0  0  0  0  0  0  0  0  0  0  0
  142.6933   80.4139  224.0593 H   0  0  0  0  0  0  0  0  0  0  0  0
  141.6625   81.8200  224.3817 H   0  0  0  0  0  0  0  0  0  0  0  0
  140.3563   79.7793  224.8752 H   0  0  0  0  0  0  0  0  0  0  0  0
  139.6830   80.4874  223.3900 H   0  0  0  0  0  0  0  0  0  0  0  0
  141.8506   78.3401  223.5137 H   0  0  0  0  0  0  0  0  0  0  0  0
  140.0864   78.0617  223.1753 H   0  0  0  0  0  0  0  0  0  0  0  0
  141.6634   76.2030  222.4599 H   0  0  0  0  0  0  0  0  0  0  0  0
  140.1102   76.8645  221.9114 H   0  0  0  0  0  0  0  0  0  0  0  0
  143.9550   76.0740  220.4066 H   0  0  0  0  0  0  0  0  0  0  0  0
  145.6749   74.2935  220.4345 H   0  0  0  0  0  0  0  0  0  0  0  0
  144.9535   71.9207  220.5162 H   0  0  0  0  0  0  0  0  0  0  0  0
  142.5504   71.3394  220.5745 H   0  0  0  0  0  0  0  0  0  0  0  0
  1  2  2  0
  2  3  1  0
  3  4  2  0
  4  5  1  0
  5  6  2  0
  6  7  1  0
  7  8  2  0
  8  9  1  0
  9 10  2  0
 10 11  1  0
 11 12  2  0
  6 13  1  0
 13 14  2  0
 14 15  1  0
 15 16  2  0
 16 17  1  0
  2 18  1  0
 18 19  1  0
 20 19  1  1
 20 21  1  0
 21 22  1  0
 22 23  1  0
 23 24  1  0
 24 25  1  0
 25 26  1  0
 26 27  1  0
 27 28  1  0
 28 29  1  0
 23 30  1  0
 20 31  1  0
 31 32  2  0
 32 33  1  0
 33 34  2  0
 34 35  1  0
 35 36  2  0
 17  3  1  0
 36 18  1  0
 16  5  1  0
 30 20  1  0
 36 31  1  0
 12  7  1  0
 29 24  1  0
  4 37  1  0
  8 38  1  0
  9 39  1  0
 10 40  1  0
 11 41  1  0
 12 42  1  0
 13 43  1  0
 14 44  1  0
 15 45  1  0
 17 46  1  0
 19 47  1  0
 19 48  1  0
 21 49  1  0
 21 50  1  0
 22 51  1  0
 22 52  1  0
 24 53  1  0
 25 54  1  0
 25 55  1  0
 26 56  1  0
 26 57  1  0
 27 58  1  0
 27 59  1  0
 28 60  1  0
 28 61  1  0
 29 62  1  0
 29 63  1  0
 30 64  1  0
 30 65  1  0
 32 66  1  0
 33 67  1  0
 34 68  1  0
 35 69  1  0
M  END
>  <smiles>  (48) 
O=C(c1cc2c(-c3ccccc3)cccc2[nH]1)N1C[C@]2(CCN(C3CCCCC3)C2)c2ccccc21

>  <score_type>  (48) 
oracle

>  <origin>  (48) 
autodockgpu

>  <m_score__min__energy>  (48) 
-10.609999999999999

>  <m_primary>  (48) 
energy

>  <rmsd>  (48) 
3.068958061344437

>  <m_score__min__rmsd>  (48) 
3.068958061344437

>  <meeko>  (48) 
{"free_energy": -10.55, "intermolecular_energy": -11.74, "internal_energy": -1.91, "cluster_size": 42, "cluster_id": 1, "rank_in_cluster": 11}

>  <energy>  (48) 
-10.31

>  <cluster_rmsd>  (48) 
0.67

>  <cluster>  (48) 
2

$$$$

     RDKit          3D

 69 75  0  0  0  0  0  0  0  0999 V2000
  140.5410   70.8890  219.3830 O   0  0  0  0  0  0  0  0  0  0  0  0
  140.6380   71.6210  220.4170 C   0  0  0  0  0  0  0  0  0  0  0  0
  139.9890   71.1020  221.6090 C   0  0  0  0  0  0  0  0  0  0  0  0
  140.2700   71.2030  222.9390 C   0  0  0  0  0  0  0  0  0  0  0  0
  139.3080   70.4720  223.6170 C   0  0  0  0  0  0  0  0  0  0  0  0
  139.0890   70.2100  224.9460 C   0  0  0  0  0  0  0  0  0  0  0  0
  139.8690   70.7320  226.0470 C   0  0  0  0  0  0  0  0  0  0  0  0
  140.7250   71.8110  225.8640 C   0  0  0  0  0  0  0  0  0  0  0  0
  141.5320   72.2840  226.8970 C   0  0  0  0  0  0  0  0  0  0  0  0
  141.4650   71.6460  228.1420 C   0  0  0  0  0  0  0  0  0  0  0  0
  140.5980   70.5590  228.3200 C   0  0  0  0  0  0  0  0  0  0  0  0
  139.8070   70.1130  227.2640 C   0  0  0  0  0  0  0  0  0  0  0  0
  138.0000   69.4070  225.2940 C   0  0  0  0  0  0  0  0  0  0  0  0
  137.1530   68.8790  224.3730 C   0  0  0  0  0  0  0  0  0  0  0  0
  137.3610   69.1320  223.0470 C   0  0  0  0  0  0  0  0  0  0  0  0
  138.4440   69.9330  222.6800 C   0  0  0  0  0  0  0  0  0  0  0  0
  138.8740   70.3260  221.4900 N   0  0  0  0  0  0  0  0  0  0  0  0
  141.3430   72.8790  220.3740 N   0  0  0  0  0  0  0  0  0  0  0  0
  140.6040   74.1290  220.2900 C   0  0  0  0  0  0  0  0  0  0  0  0
  141.6470   75.1990  220.2680 C   0  0  1  0  0  0  0  0  0  0  0  0
  141.5500   76.0400  219.0160 C   0  0  0  0  0  0  0  0  0  0  0  0
  142.0820   77.3730  219.4620 C   0  0  0  0  0  0  0  0  0  0  0  0
  141.9840   77.4450  220.8850 N   0  0  0  0  0  0  0  0  0  0  0  0
  141.1360   78.5870  221.3020 C   0  0  0  0  0  0  0  0  0  0  0  0
  141.7970   79.8940  221.0130 C   0  0  0  0  0  0  0  0  0  0  0  0
  141.5060   81.0180  221.9210 C   0  0  0  0  0  0  0  0  0  0  0  0
  141.3650   80.6580  223.3670 C   0  0  0  0  0  0  0  0  0  0  0  0
  140.2980   79.5710  223.4360 C   0  0  0  0  0  0  0  0  0  0  0  0
  140.8660   78.3580  222.7640 C   0  0  0  0  0  0  0  0  0  0  0  0
  141.4440   76.2190  221.3660 C   0  0  0  0  0  0  0  0  0  0  0  0
  142.9140   74.4770  220.3840 C   0  0  0  0  0  0  0  0  0  0  0  0
  144.2130   74.9540  220.4240 C   0  0  0  0  0  0  0  0  0  0  0  0
  145.3040   74.1140  220.5330 C   0  0  0  0  0  0  0  0  0  0  0  0
  145.0810   72.7580  220.6030 C   0  0  0  0  0  0  0  0  0  0  0  0
  143.8050   72.2470  220.5690 C   0  0  0  0  0  0  0  0  0  0  0  0
  142.7360   73.1120  220.4580 C   0  0  0  0  0  0  0  0  0  0  0  0
  141.1043   71.7605  223.3896 H   0  0  0  0  0  0  0  0  0  0  0  0
  140.7667   72.3032  224.8811 H   0  0  0  0  0  0  0  0  0  0  0  0
  142.2060   73.1387  226.7382 H   0  0  0  0  0  0  0  0  0  0  0  0
  142.0901   71.9964  228.9766 H   0  0  0  0  0  0  0  0  0  0  0  0
  140.5422   70.0566  229.2970 H   0  0  0  0  0  0  0  0  0  0  0  0
  139.1294   69.2589  227.4101 H   0  0  0  0  0  0  0  0  0  0  0  0
  137.8212   69.1935  226.3582 H   0  0  0  0  0  0  0  0  0  0  0  0
  136.3067   68.2530  224.6922 H   0  0  0  0  0  0  0  0  0  0  0  0
  136.6888   68.7131  222.2837 H   0  0  0  0  0  0  0  0  0  0  0  0
  138.3980   70.0570  220.5930 H   0  0  0  0  0  0  0  0  0  0  0  0
  140.0005   74.1595  219.3709 H   0  0  0  0  0  0  0  0  0  0  0  0
  139.9062   74.2518  221.1314 H   0  0  0  0  0  0  0  0  0  0  0  0
  142.1662   75.6187  218.2080 H   0  0  0  0  0  0  0  0  0  0  0  0
  140.5297   76.0948  218.6086 H   0  0  0  0  0  0  0  0  0  0  0  0
  143.1339   77.4741  219.1566 H   0  0  0  0  0  0  0  0  0  0  0  0
  141.5000   78.1851  219.0018 H   0  0  0  0  0  0  0  0  0  0  0  0
  140.1918   78.6403  220.7402 H   0  0  0  0  0  0  0  0  0  0  0  0
  142.8838   79.7257  221.0344 H   0  0  0  0  0  0  0  0  0  0  0  0
  141.3889   80.2060  220.0403 H   0  0  0  0  0  0  0  0  0  0  0  0
  142.3250   81.7468  221.8315 H   0  0  0  0  0  0  0  0  0  0  0  0
  140.5267   81.4113  221.6107 H   0  0  0  0  0  0  0  0  0  0  0  0
  142.3201   80.2795  223.7600 H   0  0  0  0  0  0  0  0  0  0  0  0
  141.0834   81.5332  223.9710 H   0  0  0  0  0  0  0  0  0  0  0  0
  140.0570   79.3440  224.4850 H   0  0  0  0  0  0  0  0  0  0  0  0
  139.3718   79.8974  222.9405 H   0  0  0  0  0  0  0  0  0  0  0  0
  141.8103   78.0889  223.2599 H   0  0  0  0  0  0  0  0  0  0  0  0
  140.1238   77.5503  222.8459 H   0  0  0  0  0  0  0  0  0  0  0  0
  141.9707   75.9042  222.2790 H   0  0  0  0  0  0  0  0  0  0  0  0
  140.3784   76.3256  221.6172 H   0  0  0  0  0  0  0  0  0  0  0  0
  144.3821   76.0394  220.3670 H   0  0  0  0  0  0  0  0  0  0  0  0
  146.3262   74.5192  220.5631 H   0  0  0  0  0  0  0  0  0  0  0  0
  145.9368   72.0722  220.6875 H   0  0  0  0  0  0  0  0  0  0  0  0
  143.6385   71.1614  220.6296 H   0  0  0  0  0  0  0  0  0  0  0  0
  1  2  2  0
  2  3  1  0
  3  4  2  0
  4  5  1  0
  5  6  2  0
  6  7  1  0
  7  8  2  0
  8  9  1  0
  9 10  2  0
 10 11  1  0
 11 12  2  0
  6 13  1  0
 13 14  2  0
 14 15  1  0
 15 16  2  0
 16 17  1  0
  2 18  1  0
 18 19  1  0
 20 19  1  6
 20 21  1  0
 21 22  1  0
 22 23  1  0
 23 24  1  0
 24 25  1  0
 25 26  1  0
 26 27  1  0
 27 28  1  0
 28 29  1  0
 23 30  1  0
 20 31  1  0
 31 32  2  0
 32 33  1  0
 33 34  2  0
 34 35  1  0
 35 36  2  0
 17  3  1  0
 36 18  1  0
 16  5  1  0
 30 20  1  0
 36 31  1  0
 12  7  1  0
 29 24  1  0
  4 37  1  0
  8 38  1  0
  9 39  1  0
 10 40  1  0
 11 41  1  0
 12 42  1  0
 13 43  1  0
 14 44  1  0
 15 45  1  0
 17 46  1  0
 19 47  1  0
 19 48  1  0
 21 49  1  0
 21 50  1  0
 22 51  1  0
 22 52  1  0
 24 53  1  0
 25 54  1  0
 25 55  1  0
 26 56  1  0
 26 57  1  0
 27 58  1  0
 27 59  1  0
 28 60  1  0
 28 61  1  0
 29 62  1  0
 29 63  1  0
 30 64  1  0
 30 65  1  0
 32 66  1  0
 33 67  1  0
 34 68  1  0
 35 69  1  0
M  END
>  <smiles>  (49) 
O=C(c1cc2c(-c3ccccc3)cccc2[nH]1)N1C[C@]2(CCN(C3CCCCC3)C2)c2ccccc21

>  <score_type>  (49) 
oracle

>  <origin>  (49) 
autodockgpu

>  <m_score__min__energy>  (49) 
-10.609999999999999

>  <m_primary>  (49) 
energy

>  <rmsd>  (49) 
3.1560898122857775

>  <m_score__min__rmsd>  (49) 
3.1560898122857775

>  <meeko>  (49) 
{"free_energy": -10.46, "intermolecular_energy": -11.66, "internal_energy": -1.78, "cluster_size": 42, "cluster_id": 1, "rank_in_cluster": 20}

>  <energy>  (49) 
-10.14

>  <cluster_rmsd>  (49) 
0.0

>  <cluster>  (49) 
3

$$$$

     RDKit          3D

 69 75  0  0  0  0  0  0  0  0999 V2000
  140.5220   70.8810  219.3510 O   0  0  0  0  0  0  0  0  0  0  0  0
  140.6300   71.6060  220.3900 C   0  0  0  0  0  0  0  0  0  0  0  0
  139.9870   71.0820  221.5830 C   0  0  0  0  0  0  0  0  0  0  0  0
  140.2980   71.1400  222.9080 C   0  0  0  0  0  0  0  0  0  0  0  0
  139.3240   70.4290  223.5890 C   0  0  0  0  0  0  0  0  0  0  0  0
  139.1220   70.1420  224.9160 C   0  0  0  0  0  0  0  0  0  0  0  0
  139.9440   70.6080  226.0120 C   0  0  0  0  0  0  0  0  0  0  0  0
  139.9560   69.9370  227.2280 C   0  0  0  0  0  0  0  0  0  0  0  0
  140.6910   70.4100  228.3140 C   0  0  0  0  0  0  0  0  0  0  0  0
  141.4300   71.5890  228.1570 C   0  0  0  0  0  0  0  0  0  0  0  0
  141.4150   72.2600  226.9270 C   0  0  0  0  0  0  0  0  0  0  0  0
  140.6670   71.7580  225.8630 C   0  0  0  0  0  0  0  0  0  0  0  0
  138.0100   69.3720  225.2680 C   0  0  0  0  0  0  0  0  0  0  0  0
  137.1260   68.9000  224.3520 C   0  0  0  0  0  0  0  0  0  0  0  0
  137.3160   69.1770  223.0290 C   0  0  0  0  0  0  0  0  0  0  0  0
  138.4210   69.9460  222.6580 C   0  0  0  0  0  0  0  0  0  0  0  0
  138.8410   70.3520  221.4680 N   0  0  0  0  0  0  0  0  0  0  0  0
  141.3420   72.8600  220.3500 N   0  0  0  0  0  0  0  0  0  0  0  0
  140.6100   74.1130  220.2440 C   0  0  0  0  0  0  0  0  0  0  0  0
  141.6580   75.1780  220.2340 C   0  0  1  0  0  0  0  0  0  0  0  0
  141.5860   76.0110  218.9740 C   0  0  0  0  0  0  0  0  0  0  0  0
  142.1170   77.3440  219.4210 C   0  0  0  0  0  0  0  0  0  0  0  0
  141.9940   77.4270  220.8410 N   0  0  0  0  0  0  0  0  0  0  0  0
  141.1450   78.5750  221.2350 C   0  0  0  0  0  0  0  0  0  0  0  0
  141.9190   79.8510  221.2440 C   0  0  0  0  0  0  0  0  0  0  0  0
  141.5180   80.8830  222.2180 C   0  0  0  0  0  0  0  0  0  0  0  0
  141.0800   80.3710  223.5550 C   0  0  0  0  0  0  0  0  0  0  0  0
  139.9620   79.3690  223.2840 C   0  0  0  0  0  0  0  0  0  0  0  0
  140.5840   78.2010  222.5800 C   0  0  0  0  0  0  0  0  0  0  0  0
  141.4400   76.2070  221.3200 C   0  0  0  0  0  0  0  0  0  0  0  0
  142.9200   74.4510  220.3760 C   0  0  0  0  0  0  0  0  0  0  0  0
  144.2200   74.9230  220.4350 C   0  0  0  0  0  0  0  0  0  0  0  0
  145.3050   74.0790  220.5680 C   0  0  0  0  0  0  0  0  0  0  0  0
  145.0740   72.7250  220.6440 C   0  0  0  0  0  0  0  0  0  0  0  0
  143.7970   72.2190  220.5910 C   0  0  0  0  0  0  0  0  0  0  0  0
  142.7340   73.0880  220.4560 C   0  0  0  0  0  0  0  0  0  0  0  0
  141.1615   71.6553  223.3538 H   0  0  0  0  0  0  0  0  0  0  0  0
  139.3721   69.0111  227.3366 H   0  0  0  0  0  0  0  0  0  0  0  0
  140.6905   69.8696  229.2721 H   0  0  0  0  0  0  0  0  0  0  0  0
  142.0199   71.9868  228.9959 H   0  0  0  0  0  0  0  0  0  0  0  0
  141.9953   73.1859  226.8005 H   0  0  0  0  0  0  0  0  0  0  0  0
  140.6588   72.2896  224.9000 H   0  0  0  0  0  0  0  0  0  0  0  0
  137.8443   69.1390  226.3302 H   0  0  0  0  0  0  0  0  0  0  0  0
  136.2629   68.2987  224.6737 H   0  0  0  0  0  0  0  0  0  0  0  0
  136.6130   68.8021  222.2705 H   0  0  0  0  0  0  0  0  0  0  0  0
  138.3370   70.1230  220.5760 H   0  0  0  0  0  0  0  0  0  0  0  0
  140.0236   74.1399  219.3137 H   0  0  0  0  0  0  0  0  0  0  0  0
  139.8973   74.2446  221.0715 H   0  0  0  0  0  0  0  0  0  0  0  0
  142.2137   75.5814  218.1793 H   0  0  0  0  0  0  0  0  0  0  0  0
  140.5732   76.0677  218.5484 H   0  0  0  0  0  0  0  0  0  0  0  0
  143.1748   77.4373  219.1340 H   0  0  0  0  0  0  0  0  0  0  0  0
  141.5473   78.1557  218.9450 H   0  0  0  0  0  0  0  0  0  0  0  0
  140.3325   78.7656  220.5185 H   0  0  0  0  0  0  0  0  0  0  0  0
  142.9701   79.5975  221.4463 H   0  0  0  0  0  0  0  0  0  0  0  0
  141.7254   80.3034  220.2602 H   0  0  0  0  0  0  0  0  0  0  0  0
  142.3767   81.5521  222.3759 H   0  0  0  0  0  0  0  0  0  0  0  0
  140.6402   81.3838  221.7837 H   0  0  0  0  0  0  0  0  0  0  0  0
  141.9187   79.8767  224.0671 H   0  0  0  0  0  0  0  0  0  0  0  0
  140.7348   81.1898  224.2034 H   0  0  0  0  0  0  0  0  0  0  0  0
  139.5094   79.0420  224.2318 H   0  0  0  0  0  0  0  0  0  0  0  0
  139.1688   79.8211  222.6705 H   0  0  0  0  0  0  0  0  0  0  0  0
  141.3981   77.8046  223.2046 H   0  0  0  0  0  0  0  0  0  0  0  0
  139.7976   77.4490  222.4183 H   0  0  0  0  0  0  0  0  0  0  0  0
  141.9484   75.8965  222.2447 H   0  0  0  0  0  0  0  0  0  0  0  0
  140.3704   76.3204  221.5502 H   0  0  0  0  0  0  0  0  0  0  0  0
  144.3948   76.0073  220.3739 H   0  0  0  0  0  0  0  0  0  0  0  0
  146.3285   74.4795  220.6121 H   0  0  0  0  0  0  0  0  0  0  0  0
  145.9251   72.0360  220.7489 H   0  0  0  0  0  0  0  0  0  0  0  0
  143.6248   71.1345  220.6555 H   0  0  0  0  0  0  0  0  0  0  0  0
  1  2  2  0
  2  3  1  0
  3  4  2  0
  4  5  1  0
  5  6  2  0
  6  7  1  0
  7  8  2  0
  8  9  1  0
  9 10  2  0
 10 11  1  0
 11 12  2  0
  6 13  1  0
 13 14  2  0
 14 15  1  0
 15 16  2  0
 16 17  1  0
  2 18  1  0
 18 19  1  0
 20 19  1  6
 20 21  1  0
 21 22  1  0
 22 23  1  0
 23 24  1  0
 24 25  1  0
 25 26  1  0
 26 27  1  0
 27 28  1  0
 28 29  1  0
 23 30  1  0
 20 31  1  0
 31 32  2  0
 32 33  1  0
 33 34  2  0
 34 35  1  0
 35 36  2  0
 17  3  1  0
 36 18  1  0
 16  5  1  0
 30 20  1  0
 36 31  1  0
 12  7  1  0
 29 24  1  0
  4 37  1  0
  8 38  1  0
  9 39  1  0
 10 40  1  0
 11 41  1  0
 12 42  1  0
 13 43  1  0
 14 44  1  0
 15 45  1  0
 17 46  1  0
 19 47  1  0
 19 48  1  0
 21 49  1  0
 21 50  1  0
 22 51  1  0
 22 52  1  0
 24 53  1  0
 25 54  1  0
 25 55  1  0
 26 56  1  0
 26 57  1  0
 27 58  1  0
 27 59  1  0
 28 60  1  0
 28 61  1  0
 29 62  1  0
 29 63  1  0
 30 64  1  0
 30 65  1  0
 32 66  1  0
 33 67  1  0
 34 68  1  0
 35 69  1  0
M  END
>  <smiles>  (50) 
O=C(c1cc2c(-c3ccccc3)cccc2[nH]1)N1C[C@]2(CCN(C3CCCCC3)C2)c2ccccc21

>  <score_type>  (50) 
oracle

>  <origin>  (50) 
autodockgpu

>  <m_score__min__energy>  (50) 
-10.609999999999999

>  <m_primary>  (50) 
energy

>  <rmsd>  (50) 
3.3418841140090487

>  <m_score__min__rmsd>  (50) 
3.3418841140090487

>  <meeko>  (50) 
{"free_energy": -10.54, "intermolecular_energy": -11.73, "internal_energy": -1.79, "cluster_size": 42, "cluster_id": 1, "rank_in_cluster": 12}

>  <energy>  (50) 
-10.01

>  <cluster_rmsd>  (50) 
0.0

>  <cluster>  (50) 
4

$$$$
