@<TRIPOS>MOLECULE
*****
 58 62 0 0 0
SMALL
GASTEIGER

@<TRIPOS>ATOM
      1 O         138.3720   71.0420  221.2900 O.2     1  UNL1       -0.2685
      2 C         138.7680   71.5900  222.3520 C.2     1  UNL1        0.2628
      3 N         138.9030   73.0010  222.4880 N.am    1  UNL1       -0.3015
      4 C         138.5750   73.8400  221.3820 C.3     1  UNL1        0.0887
      5 C         139.2330   75.1460  221.3750 C.2     1  UNL1        0.2333
      6 O         138.6900   76.2120  221.7680 O.2     1  UNL1       -0.2739
      7 N         140.5740   75.2570  220.9020 N.am    1  UNL1       -0.2925
      8 C         141.4650   74.0820  220.8970 C.3     1  UNL1        0.0222
      9 C         142.4710   74.4170  219.8120 C.3     1  UNL1        0.0019
     10 C         143.7700   73.7480  219.9890 C.ar    1  UNL1       -0.0427
     11 C         144.0460   72.4620  219.5560 C.ar    1  UNL1       -0.0583
     12 C         145.3070   71.9370  219.7720 C.ar    1  UNL1       -0.0615
     13 C         146.3140   72.6540  220.4100 C.ar    1  UNL1       -0.0617
     14 C         146.0310   73.9400  220.8410 C.ar    1  UNL1       -0.0615
     15 C         144.7710   74.4830  220.6320 C.ar    1  UNL1       -0.0583
     16 C         142.6310   75.8970  220.0160 C.3     1  UNL1       -0.0219
     17 C         141.2840   76.3860  220.3790 C.3     1  UNL1        0.0518
     18 C         141.3110   77.5370  221.3190 C.ar    1  UNL1       -0.0270
     19 C         141.5570   78.7890  220.7460 C.ar    1  UNL1       -0.0568
     20 C         141.5930   79.8790  221.5730 C.ar    1  UNL1       -0.0614
     21 C         141.3960   79.7950  222.9520 C.ar    1  UNL1       -0.0617
     22 C         141.1520   78.5180  223.4730 C.ar    1  UNL1       -0.0614
     23 C         141.1090   77.3970  222.6820 C.ar    1  UNL1       -0.0568
     24 C         139.1160   70.7550  223.5190 C.ar    1  UNL1        0.1260
     25 C         138.8350   69.4000  223.5320 C.ar    1  UNL1       -0.0306
     26 C         139.1830   68.6520  224.6590 C.ar    1  UNL1       -0.0503
     27 C         139.7890   69.2180  225.7410 C.ar    1  UNL1        0.0031
     28 C         140.1420   68.4930  226.8670 C.ar    1  UNL1       -0.0173
     29 C         140.7590   69.1480  227.9260 C.ar    1  UNL1        0.1241
     30 F         141.1270   68.4950  229.0530 F       1  UNL1       -0.2055
     31 C         141.0070   70.4930  227.8460 C.ar    1  UNL1       -0.0244
     32 C         140.6670   71.2440  226.7390 C.ar    1  UNL1       -0.0330
     33 C         140.0540   70.5710  225.6950 C.ar    1  UNL1        0.0720
     34 N         139.7170   71.2840  224.6080 N.ar    1  UNL1       -0.2421
     35 H         139.2450   73.3850  223.4180 H       1  UNL1        0.1496
     36 H         138.8566   73.3120  220.4590 H       1  UNL1        0.0558
     37 H         137.4965   74.0418  221.4610 H       1  UNL1        0.0558
     38 H         141.9612   73.9586  221.8710 H       1  UNL1        0.0471
     39 H         140.9326   73.1367  220.7158 H       1  UNL1        0.0471
     40 H         142.1360   74.0987  218.8138 H       1  UNL1        0.0365
     41 H         143.2734   71.8666  219.0475 H       1  UNL1        0.0620
     42 H         145.5217   70.9149  219.4266 H       1  UNL1        0.0618
     43 H         147.3086   72.2117  220.5681 H       1  UNL1        0.0618
     44 H         146.8063   74.5317  221.3497 H       1  UNL1        0.0618
     45 H         144.5568   75.5054  220.9768 H       1  UNL1        0.0620
     46 H         143.3463   76.0995  220.8267 H       1  UNL1        0.0293
     47 H         143.0211   76.3962  219.1168 H       1  UNL1        0.0293
     48 H         140.7731   76.7917  219.4933 H       1  UNL1        0.0550
     49 H         141.7168   78.8945  219.6628 H       1  UNL1        0.0621
     50 H         141.7862   80.8672  221.1301 H       1  UNL1        0.0618
     51 H         141.4306   80.6857  223.5965 H       1  UNL1        0.0618
     52 H         140.9889   78.4095  224.5554 H       1  UNL1        0.0618
     53 H         140.9179   76.4071  223.1219 H       1  UNL1        0.0621
     54 H         138.3466   68.9209  222.6706 H       1  UNL1        0.0641
     55 H         138.9616   67.5746  224.6739 H       1  UNL1        0.0625
     56 H         139.9368   67.4137  226.9223 H       1  UNL1        0.0653
     57 H         141.4952   70.9929  228.6955 H       1  UNL1        0.0647
     58 H         140.8726   72.3234  226.6883 H       1  UNL1        0.0640
@<TRIPOS>BOND
     1     1     2    2
     2     2     3   am
     3     3     4    1
     4     4     5    1
     5     5     6    2
     6     5     7   am
     7     7     8    1
     8     8     9    1
     9     9    10    1
    10    10    11   ar
    11    11    12   ar
    12    12    13   ar
    13    13    14   ar
    14    14    15   ar
    15     9    16    1
    16    16    17    1
    17    17    18    1
    18    18    19   ar
    19    19    20   ar
    20    20    21   ar
    21    21    22   ar
    22    22    23   ar
    23     2    24    1
    24    24    25   ar
    25    25    26   ar
    26    26    27   ar
    27    27    28   ar
    28    28    29   ar
    29    29    30    1
    30    29    31   ar
    31    31    32   ar
    32    32    33   ar
    33    33    34   ar
    34    17     7    1
    35    23    18   ar
    36    34    24   ar
    37    15    10   ar
    38    33    27   ar
    39     3    35    1
    40     4    36    1
    41     4    37    1
    42     8    38    1
    43     8    39    1
    44     9    40    1
    45    11    41    1
    46    12    42    1
    47    13    43    1
    48    14    44    1
    49    15    45    1
    50    16    46    1
    51    16    47    1
    52    17    48    1
    53    19    49    1
    54    20    50    1
    55    21    51    1
    56    22    52    1
    57    23    53    1
    58    25    54    1
    59    26    55    1
    60    28    56    1
    61    31    57    1
    62    32    58    1
