
     RDKit          3D

 61 65  0  0  0  0  0  0  0  0999 V2000
  140.2630   77.0850  219.0430 O   0  0  0  0  0  0  0  0  0  0  0  0
  140.5230   76.7030  220.2250 C   0  0  0  0  0  0  0  0  0  0  0  0
  141.8580   76.4790  220.6610 N   0  0  0  0  0  0  0  0  0  0  0  0
  142.9640   76.6840  219.7520 C   0  0  0  0  0  0  0  0  0  0  0  0
  143.3400   75.4640  219.0240 C   0  0  0  0  0  0  0  0  0  0  0  0
  143.2780   75.3730  217.7700 O   0  0  0  0  0  0  0  0  0  0  0  0
  143.7910   74.3480  219.7800 N   0  0  0  0  0  0  0  0  0  0  0  0
  144.9480   74.2780  220.6860 C   0  0  0  0  0  0  0  0  0  0  0  0
  145.5570   72.9730  220.2200 C   0  0  2  0  0  0  0  0  0  0  0  0
  146.1240   73.1610  218.9510 O   0  0  0  0  0  0  0  0  0  0  0  0
  144.3410   72.0740  220.1480 C   0  0  0  0  0  0  0  0  0  0  0  0
  143.2160   73.0150  219.8360 C   0  0  1  0  0  0  0  0  0  0  0  0
  142.1310   72.9460  220.8580 C   0  0  0  0  0  0  0  0  0  0  0  0
  141.8630   74.0060  221.4630 O   0  0  0  0  0  0  0  0  0  0  0  0
  141.4620   71.7210  221.0980 N   0  0  0  0  0  0  0  0  0  0  0  0
  140.4300   71.5100  222.0240 C   0  0  0  0  0  0  0  0  0  0  0  0
  139.1010   71.3310  221.7350 C   0  0  0  0  0  0  0  0  0  0  0  0
  138.1300   71.1250  222.7060 C   0  0  0  0  0  0  0  0  0  0  0  0
  138.4780   71.0930  224.0320 C   0  0  0  0  0  0  0  0  0  0  0  0
  139.8120   71.2730  224.3360 C   0  0  0  0  0  0  0  0  0  0  0  0
  140.2300   71.2460  225.7300 C   0  0  0  0  0  0  0  0  0  0  0  0
  141.0350   72.2090  226.2240 N   0  0  0  0  0  0  0  0  0  0  0  0
  141.4650   72.2570  227.4950 C   0  0  0  0  0  0  0  0  0  0  0  0
  141.0480   71.2470  228.3440 C   0  0  0  0  0  0  0  0  0  0  0  0
  140.2270   70.2610  227.8500 C   0  0  0  0  0  0  0  0  0  0  0  0
  139.8150   70.2490  226.5590 N   0  0  0  0  0  0  0  0  0  0  0  0
  140.7710   71.4770  223.3700 C   0  0  0  0  0  0  0  0  0  0  0  0
  139.4230   76.4850  221.1760 C   0  0  0  0  0  0  0  0  0  0  0  0
  139.1330   77.4370  222.1320 C   0  0  0  0  0  0  0  0  0  0  0  0
  138.0810   77.2060  223.0250 C   0  0  0  0  0  0  0  0  0  0  0  0
  137.3520   76.0340  222.9390 C   0  0  0  0  0  0  0  0  0  0  0  0
  136.2980   75.7590  223.8030 C   0  0  0  0  0  0  0  0  0  0  0  0
  135.5910   74.5700  223.6810 C   0  0  0  0  0  0  0  0  0  0  0  0
  134.5620   74.3260  224.5420 F   0  0  0  0  0  0  0  0  0  0  0  0
  135.8960   73.6270  222.7170 C   0  0  0  0  0  0  0  0  0  0  0  0
  136.9460   73.9270  221.8730 C   0  0  0  0  0  0  0  0  0  0  0  0
  137.6700   75.1030  221.9690 C   0  0  0  0  0  0  0  0  0  0  0  0
  138.6850   75.3520  221.1240 N   0  0  0  0  0  0  0  0  0  0  0  0
  141.9950   76.1620  221.6610 H   0  0  0  0  0  0  0  0  0  0  0  0
  142.6792   77.4551  219.0211 H   0  0  0  0  0  0  0  0  0  0  0  0
  143.8327   76.9905  220.3531 H   0  0  0  0  0  0  0  0  0  0  0  0
  145.6342   75.1253  220.5404 H   0  0  0  0  0  0  0  0  0  0  0  0
  144.7047   74.3229  221.7578 H   0  0  0  0  0  0  0  0  0  0  0  0
  146.3552   72.5721  220.8620 H   0  0  0  0  0  0  0  0  0  0  0  0
  145.9740   74.0980  218.6590 H   0  0  0  0  0  0  0  0  0  0  0  0
  144.4557   71.3233  219.3522 H   0  0  0  0  0  0  0  0  0  0  0  0
  144.1759   71.5079  221.0766 H   0  0  0  0  0  0  0  0  0  0  0  0
  142.7469   72.7421  218.8792 H   0  0  0  0  0  0  0  0  0  0  0  0
  141.7900   70.9080  220.5160 H   0  0  0  0  0  0  0  0  0  0  0  0
  138.7887   71.3517  220.6805 H   0  0  0  0  0  0  0  0  0  0  0  0
  137.0793   70.9872  222.4109 H   0  0  0  0  0  0  0  0  0  0  0  0
  137.7267   70.9309  224.8189 H   0  0  0  0  0  0  0  0  0  0  0  0
  142.1219   73.0661  227.8470 H   0  0  0  0  0  0  0  0  0  0  0  0
  141.3680   71.2332  229.3963 H   0  0  0  0  0  0  0  0  0  0  0  0
  139.8944   69.4572  228.5233 H   0  0  0  0  0  0  0  0  0  0  0  0
  141.8208   71.6156  223.6678 H   0  0  0  0  0  0  0  0  0  0  0  0
  139.7209   78.3648  222.1912 H   0  0  0  0  0  0  0  0  0  0  0  0
  137.8346   77.9541  223.7929 H   0  0  0  0  0  0  0  0  0  0  0  0
  136.0239   76.4838  224.5838 H   0  0  0  0  0  0  0  0  0  0  0  0
  135.3315   72.6871  222.6274 H   0  0  0  0  0  0  0  0  0  0  0  0
  137.2187   73.2019  221.0920 H   0  0  0  0  0  0  0  0  0  0  0  0
  1  2  2  0
  2  3  1  0
  3  4  1  0
  4  5  1  0
  5  6  2  0
  5  7  1  0
  7  8  1  0
  8  9  1  0
  9 10  1  0
  9 11  1  0
 11 12  1  0
 12 13  1  0
 13 14  2  0
 13 15  1  0
 15 16  1  0
 16 17  2  0
 17 18  1  0
 18 19  2  0
 19 20  1  0
 20 21  1  0
 21 22  2  0
 22 23  1  0
 23 24  2  0
 24 25  1  0
 25 26  2  0
 20 27  2  0
  2 28  1  0
 28 29  2  0
 29 30  1  0
 30 31  2  0
 31 32  1  0
 32 33  2  0
 33 34  1  0
 33 35  1  0
 35 36  2  0
 36 37  1  0
 37 38  2  0
 12  7  1  0
 27 16  1  0
 38 28  1  0
 26 21  1  0
 37 31  1  0
  3 39  1  0
  4 40  1  0
  4 41  1  0
  8 42  1  0
  8 43  1  0
  9 44  1  1
 10 45  1  0
 11 46  1  0
 11 47  1  0
 12 48  1  6
 15 49  1  0
 17 50  1  0
 18 51  1  0
 19 52  1  0
 23 53  1  0
 24 54  1  0
 25 55  1  0
 27 56  1  0
 29 57  1  0
 30 58  1  0
 32 59  1  0
 35 60  1  0
 36 61  1  0
M  END
>  <smiles>  (1) 
O=C(NCC(=O)N1C[C@H](O)C[C@H]1C(=O)Nc1cccc(-c2ncccn2)c1)c1ccc2cc(F)ccc2n1

>  <score_type>  (1) 
oracle

>  <origin>  (1) 
autodockgpu

>  <m_score__min__energy>  (1) 
-9.6600000000000001

>  <m_primary>  (1) 
energy

>  <rmsd>  (1) 
7.899850809437574

>  <m_score__min__rmsd>  (1) 
7.899850809437574

>  <meeko>  (1) 
{"free_energy": -8.75, "intermolecular_energy": -11.14, "internal_energy": -3.37, "cluster_size": 5, "cluster_id": 5, "rank_in_cluster": 5}

>  <energy>  (1) 
-9.66

>  <cluster_rmsd>  (1) 
0.0

>  <cluster>  (1) 
1

$$$$

     RDKit          3D

 61 65  0  0  0  0  0  0  0  0999 V2000
  140.9280   72.2580  221.1600 O   0  0  0  0  0  0  0  0  0  0  0  0
  140.1370   72.6510  222.0710 C   0  0  0  0  0  0  0  0  0  0  0  0
  139.4130   73.8700  221.9570 N   0  0  0  0  0  0  0  0  0  0  0  0
  139.5660   74.6990  220.7820 C   0  0  0  0  0  0  0  0  0  0  0  0
  140.6350   75.6980  220.9210 C   0  0  0  0  0  0  0  0  0  0  0  0
  141.8330   75.4600  220.6200 O   0  0  0  0  0  0  0  0  0  0  0  0
  140.2860   76.9840  221.4180 N   0  0  0  0  0  0  0  0  0  0  0  0
  140.3980   78.2790  220.7300 C   0  0  0  0  0  0  0  0  0  0  0  0
  141.0340   79.0980  221.8340 C   0  0  2  0  0  0  0  0  0  0  0  0
  142.3620   78.6820  222.0040 O   0  0  0  0  0  0  0  0  0  0  0  0
  140.1840   78.7180  223.0280 C   0  0  0  0  0  0  0  0  0  0  0  0
  139.7360   77.3200  222.7200 C   0  0  1  0  0  0  0  0  0  0  0  0
  138.2490   77.1980  222.7190 C   0  0  0  0  0  0  0  0  0  0  0  0
  137.6120   78.1130  222.1560 O   0  0  0  0  0  0  0  0  0  0  0  0
  137.6310   76.0830  223.3350 N   0  0  0  0  0  0  0  0  0  0  0  0
  136.2520   75.8390  223.4100 C   0  0  0  0  0  0  0  0  0  0  0  0
  135.2690   76.4930  222.7110 C   0  0  0  0  0  0  0  0  0  0  0  0
  133.9190   76.1980  222.8350 C   0  0  0  0  0  0  0  0  0  0  0  0
  133.5060   75.2070  223.6900 C   0  0  0  0  0  0  0  0  0  0  0  0
  134.4840   74.5420  224.3990 C   0  0  0  0  0  0  0  0  0  0  0  0
  134.0950   73.4830  225.3180 C   0  0  0  0  0  0  0  0  0  0  0  0
  134.3690   72.1930  225.0340 N   0  0  0  0  0  0  0  0  0  0  0  0
  134.0440   71.1580  225.8260 C   0  0  0  0  0  0  0  0  0  0  0  0
  133.3860   71.4470  227.0090 C   0  0  0  0  0  0  0  0  0  0  0  0
  133.1030   72.7590  227.3070 C   0  0  0  0  0  0  0  0  0  0  0  0
  133.4480   73.7750  226.4800 N   0  0  0  0  0  0  0  0  0  0  0  0
  135.8220   74.8390  224.2740 C   0  0  0  0  0  0  0  0  0  0  0  0
  139.9570   71.8330  223.2800 C   0  0  0  0  0  0  0  0  0  0  0  0
  139.1320   70.7280  223.2530 C   0  0  0  0  0  0  0  0  0  0  0  0
  138.9780   69.9650  224.4160 C   0  0  0  0  0  0  0  0  0  0  0  0
  139.6500   70.3280  225.5690 C   0  0  0  0  0  0  0  0  0  0  0  0
  139.5290   69.6030  226.7490 C   0  0  0  0  0  0  0  0  0  0  0  0
  140.2220   70.0020  227.8840 C   0  0  0  0  0  0  0  0  0  0  0  0
  140.0860   69.2720  229.0280 F   0  0  0  0  0  0  0  0  0  0  0  0
  141.0450   71.1130  227.8930 C   0  0  0  0  0  0  0  0  0  0  0  0
  141.1460   71.8130  226.7080 C   0  0  0  0  0  0  0  0  0  0  0  0
  140.4680   71.4410  225.5590 C   0  0  0  0  0  0  0  0  0  0  0  0
  140.5980   72.1540  224.4280 N   0  0  0  0  0  0  0  0  0  0  0  0
  138.7730   74.1310  222.7580 H   0  0  0  0  0  0  0  0  0  0  0  0
  139.8002   74.0517  219.9240 H   0  0  0  0  0  0  0  0  0  0  0  0
  138.6217   75.2445  220.6381 H   0  0  0  0  0  0  0  0  0  0  0  0
  141.0440   78.2167  219.8418 H   0  0  0  0  0  0  0  0  0  0  0  0
  139.4534   78.6812  220.3350 H   0  0  0  0  0  0  0  0  0  0  0  0
  141.0679   80.1826  221.6537 H   0  0  0  0  0  0  0  0  0  0  0  0
  142.4660   77.7600  221.6490 H   0  0  0  0  0  0  0  0  0  0  0  0
  140.7763   78.7442  223.9546 H   0  0  0  0  0  0  0  0  0  0  0  0
  139.3425   79.4083  223.1872 H   0  0  0  0  0  0  0  0  0  0  0  0
  140.0939   76.6263  223.4950 H   0  0  0  0  0  0  0  0  0  0  0  0
  138.2900   75.3870  223.7720 H   0  0  0  0  0  0  0  0  0  0  0  0
  135.5666   77.2924  222.0165 H   0  0  0  0  0  0  0  0  0  0  0  0
  133.1782   76.7595  222.2469 H   0  0  0  0  0  0  0  0  0  0  0  0
  132.4416   74.9543  223.8046 H   0  0  0  0  0  0  0  0  0  0  0  0
  134.2906   70.1232  225.5460 H   0  0  0  0  0  0  0  0  0  0  0  0
  133.0946   70.6411  227.6986 H   0  0  0  0  0  0  0  0  0  0  0  0
  132.5800   72.9910  228.2465 H   0  0  0  0  0  0  0  0  0  0  0  0
  136.5604   74.2778  224.8654 H   0  0  0  0  0  0  0  0  0  0  0  0
  138.6023   70.4502  222.3298 H   0  0  0  0  0  0  0  0  0  0  0  0
  138.3249   69.0799  224.4131 H   0  0  0  0  0  0  0  0  0  0  0  0
  138.8839   68.7127  226.7834 H   0  0  0  0  0  0  0  0  0  0  0  0
  141.5903   71.4225  228.7968 H   0  0  0  0  0  0  0  0  0  0  0  0
  141.7915   72.7030  226.6746 H   0  0  0  0  0  0  0  0  0  0  0  0
  1  2  2  0
  2  3  1  0
  3  4  1  0
  4  5  1  0
  5  6  2  0
  5  7  1  0
  7  8  1  0
  8  9  1  0
  9 10  1  0
  9 11  1  0
 11 12  1  0
 12 13  1  0
 13 14  2  0
 13 15  1  0
 15 16  1  0
 16 17  2  0
 17 18  1  0
 18 19  2  0
 19 20  1  0
 20 21  1  0
 21 22  2  0
 22 23  1  0
 23 24  2  0
 24 25  1  0
 25 26  2  0
 20 27  2  0
  2 28  1  0
 28 29  2  0
 29 30  1  0
 30 31  2  0
 31 32  1  0
 32 33  2  0
 33 34  1  0
 33 35  1  0
 35 36  2  0
 36 37  1  0
 37 38  2  0
 12  7  1  0
 27 16  1  0
 38 28  1  0
 26 21  1  0
 37 31  1  0
  3 39  1  0
  4 40  1  0
  4 41  1  0
  8 42  1  0
  8 43  1  0
  9 44  1  6
 10 45  1  0
 11 46  1  0
 11 47  1  0
 12 48  1  1
 15 49  1  0
 17 50  1  0
 18 51  1  0
 19 52  1  0
 23 53  1  0
 24 54  1  0
 25 55  1  0
 27 56  1  0
 29 57  1  0
 30 58  1  0
 32 59  1  0
 35 60  1  0
 36 61  1  0
M  END
>  <smiles>  (2) 
O=C(NCC(=O)N1C[C@H](O)C[C@H]1C(=O)Nc1cccc(-c2ncccn2)c1)c1ccc2cc(F)ccc2n1

>  <score_type>  (2) 
oracle

>  <origin>  (2) 
autodockgpu

>  <m_score__min__energy>  (2) 
-9.6600000000000001

>  <m_primary>  (2) 
energy

>  <rmsd>  (2) 
4.989894908905959

>  <m_score__min__rmsd>  (2) 
4.989894908905959

>  <meeko>  (2) 
{"free_energy": -9.19, "intermolecular_energy": -11.58, "internal_energy": -2.23, "cluster_size": 1, "cluster_id": 4, "rank_in_cluster": 1}

>  <energy>  (2) 
-8.04

>  <cluster_rmsd>  (2) 
1.87

>  <cluster>  (2) 
1

$$$$

     RDKit          3D

 61 65  0  0  0  0  0  0  0  0999 V2000
  137.6950   70.2460  221.7870 O   0  0  0  0  0  0  0  0  0  0  0  0
  137.9850   70.8310  222.8760 C   0  0  0  0  0  0  0  0  0  0  0  0
  137.7220   72.2140  223.0730 N   0  0  0  0  0  0  0  0  0  0  0  0
  137.1100   72.9960  222.0210 C   0  0  0  0  0  0  0  0  0  0  0  0
  137.9460   74.1230  221.5840 C   0  0  0  0  0  0  0  0  0  0  0  0
  137.6060   75.3240  221.7420 O   0  0  0  0  0  0  0  0  0  0  0  0
  139.1880   73.8290  220.9590 N   0  0  0  0  0  0  0  0  0  0  0  0
  139.4330   73.5040  219.5450 C   0  0  0  0  0  0  0  0  0  0  0  0
  140.3460   72.3070  219.7140 C   0  0  2  0  0  0  0  0  0  0  0  0
  139.5940   71.2240  220.1910 O   0  0  0  0  0  0  0  0  0  0  0  0
  141.3160   72.8050  220.7640 C   0  0  0  0  0  0  0  0  0  0  0  0
  140.5070   73.7810  221.5670 C   0  0  1  0  0  0  0  0  0  0  0  0
  141.1310   75.1360  221.5930 C   0  0  0  0  0  0  0  0  0  0  0  0
  142.2580   75.2440  221.0650 O   0  0  0  0  0  0  0  0  0  0  0  0
  140.4460   76.2190  222.1960 N   0  0  0  0  0  0  0  0  0  0  0  0
  140.9090   77.5390  222.2930 C   0  0  0  0  0  0  0  0  0  0  0  0
  141.1370   78.2390  223.4510 C   0  0  0  0  0  0  0  0  0  0  0  0
  141.5990   79.5470  223.4730 C   0  0  0  0  0  0  0  0  0  0  0  0
  141.8520   80.2090  222.2980 C   0  0  0  0  0  0  0  0  0  0  0  0
  141.6260   79.5160  221.1270 C   0  0  0  0  0  0  0  0  0  0  0  0
  141.8810   80.1750  219.8540 C   0  0  0  0  0  0  0  0  0  0  0  0
  141.6750   81.5010  219.7150 N   0  0  0  0  0  0  0  0  0  0  0  0
  141.8850   82.1840  218.5780 C   0  0  0  0  0  0  0  0  0  0  0  0
  142.3430   81.4700  217.4840 C   0  0  0  0  0  0  0  0  0  0  0  0
  142.5550   80.1180  217.6170 C   0  0  0  0  0  0  0  0  0  0  0  0
  142.3310   79.4650  218.7830 N   0  0  0  0  0  0  0  0  0  0  0  0
  141.1680   78.2180  221.1090 C   0  0  0  0  0  0  0  0  0  0  0  0
  138.6080   70.0670  223.9670 C   0  0  0  0  0  0  0  0  0  0  0  0
  138.6020   68.6880  223.9390 C   0  0  0  0  0  0  0  0  0  0  0  0
  139.2020   67.9840  224.9890 C   0  0  0  0  0  0  0  0  0  0  0  0
  139.7880   68.6760  226.0330 C   0  0  0  0  0  0  0  0  0  0  0  0
  140.3970   68.0220  227.0990 C   0  0  0  0  0  0  0  0  0  0  0  0
  140.9730   68.7560  228.1270 C   0  0  0  0  0  0  0  0  0  0  0  0
  141.5630   68.0890  229.1600 F   0  0  0  0  0  0  0  0  0  0  0  0
  140.9690   70.1390  228.1380 C   0  0  0  0  0  0  0  0  0  0  0  0
  140.3590   70.7610  227.0680 C   0  0  0  0  0  0  0  0  0  0  0  0
  139.7750   70.0570  226.0280 C   0  0  0  0  0  0  0  0  0  0  0  0
  139.1920   70.7070  225.0060 N   0  0  0  0  0  0  0  0  0  0  0  0
  137.9910   72.6310  224.0070 H   0  0  0  0  0  0  0  0  0  0  0  0
  136.9268   72.3397  221.1574 H   0  0  0  0  0  0  0  0  0  0  0  0
  136.1758   73.4152  222.4230 H   0  0  0  0  0  0  0  0  0  0  0  0
  138.5041   73.2396  219.0185 H   0  0  0  0  0  0  0  0  0  0  0  0
  139.8474   74.3256  218.9423 H   0  0  0  0  0  0  0  0  0  0  0  0
  140.8424   71.9616  218.7951 H   0  0  0  0  0  0  0  0  0  0  0  0
  138.6690   71.5270  220.3870 H   0  0  0  0  0  0  0  0  0  0  0  0
  141.6692   71.9763  221.3953 H   0  0  0  0  0  0  0  0  0  0  0  0
  142.2181   73.2587  220.3277 H   0  0  0  0  0  0  0  0  0  0  0  0
  140.4513   73.4551  222.6161 H   0  0  0  0  0  0  0  0  0  0  0  0
  139.5030   75.9850  222.6030 H   0  0  0  0  0  0  0  0  0  0  0  0
  140.9436   77.7375  224.4107 H   0  0  0  0  0  0  0  0  0  0  0  0
  141.7629   80.0547  224.4349 H   0  0  0  0  0  0  0  0  0  0  0  0
  142.2187   81.2461  222.2903 H   0  0  0  0  0  0  0  0  0  0  0  0
  141.7006   83.2668  218.5184 H   0  0  0  0  0  0  0  0  0  0  0  0
  142.5339   81.9751  216.5257 H   0  0  0  0  0  0  0  0  0  0  0  0
  142.9181   79.5482  216.7490 H   0  0  0  0  0  0  0  0  0  0  0  0
  141.0052   77.7124  220.1457 H   0  0  0  0  0  0  0  0  0  0  0  0
  138.1322   68.1492  223.1030 H   0  0  0  0  0  0  0  0  0  0  0  0
  139.2075   66.8840  224.9839 H   0  0  0  0  0  0  0  0  0  0  0  0
  140.4222   66.9227  227.1275 H   0  0  0  0  0  0  0  0  0  0  0  0
  141.4279   70.7128  228.9566 H   0  0  0  0  0  0  0  0  0  0  0  0
  140.3356   71.8604  227.0398 H   0  0  0  0  0  0  0  0  0  0  0  0
  1  2  2  0
  2  3  1  0
  3  4  1  0
  4  5  1  0
  5  6  2  0
  5  7  1  0
  7  8  1  0
  8  9  1  0
  9 10  1  0
  9 11  1  0
 11 12  1  0
 12 13  1  0
 13 14  2  0
 13 15  1  0
 15 16  1  0
 16 17  2  0
 17 18  1  0
 18 19  2  0
 19 20  1  0
 20 21  1  0
 21 22  2  0
 22 23  1  0
 23 24  2  0
 24 25  1  0
 25 26  2  0
 20 27  2  0
  2 28  1  0
 28 29  2  0
 29 30  1  0
 30 31  2  0
 31 32  1  0
 32 33  2  0
 33 34  1  0
 33 35  1  0
 35 36  2  0
 36 37  1  0
 37 38  2  0
 12  7  1  0
 27 16  1  0
 38 28  1  0
 26 21  1  0
 37 31  1  0
  3 39  1  0
  4 40  1  0
  4 41  1  0
  8 42  1  0
  8 43  1  0
  9 44  1  6
 10 45  1  0
 11 46  1  0
 11 47  1  0
 12 48  1  1
 15 49  1  0
 17 50  1  0
 18 51  1  0
 19 52  1  0
 23 53  1  0
 24 54  1  0
 25 55  1  0
 27 56  1  0
 29 57  1  0
 30 58  1  0
 32 59  1  0
 35 60  1  0
 36 61  1  0
M  END
>  <smiles>  (3) 
O=C(NCC(=O)N1C[C@H](O)C[C@H]1C(=O)Nc1cccc(-c2ncccn2)c1)c1ccc2cc(F)ccc2n1

>  <score_type>  (3) 
oracle

>  <origin>  (3) 
autodockgpu

>  <m_score__min__energy>  (3) 
-9.6600000000000001

>  <m_primary>  (3) 
energy

>  <rmsd>  (3) 
2.8187832802361883

>  <m_score__min__rmsd>  (3) 
2.8187832802361883

>  <meeko>  (3) 
{"free_energy": -8.15, "intermolecular_energy": -10.53, "internal_energy": -3.66, "cluster_size": 7, "cluster_id": 6, "rank_in_cluster": 5}

>  <energy>  (3) 
-9.47

>  <cluster_rmsd>  (3) 
0.0

>  <cluster>  (3) 
2

$$$$

     RDKit          3D

 61 65  0  0  0  0  0  0  0  0999 V2000
  142.5950   79.6390  218.9750 O   0  0  0  0  0  0  0  0  0  0  0  0
  141.3470   79.8310  218.8470 C   0  0  0  0  0  0  0  0  0  0  0  0
  140.5590   79.0540  217.9550 N   0  0  0  0  0  0  0  0  0  0  0  0
  141.1730   78.0120  217.1610 C   0  0  0  0  0  0  0  0  0  0  0  0
  141.0050   76.6730  217.7430 C   0  0  0  0  0  0  0  0  0  0  0  0
  140.1170   75.8700  217.3570 O   0  0  0  0  0  0  0  0  0  0  0  0
  141.8890   76.2840  218.7860 N   0  0  0  0  0  0  0  0  0  0  0  0
  143.3540   76.4190  218.8270 C   0  0  0  0  0  0  0  0  0  0  0  0
  143.7220   75.0350  219.3200 C   0  0  2  0  0  0  0  0  0  0  0  0
  143.4900   74.1080  218.2950 O   0  0  0  0  0  0  0  0  0  0  0  0
  142.7460   74.8450  220.4610 C   0  0  0  0  0  0  0  0  0  0  0  0
  141.5550   75.6620  220.0560 C   0  0  1  0  0  0  0  0  0  0  0  0
  141.2100   76.6920  221.0790 C   0  0  0  0  0  0  0  0  0  0  0  0
  140.2690   76.4180  221.8540 O   0  0  0  0  0  0  0  0  0  0  0  0
  141.9390   77.9050  221.1360 N   0  0  0  0  0  0  0  0  0  0  0  0
  141.7250   78.9560  222.0390 C   0  0  0  0  0  0  0  0  0  0  0  0
  142.6800   79.8010  222.5460 C   0  0  0  0  0  0  0  0  0  0  0  0
  142.3960   80.8250  223.4390 C   0  0  0  0  0  0  0  0  0  0  0  0
  141.1070   81.0350  223.8590 C   0  0  0  0  0  0  0  0  0  0  0  0
  140.1370   80.1920  223.3560 C   0  0  0  0  0  0  0  0  0  0  0  0
  138.7550   80.3770  223.7710 C   0  0  0  0  0  0  0  0  0  0  0  0
  138.4430   81.2490  224.7520 N   0  0  0  0  0  0  0  0  0  0  0  0
  137.1960   81.4770  225.1930 C   0  0  0  0  0  0  0  0  0  0  0  0
  136.1710   80.7660  224.5940 C   0  0  0  0  0  0  0  0  0  0  0  0
  136.4790   79.8740  223.5940 C   0  0  0  0  0  0  0  0  0  0  0  0
  137.7520   79.6730  223.1770 N   0  0  0  0  0  0  0  0  0  0  0  0
  140.4240   79.1780  222.4710 C   0  0  0  0  0  0  0  0  0  0  0  0
  140.6890   80.8820  219.6390 C   0  0  0  0  0  0  0  0  0  0  0  0
  141.4310   81.9120  220.1760 C   0  0  0  0  0  0  0  0  0  0  0  0
  140.7820   82.9000  220.9250 C   0  0  0  0  0  0  0  0  0  0  0  0
  139.4140   82.8300  221.1150 C   0  0  0  0  0  0  0  0  0  0  0  0
  138.7230   83.7870  221.8500 C   0  0  0  0  0  0  0  0  0  0  0  0
  137.3500   83.6780  222.0160 C   0  0  0  0  0  0  0  0  0  0  0  0
  136.6970   84.6300  222.7430 F   0  0  0  0  0  0  0  0  0  0  0  0
  136.6210   82.6370  221.4700 C   0  0  0  0  0  0  0  0  0  0  0  0
  137.3320   81.7030  220.7450 C   0  0  0  0  0  0  0  0  0  0  0  0
  138.7020   81.7830  220.5610 C   0  0  0  0  0  0  0  0  0  0  0  0
  139.3520   80.8490  219.8470 N   0  0  0  0  0  0  0  0  0  0  0  0
  139.5250   79.2730  217.9030 H   0  0  0  0  0  0  0  0  0  0  0  0
  140.7168   78.0190  216.1601 H   0  0  0  0  0  0  0  0  0  0  0  0
  142.2523   78.2208  217.1215 H   0  0  0  0  0  0  0  0  0  0  0  0
  143.7746   76.6248  217.8316 H   0  0  0  0  0  0  0  0  0  0  0  0
  143.7294   77.2494  219.4431 H   0  0  0  0  0  0  0  0  0  0  0  0
  144.7721   74.9087  219.6221 H   0  0  0  0  0  0  0  0  0  0  0  0
  142.6960   74.3920  217.7680 H   0  0  0  0  0  0  0  0  0  0  0  0
  142.4743   73.7848  220.5713 H   0  0  0  0  0  0  0  0  0  0  0  0
  143.1622   75.1535  221.4314 H   0  0  0  0  0  0  0  0  0  0  0  0
  140.6670   75.0193  219.9646 H   0  0  0  0  0  0  0  0  0  0  0  0
  142.7060   78.0020  220.4210 H   0  0  0  0  0  0  0  0  0  0  0  0
  143.7237   79.6597  222.2286 H   0  0  0  0  0  0  0  0  0  0  0  0
  143.2062   81.4695  223.8107 H   0  0  0  0  0  0  0  0  0  0  0  0
  140.8575   81.8401  224.5658 H   0  0  0  0  0  0  0  0  0  0  0  0
  136.9969   82.1998  225.9980 H   0  0  0  0  0  0  0  0  0  0  0  0
  135.1282   80.9119  224.9123 H   0  0  0  0  0  0  0  0  0  0  0  0
  135.6663   79.3059  223.1178 H   0  0  0  0  0  0  0  0  0  0  0  0
  139.6121   78.5348  222.1008 H   0  0  0  0  0  0  0  0  0  0  0  0
  142.5187   81.9568  220.0179 H   0  0  0  0  0  0  0  0  0  0  0  0
  141.3580   83.7295  221.3611 H   0  0  0  0  0  0  0  0  0  0  0  0
  139.2656   84.6313  222.3003 H   0  0  0  0  0  0  0  0  0  0  0  0
  135.5324   82.5580  221.6066 H   0  0  0  0  0  0  0  0  0  0  0  0
  136.7879   80.8598  220.2944 H   0  0  0  0  0  0  0  0  0  0  0  0
  1  2  2  0
  2  3  1  0
  3  4  1  0
  4  5  1  0
  5  6  2  0
  5  7  1  0
  7  8  1  0
  8  9  1  0
  9 10  1  0
  9 11  1  0
 11 12  1  0
 12 13  1  0
 13 14  2  0
 13 15  1  0
 15 16  1  0
 16 17  2  0
 17 18  1  0
 18 19  2  0
 19 20  1  0
 20 21  1  0
 21 22  2  0
 22 23  1  0
 23 24  2  0
 24 25  1  0
 25 26  2  0
 20 27  2  0
  2 28  1  0
 28 29  2  0
 29 30  1  0
 30 31  2  0
 31 32  1  0
 32 33  2  0
 33 34  1  0
 33 35  1  0
 35 36  2  0
 36 37  1  0
 37 38  2  0
 12  7  1  0
 27 16  1  0
 38 28  1  0
 26 21  1  0
 37 31  1  0
  3 39  1  0
  4 40  1  0
  4 41  1  0
  8 42  1  0
  8 43  1  0
  9 44  1  1
 10 45  1  0
 11 46  1  0
 11 47  1  0
 12 48  1  6
 15 49  1  0
 17 50  1  0
 18 51  1  0
 19 52  1  0
 23 53  1  0
 24 54  1  0
 25 55  1  0
 27 56  1  0
 29 57  1  0
 30 58  1  0
 32 59  1  0
 35 60  1  0
 36 61  1  0
M  END
>  <smiles>  (4) 
O=C(NCC(=O)N1C[C@H](O)C[C@H]1C(=O)Nc1cccc(-c2ncccn2)c1)c1ccc2cc(F)ccc2n1

>  <score_type>  (4) 
oracle

>  <origin>  (4) 
autodockgpu

>  <m_score__min__energy>  (4) 
-9.6600000000000001

>  <m_primary>  (4) 
energy

>  <rmsd>  (4) 
9.08944257270209

>  <m_score__min__rmsd>  (4) 
9.08944257270209

>  <meeko>  (4) 
{"free_energy": -5.7, "intermolecular_energy": -8.09, "internal_energy": -5.3, "cluster_size": 2, "cluster_id": 15, "rank_in_cluster": 2}

>  <energy>  (4) 
-9.36

>  <cluster_rmsd>  (4) 
1.91

>  <cluster>  (4) 
2

$$$$

     RDKit          3D

 61 65  0  0  0  0  0  0  0  0999 V2000
  138.2750   70.6870  221.4170 O   0  0  0  0  0  0  0  0  0  0  0  0
  138.2840   71.4390  222.4390 C   0  0  0  0  0  0  0  0  0  0  0  0
  137.5820   72.6760  222.4620 N   0  0  0  0  0  0  0  0  0  0  0  0
  136.8320   73.1090  221.3040 C   0  0  0  0  0  0  0  0  0  0  0  0
  137.5010   74.1850  220.5590 C   0  0  0  0  0  0  0  0  0  0  0  0
  136.8760   74.9990  219.8300 O   0  0  0  0  0  0  0  0  0  0  0  0
  138.9130   74.2990  220.6740 N   0  0  0  0  0  0  0  0  0  0  0  0
  139.9150   74.2410  219.5990 C   0  0  0  0  0  0  0  0  0  0  0  0
  140.9160   73.2990  220.2350 C   0  0  2  0  0  0  0  0  0  0  0  0
  140.3710   72.0080  220.2690 O   0  0  0  0  0  0  0  0  0  0  0  0
  141.0390   73.8770  221.6290 C   0  0  0  0  0  0  0  0  0  0  0  0
  139.6980   74.5010  221.8800 C   0  0  1  0  0  0  0  0  0  0  0  0
  139.8090   75.9520  222.2070 C   0  0  0  0  0  0  0  0  0  0  0  0
  138.7550   76.5350  222.5370 O   0  0  0  0  0  0  0  0  0  0  0  0
  141.0670   76.5990  222.1350 N   0  0  0  0  0  0  0  0  0  0  0  0
  141.3190   77.9510  222.4120 C   0  0  0  0  0  0  0  0  0  0  0  0
  141.5410   78.5020  223.6480 C   0  0  0  0  0  0  0  0  0  0  0  0
  141.7860   79.8530  223.8490 C   0  0  0  0  0  0  0  0  0  0  0  0
  141.8150   80.7140  222.7810 C   0  0  0  0  0  0  0  0  0  0  0  0
  141.5930   80.1720  221.5320 C   0  0  0  0  0  0  0  0  0  0  0  0
  141.6150   81.0460  220.3690 C   0  0  0  0  0  0  0  0  0  0  0  0
  142.1550   80.6260  219.2050 N   0  0  0  0  0  0  0  0  0  0  0  0
  142.2150   81.3690  218.0880 C   0  0  0  0  0  0  0  0  0  0  0  0
  141.6860   82.6460  218.1450 C   0  0  0  0  0  0  0  0  0  0  0  0
  141.1340   83.0820  219.3270 C   0  0  0  0  0  0  0  0  0  0  0  0
  141.0920   82.3020  220.4330 N   0  0  0  0  0  0  0  0  0  0  0  0
  141.3500   78.8320  221.3380 C   0  0  0  0  0  0  0  0  0  0  0  0
  139.0350   71.0310  223.6350 C   0  0  0  0  0  0  0  0  0  0  0  0
  140.0360   71.8380  224.1340 C   0  0  0  0  0  0  0  0  0  0  0  0
  140.7360   71.4280  225.2740 C   0  0  0  0  0  0  0  0  0  0  0  0
  140.4180   70.2260  225.8800 C   0  0  0  0  0  0  0  0  0  0  0  0
  141.0850   69.7750  227.0140 C   0  0  0  0  0  0  0  0  0  0  0  0
  140.7330   68.5620  227.5910 C   0  0  0  0  0  0  0  0  0  0  0  0
  141.4030   68.1440  228.7030 F   0  0  0  0  0  0  0  0  0  0  0  0
  139.7270   67.7660  227.0760 C   0  0  0  0  0  0  0  0  0  0  0  0
  139.0820   68.2380  225.9510 C   0  0  0  0  0  0  0  0  0  0  0  0
  139.4100   69.4430  225.3530 C   0  0  0  0  0  0  0  0  0  0  0  0
  138.7540   69.8630  224.2580 N   0  0  0  0  0  0  0  0  0  0  0  0
  137.6370   73.2480  223.3510 H   0  0  0  0  0  0  0  0  0  0  0  0
  136.6961   72.2488  220.6320 H   0  0  0  0  0  0  0  0  0  0  0  0
  135.8701   73.5043  221.6625 H   0  0  0  0  0  0  0  0  0  0  0  0
  139.4957   73.8270  218.6701 H   0  0  0  0  0  0  0  0  0  0  0  0
  140.3225   75.2142  219.2880 H   0  0  0  0  0  0  0  0  0  0  0  0
  141.8803   73.2167  219.7122 H   0  0  0  0  0  0  0  0  0  0  0  0
  140.1310   71.7770  221.2050 H   0  0  0  0  0  0  0  0  0  0  0  0
  141.2461   73.0854  222.3641 H   0  0  0  0  0  0  0  0  0  0  0  0
  141.8656   74.5972  221.7184 H   0  0  0  0  0  0  0  0  0  0  0  0
  139.2182   74.0326  222.7520 H   0  0  0  0  0  0  0  0  0  0  0  0
  141.8720   75.9870  221.8430 H   0  0  0  0  0  0  0  0  0  0  0  0
  141.5240   77.8388  224.5254 H   0  0  0  0  0  0  0  0  0  0  0  0
  141.9573   80.2344  224.8664 H   0  0  0  0  0  0  0  0  0  0  0  0
  142.0068   81.7888  222.9148 H   0  0  0  0  0  0  0  0  0  0  0  0
  142.6668   80.9778  217.1645 H   0  0  0  0  0  0  0  0  0  0  0  0
  141.7065   83.3007  217.2613 H   0  0  0  0  0  0  0  0  0  0  0  0
  140.7131   84.0971  219.3753 H   0  0  0  0  0  0  0  0  0  0  0  0
  141.1781   78.4531  220.3197 H   0  0  0  0  0  0  0  0  0  0  0  0
  140.2807   72.7911  223.6424 H   0  0  0  0  0  0  0  0  0  0  0  0
  141.5365   72.0594  225.6869 H   0  0  0  0  0  0  0  0  0  0  0  0
  141.8918   70.3795  227.4541 H   0  0  0  0  0  0  0  0  0  0  0  0
  139.4547   66.8060  227.5390 H   0  0  0  0  0  0  0  0  0  0  0  0
  138.2752   67.6328  225.5119 H   0  0  0  0  0  0  0  0  0  0  0  0
  1  2  2  0
  2  3  1  0
  3  4  1  0
  4  5  1  0
  5  6  2  0
  5  7  1  0
  7  8  1  0
  8  9  1  0
  9 10  1  0
  9 11  1  0
 11 12  1  0
 12 13  1  0
 13 14  2  0
 13 15  1  0
 15 16  1  0
 16 17  2  0
 17 18  1  0
 18 19  2  0
 19 20  1  0
 20 21  1  0
 21 22  2  0
 22 23  1  0
 23 24  2  0
 24 25  1  0
 25 26  2  0
 20 27  2  0
  2 28  1  0
 28 29  2  0
 29 30  1  0
 30 31  2  0
 31 32  1  0
 32 33  2  0
 33 34  1  0
 33 35  1  0
 35 36  2  0
 36 37  1  0
 37 38  2  0
 12  7  1  0
 27 16  1  0
 38 28  1  0
 26 21  1  0
 37 31  1  0
  3 39  1  0
  4 40  1  0
  4 41  1  0
  8 42  1  0
  8 43  1  0
  9 44  1  6
 10 45  1  0
 11 46  1  0
 11 47  1  0
 12 48  1  1
 15 49  1  0
 17 50  1  0
 18 51  1  0
 19 52  1  0
 23 53  1  0
 24 54  1  0
 25 55  1  0
 27 56  1  0
 29 57  1  0
 30 58  1  0
 32 59  1  0
 35 60  1  0
 36 61  1  0
M  END
>  <smiles>  (5) 
O=C(NCC(=O)N1C[C@H](O)C[C@H]1C(=O)Nc1cccc(-c2ncccn2)c1)c1ccc2cc(F)ccc2n1

>  <score_type>  (5) 
oracle

>  <origin>  (5) 
autodockgpu

>  <m_score__min__energy>  (5) 
-9.6600000000000001

>  <m_primary>  (5) 
energy

>  <rmsd>  (5) 
3.179039634883066

>  <m_score__min__rmsd>  (5) 
3.179039634883066

>  <meeko>  (5) 
{"free_energy": -8.89, "intermolecular_energy": -11.27, "internal_energy": -2.68, "cluster_size": 7, "cluster_id": 6, "rank_in_cluster": 1}

>  <energy>  (5) 
-9.25

>  <cluster_rmsd>  (5) 
1.97

>  <cluster>  (5) 
2

$$$$

     RDKit          3D

 61 65  0  0  0  0  0  0  0  0999 V2000
  141.5100   75.0270  221.6220 O   0  0  0  0  0  0  0  0  0  0  0  0
  141.3730   76.2390  221.2720 C   0  0  0  0  0  0  0  0  0  0  0  0
  142.2550   76.8520  220.3410 N   0  0  0  0  0  0  0  0  0  0  0  0
  143.3450   76.0950  219.7640 C   0  0  0  0  0  0  0  0  0  0  0  0
  142.9350   74.7610  219.3050 C   0  0  0  0  0  0  0  0  0  0  0  0
  142.0040   74.5820  218.4770 O   0  0  0  0  0  0  0  0  0  0  0  0
  143.6270   73.6340  219.8260 N   0  0  0  0  0  0  0  0  0  0  0  0
  144.7230   73.6210  220.8080 C   0  0  0  0  0  0  0  0  0  0  0  0
  145.6700   72.6610  220.1200 C   0  0  2  0  0  0  0  0  0  0  0  0
  146.2220   73.2910  218.9950 O   0  0  0  0  0  0  0  0  0  0  0  0
  144.7330   71.5420  219.7150 C   0  0  0  0  0  0  0  0  0  0  0  0
  143.4160   72.2310  219.5120 C   0  0  1  0  0  0  0  0  0  0  0  0
  142.3440   71.6490  220.3700 C   0  0  0  0  0  0  0  0  0  0  0  0
  142.3040   70.4030  220.4500 O   0  0  0  0  0  0  0  0  0  0  0  0
  141.4370   72.5020  221.0460 N   0  0  0  0  0  0  0  0  0  0  0  0
  140.3850   72.0960  221.8800 C   0  0  0  0  0  0  0  0  0  0  0  0
  139.0610   72.0010  221.5350 C   0  0  0  0  0  0  0  0  0  0  0  0
  138.0710   71.5890  222.4150 C   0  0  0  0  0  0  0  0  0  0  0  0
  138.3920   71.2530  223.7060 C   0  0  0  0  0  0  0  0  0  0  0  0
  139.7200   71.3440  224.0660 C   0  0  0  0  0  0  0  0  0  0  0  0
  140.1100   70.9970  225.4240 C   0  0  0  0  0  0  0  0  0  0  0  0
  139.9030   69.7520  225.9010 N   0  0  0  0  0  0  0  0  0  0  0  0
  140.2330   69.3510  227.1390 C   0  0  0  0  0  0  0  0  0  0  0  0
  140.8250   70.2850  227.9720 C   0  0  0  0  0  0  0  0  0  0  0  0
  141.0400   71.5570  227.4940 C   0  0  0  0  0  0  0  0  0  0  0  0
  140.6920   71.9220  226.2370 N   0  0  0  0  0  0  0  0  0  0  0  0
  140.7000   71.7530  223.1890 C   0  0  0  0  0  0  0  0  0  0  0  0
  140.2760   77.0390  221.8380 C   0  0  0  0  0  0  0  0  0  0  0  0
  139.0030   76.5130  221.9160 C   0  0  0  0  0  0  0  0  0  0  0  0
  137.9770   77.2940  222.4600 C   0  0  0  0  0  0  0  0  0  0  0  0
  138.2510   78.5740  222.9060 C   0  0  0  0  0  0  0  0  0  0  0  0
  137.2650   79.3880  223.4540 C   0  0  0  0  0  0  0  0  0  0  0  0
  137.5840   80.6660  223.8900 C   0  0  0  0  0  0  0  0  0  0  0  0
  136.5980   81.4440  224.4230 F   0  0  0  0  0  0  0  0  0  0  0  0
  138.8660   81.1770  223.8040 C   0  0  0  0  0  0  0  0  0  0  0  0
  139.8230   80.3470  223.2570 C   0  0  0  0  0  0  0  0  0  0  0  0
  139.5370   79.0680  222.8120 C   0  0  0  0  0  0  0  0  0  0  0  0
  140.5030   78.2950  222.2870 N   0  0  0  0  0  0  0  0  0  0  0  0
  142.0770   77.8670  220.0980 H   0  0  0  0  0  0  0  0  0  0  0  0
  143.7446   76.6542  218.9051 H   0  0  0  0  0  0  0  0  0  0  0  0
  144.1020   75.9553  220.5498 H   0  0  0  0  0  0  0  0  0  0  0  0
  145.1709   74.6176  220.9351 H   0  0  0  0  0  0  0  0  0  0  0  0
  144.4307   73.3361  221.8294 H   0  0  0  0  0  0  0  0  0  0  0  0
  146.5170   72.3180  220.7324 H   0  0  0  0  0  0  0  0  0  0  0  0
  145.9390   74.2430  218.9800 H   0  0  0  0  0  0  0  0  0  0  0  0
  145.0727   71.0646  218.7840 H   0  0  0  0  0  0  0  0  0  0  0  0
  144.6810   70.7393  220.4653 H   0  0  0  0  0  0  0  0  0  0  0  0
  143.0752   72.1011  218.4742 H   0  0  0  0  0  0  0  0  0  0  0  0
  141.5870   73.5320  220.8890 H   0  0  0  0  0  0  0  0  0  0  0  0
  138.7692   72.2651  220.5078 H   0  0  0  0  0  0  0  0  0  0  0  0
  137.0258   71.5315  222.0769 H   0  0  0  0  0  0  0  0  0  0  0  0
  137.6239   70.9255  224.4221 H   0  0  0  0  0  0  0  0  0  0  0  0
  140.0409   68.3222  227.4777 H   0  0  0  0  0  0  0  0  0  0  0  0
  141.1181   70.0150  228.9973 H   0  0  0  0  0  0  0  0  0  0  0  0
  141.5095   72.3014  228.1538 H   0  0  0  0  0  0  0  0  0  0  0  0
  141.7446   71.8088  223.5290 H   0  0  0  0  0  0  0  0  0  0  0  0
  138.7974   75.4942  221.5557 H   0  0  0  0  0  0  0  0  0  0  0  0
  136.9560   76.8911  222.5326 H   0  0  0  0  0  0  0  0  0  0  0  0
  136.2326   79.0186  223.5416 H   0  0  0  0  0  0  0  0  0  0  0  0
  139.1099   82.1912  224.1531 H   0  0  0  0  0  0  0  0  0  0  0  0
  140.8554   80.7169  223.1711 H   0  0  0  0  0  0  0  0  0  0  0  0
  1  2  2  0
  2  3  1  0
  3  4  1  0
  4  5  1  0
  5  6  2  0
  5  7  1  0
  7  8  1  0
  8  9  1  0
  9 10  1  0
  9 11  1  0
 11 12  1  0
 12 13  1  0
 13 14  2  0
 13 15  1  0
 15 16  1  0
 16 17  2  0
 17 18  1  0
 18 19  2  0
 19 20  1  0
 20 21  1  0
 21 22  2  0
 22 23  1  0
 23 24  2  0
 24 25  1  0
 25 26  2  0
 20 27  2  0
  2 28  1  0
 28 29  2  0
 29 30  1  0
 30 31  2  0
 31 32  1  0
 32 33  2  0
 33 34  1  0
 33 35  1  0
 35 36  2  0
 36 37  1  0
 37 38  2  0
 12  7  1  0
 27 16  1  0
 38 28  1  0
 26 21  1  0
 37 31  1  0
  3 39  1  0
  4 40  1  0
  4 41  1  0
  8 42  1  0
  8 43  1  0
  9 44  1  1
 10 45  1  0
 11 46  1  0
 11 47  1  0
 12 48  1  6
 15 49  1  0
 17 50  1  0
 18 51  1  0
 19 52  1  0
 23 53  1  0
 24 54  1  0
 25 55  1  0
 27 56  1  0
 29 57  1  0
 30 58  1  0
 32 59  1  0
 35 60  1  0
 36 61  1  0
M  END
>  <smiles>  (6) 
O=C(NCC(=O)N1C[C@H](O)C[C@H]1C(=O)Nc1cccc(-c2ncccn2)c1)c1ccc2cc(F)ccc2n1

>  <score_type>  (6) 
oracle

>  <origin>  (6) 
autodockgpu

>  <m_score__min__energy>  (6) 
-9.6600000000000001

>  <m_primary>  (6) 
energy

>  <rmsd>  (6) 
8.609545527376062

>  <m_score__min__rmsd>  (6) 
8.609545527376062

>  <meeko>  (6) 
{"free_energy": -8.84, "intermolecular_energy": -11.23, "internal_energy": -3.16, "cluster_size": 5, "cluster_id": 5, "rank_in_cluster": 4}

>  <energy>  (6) 
-9.11

>  <cluster_rmsd>  (6) 
1.13

>  <cluster>  (6) 
2

$$$$

     RDKit          3D

 61 65  0  0  0  0  0  0  0  0999 V2000
  140.3490   71.7270  221.7930 O   0  0  0  0  0  0  0  0  0  0  0  0
  139.4760   71.7110  222.7140 C   0  0  0  0  0  0  0  0  0  0  0  0
  138.3560   72.5860  222.6970 N   0  0  0  0  0  0  0  0  0  0  0  0
  138.1850   73.5280  221.6130 C   0  0  0  0  0  0  0  0  0  0  0  0
  139.1200   74.6610  221.6860 C   0  0  0  0  0  0  0  0  0  0  0  0
  139.1890   75.4230  222.6850 O   0  0  0  0  0  0  0  0  0  0  0  0
  139.9740   74.8930  220.5740 N   0  0  0  0  0  0  0  0  0  0  0  0
  139.5990   75.0180  219.1560 C   0  0  0  0  0  0  0  0  0  0  0  0
  140.6500   74.1220  218.5360 C   0  0  2  0  0  0  0  0  0  0  0  0
  140.3580   72.7880  218.8540 O   0  0  0  0  0  0  0  0  0  0  0  0
  141.9070   74.5880  219.2390 C   0  0  0  0  0  0  0  0  0  0  0  0
  141.4170   75.0630  220.5750 C   0  0  1  0  0  0  0  0  0  0  0  0
  141.7860   76.4860  220.8320 C   0  0  0  0  0  0  0  0  0  0  0  0
  142.5700   77.0170  220.0170 O   0  0  0  0  0  0  0  0  0  0  0  0
  141.2500   77.1640  221.9530 N   0  0  0  0  0  0  0  0  0  0  0  0
  141.5080   78.4940  222.3160 C   0  0  0  0  0  0  0  0  0  0  0  0
  141.9020   78.9400  223.5520 C   0  0  0  0  0  0  0  0  0  0  0  0
  142.1420   80.2760  223.8410 C   0  0  0  0  0  0  0  0  0  0  0  0
  141.9870   81.2300  222.8680 C   0  0  0  0  0  0  0  0  0  0  0  0
  141.5900   80.7950  221.6200 C   0  0  0  0  0  0  0  0  0  0  0  0
  141.4130   81.7700  220.5540 C   0  0  0  0  0  0  0  0  0  0  0  0
  140.8460   82.9680  220.8060 N   0  0  0  0  0  0  0  0  0  0  0  0
  140.6460   83.9200  219.8820 C   0  0  0  0  0  0  0  0  0  0  0  0
  141.0540   83.6440  218.5880 C   0  0  0  0  0  0  0  0  0  0  0  0
  141.6340   82.4260  218.3220 C   0  0  0  0  0  0  0  0  0  0  0  0
  141.8170   81.4900  219.2840 N   0  0  0  0  0  0  0  0  0  0  0  0
  141.3530   79.4690  221.3380 C   0  0  0  0  0  0  0  0  0  0  0  0
  139.6180   70.7660  223.8320 C   0  0  0  0  0  0  0  0  0  0  0  0
  139.1830   69.4640  223.6980 C   0  0  0  0  0  0  0  0  0  0  0  0
  139.3290   68.5840  224.7760 C   0  0  0  0  0  0  0  0  0  0  0  0
  139.9030   69.0290  225.9530 C   0  0  0  0  0  0  0  0  0  0  0  0
  140.0710   68.1930  227.0520 C   0  0  0  0  0  0  0  0  0  0  0  0
  140.6520   68.6810  228.2140 C   0  0  0  0  0  0  0  0  0  0  0  0
  140.8040   67.8390  229.2770 F   0  0  0  0  0  0  0  0  0  0  0  0
  141.0830   69.9890  228.3300 C   0  0  0  0  0  0  0  0  0  0  0  0
  140.9040   70.7960  227.2240 C   0  0  0  0  0  0  0  0  0  0  0  0
  140.3280   70.3390  226.0510 C   0  0  0  0  0  0  0  0  0  0  0  0
  140.1750   71.1620  225.0000 N   0  0  0  0  0  0  0  0  0  0  0  0
  137.6710   72.5140  223.5000 H   0  0  0  0  0  0  0  0  0  0  0  0
  138.3462   73.0007  220.6612 H   0  0  0  0  0  0  0  0  0  0  0  0
  137.1661   73.9357  221.6879 H   0  0  0  0  0  0  0  0  0  0  0  0
  138.5809   74.6468  218.9671 H   0  0  0  0  0  0  0  0  0  0  0  0
  139.5752   76.0472  218.7684 H   0  0  0  0  0  0  0  0  0  0  0  0
  140.7218   74.1735  217.4396 H   0  0  0  0  0  0  0  0  0  0  0  0
  140.4310   72.6600  219.8360 H   0  0  0  0  0  0  0  0  0  0  0  0
  142.6205   73.7590  219.3558 H   0  0  0  0  0  0  0  0  0  0  0  0
  142.4410   75.3704  218.6799 H   0  0  0  0  0  0  0  0  0  0  0  0
  141.8870   74.4803  221.3809 H   0  0  0  0  0  0  0  0  0  0  0  0
  140.6010   76.5940  222.5560 H   0  0  0  0  0  0  0  0  0  0  0  0
  142.0345   78.2005  224.3555 H   0  0  0  0  0  0  0  0  0  0  0  0
  142.4573   80.5705  224.8529 H   0  0  0  0  0  0  0  0  0  0  0  0
  142.1710   82.2949  223.0733 H   0  0  0  0  0  0  0  0  0  0  0  0
  140.1771   84.8805  220.1418 H   0  0  0  0  0  0  0  0  0  0  0  0
  140.9166   84.3856  217.7873 H   0  0  0  0  0  0  0  0  0  0  0  0
  141.9599   82.2046  217.2950 H   0  0  0  0  0  0  0  0  0  0  0  0
  141.0369   79.1772  220.3256 H   0  0  0  0  0  0  0  0  0  0  0  0
  138.7277   69.1222  222.7568 H   0  0  0  0  0  0  0  0  0  0  0  0
  138.9884   67.5418  224.6877 H   0  0  0  0  0  0  0  0  0  0  0  0
  139.7431   67.1443  227.0000 H   0  0  0  0  0  0  0  0  0  0  0  0
  141.5441   70.3671  229.2543 H   0  0  0  0  0  0  0  0  0  0  0  0
  141.2324   71.8445  227.2771 H   0  0  0  0  0  0  0  0  0  0  0  0
  1  2  2  0
  2  3  1  0
  3  4  1  0
  4  5  1  0
  5  6  2  0
  5  7  1  0
  7  8  1  0
  8  9  1  0
  9 10  1  0
  9 11  1  0
 11 12  1  0
 12 13  1  0
 13 14  2  0
 13 15  1  0
 15 16  1  0
 16 17  2  0
 17 18  1  0
 18 19  2  0
 19 20  1  0
 20 21  1  0
 21 22  2  0
 22 23  1  0
 23 24  2  0
 24 25  1  0
 25 26  2  0
 20 27  2  0
  2 28  1  0
 28 29  2  0
 29 30  1  0
 30 31  2  0
 31 32  1  0
 32 33  2  0
 33 34  1  0
 33 35  1  0
 35 36  2  0
 36 37  1  0
 37 38  2  0
 12  7  1  0
 27 16  1  0
 38 28  1  0
 26 21  1  0
 37 31  1  0
  3 39  1  0
  4 40  1  0
  4 41  1  0
  8 42  1  0
  8 43  1  0
  9 44  1  6
 10 45  1  0
 11 46  1  0
 11 47  1  0
 12 48  1  1
 15 49  1  0
 17 50  1  0
 18 51  1  0
 19 52  1  0
 23 53  1  0
 24 54  1  0
 25 55  1  0
 27 56  1  0
 29 57  1  0
 30 58  1  0
 32 59  1  0
 35 60  1  0
 36 61  1  0
M  END
>  <smiles>  (7) 
O=C(NCC(=O)N1C[C@H](O)C[C@H]1C(=O)Nc1cccc(-c2ncccn2)c1)c1ccc2cc(F)ccc2n1

>  <score_type>  (7) 
oracle

>  <origin>  (7) 
autodockgpu

>  <m_score__min__energy>  (7) 
-9.6600000000000001

>  <m_primary>  (7) 
energy

>  <rmsd>  (7) 
2.0990600850737344

>  <m_score__min__rmsd>  (7) 
2.0990600850737344

>  <meeko>  (7) 
{"free_energy": -8.67, "intermolecular_energy": -11.05, "internal_energy": -3.27, "cluster_size": 7, "cluster_id": 6, "rank_in_cluster": 2}

>  <energy>  (7) 
-9.03

>  <cluster_rmsd>  (7) 
1.43

>  <cluster>  (7) 
2

$$$$

     RDKit          3D

 61 65  0  0  0  0  0  0  0  0999 V2000
  138.4400   71.6130  222.0180 O   0  0  0  0  0  0  0  0  0  0  0  0
  139.4830   71.5840  222.7400 C   0  0  0  0  0  0  0  0  0  0  0  0
  140.5990   72.4260  222.4740 N   0  0  0  0  0  0  0  0  0  0  0  0
  140.5670   73.3450  221.3580 C   0  0  0  0  0  0  0  0  0  0  0  0
  139.5130   74.3610  221.4820 C   0  0  0  0  0  0  0  0  0  0  0  0
  139.5670   75.3000  222.3180 O   0  0  0  0  0  0  0  0  0  0  0  0
  138.3900   74.2670  220.6160 N   0  0  0  0  0  0  0  0  0  0  0  0
  138.2610   73.4680  219.3870 C   0  0  0  0  0  0  0  0  0  0  0  0
  137.6530   74.5090  218.4700 C   0  0  2  0  0  0  0  0  0  0  0  0
  138.6270   75.4670  218.1580 O   0  0  0  0  0  0  0  0  0  0  0  0
  136.5690   75.0970  219.3480 C   0  0  0  0  0  0  0  0  0  0  0  0
  137.1060   74.9360  220.7400 C   0  0  1  0  0  0  0  0  0  0  0  0
  136.1800   74.1540  221.6090 C   0  0  0  0  0  0  0  0  0  0  0  0
  134.9700   74.1750  221.3000 O   0  0  0  0  0  0  0  0  0  0  0  0
  136.6870   73.4380  222.7200 N   0  0  0  0  0  0  0  0  0  0  0  0
  135.9380   72.6650  223.6190 C   0  0  0  0  0  0  0  0  0  0  0  0
  135.9600   71.2980  223.7340 C   0  0  0  0  0  0  0  0  0  0  0  0
  135.1890   70.5970  224.6510 C   0  0  0  0  0  0  0  0  0  0  0  0
  134.3490   71.2700  225.5020 C   0  0  0  0  0  0  0  0  0  0  0  0
  134.3180   72.6450  225.3970 C   0  0  0  0  0  0  0  0  0  0  0  0
  133.4430   73.4020  226.2790 C   0  0  0  0  0  0  0  0  0  0  0  0
  133.6250   74.7270  226.4550 N   0  0  0  0  0  0  0  0  0  0  0  0
  132.8650   75.4970  227.2500 C   0  0  0  0  0  0  0  0  0  0  0  0
  131.8290   74.8790  227.9280 C   0  0  0  0  0  0  0  0  0  0  0  0
  131.6360   73.5290  227.7560 C   0  0  0  0  0  0  0  0  0  0  0  0
  132.4260   72.7870  226.9440 N   0  0  0  0  0  0  0  0  0  0  0  0
  135.0840   73.3360  224.4860 C   0  0  0  0  0  0  0  0  0  0  0  0
  139.5510   70.6620  223.8840 C   0  0  0  0  0  0  0  0  0  0  0  0
  138.9430   69.4260  223.8140 C   0  0  0  0  0  0  0  0  0  0  0  0
  139.0210   68.5660  224.9150 C   0  0  0  0  0  0  0  0  0  0  0  0
  139.7020   68.9650  226.0510 C   0  0  0  0  0  0  0  0  0  0  0  0
  139.8080   68.1470  227.1700 C   0  0  0  0  0  0  0  0  0  0  0  0
  140.5010   68.5870  228.2890 C   0  0  0  0  0  0  0  0  0  0  0  0
  140.5900   67.7640  229.3740 F   0  0  0  0  0  0  0  0  0  0  0  0
  141.1050   69.8300  228.3410 C   0  0  0  0  0  0  0  0  0  0  0  0
  140.9840   70.6200  227.2170 C   0  0  0  0  0  0  0  0  0  0  0  0
  140.2990   70.2100  226.0850 C   0  0  0  0  0  0  0  0  0  0  0  0
  140.2080   71.0150  225.0130 N   0  0  0  0  0  0  0  0  0  0  0  0
  141.4330   72.3450  223.1210 H   0  0  0  0  0  0  0  0  0  0  0  0
  141.5398   73.8547  221.2955 H   0  0  0  0  0  0  0  0  0  0  0  0
  140.3530   72.7571  220.4532 H   0  0  0  0  0  0  0  0  0  0  0  0
  139.2378   73.1195  219.0205 H   0  0  0  0  0  0  0  0  0  0  0  0
  137.6782   72.5410  219.4920 H   0  0  0  0  0  0  0  0  0  0  0  0
  137.2741   74.1258  217.5111 H   0  0  0  0  0  0  0  0  0  0  0  0
  138.2930   76.3690  218.4070 H   0  0  0  0  0  0  0  0  0  0  0  0
  136.4067   76.1589  219.1114 H   0  0  0  0  0  0  0  0  0  0  0  0
  135.5958   74.6036  219.2088 H   0  0  0  0  0  0  0  0  0  0  0  0
  137.2126   75.9190  221.2220 H   0  0  0  0  0  0  0  0  0  0  0  0
  137.7290   73.5090  222.8640 H   0  0  0  0  0  0  0  0  0  0  0  0
  136.6224   70.7285  223.0654 H   0  0  0  0  0  0  0  0  0  0  0  0
  135.2515   69.4997  224.6956 H   0  0  0  0  0  0  0  0  0  0  0  0
  133.7274   70.7362  226.2360 H   0  0  0  0  0  0  0  0  0  0  0  0
  133.0579   76.5746  227.3579 H   0  0  0  0  0  0  0  0  0  0  0  0
  131.1714   75.4580  228.5930 H   0  0  0  0  0  0  0  0  0  0  0  0
  130.8138   73.0357  228.2950 H   0  0  0  0  0  0  0  0  0  0  0  0
  135.0194   74.4333  224.4436 H   0  0  0  0  0  0  0  0  0  0  0  0
  138.4041   69.1205  222.9050 H   0  0  0  0  0  0  0  0  0  0  0  0
  138.5425   67.5762  224.8773 H   0  0  0  0  0  0  0  0  0  0  0  0
  139.3423   67.1504  227.1685 H   0  0  0  0  0  0  0  0  0  0  0  0
  141.6530   70.1706  229.2319 H   0  0  0  0  0  0  0  0  0  0  0  0
  141.4504   71.6162  227.2196 H   0  0  0  0  0  0  0  0  0  0  0  0
  1  2  2  0
  2  3  1  0
  3  4  1  0
  4  5  1  0
  5  6  2  0
  5  7  1  0
  7  8  1  0
  8  9  1  0
  9 10  1  0
  9 11  1  0
 11 12  1  0
 12 13  1  0
 13 14  2  0
 13 15  1  0
 15 16  1  0
 16 17  2  0
 17 18  1  0
 18 19  2  0
 19 20  1  0
 20 21  1  0
 21 22  2  0
 22 23  1  0
 23 24  2  0
 24 25  1  0
 25 26  2  0
 20 27  2  0
  2 28  1  0
 28 29  2  0
 29 30  1  0
 30 31  2  0
 31 32  1  0
 32 33  2  0
 33 34  1  0
 33 35  1  0
 35 36  2  0
 36 37  1  0
 37 38  2  0
 12  7  1  0
 27 16  1  0
 38 28  1  0
 26 21  1  0
 37 31  1  0
  3 39  1  0
  4 40  1  0
  4 41  1  0
  8 42  1  0
  8 43  1  0
  9 44  1  6
 10 45  1  0
 11 46  1  0
 11 47  1  0
 12 48  1  1
 15 49  1  0
 17 50  1  0
 18 51  1  0
 19 52  1  0
 23 53  1  0
 24 54  1  0
 25 55  1  0
 27 56  1  0
 29 57  1  0
 30 58  1  0
 32 59  1  0
 35 60  1  0
 36 61  1  0
M  END
>  <smiles>  (8) 
O=C(NCC(=O)N1C[C@H](O)C[C@H]1C(=O)Nc1cccc(-c2ncccn2)c1)c1ccc2cc(F)ccc2n1

>  <score_type>  (8) 
oracle

>  <origin>  (8) 
autodockgpu

>  <m_score__min__energy>  (8) 
-9.6600000000000001

>  <m_primary>  (8) 
energy

>  <rmsd>  (8) 
6.0200378887982025

>  <m_score__min__rmsd>  (8) 
6.0200378887982025

>  <meeko>  (8) 
{"free_energy": -7.94, "intermolecular_energy": -10.32, "internal_energy": -3.6, "cluster_size": 1, "cluster_id": 9, "rank_in_cluster": 1}

>  <energy>  (8) 
-8.77

>  <cluster_rmsd>  (8) 
1.3

>  <cluster>  (8) 
2

$$$$

     RDKit          3D

 61 65  0  0  0  0  0  0  0  0999 V2000
  138.7390   74.4300  217.9380 O   0  0  0  0  0  0  0  0  0  0  0  0
  139.8220   75.0580  218.1450 C   0  0  0  0  0  0  0  0  0  0  0  0
  141.0900   74.4550  217.9180 N   0  0  0  0  0  0  0  0  0  0  0  0
  141.1730   73.0920  217.4410 C   0  0  0  0  0  0  0  0  0  0  0  0
  142.3560   72.3800  217.9430 C   0  0  0  0  0  0  0  0  0  0  0  0
  142.5610   71.1580  217.7210 O   0  0  0  0  0  0  0  0  0  0  0  0
  143.3010   73.1150  218.7100 N   0  0  0  0  0  0  0  0  0  0  0  0
  144.4910   73.8350  218.2290 C   0  0  0  0  0  0  0  0  0  0  0  0
  145.5080   73.3490  219.2400 C   0  0  2  0  0  0  0  0  0  0  0  0
  145.7950   72.0000  218.9870 O   0  0  0  0  0  0  0  0  0  0  0  0
  144.7500   73.5110  220.5410 C   0  0  0  0  0  0  0  0  0  0  0  0
  143.3140   73.3270  220.1470 C   0  0  1  0  0  0  0  0  0  0  0  0
  142.4780   74.5060  220.5190 C   0  0  0  0  0  0  0  0  0  0  0  0
  142.8040   75.6040  220.0200 O   0  0  0  0  0  0  0  0  0  0  0  0
  141.3780   74.3450  221.3950 N   0  0  0  0  0  0  0  0  0  0  0  0
  140.5110   75.3580  221.8290 C   0  0  0  0  0  0  0  0  0  0  0  0
  139.1480   75.2650  221.9560 C   0  0  0  0  0  0  0  0  0  0  0  0
  138.3490   76.3110  222.3950 C   0  0  0  0  0  0  0  0  0  0  0  0
  138.9140   77.5170  222.7280 C   0  0  0  0  0  0  0  0  0  0  0  0
  140.2840   77.6230  222.6040 C   0  0  0  0  0  0  0  0  0  0  0  0
  140.9290   78.8820  222.9460 C   0  0  0  0  0  0  0  0  0  0  0  0
  140.1930   79.9740  223.2380 N   0  0  0  0  0  0  0  0  0  0  0  0
  140.7090   81.1700  223.5620 C   0  0  0  0  0  0  0  0  0  0  0  0
  142.0890   81.2770  223.5970 C   0  0  0  0  0  0  0  0  0  0  0  0
  142.8480   80.1690  223.3010 C   0  0  0  0  0  0  0  0  0  0  0  0
  142.2870   78.9790  222.9780 N   0  0  0  0  0  0  0  0  0  0  0  0
  141.0720   76.5830  222.1680 C   0  0  0  0  0  0  0  0  0  0  0  0
  139.7760   76.4450  218.6300 C   0  0  0  0  0  0  0  0  0  0  0  0
  138.5680   77.0240  218.9600 C   0  0  0  0  0  0  0  0  0  0  0  0
  138.5500   78.3450  219.4210 C   0  0  0  0  0  0  0  0  0  0  0  0
  139.7360   79.0480  219.5370 C   0  0  0  0  0  0  0  0  0  0  0  0
  139.7700   80.3620  219.9900 C   0  0  0  0  0  0  0  0  0  0  0  0
  140.9830   81.0300  220.0920 C   0  0  0  0  0  0  0  0  0  0  0  0
  140.9880   82.3190  220.5390 F   0  0  0  0  0  0  0  0  0  0  0  0
  142.1840   80.4340  219.7570 C   0  0  0  0  0  0  0  0  0  0  0  0
  142.1200   79.1290  219.3110 C   0  0  0  0  0  0  0  0  0  0  0  0
  140.9270   78.4360  219.1980 C   0  0  0  0  0  0  0  0  0  0  0  0
  140.9140   77.1660  218.7590 N   0  0  0  0  0  0  0  0  0  0  0  0
  141.9480   75.0420  218.1140 H   0  0  0  0  0  0  0  0  0  0  0  0
  140.2730   72.5506  217.7679 H   0  0  0  0  0  0  0  0  0  0  0  0
  141.2527   73.1310  216.3446 H   0  0  0  0  0  0  0  0  0  0  0  0
  144.7604   73.5420  217.2036 H   0  0  0  0  0  0  0  0  0  0  0  0
  144.3814   74.9277  218.1657 H   0  0  0  0  0  0  0  0  0  0  0  0
  146.4710   73.8806  219.2291 H   0  0  0  0  0  0  0  0  0  0  0  0
  144.9880   71.5560  218.6140 H   0  0  0  0  0  0  0  0  0  0  0  0
  145.0567   72.7469  221.2705 H   0  0  0  0  0  0  0  0  0  0  0  0
  144.9367   74.4821  221.0228 H   0  0  0  0  0  0  0  0  0  0  0  0
  142.8798   72.4690  220.6812 H   0  0  0  0  0  0  0  0  0  0  0  0
  141.2190   73.3620  221.7410 H   0  0  0  0  0  0  0  0  0  0  0  0
  138.6637   74.3121  221.6964 H   0  0  0  0  0  0  0  0  0  0  0  0
  137.2607   76.1736  222.4764 H   0  0  0  0  0  0  0  0  0  0  0  0
  138.3018   78.3612  223.0781 H   0  0  0  0  0  0  0  0  0  0  0  0
  140.0621   82.0298  223.7903 H   0  0  0  0  0  0  0  0  0  0  0  0
  142.5699   82.2315  223.8570 H   0  0  0  0  0  0  0  0  0  0  0  0
  143.9446   80.2516  223.3273 H   0  0  0  0  0  0  0  0  0  0  0  0
  142.1600   76.7231  222.0868 H   0  0  0  0  0  0  0  0  0  0  0  0
  137.6318   76.4549  218.8620 H   0  0  0  0  0  0  0  0  0  0  0  0
  137.5965   78.8228  219.6902 H   0  0  0  0  0  0  0  0  0  0  0  0
  138.8360   80.8724  220.2676 H   0  0  0  0  0  0  0  0  0  0  0  0
  143.1403   80.9710  219.8413 H   0  0  0  0  0  0  0  0  0  0  0  0
  143.0547   78.6193  219.0343 H   0  0  0  0  0  0  0  0  0  0  0  0
  1  2  2  0
  2  3  1  0
  3  4  1  0
  4  5  1  0
  5  6  2  0
  5  7  1  0
  7  8  1  0
  8  9  1  0
  9 10  1  0
  9 11  1  0
 11 12  1  0
 12 13  1  0
 13 14  2  0
 13 15  1  0
 15 16  1  0
 16 17  2  0
 17 18  1  0
 18 19  2  0
 19 20  1  0
 20 21  1  0
 21 22  2  0
 22 23  1  0
 23 24  2  0
 24 25  1  0
 25 26  2  0
 20 27  2  0
  2 28  1  0
 28 29  2  0
 29 30  1  0
 30 31  2  0
 31 32  1  0
 32 33  2  0
 33 34  1  0
 33 35  1  0
 35 36  2  0
 36 37  1  0
 37 38  2  0
 12  7  1  0
 27 16  1  0
 38 28  1  0
 26 21  1  0
 37 31  1  0
  3 39  1  0
  4 40  1  0
  4 41  1  0
  8 42  1  0
  8 43  1  0
  9 44  1  1
 10 45  1  0
 11 46  1  0
 11 47  1  0
 12 48  1  1
 15 49  1  0
 17 50  1  0
 18 51  1  0
 19 52  1  0
 23 53  1  0
 24 54  1  0
 25 55  1  0
 27 56  1  0
 29 57  1  0
 30 58  1  0
 32 59  1  0
 35 60  1  0
 36 61  1  0
M  END
>  <smiles>  (9) 
O=C(NCC(=O)N1C[C@H](O)C[C@H]1C(=O)Nc1cccc(-c2ncccn2)c1)c1ccc2cc(F)ccc2n1

>  <score_type>  (9) 
oracle

>  <origin>  (9) 
autodockgpu

>  <m_score__min__energy>  (9) 
-9.6600000000000001

>  <m_primary>  (9) 
energy

>  <rmsd>  (9) 
7.970343865073047

>  <m_score__min__rmsd>  (9) 
7.970343865073047

>  <meeko>  (9) 
{"free_energy": -5.51, "intermolecular_energy": -7.9, "internal_energy": -5.69, "cluster_size": 1, "cluster_id": 18, "rank_in_cluster": 1}

>  <energy>  (9) 
-8.71

>  <cluster_rmsd>  (9) 
1.03

>  <cluster>  (9) 
2

$$$$

     RDKit          3D

 61 65  0  0  0  0  0  0  0  0999 V2000
  138.1960   70.9940  221.5120 O   0  0  0  0  0  0  0  0  0  0  0  0
  138.6490   71.7750  222.4040 C   0  0  0  0  0  0  0  0  0  0  0  0
  138.5400   73.1880  222.2850 N   0  0  0  0  0  0  0  0  0  0  0  0
  137.9020   73.7730  221.1260 C   0  0  0  0  0  0  0  0  0  0  0  0
  138.7690   73.7840  219.9400 C   0  0  0  0  0  0  0  0  0  0  0  0
  138.3980   73.3410  218.8220 O   0  0  0  0  0  0  0  0  0  0  0  0
  140.0790   74.3200  220.0750 N   0  0  0  0  0  0  0  0  0  0  0  0
  140.9470   74.8610  219.0170 C   0  0  0  0  0  0  0  0  0  0  0  0
  142.2460   74.1690  219.3770 C   0  0  2  0  0  0  0  0  0  0  0  0
  142.1370   72.8060  219.0700 O   0  0  0  0  0  0  0  0  0  0  0  0
  142.3080   74.3890  220.8740 C   0  0  0  0  0  0  0  0  0  0  0  0
  140.8670   74.4590  221.2870 C   0  0  1  0  0  0  0  0  0  0  0  0
  140.5480   75.7370  221.9860 C   0  0  0  0  0  0  0  0  0  0  0  0
  139.5120   75.7510  222.6850 O   0  0  0  0  0  0  0  0  0  0  0  0
  141.4040   76.8560  221.8410 N   0  0  0  0  0  0  0  0  0  0  0  0
  141.2280   78.1140  222.4350 C   0  0  0  0  0  0  0  0  0  0  0  0
  142.2050   79.0490  222.6660 C   0  0  0  0  0  0  0  0  0  0  0  0
  141.9590   80.2790  223.2600 C   0  0  0  0  0  0  0  0  0  0  0  0
  140.6870   80.6140  223.6500 C   0  0  0  0  0  0  0  0  0  0  0  0
  139.6950   79.6820  223.4230 C   0  0  0  0  0  0  0  0  0  0  0  0
  138.3290   79.9920  223.8180 C   0  0  0  0  0  0  0  0  0  0  0  0
  137.2860   79.3880  223.2130 N   0  0  0  0  0  0  0  0  0  0  0  0
  135.9980   79.6180  223.5180 C   0  0  0  0  0  0  0  0  0  0  0  0
  135.7370   80.5350  224.5200 C   0  0  0  0  0  0  0  0  0  0  0  0
  136.7950   81.1560  225.1430 C   0  0  0  0  0  0  0  0  0  0  0  0
  138.0810   80.8960  224.8060 N   0  0  0  0  0  0  0  0  0  0  0  0
  139.9440   78.4630  222.8340 C   0  0  0  0  0  0  0  0  0  0  0  0
  139.3040   71.2140  223.5960 C   0  0  0  0  0  0  0  0  0  0  0  0
  140.3480   71.8880  224.1940 C   0  0  0  0  0  0  0  0  0  0  0  0
  140.9540   71.3340  225.3270 C   0  0  0  0  0  0  0  0  0  0  0  0
  140.5010   70.1270  225.8280 C   0  0  0  0  0  0  0  0  0  0  0  0
  141.0710   69.5370  226.9510 C   0  0  0  0  0  0  0  0  0  0  0  0
  140.5850   68.3240  227.4200 C   0  0  0  0  0  0  0  0  0  0  0  0
  141.1620   67.7680  228.5230 F   0  0  0  0  0  0  0  0  0  0  0  0
  139.5360   67.6630  226.8070 C   0  0  0  0  0  0  0  0  0  0  0  0
  138.9900   68.2730  225.6960 C   0  0  0  0  0  0  0  0  0  0  0  0
  139.4530   69.4810  225.2030 C   0  0  0  0  0  0  0  0  0  0  0  0
  138.8890   70.0360  224.1170 N   0  0  0  0  0  0  0  0  0  0  0  0
  138.9420   73.7730  223.0700 H   0  0  0  0  0  0  0  0  0  0  0  0
  136.9968   73.1929  220.8935 H   0  0  0  0  0  0  0  0  0  0  0  0
  137.6663   74.8189  221.3720 H   0  0  0  0  0  0  0  0  0  0  0  0
  140.5959   74.5775  218.0138 H   0  0  0  0  0  0  0  0  0  0  0  0
  140.9995   75.9588  218.9718 H   0  0  0  0  0  0  0  0  0  0  0  0
  143.1366   74.5381  218.8472 H   0  0  0  0  0  0  0  0  0  0  0  0
  141.1910   72.5910  218.8570 H   0  0  0  0  0  0  0  0  0  0  0  0
  142.8179   73.5512  221.3721 H   0  0  0  0  0  0  0  0  0  0  0  0
  142.8727   75.2925  221.1475 H   0  0  0  0  0  0  0  0  0  0  0  0
  140.6386   73.6580  222.0055 H   0  0  0  0  0  0  0  0  0  0  0  0
  142.2420   76.7040  221.2210 H   0  0  0  0  0  0  0  0  0  0  0  0
  143.2361   78.8117  222.3650 H   0  0  0  0  0  0  0  0  0  0  0  0
  142.7858   80.9870  223.4185 H   0  0  0  0  0  0  0  0  0  0  0  0
  140.4676   81.5827  224.1227 H   0  0  0  0  0  0  0  0  0  0  0  0
  135.1838   79.0980  222.9920 H   0  0  0  0  0  0  0  0  0  0  0  0
  134.7019   80.7638  224.8136 H   0  0  0  0  0  0  0  0  0  0  0  0
  136.5902   81.8864  225.9396 H   0  0  0  0  0  0  0  0  0  0  0  0
  139.1157   77.7563  222.6773 H   0  0  0  0  0  0  0  0  0  0  0  0
  140.6993   72.8473  223.7862 H   0  0  0  0  0  0  0  0  0  0  0  0
  141.7881   71.8568  225.8178 H   0  0  0  0  0  0  0  0  0  0  0  0
  141.9069   70.0314  227.4676 H   0  0  0  0  0  0  0  0  0  0  0  0
  139.1570   66.7020  227.1850 H   0  0  0  0  0  0  0  0  0  0  0  0
  138.1527   67.7792  225.1811 H   0  0  0  0  0  0  0  0  0  0  0  0
  1  2  2  0
  2  3  1  0
  3  4  1  0
  4  5  1  0
  5  6  2  0
  5  7  1  0
  7  8  1  0
  8  9  1  0
  9 10  1  0
  9 11  1  0
 11 12  1  0
 12 13  1  0
 13 14  2  0
 13 15  1  0
 15 16  1  0
 16 17  2  0
 17 18  1  0
 18 19  2  0
 19 20  1  0
 20 21  1  0
 21 22  2  0
 22 23  1  0
 23 24  2  0
 24 25  1  0
 25 26  2  0
 20 27  2  0
  2 28  1  0
 28 29  2  0
 29 30  1  0
 30 31  2  0
 31 32  1  0
 32 33  2  0
 33 34  1  0
 33 35  1  0
 35 36  2  0
 36 37  1  0
 37 38  2  0
 12  7  1  0
 27 16  1  0
 38 28  1  0
 26 21  1  0
 37 31  1  0
  3 39  1  0
  4 40  1  0
  4 41  1  0
  8 42  1  0
  8 43  1  0
  9 44  1  6
 10 45  1  0
 11 46  1  0
 11 47  1  0
 12 48  1  1
 15 49  1  0
 17 50  1  0
 18 51  1  0
 19 52  1  0
 23 53  1  0
 24 54  1  0
 25 55  1  0
 27 56  1  0
 29 57  1  0
 30 58  1  0
 32 59  1  0
 35 60  1  0
 36 61  1  0
M  END
>  <smiles>  (10) 
O=C(NCC(=O)N1C[C@H](O)C[C@H]1C(=O)Nc1cccc(-c2ncccn2)c1)c1ccc2cc(F)ccc2n1

>  <score_type>  (10) 
oracle

>  <origin>  (10) 
autodockgpu

>  <m_score__min__energy>  (10) 
-9.6600000000000001

>  <m_primary>  (10) 
energy

>  <rmsd>  (10) 
3.06900798667527

>  <m_score__min__rmsd>  (10) 
3.06900798667527

>  <meeko>  (10) 
{"free_energy": -9.11, "intermolecular_energy": -11.5, "internal_energy": -2.56, "cluster_size": 9, "cluster_id": 2, "rank_in_cluster": 4}

>  <energy>  (10) 
-8.62

>  <cluster_rmsd>  (10) 
1.93

>  <cluster>  (10) 
2

$$$$

     RDKit          3D

 61 65  0  0  0  0  0  0  0  0999 V2000
  140.1530   73.1750  222.3500 O   0  0  0  0  0  0  0  0  0  0  0  0
  140.4060   71.9320  222.3060 C   0  0  0  0  0  0  0  0  0  0  0  0
  140.8850   71.3100  221.1200 N   0  0  0  0  0  0  0  0  0  0  0  0
  141.0970   72.0920  219.9220 C   0  0  0  0  0  0  0  0  0  0  0  0
  142.3720   71.7890  219.2580 C   0  0  0  0  0  0  0  0  0  0  0  0
  142.5610   70.7350  218.5970 O   0  0  0  0  0  0  0  0  0  0  0  0
  143.4270   72.7340  219.3750 N   0  0  0  0  0  0  0  0  0  0  0  0
  144.4410   73.0860  218.3690 C   0  0  0  0  0  0  0  0  0  0  0  0
  145.6820   73.0520  219.2360 C   0  0  2  0  0  0  0  0  0  0  0  0
  145.9720   71.7200  219.5660 O   0  0  0  0  0  0  0  0  0  0  0  0
  145.2290   73.8300  220.4530 C   0  0  0  0  0  0  0  0  0  0  0  0
  143.7530   73.5730  220.5150 C   0  0  1  0  0  0  0  0  0  0  0  0
  142.9640   74.8400  220.4860 C   0  0  0  0  0  0  0  0  0  0  0  0
  143.4900   75.8150  219.9090 O   0  0  0  0  0  0  0  0  0  0  0  0
  141.6850   74.8910  221.0930 N   0  0  0  0  0  0  0  0  0  0  0  0
  140.8370   76.0070  221.1430 C   0  0  0  0  0  0  0  0  0  0  0  0
  139.5580   76.0800  220.6540 C   0  0  0  0  0  0  0  0  0  0  0  0
  138.7730   77.2220  220.7400 C   0  0  0  0  0  0  0  0  0  0  0  0
  139.2660   78.3540  221.3360 C   0  0  0  0  0  0  0  0  0  0  0  0
  140.5520   78.2930  221.8320 C   0  0  0  0  0  0  0  0  0  0  0  0
  141.1190   79.4690  222.4750 C   0  0  0  0  0  0  0  0  0  0  0  0
  142.0440   79.3410  223.4490 N   0  0  0  0  0  0  0  0  0  0  0  0
  142.6140   80.3730  224.0900 C   0  0  0  0  0  0  0  0  0  0  0  0
  142.2210   81.6470  223.7200 C   0  0  0  0  0  0  0  0  0  0  0  0
  141.2790   81.7880  222.7280 C   0  0  0  0  0  0  0  0  0  0  0  0
  140.7260   80.7200  222.1040 N   0  0  0  0  0  0  0  0  0  0  0  0
  141.3270   77.1590  221.7450 C   0  0  0  0  0  0  0  0  0  0  0  0
  140.2020   71.1060  223.5050 C   0  0  0  0  0  0  0  0  0  0  0  0
  139.5280   69.9060  223.4130 C   0  0  0  0  0  0  0  0  0  0  0  0
  139.3480   69.1370  224.5690 C   0  0  0  0  0  0  0  0  0  0  0  0
  139.8440   69.5890  225.7780 C   0  0  0  0  0  0  0  0  0  0  0  0
  139.6910   68.8610  226.9530 C   0  0  0  0  0  0  0  0  0  0  0  0
  140.2040   69.3510  228.1460 C   0  0  0  0  0  0  0  0  0  0  0  0
  140.0400   68.6170  229.2840 F   0  0  0  0  0  0  0  0  0  0  0  0
  140.8780   70.5570  228.2180 C   0  0  0  0  0  0  0  0  0  0  0  0
  141.0160   71.2560  227.0370 C   0  0  0  0  0  0  0  0  0  0  0  0
  140.5140   70.7950  225.8320 C   0  0  0  0  0  0  0  0  0  0  0  0
  140.6730   71.5120  224.7070 N   0  0  0  0  0  0  0  0  0  0  0  0
  141.0730   70.2690  221.1600 H   0  0  0  0  0  0  0  0  0  0  0  0
  140.2772   71.8849  219.2184 H   0  0  0  0  0  0  0  0  0  0  0  0
  141.1241   73.1505  220.2200 H   0  0  0  0  0  0  0  0  0  0  0  0
  144.4877   72.3447  217.5577 H   0  0  0  0  0  0  0  0  0  0  0  0
  144.2657   74.0357  217.8424 H   0  0  0  0  0  0  0  0  0  0  0  0
  146.5902   73.4635  218.7713 H   0  0  0  0  0  0  0  0  0  0  0  0
  145.6600   71.5350  220.4910 H   0  0  0  0  0  0  0  0  0  0  0  0
  145.7290   73.4623  221.3612 H   0  0  0  0  0  0  0  0  0  0  0  0
  145.4712   74.9010  220.3868 H   0  0  0  0  0  0  0  0  0  0  0  0
  143.4938   73.0774  221.4622 H   0  0  0  0  0  0  0  0  0  0  0  0
  141.3650   73.9940  221.5440 H   0  0  0  0  0  0  0  0  0  0  0  0
  139.1325   75.1890  220.1692 H   0  0  0  0  0  0  0  0  0  0  0  0
  137.7527   77.2185  220.3288 H   0  0  0  0  0  0  0  0  0  0  0  0
  138.6628   79.2705  221.4152 H   0  0  0  0  0  0  0  0  0  0  0  0
  143.3641   80.2124  224.8784 H   0  0  0  0  0  0  0  0  0  0  0  0
  142.6542   82.5312  224.2105 H   0  0  0  0  0  0  0  0  0  0  0  0
  140.9646   82.7997  222.4318 H   0  0  0  0  0  0  0  0  0  0  0  0
  142.3468   77.1650  222.1572 H   0  0  0  0  0  0  0  0  0  0  0  0
  139.1375   69.5582  222.4452 H   0  0  0  0  0  0  0  0  0  0  0  0
  138.8140   68.1768  224.5157 H   0  0  0  0  0  0  0  0  0  0  0  0
  139.1630   67.8961  226.9369 H   0  0  0  0  0  0  0  0  0  0  0  0
  141.2826   70.9384  229.1672 H   0  0  0  0  0  0  0  0  0  0  0  0
  141.5468   72.2193  227.0533 H   0  0  0  0  0  0  0  0  0  0  0  0
  1  2  2  0
  2  3  1  0
  3  4  1  0
  4  5  1  0
  5  6  2  0
  5  7  1  0
  7  8  1  0
  8  9  1  0
  9 10  1  0
  9 11  1  0
 11 12  1  0
 12 13  1  0
 13 14  2  0
 13 15  1  0
 15 16  1  0
 16 17  2  0
 17 18  1  0
 18 19  2  0
 19 20  1  0
 20 21  1  0
 21 22  2  0
 22 23  1  0
 23 24  2  0
 24 25  1  0
 25 26  2  0
 20 27  2  0
  2 28  1  0
 28 29  2  0
 29 30  1  0
 30 31  2  0
 31 32  1  0
 32 33  2  0
 33 34  1  0
 33 35  1  0
 35 36  2  0
 36 37  1  0
 37 38  2  0
 12  7  1  0
 27 16  1  0
 38 28  1  0
 26 21  1  0
 37 31  1  0
  3 39  1  0
  4 40  1  0
  4 41  1  0
  8 42  1  0
  8 43  1  0
  9 44  1  6
 10 45  1  0
 11 46  1  0
 11 47  1  0
 12 48  1  1
 15 49  1  0
 17 50  1  0
 18 51  1  0
 19 52  1  0
 23 53  1  0
 24 54  1  0
 25 55  1  0
 27 56  1  0
 29 57  1  0
 30 58  1  0
 32 59  1  0
 35 60  1  0
 36 61  1  0
M  END
>  <smiles>  (11) 
O=C(NCC(=O)N1C[C@H](O)C[C@H]1C(=O)Nc1cccc(-c2ncccn2)c1)c1ccc2cc(F)ccc2n1

>  <score_type>  (11) 
oracle

>  <origin>  (11) 
autodockgpu

>  <m_score__min__energy>  (11) 
-9.6600000000000001

>  <m_primary>  (11) 
energy

>  <rmsd>  (11) 
3.8845970940456973

>  <m_score__min__rmsd>  (11) 
3.8845970940456973

>  <meeko>  (11) 
{"free_energy": -9.66, "intermolecular_energy": -12.05, "internal_energy": -2.63, "cluster_size": 2, "cluster_id": 1, "rank_in_cluster": 1}

>  <energy>  (11) 
-8.52

>  <cluster_rmsd>  (11) 
1.1

>  <cluster>  (11) 
2

$$$$

     RDKit          3D

 61 65  0  0  0  0  0  0  0  0999 V2000
  141.4000   75.0320  221.9410 O   0  0  0  0  0  0  0  0  0  0  0  0
  141.1800   76.1930  221.4790 C   0  0  0  0  0  0  0  0  0  0  0  0
  142.0080   76.7680  220.4760 N   0  0  0  0  0  0  0  0  0  0  0  0
  143.1370   76.0300  219.9540 C   0  0  0  0  0  0  0  0  0  0  0  0
  142.7580   74.7260  219.3920 C   0  0  0  0  0  0  0  0  0  0  0  0
  141.8700   74.5970  218.5100 O   0  0  0  0  0  0  0  0  0  0  0  0
  143.4310   73.5700  219.8750 N   0  0  0  0  0  0  0  0  0  0  0  0
  144.5340   73.5060  220.8460 C   0  0  0  0  0  0  0  0  0  0  0  0
  145.4540   72.5460  220.1220 C   0  0  2  0  0  0  0  0  0  0  0  0
  146.0100   73.1960  219.0110 O   0  0  0  0  0  0  0  0  0  0  0  0
  144.4910   71.4590  219.6950 C   0  0  0  0  0  0  0  0  0  0  0  0
  143.1870   72.1810  219.5230 C   0  0  1  0  0  0  0  0  0  0  0  0
  142.1090   71.5980  220.3750 C   0  0  0  0  0  0  0  0  0  0  0  0
  141.8600   70.3850  220.2090 O   0  0  0  0  0  0  0  0  0  0  0  0
  141.4290   72.4120  221.3130 N   0  0  0  0  0  0  0  0  0  0  0  0
  140.4010   72.0010  222.1730 C   0  0  0  0  0  0  0  0  0  0  0  0
  139.0690   71.9040  221.8630 C   0  0  0  0  0  0  0  0  0  0  0  0
  138.1030   71.4870  222.7670 C   0  0  0  0  0  0  0  0  0  0  0  0
  138.4590   71.1460  224.0480 C   0  0  0  0  0  0  0  0  0  0  0  0
  139.7960   71.2390  224.3730 C   0  0  0  0  0  0  0  0  0  0  0  0
  140.2230   70.8870  225.7180 C   0  0  0  0  0  0  0  0  0  0  0  0
  140.6280   71.8410  226.5830 N   0  0  0  0  0  0  0  0  0  0  0  0
  141.0370   71.6000  227.8380 C   0  0  0  0  0  0  0  0  0  0  0  0
  141.0380   70.2830  228.2640 C   0  0  0  0  0  0  0  0  0  0  0  0
  140.6270   69.3030  227.3900 C   0  0  0  0  0  0  0  0  0  0  0  0
  140.2220   69.5880  226.1290 N   0  0  0  0  0  0  0  0  0  0  0  0
  140.7510   71.6540  223.4720 C   0  0  0  0  0  0  0  0  0  0  0  0
  140.0410   76.9730  221.9870 C   0  0  0  0  0  0  0  0  0  0  0  0
  138.7540   76.4990  221.8360 C   0  0  0  0  0  0  0  0  0  0  0  0
  137.6870   77.2590  222.3280 C   0  0  0  0  0  0  0  0  0  0  0  0
  137.9360   78.4660  222.9550 C   0  0  0  0  0  0  0  0  0  0  0  0
  136.9100   79.2570  223.4610 C   0  0  0  0  0  0  0  0  0  0  0  0
  137.2040   80.4620  224.0820 C   0  0  0  0  0  0  0  0  0  0  0  0
  136.1780   81.2180  224.5700 F   0  0  0  0  0  0  0  0  0  0  0  0
  138.5000   80.9210  224.2250 C   0  0  0  0  0  0  0  0  0  0  0  0
  139.4980   80.1160  223.7150 C   0  0  0  0  0  0  0  0  0  0  0  0
  139.2370   78.9090  223.0890 C   0  0  0  0  0  0  0  0  0  0  0  0
  140.2420   78.1580  222.6070 N   0  0  0  0  0  0  0  0  0  0  0  0
  141.7610   77.7410  220.1410 H   0  0  0  0  0  0  0  0  0  0  0  0
  143.6118   76.6285  219.1626 H   0  0  0  0  0  0  0  0  0  0  0  0
  143.8236   75.8409  220.7923 H   0  0  0  0  0  0  0  0  0  0  0  0
  145.0043   74.4888  220.9972 H   0  0  0  0  0  0  0  0  0  0  0  0
  144.2444   73.1986  221.8617 H   0  0  0  0  0  0  0  0  0  0  0  0
  146.2987   72.1676  220.7164 H   0  0  0  0  0  0  0  0  0  0  0  0
  145.8660   74.1750  219.0970 H   0  0  0  0  0  0  0  0  0  0  0  0
  144.8127   71.0007  218.7482 H   0  0  0  0  0  0  0  0  0  0  0  0
  144.4285   70.6369  220.4232 H   0  0  0  0  0  0  0  0  0  0  0  0
  142.8349   72.0872  218.4851 H   0  0  0  0  0  0  0  0  0  0  0  0
  141.7420   73.4180  221.3460 H   0  0  0  0  0  0  0  0  0  0  0  0
  138.7498   72.1707  220.8447 H   0  0  0  0  0  0  0  0  0  0  0  0
  137.0493   71.4295  222.4565 H   0  0  0  0  0  0  0  0  0  0  0  0
  137.7111   70.8133  224.7828 H   0  0  0  0  0  0  0  0  0  0  0  0
  141.3586   72.4162  228.5016 H   0  0  0  0  0  0  0  0  0  0  0  0
  141.3616   70.0245  229.2831 H   0  0  0  0  0  0  0  0  0  0  0  0
  140.6273   68.2555  227.7256 H   0  0  0  0  0  0  0  0  0  0  0  0
  141.8041   71.7115  223.7846 H   0  0  0  0  0  0  0  0  0  0  0  0
  138.5693   75.5369  221.3357 H   0  0  0  0  0  0  0  0  0  0  0  0
  136.6541   76.8976  222.2164 H   0  0  0  0  0  0  0  0  0  0  0  0
  135.8648   78.9268  223.3687 H   0  0  0  0  0  0  0  0  0  0  0  0
  138.7240   81.8778  224.7194 H   0  0  0  0  0  0  0  0  0  0  0  0
  140.5429   80.4465  223.8096 H   0  0  0  0  0  0  0  0  0  0  0  0
  1  2  2  0
  2  3  1  0
  3  4  1  0
  4  5  1  0
  5  6  2  0
  5  7  1  0
  7  8  1  0
  8  9  1  0
  9 10  1  0
  9 11  1  0
 11 12  1  0
 12 13  1  0
 13 14  2  0
 13 15  1  0
 15 16  1  0
 16 17  2  0
 17 18  1  0
 18 19  2  0
 19 20  1  0
 20 21  1  0
 21 22  2  0
 22 23  1  0
 23 24  2  0
 24 25  1  0
 25 26  2  0
 20 27  2  0
  2 28  1  0
 28 29  2  0
 29 30  1  0
 30 31  2  0
 31 32  1  0
 32 33  2  0
 33 34  1  0
 33 35  1  0
 35 36  2  0
 36 37  1  0
 37 38  2  0
 12  7  1  0
 27 16  1  0
 38 28  1  0
 26 21  1  0
 37 31  1  0
  3 39  1  0
  4 40  1  0
  4 41  1  0
  8 42  1  0
  8 43  1  0
  9 44  1  1
 10 45  1  0
 11 46  1  0
 11 47  1  0
 12 48  1  6
 15 49  1  0
 17 50  1  0
 18 51  1  0
 19 52  1  0
 23 53  1  0
 24 54  1  0
 25 55  1  0
 27 56  1  0
 29 57  1  0
 30 58  1  0
 32 59  1  0
 35 60  1  0
 36 61  1  0
M  END
>  <smiles>  (12) 
O=C(NCC(=O)N1C[C@H](O)C[C@H]1C(=O)Nc1cccc(-c2ncccn2)c1)c1ccc2cc(F)ccc2n1

>  <score_type>  (12) 
oracle

>  <origin>  (12) 
autodockgpu

>  <m_score__min__energy>  (12) 
-9.6600000000000001

>  <m_primary>  (12) 
energy

>  <rmsd>  (12) 
8.560280044844529

>  <m_score__min__rmsd>  (12) 
8.560280044844529

>  <meeko>  (12) 
{"free_energy": -8.91, "intermolecular_energy": -11.3, "internal_energy": -3.06, "cluster_size": 5, "cluster_id": 5, "rank_in_cluster": 3}

>  <energy>  (12) 
-9.36

>  <cluster_rmsd>  (12) 
0.0

>  <cluster>  (12) 
3

$$$$

     RDKit          3D

 61 65  0  0  0  0  0  0  0  0999 V2000
  138.5910   70.5640  221.6320 O   0  0  0  0  0  0  0  0  0  0  0  0
  138.4340   71.0000  222.8130 C   0  0  0  0  0  0  0  0  0  0  0  0
  137.7830   72.2380  223.0720 N   0  0  0  0  0  0  0  0  0  0  0  0
  137.2790   73.0380  221.9770 C   0  0  0  0  0  0  0  0  0  0  0  0
  137.9930   74.3130  221.8240 C   0  0  0  0  0  0  0  0  0  0  0  0
  137.6360   75.3680  222.4110 O   0  0  0  0  0  0  0  0  0  0  0  0
  139.1330   74.3430  220.9740 N   0  0  0  0  0  0  0  0  0  0  0  0
  139.1650   74.2900  219.5040 C   0  0  0  0  0  0  0  0  0  0  0  0
  140.2580   73.2600  219.3110 C   0  0  2  0  0  0  0  0  0  0  0  0
  139.7720   72.0010  219.6910 O   0  0  0  0  0  0  0  0  0  0  0  0
  141.3170   73.7500  220.2760 C   0  0  0  0  0  0  0  0  0  0  0  0
  140.5310   74.4320  221.3570 C   0  0  1  0  0  0  0  0  0  0  0  0
  140.9450   75.8540  221.5360 C   0  0  0  0  0  0  0  0  0  0  0  0
  141.8710   76.2640  220.8050 O   0  0  0  0  0  0  0  0  0  0  0  0
  140.2930   76.6650  222.4960 N   0  0  0  0  0  0  0  0  0  0  0  0
  140.5750   78.0110  222.7710 C   0  0  0  0  0  0  0  0  0  0  0  0
  141.8000   78.6210  222.6800 C   0  0  0  0  0  0  0  0  0  0  0  0
  142.0080   79.9630  222.9670 C   0  0  0  0  0  0  0  0  0  0  0  0
  140.9590   80.7520  223.3670 C   0  0  0  0  0  0  0  0  0  0  0  0
  139.7220   80.1510  223.4620 C   0  0  0  0  0  0  0  0  0  0  0  0
  138.5780   80.9470  223.8810 C   0  0  0  0  0  0  0  0  0  0  0  0
  138.0440   80.7900  225.1090 N   0  0  0  0  0  0  0  0  0  0  0  0
  136.9910   81.4840  225.5710 C   0  0  0  0  0  0  0  0  0  0  0  0
  136.4260   82.4190  224.7230 C   0  0  0  0  0  0  0  0  0  0  0  0
  136.9630   82.5860  223.4680 C   0  0  0  0  0  0  0  0  0  0  0  0
  138.0270   81.8660  223.0390 N   0  0  0  0  0  0  0  0  0  0  0  0
  139.5200   78.8190  223.1760 C   0  0  0  0  0  0  0  0  0  0  0  0
  138.9340   70.2130  223.9500 C   0  0  0  0  0  0  0  0  0  0  0  0
  138.8120   68.8390  223.9490 C   0  0  0  0  0  0  0  0  0  0  0  0
  139.2960   68.1130  225.0430 C   0  0  0  0  0  0  0  0  0  0  0  0
  139.8850   68.7780  226.1030 C   0  0  0  0  0  0  0  0  0  0  0  0
  140.3810   68.1000  227.2110 C   0  0  0  0  0  0  0  0  0  0  0  0
  140.9660   68.8070  228.2530 C   0  0  0  0  0  0  0  0  0  0  0  0
  141.4440   68.1180  229.3290 F   0  0  0  0  0  0  0  0  0  0  0  0
  141.0800   70.1850  228.2370 C   0  0  0  0  0  0  0  0  0  0  0  0
  140.5790   70.8310  227.1240 C   0  0  0  0  0  0  0  0  0  0  0  0
  139.9910   70.1540  226.0690 C   0  0  0  0  0  0  0  0  0  0  0  0
  139.5180   70.8260  225.0060 N   0  0  0  0  0  0  0  0  0  0  0  0
  137.6910   72.5350  224.0830 H   0  0  0  0  0  0  0  0  0  0  0  0
  137.3838   72.4631  221.0451 H   0  0  0  0  0  0  0  0  0  0  0  0
  136.2272   73.2732  222.1970 H   0  0  0  0  0  0  0  0  0  0  0  0
  138.2054   73.9526  219.0852 H   0  0  0  0  0  0  0  0  0  0  0  0
  139.3398   75.2550  219.0058 H   0  0  0  0  0  0  0  0  0  0  0  0
  140.6255   73.1546  218.2796 H   0  0  0  0  0  0  0  0  0  0  0  0
  139.3440   72.0690  220.5850 H   0  0  0  0  0  0  0  0  0  0  0  0
  141.8947   72.9076  220.6841 H   0  0  0  0  0  0  0  0  0  0  0  0
  142.0502   74.4170  219.7990 H   0  0  0  0  0  0  0  0  0  0  0  0
  140.7117   73.9420  222.3251 H   0  0  0  0  0  0  0  0  0  0  0  0
  139.5280   76.1890  223.0430 H   0  0  0  0  0  0  0  0  0  0  0  0
  142.6620   78.0156  222.3633 H   0  0  0  0  0  0  0  0  0  0  0  0
  143.0154   80.3947  222.8736 H   0  0  0  0  0  0  0  0  0  0  0  0
  141.0990   81.8175  223.6016 H   0  0  0  0  0  0  0  0  0  0  0  0
  136.5940   81.3155  226.5829 H   0  0  0  0  0  0  0  0  0  0  0  0
  135.5624   83.0185  225.0466 H   0  0  0  0  0  0  0  0  0  0  0  0
  136.5142   83.3279  222.7911 H   0  0  0  0  0  0  0  0  0  0  0  0
  138.5115   78.3899  223.2693 H   0  0  0  0  0  0  0  0  0  0  0  0
  138.3410   68.3214  223.1004 H   0  0  0  0  0  0  0  0  0  0  0  0
  139.2083   67.0166  225.0598 H   0  0  0  0  0  0  0  0  0  0  0  0
  140.3099   67.0035  227.2620 H   0  0  0  0  0  0  0  0  0  0  0  0
  141.5451   70.7373  229.0668 H   0  0  0  0  0  0  0  0  0  0  0  0
  140.6499   71.9276  227.0736 H   0  0  0  0  0  0  0  0  0  0  0  0
  1  2  2  0
  2  3  1  0
  3  4  1  0
  4  5  1  0
  5  6  2  0
  5  7  1  0
  7  8  1  0
  8  9  1  0
  9 10  1  0
  9 11  1  0
 11 12  1  0
 12 13  1  0
 13 14  2  0
 13 15  1  0
 15 16  1  0
 16 17  2  0
 17 18  1  0
 18 19  2  0
 19 20  1  0
 20 21  1  0
 21 22  2  0
 22 23  1  0
 23 24  2  0
 24 25  1  0
 25 26  2  0
 20 27  2  0
  2 28  1  0
 28 29  2  0
 29 30  1  0
 30 31  2  0
 31 32  1  0
 32 33  2  0
 33 34  1  0
 33 35  1  0
 35 36  2  0
 36 37  1  0
 37 38  2  0
 12  7  1  0
 27 16  1  0
 38 28  1  0
 26 21  1  0
 37 31  1  0
  3 39  1  0
  4 40  1  0
  4 41  1  0
  8 42  1  0
  8 43  1  0
  9 44  1  6
 10 45  1  0
 11 46  1  0
 11 47  1  0
 12 48  1  1
 15 49  1  0
 17 50  1  0
 18 51  1  0
 19 52  1  0
 23 53  1  0
 24 54  1  0
 25 55  1  0
 27 56  1  0
 29 57  1  0
 30 58  1  0
 32 59  1  0
 35 60  1  0
 36 61  1  0
M  END
>  <smiles>  (13) 
O=C(NCC(=O)N1C[C@H](O)C[C@H]1C(=O)Nc1cccc(-c2ncccn2)c1)c1ccc2cc(F)ccc2n1

>  <score_type>  (13) 
oracle

>  <origin>  (13) 
autodockgpu

>  <m_score__min__energy>  (13) 
-9.6600000000000001

>  <m_primary>  (13) 
energy

>  <rmsd>  (13) 
2.420313407456978

>  <m_score__min__rmsd>  (13) 
2.420313407456978

>  <meeko>  (13) 
{"free_energy": -8.52, "intermolecular_energy": -10.9, "internal_energy": -3.36, "cluster_size": 9, "cluster_id": 2, "rank_in_cluster": 9}

>  <energy>  (13) 
-9.32

>  <cluster_rmsd>  (13) 
0.11

>  <cluster>  (13) 
3

$$$$

     RDKit          3D

 61 65  0  0  0  0  0  0  0  0999 V2000
  140.6460   73.0790  222.3150 O   0  0  0  0  0  0  0  0  0  0  0  0
  140.6280   73.9880  221.4290 C   0  0  0  0  0  0  0  0  0  0  0  0
  141.0130   73.7270  220.0850 N   0  0  0  0  0  0  0  0  0  0  0  0
  141.4400   72.4020  219.6940 C   0  0  0  0  0  0  0  0  0  0  0  0
  142.7960   72.0770  220.1580 C   0  0  0  0  0  0  0  0  0  0  0  0
  143.0870   70.9760  220.6940 O   0  0  0  0  0  0  0  0  0  0  0  0
  143.8120   73.0570  219.9880 N   0  0  0  0  0  0  0  0  0  0  0  0
  145.0720   72.9310  219.2390 C   0  0  0  0  0  0  0  0  0  0  0  0
  146.0300   73.5220  220.2530 C   0  0  2  0  0  0  0  0  0  0  0  0
  146.1740   72.6250  221.3210 O   0  0  0  0  0  0  0  0  0  0  0  0
  145.2920   74.7720  220.6830 C   0  0  0  0  0  0  0  0  0  0  0  0
  143.8450   74.4110  220.5130 C   0  0  1  0  0  0  0  0  0  0  0  0
  143.1380   75.3540  219.5990 C   0  0  0  0  0  0  0  0  0  0  0  0
  142.9830   74.9790  218.4180 O   0  0  0  0  0  0  0  0  0  0  0  0
  142.6800   76.6020  220.0870 N   0  0  0  0  0  0  0  0  0  0  0  0
  142.0040   77.5830  219.3450 C   0  0  0  0  0  0  0  0  0  0  0  0
  141.5850   77.4750  218.0430 C   0  0  0  0  0  0  0  0  0  0  0  0
  140.9180   78.4880  217.3700 C   0  0  0  0  0  0  0  0  0  0  0  0
  140.6460   79.6740  218.0040 C   0  0  0  0  0  0  0  0  0  0  0  0
  141.0630   79.7950  219.3140 C   0  0  0  0  0  0  0  0  0  0  0  0
  140.7970   81.0340  220.0290 C   0  0  0  0  0  0  0  0  0  0  0  0
  139.6260   81.6850  219.8640 N   0  0  0  0  0  0  0  0  0  0  0  0
  139.3030   82.8310  220.4850 C   0  0  0  0  0  0  0  0  0  0  0  0
  140.2400   83.3700  221.3490 C   0  0  0  0  0  0  0  0  0  0  0  0
  141.4360   82.7140  221.5240 C   0  0  0  0  0  0  0  0  0  0  0  0
  141.7240   81.5590  220.8780 N   0  0  0  0  0  0  0  0  0  0  0  0
  141.7240   78.7870  219.9780 C   0  0  0  0  0  0  0  0  0  0  0  0
  140.1990   75.3470  221.7900 C   0  0  0  0  0  0  0  0  0  0  0  0
  138.8990   75.7470  221.5630 C   0  0  0  0  0  0  0  0  0  0  0  0
  138.5160   77.0460  221.9170 C   0  0  0  0  0  0  0  0  0  0  0  0
  139.4390   77.9040  222.4850 C   0  0  0  0  0  0  0  0  0  0  0  0
  139.1060   79.2030  222.8530 C   0  0  0  0  0  0  0  0  0  0  0  0
  140.0650   80.0320  223.4200 C   0  0  0  0  0  0  0  0  0  0  0  0
  139.7110   81.3010  223.7720 F   0  0  0  0  0  0  0  0  0  0  0  0
  141.3640   79.6130  223.6410 C   0  0  0  0  0  0  0  0  0  0  0  0
  141.6660   78.3200  223.2660 C   0  0  0  0  0  0  0  0  0  0  0  0
  140.7330   77.4690  222.6980 C   0  0  0  0  0  0  0  0  0  0  0  0
  141.0730   76.2170  222.3490 N   0  0  0  0  0  0  0  0  0  0  0  0
  140.9720   74.5360  219.4030 H   0  0  0  0  0  0  0  0  0  0  0  0
  140.7388   71.6681  220.1180 H   0  0  0  0  0  0  0  0  0  0  0  0
  141.4513   72.3703  218.5945 H   0  0  0  0  0  0  0  0  0  0  0  0
  145.3110   71.8814  219.0127 H   0  0  0  0  0  0  0  0  0  0  0  0
  145.0789   73.4165  218.2520 H   0  0  0  0  0  0  0  0  0  0  0  0
  147.0438   73.7255  219.8778 H   0  0  0  0  0  0  0  0  0  0  0  0
  145.4370   71.9600  221.2930 H   0  0  0  0  0  0  0  0  0  0  0  0
  145.5140   75.0166  221.7322 H   0  0  0  0  0  0  0  0  0  0  0  0
  145.5805   75.6581  220.0985 H   0  0  0  0  0  0  0  0  0  0  0  0
  143.3213   74.4775  221.4780 H   0  0  0  0  0  0  0  0  0  0  0  0
  142.8790   76.7890  221.1040 H   0  0  0  0  0  0  0  0  0  0  0  0
  141.7884   76.5371  217.5054 H   0  0  0  0  0  0  0  0  0  0  0  0
  140.6064   78.3401  216.3255 H   0  0  0  0  0  0  0  0  0  0  0  0
  140.1190   80.4920  217.4910 H   0  0  0  0  0  0  0  0  0  0  0  0
  138.3333   83.3212  220.3139 H   0  0  0  0  0  0  0  0  0  0  0  0
  140.0318   84.3069  221.8865 H   0  0  0  0  0  0  0  0  0  0  0  0
  142.1822   83.1408  222.2103 H   0  0  0  0  0  0  0  0  0  0  0  0
  142.0343   78.9367  221.0226 H   0  0  0  0  0  0  0  0  0  0  0  0
  138.1734   75.0552  221.1103 H   0  0  0  0  0  0  0  0  0  0  0  0
  137.4834   77.3831  221.7437 H   0  0  0  0  0  0  0  0  0  0  0  0
  138.0826   79.5740  222.6949 H   0  0  0  0  0  0  0  0  0  0  0  0
  142.1172   80.2757  224.0921 H   0  0  0  0  0  0  0  0  0  0  0  0
  142.6897   77.9501  223.4247 H   0  0  0  0  0  0  0  0  0  0  0  0
  1  2  2  0
  2  3  1  0
  3  4  1  0
  4  5  1  0
  5  6  2  0
  5  7  1  0
  7  8  1  0
  8  9  1  0
  9 10  1  0
  9 11  1  0
 11 12  1  0
 12 13  1  0
 13 14  2  0
 13 15  1  0
 15 16  1  0
 16 17  2  0
 17 18  1  0
 18 19  2  0
 19 20  1  0
 20 21  1  0
 21 22  2  0
 22 23  1  0
 23 24  2  0
 24 25  1  0
 25 26  2  0
 20 27  2  0
  2 28  1  0
 28 29  2  0
 29 30  1  0
 30 31  2  0
 31 32  1  0
 32 33  2  0
 33 34  1  0
 33 35  1  0
 35 36  2  0
 36 37  1  0
 37 38  2  0
 12  7  1  0
 27 16  1  0
 38 28  1  0
 26 21  1  0
 37 31  1  0
  3 39  1  0
  4 40  1  0
  4 41  1  0
  8 42  1  0
  8 43  1  0
  9 44  1  6
 10 45  1  0
 11 46  1  0
 11 47  1  0
 12 48  1  1
 15 49  1  0
 17 50  1  0
 18 51  1  0
 19 52  1  0
 23 53  1  0
 24 54  1  0
 25 55  1  0
 27 56  1  0
 29 57  1  0
 30 58  1  0
 32 59  1  0
 35 60  1  0
 36 61  1  0
M  END
>  <smiles>  (14) 
O=C(NCC(=O)N1C[C@H](O)C[C@H]1C(=O)Nc1cccc(-c2ncccn2)c1)c1ccc2cc(F)ccc2n1

>  <score_type>  (14) 
oracle

>  <origin>  (14) 
autodockgpu

>  <m_score__min__energy>  (14) 
-9.6600000000000001

>  <m_primary>  (14) 
energy

>  <rmsd>  (14) 
6.5224387177089085

>  <m_score__min__rmsd>  (14) 
6.5224387177089085

>  <meeko>  (14) 
{"free_energy": -7.29, "intermolecular_energy": -9.68, "internal_energy": -4.92, "cluster_size": 4, "cluster_id": 12, "rank_in_cluster": 3}

>  <energy>  (14) 
-9.25

>  <cluster_rmsd>  (14) 
1.65

>  <cluster>  (14) 
3

$$$$

     RDKit          3D

 61 65  0  0  0  0  0  0  0  0999 V2000
  138.0600   71.1530  221.0120 O   0  0  0  0  0  0  0  0  0  0  0  0
  138.4360   71.8050  222.0350 C   0  0  0  0  0  0  0  0  0  0  0  0
  138.4180   73.2260  222.0630 N   0  0  0  0  0  0  0  0  0  0  0  0
  137.9630   73.9710  220.9090 C   0  0  0  0  0  0  0  0  0  0  0  0
  138.9080   73.9170  219.7840 C   0  0  0  0  0  0  0  0  0  0  0  0
  138.6070   73.4240  218.6660 O   0  0  0  0  0  0  0  0  0  0  0  0
  140.2120   74.4470  219.9820 N   0  0  0  0  0  0  0  0  0  0  0  0
  141.1050   75.0490  218.9790 C   0  0  0  0  0  0  0  0  0  0  0  0
  142.3960   74.3410  219.3310 C   0  0  2  0  0  0  0  0  0  0  0  0
  142.3000   72.9960  218.9440 O   0  0  0  0  0  0  0  0  0  0  0  0
  142.4210   74.4750  220.8390 C   0  0  0  0  0  0  0  0  0  0  0  0
  140.9700   74.5180  221.2200 C   0  0  1  0  0  0  0  0  0  0  0  0
  140.6290   75.7540  221.9820 C   0  0  0  0  0  0  0  0  0  0  0  0
  139.6280   75.6950  222.7270 O   0  0  0  0  0  0  0  0  0  0  0  0
  141.4280   76.9150  221.8420 N   0  0  0  0  0  0  0  0  0  0  0  0
  141.2270   78.1410  222.4920 C   0  0  0  0  0  0  0  0  0  0  0  0
  142.1950   79.0500  222.8350 C   0  0  0  0  0  0  0  0  0  0  0  0
  141.9230   80.2490  223.4790 C   0  0  0  0  0  0  0  0  0  0  0  0
  140.6320   80.5770  223.8070 C   0  0  0  0  0  0  0  0  0  0  0  0
  139.6480   79.6720  223.4680 C   0  0  0  0  0  0  0  0  0  0  0  0
  138.2630   79.9760  223.7930 C   0  0  0  0  0  0  0  0  0  0  0  0
  137.2540   79.3410  223.1630 N   0  0  0  0  0  0  0  0  0  0  0  0
  135.9520   79.5640  223.4040 C   0  0  0  0  0  0  0  0  0  0  0  0
  135.6370   80.5080  224.3660 C   0  0  0  0  0  0  0  0  0  0  0  0
  136.6590   81.1600  225.0140 C   0  0  0  0  0  0  0  0  0  0  0  0
  137.9620   80.9070  224.7410 N   0  0  0  0  0  0  0  0  0  0  0  0
  139.9230   78.4840  222.8290 C   0  0  0  0  0  0  0  0  0  0  0  0
  138.9040   71.0800  223.2260 C   0  0  0  0  0  0  0  0  0  0  0  0
  138.6670   69.7270  223.3520 C   0  0  0  0  0  0  0  0  0  0  0  0
  139.1230   69.0610  224.4950 C   0  0  0  0  0  0  0  0  0  0  0  0
  139.8000   69.7620  225.4750 C   0  0  0  0  0  0  0  0  0  0  0  0
  140.2730   69.1450  226.6280 C   0  0  0  0  0  0  0  0  0  0  0  0
  140.9490   69.8870  227.5860 C   0  0  0  0  0  0  0  0  0  0  0  0
  141.4020   69.2560  228.7080 F   0  0  0  0  0  0  0  0  0  0  0  0
  141.1780   71.2430  227.4430 C   0  0  0  0  0  0  0  0  0  0  0  0
  140.6980   71.8290  226.2890 C   0  0  0  0  0  0  0  0  0  0  0  0
  140.0210   71.1160  225.3140 C   0  0  0  0  0  0  0  0  0  0  0  0
  139.5720   71.7310  224.2070 N   0  0  0  0  0  0  0  0  0  0  0  0
  138.7470   73.6980  222.9510 H   0  0  0  0  0  0  0  0  0  0  0  0
  137.0003   73.5535  220.5790 H   0  0  0  0  0  0  0  0  0  0  0  0
  137.8702   75.0244  221.2118 H   0  0  0  0  0  0  0  0  0  0  0  0
  140.7802   74.8225  217.9527 H   0  0  0  0  0  0  0  0  0  0  0  0
  141.1550   76.1477  218.9982 H   0  0  0  0  0  0  0  0  0  0  0  0
  143.2976   74.7422  218.8451 H   0  0  0  0  0  0  0  0  0  0  0  0
  141.3490   72.7730  218.7660 H   0  0  0  0  0  0  0  0  0  0  0  0
  142.9217   73.6112  221.3007 H   0  0  0  0  0  0  0  0  0  0  0  0
  142.9757   75.3625  221.1776 H   0  0  0  0  0  0  0  0  0  0  0  0
  140.7274   73.6768  221.8860 H   0  0  0  0  0  0  0  0  0  0  0  0
  142.2420   76.8240  221.1790 H   0  0  0  0  0  0  0  0  0  0  0  0
  143.2410   78.8168  222.5869 H   0  0  0  0  0  0  0  0  0  0  0  0
  142.7442   80.9376  223.7269 H   0  0  0  0  0  0  0  0  0  0  0  0
  140.3920   81.5209  224.3183 H   0  0  0  0  0  0  0  0  0  0  0  0
  135.1675   79.0185  222.8590 H   0  0  0  0  0  0  0  0  0  0  0  0
  134.5876   80.7325  224.6076 H   0  0  0  0  0  0  0  0  0  0  0  0
  136.4113   81.9111  225.7785 H   0  0  0  0  0  0  0  0  0  0  0  0
  139.1000   77.7973  222.5819 H   0  0  0  0  0  0  0  0  0  0  0  0
  138.1273   69.1795  222.5653 H   0  0  0  0  0  0  0  0  0  0  0  0
  138.9431   67.9823  224.6132 H   0  0  0  0  0  0  0  0  0  0  0  0
  140.1111   68.0677  226.7807 H   0  0  0  0  0  0  0  0  0  0  0  0
  141.7141   71.8239  228.2080 H   0  0  0  0  0  0  0  0  0  0  0  0
  140.8599   72.9065  226.1378 H   0  0  0  0  0  0  0  0  0  0  0  0
  1  2  2  0
  2  3  1  0
  3  4  1  0
  4  5  1  0
  5  6  2  0
  5  7  1  0
  7  8  1  0
  8  9  1  0
  9 10  1  0
  9 11  1  0
 11 12  1  0
 12 13  1  0
 13 14  2  0
 13 15  1  0
 15 16  1  0
 16 17  2  0
 17 18  1  0
 18 19  2  0
 19 20  1  0
 20 21  1  0
 21 22  2  0
 22 23  1  0
 23 24  2  0
 24 25  1  0
 25 26  2  0
 20 27  2  0
  2 28  1  0
 28 29  2  0
 29 30  1  0
 30 31  2  0
 31 32  1  0
 32 33  2  0
 33 34  1  0
 33 35  1  0
 35 36  2  0
 36 37  1  0
 37 38  2  0
 12  7  1  0
 27 16  1  0
 38 28  1  0
 26 21  1  0
 37 31  1  0
  3 39  1  0
  4 40  1  0
  4 41  1  0
  8 42  1  0
  8 43  1  0
  9 44  1  6
 10 45  1  0
 11 46  1  0
 11 47  1  0
 12 48  1  1
 15 49  1  0
 17 50  1  0
 18 51  1  0
 19 52  1  0
 23 53  1  0
 24 54  1  0
 25 55  1  0
 27 56  1  0
 29 57  1  0
 30 58  1  0
 32 59  1  0
 35 60  1  0
 36 61  1  0
M  END
>  <smiles>  (15) 
O=C(NCC(=O)N1C[C@H](O)C[C@H]1C(=O)Nc1cccc(-c2ncccn2)c1)c1ccc2cc(F)ccc2n1

>  <score_type>  (15) 
oracle

>  <origin>  (15) 
autodockgpu

>  <m_score__min__energy>  (15) 
-9.6600000000000001

>  <m_primary>  (15) 
energy

>  <rmsd>  (15) 
2.505607706063701

>  <m_score__min__rmsd>  (15) 
2.505607706063701

>  <meeko>  (15) 
{"free_energy": -8.77, "intermolecular_energy": -11.16, "internal_energy": -2.96, "cluster_size": 9, "cluster_id": 2, "rank_in_cluster": 6}

>  <energy>  (15) 
-9.24

>  <cluster_rmsd>  (15) 
0.23

>  <cluster>  (15) 
3

$$$$

     RDKit          3D

 61 65  0  0  0  0  0  0  0  0999 V2000
  141.5600   74.9400  221.6370 O   0  0  0  0  0  0  0  0  0  0  0  0
  141.4050   76.1420  221.2590 C   0  0  0  0  0  0  0  0  0  0  0  0
  142.2720   76.7420  220.3050 N   0  0  0  0  0  0  0  0  0  0  0  0
  143.3650   75.9850  219.7360 C   0  0  0  0  0  0  0  0  0  0  0  0
  142.9510   74.6620  219.2460 C   0  0  0  0  0  0  0  0  0  0  0  0
  142.0420   74.5080  218.3900 O   0  0  0  0  0  0  0  0  0  0  0  0
  143.6140   73.5190  219.7700 N   0  0  0  0  0  0  0  0  0  0  0  0
  144.6900   73.4790  220.7730 C   0  0  0  0  0  0  0  0  0  0  0  0
  145.6330   72.5080  220.0940 C   0  0  2  0  0  0  0  0  0  0  0  0
  146.2180   73.1390  218.9870 O   0  0  0  0  0  0  0  0  0  0  0  0
  144.6860   71.4100  219.6600 C   0  0  0  0  0  0  0  0  0  0  0  0
  143.3850   72.1230  219.4390 C   0  0  1  0  0  0  0  0  0  0  0  0
  142.2860   71.5510  220.2710 C   0  0  0  0  0  0  0  0  0  0  0  0
  142.0320   70.3390  220.1080 O   0  0  0  0  0  0  0  0  0  0  0  0
  141.5910   72.3760  221.1890 N   0  0  0  0  0  0  0  0  0  0  0  0
  140.5430   71.9770  222.0300 C   0  0  0  0  0  0  0  0  0  0  0  0
  139.2190   71.8680  221.6870 C   0  0  0  0  0  0  0  0  0  0  0  0
  138.2320   71.4630  222.5740 C   0  0  0  0  0  0  0  0  0  0  0  0
  138.5560   71.1490  223.8690 C   0  0  0  0  0  0  0  0  0  0  0  0
  139.8830   71.2550  224.2270 C   0  0  0  0  0  0  0  0  0  0  0  0
  140.2760   70.9300  225.5900 C   0  0  0  0  0  0  0  0  0  0  0  0
  140.7220   71.8930  226.4240 N   0  0  0  0  0  0  0  0  0  0  0  0
  141.1040   71.6780  227.6930 C   0  0  0  0  0  0  0  0  0  0  0  0
  141.0300   70.3790  228.1660 C   0  0  0  0  0  0  0  0  0  0  0  0
  140.5770   69.3910  227.3240 C   0  0  0  0  0  0  0  0  0  0  0  0
  140.2010   69.6500  226.0480 N   0  0  0  0  0  0  0  0  0  0  0  0
  140.8600   71.6560  223.3440 C   0  0  0  0  0  0  0  0  0  0  0  0
  140.3040   76.9420  221.8160 C   0  0  0  0  0  0  0  0  0  0  0  0
  139.0110   76.4650  221.7750 C   0  0  0  0  0  0  0  0  0  0  0  0
  137.9810   77.2450  222.3130 C   0  0  0  0  0  0  0  0  0  0  0  0
  138.2720   78.4760  222.8720 C   0  0  0  0  0  0  0  0  0  0  0  0
  137.2840   79.2880  223.4190 C   0  0  0  0  0  0  0  0  0  0  0  0
  137.6200   80.5160  223.9710 C   0  0  0  0  0  0  0  0  0  0  0  0
  136.6310   81.2920  224.5000 F   0  0  0  0  0  0  0  0  0  0  0  0
  138.9230   80.9780  224.0030 C   0  0  0  0  0  0  0  0  0  0  0  0
  139.8820   80.1520  223.4540 C   0  0  0  0  0  0  0  0  0  0  0  0
  139.5790   78.9220  222.8960 C   0  0  0  0  0  0  0  0  0  0  0  0
  140.5480   78.1510  222.3730 N   0  0  0  0  0  0  0  0  0  0  0  0
  142.0790   77.7490  220.0400 H   0  0  0  0  0  0  0  0  0  0  0  0
  143.7860   76.5549  218.8946 H   0  0  0  0  0  0  0  0  0  0  0  0
  144.1056   75.8247  220.5333 H   0  0  0  0  0  0  0  0  0  0  0  0
  145.1526   74.4665  220.9173 H   0  0  0  0  0  0  0  0  0  0  0  0
  144.3734   73.1912  221.7864 H   0  0  0  0  0  0  0  0  0  0  0  0
  146.4611   72.1435  220.7196 H   0  0  0  0  0  0  0  0  0  0  0  0
  146.0680   74.1190  219.0490 H   0  0  0  0  0  0  0  0  0  0  0  0
  145.0355   70.9362  218.7308 H   0  0  0  0  0  0  0  0  0  0  0  0
  144.6061   70.6010  220.4010 H   0  0  0  0  0  0  0  0  0  0  0  0
  143.0616   72.0084  218.3939 H   0  0  0  0  0  0  0  0  0  0  0  0
  141.9100   73.3800  221.2230 H   0  0  0  0  0  0  0  0  0  0  0  0
  138.9250   72.1143  220.6560 H   0  0  0  0  0  0  0  0  0  0  0  0
  137.1870   71.3936  222.2377 H   0  0  0  0  0  0  0  0  0  0  0  0
  137.7907   70.8267  224.5904 H   0  0  0  0  0  0  0  0  0  0  0  0
  141.4611   72.5001  228.3306 H   0  0  0  0  0  0  0  0  0  0  0  0
  141.3285   70.1414  229.1977 H   0  0  0  0  0  0  0  0  0  0  0  0
  140.5179   68.3581  227.6977 H   0  0  0  0  0  0  0  0  0  0  0  0
  141.9043   71.7231  223.6829 H   0  0  0  0  0  0  0  0  0  0  0  0
  138.7920   75.4851  221.3257 H   0  0  0  0  0  0  0  0  0  0  0  0
  136.9435   76.8801  222.2913 H   0  0  0  0  0  0  0  0  0  0  0  0
  136.2352   78.9564  223.4140 H   0  0  0  0  0  0  0  0  0  0  0  0
  139.1812   81.9526  224.4430 H   0  0  0  0  0  0  0  0  0  0  0  0
  140.9305   80.4845  223.4599 H   0  0  0  0  0  0  0  0  0  0  0  0
  1  2  2  0
  2  3  1  0
  3  4  1  0
  4  5  1  0
  5  6  2  0
  5  7  1  0
  7  8  1  0
  8  9  1  0
  9 10  1  0
  9 11  1  0
 11 12  1  0
 12 13  1  0
 13 14  2  0
 13 15  1  0
 15 16  1  0
 16 17  2  0
 17 18  1  0
 18 19  2  0
 19 20  1  0
 20 21  1  0
 21 22  2  0
 22 23  1  0
 23 24  2  0
 24 25  1  0
 25 26  2  0
 20 27  2  0
  2 28  1  0
 28 29  2  0
 29 30  1  0
 30 31  2  0
 31 32  1  0
 32 33  2  0
 33 34  1  0
 33 35  1  0
 35 36  2  0
 36 37  1  0
 37 38  2  0
 12  7  1  0
 27 16  1  0
 38 28  1  0
 26 21  1  0
 37 31  1  0
  3 39  1  0
  4 40  1  0
  4 41  1  0
  8 42  1  0
  8 43  1  0
  9 44  1  1
 10 45  1  0
 11 46  1  0
 11 47  1  0
 12 48  1  6
 15 49  1  0
 17 50  1  0
 18 51  1  0
 19 52  1  0
 23 53  1  0
 24 54  1  0
 25 55  1  0
 27 56  1  0
 29 57  1  0
 30 58  1  0
 32 59  1  0
 35 60  1  0
 36 61  1  0
M  END
>  <smiles>  (16) 
O=C(NCC(=O)N1C[C@H](O)C[C@H]1C(=O)Nc1cccc(-c2ncccn2)c1)c1ccc2cc(F)ccc2n1

>  <score_type>  (16) 
oracle

>  <origin>  (16) 
autodockgpu

>  <m_score__min__energy>  (16) 
-9.6600000000000001

>  <m_primary>  (16) 
energy

>  <rmsd>  (16) 
8.592701312099202

>  <m_score__min__rmsd>  (16) 
8.592701312099202

>  <meeko>  (16) 
{"free_energy": -8.98, "intermolecular_energy": -11.37, "internal_energy": -3.03, "cluster_size": 5, "cluster_id": 5, "rank_in_cluster": 1}

>  <energy>  (16) 
-8.75

>  <cluster_rmsd>  (16) 
1.33

>  <cluster>  (16) 
3

$$$$

     RDKit          3D

 61 65  0  0  0  0  0  0  0  0999 V2000
  139.3890   71.6290  220.7210 O   0  0  0  0  0  0  0  0  0  0  0  0
  139.3130   72.1500  221.8760 C   0  0  0  0  0  0  0  0  0  0  0  0
  138.9860   73.5220  222.0570 N   0  0  0  0  0  0  0  0  0  0  0  0
  138.7280   74.3650  220.9100 C   0  0  0  0  0  0  0  0  0  0  0  0
  138.8040   75.7990  221.2260 C   0  0  0  0  0  0  0  0  0  0  0  0
  137.7830   76.5060  221.4290 O   0  0  0  0  0  0  0  0  0  0  0  0
  140.0910   76.3990  221.3000 N   0  0  0  0  0  0  0  0  0  0  0  0
  140.8340   76.7950  222.5060 C   0  0  0  0  0  0  0  0  0  0  0  0
  141.2870   78.1770  222.0820 C   0  0  2  0  0  0  0  0  0  0  0  0
  140.1780   79.0350  222.0640 O   0  0  0  0  0  0  0  0  0  0  0  0
  141.8010   77.9170  220.6820 C   0  0  0  0  0  0  0  0  0  0  0  0
  140.9730   76.7600  220.2040 C   0  0  1  0  0  0  0  0  0  0  0  0
  141.8180   75.6000  219.7950 C   0  0  0  0  0  0  0  0  0  0  0  0
  141.5830   75.1040  218.6740 O   0  0  0  0  0  0  0  0  0  0  0  0
  142.8260   75.1180  220.6650 N   0  0  0  0  0  0  0  0  0  0  0  0
  143.6900   74.0420  220.4140 C   0  0  0  0  0  0  0  0  0  0  0  0
  145.0590   74.0950  220.3420 C   0  0  0  0  0  0  0  0  0  0  0  0
  145.8530   72.9850  220.0900 C   0  0  0  0  0  0  0  0  0  0  0  0
  145.2780   71.7550  219.8970 C   0  0  0  0  0  0  0  0  0  0  0  0
  143.9020   71.6880  219.9660 C   0  0  0  0  0  0  0  0  0  0  0  0
  143.2450   70.4050  219.7690 C   0  0  0  0  0  0  0  0  0  0  0  0
  141.9010   70.3050  219.8220 N   0  0  0  0  0  0  0  0  0  0  0  0
  141.2190   69.1610  219.6520 C   0  0  0  0  0  0  0  0  0  0  0  0
  141.9540   68.0150  219.4060 C   0  0  0  0  0  0  0  0  0  0  0  0
  143.3250   68.1060  219.3500 C   0  0  0  0  0  0  0  0  0  0  0  0
  143.9760   69.2810  219.5270 N   0  0  0  0  0  0  0  0  0  0  0  0
  143.1170   72.7910  220.2160 C   0  0  0  0  0  0  0  0  0  0  0  0
  139.5690   71.3220  223.0640 C   0  0  0  0  0  0  0  0  0  0  0  0
  139.3170   69.9660  223.0310 C   0  0  0  0  0  0  0  0  0  0  0  0
  139.5690   69.2000  224.1750 C   0  0  0  0  0  0  0  0  0  0  0  0
  140.0630   69.8080  225.3140 C   0  0  0  0  0  0  0  0  0  0  0  0
  140.3300   69.0900  226.4750 C   0  0  0  0  0  0  0  0  0  0  0  0
  140.8250   69.7400  227.5960 C   0  0  0  0  0  0  0  0  0  0  0  0
  141.0780   69.0110  228.7210 F   0  0  0  0  0  0  0  0  0  0  0  0
  141.0710   71.1010  227.6110 C   0  0  0  0  0  0  0  0  0  0  0  0
  140.7980   71.7880  226.4460 C   0  0  0  0  0  0  0  0  0  0  0  0
  140.3030   71.1680  225.3110 C   0  0  0  0  0  0  0  0  0  0  0  0
  140.0530   71.8790  224.1980 N   0  0  0  0  0  0  0  0  0  0  0  0
  138.9420   73.8830  223.0500 H   0  0  0  0  0  0  0  0  0  0  0  0
  139.4717   74.1369  220.1323 H   0  0  0  0  0  0  0  0  0  0  0  0
  137.7031   74.1555  220.5699 H   0  0  0  0  0  0  0  0  0  0  0  0
  140.1854   76.8307  223.3937 H   0  0  0  0  0  0  0  0  0  0  0  0
  141.6414   76.1096  222.8031 H   0  0  0  0  0  0  0  0  0  0  0  0
  142.0347   78.6475  222.7374 H   0  0  0  0  0  0  0  0  0  0  0  0
  139.3590   78.5080  221.8690 H   0  0  0  0  0  0  0  0  0  0  0  0
  141.6511   78.7975  220.0400 H   0  0  0  0  0  0  0  0  0  0  0  0
  142.8802   77.7055  220.6582 H   0  0  0  0  0  0  0  0  0  0  0  0
  140.4010   77.0457  219.3089 H   0  0  0  0  0  0  0  0  0  0  0  0
  142.9150   75.6320  221.5800 H   0  0  0  0  0  0  0  0  0  0  0  0
  145.5524   75.0667  220.4916 H   0  0  0  0  0  0  0  0  0  0  0  0
  146.9468   73.0921  220.0449 H   0  0  0  0  0  0  0  0  0  0  0  0
  145.8872   70.8614  219.6961 H   0  0  0  0  0  0  0  0  0  0  0  0
  140.1206   69.1360  219.7061 H   0  0  0  0  0  0  0  0  0  0  0  0
  141.4507   67.0482  219.2579 H   0  0  0  0  0  0  0  0  0  0  0  0
  143.9117   67.1961  219.1554 H   0  0  0  0  0  0  0  0  0  0  0  0
  142.0234   72.6811  220.2596 H   0  0  0  0  0  0  0  0  0  0  0  0
  138.9237   69.4937  222.1188 H   0  0  0  0  0  0  0  0  0  0  0  0
  139.3745   68.1173  224.1678 H   0  0  0  0  0  0  0  0  0  0  0  0
  140.1484   68.0055  226.5042 H   0  0  0  0  0  0  0  0  0  0  0  0
  141.4635   71.6088  228.5044 H   0  0  0  0  0  0  0  0  0  0  0  0
  140.9810   72.8723  226.4176 H   0  0  0  0  0  0  0  0  0  0  0  0
  1  2  2  0
  2  3  1  0
  3  4  1  0
  4  5  1  0
  5  6  2  0
  5  7  1  0
  7  8  1  0
  8  9  1  0
  9 10  1  0
  9 11  1  0
 11 12  1  0
 12 13  1  0
 13 14  2  0
 13 15  1  0
 15 16  1  0
 16 17  2  0
 17 18  1  0
 18 19  2  0
 19 20  1  0
 20 21  1  0
 21 22  2  0
 22 23  1  0
 23 24  2  0
 24 25  1  0
 25 26  2  0
 20 27  2  0
  2 28  1  0
 28 29  2  0
 29 30  1  0
 30 31  2  0
 31 32  1  0
 32 33  2  0
 33 34  1  0
 33 35  1  0
 35 36  2  0
 36 37  1  0
 37 38  2  0
 12  7  1  0
 27 16  1  0
 38 28  1  0
 26 21  1  0
 37 31  1  0
  3 39  1  0
  4 40  1  0
  4 41  1  0
  8 42  1  0
  8 43  1  0
  9 44  1  1
 10 45  1  0
 11 46  1  0
 11 47  1  0
 12 48  1  6
 15 49  1  0
 17 50  1  0
 18 51  1  0
 19 52  1  0
 23 53  1  0
 24 54  1  0
 25 55  1  0
 27 56  1  0
 29 57  1  0
 30 58  1  0
 32 59  1  0
 35 60  1  0
 36 61  1  0
M  END
>  <smiles>  (17) 
O=C(NCC(=O)N1C[C@H](O)C[C@H]1C(=O)Nc1cccc(-c2ncccn2)c1)c1ccc2cc(F)ccc2n1

>  <score_type>  (17) 
oracle

>  <origin>  (17) 
autodockgpu

>  <m_score__min__energy>  (17) 
-9.6600000000000001

>  <m_primary>  (17) 
energy

>  <rmsd>  (17) 
5.10370822948607

>  <m_score__min__rmsd>  (17) 
5.10370822948607

>  <meeko>  (17) 
{"free_energy": -8.29, "intermolecular_energy": -10.68, "internal_energy": -2.97, "cluster_size": 1, "cluster_id": 7, "rank_in_cluster": 1}

>  <energy>  (17) 
-8.74

>  <cluster_rmsd>  (17) 
1.33

>  <cluster>  (17) 
3

$$$$

     RDKit          3D

 61 65  0  0  0  0  0  0  0  0999 V2000
  135.8070   76.8430  223.0730 O   0  0  0  0  0  0  0  0  0  0  0  0
  136.4450   75.7520  223.1900 C   0  0  0  0  0  0  0  0  0  0  0  0
  137.7510   75.5890  222.6500 N   0  0  0  0  0  0  0  0  0  0  0  0
  138.3880   76.6800  221.9460 C   0  0  0  0  0  0  0  0  0  0  0  0
  138.8920   76.2900  220.6220 C   0  0  0  0  0  0  0  0  0  0  0  0
  138.3400   76.6500  219.5500 O   0  0  0  0  0  0  0  0  0  0  0  0
  140.0520   75.4690  220.5640 N   0  0  0  0  0  0  0  0  0  0  0  0
  141.4440   75.8520  220.8470 C   0  0  0  0  0  0  0  0  0  0  0  0
  142.1280   75.2220  219.6530 C   0  0  2  0  0  0  0  0  0  0  0  0
  141.7980   75.9500  218.5010 O   0  0  0  0  0  0  0  0  0  0  0  0
  141.4990   73.8450  219.6280 C   0  0  0  0  0  0  0  0  0  0  0  0
  140.1350   74.0620  220.2130 C   0  0  1  0  0  0  0  0  0  0  0  0
  139.8960   73.2000  221.4070 C   0  0  0  0  0  0  0  0  0  0  0  0
  139.9160   73.7670  222.5200 O   0  0  0  0  0  0  0  0  0  0  0  0
  139.6590   71.8130  221.2430 N   0  0  0  0  0  0  0  0  0  0  0  0
  139.4210   70.8880  222.2690 C   0  0  0  0  0  0  0  0  0  0  0  0
  138.7810   69.6810  222.1450 C   0  0  0  0  0  0  0  0  0  0  0  0
  138.5810   68.8110  223.2080 C   0  0  0  0  0  0  0  0  0  0  0  0
  139.0320   69.1390  224.4610 C   0  0  0  0  0  0  0  0  0  0  0  0
  139.6770   70.3500  224.5990 C   0  0  0  0  0  0  0  0  0  0  0  0
  140.1740   70.7420  225.9100 C   0  0  0  0  0  0  0  0  0  0  0  0
  140.9420   71.8420  226.0520 N   0  0  0  0  0  0  0  0  0  0  0  0
  141.4390   72.2710  227.2230 C   0  0  0  0  0  0  0  0  0  0  0  0
  141.1380   71.5280  228.3510 C   0  0  0  0  0  0  0  0  0  0  0  0
  140.3550   70.4050  228.2160 C   0  0  0  0  0  0  0  0  0  0  0  0
  139.8720   70.0050  227.0150 N   0  0  0  0  0  0  0  0  0  0  0  0
  139.8730   71.2100  223.5430 C   0  0  0  0  0  0  0  0  0  0  0  0
  135.8280   74.6220  223.8990 C   0  0  0  0  0  0  0  0  0  0  0  0
  134.8750   74.8500  224.8700 C   0  0  0  0  0  0  0  0  0  0  0  0
  134.3020   73.7580  225.5310 C   0  0  0  0  0  0  0  0  0  0  0  0
  134.6960   72.4730  225.2040 C   0  0  0  0  0  0  0  0  0  0  0  0
  134.1560   71.3560  225.8320 C   0  0  0  0  0  0  0  0  0  0  0  0
  134.5810   70.0840  225.4740 C   0  0  0  0  0  0  0  0  0  0  0  0
  134.0350   69.0060  226.1060 F   0  0  0  0  0  0  0  0  0  0  0  0
  135.5380   69.8740  224.4980 C   0  0  0  0  0  0  0  0  0  0  0  0
  136.0560   71.0010  223.8920 C   0  0  0  0  0  0  0  0  0  0  0  0
  135.6530   72.2820  224.2270 C   0  0  0  0  0  0  0  0  0  0  0  0
  136.1860   73.3500  223.6090 N   0  0  0  0  0  0  0  0  0  0  0  0
  138.2190   74.6500  222.7880 H   0  0  0  0  0  0  0  0  0  0  0  0
  137.6552   77.4903  221.8178 H   0  0  0  0  0  0  0  0  0  0  0  0
  139.2520   77.0004  222.5466 H   0  0  0  0  0  0  0  0  0  0  0  0
  141.5731   76.9443  220.8640 H   0  0  0  0  0  0  0  0  0  0  0  0
  141.8264   75.5310  221.8271 H   0  0  0  0  0  0  0  0  0  0  0  0
  143.2266   75.1961  219.7020 H   0  0  0  0  0  0  0  0  0  0  0  0
  140.8630   76.2760  218.5750 H   0  0  0  0  0  0  0  0  0  0  0  0
  141.4275   73.4659  218.5979 H   0  0  0  0  0  0  0  0  0  0  0  0
  142.0861   73.0998  220.1847 H   0  0  0  0  0  0  0  0  0  0  0  0
  139.3599   73.7862  219.4828 H   0  0  0  0  0  0  0  0  0  0  0  0
  139.6700   71.4700  220.2470 H   0  0  0  0  0  0  0  0  0  0  0  0
  138.4073   69.3877  221.1529 H   0  0  0  0  0  0  0  0  0  0  0  0
  138.0595   67.8563  223.0450 H   0  0  0  0  0  0  0  0  0  0  0  0
  138.8856   68.4656  225.3183 H   0  0  0  0  0  0  0  0  0  0  0  0
  142.0604   73.1766  227.2834 H   0  0  0  0  0  0  0  0  0  0  0  0
  141.5181   71.8300  229.3381 H   0  0  0  0  0  0  0  0  0  0  0  0
  140.1135   69.8132  229.1112 H   0  0  0  0  0  0  0  0  0  0  0  0
  140.3940   72.1644  223.7093 H   0  0  0  0  0  0  0  0  0  0  0  0
  134.5697   75.8765  225.1212 H   0  0  0  0  0  0  0  0  0  0  0  0
  133.5407   73.9208  226.3081 H   0  0  0  0  0  0  0  0  0  0  0  0
  133.3915   71.4805  226.6131 H   0  0  0  0  0  0  0  0  0  0  0  0
  135.8689   68.8626  224.2194 H   0  0  0  0  0  0  0  0  0  0  0  0
  136.8203   70.8758  223.1109 H   0  0  0  0  0  0  0  0  0  0  0  0
  1  2  2  0
  2  3  1  0
  3  4  1  0
  4  5  1  0
  5  6  2  0
  5  7  1  0
  7  8  1  0
  8  9  1  0
  9 10  1  0
  9 11  1  0
 11 12  1  0
 12 13  1  0
 13 14  2  0
 13 15  1  0
 15 16  1  0
 16 17  2  0
 17 18  1  0
 18 19  2  0
 19 20  1  0
 20 21  1  0
 21 22  2  0
 22 23  1  0
 23 24  2  0
 24 25  1  0
 25 26  2  0
 20 27  2  0
  2 28  1  0
 28 29  2  0
 29 30  1  0
 30 31  2  0
 31 32  1  0
 32 33  2  0
 33 34  1  0
 33 35  1  0
 35 36  2  0
 36 37  1  0
 37 38  2  0
 12  7  1  0
 27 16  1  0
 38 28  1  0
 26 21  1  0
 37 31  1  0
  3 39  1  0
  4 40  1  0
  4 41  1  0
  8 42  1  0
  8 43  1  0
  9 44  1  1
 10 45  1  0
 11 46  1  0
 11 47  1  0
 12 48  1  6
 15 49  1  0
 17 50  1  0
 18 51  1  0
 19 52  1  0
 23 53  1  0
 24 54  1  0
 25 55  1  0
 27 56  1  0
 29 57  1  0
 30 58  1  0
 32 59  1  0
 35 60  1  0
 36 61  1  0
M  END
>  <smiles>  (18) 
O=C(NCC(=O)N1C[C@H](O)C[C@H]1C(=O)Nc1cccc(-c2ncccn2)c1)c1ccc2cc(F)ccc2n1

>  <score_type>  (18) 
oracle

>  <origin>  (18) 
autodockgpu

>  <m_score__min__energy>  (18) 
-9.6600000000000001

>  <m_primary>  (18) 
energy

>  <rmsd>  (18) 
7.254083251078014

>  <m_score__min__rmsd>  (18) 
7.254083251078014

>  <meeko>  (18) 
{"free_energy": -7.55, "intermolecular_energy": -9.94, "internal_energy": -3.78, "cluster_size": 1, "cluster_id": 11, "rank_in_cluster": 1}

>  <energy>  (18) 
-8.42

>  <cluster_rmsd>  (18) 
1.93

>  <cluster>  (18) 
3

$$$$

     RDKit          3D

 61 65  0  0  0  0  0  0  0  0999 V2000
  140.2370   71.4760  220.9490 O   0  0  0  0  0  0  0  0  0  0  0  0
  139.9690   72.0180  222.0660 C   0  0  0  0  0  0  0  0  0  0  0  0
  139.6910   73.4080  222.1730 N   0  0  0  0  0  0  0  0  0  0  0  0
  139.7080   74.2470  220.9950 C   0  0  0  0  0  0  0  0  0  0  0  0
  141.0600   74.6860  220.6230 C   0  0  0  0  0  0  0  0  0  0  0  0
  142.0930   74.2920  221.2250 O   0  0  0  0  0  0  0  0  0  0  0  0
  141.1930   75.5940  219.5370 N   0  0  0  0  0  0  0  0  0  0  0  0
  140.2610   75.8050  218.4180 C   0  0  0  0  0  0  0  0  0  0  0  0
  141.2440   75.8040  217.2660 C   0  0  2  0  0  0  0  0  0  0  0  0
  141.7220   74.4990  217.0750 O   0  0  0  0  0  0  0  0  0  0  0  0
  142.3350   76.7140  217.7900 C   0  0  0  0  0  0  0  0  0  0  0  0
  142.2770   76.5250  219.2780 C   0  0  1  0  0  0  0  0  0  0  0  0
  142.0550   77.8140  219.9960 C   0  0  0  0  0  0  0  0  0  0  0  0
  142.0540   78.8510  219.2990 O   0  0  0  0  0  0  0  0  0  0  0  0
  141.8590   77.8180  221.3980 N   0  0  0  0  0  0  0  0  0  0  0  0
  141.6410   78.9480  222.2000 C   0  0  0  0  0  0  0  0  0  0  0  0
  142.5850   79.8620  222.5940 C   0  0  0  0  0  0  0  0  0  0  0  0
  142.2980   80.9620  223.3890 C   0  0  0  0  0  0  0  0  0  0  0  0
  141.0150   81.1800  223.8250 C   0  0  0  0  0  0  0  0  0  0  0  0
  140.0560   80.2690  223.4360 C   0  0  0  0  0  0  0  0  0  0  0  0
  138.6810   80.4590  223.8720 C   0  0  0  0  0  0  0  0  0  0  0  0
  138.3970   81.2610  224.9200 N   0  0  0  0  0  0  0  0  0  0  0  0
  137.1590   81.4890  225.3840 C   0  0  0  0  0  0  0  0  0  0  0  0
  136.1120   80.8550  224.7370 C   0  0  0  0  0  0  0  0  0  0  0  0
  136.3910   80.0370  223.6680 C   0  0  0  0  0  0  0  0  0  0  0  0
  137.6570   79.8320  223.2300 N   0  0  0  0  0  0  0  0  0  0  0  0
  140.3460   79.1790  222.6470 C   0  0  0  0  0  0  0  0  0  0  0  0
  139.9440   71.1960  223.2840 C   0  0  0  0  0  0  0  0  0  0  0  0
  139.4310   69.9160  223.2460 C   0  0  0  0  0  0  0  0  0  0  0  0
  139.4190   69.1530  224.4190 C   0  0  0  0  0  0  0  0  0  0  0  0
  139.9160   69.6890  225.5920 C   0  0  0  0  0  0  0  0  0  0  0  0
  139.9260   68.9710  226.7830 C   0  0  0  0  0  0  0  0  0  0  0  0
  140.4350   69.5480  227.9380 C   0  0  0  0  0  0  0  0  0  0  0  0
  140.4320   68.8210  229.0930 F   0  0  0  0  0  0  0  0  0  0  0  0
  140.9460   70.8330  227.9580 C   0  0  0  0  0  0  0  0  0  0  0  0
  140.9240   71.5210  226.7620 C   0  0  0  0  0  0  0  0  0  0  0  0
  140.4220   70.9740  225.5930 C   0  0  0  0  0  0  0  0  0  0  0  0
  140.4220   71.6840  224.4520 N   0  0  0  0  0  0  0  0  0  0  0  0
  139.4770   73.7870  223.1380 H   0  0  0  0  0  0  0  0  0  0  0  0
  139.2797   73.6806  220.1549 H   0  0  0  0  0  0  0  0  0  0  0  0
  139.1205   75.1483  221.2241 H   0  0  0  0  0  0  0  0  0  0  0  0
  139.5301   74.9873  218.3337 H   0  0  0  0  0  0  0  0  0  0  0  0
  139.6340   76.7054  218.4960 H   0  0  0  0  0  0  0  0  0  0  0  0
  140.8336   76.1313  216.2994 H   0  0  0  0  0  0  0  0  0  0  0  0
  141.8430   74.0610  217.9590 H   0  0  0  0  0  0  0  0  0  0  0  0
  143.3173   76.4152  217.3953 H   0  0  0  0  0  0  0  0  0  0  0  0
  142.1944   77.7627  217.4892 H   0  0  0  0  0  0  0  0  0  0  0  0
  143.2360   76.1346  219.6494 H   0  0  0  0  0  0  0  0  0  0  0  0
  141.8840   76.8710  221.8590 H   0  0  0  0  0  0  0  0  0  0  0  0
  143.6235   79.7151  222.2623 H   0  0  0  0  0  0  0  0  0  0  0  0
  143.0998   81.6605  223.6704 H   0  0  0  0  0  0  0  0  0  0  0  0
  140.7628   82.0440  224.4573 H   0  0  0  0  0  0  0  0  0  0  0  0
  136.9830   82.1526  226.2435 H   0  0  0  0  0  0  0  0  0  0  0  0
  135.0750   81.0032  225.0725 H   0  0  0  0  0  0  0  0  0  0  0  0
  135.5606   79.5330  223.1519 H   0  0  0  0  0  0  0  0  0  0  0  0
  139.5423   78.4821  222.3669 H   0  0  0  0  0  0  0  0  0  0  0  0
  139.0368   69.5009  222.3067 H   0  0  0  0  0  0  0  0  0  0  0  0
  139.0153   68.1298  224.4075 H   0  0  0  0  0  0  0  0  0  0  0  0
  139.5302   67.9450  226.8096 H   0  0  0  0  0  0  0  0  0  0  0  0
  141.3483   71.2825  228.8778 H   0  0  0  0  0  0  0  0  0  0  0  0
  141.3216   72.5463  226.7361 H   0  0  0  0  0  0  0  0  0  0  0  0
  1  2  2  0
  2  3  1  0
  3  4  1  0
  4  5  1  0
  5  6  2  0
  5  7  1  0
  7  8  1  0
  8  9  1  0
  9 10  1  0
  9 11  1  0
 11 12  1  0
 12 13  1  0
 13 14  2  0
 13 15  1  0
 15 16  1  0
 16 17  2  0
 17 18  1  0
 18 19  2  0
 19 20  1  0
 20 21  1  0
 21 22  2  0
 22 23  1  0
 23 24  2  0
 24 25  1  0
 25 26  2  0
 20 27  2  0
  2 28  1  0
 28 29  2  0
 29 30  1  0
 30 31  2  0
 31 32  1  0
 32 33  2  0
 33 34  1  0
 33 35  1  0
 35 36  2  0
 36 37  1  0
 37 38  2  0
 12  7  1  0
 27 16  1  0
 38 28  1  0
 26 21  1  0
 37 31  1  0
  3 39  1  0
  4 40  1  0
  4 41  1  0
  8 42  1  0
  8 43  1  0
  9 44  1  6
 10 45  1  0
 11 46  1  0
 11 47  1  0
 12 48  1  1
 15 49  1  0
 17 50  1  0
 18 51  1  0
 19 52  1  0
 23 53  1  0
 24 54  1  0
 25 55  1  0
 27 56  1  0
 29 57  1  0
 30 58  1  0
 32 59  1  0
 35 60  1  0
 36 61  1  0
M  END
>  <smiles>  (19) 
O=C(NCC(=O)N1C[C@H](O)C[C@H]1C(=O)Nc1cccc(-c2ncccn2)c1)c1ccc2cc(F)ccc2n1

>  <score_type>  (19) 
oracle

>  <origin>  (19) 
autodockgpu

>  <m_score__min__energy>  (19) 
-9.6600000000000001

>  <m_primary>  (19) 
energy

>  <rmsd>  (19) 
1.9987597193987527

>  <m_score__min__rmsd>  (19) 
1.9987597193987527

>  <meeko>  (19) 
{"free_energy": -9.36, "intermolecular_energy": -11.75, "internal_energy": -2.1, "cluster_size": 9, "cluster_id": 2, "rank_in_cluster": 2}

>  <energy>  (19) 
-7.69

>  <cluster_rmsd>  (19) 
1.74

>  <cluster>  (19) 
3

$$$$

     RDKit          3D

 61 65  0  0  0  0  0  0  0  0999 V2000
  143.1070   77.5010  217.0970 O   0  0  0  0  0  0  0  0  0  0  0  0
  142.9280   77.9050  218.2870 C   0  0  0  0  0  0  0  0  0  0  0  0
  143.1920   77.0690  219.4070 N   0  0  0  0  0  0  0  0  0  0  0  0
  143.6770   75.7210  219.2100 C   0  0  0  0  0  0  0  0  0  0  0  0
  142.6010   74.7200  219.2010 C   0  0  0  0  0  0  0  0  0  0  0  0
  142.6460   73.6770  218.4980 O   0  0  0  0  0  0  0  0  0  0  0  0
  141.4660   74.9540  220.0240 N   0  0  0  0  0  0  0  0  0  0  0  0
  140.1600   75.5050  219.6280 C   0  0  0  0  0  0  0  0  0  0  0  0
  139.9600   76.5100  220.7430 C   0  0  2  0  0  0  0  0  0  0  0  0
  140.8530   77.5760  220.5620 O   0  0  0  0  0  0  0  0  0  0  0  0
  140.3240   75.6930  221.9640 C   0  0  0  0  0  0  0  0  0  0  0  0
  141.3280   74.7030  221.4490 C   0  0  1  0  0  0  0  0  0  0  0  0
  140.9050   73.2950  221.7030 C   0  0  0  0  0  0  0  0  0  0  0  0
  141.4360   72.4140  220.9950 O   0  0  0  0  0  0  0  0  0  0  0  0
  139.9470   73.0150  222.7080 N   0  0  0  0  0  0  0  0  0  0  0  0
  139.4590   71.7470  223.0540 C   0  0  0  0  0  0  0  0  0  0  0  0
  138.6090   70.9700  222.3090 C   0  0  0  0  0  0  0  0  0  0  0  0
  138.1650   69.7190  222.7150 C   0  0  0  0  0  0  0  0  0  0  0  0
  138.5760   69.1980  223.9160 C   0  0  0  0  0  0  0  0  0  0  0  0
  139.4310   69.9700  224.6750 C   0  0  0  0  0  0  0  0  0  0  0  0
  139.8940   69.4600  225.9560 C   0  0  0  0  0  0  0  0  0  0  0  0
  139.8790   70.2430  227.0540 N   0  0  0  0  0  0  0  0  0  0  0  0
  140.2880   69.8500  228.2710 C   0  0  0  0  0  0  0  0  0  0  0  0
  140.7550   68.5530  228.3950 C   0  0  0  0  0  0  0  0  0  0  0  0
  140.7750   67.7470  227.2810 C   0  0  0  0  0  0  0  0  0  0  0  0
  140.3520   68.1820  226.0700 N   0  0  0  0  0  0  0  0  0  0  0  0
  139.8680   71.2100  224.2690 C   0  0  0  0  0  0  0  0  0  0  0  0
  142.4360   79.2700  218.5240 C   0  0  0  0  0  0  0  0  0  0  0  0
  142.3160   80.1560  217.4740 C   0  0  0  0  0  0  0  0  0  0  0  0
  141.8450   81.4490  217.7250 C   0  0  0  0  0  0  0  0  0  0  0  0
  141.5080   81.8190  219.0150 C   0  0  0  0  0  0  0  0  0  0  0  0
  141.0350   83.0910  219.3150 C   0  0  0  0  0  0  0  0  0  0  0  0
  140.7080   83.4200  220.6230 C   0  0  0  0  0  0  0  0  0  0  0  0
  140.2460   84.6760  220.8900 F   0  0  0  0  0  0  0  0  0  0  0  0
  140.8340   82.5180  221.6640 C   0  0  0  0  0  0  0  0  0  0  0  0
  141.3050   81.2630  221.3360 C   0  0  0  0  0  0  0  0  0  0  0  0
  141.6400   80.9050  220.0420 C   0  0  0  0  0  0  0  0  0  0  0  0
  142.0950   79.6700  219.7710 N   0  0  0  0  0  0  0  0  0  0  0  0
  143.0180   77.4760  220.3680 H   0  0  0  0  0  0  0  0  0  0  0  0
  144.2060   75.6759  218.2466 H   0  0  0  0  0  0  0  0  0  0  0  0
  144.3410   75.4832  220.0541 H   0  0  0  0  0  0  0  0  0  0  0  0
  140.2020   75.9902  218.6417 H   0  0  0  0  0  0  0  0  0  0  0  0
  139.3547   74.7638  219.5177 H   0  0  0  0  0  0  0  0  0  0  0  0
  138.9543   76.9517  220.8014 H   0  0  0  0  0  0  0  0  0  0  0  0
  140.5660   78.1160  219.7790 H   0  0  0  0  0  0  0  0  0  0  0  0
  140.7669   76.3302  222.7436 H   0  0  0  0  0  0  0  0  0  0  0  0
  139.4510   75.2102  222.4274 H   0  0  0  0  0  0  0  0  0  0  0  0
  142.2877   74.8278  221.9718 H   0  0  0  0  0  0  0  0  0  0  0  0
  139.5820   73.8550  223.2290 H   0  0  0  0  0  0  0  0  0  0  0  0
  138.2613   71.3580  221.3402 H   0  0  0  0  0  0  0  0  0  0  0  0
  137.4820   69.1440  222.0724 H   0  0  0  0  0  0  0  0  0  0  0  0
  138.2387   68.2086  224.2584 H   0  0  0  0  0  0  0  0  0  0  0  0
  140.2533   70.5310  229.1342 H   0  0  0  0  0  0  0  0  0  0  0  0
  141.1038   68.1739  229.3669 H   0  0  0  0  0  0  0  0  0  0  0  0
  141.1464   66.7160  227.3764 H   0  0  0  0  0  0  0  0  0  0  0  0
  140.5497   71.7836  224.9142 H   0  0  0  0  0  0  0  0  0  0  0  0
  142.5870   79.8500  216.4528 H   0  0  0  0  0  0  0  0  0  0  0  0
  141.7429   82.1691  216.8998 H   0  0  0  0  0  0  0  0  0  0  0  0
  140.9198   83.8374  218.5152 H   0  0  0  0  0  0  0  0  0  0  0  0
  140.5727   82.7867  222.6982 H   0  0  0  0  0  0  0  0  0  0  0  0
  141.4188   80.5166  222.1360 H   0  0  0  0  0  0  0  0  0  0  0  0
  1  2  2  0
  2  3  1  0
  3  4  1  0
  4  5  1  0
  5  6  2  0
  5  7  1  0
  7  8  1  0
  8  9  1  0
  9 10  1  0
  9 11  1  0
 11 12  1  0
 12 13  1  0
 13 14  2  0
 13 15  1  0
 15 16  1  0
 16 17  2  0
 17 18  1  0
 18 19  2  0
 19 20  1  0
 20 21  1  0
 21 22  2  0
 22 23  1  0
 23 24  2  0
 24 25  1  0
 25 26  2  0
 20 27  2  0
  2 28  1  0
 28 29  2  0
 29 30  1  0
 30 31  2  0
 31 32  1  0
 32 33  2  0
 33 34  1  0
 33 35  1  0
 35 36  2  0
 36 37  1  0
 37 38  2  0
 12  7  1  0
 27 16  1  0
 38 28  1  0
 26 21  1  0
 37 31  1  0
  3 39  1  0
  4 40  1  0
  4 41  1  0
  8 42  1  0
  8 43  1  0
  9 44  1  1
 10 45  1  0
 11 46  1  0
 11 47  1  0
 12 48  1  1
 15 49  1  0
 17 50  1  0
 18 51  1  0
 19 52  1  0
 23 53  1  0
 24 54  1  0
 25 55  1  0
 27 56  1  0
 29 57  1  0
 30 58  1  0
 32 59  1  0
 35 60  1  0
 36 61  1  0
M  END
>  <smiles>  (20) 
O=C(NCC(=O)N1C[C@H](O)C[C@H]1C(=O)Nc1cccc(-c2ncccn2)c1)c1ccc2cc(F)ccc2n1

>  <score_type>  (20) 
oracle

>  <origin>  (20) 
autodockgpu

>  <m_score__min__energy>  (20) 
-9.6600000000000001

>  <m_primary>  (20) 
energy

>  <rmsd>  (20) 
10.212753960092597

>  <m_score__min__rmsd>  (20) 
10.212753960092597

>  <meeko>  (20) 
{"free_energy": -7.69, "intermolecular_energy": -10.08, "internal_energy": -3.49, "cluster_size": 9, "cluster_id": 3, "rank_in_cluster": 8}

>  <energy>  (20) 
-7.66

>  <cluster_rmsd>  (20) 
1.87

>  <cluster>  (20) 
3

$$$$

     RDKit          3D

 61 65  0  0  0  0  0  0  0  0999 V2000
  137.6220   69.7570  222.1740 O   0  0  0  0  0  0  0  0  0  0  0  0
  137.8820   70.3860  223.2450 C   0  0  0  0  0  0  0  0  0  0  0  0
  137.4500   71.7250  223.4490 N   0  0  0  0  0  0  0  0  0  0  0  0
  136.6940   72.4100  222.4230 C   0  0  0  0  0  0  0  0  0  0  0  0
  137.3170   72.3170  221.0950 C   0  0  0  0  0  0  0  0  0  0  0  0
  136.6620   72.0560  220.0520 O   0  0  0  0  0  0  0  0  0  0  0  0
  138.7190   72.5340  220.9980 N   0  0  0  0  0  0  0  0  0  0  0  0
  139.5940   72.2840  219.8430 C   0  0  0  0  0  0  0  0  0  0  0  0
  140.7360   71.5730  220.5390 C   0  0  2  0  0  0  0  0  0  0  0  0
  140.3080   70.2960  220.9300 O   0  0  0  0  0  0  0  0  0  0  0  0
  140.9670   72.4640  221.7400 C   0  0  0  0  0  0  0  0  0  0  0  0
  139.6150   73.0530  222.0170 C   0  0  1  0  0  0  0  0  0  0  0  0
  139.6410   74.5450  221.9940 C   0  0  0  0  0  0  0  0  0  0  0  0
  140.7110   75.0810  221.6390 O   0  0  0  0  0  0  0  0  0  0  0  0
  138.4870   75.2780  222.3630 N   0  0  0  0  0  0  0  0  0  0  0  0
  138.3670   76.6750  222.3890 C   0  0  0  0  0  0  0  0  0  0  0  0
  137.2240   77.3990  222.1690 C   0  0  0  0  0  0  0  0  0  0  0  0
  137.1780   78.7860  222.2120 C   0  0  0  0  0  0  0  0  0  0  0  0
  138.3150   79.5040  222.4850 C   0  0  0  0  0  0  0  0  0  0  0  0
  139.4720   78.7870  222.7080 C   0  0  0  0  0  0  0  0  0  0  0  0
  140.7030   79.5050  223.0020 C   0  0  0  0  0  0  0  0  0  0  0  0
  141.8930   79.0280  222.5830 N   0  0  0  0  0  0  0  0  0  0  0  0
  143.0720   79.6280  222.8120 C   0  0  0  0  0  0  0  0  0  0  0  0
  143.0530   80.8130  223.5260 C   0  0  0  0  0  0  0  0  0  0  0  0
  141.8440   81.3080  223.9570 C   0  0  0  0  0  0  0  0  0  0  0  0
  140.6750   80.6710  223.7050 N   0  0  0  0  0  0  0  0  0  0  0  0
  139.5120   77.4120  222.6640 C   0  0  0  0  0  0  0  0  0  0  0  0
  138.6480   69.7210  224.3100 C   0  0  0  0  0  0  0  0  0  0  0  0
  138.8110   68.3510  224.2950 C   0  0  0  0  0  0  0  0  0  0  0  0
  139.5450   67.7430  225.3180 C   0  0  0  0  0  0  0  0  0  0  0  0
  140.0930   68.5170  226.3250 C   0  0  0  0  0  0  0  0  0  0  0  0
  140.8310   67.9590  227.3630 C   0  0  0  0  0  0  0  0  0  0  0  0
  141.3630   68.7730  228.3530 C   0  0  0  0  0  0  0  0  0  0  0  0
  142.0820   68.1990  229.3600 F   0  0  0  0  0  0  0  0  0  0  0  0
  141.1900   70.1450  228.3520 C   0  0  0  0  0  0  0  0  0  0  0  0
  140.4540   70.6710  227.3090 C   0  0  0  0  0  0  0  0  0  0  0  0
  139.9100   69.8860  226.3070 C   0  0  0  0  0  0  0  0  0  0  0  0
  139.2010   70.4430  225.3110 N   0  0  0  0  0  0  0  0  0  0  0  0
  137.7050   72.1830  224.3680 H   0  0  0  0  0  0  0  0  0  0  0  0
  135.6893   71.9650  222.3713 H   0  0  0  0  0  0  0  0  0  0  0  0
  136.6566   73.4749  222.6961 H   0  0  0  0  0  0  0  0  0  0  0  0
  139.1087   71.6427  219.0925 H   0  0  0  0  0  0  0  0  0  0  0  0
  139.8804   73.1794  219.2719 H   0  0  0  0  0  0  0  0  0  0  0  0
  141.6390   71.4259  219.9284 H   0  0  0  0  0  0  0  0  0  0  0  0
  139.3160   70.2830  220.9820 H   0  0  0  0  0  0  0  0  0  0  0  0
  141.3221   71.8774  222.6001 H   0  0  0  0  0  0  0  0  0  0  0  0
  141.7348   73.2305  221.5585 H   0  0  0  0  0  0  0  0  0  0  0  0
  139.2774   72.7733  223.0258 H   0  0  0  0  0  0  0  0  0  0  0  0
  137.6540   74.6960  222.6410 H   0  0  0  0  0  0  0  0  0  0  0  0
  136.2953   76.8529  221.9469 H   0  0  0  0  0  0  0  0  0  0  0  0
  136.2287   79.3100  222.0270 H   0  0  0  0  0  0  0  0  0  0  0  0
  138.3042   80.6032  222.5243 H   0  0  0  0  0  0  0  0  0  0  0  0
  144.0149   79.1950  222.4468 H   0  0  0  0  0  0  0  0  0  0  0  0
  143.9879   81.3497  223.7451 H   0  0  0  0  0  0  0  0  0  0  0  0
  141.8257   82.2505  224.5240 H   0  0  0  0  0  0  0  0  0  0  0  0
  140.4625   76.8901  222.8489 H   0  0  0  0  0  0  0  0  0  0  0  0
  138.3697   67.7456  223.4895 H   0  0  0  0  0  0  0  0  0  0  0  0
  139.6863   66.6521  225.3220 H   0  0  0  0  0  0  0  0  0  0  0  0
  140.9932   66.8716  227.3994 H   0  0  0  0  0  0  0  0  0  0  0  0
  141.6160   70.7832  229.1401 H   0  0  0  0  0  0  0  0  0  0  0  0
  140.2933   71.7586  227.2728 H   0  0  0  0  0  0  0  0  0  0  0  0
  1  2  2  0
  2  3  1  0
  3  4  1  0
  4  5  1  0
  5  6  2  0
  5  7  1  0
  7  8  1  0
  8  9  1  0
  9 10  1  0
  9 11  1  0
 11 12  1  0
 12 13  1  0
 13 14  2  0
 13 15  1  0
 15 16  1  0
 16 17  2  0
 17 18  1  0
 18 19  2  0
 19 20  1  0
 20 21  1  0
 21 22  2  0
 22 23  1  0
 23 24  2  0
 24 25  1  0
 25 26  2  0
 20 27  2  0
  2 28  1  0
 28 29  2  0
 29 30  1  0
 30 31  2  0
 31 32  1  0
 32 33  2  0
 33 34  1  0
 33 35  1  0
 35 36  2  0
 36 37  1  0
 37 38  2  0
 12  7  1  0
 27 16  1  0
 38 28  1  0
 26 21  1  0
 37 31  1  0
  3 39  1  0
  4 40  1  0
  4 41  1  0
  8 42  1  0
  8 43  1  0
  9 44  1  6
 10 45  1  0
 11 46  1  0
 11 47  1  0
 12 48  1  1
 15 49  1  0
 17 50  1  0
 18 51  1  0
 19 52  1  0
 23 53  1  0
 24 54  1  0
 25 55  1  0
 27 56  1  0
 29 57  1  0
 30 58  1  0
 32 59  1  0
 35 60  1  0
 36 61  1  0
M  END
>  <smiles>  (21) 
O=C(NCC(=O)N1C[C@H](O)C[C@H]1C(=O)Nc1cccc(-c2ncccn2)c1)c1ccc2cc(F)ccc2n1

>  <score_type>  (21) 
oracle

>  <origin>  (21) 
autodockgpu

>  <m_score__min__energy>  (21) 
-9.6600000000000001

>  <m_primary>  (21) 
energy

>  <rmsd>  (21) 
3.5715574732194493

>  <m_score__min__rmsd>  (21) 
3.5715574732194493

>  <meeko>  (21) 
{"free_energy": -8.62, "intermolecular_energy": -11.0, "internal_energy": -3.15, "cluster_size": 9, "cluster_id": 2, "rank_in_cluster": 8}

>  <energy>  (21) 
-9.19

>  <cluster_rmsd>  (21) 
0.0

>  <cluster>  (21) 
4

$$$$

     RDKit          3D

 61 65  0  0  0  0  0  0  0  0999 V2000
  140.5950   77.1150  217.7350 O   0  0  0  0  0  0  0  0  0  0  0  0
  141.5820   77.1080  218.5320 C   0  0  0  0  0  0  0  0  0  0  0  0
  141.8550   78.2070  219.3920 N   0  0  0  0  0  0  0  0  0  0  0  0
  141.0020   79.3740  219.3750 C   0  0  0  0  0  0  0  0  0  0  0  0
  141.3690   80.3670  220.3940 C   0  0  0  0  0  0  0  0  0  0  0  0
  141.8100   81.5090  220.1040 O   0  0  0  0  0  0  0  0  0  0  0  0
  141.2140   80.0090  221.7610 N   0  0  0  0  0  0  0  0  0  0  0  0
  140.4870   80.7400  222.8100 C   0  0  0  0  0  0  0  0  0  0  0  0
  141.5160   80.6800  223.9200 C   0  0  2  0  0  0  0  0  0  0  0  0
  142.5890   81.5220  223.5940 O   0  0  0  0  0  0  0  0  0  0  0  0
  141.9300   79.2250  223.8790 C   0  0  0  0  0  0  0  0  0  0  0  0
  141.7370   78.8370  222.4420 C   0  0  1  0  0  0  0  0  0  0  0  0
  140.8080   77.6780  222.2970 C   0  0  0  0  0  0  0  0  0  0  0  0
  139.6370   77.8450  222.6970 O   0  0  0  0  0  0  0  0  0  0  0  0
  141.2720   76.4670  221.7280 N   0  0  0  0  0  0  0  0  0  0  0  0
  140.5150   75.3030  221.5310 C   0  0  0  0  0  0  0  0  0  0  0  0
  139.1710   75.1560  221.7590 C   0  0  0  0  0  0  0  0  0  0  0  0
  138.4840   73.9700  221.5410 C   0  0  0  0  0  0  0  0  0  0  0  0
  139.1490   72.8650  221.0730 C   0  0  0  0  0  0  0  0  0  0  0  0
  140.5020   72.9990  220.8400 C   0  0  0  0  0  0  0  0  0  0  0  0
  141.2510   71.8550  220.3420 C   0  0  0  0  0  0  0  0  0  0  0  0
  140.6620   70.9470  219.5360 N   0  0  0  0  0  0  0  0  0  0  0  0
  141.2810   69.8650  219.0360 C   0  0  0  0  0  0  0  0  0  0  0  0
  142.6100   69.6810  219.3750 C   0  0  0  0  0  0  0  0  0  0  0  0
  143.2190   70.6020  220.1950 C   0  0  0  0  0  0  0  0  0  0  0  0
  142.5580   71.6810  220.6800 N   0  0  0  0  0  0  0  0  0  0  0  0
  141.1790   74.1770  221.0580 C   0  0  0  0  0  0  0  0  0  0  0  0
  142.4710   75.9370  218.5770 C   0  0  0  0  0  0  0  0  0  0  0  0
  142.4870   75.0390  217.5300 C   0  0  0  0  0  0  0  0  0  0  0  0
  143.3420   73.9330  217.5960 C   0  0  0  0  0  0  0  0  0  0  0  0
  144.1540   73.7570  218.7020 C   0  0  0  0  0  0  0  0  0  0  0  0
  145.0200   72.6760  218.8140 C   0  0  0  0  0  0  0  0  0  0  0  0
  145.8170   72.5380  219.9420 C   0  0  0  0  0  0  0  0  0  0  0  0
  146.6590   71.4670  220.0250 F   0  0  0  0  0  0  0  0  0  0  0  0
  145.7880   73.4490  220.9810 C   0  0  0  0  0  0  0  0  0  0  0  0
  144.9200   74.5120  220.8430 C   0  0  0  0  0  0  0  0  0  0  0  0
  144.1120   74.6780  219.7310 C   0  0  0  0  0  0  0  0  0  0  0  0
  143.2810   75.7300  219.6410 N   0  0  0  0  0  0  0  0  0  0  0  0
  142.6970   78.1270  220.0290 H   0  0  0  0  0  0  0  0  0  0  0  0
  141.0729   79.8459  218.3839 H   0  0  0  0  0  0  0  0  0  0  0  0
  139.9785   79.0373  219.5966 H   0  0  0  0  0  0  0  0  0  0  0  0
  140.2670   81.7754  222.5106 H   0  0  0  0  0  0  0  0  0  0  0  0
  139.4992   80.3295  223.0663 H   0  0  0  0  0  0  0  0  0  0  0  0
  141.1577   81.0005  224.9094 H   0  0  0  0  0  0  0  0  0  0  0  0
  142.5910   81.6870  222.6140 H   0  0  0  0  0  0  0  0  0  0  0  0
  142.9821   79.1085  224.1782 H   0  0  0  0  0  0  0  0  0  0  0  0
  141.3479   78.5979  224.5703 H   0  0  0  0  0  0  0  0  0  0  0  0
  142.6928   78.5139  222.0037 H   0  0  0  0  0  0  0  0  0  0  0  0
  142.2830   76.4660  221.4340 H   0  0  0  0  0  0  0  0  0  0  0  0
  138.6079   76.0233  222.1343 H   0  0  0  0  0  0  0  0  0  0  0  0
  137.4042   73.9158  221.7438 H   0  0  0  0  0  0  0  0  0  0  0  0
  138.6264   71.9142  220.8916 H   0  0  0  0  0  0  0  0  0  0  0  0
  140.7530   69.1540  218.3835 H   0  0  0  0  0  0  0  0  0  0  0  0
  143.1695   68.8134  218.9953 H   0  0  0  0  0  0  0  0  0  0  0  0
  144.2755   70.4583  220.4656 H   0  0  0  0  0  0  0  0  0  0  0  0
  142.2590   74.2283  220.8555 H   0  0  0  0  0  0  0  0  0  0  0  0
  141.8369   75.1901  216.6556 H   0  0  0  0  0  0  0  0  0  0  0  0
  143.3682   73.2059  216.7710 H   0  0  0  0  0  0  0  0  0  0  0  0
  145.0739   71.9292  218.0082 H   0  0  0  0  0  0  0  0  0  0  0  0
  146.4237   73.3324  221.8711 H   0  0  0  0  0  0  0  0  0  0  0  0
  144.8676   75.2584  221.6494 H   0  0  0  0  0  0  0  0  0  0  0  0
  1  2  2  0
  2  3  1  0
  3  4  1  0
  4  5  1  0
  5  6  2  0
  5  7  1  0
  7  8  1  0
  8  9  1  0
  9 10  1  0
  9 11  1  0
 11 12  1  0
 12 13  1  0
 13 14  2  0
 13 15  1  0
 15 16  1  0
 16 17  2  0
 17 18  1  0
 18 19  2  0
 19 20  1  0
 20 21  1  0
 21 22  2  0
 22 23  1  0
 23 24  2  0
 24 25  1  0
 25 26  2  0
 20 27  2  0
  2 28  1  0
 28 29  2  0
 29 30  1  0
 30 31  2  0
 31 32  1  0
 32 33  2  0
 33 34  1  0
 33 35  1  0
 35 36  2  0
 36 37  1  0
 37 38  2  0
 12  7  1  0
 27 16  1  0
 38 28  1  0
 26 21  1  0
 37 31  1  0
  3 39  1  0
  4 40  1  0
  4 41  1  0
  8 42  1  0
  8 43  1  0
  9 44  1  1
 10 45  1  0
 11 46  1  0
 11 47  1  0
 12 48  1  6
 15 49  1  0
 17 50  1  0
 18 51  1  0
 19 52  1  0
 23 53  1  0
 24 54  1  0
 25 55  1  0
 27 56  1  0
 29 57  1  0
 30 58  1  0
 32 59  1  0
 35 60  1  0
 36 61  1  0
M  END
>  <smiles>  (22) 
O=C(NCC(=O)N1C[C@H](O)C[C@H]1C(=O)Nc1cccc(-c2ncccn2)c1)c1ccc2cc(F)ccc2n1

>  <score_type>  (22) 
oracle

>  <origin>  (22) 
autodockgpu

>  <m_score__min__energy>  (22) 
-9.6600000000000001

>  <m_primary>  (22) 
energy

>  <rmsd>  (22) 
7.737920374464207

>  <m_score__min__rmsd>  (22) 
7.737920374464207

>  <meeko>  (22) 
{"free_energy": -6.82, "intermolecular_energy": -9.21, "internal_energy": -4.66, "cluster_size": 1, "cluster_id": 17, "rank_in_cluster": 1}

>  <energy>  (22) 
-8.98

>  <cluster_rmsd>  (22) 
0.0

>  <cluster>  (22) 
5

$$$$

     RDKit          3D

 61 65  0  0  0  0  0  0  0  0999 V2000
  140.4070   73.2440  222.4150 O   0  0  0  0  0  0  0  0  0  0  0  0
  140.4270   74.1680  221.5440 C   0  0  0  0  0  0  0  0  0  0  0  0
  140.7610   73.9070  220.1870 N   0  0  0  0  0  0  0  0  0  0  0  0
  141.0920   72.5640  219.7640 C   0  0  0  0  0  0  0  0  0  0  0  0
  142.2540   72.5160  218.8660 C   0  0  0  0  0  0  0  0  0  0  0  0
  142.2920   71.7880  217.8400 O   0  0  0  0  0  0  0  0  0  0  0  0
  143.3760   73.3300  219.1820 N   0  0  0  0  0  0  0  0  0  0  0  0
  144.7750   73.1400  218.7690 C   0  0  0  0  0  0  0  0  0  0  0  0
  145.4650   73.3670  220.0980 C   0  0  2  0  0  0  0  0  0  0  0  0
  145.2030   72.2770  220.9410 O   0  0  0  0  0  0  0  0  0  0  0  0
  144.7740   74.6200  220.5940 C   0  0  0  0  0  0  0  0  0  0  0  0
  143.4040   74.5390  219.9870 C   0  0  1  0  0  0  0  0  0  0  0  0
  143.0900   75.7380  219.1560 C   0  0  0  0  0  0  0  0  0  0  0  0
  143.2530   75.6240  217.9230 O   0  0  0  0  0  0  0  0  0  0  0  0
  142.6300   76.9260  219.7750 N   0  0  0  0  0  0  0  0  0  0  0  0
  142.2990   78.1230  219.1240 C   0  0  0  0  0  0  0  0  0  0  0  0
  142.5510   78.4330  217.8110 C   0  0  0  0  0  0  0  0  0  0  0  0
  142.1920   79.6420  217.2300 C   0  0  0  0  0  0  0  0  0  0  0  0
  141.5520   80.6010  217.9740 C   0  0  0  0  0  0  0  0  0  0  0  0
  141.2940   80.3010  219.2950 C   0  0  0  0  0  0  0  0  0  0  0  0
  140.6160   81.2870  220.1240 C   0  0  0  0  0  0  0  0  0  0  0  0
  139.2870   81.2050  220.3400 N   0  0  0  0  0  0  0  0  0  0  0  0
  138.5870   82.0720  221.0900 C   0  0  0  0  0  0  0  0  0  0  0  0
  139.2860   83.1130  221.6760 C   0  0  0  0  0  0  0  0  0  0  0  0
  140.6420   83.2040  221.4620 C   0  0  0  0  0  0  0  0  0  0  0  0
  141.3110   82.3080  220.6970 N   0  0  0  0  0  0  0  0  0  0  0  0
  141.6510   79.1020  219.8670 C   0  0  0  0  0  0  0  0  0  0  0  0
  140.0970   75.5450  221.9380 C   0  0  0  0  0  0  0  0  0  0  0  0
  138.7910   75.9870  221.8860 C   0  0  0  0  0  0  0  0  0  0  0  0
  138.5020   77.3020  222.2670 C   0  0  0  0  0  0  0  0  0  0  0  0
  139.5230   78.1350  222.6880 C   0  0  0  0  0  0  0  0  0  0  0  0
  139.2860   79.4490  223.0760 C   0  0  0  0  0  0  0  0  0  0  0  0
  140.3400   80.2510  223.4920 C   0  0  0  0  0  0  0  0  0  0  0  0
  140.0800   81.5360  223.8680 F   0  0  0  0  0  0  0  0  0  0  0  0
  141.6430   79.7910  223.5380 C   0  0  0  0  0  0  0  0  0  0  0  0
  141.8480   78.4830  223.1470 C   0  0  0  0  0  0  0  0  0  0  0  0
  140.8180   77.6590  222.7280 C   0  0  0  0  0  0  0  0  0  0  0  0
  141.0670   76.3910  222.3560 N   0  0  0  0  0  0  0  0  0  0  0  0
  140.7560   74.7280  219.5190 H   0  0  0  0  0  0  0  0  0  0  0  0
  141.3130   71.9597  220.6562 H   0  0  0  0  0  0  0  0  0  0  0  0
  140.2285   72.1718  219.2067 H   0  0  0  0  0  0  0  0  0  0  0  0
  144.9539   72.1258  218.3824 H   0  0  0  0  0  0  0  0  0  0  0  0
  145.1127   73.7924  217.9503 H   0  0  0  0  0  0  0  0  0  0  0  0
  146.5593   73.4662  220.0472 H   0  0  0  0  0  0  0  0  0  0  0  0
  146.0600   71.9330  221.3080 H   0  0  0  0  0  0  0  0  0  0  0  0
  144.7159   74.6265  221.6924 H   0  0  0  0  0  0  0  0  0  0  0  0
  145.3091   75.5394  220.3140 H   0  0  0  0  0  0  0  0  0  0  0  0
  142.6396   74.5107  220.7775 H   0  0  0  0  0  0  0  0  0  0  0  0
  142.5390   76.8820  220.8240 H   0  0  0  0  0  0  0  0  0  0  0  0
  143.0634   77.6858  217.1872 H   0  0  0  0  0  0  0  0  0  0  0  0
  142.4212   79.8314  216.1709 H   0  0  0  0  0  0  0  0  0  0  0  0
  141.2578   81.5662  217.5361 H   0  0  0  0  0  0  0  0  0  0  0  0
  137.5021   81.9592  221.2327 H   0  0  0  0  0  0  0  0  0  0  0  0
  138.7668   83.8541  222.3014 H   0  0  0  0  0  0  0  0  0  0  0  0
  141.2005   84.0300  221.9265 H   0  0  0  0  0  0  0  0  0  0  0  0
  141.4205   78.9159  220.9264 H   0  0  0  0  0  0  0  0  0  0  0  0
  137.9879   75.3148  221.5496 H   0  0  0  0  0  0  0  0  0  0  0  0
  137.4667   77.6720  222.2319 H   0  0  0  0  0  0  0  0  0  0  0  0
  138.2632   79.8531  223.0533 H   0  0  0  0  0  0  0  0  0  0  0  0
  142.4725   80.4333  223.8687 H   0  0  0  0  0  0  0  0  0  0  0  0
  142.8711   78.0795  223.1694 H   0  0  0  0  0  0  0  0  0  0  0  0
  1  2  2  0
  2  3  1  0
  3  4  1  0
  4  5  1  0
  5  6  2  0
  5  7  1  0
  7  8  1  0
  8  9  1  0
  9 10  1  0
  9 11  1  0
 11 12  1  0
 12 13  1  0
 13 14  2  0
 13 15  1  0
 15 16  1  0
 16 17  2  0
 17 18  1  0
 18 19  2  0
 19 20  1  0
 20 21  1  0
 21 22  2  0
 22 23  1  0
 23 24  2  0
 24 25  1  0
 25 26  2  0
 20 27  2  0
  2 28  1  0
 28 29  2  0
 29 30  1  0
 30 31  2  0
 31 32  1  0
 32 33  2  0
 33 34  1  0
 33 35  1  0
 35 36  2  0
 36 37  1  0
 37 38  2  0
 12  7  1  0
 27 16  1  0
 38 28  1  0
 26 21  1  0
 37 31  1  0
  3 39  1  0
  4 40  1  0
  4 41  1  0
  8 42  1  0
  8 43  1  0
  9 44  1  6
 10 45  1  0
 11 46  1  0
 11 47  1  0
 12 48  1  1
 15 49  1  0
 17 50  1  0
 18 51  1  0
 19 52  1  0
 23 53  1  0
 24 54  1  0
 25 55  1  0
 27 56  1  0
 29 57  1  0
 30 58  1  0
 32 59  1  0
 35 60  1  0
 36 61  1  0
M  END
>  <smiles>  (23) 
O=C(NCC(=O)N1C[C@H](O)C[C@H]1C(=O)Nc1cccc(-c2ncccn2)c1)c1ccc2cc(F)ccc2n1

>  <score_type>  (23) 
oracle

>  <origin>  (23) 
autodockgpu

>  <m_score__min__energy>  (23) 
-9.6600000000000001

>  <m_primary>  (23) 
energy

>  <rmsd>  (23) 
6.506080002460958

>  <m_score__min__rmsd>  (23) 
6.506080002460958

>  <meeko>  (23) 
{"free_energy": -7.41, "intermolecular_energy": -9.8, "internal_energy": -4.1, "cluster_size": 4, "cluster_id": 12, "rank_in_cluster": 2}

>  <energy>  (23) 
-8.93

>  <cluster_rmsd>  (23) 
0.48

>  <cluster>  (23) 
5

$$$$

     RDKit          3D

 61 65  0  0  0  0  0  0  0  0999 V2000
  140.6920   74.1290  220.5660 O   0  0  0  0  0  0  0  0  0  0  0  0
  141.0870   75.2320  220.0780 C   0  0  0  0  0  0  0  0  0  0  0  0
  141.4240   75.3610  218.7030 N   0  0  0  0  0  0  0  0  0  0  0  0
  141.3230   74.2210  217.8180 C   0  0  0  0  0  0  0  0  0  0  0  0
  142.5900   73.4910  217.6780 C   0  0  0  0  0  0  0  0  0  0  0  0
  143.0980   73.2180  216.5590 O   0  0  0  0  0  0  0  0  0  0  0  0
  143.2600   73.0820  218.8630 N   0  0  0  0  0  0  0  0  0  0  0  0
  143.9030   73.9330  219.8760 C   0  0  0  0  0  0  0  0  0  0  0  0
  145.2090   73.1840  220.0450 C   0  0  2  0  0  0  0  0  0  0  0  0
  145.9910   73.3660  218.8950 O   0  0  0  0  0  0  0  0  0  0  0  0
  144.7300   71.7520  220.1590 C   0  0  0  0  0  0  0  0  0  0  0  0
  143.4660   71.7300  219.3520 C   0  0  1  0  0  0  0  0  0  0  0  0
  142.2970   71.2710  220.1580 C   0  0  0  0  0  0  0  0  0  0  0  0
  141.7850   70.1800  219.8320 O   0  0  0  0  0  0  0  0  0  0  0  0
  141.8240   72.0630  221.2330 N   0  0  0  0  0  0  0  0  0  0  0  0
  140.7420   71.7590  222.0710 C   0  0  0  0  0  0  0  0  0  0  0  0
  139.4230   71.6770  221.7010 C   0  0  0  0  0  0  0  0  0  0  0  0
  138.4000   71.3690  222.5870 C   0  0  0  0  0  0  0  0  0  0  0  0
  138.6820   71.1280  223.9080 C   0  0  0  0  0  0  0  0  0  0  0  0
  140.0040   71.2070  224.2920 C   0  0  0  0  0  0  0  0  0  0  0  0
  140.3520   70.9580  225.6830 C   0  0  0  0  0  0  0  0  0  0  0  0
  140.8270   71.9530  226.4610 N   0  0  0  0  0  0  0  0  0  0  0  0
  141.1710   71.8070  227.7510 C   0  0  0  0  0  0  0  0  0  0  0  0
  141.0250   70.5480  228.3080 C   0  0  0  0  0  0  0  0  0  0  0  0
  140.5410   69.5280  227.5220 C   0  0  0  0  0  0  0  0  0  0  0  0
  140.2050   69.7170  226.2240 N   0  0  0  0  0  0  0  0  0  0  0  0
  141.0150   71.5130  223.4110 C   0  0  0  0  0  0  0  0  0  0  0  0
  141.2010   76.4110  220.9480 C   0  0  0  0  0  0  0  0  0  0  0  0
  140.9480   76.3030  222.3000 C   0  0  0  0  0  0  0  0  0  0  0  0
  141.0650   77.4400  223.1060 C   0  0  0  0  0  0  0  0  0  0  0  0
  141.4290   78.6490  222.5410 C   0  0  0  0  0  0  0  0  0  0  0  0
  141.5580   79.8070  223.3010 C   0  0  0  0  0  0  0  0  0  0  0  0
  141.9260   80.9990  222.6930 C   0  0  0  0  0  0  0  0  0  0  0  0
  142.0460   82.1200  223.4620 F   0  0  0  0  0  0  0  0  0  0  0  0
  142.1760   81.0890  221.3360 C   0  0  0  0  0  0  0  0  0  0  0  0
  142.0400   79.9250  220.6080 C   0  0  0  0  0  0  0  0  0  0  0  0
  141.6750   78.7200  221.1840 C   0  0  0  0  0  0  0  0  0  0  0  0
  141.5560   77.6120  220.4340 N   0  0  0  0  0  0  0  0  0  0  0  0
  141.7450   76.3130  218.3690 H   0  0  0  0  0  0  0  0  0  0  0  0
  140.5638   73.5327  218.2178 H   0  0  0  0  0  0  0  0  0  0  0  0
  141.0489   74.5998  216.8223 H   0  0  0  0  0  0  0  0  0  0  0  0
  144.0628   74.9575  219.5088 H   0  0  0  0  0  0  0  0  0  0  0  0
  143.3243   74.0766  220.8004 H   0  0  0  0  0  0  0  0  0  0  0  0
  145.8268   73.5039  220.8970 H   0  0  0  0  0  0  0  0  0  0  0  0
  145.6370   74.1350  218.3750 H   0  0  0  0  0  0  0  0  0  0  0  0
  145.4730   71.0563  219.7419 H   0  0  0  0  0  0  0  0  0  0  0  0
  144.5735   71.4384  221.2017 H   0  0  0  0  0  0  0  0  0  0  0  0
  143.5584   71.0151  218.5211 H   0  0  0  0  0  0  0  0  0  0  0  0
  142.3510   72.9610  221.3960 H   0  0  0  0  0  0  0  0  0  0  0  0
  139.1633   71.8649  220.6487 H   0  0  0  0  0  0  0  0  0  0  0  0
  137.3610   71.3180  222.2294 H   0  0  0  0  0  0  0  0  0  0  0  0
  137.8884   70.8825  224.6290 H   0  0  0  0  0  0  0  0  0  0  0  0
  141.5532   72.6532  228.3409 H   0  0  0  0  0  0  0  0  0  0  0  0
  141.2911   70.3666  229.3598 H   0  0  0  0  0  0  0  0  0  0  0  0
  140.4232   68.5268  227.9621 H   0  0  0  0  0  0  0  0  0  0  0  0
  142.0529   71.5636  223.7719 H   0  0  0  0  0  0  0  0  0  0  0  0
  140.6584   75.3363  222.7378 H   0  0  0  0  0  0  0  0  0  0  0  0
  140.8681   77.3730  224.1862 H   0  0  0  0  0  0  0  0  0  0  0  0
  141.3683   79.7778  224.3841 H   0  0  0  0  0  0  0  0  0  0  0  0
  142.4677   82.0379  220.8623 H   0  0  0  0  0  0  0  0  0  0  0  0
  142.2294   79.9555  219.5249 H   0  0  0  0  0  0  0  0  0  0  0  0
  1  2  2  0
  2  3  1  0
  3  4  1  0
  4  5  1  0
  5  6  2  0
  5  7  1  0
  7  8  1  0
  8  9  1  0
  9 10  1  0
  9 11  1  0
 11 12  1  0
 12 13  1  0
 13 14  2  0
 13 15  1  0
 15 16  1  0
 16 17  2  0
 17 18  1  0
 18 19  2  0
 19 20  1  0
 20 21  1  0
 21 22  2  0
 22 23  1  0
 23 24  2  0
 24 25  1  0
 25 26  2  0
 20 27  2  0
  2 28  1  0
 28 29  2  0
 29 30  1  0
 30 31  2  0
 31 32  1  0
 32 33  2  0
 33 34  1  0
 33 35  1  0
 35 36  2  0
 36 37  1  0
 37 38  2  0
 12  7  1  0
 27 16  1  0
 38 28  1  0
 26 21  1  0
 37 31  1  0
  3 39  1  0
  4 40  1  0
  4 41  1  0
  8 42  1  0
  8 43  1  0
  9 44  1  1
 10 45  1  0
 11 46  1  0
 11 47  1  0
 12 48  1  6
 15 49  1  0
 17 50  1  0
 18 51  1  0
 19 52  1  0
 23 53  1  0
 24 54  1  0
 25 55  1  0
 27 56  1  0
 29 57  1  0
 30 58  1  0
 32 59  1  0
 35 60  1  0
 36 61  1  0
M  END
>  <smiles>  (24) 
O=C(NCC(=O)N1C[C@H](O)C[C@H]1C(=O)Nc1cccc(-c2ncccn2)c1)c1ccc2cc(F)ccc2n1

>  <score_type>  (24) 
oracle

>  <origin>  (24) 
autodockgpu

>  <m_score__min__energy>  (24) 
-9.6600000000000001

>  <m_primary>  (24) 
energy

>  <rmsd>  (24) 
8.72379456237158

>  <m_score__min__rmsd>  (24) 
8.72379456237158

>  <meeko>  (24) 
{"free_energy": -8.42, "intermolecular_energy": -10.8, "internal_energy": -3.08, "cluster_size": 9, "cluster_id": 3, "rank_in_cluster": 7}

>  <energy>  (24) 
-8.91

>  <cluster_rmsd>  (24) 
0.28

>  <cluster>  (24) 
5

$$$$

     RDKit          3D

 61 65  0  0  0  0  0  0  0  0999 V2000
  142.7850   77.4410  217.0900 O   0  0  0  0  0  0  0  0  0  0  0  0
  142.7870   77.8520  218.2910 C   0  0  0  0  0  0  0  0  0  0  0  0
  143.2130   77.0210  219.3630 N   0  0  0  0  0  0  0  0  0  0  0  0
  143.6600   75.6700  219.1040 C   0  0  0  0  0  0  0  0  0  0  0  0
  143.2550   74.7220  220.1510 C   0  0  0  0  0  0  0  0  0  0  0  0
  142.3750   74.9900  221.0090 O   0  0  0  0  0  0  0  0  0  0  0  0
  143.8940   73.4520  220.1850 N   0  0  0  0  0  0  0  0  0  0  0  0
  145.1030   73.0690  220.9320 C   0  0  0  0  0  0  0  0  0  0  0  0
  145.8510   72.3290  219.8430 C   0  0  2  0  0  0  0  0  0  0  0  0
  146.3100   73.2550  218.8960 O   0  0  0  0  0  0  0  0  0  0  0  0
  144.7620   71.4500  219.2640 C   0  0  0  0  0  0  0  0  0  0  0  0
  143.5050   72.2370  219.4920 C   0  0  1  0  0  0  0  0  0  0  0  0
  142.5020   71.4690  220.2850 C   0  0  0  0  0  0  0  0  0  0  0  0
  142.4650   70.2340  220.0980 O   0  0  0  0  0  0  0  0  0  0  0  0
  141.6530   72.1440  221.1960 N   0  0  0  0  0  0  0  0  0  0  0  0
  140.6690   71.5540  222.0030 C   0  0  0  0  0  0  0  0  0  0  0  0
  139.4960   70.9860  221.5740 C   0  0  0  0  0  0  0  0  0  0  0  0
  138.5660   70.4170  222.4310 C   0  0  0  0  0  0  0  0  0  0  0  0
  138.7940   70.4030  223.7840 C   0  0  0  0  0  0  0  0  0  0  0  0
  139.9700   70.9700  224.2280 C   0  0  0  0  0  0  0  0  0  0  0  0
  140.2570   70.9770  225.6550 C   0  0  0  0  0  0  0  0  0  0  0  0
  141.0460   71.9310  226.1920 N   0  0  0  0  0  0  0  0  0  0  0  0
  141.3600   72.0080  227.4950 C   0  0  0  0  0  0  0  0  0  0  0  0
  140.8320   71.0410  228.3330 C   0  0  0  0  0  0  0  0  0  0  0  0
  140.0260   70.0660  227.7950 C   0  0  0  0  0  0  0  0  0  0  0  0
  139.7330   70.0230  226.4730 N   0  0  0  0  0  0  0  0  0  0  0  0
  140.8900   71.5340  223.3740 C   0  0  0  0  0  0  0  0  0  0  0  0
  142.3380   79.2200  218.5920 C   0  0  0  0  0  0  0  0  0  0  0  0
  142.2070   80.1450  217.5770 C   0  0  0  0  0  0  0  0  0  0  0  0
  141.7780   81.4400  217.8890 C   0  0  0  0  0  0  0  0  0  0  0  0
  141.4950   81.7720  219.2010 C   0  0  0  0  0  0  0  0  0  0  0  0
  141.0650   83.0450  219.5610 C   0  0  0  0  0  0  0  0  0  0  0  0
  140.7920   83.3360  220.8900 C   0  0  0  0  0  0  0  0  0  0  0  0
  140.3720   84.5920  221.2160 F   0  0  0  0  0  0  0  0  0  0  0  0
  140.9290   82.3950  221.8940 C   0  0  0  0  0  0  0  0  0  0  0  0
  141.3560   81.1410  221.5080 C   0  0  0  0  0  0  0  0  0  0  0  0
  141.6370   80.8200  220.1910 C   0  0  0  0  0  0  0  0  0  0  0  0
  142.0500   79.5840  219.8630 N   0  0  0  0  0  0  0  0  0  0  0  0
  143.1860   77.4330  220.3370 H   0  0  0  0  0  0  0  0  0  0  0  0
  143.2343   75.3373  218.1458 H   0  0  0  0  0  0  0  0  0  0  0  0
  144.7596   75.6854  219.0807 H   0  0  0  0  0  0  0  0  0  0  0  0
  145.6607   73.9481  221.2873 H   0  0  0  0  0  0  0  0  0  0  0  0
  144.9208   72.4898  221.8492 H   0  0  0  0  0  0  0  0  0  0  0  0
  146.7320   71.7630  220.1800 H   0  0  0  0  0  0  0  0  0  0  0  0
  146.2900   74.1670  219.2900 H   0  0  0  0  0  0  0  0  0  0  0  0
  144.9271   71.2783  218.1901 H   0  0  0  0  0  0  0  0  0  0  0  0
  144.7291   70.4533  219.7283 H   0  0  0  0  0  0  0  0  0  0  0  0
  143.0195   72.4640  218.5314 H   0  0  0  0  0  0  0  0  0  0  0  0
  141.7930   73.1860  221.2530 H   0  0  0  0  0  0  0  0  0  0  0  0
  139.2823   70.9818  220.4950 H   0  0  0  0  0  0  0  0  0  0  0  0
  137.6436   69.9760  222.0253 H   0  0  0  0  0  0  0  0  0  0  0  0
  138.0706   69.9590  224.4837 H   0  0  0  0  0  0  0  0  0  0  0  0
  142.0103   72.8069  227.8809 H   0  0  0  0  0  0  0  0  0  0  0  0
  141.0535   71.0525  229.4104 H   0  0  0  0  0  0  0  0  0  0  0  0
  139.6056   69.2963  228.4590 H   0  0  0  0  0  0  0  0  0  0  0  0
  141.8117   71.9743  223.7822 H   0  0  0  0  0  0  0  0  0  0  0  0
  142.4365   79.8686  216.5373 H   0  0  0  0  0  0  0  0  0  0  0  0
  141.6663   82.1912  217.0932 H   0  0  0  0  0  0  0  0  0  0  0  0
  140.9413   83.8214  218.7917 H   0  0  0  0  0  0  0  0  0  0  0  0
  140.7091   82.6336  222.9451 H   0  0  0  0  0  0  0  0  0  0  0  0
  141.4781   80.3649  222.2779 H   0  0  0  0  0  0  0  0  0  0  0  0
  1  2  2  0
  2  3  1  0
  3  4  1  0
  4  5  1  0
  5  6  2  0
  5  7  1  0
  7  8  1  0
  8  9  1  0
  9 10  1  0
  9 11  1  0
 11 12  1  0
 12 13  1  0
 13 14  2  0
 13 15  1  0
 15 16  1  0
 16 17  2  0
 17 18  1  0
 18 19  2  0
 19 20  1  0
 20 21  1  0
 21 22  2  0
 22 23  1  0
 23 24  2  0
 24 25  1  0
 25 26  2  0
 20 27  2  0
  2 28  1  0
 28 29  2  0
 29 30  1  0
 30 31  2  0
 31 32  1  0
 32 33  2  0
 33 34  1  0
 33 35  1  0
 35 36  2  0
 36 37  1  0
 37 38  2  0
 12  7  1  0
 27 16  1  0
 38 28  1  0
 26 21  1  0
 37 31  1  0
  3 39  1  0
  4 40  1  0
  4 41  1  0
  8 42  1  0
  8 43  1  0
  9 44  1  1
 10 45  1  0
 11 46  1  0
 11 47  1  0
 12 48  1  6
 15 49  1  0
 17 50  1  0
 18 51  1  0
 19 52  1  0
 23 53  1  0
 24 54  1  0
 25 55  1  0
 27 56  1  0
 29 57  1  0
 30 58  1  0
 32 59  1  0
 35 60  1  0
 36 61  1  0
M  END
>  <smiles>  (25) 
O=C(NCC(=O)N1C[C@H](O)C[C@H]1C(=O)Nc1cccc(-c2ncccn2)c1)c1ccc2cc(F)ccc2n1

>  <score_type>  (25) 
oracle

>  <origin>  (25) 
autodockgpu

>  <m_score__min__energy>  (25) 
-9.6600000000000001

>  <m_primary>  (25) 
energy

>  <rmsd>  (25) 
10.377743132583568

>  <m_score__min__rmsd>  (25) 
10.377743132583568

>  <meeko>  (25) 
{"free_energy": -9.32, "intermolecular_energy": -11.71, "internal_energy": -2.77, "cluster_size": 9, "cluster_id": 3, "rank_in_cluster": 2}

>  <energy>  (25) 
-8.84

>  <cluster_rmsd>  (25) 
0.22

>  <cluster>  (25) 
5

$$$$

     RDKit          3D

 61 65  0  0  0  0  0  0  0  0999 V2000
  141.5060   75.5210  221.5790 O   0  0  0  0  0  0  0  0  0  0  0  0
  141.4440   76.4430  220.7090 C   0  0  0  0  0  0  0  0  0  0  0  0
  141.4580   76.1570  219.3160 N   0  0  0  0  0  0  0  0  0  0  0  0
  141.5450   74.7890  218.8550 C   0  0  0  0  0  0  0  0  0  0  0  0
  142.9160   74.3890  218.5050 C   0  0  0  0  0  0  0  0  0  0  0  0
  143.4920   74.7810  217.4570 O   0  0  0  0  0  0  0  0  0  0  0  0
  143.6070   73.5230  219.3950 N   0  0  0  0  0  0  0  0  0  0  0  0
  144.5160   73.8930  220.4910 C   0  0  0  0  0  0  0  0  0  0  0  0
  145.6480   72.9240  220.2200 C   0  0  2  0  0  0  0  0  0  0  0  0
  146.3250   73.3260  219.0600 O   0  0  0  0  0  0  0  0  0  0  0  0
  144.8970   71.6290  219.9940 C   0  0  0  0  0  0  0  0  0  0  0  0
  143.5770   72.0710  219.4340 C   0  0  1  0  0  0  0  0  0  0  0  0
  142.4310   71.5830  220.2540 C   0  0  0  0  0  0  0  0  0  0  0  0
  142.1260   70.3780  220.1300 O   0  0  0  0  0  0  0  0  0  0  0  0
  141.7490   72.4740  221.1190 N   0  0  0  0  0  0  0  0  0  0  0  0
  140.6600   72.1560  221.9430 C   0  0  0  0  0  0  0  0  0  0  0  0
  139.3340   72.2100  221.5980 C   0  0  0  0  0  0  0  0  0  0  0  0
  138.3050   71.8780  222.4680 C   0  0  0  0  0  0  0  0  0  0  0  0
  138.5880   71.4710  223.7470 C   0  0  0  0  0  0  0  0  0  0  0  0
  139.9190   71.4130  224.1070 C   0  0  0  0  0  0  0  0  0  0  0  0
  140.2690   70.9850  225.4530 C   0  0  0  0  0  0  0  0  0  0  0  0
  140.1020   69.7010  225.8310 N   0  0  0  0  0  0  0  0  0  0  0  0
  140.3990   69.2270  227.0520 C   0  0  0  0  0  0  0  0  0  0  0  0
  140.9120   70.1240  227.9730 C   0  0  0  0  0  0  0  0  0  0  0  0
  141.0860   71.4350  227.5960 C   0  0  0  0  0  0  0  0  0  0  0  0
  140.7730   71.8740  226.3540 N   0  0  0  0  0  0  0  0  0  0  0  0
  140.9360   71.7430  223.2410 C   0  0  0  0  0  0  0  0  0  0  0  0
  141.3540   77.8460  221.1410 C   0  0  0  0  0  0  0  0  0  0  0  0
  141.2540   78.1520  222.4820 C   0  0  0  0  0  0  0  0  0  0  0  0
  141.1700   79.4950  222.8690 C   0  0  0  0  0  0  0  0  0  0  0  0
  141.1880   80.4880  221.9070 C   0  0  0  0  0  0  0  0  0  0  0  0
  141.1070   81.8360  222.2410 C   0  0  0  0  0  0  0  0  0  0  0  0
  141.1290   82.8010  221.2440 C   0  0  0  0  0  0  0  0  0  0  0  0
  141.0480   84.1160  221.5990 F   0  0  0  0  0  0  0  0  0  0  0  0
  141.2290   82.4750  219.9040 C   0  0  0  0  0  0  0  0  0  0  0  0
  141.3080   81.1310  219.6020 C   0  0  0  0  0  0  0  0  0  0  0  0
  141.2890   80.1440  220.5730 C   0  0  0  0  0  0  0  0  0  0  0  0
  141.3690   78.8470  220.2310 N   0  0  0  0  0  0  0  0  0  0  0  0
  141.4020   76.9780  218.6510 H   0  0  0  0  0  0  0  0  0  0  0  0
  141.1788   74.1259  219.6526 H   0  0  0  0  0  0  0  0  0  0  0  0
  140.9349   74.7086  217.9433 H   0  0  0  0  0  0  0  0  0  0  0  0
  144.8455   74.9397  220.4144 H   0  0  0  0  0  0  0  0  0  0  0  0
  144.0806   73.8319  221.4993 H   0  0  0  0  0  0  0  0  0  0  0  0
  146.4055   72.8531  221.0145 H   0  0  0  0  0  0  0  0  0  0  0  0
  145.8890   74.1390  218.6900 H   0  0  0  0  0  0  0  0  0  0  0  0
  145.4307   70.9868  219.2780 H   0  0  0  0  0  0  0  0  0  0  0  0
  144.7904   71.0342  220.9132 H   0  0  0  0  0  0  0  0  0  0  0  0
  143.4292   71.6478  218.4295 H   0  0  0  0  0  0  0  0  0  0  0  0
  142.1130   73.4630  221.1240 H   0  0  0  0  0  0  0  0  0  0  0  0
  139.0725   72.5330  220.5795 H   0  0  0  0  0  0  0  0  0  0  0  0
  137.2598   71.9414  222.1311 H   0  0  0  0  0  0  0  0  0  0  0  0
  137.7894   71.2027  224.4543 H   0  0  0  0  0  0  0  0  0  0  0  0
  140.2411   68.1693  227.3096 H   0  0  0  0  0  0  0  0  0  0  0  0
  141.1759   69.7940  228.9886 H   0  0  0  0  0  0  0  0  0  0  0  0
  141.4924   72.1498  228.3267 H   0  0  0  0  0  0  0  0  0  0  0  0
  141.9804   71.6791  223.5802 H   0  0  0  0  0  0  0  0  0  0  0  0
  141.2404   77.3522  223.2370 H   0  0  0  0  0  0  0  0  0  0  0  0
  141.0900   79.7590  223.9339 H   0  0  0  0  0  0  0  0  0  0  0  0
  141.0255   82.1371  223.2958 H   0  0  0  0  0  0  0  0  0  0  0  0
  141.2448   83.2465  219.1201 H   0  0  0  0  0  0  0  0  0  0  0  0
  141.3894   80.8313  218.5467 H   0  0  0  0  0  0  0  0  0  0  0  0
  1  2  2  0
  2  3  1  0
  3  4  1  0
  4  5  1  0
  5  6  2  0
  5  7  1  0
  7  8  1  0
  8  9  1  0
  9 10  1  0
  9 11  1  0
 11 12  1  0
 12 13  1  0
 13 14  2  0
 13 15  1  0
 15 16  1  0
 16 17  2  0
 17 18  1  0
 18 19  2  0
 19 20  1  0
 20 21  1  0
 21 22  2  0
 22 23  1  0
 23 24  2  0
 24 25  1  0
 25 26  2  0
 20 27  2  0
  2 28  1  0
 28 29  2  0
 29 30  1  0
 30 31  2  0
 31 32  1  0
 32 33  2  0
 33 34  1  0
 33 35  1  0
 35 36  2  0
 36 37  1  0
 37 38  2  0
 12  7  1  0
 27 16  1  0
 38 28  1  0
 26 21  1  0
 37 31  1  0
  3 39  1  0
  4 40  1  0
  4 41  1  0
  8 42  1  0
  8 43  1  0
  9 44  1  1
 10 45  1  0
 11 46  1  0
 11 47  1  0
 12 48  1  6
 15 49  1  0
 17 50  1  0
 18 51  1  0
 19 52  1  0
 23 53  1  0
 24 54  1  0
 25 55  1  0
 27 56  1  0
 29 57  1  0
 30 58  1  0
 32 59  1  0
 35 60  1  0
 36 61  1  0
M  END
>  <smiles>  (26) 
O=C(NCC(=O)N1C[C@H](O)C[C@H]1C(=O)Nc1cccc(-c2ncccn2)c1)c1ccc2cc(F)ccc2n1

>  <score_type>  (26) 
oracle

>  <origin>  (26) 
autodockgpu

>  <m_score__min__energy>  (26) 
-9.6600000000000001

>  <m_primary>  (26) 
energy

>  <rmsd>  (26) 
9.460266533424255

>  <m_score__min__rmsd>  (26) 
9.460266533424255

>  <meeko>  (26) 
{"free_energy": -8.75, "intermolecular_energy": -11.14, "internal_energy": -3.27, "cluster_size": 9, "cluster_id": 3, "rank_in_cluster": 5}

>  <energy>  (26) 
-8.75

>  <cluster_rmsd>  (26) 
1.94

>  <cluster>  (26) 
5

$$$$

     RDKit          3D

 61 65  0  0  0  0  0  0  0  0999 V2000
  136.8750   76.9810  222.7820 O   0  0  0  0  0  0  0  0  0  0  0  0
  136.6240   75.7570  223.0010 C   0  0  0  0  0  0  0  0  0  0  0  0
  137.2870   74.7190  222.2910 N   0  0  0  0  0  0  0  0  0  0  0  0
  138.2770   75.0430  221.2860 C   0  0  0  0  0  0  0  0  0  0  0  0
  139.6550   74.9410  221.7870 C   0  0  0  0  0  0  0  0  0  0  0  0
  140.1070   73.9000  222.3300 O   0  0  0  0  0  0  0  0  0  0  0  0
  140.5010   76.0750  221.6460 N   0  0  0  0  0  0  0  0  0  0  0  0
  141.0000   76.9670  222.7050 C   0  0  0  0  0  0  0  0  0  0  0  0
  140.7260   78.3080  222.0560 C   0  0  2  0  0  0  0  0  0  0  0  0
  139.3420   78.5330  222.0400 O   0  0  0  0  0  0  0  0  0  0  0  0
  141.2610   78.0890  220.6570 C   0  0  0  0  0  0  0  0  0  0  0  0
  141.0720   76.6190  220.4260 C   0  0  1  0  0  0  0  0  0  0  0  0
  142.3560   75.9370  220.0890 C   0  0  0  0  0  0  0  0  0  0  0  0
  143.0340   76.4430  219.1700 O   0  0  0  0  0  0  0  0  0  0  0  0
  142.7490   74.7770  220.8010 N   0  0  0  0  0  0  0  0  0  0  0  0
  143.9220   74.0370  220.5920 C   0  0  0  0  0  0  0  0  0  0  0  0
  145.2090   74.4990  220.7090 C   0  0  0  0  0  0  0  0  0  0  0  0
  146.3260   73.7070  220.4890 C   0  0  0  0  0  0  0  0  0  0  0  0
  146.1790   72.3900  220.1340 C   0  0  0  0  0  0  0  0  0  0  0  0
  144.8900   71.9140  220.0120 C   0  0  0  0  0  0  0  0  0  0  0  0
  144.6830   70.5230  219.6390 C   0  0  0  0  0  0  0  0  0  0  0  0
  145.7280   69.7350  219.3120 N   0  0  0  0  0  0  0  0  0  0  0  0
  145.6230   68.4450  218.9560 C   0  0  0  0  0  0  0  0  0  0  0  0
  144.3520   67.8970  218.9270 C   0  0  0  0  0  0  0  0  0  0  0  0
  143.2800   68.6920  219.2590 C   0  0  0  0  0  0  0  0  0  0  0  0
  143.4290   69.9910  219.6120 N   0  0  0  0  0  0  0  0  0  0  0  0
  143.7840   72.7030  220.2320 C   0  0  0  0  0  0  0  0  0  0  0  0
  135.6230   75.3910  224.0150 C   0  0  0  0  0  0  0  0  0  0  0  0
  134.9210   76.3740  224.6820 C   0  0  0  0  0  0  0  0  0  0  0  0
  133.9740   76.0000  225.6420 C   0  0  0  0  0  0  0  0  0  0  0  0
  133.7570   74.6600  225.9070 C   0  0  0  0  0  0  0  0  0  0  0  0
  132.8270   74.2390  226.8510 C   0  0  0  0  0  0  0  0  0  0  0  0
  132.6400   72.8840  227.0860 C   0  0  0  0  0  0  0  0  0  0  0  0
  131.7210   72.4980  228.0180 F   0  0  0  0  0  0  0  0  0  0  0  0
  133.3530   71.9130  226.4070 C   0  0  0  0  0  0  0  0  0  0  0  0
  134.2680   72.3600  225.4760 C   0  0  0  0  0  0  0  0  0  0  0  0
  134.4780   73.7040  225.2190 C   0  0  0  0  0  0  0  0  0  0  0  0
  135.3800   74.0910  224.3030 N   0  0  0  0  0  0  0  0  0  0  0  0
  137.0240   73.7230  222.5290 H   0  0  0  0  0  0  0  0  0  0  0  0
  138.1587   74.3495  220.4404 H   0  0  0  0  0  0  0  0  0  0  0  0
  138.1118   76.0879  220.9846 H   0  0  0  0  0  0  0  0  0  0  0  0
  140.4390   76.8434  223.6431 H   0  0  0  0  0  0  0  0  0  0  0  0
  142.0448   76.7978  223.0045 H   0  0  0  0  0  0  0  0  0  0  0  0
  141.1771   79.1746  222.5615 H   0  0  0  0  0  0  0  0  0  0  0  0
  138.8740   77.7320  222.3960 H   0  0  0  0  0  0  0  0  0  0  0  0
  140.6906   78.6773  219.9231 H   0  0  0  0  0  0  0  0  0  0  0  0
  142.3092   78.4047  220.5488 H   0  0  0  0  0  0  0  0  0  0  0  0
  140.4073   76.4526  219.5655 H   0  0  0  0  0  0  0  0  0  0  0  0
  142.0800   74.4610  221.5500 H   0  0  0  0  0  0  0  0  0  0  0  0
  145.3624   75.5509  220.9916 H   0  0  0  0  0  0  0  0  0  0  0  0
  147.3328   74.1361  220.5995 H   0  0  0  0  0  0  0  0  0  0  0  0
  147.0500   71.7426  219.9547 H   0  0  0  0  0  0  0  0  0  0  0  0
  146.5101   67.8480  218.6980 H   0  0  0  0  0  0  0  0  0  0  0  0
  144.2022   66.8448  218.6435 H   0  0  0  0  0  0  0  0  0  0  0  0
  142.2691   68.2589  219.2371 H   0  0  0  0  0  0  0  0  0  0  0  0
  142.7782   72.2715  220.1213 H   0  0  0  0  0  0  0  0  0  0  0  0
  135.1032   77.4363  224.4623 H   0  0  0  0  0  0  0  0  0  0  0  0
  133.4041   76.7691  226.1840 H   0  0  0  0  0  0  0  0  0  0  0  0
  132.2390   74.9804  227.4119 H   0  0  0  0  0  0  0  0  0  0  0  0
  133.1988   70.8409  226.5989 H   0  0  0  0  0  0  0  0  0  0  0  0
  134.8548   71.6178  224.9149 H   0  0  0  0  0  0  0  0  0  0  0  0
  1  2  2  0
  2  3  1  0
  3  4  1  0
  4  5  1  0
  5  6  2  0
  5  7  1  0
  7  8  1  0
  8  9  1  0
  9 10  1  0
  9 11  1  0
 11 12  1  0
 12 13  1  0
 13 14  2  0
 13 15  1  0
 15 16  1  0
 16 17  2  0
 17 18  1  0
 18 19  2  0
 19 20  1  0
 20 21  1  0
 21 22  2  0
 22 23  1  0
 23 24  2  0
 24 25  1  0
 25 26  2  0
 20 27  2  0
  2 28  1  0
 28 29  2  0
 29 30  1  0
 30 31  2  0
 31 32  1  0
 32 33  2  0
 33 34  1  0
 33 35  1  0
 35 36  2  0
 36 37  1  0
 37 38  2  0
 12  7  1  0
 27 16  1  0
 38 28  1  0
 26 21  1  0
 37 31  1  0
  3 39  1  0
  4 40  1  0
  4 41  1  0
  8 42  1  0
  8 43  1  0
  9 44  1  1
 10 45  1  0
 11 46  1  0
 11 47  1  0
 12 48  1  6
 15 49  1  0
 17 50  1  0
 18 51  1  0
 19 52  1  0
 23 53  1  0
 24 54  1  0
 25 55  1  0
 27 56  1  0
 29 57  1  0
 30 58  1  0
 32 59  1  0
 35 60  1  0
 36 61  1  0
M  END
>  <smiles>  (27) 
O=C(NCC(=O)N1C[C@H](O)C[C@H]1C(=O)Nc1cccc(-c2ncccn2)c1)c1ccc2cc(F)ccc2n1

>  <score_type>  (27) 
oracle

>  <origin>  (27) 
autodockgpu

>  <m_score__min__energy>  (27) 
-9.6600000000000001

>  <m_primary>  (27) 
energy

>  <rmsd>  (27) 
7.0725190913967575

>  <m_score__min__rmsd>  (27) 
7.0725190913967575

>  <meeko>  (27) 
{"free_energy": -8.02, "intermolecular_energy": -10.41, "internal_energy": -3.52, "cluster_size": 1, "cluster_id": 8, "rank_in_cluster": 1}

>  <energy>  (27) 
-8.89

>  <cluster_rmsd>  (27) 
0.0

>  <cluster>  (27) 
6

$$$$

     RDKit          3D

 61 65  0  0  0  0  0  0  0  0999 V2000
  139.1160   72.8420  221.9200 O   0  0  0  0  0  0  0  0  0  0  0  0
  140.1320   72.2030  222.3330 C   0  0  0  0  0  0  0  0  0  0  0  0
  141.3930   72.3090  221.6860 N   0  0  0  0  0  0  0  0  0  0  0  0
  141.5470   73.1590  220.5260 C   0  0  0  0  0  0  0  0  0  0  0  0
  141.1950   74.5610  220.7920 C   0  0  0  0  0  0  0  0  0  0  0  0
  140.9720   74.9980  221.9500 O   0  0  0  0  0  0  0  0  0  0  0  0
  141.1040   75.4480  219.6850 N   0  0  0  0  0  0  0  0  0  0  0  0
  140.0160   75.5570  218.7010 C   0  0  0  0  0  0  0  0  0  0  0  0
  140.8300   75.6030  217.4250 C   0  0  2  0  0  0  0  0  0  0  0  0
  141.3810   74.3350  217.1900 O   0  0  0  0  0  0  0  0  0  0  0  0
  141.9040   76.6090  217.7810 C   0  0  0  0  0  0  0  0  0  0  0  0
  142.0640   76.4540  219.2650 C   0  0  1  0  0  0  0  0  0  0  0  0
  141.8380   77.7400  219.9880 C   0  0  0  0  0  0  0  0  0  0  0  0
  141.6750   78.7580  219.2820 O   0  0  0  0  0  0  0  0  0  0  0  0
  141.8160   77.7610  221.4040 N   0  0  0  0  0  0  0  0  0  0  0  0
  141.6160   78.8900  222.2110 C   0  0  0  0  0  0  0  0  0  0  0  0
  142.5740   79.7890  222.6070 C   0  0  0  0  0  0  0  0  0  0  0  0
  142.3040   80.8890  223.4090 C   0  0  0  0  0  0  0  0  0  0  0  0
  141.0250   81.1240  223.8470 C   0  0  0  0  0  0  0  0  0  0  0  0
  140.0520   80.2280  223.4560 C   0  0  0  0  0  0  0  0  0  0  0  0
  138.6810   80.4360  223.8950 C   0  0  0  0  0  0  0  0  0  0  0  0
  138.4050   81.2820  224.9100 N   0  0  0  0  0  0  0  0  0  0  0  0
  137.1700   81.5290  225.3750 C   0  0  0  0  0  0  0  0  0  0  0  0
  136.1190   80.8670  224.7650 C   0  0  0  0  0  0  0  0  0  0  0  0
  136.3900   80.0030  223.7300 C   0  0  0  0  0  0  0  0  0  0  0  0
  137.6510   79.7810  223.2900 N   0  0  0  0  0  0  0  0  0  0  0  0
  140.3250   79.1380  222.6610 C   0  0  0  0  0  0  0  0  0  0  0  0
  140.0120   71.3300  223.5100 C   0  0  0  0  0  0  0  0  0  0  0  0
  139.3280   70.1350  223.4190 C   0  0  0  0  0  0  0  0  0  0  0  0
  139.2280   69.3210  224.5530 C   0  0  0  0  0  0  0  0  0  0  0  0
  139.8130   69.7230  225.7400 C   0  0  0  0  0  0  0  0  0  0  0  0
  139.7420   68.9490  226.8930 C   0  0  0  0  0  0  0  0  0  0  0  0
  140.3430   69.3890  228.0640 C   0  0  0  0  0  0  0  0  0  0  0  0
  140.2580   68.6100  229.1810 F   0  0  0  0  0  0  0  0  0  0  0  0
  141.0250   70.5900  228.1360 C   0  0  0  0  0  0  0  0  0  0  0  0
  141.0800   71.3370  226.9770 C   0  0  0  0  0  0  0  0  0  0  0  0
  140.4910   70.9250  225.7940 C   0  0  0  0  0  0  0  0  0  0  0  0
  140.5710   71.6860  224.6890 N   0  0  0  0  0  0  0  0  0  0  0  0
  142.1940   71.7450  222.0880 H   0  0  0  0  0  0  0  0  0  0  0  0
  142.5958   73.1170  220.1971 H   0  0  0  0  0  0  0  0  0  0  0  0
  140.8594   72.7878  219.7518 H   0  0  0  0  0  0  0  0  0  0  0  0
  139.3487   74.6830  218.7298 H   0  0  0  0  0  0  0  0  0  0  0  0
  139.3353   76.4080  218.8508 H   0  0  0  0  0  0  0  0  0  0  0  0
  140.2677   75.8719  216.5186 H   0  0  0  0  0  0  0  0  0  0  0  0
  140.8240   73.8530  216.5240 H   0  0  0  0  0  0  0  0  0  0  0  0
  142.8447   76.3786  217.2595 H   0  0  0  0  0  0  0  0  0  0  0  0
  141.6389   77.6354  217.4872 H   0  0  0  0  0  0  0  0  0  0  0  0
  143.0930   76.1490  219.5062 H   0  0  0  0  0  0  0  0  0  0  0  0
  141.9680   76.8290  221.8700 H   0  0  0  0  0  0  0  0  0  0  0  0
  143.6094   79.6296  222.2715 H   0  0  0  0  0  0  0  0  0  0  0  0
  143.1165   81.5735  223.6940 H   0  0  0  0  0  0  0  0  0  0  0  0
  140.7860   81.9895  224.4824 H   0  0  0  0  0  0  0  0  0  0  0  0
  137.0005   82.2288  226.2066 H   0  0  0  0  0  0  0  0  0  0  0  0
  135.0846   81.0291  225.1022 H   0  0  0  0  0  0  0  0  0  0  0  0
  135.5558   79.4756  223.2442 H   0  0  0  0  0  0  0  0  0  0  0  0
  139.5108   78.4546  222.3783 H   0  0  0  0  0  0  0  0  0  0  0  0
  138.8679   69.8266  222.4686 H   0  0  0  0  0  0  0  0  0  0  0  0
  138.6862   68.3651  224.5004 H   0  0  0  0  0  0  0  0  0  0  0  0
  139.2089   67.9869  226.8770 H   0  0  0  0  0  0  0  0  0  0  0  0
  141.4987   70.9318  229.0681 H   0  0  0  0  0  0  0  0  0  0  0  0
  141.6135   72.2988  226.9939 H   0  0  0  0  0  0  0  0  0  0  0  0
  1  2  2  0
  2  3  1  0
  3  4  1  0
  4  5  1  0
  5  6  2  0
  5  7  1  0
  7  8  1  0
  8  9  1  0
  9 10  1  0
  9 11  1  0
 11 12  1  0
 12 13  1  0
 13 14  2  0
 13 15  1  0
 15 16  1  0
 16 17  2  0
 17 18  1  0
 18 19  2  0
 19 20  1  0
 20 21  1  0
 21 22  2  0
 22 23  1  0
 23 24  2  0
 24 25  1  0
 25 26  2  0
 20 27  2  0
  2 28  1  0
 28 29  2  0
 29 30  1  0
 30 31  2  0
 31 32  1  0
 32 33  2  0
 33 34  1  0
 33 35  1  0
 35 36  2  0
 36 37  1  0
 37 38  2  0
 12  7  1  0
 27 16  1  0
 38 28  1  0
 26 21  1  0
 37 31  1  0
  3 39  1  0
  4 40  1  0
  4 41  1  0
  8 42  1  0
  8 43  1  0
  9 44  1  6
 10 45  1  0
 11 46  1  0
 11 47  1  0
 12 48  1  6
 15 49  1  0
 17 50  1  0
 18 51  1  0
 19 52  1  0
 23 53  1  0
 24 54  1  0
 25 55  1  0
 27 56  1  0
 29 57  1  0
 30 58  1  0
 32 59  1  0
 35 60  1  0
 36 61  1  0
M  END
>  <smiles>  (28) 
O=C(NCC(=O)N1C[C@H](O)C[C@H]1C(=O)Nc1cccc(-c2ncccn2)c1)c1ccc2cc(F)ccc2n1

>  <score_type>  (28) 
oracle

>  <origin>  (28) 
autodockgpu

>  <m_score__min__energy>  (28) 
-9.6600000000000001

>  <m_primary>  (28) 
energy

>  <rmsd>  (28) 
2.2421422635307526

>  <m_score__min__rmsd>  (28) 
2.2421422635307526

>  <meeko>  (28) 
{"free_energy": -9.25, "intermolecular_energy": -11.64, "internal_energy": -2.36, "cluster_size": 9, "cluster_id": 2, "rank_in_cluster": 3}

>  <energy>  (28) 
-8.67

>  <cluster_rmsd>  (28) 
1.35

>  <cluster>  (28) 
6

$$$$

     RDKit          3D

 61 65  0  0  0  0  0  0  0  0999 V2000
  138.9860   70.3800  221.3570 O   0  0  0  0  0  0  0  0  0  0  0  0
  139.2740   70.9850  222.4350 C   0  0  0  0  0  0  0  0  0  0  0  0
  139.4340   72.3970  222.4780 N   0  0  0  0  0  0  0  0  0  0  0  0
  139.2700   73.1850  221.2770 C   0  0  0  0  0  0  0  0  0  0  0  0
  139.7540   74.5650  221.4270 C   0  0  0  0  0  0  0  0  0  0  0  0
  139.6620   75.2050  222.5060 O   0  0  0  0  0  0  0  0  0  0  0  0
  140.3490   75.1900  220.2970 N   0  0  0  0  0  0  0  0  0  0  0  0
  139.7450   75.4340  218.9780 C   0  0  0  0  0  0  0  0  0  0  0  0
  140.8750   74.9600  218.0890 C   0  0  2  0  0  0  0  0  0  0  0  0
  140.9670   73.5630  218.1730 O   0  0  0  0  0  0  0  0  0  0  0  0
  142.0730   75.6260  218.7330 C   0  0  0  0  0  0  0  0  0  0  0  0
  141.6900   75.7350  220.1790 C   0  0  1  0  0  0  0  0  0  0  0  0
  141.7380   77.1450  220.6650 C   0  0  0  0  0  0  0  0  0  0  0  0
  142.0410   78.0170  219.8240 O   0  0  0  0  0  0  0  0  0  0  0  0
  141.4450   77.4370  222.0190 N   0  0  0  0  0  0  0  0  0  0  0  0
  141.4510   78.7080  222.6110 C   0  0  0  0  0  0  0  0  0  0  0  0
  142.5570   79.4650  222.9030 C   0  0  0  0  0  0  0  0  0  0  0  0
  142.4880   80.7210  223.4910 C   0  0  0  0  0  0  0  0  0  0  0  0
  141.2710   81.2660  223.8110 C   0  0  0  0  0  0  0  0  0  0  0  0
  140.1510   80.5140  223.5230 C   0  0  0  0  0  0  0  0  0  0  0  0
  138.8370   81.0510  223.8430 C   0  0  0  0  0  0  0  0  0  0  0  0
  138.2090   80.6960  224.9830 N   0  0  0  0  0  0  0  0  0  0  0  0
  136.9980   81.1440  225.3510 C   0  0  0  0  0  0  0  0  0  0  0  0
  136.3630   82.0290  224.4980 C   0  0  0  0  0  0  0  0  0  0  0  0
  136.9950   82.3980  223.3340 C   0  0  0  0  0  0  0  0  0  0  0  0
  138.2180   81.9220  222.9980 N   0  0  0  0  0  0  0  0  0  0  0  0
  140.2240   79.2690  222.9400 C   0  0  0  0  0  0  0  0  0  0  0  0
  139.4480   70.2150  223.6760 C   0  0  0  0  0  0  0  0  0  0  0  0
  139.0430   68.8980  223.7370 C   0  0  0  0  0  0  0  0  0  0  0  0
  139.2200   68.1870  224.9290 C   0  0  0  0  0  0  0  0  0  0  0  0
  139.7950   68.8100  226.0220 C   0  0  0  0  0  0  0  0  0  0  0  0
  139.9920   68.1460  227.2270 C   0  0  0  0  0  0  0  0  0  0  0  0
  140.5730   68.8090  228.2990 C   0  0  0  0  0  0  0  0  0  0  0  0
  140.7550   68.1340  229.4700 F   0  0  0  0  0  0  0  0  0  0  0  0
  140.9740   70.1300  228.2190 C   0  0  0  0  0  0  0  0  0  0  0  0
  140.7670   70.7640  227.0110 C   0  0  0  0  0  0  0  0  0  0  0  0
  140.1890   70.1300  225.9240 C   0  0  0  0  0  0  0  0  0  0  0  0
  140.0070   70.7880  224.7660 N   0  0  0  0  0  0  0  0  0  0  0  0
  139.6750   72.8290  223.4140 H   0  0  0  0  0  0  0  0  0  0  0  0
  139.8303   72.7033  220.4621 H   0  0  0  0  0  0  0  0  0  0  0  0
  138.1928   73.2350  221.0598 H   0  0  0  0  0  0  0  0  0  0  0  0
  138.8308   74.8404  218.8300 H   0  0  0  0  0  0  0  0  0  0  0  0
  139.4142   76.4679  218.8005 H   0  0  0  0  0  0  0  0  0  0  0  0
  140.7653   75.2021  217.0216 H   0  0  0  0  0  0  0  0  0  0  0  0
  141.5530   73.2280  217.4450 H   0  0  0  0  0  0  0  0  0  0  0  0
  142.9757   75.0090  218.6125 H   0  0  0  0  0  0  0  0  0  0  0  0
  142.3102   76.6008  218.2820 H   0  0  0  0  0  0  0  0  0  0  0  0
  142.4032   75.1775  220.8040 H   0  0  0  0  0  0  0  0  0  0  0  0
  141.2050   76.6030  222.6180 H   0  0  0  0  0  0  0  0  0  0  0  0
  143.5487   79.0564  222.6590 H   0  0  0  0  0  0  0  0  0  0  0  0
  143.4118   81.2802  223.7006 H   0  0  0  0  0  0  0  0  0  0  0  0
  141.1914   82.2593  224.2769 H   0  0  0  0  0  0  0  0  0  0  0  0
  136.5298   80.8206  226.2924 H   0  0  0  0  0  0  0  0  0  0  0  0
  135.3696   82.4305  224.7468 H   0  0  0  0  0  0  0  0  0  0  0  0
  136.4919   83.1016  222.6544 H   0  0  0  0  0  0  0  0  0  0  0  0
  139.2988   78.7116  222.7322 H   0  0  0  0  0  0  0  0  0  0  0  0
  138.5873   68.4134  222.8609 H   0  0  0  0  0  0  0  0  0  0  0  0
  138.9029   67.1359  224.9967 H   0  0  0  0  0  0  0  0  0  0  0  0
  139.6872   67.0942  227.3312 H   0  0  0  0  0  0  0  0  0  0  0  0
  141.4338   70.6482  229.0734 H   0  0  0  0  0  0  0  0  0  0  0  0
  141.0735   71.8153  226.9073 H   0  0  0  0  0  0  0  0  0  0  0  0
  1  2  2  0
  2  3  1  0
  3  4  1  0
  4  5  1  0
  5  6  2  0
  5  7  1  0
  7  8  1  0
  8  9  1  0
  9 10  1  0
  9 11  1  0
 11 12  1  0
 12 13  1  0
 13 14  2  0
 13 15  1  0
 15 16  1  0
 16 17  2  0
 17 18  1  0
 18 19  2  0
 19 20  1  0
 20 21  1  0
 21 22  2  0
 22 23  1  0
 23 24  2  0
 24 25  1  0
 25 26  2  0
 20 27  2  0
  2 28  1  0
 28 29  2  0
 29 30  1  0
 30 31  2  0
 31 32  1  0
 32 33  2  0
 33 34  1  0
 33 35  1  0
 35 36  2  0
 36 37  1  0
 37 38  2  0
 12  7  1  0
 27 16  1  0
 38 28  1  0
 26 21  1  0
 37 31  1  0
  3 39  1  0
  4 40  1  0
  4 41  1  0
  8 42  1  0
  8 43  1  0
  9 44  1  6
 10 45  1  0
 11 46  1  0
 11 47  1  0
 12 48  1  1
 15 49  1  0
 17 50  1  0
 18 51  1  0
 19 52  1  0
 23 53  1  0
 24 54  1  0
 25 55  1  0
 27 56  1  0
 29 57  1  0
 30 58  1  0
 32 59  1  0
 35 60  1  0
 36 61  1  0
M  END
>  <smiles>  (29) 
O=C(NCC(=O)N1C[C@H](O)C[C@H]1C(=O)Nc1cccc(-c2ncccn2)c1)c1ccc2cc(F)ccc2n1

>  <score_type>  (29) 
oracle

>  <origin>  (29) 
autodockgpu

>  <m_score__min__energy>  (29) 
-9.6600000000000001

>  <m_primary>  (29) 
energy

>  <rmsd>  (29) 
1.9476522546903465

>  <m_score__min__rmsd>  (29) 
1.9476522546903465

>  <meeko>  (29) 
{"free_energy": -9.03, "intermolecular_energy": -11.42, "internal_energy": -2.79, "cluster_size": 9, "cluster_id": 2, "rank_in_cluster": 5}

>  <energy>  (29) 
-8.29

>  <cluster_rmsd>  (29) 
0.77

>  <cluster>  (29) 
6

$$$$

     RDKit          3D

 61 65  0  0  0  0  0  0  0  0999 V2000
  141.9110   77.7130  217.3290 O   0  0  0  0  0  0  0  0  0  0  0  0
  141.8320   77.4100  218.5590 C   0  0  0  0  0  0  0  0  0  0  0  0
  141.7340   76.0590  218.9900 N   0  0  0  0  0  0  0  0  0  0  0  0
  141.7210   74.9850  218.0220 C   0  0  0  0  0  0  0  0  0  0  0  0
  143.0070   74.2770  217.9340 C   0  0  0  0  0  0  0  0  0  0  0  0
  143.5910   74.0600  216.8410 O   0  0  0  0  0  0  0  0  0  0  0  0
  143.6030   73.8240  219.1430 N   0  0  0  0  0  0  0  0  0  0  0  0
  144.6040   74.5150  219.9700 C   0  0  0  0  0  0  0  0  0  0  0  0
  145.5690   73.3720  220.2080 C   0  0  2  0  0  0  0  0  0  0  0  0
  146.2450   73.0890  219.0120 O   0  0  0  0  0  0  0  0  0  0  0  0
  144.6270   72.2470  220.5820 C   0  0  0  0  0  0  0  0  0  0  0  0
  143.3630   72.5750  219.8440 C   0  0  1  0  0  0  0  0  0  0  0  0
  142.1950   72.6960  220.7640 C   0  0  0  0  0  0  0  0  0  0  0  0
  141.8480   73.8540  221.0790 O   0  0  0  0  0  0  0  0  0  0  0  0
  141.5390   71.5320  221.2330 N   0  0  0  0  0  0  0  0  0  0  0  0
  140.4360   71.4950  222.0980 C   0  0  0  0  0  0  0  0  0  0  0  0
  139.1230   71.6940  221.7520 C   0  0  0  0  0  0  0  0  0  0  0  0
  138.0780   71.6410  222.6640 C   0  0  0  0  0  0  0  0  0  0  0  0
  138.3300   71.3800  223.9870 C   0  0  0  0  0  0  0  0  0  0  0  0
  139.6460   71.1780  224.3470 C   0  0  0  0  0  0  0  0  0  0  0  0
  139.9630   70.8960  225.7390 C   0  0  0  0  0  0  0  0  0  0  0  0
  139.5550   69.7480  226.3180 N   0  0  0  0  0  0  0  0  0  0  0  0
  139.8050   69.4130  227.5940 C   0  0  0  0  0  0  0  0  0  0  0  0
  140.5300   70.3130  228.3550 C   0  0  0  0  0  0  0  0  0  0  0  0
  140.9500   71.4860  227.7740 C   0  0  0  0  0  0  0  0  0  0  0  0
  140.6770   71.7870  226.4820 N   0  0  0  0  0  0  0  0  0  0  0  0
  140.6800   71.2310  223.4400 C   0  0  0  0  0  0  0  0  0  0  0  0
  141.8420   78.4770  219.5710 C   0  0  0  0  0  0  0  0  0  0  0  0
  141.8090   79.8000  219.1840 C   0  0  0  0  0  0  0  0  0  0  0  0
  141.8190   80.7970  220.1670 C   0  0  0  0  0  0  0  0  0  0  0  0
  141.8620   80.4430  221.5030 C   0  0  0  0  0  0  0  0  0  0  0  0
  141.8730   81.3960  222.5160 C   0  0  0  0  0  0  0  0  0  0  0  0
  141.9170   80.9970  223.8440 C   0  0  0  0  0  0  0  0  0  0  0  0
  141.9270   81.9530  224.8180 F   0  0  0  0  0  0  0  0  0  0  0  0
  141.9490   79.6650  224.2140 C   0  0  0  0  0  0  0  0  0  0  0  0
  141.9360   78.7420  223.1880 C   0  0  0  0  0  0  0  0  0  0  0  0
  141.8940   79.1080  221.8540 C   0  0  0  0  0  0  0  0  0  0  0  0
  141.8830   78.1720  220.8890 N   0  0  0  0  0  0  0  0  0  0  0  0
  141.6720   75.8860  220.0320 H   0  0  0  0  0  0  0  0  0  0  0  0
  140.9421   74.2633  218.3092 H   0  0  0  0  0  0  0  0  0  0  0  0
  141.5225   75.4317  217.0366 H   0  0  0  0  0  0  0  0  0  0  0  0
  145.0792   75.3465  219.4289 H   0  0  0  0  0  0  0  0  0  0  0  0
  144.2098   74.9904  220.8803 H   0  0  0  0  0  0  0  0  0  0  0  0
  146.3424   73.5612  220.9670 H   0  0  0  0  0  0  0  0  0  0  0  0
  146.2320   73.8940  218.4290 H   0  0  0  0  0  0  0  0  0  0  0  0
  145.0289   71.2758  220.2576 H   0  0  0  0  0  0  0  0  0  0  0  0
  144.4749   72.1643  221.6683 H   0  0  0  0  0  0  0  0  0  0  0  0
  143.1110   71.7658  219.1428 H   0  0  0  0  0  0  0  0  0  0  0  0
  141.9390   70.6200  220.8870 H   0  0  0  0  0  0  0  0  0  0  0  0
  138.8868   71.9062  220.6988 H   0  0  0  0  0  0  0  0  0  0  0  0
  137.0451   71.8087  222.3250 H   0  0  0  0  0  0  0  0  0  0  0  0
  137.5183   71.3339  224.7280 H   0  0  0  0  0  0  0  0  0  0  0  0
  139.4482   68.4623  228.0169 H   0  0  0  0  0  0  0  0  0  0  0  0
  140.7662   70.0937  229.4067 H   0  0  0  0  0  0  0  0  0  0  0  0
  141.5260   72.2028  228.3776 H   0  0  0  0  0  0  0  0  0  0  0  0
  141.7118   71.0623  223.7818 H   0  0  0  0  0  0  0  0  0  0  0  0
  141.7753   80.0685  218.1178 H   0  0  0  0  0  0  0  0  0  0  0  0
  141.7927   81.8579  219.8776 H   0  0  0  0  0  0  0  0  0  0  0  0
  141.8468   82.4665  222.2641 H   0  0  0  0  0  0  0  0  0  0  0  0
  141.9830   79.3575  225.2696 H   0  0  0  0  0  0  0  0  0  0  0  0
  141.9600   77.6717  223.4409 H   0  0  0  0  0  0  0  0  0  0  0  0
  1  2  2  0
  2  3  1  0
  3  4  1  0
  4  5  1  0
  5  6  2  0
  5  7  1  0
  7  8  1  0
  8  9  1  0
  9 10  1  0
  9 11  1  0
 11 12  1  0
 12 13  1  0
 13 14  2  0
 13 15  1  0
 15 16  1  0
 16 17  2  0
 17 18  1  0
 18 19  2  0
 19 20  1  0
 20 21  1  0
 21 22  2  0
 22 23  1  0
 23 24  2  0
 24 25  1  0
 25 26  2  0
 20 27  2  0
  2 28  1  0
 28 29  2  0
 29 30  1  0
 30 31  2  0
 31 32  1  0
 32 33  2  0
 33 34  1  0
 33 35  1  0
 35 36  2  0
 36 37  1  0
 37 38  2  0
 12  7  1  0
 27 16  1  0
 38 28  1  0
 26 21  1  0
 37 31  1  0
  3 39  1  0
  4 40  1  0
  4 41  1  0
  8 42  1  0
  8 43  1  0
  9 44  1  1
 10 45  1  0
 11 46  1  0
 11 47  1  0
 12 48  1  6
 15 49  1  0
 17 50  1  0
 18 51  1  0
 19 52  1  0
 23 53  1  0
 24 54  1  0
 25 55  1  0
 27 56  1  0
 29 57  1  0
 30 58  1  0
 32 59  1  0
 35 60  1  0
 36 61  1  0
M  END
>  <smiles>  (30) 
O=C(NCC(=O)N1C[C@H](O)C[C@H]1C(=O)Nc1cccc(-c2ncccn2)c1)c1ccc2cc(F)ccc2n1

>  <score_type>  (30) 
oracle

>  <origin>  (30) 
autodockgpu

>  <m_score__min__energy>  (30) 
-9.6600000000000001

>  <m_primary>  (30) 
energy

>  <rmsd>  (30) 
9.175688214858967

>  <m_score__min__rmsd>  (30) 
9.175688214858967

>  <meeko>  (30) 
{"free_energy": -9.25, "intermolecular_energy": -11.64, "internal_energy": -2.74, "cluster_size": 9, "cluster_id": 3, "rank_in_cluster": 3}

>  <energy>  (30) 
-8.26

>  <cluster_rmsd>  (30) 
0.81

>  <cluster>  (30) 
6

$$$$

     RDKit          3D

 61 65  0  0  0  0  0  0  0  0999 V2000
  140.9340   76.4660  218.4830 O   0  0  0  0  0  0  0  0  0  0  0  0
  142.0210   77.0670  218.7390 C   0  0  0  0  0  0  0  0  0  0  0  0
  143.2510   76.6730  218.1440 N   0  0  0  0  0  0  0  0  0  0  0  0
  143.2890   75.5610  217.2200 C   0  0  0  0  0  0  0  0  0  0  0  0
  142.7210   74.3280  217.7830 C   0  0  0  0  0  0  0  0  0  0  0  0
  141.8140   73.6710  217.2090 O   0  0  0  0  0  0  0  0  0  0  0  0
  143.2250   73.8700  219.0310 N   0  0  0  0  0  0  0  0  0  0  0  0
  144.3740   74.3930  219.7870 C   0  0  0  0  0  0  0  0  0  0  0  0
  145.0620   73.0890  220.1370 C   0  0  2  0  0  0  0  0  0  0  0  0
  145.6310   72.5470  218.9750 O   0  0  0  0  0  0  0  0  0  0  0  0
  143.8990   72.2480  220.6200 C   0  0  0  0  0  0  0  0  0  0  0  0
  142.7260   72.7810  219.8520 C   0  0  1  0  0  0  0  0  0  0  0  0
  141.6350   73.2520  220.7550 C   0  0  0  0  0  0  0  0  0  0  0  0
  141.6130   72.7680  221.9070 O   0  0  0  0  0  0  0  0  0  0  0  0
  140.6930   74.2020  220.2910 N   0  0  0  0  0  0  0  0  0  0  0  0
  139.6210   74.7300  221.0250 C   0  0  0  0  0  0  0  0  0  0  0  0
  138.5640   74.0270  221.5450 C   0  0  0  0  0  0  0  0  0  0  0  0
  137.5350   74.6170  222.2650 C   0  0  0  0  0  0  0  0  0  0  0  0
  137.5400   75.9710  222.4900 C   0  0  0  0  0  0  0  0  0  0  0  0
  138.5970   76.6890  221.9720 C   0  0  0  0  0  0  0  0  0  0  0  0
  138.6470   78.1280  222.1860 C   0  0  0  0  0  0  0  0  0  0  0  0
  138.5240   78.9810  221.1480 N   0  0  0  0  0  0  0  0  0  0  0  0
  138.5590   80.3180  221.2590 C   0  0  0  0  0  0  0  0  0  0  0  0
  138.7320   80.8450  222.5270 C   0  0  0  0  0  0  0  0  0  0  0  0
  138.8570   79.9840  223.5920 C   0  0  0  0  0  0  0  0  0  0  0  0
  138.8160   78.6390  223.4370 N   0  0  0  0  0  0  0  0  0  0  0  0
  139.6160   76.1000  221.2590 C   0  0  0  0  0  0  0  0  0  0  0  0
  142.0210   78.2020  219.6740 C   0  0  0  0  0  0  0  0  0  0  0  0
  141.9350   79.4930  219.1970 C   0  0  0  0  0  0  0  0  0  0  0  0
  141.9350   80.5560  220.1070 C   0  0  0  0  0  0  0  0  0  0  0  0
  142.0220   80.2990  221.4630 C   0  0  0  0  0  0  0  0  0  0  0  0
  142.0260   81.3210  222.4060 C   0  0  0  0  0  0  0  0  0  0  0  0
  142.1150   81.0190  223.7580 C   0  0  0  0  0  0  0  0  0  0  0  0
  142.1170   82.0400  224.6620 F   0  0  0  0  0  0  0  0  0  0  0  0
  142.2010   79.7180  224.2180 C   0  0  0  0  0  0  0  0  0  0  0  0
  142.1940   78.7240  223.2600 C   0  0  0  0  0  0  0  0  0  0  0  0
  142.1070   78.9940  221.9050 C   0  0  0  0  0  0  0  0  0  0  0  0
  142.1040   77.9920  221.0080 N   0  0  0  0  0  0  0  0  0  0  0  0
  144.1160   77.2220  218.4070 H   0  0  0  0  0  0  0  0  0  0  0  0
  142.7162   75.8324  216.3210 H   0  0  0  0  0  0  0  0  0  0  0  0
  144.3456   75.3611  216.9884 H   0  0  0  0  0  0  0  0  0  0  0  0
  145.0124   75.0396  219.1670 H   0  0  0  0  0  0  0  0  0  0  0  0
  144.1167   75.0303  220.6458 H   0  0  0  0  0  0  0  0  0  0  0  0
  145.8746   73.1698  220.8739 H   0  0  0  0  0  0  0  0  0  0  0  0
  145.0060   72.6740  218.2130 H   0  0  0  0  0  0  0  0  0  0  0  0
  144.0644   71.1843  220.3937 H   0  0  0  0  0  0  0  0  0  0  0  0
  143.7557   72.3071  221.7090 H   0  0  0  0  0  0  0  0  0  0  0  0
  142.2839   71.9856  219.2340 H   0  0  0  0  0  0  0  0  0  0  0  0
  140.8310   74.5240  219.2980 H   0  0  0  0  0  0  0  0  0  0  0  0
  138.5304   72.9395  221.3828 H   0  0  0  0  0  0  0  0  0  0  0  0
  136.7138   73.9985  222.6562 H   0  0  0  0  0  0  0  0  0  0  0  0
  136.7362   76.4616  223.0585 H   0  0  0  0  0  0  0  0  0  0  0  0
  138.4545   80.9685  220.3781 H   0  0  0  0  0  0  0  0  0  0  0  0
  138.7689   81.9336  222.6802 H   0  0  0  0  0  0  0  0  0  0  0  0
  138.9945   80.4004  224.6008 H   0  0  0  0  0  0  0  0  0  0  0  0
  140.4363   76.7208  220.8696 H   0  0  0  0  0  0  0  0  0  0  0  0
  141.8673   79.6846  218.1159 H   0  0  0  0  0  0  0  0  0  0  0  0
  141.8660   81.5924  219.7450 H   0  0  0  0  0  0  0  0  0  0  0  0
  141.9586   82.3695  222.0804 H   0  0  0  0  0  0  0  0  0  0  0  0
  142.2713   79.4870  225.2912 H   0  0  0  0  0  0  0  0  0  0  0  0
  142.2602   77.6756  223.5863 H   0  0  0  0  0  0  0  0  0  0  0  0
  1  2  2  0
  2  3  1  0
  3  4  1  0
  4  5  1  0
  5  6  2  0
  5  7  1  0
  7  8  1  0
  8  9  1  0
  9 10  1  0
  9 11  1  0
 11 12  1  0
 12 13  1  0
 13 14  2  0
 13 15  1  0
 15 16  1  0
 16 17  2  0
 17 18  1  0
 18 19  2  0
 19 20  1  0
 20 21  1  0
 21 22  2  0
 22 23  1  0
 23 24  2  0
 24 25  1  0
 25 26  2  0
 20 27  2  0
  2 28  1  0
 28 29  2  0
 29 30  1  0
 30 31  2  0
 31 32  1  0
 32 33  2  0
 33 34  1  0
 33 35  1  0
 35 36  2  0
 36 37  1  0
 37 38  2  0
 12  7  1  0
 27 16  1  0
 38 28  1  0
 26 21  1  0
 37 31  1  0
  3 39  1  0
  4 40  1  0
  4 41  1  0
  8 42  1  0
  8 43  1  0
  9 44  1  1
 10 45  1  0
 11 46  1  0
 11 47  1  0
 12 48  1  6
 15 49  1  0
 17 50  1  0
 18 51  1  0
 19 52  1  0
 23 53  1  0
 24 54  1  0
 25 55  1  0
 27 56  1  0
 29 57  1  0
 30 58  1  0
 32 59  1  0
 35 60  1  0
 36 61  1  0
M  END
>  <smiles>  (31) 
O=C(NCC(=O)N1C[C@H](O)C[C@H]1C(=O)Nc1cccc(-c2ncccn2)c1)c1ccc2cc(F)ccc2n1

>  <score_type>  (31) 
oracle

>  <origin>  (31) 
autodockgpu

>  <m_score__min__energy>  (31) 
-9.6600000000000001

>  <m_primary>  (31) 
energy

>  <rmsd>  (31) 
8.348640760561693

>  <m_score__min__rmsd>  (31) 
8.348640760561693

>  <meeko>  (31) 
{"free_energy": -6.65, "intermolecular_energy": -9.03, "internal_energy": -4.97, "cluster_size": 2, "cluster_id": 14, "rank_in_cluster": 2}

>  <energy>  (31) 
-8.15

>  <cluster_rmsd>  (31) 
1.21

>  <cluster>  (31) 
6

$$$$

     RDKit          3D

 61 65  0  0  0  0  0  0  0  0999 V2000
  139.8090   71.4550  222.3440 O   0  0  0  0  0  0  0  0  0  0  0  0
  139.9970   72.4870  221.6310 C   0  0  0  0  0  0  0  0  0  0  0  0
  140.9690   72.5110  220.5920 N   0  0  0  0  0  0  0  0  0  0  0  0
  141.7750   71.3410  220.3240 C   0  0  0  0  0  0  0  0  0  0  0  0
  142.7110   71.5340  219.2070 C   0  0  0  0  0  0  0  0  0  0  0  0
  142.6500   70.8630  218.1440 O   0  0  0  0  0  0  0  0  0  0  0  0
  143.7220   72.5230  219.3480 N   0  0  0  0  0  0  0  0  0  0  0  0
  144.7730   72.8840  218.3830 C   0  0  0  0  0  0  0  0  0  0  0  0
  145.9670   72.9260  219.3130 C   0  0  2  0  0  0  0  0  0  0  0  0
  146.2900   71.6170  219.7000 O   0  0  0  0  0  0  0  0  0  0  0  0
  145.4230   73.7220  220.4790 C   0  0  0  0  0  0  0  0  0  0  0  0
  143.9550   73.4090  220.4750 C   0  0  1  0  0  0  0  0  0  0  0  0
  143.1220   74.6420  220.3650 C   0  0  0  0  0  0  0  0  0  0  0  0
  142.2190   74.7850  221.2160 O   0  0  0  0  0  0  0  0  0  0  0  0
  143.3760   75.5780  219.3330 N   0  0  0  0  0  0  0  0  0  0  0  0
  142.6760   76.7730  219.1090 C   0  0  0  0  0  0  0  0  0  0  0  0
  142.1480   77.1970  217.9170 C   0  0  0  0  0  0  0  0  0  0  0  0
  141.4640   78.3950  217.7680 C   0  0  0  0  0  0  0  0  0  0  0  0
  141.2860   79.2250  218.8460 C   0  0  0  0  0  0  0  0  0  0  0  0
  141.8120   78.8100  220.0510 C   0  0  0  0  0  0  0  0  0  0  0  0
  141.6480   79.6570  221.2230 C   0  0  0  0  0  0  0  0  0  0  0  0
  140.8620   80.7520  221.1750 N   0  0  0  0  0  0  0  0  0  0  0  0
  140.6580   81.5830  222.2100 C   0  0  0  0  0  0  0  0  0  0  0  0
  141.3020   81.2860  223.3980 C   0  0  0  0  0  0  0  0  0  0  0  0
  142.1050   80.1720  223.4570 C   0  0  0  0  0  0  0  0  0  0  0  0
  142.2850   79.3580  222.3900 N   0  0  0  0  0  0  0  0  0  0  0  0
  142.4900   77.6210  220.1940 C   0  0  0  0  0  0  0  0  0  0  0  0
  139.1950   73.6950  221.8760 C   0  0  0  0  0  0  0  0  0  0  0  0
  137.8180   73.6190  221.9040 C   0  0  0  0  0  0  0  0  0  0  0  0
  137.0780   74.7830  222.1400 C   0  0  0  0  0  0  0  0  0  0  0  0
  137.7320   75.9850  222.3390 C   0  0  0  0  0  0  0  0  0  0  0  0
  137.0410   77.1680  222.5770 C   0  0  0  0  0  0  0  0  0  0  0  0
  137.7370   78.3520  222.7720 C   0  0  0  0  0  0  0  0  0  0  0  0
  137.0340   79.4980  223.0040 F   0  0  0  0  0  0  0  0  0  0  0  0
  139.1180   78.4100  222.7410 C   0  0  0  0  0  0  0  0  0  0  0  0
  139.7780   77.2210  222.5030 C   0  0  0  0  0  0  0  0  0  0  0  0
  139.1120   76.0230  222.3050 C   0  0  0  0  0  0  0  0  0  0  0  0
  139.7980   74.8900  222.0770 N   0  0  0  0  0  0  0  0  0  0  0  0
  141.0680   73.4080  220.0410 H   0  0  0  0  0  0  0  0  0  0  0  0
  142.3528   71.0984  221.2280 H   0  0  0  0  0  0  0  0  0  0  0  0
  141.0909   70.5263  220.0441 H   0  0  0  0  0  0  0  0  0  0  0  0
  144.8901   72.1204  217.5999 H   0  0  0  0  0  0  0  0  0  0  0  0
  144.5893   73.8090  217.8168 H   0  0  0  0  0  0  0  0  0  0  0  0
  146.8817   73.3593  218.8822 H   0  0  0  0  0  0  0  0  0  0  0  0
  146.1770   71.5280  220.6830 H   0  0  0  0  0  0  0  0  0  0  0  0
  145.8889   73.4022  221.4227 H   0  0  0  0  0  0  0  0  0  0  0  0
  145.6277   74.7991  220.3901 H   0  0  0  0  0  0  0  0  0  0  0  0
  143.6647   72.9333  221.4234 H   0  0  0  0  0  0  0  0  0  0  0  0
  144.1680   75.3300  218.6850 H   0  0  0  0  0  0  0  0  0  0  0  0
  142.2730   76.5543  217.0331 H   0  0  0  0  0  0  0  0  0  0  0  0
  141.0637   78.6799  216.7838 H   0  0  0  0  0  0  0  0  0  0  0  0
  140.7473   80.1795  218.7529 H   0  0  0  0  0  0  0  0  0  0  0  0
  140.0056   82.4638  222.1171 H   0  0  0  0  0  0  0  0  0  0  0  0
  141.1736   81.9304  224.2802 H   0  0  0  0  0  0  0  0  0  0  0  0
  142.6176   79.9342  224.4008 H   0  0  0  0  0  0  0  0  0  0  0  0
  142.8896   77.3385  221.1792 H   0  0  0  0  0  0  0  0  0  0  0  0
  137.3089   72.6573  221.7431 H   0  0  0  0  0  0  0  0  0  0  0  0
  135.9791   74.7419  222.1671 H   0  0  0  0  0  0  0  0  0  0  0  0
  135.9415   77.1649  222.6107 H   0  0  0  0  0  0  0  0  0  0  0  0
  139.6619   79.3532  222.8976 H   0  0  0  0  0  0  0  0  0  0  0  0
  140.8775   77.2254  222.4693 H   0  0  0  0  0  0  0  0  0  0  0  0
  1  2  2  0
  2  3  1  0
  3  4  1  0
  4  5  1  0
  5  6  2  0
  5  7  1  0
  7  8  1  0
  8  9  1  0
  9 10  1  0
  9 11  1  0
 11 12  1  0
 12 13  1  0
 13 14  2  0
 13 15  1  0
 15 16  1  0
 16 17  2  0
 17 18  1  0
 18 19  2  0
 19 20  1  0
 20 21  1  0
 21 22  2  0
 22 23  1  0
 23 24  2  0
 24 25  1  0
 25 26  2  0
 20 27  2  0
  2 28  1  0
 28 29  2  0
 29 30  1  0
 30 31  2  0
 31 32  1  0
 32 33  2  0
 33 34  1  0
 33 35  1  0
 35 36  2  0
 36 37  1  0
 37 38  2  0
 12  7  1  0
 27 16  1  0
 38 28  1  0
 26 21  1  0
 37 31  1  0
  3 39  1  0
  4 40  1  0
  4 41  1  0
  8 42  1  0
  8 43  1  0
  9 44  1  6
 10 45  1  0
 11 46  1  0
 11 47  1  0
 12 48  1  1
 15 49  1  0
 17 50  1  0
 18 51  1  0
 19 52  1  0
 23 53  1  0
 24 54  1  0
 25 55  1  0
 27 56  1  0
 29 57  1  0
 30 58  1  0
 32 59  1  0
 35 60  1  0
 36 61  1  0
M  END
>  <smiles>  (32) 
O=C(NCC(=O)N1C[C@H](O)C[C@H]1C(=O)Nc1cccc(-c2ncccn2)c1)c1ccc2cc(F)ccc2n1

>  <score_type>  (32) 
oracle

>  <origin>  (32) 
autodockgpu

>  <m_score__min__energy>  (32) 
-9.6600000000000001

>  <m_primary>  (32) 
energy

>  <rmsd>  (32) 
6.140742403441335

>  <m_score__min__rmsd>  (32) 
6.140742403441335

>  <meeko>  (32) 
{"free_energy": -7.53, "intermolecular_energy": -9.92, "internal_energy": -3.62, "cluster_size": 4, "cluster_id": 12, "rank_in_cluster": 1}

>  <energy>  (32) 
-7.91

>  <cluster_rmsd>  (32) 
1.89

>  <cluster>  (32) 
6

$$$$

     RDKit          3D

 61 65  0  0  0  0  0  0  0  0999 V2000
  137.5290   70.7690  221.2240 O   0  0  0  0  0  0  0  0  0  0  0  0
  137.7560   71.2960  222.3560 C   0  0  0  0  0  0  0  0  0  0  0  0
  137.3790   72.6370  222.6440 N   0  0  0  0  0  0  0  0  0  0  0  0
  136.7210   73.4400  221.6380 C   0  0  0  0  0  0  0  0  0  0  0  0
  137.5930   73.7600  220.4990 C   0  0  0  0  0  0  0  0  0  0  0  0
  137.1530   73.9440  219.3340 O   0  0  0  0  0  0  0  0  0  0  0  0
  138.9910   73.8610  220.7370 N   0  0  0  0  0  0  0  0  0  0  0  0
  140.0900   73.5720  219.8020 C   0  0  0  0  0  0  0  0  0  0  0  0
  140.9820   72.7480  220.7070 C   0  0  2  0  0  0  0  0  0  0  0  0
  140.3810   71.5010  220.9290 O   0  0  0  0  0  0  0  0  0  0  0  0
  140.9940   73.5830  221.9700 C   0  0  0  0  0  0  0  0  0  0  0  0
  139.6620   74.2740  221.9570 C   0  0  1  0  0  0  0  0  0  0  0  0
  139.8040   75.7590  222.0110 C   0  0  0  0  0  0  0  0  0  0  0  0
  138.7640   76.4270  221.8290 O   0  0  0  0  0  0  0  0  0  0  0  0
  141.0710   76.3400  222.2590 N   0  0  0  0  0  0  0  0  0  0  0  0
  141.3500   77.7130  222.3360 C   0  0  0  0  0  0  0  0  0  0  0  0
  141.4730   78.4560  223.4830 C   0  0  0  0  0  0  0  0  0  0  0  0
  141.7530   79.8150  223.4840 C   0  0  0  0  0  0  0  0  0  0  0  0
  141.9220   80.4850  222.2990 C   0  0  0  0  0  0  0  0  0  0  0  0
  141.8000   79.7490  221.1390 C   0  0  0  0  0  0  0  0  0  0  0  0
  141.9720   80.4160  219.8570 C   0  0  0  0  0  0  0  0  0  0  0  0
  141.7100   81.7330  219.7270 N   0  0  0  0  0  0  0  0  0  0  0  0
  141.8420   82.4210  218.5820 C   0  0  0  0  0  0  0  0  0  0  0  0
  142.2770   81.7230  217.4680 C   0  0  0  0  0  0  0  0  0  0  0  0
  142.5470   80.3800  217.5910 C   0  0  0  0  0  0  0  0  0  0  0  0
  142.4000   79.7220  218.7660 N   0  0  0  0  0  0  0  0  0  0  0  0
  141.5220   78.4010  221.1420 C   0  0  0  0  0  0  0  0  0  0  0  0
  138.4230   70.5090  223.4030 C   0  0  0  0  0  0  0  0  0  0  0  0
  138.4110   69.1310  223.3490 C   0  0  0  0  0  0  0  0  0  0  0  0
  139.0540   68.4050  224.3570 C   0  0  0  0  0  0  0  0  0  0  0  0
  139.6880   69.0740  225.3880 C   0  0  0  0  0  0  0  0  0  0  0  0
  140.3410   68.3970  226.4120 C   0  0  0  0  0  0  0  0  0  0  0  0
  140.9650   69.1080  227.4270 C   0  0  0  0  0  0  0  0  0  0  0  0
  141.5980   68.4190  228.4200 F   0  0  0  0  0  0  0  0  0  0  0  0
  140.9680   70.4900  227.4660 C   0  0  0  0  0  0  0  0  0  0  0  0
  140.3130   71.1350  226.4370 C   0  0  0  0  0  0  0  0  0  0  0  0
  139.6810   70.4540  225.4100 C   0  0  0  0  0  0  0  0  0  0  0  0
  139.0560   71.1260  224.4280 N   0  0  0  0  0  0  0  0  0  0  0  0
  137.6020   73.0070  223.6100 H   0  0  0  0  0  0  0  0  0  0  0  0
  135.8459   72.8874  221.2653 H   0  0  0  0  0  0  0  0  0  0  0  0
  136.4347   74.3909  222.1110 H   0  0  0  0  0  0  0  0  0  0  0  0
  139.7459   72.9957  218.9306 H   0  0  0  0  0  0  0  0  0  0  0  0
  140.5675   74.4563  219.3549 H   0  0  0  0  0  0  0  0  0  0  0  0
  141.9884   72.5426  220.3134 H   0  0  0  0  0  0  0  0  0  0  0  0
  139.4510   71.5180  220.5810 H   0  0  0  0  0  0  0  0  0  0  0  0
  141.0955   72.9450  222.8603 H   0  0  0  0  0  0  0  0  0  0  0  0
  141.8378   74.2878  222.0051 H   0  0  0  0  0  0  0  0  0  0  0  0
  139.0792   73.9942  222.8470 H   0  0  0  0  0  0  0  0  0  0  0  0
  141.8610   75.6570  222.3940 H   0  0  0  0  0  0  0  0  0  0  0  0
  141.3431   77.9488  224.4504 H   0  0  0  0  0  0  0  0  0  0  0  0
  141.8397   80.3565  224.4375 H   0  0  0  0  0  0  0  0  0  0  0  0
  142.1450   81.5619  222.2750 H   0  0  0  0  0  0  0  0  0  0  0  0
  141.6138   83.4958  218.5307 H   0  0  0  0  0  0  0  0  0  0  0  0
  142.4043   82.2335  216.5020 H   0  0  0  0  0  0  0  0  0  0  0  0
  142.8930   79.8229  216.7079 H   0  0  0  0  0  0  0  0  0  0  0  0
  141.4350   77.8621  220.1870 H   0  0  0  0  0  0  0  0  0  0  0  0
  137.9026   68.6099  222.5244 H   0  0  0  0  0  0  0  0  0  0  0  0
  139.0554   67.3053  224.3297 H   0  0  0  0  0  0  0  0  0  0  0  0
  140.3629   67.2972  226.4174 H   0  0  0  0  0  0  0  0  0  0  0  0
  141.4660   71.0457  228.2742 H   0  0  0  0  0  0  0  0  0  0  0  0
  140.2920   72.2348  226.4322 H   0  0  0  0  0  0  0  0  0  0  0  0
  1  2  2  0
  2  3  1  0
  3  4  1  0
  4  5  1  0
  5  6  2  0
  5  7  1  0
  7  8  1  0
  8  9  1  0
  9 10  1  0
  9 11  1  0
 11 12  1  0
 12 13  1  0
 13 14  2  0
 13 15  1  0
 15 16  1  0
 16 17  2  0
 17 18  1  0
 18 19  2  0
 19 20  1  0
 20 21  1  0
 21 22  2  0
 22 23  1  0
 23 24  2  0
 24 25  1  0
 25 26  2  0
 20 27  2  0
  2 28  1  0
 28 29  2  0
 29 30  1  0
 30 31  2  0
 31 32  1  0
 32 33  2  0
 33 34  1  0
 33 35  1  0
 35 36  2  0
 36 37  1  0
 37 38  2  0
 12  7  1  0
 27 16  1  0
 38 28  1  0
 26 21  1  0
 37 31  1  0
  3 39  1  0
  4 40  1  0
  4 41  1  0
  8 42  1  0
  8 43  1  0
  9 44  1  6
 10 45  1  0
 11 46  1  0
 11 47  1  0
 12 48  1  1
 15 49  1  0
 17 50  1  0
 18 51  1  0
 19 52  1  0
 23 53  1  0
 24 54  1  0
 25 55  1  0
 27 56  1  0
 29 57  1  0
 30 58  1  0
 32 59  1  0
 35 60  1  0
 36 61  1  0
M  END
>  <smiles>  (33) 
O=C(NCC(=O)N1C[C@H](O)C[C@H]1C(=O)Nc1cccc(-c2ncccn2)c1)c1ccc2cc(F)ccc2n1

>  <score_type>  (33) 
oracle

>  <origin>  (33) 
autodockgpu

>  <m_score__min__energy>  (33) 
-9.6600000000000001

>  <m_primary>  (33) 
energy

>  <rmsd>  (33) 
2.803719530070625

>  <m_score__min__rmsd>  (33) 
2.803719530070625

>  <meeko>  (33) 
{"free_energy": -8.26, "intermolecular_energy": -10.65, "internal_energy": -3.21, "cluster_size": 7, "cluster_id": 6, "rank_in_cluster": 4}

>  <energy>  (33) 
-7.6

>  <cluster_rmsd>  (33) 
1.81

>  <cluster>  (33) 
6

$$$$

     RDKit          3D

 61 65  0  0  0  0  0  0  0  0999 V2000
  137.5400   71.0440  221.0970 O   0  0  0  0  0  0  0  0  0  0  0  0
  137.7520   71.5910  222.2230 C   0  0  0  0  0  0  0  0  0  0  0  0
  137.3890   72.9420  222.4760 N   0  0  0  0  0  0  0  0  0  0  0  0
  136.7640   73.7350  221.4400 C   0  0  0  0  0  0  0  0  0  0  0  0
  137.6770   74.0540  220.3330 C   0  0  0  0  0  0  0  0  0  0  0  0
  137.2760   74.2630  219.1590 O   0  0  0  0  0  0  0  0  0  0  0  0
  139.0680   74.1260  220.6160 N   0  0  0  0  0  0  0  0  0  0  0  0
  140.1900   73.8140  219.7160 C   0  0  0  0  0  0  0  0  0  0  0  0
  141.0360   72.9710  220.6480 C   0  0  2  0  0  0  0  0  0  0  0  0
  140.4020   71.7370  220.8490 O   0  0  0  0  0  0  0  0  0  0  0  0
  141.0250   73.8040  221.9120 C   0  0  0  0  0  0  0  0  0  0  0  0
  139.7090   74.5240  221.8570 C   0  0  1  0  0  0  0  0  0  0  0  0
  139.8800   76.0050  221.9180 C   0  0  0  0  0  0  0  0  0  0  0  0
  138.9220   76.6960  221.5120 O   0  0  0  0  0  0  0  0  0  0  0  0
  141.0840   76.5590  222.4170 N   0  0  0  0  0  0  0  0  0  0  0  0
  141.3820   77.9240  222.5310 C   0  0  0  0  0  0  0  0  0  0  0  0
  141.5950   78.6180  223.6950 C   0  0  0  0  0  0  0  0  0  0  0  0
  141.8880   79.9740  223.7330 C   0  0  0  0  0  0  0  0  0  0  0  0
  141.9760   80.6920  222.5670 C   0  0  0  0  0  0  0  0  0  0  0  0
  141.7640   80.0070  221.3900 C   0  0  0  0  0  0  0  0  0  0  0  0
  141.8480   80.7260  220.1270 C   0  0  0  0  0  0  0  0  0  0  0  0
  142.3780   80.1360  219.0350 N   0  0  0  0  0  0  0  0  0  0  0  0
  142.4920   80.7290  217.8360 C   0  0  0  0  0  0  0  0  0  0  0  0
  142.0340   82.0300  217.7250 C   0  0  0  0  0  0  0  0  0  0  0  0
  141.4920   82.6390  218.8330 C   0  0  0  0  0  0  0  0  0  0  0  0
  141.3950   82.0060  220.0260 N   0  0  0  0  0  0  0  0  0  0  0  0
  141.4730   78.6620  221.3570 C   0  0  0  0  0  0  0  0  0  0  0  0
  138.3860   70.8150  223.2990 C   0  0  0  0  0  0  0  0  0  0  0  0
  138.2870   69.4400  223.3130 C   0  0  0  0  0  0  0  0  0  0  0  0
  138.9000   68.7240  224.3480 C   0  0  0  0  0  0  0  0  0  0  0  0
  139.5900   69.4020  225.3360 C   0  0  0  0  0  0  0  0  0  0  0  0
  140.2160   68.7360  226.3850 C   0  0  0  0  0  0  0  0  0  0  0  0
  140.8980   69.4560  227.3560 C   0  0  0  0  0  0  0  0  0  0  0  0
  141.5030   68.7770  228.3730 F   0  0  0  0  0  0  0  0  0  0  0  0
  140.9870   70.8350  227.3260 C   0  0  0  0  0  0  0  0  0  0  0  0
  140.3570   71.4690  226.2740 C   0  0  0  0  0  0  0  0  0  0  0  0
  139.6680   70.7800  225.2900 C   0  0  0  0  0  0  0  0  0  0  0  0
  139.0710   71.4410  224.2840 N   0  0  0  0  0  0  0  0  0  0  0  0
  137.5980   73.3280  223.4390 H   0  0  0  0  0  0  0  0  0  0  0  0
  135.9074   73.1742  221.0377 H   0  0  0  0  0  0  0  0  0  0  0  0
  136.4534   74.6868  221.8957 H   0  0  0  0  0  0  0  0  0  0  0  0
  139.8616   73.2452  218.8336 H   0  0  0  0  0  0  0  0  0  0  0  0
  140.6999   74.6883  219.2852 H   0  0  0  0  0  0  0  0  0  0  0  0
  142.0500   72.7454  220.2863 H   0  0  0  0  0  0  0  0  0  0  0  0
  139.4700   71.7860  220.5080 H   0  0  0  0  0  0  0  0  0  0  0  0
  141.0836   73.1629  222.8040 H   0  0  0  0  0  0  0  0  0  0  0  0
  141.8823   74.4903  221.9758 H   0  0  0  0  0  0  0  0  0  0  0  0
  139.0926   74.2563  222.7278 H   0  0  0  0  0  0  0  0  0  0  0  0
  141.8080   75.8580  222.7250 H   0  0  0  0  0  0  0  0  0  0  0  0
  141.5302   78.0715  224.6474 H   0  0  0  0  0  0  0  0  0  0  0  0
  142.0499   80.4740  224.6993 H   0  0  0  0  0  0  0  0  0  0  0  0
  142.2058   81.7677  222.5715 H   0  0  0  0  0  0  0  0  0  0  0  0
  142.9318   80.2019  216.9765 H   0  0  0  0  0  0  0  0  0  0  0  0
  142.1021   82.5677  216.7678 H   0  0  0  0  0  0  0  0  0  0  0  0
  141.1259   83.6727  218.7471 H   0  0  0  0  0  0  0  0  0  0  0  0
  141.3105   78.1651  220.3892 H   0  0  0  0  0  0  0  0  0  0  0  0
  137.7339   68.9128  222.5217 H   0  0  0  0  0  0  0  0  0  0  0  0
  138.8330   67.6264  224.3752 H   0  0  0  0  0  0  0  0  0  0  0  0
  140.1704   67.6386  226.4448 H   0  0  0  0  0  0  0  0  0  0  0  0
  141.5309   71.3973  228.0993 H   0  0  0  0  0  0  0  0  0  0  0  0
  140.4042   72.5664  226.2149 H   0  0  0  0  0  0  0  0  0  0  0  0
  1  2  2  0
  2  3  1  0
  3  4  1  0
  4  5  1  0
  5  6  2  0
  5  7  1  0
  7  8  1  0
  8  9  1  0
  9 10  1  0
  9 11  1  0
 11 12  1  0
 12 13  1  0
 13 14  2  0
 13 15  1  0
 15 16  1  0
 16 17  2  0
 17 18  1  0
 18 19  2  0
 19 20  1  0
 20 21  1  0
 21 22  2  0
 22 23  1  0
 23 24  2  0
 24 25  1  0
 25 26  2  0
 20 27  2  0
  2 28  1  0
 28 29  2  0
 29 30  1  0
 30 31  2  0
 31 32  1  0
 32 33  2  0
 33 34  1  0
 33 35  1  0
 35 36  2  0
 36 37  1  0
 37 38  2  0
 12  7  1  0
 27 16  1  0
 38 28  1  0
 26 21  1  0
 37 31  1  0
  3 39  1  0
  4 40  1  0
  4 41  1  0
  8 42  1  0
  8 43  1  0
  9 44  1  6
 10 45  1  0
 11 46  1  0
 11 47  1  0
 12 48  1  1
 15 49  1  0
 17 50  1  0
 18 51  1  0
 19 52  1  0
 23 53  1  0
 24 54  1  0
 25 55  1  0
 27 56  1  0
 29 57  1  0
 30 58  1  0
 32 59  1  0
 35 60  1  0
 36 61  1  0
M  END
>  <smiles>  (34) 
O=C(NCC(=O)N1C[C@H](O)C[C@H]1C(=O)Nc1cccc(-c2ncccn2)c1)c1ccc2cc(F)ccc2n1

>  <score_type>  (34) 
oracle

>  <origin>  (34) 
autodockgpu

>  <m_score__min__energy>  (34) 
-9.6600000000000001

>  <m_primary>  (34) 
energy

>  <rmsd>  (34) 
2.728615708499126

>  <m_score__min__rmsd>  (34) 
2.728615708499126

>  <meeko>  (34) 
{"free_energy": -8.29, "intermolecular_energy": -10.67, "internal_energy": -3.2, "cluster_size": 7, "cluster_id": 6, "rank_in_cluster": 3}

>  <energy>  (34) 
-8.29

>  <cluster_rmsd>  (34) 
0.0

>  <cluster>  (34) 
7

$$$$

     RDKit          3D

 61 65  0  0  0  0  0  0  0  0999 V2000
  142.6950   77.4250  217.1180 O   0  0  0  0  0  0  0  0  0  0  0  0
  142.7590   77.8520  218.3120 C   0  0  0  0  0  0  0  0  0  0  0  0
  143.2520   77.0380  219.3690 N   0  0  0  0  0  0  0  0  0  0  0  0
  143.6950   75.6880  219.1030 C   0  0  0  0  0  0  0  0  0  0  0  0
  143.1440   74.7060  220.0480 C   0  0  0  0  0  0  0  0  0  0  0  0
  142.1310   74.9400  220.7570 O   0  0  0  0  0  0  0  0  0  0  0  0
  143.7910   73.4450  220.1540 N   0  0  0  0  0  0  0  0  0  0  0  0
  144.9830   73.1060  220.9480 C   0  0  0  0  0  0  0  0  0  0  0  0
  145.7640   72.3260  219.9110 C   0  0  2  0  0  0  0  0  0  0  0  0
  146.2410   73.2130  218.9350 O   0  0  0  0  0  0  0  0  0  0  0  0
  144.6980   71.4120  219.3450 C   0  0  0  0  0  0  0  0  0  0  0  0
  143.4290   72.1970  219.5060 C   0  0  1  0  0  0  0  0  0  0  0  0
  142.4120   71.4560  220.3080 C   0  0  0  0  0  0  0  0  0  0  0  0
  142.3490   70.2210  220.1290 O   0  0  0  0  0  0  0  0  0  0  0  0
  141.5800   72.1550  221.2160 N   0  0  0  0  0  0  0  0  0  0  0  0
  140.5860   71.5920  222.0290 C   0  0  0  0  0  0  0  0  0  0  0  0
  139.3790   71.0910  221.6120 C   0  0  0  0  0  0  0  0  0  0  0  0
  138.4400   70.5450  222.4760 C   0  0  0  0  0  0  0  0  0  0  0  0
  138.6950   70.4860  223.8230 C   0  0  0  0  0  0  0  0  0  0  0  0
  139.9050   70.9870  224.2550 C   0  0  0  0  0  0  0  0  0  0  0  0
  140.2220   70.9460  225.6750 C   0  0  0  0  0  0  0  0  0  0  0  0
  140.9820   71.9080  226.2380 N   0  0  0  0  0  0  0  0  0  0  0  0
  141.3190   71.9430  227.5370 C   0  0  0  0  0  0  0  0  0  0  0  0
  140.8490   70.9200  228.3420 C   0  0  0  0  0  0  0  0  0  0  0  0
  140.0730   69.9340  227.7770 C   0  0  0  0  0  0  0  0  0  0  0  0
  139.7560   69.9350  226.4600 N   0  0  0  0  0  0  0  0  0  0  0  0
  140.8340   71.5280  223.3950 C   0  0  0  0  0  0  0  0  0  0  0  0
  142.3160   79.2200  218.6200 C   0  0  0  0  0  0  0  0  0  0  0  0
  142.1930   80.1520  217.6100 C   0  0  0  0  0  0  0  0  0  0  0  0
  141.7690   81.4470  217.9290 C   0  0  0  0  0  0  0  0  0  0  0  0
  141.4830   81.7720  219.2420 C   0  0  0  0  0  0  0  0  0  0  0  0
  141.0580   83.0450  219.6090 C   0  0  0  0  0  0  0  0  0  0  0  0
  140.7820   83.3290  220.9390 C   0  0  0  0  0  0  0  0  0  0  0  0
  140.3670   84.5850  221.2710 F   0  0  0  0  0  0  0  0  0  0  0  0
  140.9110   82.3810  221.9370 C   0  0  0  0  0  0  0  0  0  0  0  0
  141.3330   81.1270  221.5450 C   0  0  0  0  0  0  0  0  0  0  0  0
  141.6180   80.8130  220.2270 C   0  0  0  0  0  0  0  0  0  0  0  0
  142.0260   79.5770  219.8920 N   0  0  0  0  0  0  0  0  0  0  0  0
  143.2750   77.4630  220.3380 H   0  0  0  0  0  0  0  0  0  0  0  0
  143.3812   75.4101  218.0860 H   0  0  0  0  0  0  0  0  0  0  0  0
  144.7893   75.6730  219.2136 H   0  0  0  0  0  0  0  0  0  0  0  0
  145.5245   74.0046  221.2785 H   0  0  0  0  0  0  0  0  0  0  0  0
  144.7821   72.5661  221.8851 H   0  0  0  0  0  0  0  0  0  0  0  0
  146.6409   71.7840  220.2948 H   0  0  0  0  0  0  0  0  0  0  0  0
  146.1630   74.1440  219.2720 H   0  0  0  0  0  0  0  0  0  0  0  0
  144.8918   71.1941  218.2844 H   0  0  0  0  0  0  0  0  0  0  0  0
  144.6615   70.4367  219.8524 H   0  0  0  0  0  0  0  0  0  0  0  0
  142.9661   72.3764  218.5244 H   0  0  0  0  0  0  0  0  0  0  0  0
  141.7420   73.1950  221.2650 H   0  0  0  0  0  0  0  0  0  0  0  0
  139.1433   71.1237  220.5380 H   0  0  0  0  0  0  0  0  0  0  0  0
  137.4892   70.1587  222.0801 H   0  0  0  0  0  0  0  0  0  0  0  0
  137.9664   70.0579  224.5272 H   0  0  0  0  0  0  0  0  0  0  0  0
  141.9432   72.7517  227.9449 H   0  0  0  0  0  0  0  0  0  0  0  0
  141.0915   70.8955  229.4147 H   0  0  0  0  0  0  0  0  0  0  0  0
  139.6985   69.1197  228.4146 H   0  0  0  0  0  0  0  0  0  0  0  0
  141.7837   71.9141  223.7937 H   0  0  0  0  0  0  0  0  0  0  0  0
  142.4248   79.8811  216.5694 H   0  0  0  0  0  0  0  0  0  0  0  0
  141.6636   82.2038  217.1377 H   0  0  0  0  0  0  0  0  0  0  0  0
  140.9407   83.8269  218.8443 H   0  0  0  0  0  0  0  0  0  0  0  0
  140.6888   82.6142  222.9888 H   0  0  0  0  0  0  0  0  0  0  0  0
  141.4476   80.3454  222.3105 H   0  0  0  0  0  0  0  0  0  0  0  0
  1  2  2  0
  2  3  1  0
  3  4  1  0
  4  5  1  0
  5  6  2  0
  5  7  1  0
  7  8  1  0
  8  9  1  0
  9 10  1  0
  9 11  1  0
 11 12  1  0
 12 13  1  0
 13 14  2  0
 13 15  1  0
 15 16  1  0
 16 17  2  0
 17 18  1  0
 18 19  2  0
 19 20  1  0
 20 21  1  0
 21 22  2  0
 22 23  1  0
 23 24  2  0
 24 25  1  0
 25 26  2  0
 20 27  2  0
  2 28  1  0
 28 29  2  0
 29 30  1  0
 30 31  2  0
 31 32  1  0
 32 33  2  0
 33 34  1  0
 33 35  1  0
 35 36  2  0
 36 37  1  0
 37 38  2  0
 12  7  1  0
 27 16  1  0
 38 28  1  0
 26 21  1  0
 37 31  1  0
  3 39  1  0
  4 40  1  0
  4 41  1  0
  8 42  1  0
  8 43  1  0
  9 44  1  1
 10 45  1  0
 11 46  1  0
 11 47  1  0
 12 48  1  6
 15 49  1  0
 17 50  1  0
 18 51  1  0
 19 52  1  0
 23 53  1  0
 24 54  1  0
 25 55  1  0
 27 56  1  0
 29 57  1  0
 30 58  1  0
 32 59  1  0
 35 60  1  0
 36 61  1  0
M  END
>  <smiles>  (35) 
O=C(NCC(=O)N1C[C@H](O)C[C@H]1C(=O)Nc1cccc(-c2ncccn2)c1)c1ccc2cc(F)ccc2n1

>  <score_type>  (35) 
oracle

>  <origin>  (35) 
autodockgpu

>  <m_score__min__energy>  (35) 
-9.6600000000000001

>  <m_primary>  (35) 
energy

>  <rmsd>  (35) 
10.355979608113392

>  <m_score__min__rmsd>  (35) 
10.355979608113392

>  <meeko>  (35) 
{"free_energy": -9.36, "intermolecular_energy": -11.75, "internal_energy": -2.7, "cluster_size": 9, "cluster_id": 3, "rank_in_cluster": 1}

>  <energy>  (35) 
-8.02

>  <cluster_rmsd>  (35) 
0.0

>  <cluster>  (35) 
8

$$$$

     RDKit          3D

 61 65  0  0  0  0  0  0  0  0999 V2000
  138.8330   70.2640  221.7880 O   0  0  0  0  0  0  0  0  0  0  0  0
  139.1310   70.8300  222.8840 C   0  0  0  0  0  0  0  0  0  0  0  0
  139.1650   72.2460  223.0080 N   0  0  0  0  0  0  0  0  0  0  0  0
  138.8560   73.0840  221.8710 C   0  0  0  0  0  0  0  0  0  0  0  0
  139.9480   74.0060  221.5250 C   0  0  0  0  0  0  0  0  0  0  0  0
  139.9870   75.1970  221.9300 O   0  0  0  0  0  0  0  0  0  0  0  0
  140.9970   73.5190  220.6990 N   0  0  0  0  0  0  0  0  0  0  0  0
  140.8820   72.6890  219.4890 C   0  0  0  0  0  0  0  0  0  0  0  0
  141.9530   71.6590  219.7860 C   0  0  2  0  0  0  0  0  0  0  0  0
  141.5080   70.8240  220.8200 O   0  0  0  0  0  0  0  0  0  0  0  0
  143.1020   72.5330  220.2430 C   0  0  0  0  0  0  0  0  0  0  0  0
  142.4260   73.7250  220.8530 C   0  0  1  0  0  0  0  0  0  0  0  0
  142.8530   75.0000  220.2070 C   0  0  0  0  0  0  0  0  0  0  0  0
  144.0810   75.1620  220.0430 O   0  0  0  0  0  0  0  0  0  0  0  0
  141.8830   75.9530  219.8120 N   0  0  0  0  0  0  0  0  0  0  0  0
  142.1380   77.1880  219.1980 C   0  0  0  0  0  0  0  0  0  0  0  0
  142.6670   77.3810  217.9470 C   0  0  0  0  0  0  0  0  0  0  0  0
  142.8920   78.6370  217.4000 C   0  0  0  0  0  0  0  0  0  0  0  0
  142.5820   79.7660  218.1150 C   0  0  0  0  0  0  0  0  0  0  0  0
  142.0490   79.5840  219.3740 C   0  0  0  0  0  0  0  0  0  0  0  0
  141.7040   80.7520  220.1710 C   0  0  0  0  0  0  0  0  0  0  0  0
  141.7910   80.7160  221.5170 N   0  0  0  0  0  0  0  0  0  0  0  0
  141.4910   81.7470  222.3230 C   0  0  0  0  0  0  0  0  0  0  0  0
  141.0670   82.9190  221.7220 C   0  0  0  0  0  0  0  0  0  0  0  0
  140.9760   82.9660  220.3510 C   0  0  0  0  0  0  0  0  0  0  0  0
  141.2880   81.9020  219.5720 N   0  0  0  0  0  0  0  0  0  0  0  0
  141.8280   78.3370  219.9130 C   0  0  0  0  0  0  0  0  0  0  0  0
  139.4500   70.0090  224.0620 C   0  0  0  0  0  0  0  0  0  0  0  0
  139.1290   68.6680  224.0800 C   0  0  0  0  0  0  0  0  0  0  0  0
  139.4440   67.9090  225.2120 C   0  0  0  0  0  0  0  0  0  0  0  0
  140.0680   68.5090  226.2900 C   0  0  0  0  0  0  0  0  0  0  0  0
  140.4010   67.7970  227.4370 C   0  0  0  0  0  0  0  0  0  0  0  0
  141.0280   68.4390  228.4960 C   0  0  0  0  0  0  0  0  0  0  0  0
  141.3440   67.7160  229.6090 F   0  0  0  0  0  0  0  0  0  0  0  0
  141.3430   69.7850  228.4600 C   0  0  0  0  0  0  0  0  0  0  0  0
  141.0010   70.4660  227.3100 C   0  0  0  0  0  0  0  0  0  0  0  0
  140.3750   69.8540  226.2370 C   0  0  0  0  0  0  0  0  0  0  0  0
  140.0620   70.5590  225.1360 N   0  0  0  0  0  0  0  0  0  0  0  0
  139.4220   72.6440  223.9550 H   0  0  0  0  0  0  0  0  0  0  0  0
  138.6541   72.4382  221.0038 H   0  0  0  0  0  0  0  0  0  0  0  0
  137.9815   73.6948  222.1396 H   0  0  0  0  0  0  0  0  0  0  0  0
  139.8861   72.2306  219.3995 H   0  0  0  0  0  0  0  0  0  0  0  0
  141.0042   73.2292  218.5386 H   0  0  0  0  0  0  0  0  0  0  0  0
  142.2175   71.0003  218.9456 H   0  0  0  0  0  0  0  0  0  0  0  0
  140.5180   70.7570  220.7860 H   0  0  0  0  0  0  0  0  0  0  0  0
  143.7201   72.0097  220.9874 H   0  0  0  0  0  0  0  0  0  0  0  0
  143.7821   72.8042  219.4221 H   0  0  0  0  0  0  0  0  0  0  0  0
  142.7033   73.8168  221.9135 H   0  0  0  0  0  0  0  0  0  0  0  0
  140.8830   75.6860  220.0110 H   0  0  0  0  0  0  0  0  0  0  0  0
  142.9259   76.4960  217.3472 H   0  0  0  0  0  0  0  0  0  0  0  0
  143.3199   78.7271  216.3907 H   0  0  0  0  0  0  0  0  0  0  0  0
  142.7510   80.7717  217.7026 H   0  0  0  0  0  0  0  0  0  0  0  0
  141.5787   81.6634  223.4163 H   0  0  0  0  0  0  0  0  0  0  0  0
  140.8073   83.7978  222.3305 H   0  0  0  0  0  0  0  0  0  0  0  0
  140.6393   83.8968  219.8712 H   0  0  0  0  0  0  0  0  0  0  0  0
  141.4005   78.2497  220.9227 H   0  0  0  0  0  0  0  0  0  0  0  0
  138.6322   68.2017  223.2164 H   0  0  0  0  0  0  0  0  0  0  0  0
  139.1959   66.8378  225.2444 H   0  0  0  0  0  0  0  0  0  0  0  0
  140.1674   66.7243  227.5052 H   0  0  0  0  0  0  0  0  0  0  0  0
  141.8400   70.2862  229.3037 H   0  0  0  0  0  0  0  0  0  0  0  0
  141.2351   71.5387  227.2426 H   0  0  0  0  0  0  0  0  0  0  0  0
  1  2  2  0
  2  3  1  0
  3  4  1  0
  4  5  1  0
  5  6  2  0
  5  7  1  0
  7  8  1  0
  8  9  1  0
  9 10  1  0
  9 11  1  0
 11 12  1  0
 12 13  1  0
 13 14  2  0
 13 15  1  0
 15 16  1  0
 16 17  2  0
 17 18  1  0
 18 19  2  0
 19 20  1  0
 20 21  1  0
 21 22  2  0
 22 23  1  0
 23 24  2  0
 24 25  1  0
 25 26  2  0
 20 27  2  0
  2 28  1  0
 28 29  2  0
 29 30  1  0
 30 31  2  0
 31 32  1  0
 32 33  2  0
 33 34  1  0
 33 35  1  0
 35 36  2  0
 36 37  1  0
 37 38  2  0
 12  7  1  0
 27 16  1  0
 38 28  1  0
 26 21  1  0
 37 31  1  0
  3 39  1  0
  4 40  1  0
  4 41  1  0
  8 42  1  0
  8 43  1  0
  9 44  1  6
 10 45  1  0
 11 46  1  0
 11 47  1  0
 12 48  1  1
 15 49  1  0
 17 50  1  0
 18 51  1  0
 19 52  1  0
 23 53  1  0
 24 54  1  0
 25 55  1  0
 27 56  1  0
 29 57  1  0
 30 58  1  0
 32 59  1  0
 35 60  1  0
 36 61  1  0
M  END
>  <smiles>  (36) 
O=C(NCC(=O)N1C[C@H](O)C[C@H]1C(=O)Nc1cccc(-c2ncccn2)c1)c1ccc2cc(F)ccc2n1

>  <score_type>  (36) 
oracle

>  <origin>  (36) 
autodockgpu

>  <m_score__min__energy>  (36) 
-9.6600000000000001

>  <m_primary>  (36) 
energy

>  <rmsd>  (36) 
3.136014514874194

>  <m_score__min__rmsd>  (36) 
3.136014514874194

>  <meeko>  (36) 
{"free_energy": -7.91, "intermolecular_energy": -10.3, "internal_energy": -3.6, "cluster_size": 7, "cluster_id": 6, "rank_in_cluster": 6}

>  <energy>  (36) 
-7.94

>  <cluster_rmsd>  (36) 
0.0

>  <cluster>  (36) 
9

$$$$

     RDKit          3D

 61 65  0  0  0  0  0  0  0  0999 V2000
  142.8390   77.5650  217.1280 O   0  0  0  0  0  0  0  0  0  0  0  0
  142.7610   77.9530  218.3340 C   0  0  0  0  0  0  0  0  0  0  0  0
  143.1060   77.0970  219.4170 N   0  0  0  0  0  0  0  0  0  0  0  0
  143.5580   75.7470  219.1620 C   0  0  0  0  0  0  0  0  0  0  0  0
  143.0780   74.7840  220.1630 C   0  0  0  0  0  0  0  0  0  0  0  0
  142.1680   75.0560  220.9880 O   0  0  0  0  0  0  0  0  0  0  0  0
  143.6750   73.4940  220.1880 N   0  0  0  0  0  0  0  0  0  0  0  0
  144.8920   73.0770  220.9020 C   0  0  0  0  0  0  0  0  0  0  0  0
  145.5820   72.3050  219.7970 C   0  0  2  0  0  0  0  0  0  0  0  0
  146.0440   73.2080  218.8290 O   0  0  0  0  0  0  0  0  0  0  0  0
  144.4490   71.4580  219.2580 C   0  0  0  0  0  0  0  0  0  0  0  0
  143.2260   72.2870  219.5170 C   0  0  1  0  0  0  0  0  0  0  0  0
  142.2220   71.5590  220.3460 C   0  0  0  0  0  0  0  0  0  0  0  0
  142.1650   70.3200  220.1970 O   0  0  0  0  0  0  0  0  0  0  0  0
  141.3960   72.2740  221.2470 N   0  0  0  0  0  0  0  0  0  0  0  0
  140.4140   71.7230  222.0840 C   0  0  0  0  0  0  0  0  0  0  0  0
  139.1560   71.3250  221.7110 C   0  0  0  0  0  0  0  0  0  0  0  0
  138.2330   70.7850  222.5960 C   0  0  0  0  0  0  0  0  0  0  0  0
  138.5590   70.6260  223.9190 C   0  0  0  0  0  0  0  0  0  0  0  0
  139.8220   71.0230  224.3070 C   0  0  0  0  0  0  0  0  0  0  0  0
  140.2140   70.8720  225.7000 C   0  0  0  0  0  0  0  0  0  0  0  0
  140.0700   69.6880  226.3310 N   0  0  0  0  0  0  0  0  0  0  0  0
  140.4060   69.4670  227.6110 C   0  0  0  0  0  0  0  0  0  0  0  0
  140.9350   70.5300  228.3220 C   0  0  0  0  0  0  0  0  0  0  0  0
  141.0860   71.7410  227.6870 C   0  0  0  0  0  0  0  0  0  0  0  0
  140.7340   71.9240  226.3920 N   0  0  0  0  0  0  0  0  0  0  0  0
  140.7340   71.5580  223.4260 C   0  0  0  0  0  0  0  0  0  0  0  0
  142.3050   79.3190  218.6300 C   0  0  0  0  0  0  0  0  0  0  0  0
  142.1880   80.2460  217.6160 C   0  0  0  0  0  0  0  0  0  0  0  0
  141.7510   81.5390  217.9230 C   0  0  0  0  0  0  0  0  0  0  0  0
  141.4450   81.8680  219.2310 C   0  0  0  0  0  0  0  0  0  0  0  0
  141.0060   83.1390  219.5860 C   0  0  0  0  0  0  0  0  0  0  0  0
  140.7100   83.4260  220.9110 C   0  0  0  0  0  0  0  0  0  0  0  0
  140.2820   84.6810  221.2320 F   0  0  0  0  0  0  0  0  0  0  0  0
  140.8320   82.4840  221.9160 C   0  0  0  0  0  0  0  0  0  0  0  0
  141.2690   81.2310  221.5340 C   0  0  0  0  0  0  0  0  0  0  0  0
  141.5730   80.9140  220.2210 C   0  0  0  0  0  0  0  0  0  0  0  0
  141.9940   79.6800  219.8970 N   0  0  0  0  0  0  0  0  0  0  0  0
  143.0150   77.4920  220.3950 H   0  0  0  0  0  0  0  0  0  0  0  0
  143.1927   75.4357  218.1722 H   0  0  0  0  0  0  0  0  0  0  0  0
  144.6569   75.7525  219.2099 H   0  0  0  0  0  0  0  0  0  0  0  0
  145.4886   73.9397  221.2334 H   0  0  0  0  0  0  0  0  0  0  0  0
  144.7186   72.5109  221.8291 H   0  0  0  0  0  0  0  0  0  0  0  0
  146.4535   71.7127  220.1126 H   0  0  0  0  0  0  0  0  0  0  0  0
  145.9440   74.1360  219.1700 H   0  0  0  0  0  0  0  0  0  0  0  0
  144.5761   71.2734  218.1811 H   0  0  0  0  0  0  0  0  0  0  0  0
  144.3979   70.4662  219.7309 H   0  0  0  0  0  0  0  0  0  0  0  0
  142.7197   72.5220  218.5692 H   0  0  0  0  0  0  0  0  0  0  0  0
  141.5510   73.3150  221.2710 H   0  0  0  0  0  0  0  0  0  0  0  0
  138.8634   71.4394  220.6568 H   0  0  0  0  0  0  0  0  0  0  0  0
  137.2382   70.4840  222.2358 H   0  0  0  0  0  0  0  0  0  0  0  0
  137.8446   70.2005  224.6391 H   0  0  0  0  0  0  0  0  0  0  0  0
  140.2666   68.4803  228.0767 H   0  0  0  0  0  0  0  0  0  0  0  0
  141.2292   70.4089  229.3750 H   0  0  0  0  0  0  0  0  0  0  0  0
  141.5062   72.5880  228.2491 H   0  0  0  0  0  0  0  0  0  0  0  0
  141.7281   71.8586  223.7886 H   0  0  0  0  0  0  0  0  0  0  0  0
  142.4350   79.9725  216.5796 H   0  0  0  0  0  0  0  0  0  0  0  0
  141.6511   82.2914  217.1268 H   0  0  0  0  0  0  0  0  0  0  0  0
  140.8934   83.9168  218.8164 H   0  0  0  0  0  0  0  0  0  0  0  0
  140.5937   82.7201  222.9636 H   0  0  0  0  0  0  0  0  0  0  0  0
  141.3801   80.4533  222.3040 H   0  0  0  0  0  0  0  0  0  0  0  0
  1  2  2  0
  2  3  1  0
  3  4  1  0
  4  5  1  0
  5  6  2  0
  5  7  1  0
  7  8  1  0
  8  9  1  0
  9 10  1  0
  9 11  1  0
 11 12  1  0
 12 13  1  0
 13 14  2  0
 13 15  1  0
 15 16  1  0
 16 17  2  0
 17 18  1  0
 18 19  2  0
 19 20  1  0
 20 21  1  0
 21 22  2  0
 22 23  1  0
 23 24  2  0
 24 25  1  0
 25 26  2  0
 20 27  2  0
  2 28  1  0
 28 29  2  0
 29 30  1  0
 30 31  2  0
 31 32  1  0
 32 33  2  0
 33 34  1  0
 33 35  1  0
 35 36  2  0
 36 37  1  0
 37 38  2  0
 12  7  1  0
 27 16  1  0
 38 28  1  0
 26 21  1  0
 37 31  1  0
  3 39  1  0
  4 40  1  0
  4 41  1  0
  8 42  1  0
  8 43  1  0
  9 44  1  1
 10 45  1  0
 11 46  1  0
 11 47  1  0
 12 48  1  6
 15 49  1  0
 17 50  1  0
 18 51  1  0
 19 52  1  0
 23 53  1  0
 24 54  1  0
 25 55  1  0
 27 56  1  0
 29 57  1  0
 30 58  1  0
 32 59  1  0
 35 60  1  0
 36 61  1  0
M  END
>  <smiles>  (37) 
O=C(NCC(=O)N1C[C@H](O)C[C@H]1C(=O)Nc1cccc(-c2ncccn2)c1)c1ccc2cc(F)ccc2n1

>  <score_type>  (37) 
oracle

>  <origin>  (37) 
autodockgpu

>  <m_score__min__energy>  (37) 
-9.6600000000000001

>  <m_primary>  (37) 
energy

>  <rmsd>  (37) 
10.345841407367597

>  <m_score__min__rmsd>  (37) 
10.345841407367597

>  <meeko>  (37) 
{"free_energy": -9.24, "intermolecular_energy": -11.63, "internal_energy": -2.79, "cluster_size": 9, "cluster_id": 3, "rank_in_cluster": 4}

>  <energy>  (37) 
-7.87

>  <cluster_rmsd>  (37) 
0.0

>  <cluster>  (37) 
10

$$$$

     RDKit          3D

 61 65  0  0  0  0  0  0  0  0999 V2000
  139.4920   73.6920  222.3700 O   0  0  0  0  0  0  0  0  0  0  0  0
  139.9040   74.5890  221.5720 C   0  0  0  0  0  0  0  0  0  0  0  0
  140.3630   74.2700  220.2640 N   0  0  0  0  0  0  0  0  0  0  0  0
  140.3690   72.8970  219.8090 C   0  0  0  0  0  0  0  0  0  0  0  0
  141.6010   72.1810  220.1690 C   0  0  0  0  0  0  0  0  0  0  0  0
  141.5950   71.0300  220.6780 O   0  0  0  0  0  0  0  0  0  0  0  0
  142.8440   72.8270  219.9270 N   0  0  0  0  0  0  0  0  0  0  0  0
  143.6520   73.6150  220.8710 C   0  0  0  0  0  0  0  0  0  0  0  0
  143.9700   74.8100  219.9970 C   0  0  2  0  0  0  0  0  0  0  0  0
  142.8050   75.5710  219.8220 O   0  0  0  0  0  0  0  0  0  0  0  0
  144.3870   74.1430  218.7030 C   0  0  0  0  0  0  0  0  0  0  0  0
  143.6080   72.8610  218.6910 C   0  0  1  0  0  0  0  0  0  0  0  0
  144.4980   71.6680  218.5820 C   0  0  0  0  0  0  0  0  0  0  0  0
  145.6740   71.8780  218.2200 O   0  0  0  0  0  0  0  0  0  0  0  0
  143.9940   70.3800  218.8850 N   0  0  0  0  0  0  0  0  0  0  0  0
  144.7110   69.1760  218.8260 C   0  0  0  0  0  0  0  0  0  0  0  0
  144.8830   68.2790  219.8490 C   0  0  0  0  0  0  0  0  0  0  0  0
  145.6070   67.1030  219.7180 C   0  0  0  0  0  0  0  0  0  0  0  0
  146.1960   66.7850  218.5210 C   0  0  0  0  0  0  0  0  0  0  0  0
  146.0310   67.6790  217.4840 C   0  0  0  0  0  0  0  0  0  0  0  0
  146.6360   67.3860  216.1930 C   0  0  0  0  0  0  0  0  0  0  0  0
  146.0850   67.8540  215.0540 N   0  0  0  0  0  0  0  0  0  0  0  0
  146.5800   67.6280  213.8260 C   0  0  0  0  0  0  0  0  0  0  0  0
  147.7310   66.8650  213.7360 C   0  0  0  0  0  0  0  0  0  0  0  0
  148.2990   66.3840  214.8920 C   0  0  0  0  0  0  0  0  0  0  0  0
  147.7680   66.6340  216.1130 N   0  0  0  0  0  0  0  0  0  0  0  0
  145.3120   68.8450  217.6170 C   0  0  0  0  0  0  0  0  0  0  0  0
  139.9120   75.9950  222.0010 C   0  0  0  0  0  0  0  0  0  0  0  0
  138.7930   76.5460  222.5900 C   0  0  0  0  0  0  0  0  0  0  0  0
  138.8250   77.8860  222.9900 C   0  0  0  0  0  0  0  0  0  0  0  0
  139.9710   78.6350  222.7900 C   0  0  0  0  0  0  0  0  0  0  0  0
  140.0520   79.9710  223.1710 C   0  0  0  0  0  0  0  0  0  0  0  0
  141.2210   80.6860  222.9520 C   0  0  0  0  0  0  0  0  0  0  0  0
  141.2740   81.9940  223.3350 F   0  0  0  0  0  0  0  0  0  0  0  0
  142.3330   80.1160  222.3600 C   0  0  0  0  0  0  0  0  0  0  0  0
  142.2250   78.7900  221.9930 C   0  0  0  0  0  0  0  0  0  0  0  0
  141.0720   78.0510  222.1980 C   0  0  0  0  0  0  0  0  0  0  0  0
  141.0130   76.7610  221.8240 N   0  0  0  0  0  0  0  0  0  0  0  0
  140.6910   75.0720  219.6570 H   0  0  0  0  0  0  0  0  0  0  0  0
  139.5138   72.3735  220.2613 H   0  0  0  0  0  0  0  0  0  0  0  0
  140.3049   72.9126  218.7110 H   0  0  0  0  0  0  0  0  0  0  0  0
  143.0761   73.9017  221.7633 H   0  0  0  0  0  0  0  0  0  0  0  0
  144.5275   73.0931  221.2847 H   0  0  0  0  0  0  0  0  0  0  0  0
  144.7324   75.4944  220.3975 H   0  0  0  0  0  0  0  0  0  0  0  0
  142.5850   76.0350  220.6710 H   0  0  0  0  0  0  0  0  0  0  0  0
  144.1240   74.7689  217.8375 H   0  0  0  0  0  0  0  0  0  0  0  0
  145.4731   73.9802  218.6403 H   0  0  0  0  0  0  0  0  0  0  0  0
  142.9477   72.8254  217.8120 H   0  0  0  0  0  0  0  0  0  0  0  0
  142.9820   70.3500  219.1780 H   0  0  0  0  0  0  0  0  0  0  0  0
  144.4235   68.5034  220.8229 H   0  0  0  0  0  0  0  0  0  0  0  0
  145.7090   66.4234  220.5769 H   0  0  0  0  0  0  0  0  0  0  0  0
  146.7744   65.8580  218.3937 H   0  0  0  0  0  0  0  0  0  0  0  0
  146.0903   68.0330  212.9282 H   0  0  0  0  0  0  0  0  0  0  0  0
  148.1833   66.6473  212.7572 H   0  0  0  0  0  0  0  0  0  0  0  0
  149.2137   65.7769  214.8233 H   0  0  0  0  0  0  0  0  0  0  0  0
  145.2117   69.5229  216.7566 H   0  0  0  0  0  0  0  0  0  0  0  0
  137.8879   75.9399  222.7430 H   0  0  0  0  0  0  0  0  0  0  0  0
  137.9424   78.3426  223.4618 H   0  0  0  0  0  0  0  0  0  0  0  0
  139.1890   80.4605  223.6460 H   0  0  0  0  0  0  0  0  0  0  0  0
  143.2560   80.6898  222.1903 H   0  0  0  0  0  0  0  0  0  0  0  0
  143.0888   78.3009  221.5190 H   0  0  0  0  0  0  0  0  0  0  0  0
  1  2  2  0
  2  3  1  0
  3  4  1  0
  4  5  1  0
  5  6  2  0
  5  7  1  0
  7  8  1  0
  8  9  1  0
  9 10  1  0
  9 11  1  0
 11 12  1  0
 12 13  1  0
 13 14  2  0
 13 15  1  0
 15 16  1  0
 16 17  2  0
 17 18  1  0
 18 19  2  0
 19 20  1  0
 20 21  1  0
 21 22  2  0
 22 23  1  0
 23 24  2  0
 24 25  1  0
 25 26  2  0
 20 27  2  0
  2 28  1  0
 28 29  2  0
 29 30  1  0
 30 31  2  0
 31 32  1  0
 32 33  2  0
 33 34  1  0
 33 35  1  0
 35 36  2  0
 36 37  1  0
 37 38  2  0
 12  7  1  0
 27 16  1  0
 38 28  1  0
 26 21  1  0
 37 31  1  0
  3 39  1  0
  4 40  1  0
  4 41  1  0
  8 42  1  0
  8 43  1  0
  9 44  1  1
 10 45  1  0
 11 46  1  0
 11 47  1  0
 12 48  1  6
 15 49  1  0
 17 50  1  0
 18 51  1  0
 19 52  1  0
 23 53  1  0
 24 54  1  0
 25 55  1  0
 27 56  1  0
 29 57  1  0
 30 58  1  0
 32 59  1  0
 35 60  1  0
 36 61  1  0
M  END
>  <smiles>  (38) 
O=C(NCC(=O)N1C[C@H](O)C[C@H]1C(=O)Nc1cccc(-c2ncccn2)c1)c1ccc2cc(F)ccc2n1

>  <score_type>  (38) 
oracle

>  <origin>  (38) 
autodockgpu

>  <m_score__min__energy>  (38) 
-9.6600000000000001

>  <m_primary>  (38) 
energy

>  <rmsd>  (38) 
9.624615210195161

>  <m_score__min__rmsd>  (38) 
9.624615210195161

>  <meeko>  (38) 
{"free_energy": -7.87, "intermolecular_energy": -10.25, "internal_energy": -4.19, "cluster_size": 1, "cluster_id": 10, "rank_in_cluster": 1}

>  <energy>  (38) 
-7.55

>  <cluster_rmsd>  (38) 
0.0

>  <cluster>  (38) 
11

$$$$

     RDKit          3D

 61 65  0  0  0  0  0  0  0  0999 V2000
  143.7050   76.7690  219.5520 O   0  0  0  0  0  0  0  0  0  0  0  0
  142.7800   77.0130  218.7180 C   0  0  0  0  0  0  0  0  0  0  0  0
  142.6630   76.2900  217.4990 N   0  0  0  0  0  0  0  0  0  0  0  0
  143.6120   75.2460  217.1790 C   0  0  0  0  0  0  0  0  0  0  0  0
  143.2250   73.9350  217.7190 C   0  0  0  0  0  0  0  0  0  0  0  0
  142.5290   73.1110  217.0720 O   0  0  0  0  0  0  0  0  0  0  0  0
  143.6610   73.5980  219.0290 N   0  0  0  0  0  0  0  0  0  0  0  0
  144.8320   74.1180  219.7530 C   0  0  0  0  0  0  0  0  0  0  0  0
  145.4010   72.8190  220.2820 C   0  0  2  0  0  0  0  0  0  0  0  0
  145.9500   72.0930  219.2150 O   0  0  0  0  0  0  0  0  0  0  0  0
  144.1630   72.1390  220.8260 C   0  0  0  0  0  0  0  0  0  0  0  0
  143.0550   72.6630  219.9610 C   0  0  1  0  0  0  0  0  0  0  0  0
  141.9860   73.3270  220.7630 C   0  0  0  0  0  0  0  0  0  0  0  0
  141.3420   72.6000  221.5490 O   0  0  0  0  0  0  0  0  0  0  0  0
  141.7480   74.7150  220.6120 N   0  0  0  0  0  0  0  0  0  0  0  0
  140.7820   75.4670  221.2960 C   0  0  0  0  0  0  0  0  0  0  0  0
  139.4840   75.0960  221.5420 C   0  0  0  0  0  0  0  0  0  0  0  0
  138.5800   75.8940  222.2290 C   0  0  0  0  0  0  0  0  0  0  0  0
  138.9650   77.1220  222.7020 C   0  0  0  0  0  0  0  0  0  0  0  0
  140.2680   77.5070  222.4610 C   0  0  0  0  0  0  0  0  0  0  0  0
  140.7240   78.8020  222.9450 C   0  0  0  0  0  0  0  0  0  0  0  0
  142.0420   79.0710  223.0490 N   0  0  0  0  0  0  0  0  0  0  0  0
  142.5440   80.2370  223.4850 C   0  0  0  0  0  0  0  0  0  0  0  0
  141.6400   81.2210  223.8480 C   0  0  0  0  0  0  0  0  0  0  0  0
  140.2950   80.9560  223.7460 C   0  0  0  0  0  0  0  0  0  0  0  0
  139.8280   79.7640  223.3010 N   0  0  0  0  0  0  0  0  0  0  0  0
  141.1610   76.7130  221.7790 C   0  0  0  0  0  0  0  0  0  0  0  0
  141.7980   78.0680  219.0110 C   0  0  0  0  0  0  0  0  0  0  0  0
  140.4610   77.8650  218.7390 C   0  0  0  0  0  0  0  0  0  0  0  0
  139.5460   78.8830  219.0270 C   0  0  0  0  0  0  0  0  0  0  0  0
  139.9920   80.0720  219.5760 C   0  0  0  0  0  0  0  0  0  0  0  0
  139.1220   81.1140  219.8800 C   0  0  0  0  0  0  0  0  0  0  0  0
  139.6120   82.2900  220.4300 C   0  0  0  0  0  0  0  0  0  0  0  0
  138.7360   83.2960  220.7180 F   0  0  0  0  0  0  0  0  0  0  0  0
  140.9560   82.4760  220.6950 C   0  0  0  0  0  0  0  0  0  0  0  0
  141.7950   81.4260  220.3840 C   0  0  0  0  0  0  0  0  0  0  0  0
  141.3380   80.2400  219.8350 C   0  0  0  0  0  0  0  0  0  0  0  0
  142.1940   79.2450  219.5480 N   0  0  0  0  0  0  0  0  0  0  0  0
  141.8660   76.5510  216.8540 H   0  0  0  0  0  0  0  0  0  0  0  0
  143.6895   75.1657  216.0847 H   0  0  0  0  0  0  0  0  0  0  0  0
  144.5726   75.5214  217.6387 H   0  0  0  0  0  0  0  0  0  0  0  0
  145.5358   74.6295  219.0800 H   0  0  0  0  0  0  0  0  0  0  0  0
  144.6087   74.8756  220.5186 H   0  0  0  0  0  0  0  0  0  0  0  0
  146.2003   72.9273  221.0300 H   0  0  0  0  0  0  0  0  0  0  0  0
  145.2460   71.9240  218.5360 H   0  0  0  0  0  0  0  0  0  0  0  0
  144.2456   71.0457  220.7368 H   0  0  0  0  0  0  0  0  0  0  0  0
  144.0007   72.3442  221.8944 H   0  0  0  0  0  0  0  0  0  0  0  0
  142.5624   71.8342  219.4314 H   0  0  0  0  0  0  0  0  0  0  0  0
  142.3660   75.2040  219.9140 H   0  0  0  0  0  0  0  0  0  0  0  0
  139.1427   74.1164  221.1761 H   0  0  0  0  0  0  0  0  0  0  0  0
  137.5517   75.5403  222.3945 H   0  0  0  0  0  0  0  0  0  0  0  0
  138.2661   77.7716  223.2494 H   0  0  0  0  0  0  0  0  0  0  0  0
  143.6292   80.4040  223.5512 H   0  0  0  0  0  0  0  0  0  0  0  0
  141.9920   82.1977  224.2116 H   0  0  0  0  0  0  0  0  0  0  0  0
  139.5750   81.7360  224.0346 H   0  0  0  0  0  0  0  0  0  0  0  0
  142.1885   77.0696  221.6141 H   0  0  0  0  0  0  0  0  0  0  0  0
  140.1190   76.9154  218.3015 H   0  0  0  0  0  0  0  0  0  0  0  0
  138.4758   78.7388  218.8177 H   0  0  0  0  0  0  0  0  0  0  0  0
  138.0450   81.0057  219.6843 H   0  0  0  0  0  0  0  0  0  0  0  0
  141.3363   83.4117  221.1308 H   0  0  0  0  0  0  0  0  0  0  0  0
  142.8718   81.5356  220.5803 H   0  0  0  0  0  0  0  0  0  0  0  0
  1  2  2  0
  2  3  1  0
  3  4  1  0
  4  5  1  0
  5  6  2  0
  5  7  1  0
  7  8  1  0
  8  9  1  0
  9 10  1  0
  9 11  1  0
 11 12  1  0
 12 13  1  0
 13 14  2  0
 13 15  1  0
 15 16  1  0
 16 17  2  0
 17 18  1  0
 18 19  2  0
 19 20  1  0
 20 21  1  0
 21 22  2  0
 22 23  1  0
 23 24  2  0
 24 25  1  0
 25 26  2  0
 20 27  2  0
  2 28  1  0
 28 29  2  0
 29 30  1  0
 30 31  2  0
 31 32  1  0
 32 33  2  0
 33 34  1  0
 33 35  1  0
 35 36  2  0
 36 37  1  0
 37 38  2  0
 12  7  1  0
 27 16  1  0
 38 28  1  0
 26 21  1  0
 37 31  1  0
  3 39  1  0
  4 40  1  0
  4 41  1  0
  8 42  1  0
  8 43  1  0
  9 44  1  1
 10 45  1  0
 11 46  1  0
 11 47  1  0
 12 48  1  6
 15 49  1  0
 17 50  1  0
 18 51  1  0
 19 52  1  0
 23 53  1  0
 24 54  1  0
 25 55  1  0
 27 56  1  0
 29 57  1  0
 30 58  1  0
 32 59  1  0
 35 60  1  0
 36 61  1  0
M  END
>  <smiles>  (39) 
O=C(NCC(=O)N1C[C@H](O)C[C@H]1C(=O)Nc1cccc(-c2ncccn2)c1)c1ccc2cc(F)ccc2n1

>  <score_type>  (39) 
oracle

>  <origin>  (39) 
autodockgpu

>  <m_score__min__energy>  (39) 
-9.6600000000000001

>  <m_primary>  (39) 
energy

>  <rmsd>  (39) 
8.74527030782372

>  <m_score__min__rmsd>  (39) 
8.74527030782372

>  <meeko>  (39) 
{"free_energy": -6.5, "intermolecular_energy": -8.89, "internal_energy": -4.78, "cluster_size": 4, "cluster_id": 12, "rank_in_cluster": 4}

>  <energy>  (39) 
-7.53

>  <cluster_rmsd>  (39) 
0.0

>  <cluster>  (39) 
12

$$$$

     RDKit          3D

 61 65  0  0  0  0  0  0  0  0999 V2000
  137.4590   70.5190  221.7020 O   0  0  0  0  0  0  0  0  0  0  0  0
  138.1090   71.1190  222.6130 C   0  0  0  0  0  0  0  0  0  0  0  0
  138.2790   72.5310  222.6020 N   0  0  0  0  0  0  0  0  0  0  0  0
  137.7070   73.3250  221.5370 C   0  0  0  0  0  0  0  0  0  0  0  0
  138.3220   73.0570  220.2290 C   0  0  0  0  0  0  0  0  0  0  0  0
  137.6990   73.1890  219.1440 O   0  0  0  0  0  0  0  0  0  0  0  0
  139.6780   72.6310  220.2040 N   0  0  0  0  0  0  0  0  0  0  0  0
  140.3430   71.7920  219.1940 C   0  0  0  0  0  0  0  0  0  0  0  0
  141.0740   70.8290  220.1060 C   0  0  2  0  0  0  0  0  0  0  0  0
  140.1420   69.9710  220.7060 O   0  0  0  0  0  0  0  0  0  0  0  0
  141.6850   71.7710  221.1220 C   0  0  0  0  0  0  0  0  0  0  0  0
  140.7250   72.9220  221.1680 C   0  0  1  0  0  0  0  0  0  0  0  0
  141.3930   74.2190  220.8530 C   0  0  0  0  0  0  0  0  0  0  0  0
  142.5880   74.3320  221.1990 O   0  0  0  0  0  0  0  0  0  0  0  0
  140.6720   75.2440  220.1930 N   0  0  0  0  0  0  0  0  0  0  0  0
  141.1690   76.5060  219.8360 C   0  0  0  0  0  0  0  0  0  0  0  0
  141.5140   76.9190  218.5750 C   0  0  0  0  0  0  0  0  0  0  0  0
  142.0000   78.1880  218.2930 C   0  0  0  0  0  0  0  0  0  0  0  0
  142.1570   79.1050  219.3020 C   0  0  0  0  0  0  0  0  0  0  0  0
  141.8130   78.7020  220.5750 C   0  0  0  0  0  0  0  0  0  0  0  0
  141.9610   79.6400  221.6780 C   0  0  0  0  0  0  0  0  0  0  0  0
  141.2280   80.7720  221.7210 N   0  0  0  0  0  0  0  0  0  0  0  0
  141.3050   81.6860  222.7000 C   0  0  0  0  0  0  0  0  0  0  0  0
  142.1970   81.4410  223.7290 C   0  0  0  0  0  0  0  0  0  0  0  0
  142.9490   80.2900  223.6950 C   0  0  0  0  0  0  0  0  0  0  0  0
  142.8410   79.3910  222.6870 N   0  0  0  0  0  0  0  0  0  0  0  0
  141.3320   77.4420  220.8500 C   0  0  0  0  0  0  0  0  0  0  0  0
  138.7050   70.3440  223.7110 C   0  0  0  0  0  0  0  0  0  0  0  0
  138.6440   68.9660  223.6990 C   0  0  0  0  0  0  0  0  0  0  0  0
  139.2190   68.2510  224.7560 C   0  0  0  0  0  0  0  0  0  0  0  0
  139.8350   68.9310  225.7910 C   0  0  0  0  0  0  0  0  0  0  0  0
  140.4200   68.2650  226.8620 C   0  0  0  0  0  0  0  0  0  0  0  0
  141.0280   68.9870  227.8800 C   0  0  0  0  0  0  0  0  0  0  0  0
  141.5950   68.3090  228.9190 F   0  0  0  0  0  0  0  0  0  0  0  0
  141.0800   70.3690  227.8750 C   0  0  0  0  0  0  0  0  0  0  0  0
  140.4920   71.0020  226.7990 C   0  0  0  0  0  0  0  0  0  0  0  0
  139.8770   70.3110  225.7690 C   0  0  0  0  0  0  0  0  0  0  0  0
  139.3170   70.9720  224.7410 N   0  0  0  0  0  0  0  0  0  0  0  0
  138.8330   72.9590  223.3950 H   0  0  0  0  0  0  0  0  0  0  0  0
  136.6319   73.1017  221.4715 H   0  0  0  0  0  0  0  0  0  0  0  0
  137.8920   74.3822  221.7780 H   0  0  0  0  0  0  0  0  0  0  0  0
  139.6176   71.2748  218.5488 H   0  0  0  0  0  0  0  0  0  0  0  0
  140.9809   72.3359  218.4818 H   0  0  0  0  0  0  0  0  0  0  0  0
  141.8158   70.1852  219.6108 H   0  0  0  0  0  0  0  0  0  0  0  0
  139.2230   70.2980  220.5150 H   0  0  0  0  0  0  0  0  0  0  0  0
  141.7638   71.2872  222.1068 H   0  0  0  0  0  0  0  0  0  0  0  0
  142.7061   72.0802  220.8542 H   0  0  0  0  0  0  0  0  0  0  0  0
  140.3139   73.0328  222.1822 H   0  0  0  0  0  0  0  0  0  0  0  0
  139.6710   75.0120  219.9600 H   0  0  0  0  0  0  0  0  0  0  0  0
  141.3997   76.2077  217.7437 H   0  0  0  0  0  0  0  0  0  0  0  0
  142.2598   78.4593  217.2591 H   0  0  0  0  0  0  0  0  0  0  0  0
  142.5403   80.1168  219.1039 H   0  0  0  0  0  0  0  0  0  0  0  0
  140.6839   82.5938  222.6853 H   0  0  0  0  0  0  0  0  0  0  0  0
  142.3028   82.1543  224.5597 H   0  0  0  0  0  0  0  0  0  0  0  0
  143.6599   80.0932  224.5111 H   0  0  0  0  0  0  0  0  0  0  0  0
  141.0736   77.1728  221.8848 H   0  0  0  0  0  0  0  0  0  0  0  0
  138.1505   68.4366  222.8706 H   0  0  0  0  0  0  0  0  0  0  0  0
  139.1811   67.1517  224.7635 H   0  0  0  0  0  0  0  0  0  0  0  0
  140.4011   67.1659  226.9028 H   0  0  0  0  0  0  0  0  0  0  0  0
  141.5642   70.9335  228.6855 H   0  0  0  0  0  0  0  0  0  0  0  0
  140.5128   72.1010  226.7580 H   0  0  0  0  0  0  0  0  0  0  0  0
  1  2  2  0
  2  3  1  0
  3  4  1  0
  4  5  1  0
  5  6  2  0
  5  7  1  0
  7  8  1  0
  8  9  1  0
  9 10  1  0
  9 11  1  0
 11 12  1  0
 12 13  1  0
 13 14  2  0
 13 15  1  0
 15 16  1  0
 16 17  2  0
 17 18  1  0
 18 19  2  0
 19 20  1  0
 20 21  1  0
 21 22  2  0
 22 23  1  0
 23 24  2  0
 24 25  1  0
 25 26  2  0
 20 27  2  0
  2 28  1  0
 28 29  2  0
 29 30  1  0
 30 31  2  0
 31 32  1  0
 32 33  2  0
 33 34  1  0
 33 35  1  0
 35 36  2  0
 36 37  1  0
 37 38  2  0
 12  7  1  0
 27 16  1  0
 38 28  1  0
 26 21  1  0
 37 31  1  0
  3 39  1  0
  4 40  1  0
  4 41  1  0
  8 42  1  0
  8 43  1  0
  9 44  1  6
 10 45  1  0
 11 46  1  0
 11 47  1  0
 12 48  1  1
 15 49  1  0
 17 50  1  0
 18 51  1  0
 19 52  1  0
 23 53  1  0
 24 54  1  0
 25 55  1  0
 27 56  1  0
 29 57  1  0
 30 58  1  0
 32 59  1  0
 35 60  1  0
 36 61  1  0
M  END
>  <smiles>  (40) 
O=C(NCC(=O)N1C[C@H](O)C[C@H]1C(=O)Nc1cccc(-c2ncccn2)c1)c1ccc2cc(F)ccc2n1

>  <score_type>  (40) 
oracle

>  <origin>  (40) 
autodockgpu

>  <m_score__min__energy>  (40) 
-9.6600000000000001

>  <m_primary>  (40) 
energy

>  <rmsd>  (40) 
3.342492421272235

>  <m_score__min__rmsd>  (40) 
3.342492421272235

>  <meeko>  (40) 
{"free_energy": -7.6, "intermolecular_energy": -9.99, "internal_energy": -3.43, "cluster_size": 7, "cluster_id": 6, "rank_in_cluster": 7}

>  <energy>  (40) 
-7.41

>  <cluster_rmsd>  (40) 
1.66

>  <cluster>  (40) 
12

$$$$

     RDKit          3D

 61 65  0  0  0  0  0  0  0  0999 V2000
  141.8700   74.9340  221.2120 O   0  0  0  0  0  0  0  0  0  0  0  0
  141.7240   76.1390  220.8420 C   0  0  0  0  0  0  0  0  0  0  0  0
  142.4780   76.6870  219.7680 N   0  0  0  0  0  0  0  0  0  0  0  0
  143.4430   75.8690  219.0650 C   0  0  0  0  0  0  0  0  0  0  0  0
  142.9750   74.4930  218.8450 C   0  0  0  0  0  0  0  0  0  0  0  0
  142.0150   74.2150  218.0800 O   0  0  0  0  0  0  0  0  0  0  0  0
  143.6430   73.4430  219.5320 N   0  0  0  0  0  0  0  0  0  0  0  0
  144.6530   73.5590  220.5950 C   0  0  0  0  0  0  0  0  0  0  0  0
  145.6720   72.5610  220.0870 C   0  0  2  0  0  0  0  0  0  0  0  0
  146.3040   73.0910  218.9530 O   0  0  0  0  0  0  0  0  0  0  0  0
  144.7940   71.3820  219.7230 C   0  0  0  0  0  0  0  0  0  0  0  0
  143.4850   72.0110  219.3460 C   0  0  1  0  0  0  0  0  0  0  0  0
  142.3560   71.4880  220.1690 C   0  0  0  0  0  0  0  0  0  0  0  0
  142.0350   70.2950  219.9850 O   0  0  0  0  0  0  0  0  0  0  0  0
  141.7090   72.3340  221.1020 N   0  0  0  0  0  0  0  0  0  0  0  0
  140.6400   71.9800  221.9370 C   0  0  0  0  0  0  0  0  0  0  0  0
  139.3150   71.9270  221.5860 C   0  0  0  0  0  0  0  0  0  0  0  0
  138.3060   71.5650  222.4680 C   0  0  0  0  0  0  0  0  0  0  0  0
  138.6100   71.2370  223.7650 C   0  0  0  0  0  0  0  0  0  0  0  0
  139.9390   71.2860  224.1300 C   0  0  0  0  0  0  0  0  0  0  0  0
  140.3100   70.9460  225.4960 C   0  0  0  0  0  0  0  0  0  0  0  0
  140.2520   69.6690  225.9250 N   0  0  0  0  0  0  0  0  0  0  0  0
  140.5760   69.2720  227.1660 C   0  0  0  0  0  0  0  0  0  0  0  0
  140.9970   70.2460  228.0540 C   0  0  0  0  0  0  0  0  0  0  0  0
  141.0600   71.5510  227.6250 C   0  0  0  0  0  0  0  0  0  0  0  0
  140.7240   71.9110  226.3630 N   0  0  0  0  0  0  0  0  0  0  0  0
  140.9360   71.6460  223.2530 C   0  0  0  0  0  0  0  0  0  0  0  0
  140.7530   77.0000  221.5340 C   0  0  0  0  0  0  0  0  0  0  0  0
  139.4930   76.5230  221.8310 C   0  0  0  0  0  0  0  0  0  0  0  0
  138.5870   77.3610  222.4910 C   0  0  0  0  0  0  0  0  0  0  0  0
  138.9650   78.6470  222.8330 C   0  0  0  0  0  0  0  0  0  0  0  0
  138.1010   79.5170  223.4890 C   0  0  0  0  0  0  0  0  0  0  0  0
  138.5200   80.8000  223.8130 C   0  0  0  0  0  0  0  0  0  0  0  0
  137.6520   81.6330  224.4570 F   0  0  0  0  0  0  0  0  0  0  0  0
  139.7880   81.2600  223.5070 C   0  0  0  0  0  0  0  0  0  0  0  0
  140.6230   80.3760  222.8570 C   0  0  0  0  0  0  0  0  0  0  0  0
  140.2340   79.0900  222.5190 C   0  0  0  0  0  0  0  0  0  0  0  0
  141.0840   78.2640  221.8860 N   0  0  0  0  0  0  0  0  0  0  0  0
  142.3020   77.6990  219.5170 H   0  0  0  0  0  0  0  0  0  0  0  0
  143.6483   76.3303  218.0877 H   0  0  0  0  0  0  0  0  0  0  0  0
  144.3465   75.8142  219.6900 H   0  0  0  0  0  0  0  0  0  0  0  0
  145.0696   74.5753  220.6552 H   0  0  0  0  0  0  0  0  0  0  0  0
  144.2825   73.3704  221.6134 H   0  0  0  0  0  0  0  0  0  0  0  0
  146.4710   72.3034  220.7978 H   0  0  0  0  0  0  0  0  0  0  0  0
  146.2520   74.0830  218.9820 H   0  0  0  0  0  0  0  0  0  0  0  0
  145.2189   70.8243  218.8754 H   0  0  0  0  0  0  0  0  0  0  0  0
  144.6956   70.6564  220.5439 H   0  0  0  0  0  0  0  0  0  0  0  0
  143.2336   71.7690  218.3028 H   0  0  0  0  0  0  0  0  0  0  0  0
  142.0840   73.3180  221.1520 H   0  0  0  0  0  0  0  0  0  0  0  0
  139.0379   72.1844  220.5531 H   0  0  0  0  0  0  0  0  0  0  0  0
  137.2607   71.5411  222.1263 H   0  0  0  0  0  0  0  0  0  0  0  0
  137.8279   70.9476  224.4824 H   0  0  0  0  0  0  0  0  0  0  0  0
  140.5095   68.2154  227.4646 H   0  0  0  0  0  0  0  0  0  0  0  0
  141.2762   69.9812  229.0845 H   0  0  0  0  0  0  0  0  0  0  0  0
  141.3939   72.3274  228.3291 H   0  0  0  0  0  0  0  0  0  0  0  0
  141.9803   71.6697  223.5978 H   0  0  0  0  0  0  0  0  0  0  0  0
  139.2045   75.4985  221.5530 H   0  0  0  0  0  0  0  0  0  0  0  0
  137.5780   76.9984  222.7369 H   0  0  0  0  0  0  0  0  0  0  0  0
  137.0846   79.1882  223.7514 H   0  0  0  0  0  0  0  0  0  0  0  0
  140.1132   82.2778  223.7685 H   0  0  0  0  0  0  0  0  0  0  0  0
  141.6396   80.7053  222.5961 H   0  0  0  0  0  0  0  0  0  0  0  0
  1  2  2  0
  2  3  1  0
  3  4  1  0
  4  5  1  0
  5  6  2  0
  5  7  1  0
  7  8  1  0
  8  9  1  0
  9 10  1  0
  9 11  1  0
 11 12  1  0
 12 13  1  0
 13 14  2  0
 13 15  1  0
 15 16  1  0
 16 17  2  0
 17 18  1  0
 18 19  2  0
 19 20  1  0
 20 21  1  0
 21 22  2  0
 22 23  1  0
 23 24  2  0
 24 25  1  0
 25 26  2  0
 20 27  2  0
  2 28  1  0
 28 29  2  0
 29 30  1  0
 30 31  2  0
 31 32  1  0
 32 33  2  0
 33 34  1  0
 33 35  1  0
 35 36  2  0
 36 37  1  0
 37 38  2  0
 12  7  1  0
 27 16  1  0
 38 28  1  0
 26 21  1  0
 37 31  1  0
  3 39  1  0
  4 40  1  0
  4 41  1  0
  8 42  1  0
  8 43  1  0
  9 44  1  1
 10 45  1  0
 11 46  1  0
 11 47  1  0
 12 48  1  6
 15 49  1  0
 17 50  1  0
 18 51  1  0
 19 52  1  0
 23 53  1  0
 24 54  1  0
 25 55  1  0
 27 56  1  0
 29 57  1  0
 30 58  1  0
 32 59  1  0
 35 60  1  0
 36 61  1  0
M  END
>  <smiles>  (41) 
O=C(NCC(=O)N1C[C@H](O)C[C@H]1C(=O)Nc1cccc(-c2ncccn2)c1)c1ccc2cc(F)ccc2n1

>  <score_type>  (41) 
oracle

>  <origin>  (41) 
autodockgpu

>  <m_score__min__energy>  (41) 
-9.6600000000000001

>  <m_primary>  (41) 
energy

>  <rmsd>  (41) 
8.669178333632741

>  <m_score__min__rmsd>  (41) 
8.669178333632741

>  <meeko>  (41) 
{"free_energy": -8.93, "intermolecular_energy": -11.32, "internal_energy": -2.94, "cluster_size": 5, "cluster_id": 5, "rank_in_cluster": 2}

>  <energy>  (41) 
-7.29

>  <cluster_rmsd>  (41) 
1.59

>  <cluster>  (41) 
12

$$$$

     RDKit          3D

 61 65  0  0  0  0  0  0  0  0999 V2000
  141.7620   77.2960  217.2000 O   0  0  0  0  0  0  0  0  0  0  0  0
  142.2480   77.8130  218.2520 C   0  0  0  0  0  0  0  0  0  0  0  0
  143.0400   77.0560  219.1590 N   0  0  0  0  0  0  0  0  0  0  0  0
  143.3130   75.6600  218.8970 C   0  0  0  0  0  0  0  0  0  0  0  0
  143.1280   74.8090  220.0800 C   0  0  0  0  0  0  0  0  0  0  0  0
  144.0890   74.2700  220.6890 O   0  0  0  0  0  0  0  0  0  0  0  0
  141.8030   74.5920  220.5460 N   0  0  0  0  0  0  0  0  0  0  0  0
  141.3530   73.6570  221.5890 C   0  0  0  0  0  0  0  0  0  0  0  0
  140.1650   73.0390  220.8820 C   0  0  2  0  0  0  0  0  0  0  0  0
  140.6280   72.2090  219.8510 O   0  0  0  0  0  0  0  0  0  0  0  0
  139.4670   74.2630  220.3260 C   0  0  0  0  0  0  0  0  0  0  0  0
  140.5820   75.2420  220.1020 C   0  0  1  0  0  0  0  0  0  0  0  0
  140.3600   76.5190  220.8400 C   0  0  0  0  0  0  0  0  0  0  0  0
  139.2210   77.0250  220.7540 O   0  0  0  0  0  0  0  0  0  0  0  0
  141.4140   77.0960  221.5900 N   0  0  0  0  0  0  0  0  0  0  0  0
  141.3490   78.2860  222.3280 C   0  0  0  0  0  0  0  0  0  0  0  0
  142.4030   79.1000  222.6560 C   0  0  0  0  0  0  0  0  0  0  0  0
  142.2650   80.2690  223.3910 C   0  0  0  0  0  0  0  0  0  0  0  0
  141.0270   80.6640  223.8300 C   0  0  0  0  0  0  0  0  0  0  0  0
  139.9580   79.8550  223.5070 C   0  0  0  0  0  0  0  0  0  0  0  0
  138.6250   80.2330  223.9500 C   0  0  0  0  0  0  0  0  0  0  0  0
  137.5350   79.6030  223.4650 N   0  0  0  0  0  0  0  0  0  0  0  0
  136.2730   79.8910  223.8200 C   0  0  0  0  0  0  0  0  0  0  0  0
  136.0900   80.9020  224.7470 C   0  0  0  0  0  0  0  0  0  0  0  0
  137.1950   81.5500  225.2480 C   0  0  0  0  0  0  0  0  0  0  0  0
  138.4530   81.2290  224.8630 N   0  0  0  0  0  0  0  0  0  0  0  0
  140.1000   78.6960  222.7780 C   0  0  0  0  0  0  0  0  0  0  0  0
  141.9910   79.2300  218.5510 C   0  0  0  0  0  0  0  0  0  0  0  0
  142.7270   80.2140  217.9250 C   0  0  0  0  0  0  0  0  0  0  0  0
  142.4630   81.5550  218.2250 C   0  0  0  0  0  0  0  0  0  0  0  0
  141.4750   81.8720  219.1390 C   0  0  0  0  0  0  0  0  0  0  0  0
  141.1750   83.1890  219.4710 C   0  0  0  0  0  0  0  0  0  0  0  0
  140.1750   83.4630  220.3940 C   0  0  0  0  0  0  0  0  0  0  0  0
  139.9020   84.7640  220.7000 F   0  0  0  0  0  0  0  0  0  0  0  0
  139.4470   82.4630  221.0110 C   0  0  0  0  0  0  0  0  0  0  0  0
  139.7660   81.1660  220.6630 C   0  0  0  0  0  0  0  0  0  0  0  0
  140.7580   80.8600  219.7460 C   0  0  0  0  0  0  0  0  0  0  0  0
  141.0320   79.5810  219.4380 N   0  0  0  0  0  0  0  0  0  0  0  0
  143.4100   77.5570  220.0150 H   0  0  0  0  0  0  0  0  0  0  0  0
  142.6336   75.3122  218.1049 H   0  0  0  0  0  0  0  0  0  0  0  0
  144.3680   75.5811  218.5956 H   0  0  0  0  0  0  0  0  0  0  0  0
  142.1227   72.9082  221.8275 H   0  0  0  0  0  0  0  0  0  0  0  0
  141.1286   74.1172  222.5626 H   0  0  0  0  0  0  0  0  0  0  0  0
  139.5140   72.4176  221.5146 H   0  0  0  0  0  0  0  0  0  0  0  0
  139.9960   71.4520  219.7300 H   0  0  0  0  0  0  0  0  0  0  0  0
  138.9570   74.0272  219.3803 H   0  0  0  0  0  0  0  0  0  0  0  0
  138.6896   74.6516  221.0002 H   0  0  0  0  0  0  0  0  0  0  0  0
  140.6396   75.5150  219.0380 H   0  0  0  0  0  0  0  0  0  0  0  0
  142.3220   76.5620  221.5740 H   0  0  0  0  0  0  0  0  0  0  0  0
  143.4096   78.8114  222.3191 H   0  0  0  0  0  0  0  0  0  0  0  0
  143.1501   80.8800  223.6220 H   0  0  0  0  0  0  0  0  0  0  0  0
  140.8927   81.5862  224.4144 H   0  0  0  0  0  0  0  0  0  0  0  0
  135.4191   79.3457  223.3916 H   0  0  0  0  0  0  0  0  0  0  0  0
  135.0789   81.1824  225.0773 H   0  0  0  0  0  0  0  0  0  0  0  0
  137.0523   82.3544  225.9846 H   0  0  0  0  0  0  0  0  0  0  0  0
  139.2134   78.0866  222.5488 H   0  0  0  0  0  0  0  0  0  0  0  0
  143.5106   79.9484  217.2001 H   0  0  0  0  0  0  0  0  0  0  0  0
  143.0392   82.3540  217.7356 H   0  0  0  0  0  0  0  0  0  0  0  0
  141.7307   84.0142  219.0017 H   0  0  0  0  0  0  0  0  0  0  0  0
  138.6554   82.6889  221.7407 H   0  0  0  0  0  0  0  0  0  0  0  0
  139.2097   80.3417  221.1331 H   0  0  0  0  0  0  0  0  0  0  0  0
  1  2  2  0
  2  3  1  0
  3  4  1  0
  4  5  1  0
  5  6  2  0
  5  7  1  0
  7  8  1  0
  8  9  1  0
  9 10  1  0
  9 11  1  0
 11 12  1  0
 12 13  1  0
 13 14  2  0
 13 15  1  0
 15 16  1  0
 16 17  2  0
 17 18  1  0
 18 19  2  0
 19 20  1  0
 20 21  1  0
 21 22  2  0
 22 23  1  0
 23 24  2  0
 24 25  1  0
 25 26  2  0
 20 27  2  0
  2 28  1  0
 28 29  2  0
 29 30  1  0
 30 31  2  0
 31 32  1  0
 32 33  2  0
 33 34  1  0
 33 35  1  0
 35 36  2  0
 36 37  1  0
 37 38  2  0
 12  7  1  0
 27 16  1  0
 38 28  1  0
 26 21  1  0
 37 31  1  0
  3 39  1  0
  4 40  1  0
  4 41  1  0
  8 42  1  0
  8 43  1  0
  9 44  1  1
 10 45  1  0
 11 46  1  0
 11 47  1  0
 12 48  1  6
 15 49  1  0
 17 50  1  0
 18 51  1  0
 19 52  1  0
 23 53  1  0
 24 54  1  0
 25 55  1  0
 27 56  1  0
 29 57  1  0
 30 58  1  0
 32 59  1  0
 35 60  1  0
 36 61  1  0
M  END
>  <smiles>  (42) 
O=C(NCC(=O)N1C[C@H](O)C[C@H]1C(=O)Nc1cccc(-c2ncccn2)c1)c1ccc2cc(F)ccc2n1

>  <score_type>  (42) 
oracle

>  <origin>  (42) 
autodockgpu

>  <m_score__min__energy>  (42) 
-9.6600000000000001

>  <m_primary>  (42) 
energy

>  <rmsd>  (42) 
8.822945509220602

>  <m_score__min__rmsd>  (42) 
8.822945509220602

>  <meeko>  (42) 
{"free_energy": -7.21, "intermolecular_energy": -9.59, "internal_energy": -3.64, "cluster_size": 2, "cluster_id": 15, "rank_in_cluster": 1}

>  <energy>  (42) 
-6.5

>  <cluster_rmsd>  (42) 
1.99

>  <cluster>  (42) 
12

$$$$

     RDKit          3D

 61 65  0  0  0  0  0  0  0  0999 V2000
  138.4010   73.3580  221.9730 O   0  0  0  0  0  0  0  0  0  0  0  0
  139.3290   74.0830  221.5020 C   0  0  0  0  0  0  0  0  0  0  0  0
  139.1430   75.4720  221.2630 N   0  0  0  0  0  0  0  0  0  0  0  0
  137.8720   76.0970  221.5560 C   0  0  0  0  0  0  0  0  0  0  0  0
  138.0070   77.3280  222.3470 C   0  0  0  0  0  0  0  0  0  0  0  0
  137.1360   77.7060  223.1740 O   0  0  0  0  0  0  0  0  0  0  0  0
  139.1760   78.1160  222.1610 N   0  0  0  0  0  0  0  0  0  0  0  0
  139.7920   78.5320  220.8910 C   0  0  0  0  0  0  0  0  0  0  0  0
  141.2400   78.2080  221.1930 C   0  0  2  0  0  0  0  0  0  0  0  0
  141.4000   76.8150  221.2140 O   0  0  0  0  0  0  0  0  0  0  0  0
  141.4060   78.7980  222.5770 C   0  0  0  0  0  0  0  0  0  0  0  0
  140.0350   78.6960  223.1790 C   0  0  1  0  0  0  0  0  0  0  0  0
  139.5180   80.0240  223.6190 C   0  0  0  0  0  0  0  0  0  0  0  0
  140.3700   80.9090  223.8490 O   0  0  0  0  0  0  0  0  0  0  0  0
  138.1240   80.2310  223.7560 N   0  0  0  0  0  0  0  0  0  0  0  0
  137.5000   81.4200  224.1590 C   0  0  0  0  0  0  0  0  0  0  0  0
  137.2920   82.5340  223.3870 C   0  0  0  0  0  0  0  0  0  0  0  0
  136.6640   83.6800  223.8530 C   0  0  0  0  0  0  0  0  0  0  0  0
  136.2130   83.7410  225.1470 C   0  0  0  0  0  0  0  0  0  0  0  0
  136.4150   82.6270  225.9350 C   0  0  0  0  0  0  0  0  0  0  0  0
  135.9530   82.6430  227.3150 C   0  0  0  0  0  0  0  0  0  0  0  0
  135.2110   83.6700  227.7790 N   0  0  0  0  0  0  0  0  0  0  0  0
  134.7470   83.7600  229.0360 C   0  0  0  0  0  0  0  0  0  0  0  0
  135.0560   82.7270  229.9020 C   0  0  0  0  0  0  0  0  0  0  0  0
  135.8120   81.6760  229.4380 C   0  0  0  0  0  0  0  0  0  0  0  0
  136.2610   81.6220  228.1620 N   0  0  0  0  0  0  0  0  0  0  0  0
  137.0390   81.4920  225.4680 C   0  0  0  0  0  0  0  0  0  0  0  0
  140.6350   73.4820  221.1930 C   0  0  0  0  0  0  0  0  0  0  0  0
  140.7710   72.1100  221.1390 C   0  0  0  0  0  0  0  0  0  0  0  0
  142.0240   71.5620  220.8420 C   0  0  0  0  0  0  0  0  0  0  0  0
  143.1010   72.3970  220.6090 C   0  0  0  0  0  0  0  0  0  0  0  0
  144.3650   71.9010  220.3100 C   0  0  0  0  0  0  0  0  0  0  0  0
  145.4190   72.7750  220.0830 C   0  0  0  0  0  0  0  0  0  0  0  0
  146.6490   72.2610  219.7920 F   0  0  0  0  0  0  0  0  0  0  0  0
  145.2640   74.1480  220.1410 C   0  0  0  0  0  0  0  0  0  0  0  0
  143.9990   74.6120  220.4390 C   0  0  0  0  0  0  0  0  0  0  0  0
  142.9280   73.7660  220.6710 C   0  0  0  0  0  0  0  0  0  0  0  0
  141.7130   74.2650  220.9580 N   0  0  0  0  0  0  0  0  0  0  0  0
  139.9640   76.0110  220.8690 H   0  0  0  0  0  0  0  0  0  0  0  0
  137.3751   76.3433  220.6060 H   0  0  0  0  0  0  0  0  0  0  0  0
  137.2846   75.3844  222.1536 H   0  0  0  0  0  0  0  0  0  0  0  0
  139.4105   77.9485  220.0401 H   0  0  0  0  0  0  0  0  0  0  0  0
  139.5984   79.5744  220.5978 H   0  0  0  0  0  0  0  0  0  0  0  0
  141.9692   78.5958  220.4664 H   0  0  0  0  0  0  0  0  0  0  0  0
  142.3660   76.5940  221.1380 H   0  0  0  0  0  0  0  0  0  0  0  0
  142.1352   78.2203  223.1639 H   0  0  0  0  0  0  0  0  0  0  0  0
  141.7845   79.8306  222.5556 H   0  0  0  0  0  0  0  0  0  0  0  0
  140.0624   78.0696  224.0828 H   0  0  0  0  0  0  0  0  0  0  0  0
  137.5210   79.3970  223.5300 H   0  0  0  0  0  0  0  0  0  0  0  0
  137.6412   82.5182  222.3440 H   0  0  0  0  0  0  0  0  0  0  0  0
  136.5274   84.5418  223.1832 H   0  0  0  0  0  0  0  0  0  0  0  0
  135.7124   84.6386  225.5390 H   0  0  0  0  0  0  0  0  0  0  0  0
  134.1454   84.6207  229.3636 H   0  0  0  0  0  0  0  0  0  0  0  0
  134.7033   82.7456  230.9437 H   0  0  0  0  0  0  0  0  0  0  0  0
  136.0596   80.8535  230.1252 H   0  0  0  0  0  0  0  0  0  0  0  0
  137.1743   80.6313  226.1395 H   0  0  0  0  0  0  0  0  0  0  0  0
  139.9066   71.4561  221.3268 H   0  0  0  0  0  0  0  0  0  0  0  0
  142.1516   70.4705  220.7941 H   0  0  0  0  0  0  0  0  0  0  0  0
  144.5298   70.8149  220.2533 H   0  0  0  0  0  0  0  0  0  0  0  0
  146.1045   74.8339  219.9593 H   0  0  0  0  0  0  0  0  0  0  0  0
  143.8349   75.6983  220.4944 H   0  0  0  0  0  0  0  0  0  0  0  0
  1  2  2  0
  2  3  1  0
  3  4  1  0
  4  5  1  0
  5  6  2  0
  5  7  1  0
  7  8  1  0
  8  9  1  0
  9 10  1  0
  9 11  1  0
 11 12  1  0
 12 13  1  0
 13 14  2  0
 13 15  1  0
 15 16  1  0
 16 17  2  0
 17 18  1  0
 18 19  2  0
 19 20  1  0
 20 21  1  0
 21 22  2  0
 22 23  1  0
 23 24  2  0
 24 25  1  0
 25 26  2  0
 20 27  2  0
  2 28  1  0
 28 29  2  0
 29 30  1  0
 30 31  2  0
 31 32  1  0
 32 33  2  0
 33 34  1  0
 33 35  1  0
 35 36  2  0
 36 37  1  0
 37 38  2  0
 12  7  1  0
 27 16  1  0
 38 28  1  0
 26 21  1  0
 37 31  1  0
  3 39  1  0
  4 40  1  0
  4 41  1  0
  8 42  1  0
  8 43  1  0
  9 44  1  6
 10 45  1  0
 11 46  1  0
 11 47  1  0
 12 48  1  1
 15 49  1  0
 17 50  1  0
 18 51  1  0
 19 52  1  0
 23 53  1  0
 24 54  1  0
 25 55  1  0
 27 56  1  0
 29 57  1  0
 30 58  1  0
 32 59  1  0
 35 60  1  0
 36 61  1  0
M  END
>  <smiles>  (43) 
O=C(NCC(=O)N1C[C@H](O)C[C@H]1C(=O)Nc1cccc(-c2ncccn2)c1)c1ccc2cc(F)ccc2n1

>  <score_type>  (43) 
oracle

>  <origin>  (43) 
autodockgpu

>  <m_score__min__energy>  (43) 
-9.6600000000000001

>  <m_primary>  (43) 
energy

>  <rmsd>  (43) 
5.823023595079849

>  <m_score__min__rmsd>  (43) 
5.823023595079849

>  <meeko>  (43) 
{"free_energy": -7.4, "intermolecular_energy": -9.79, "internal_energy": -3.93, "cluster_size": 1, "cluster_id": 13, "rank_in_cluster": 1}

>  <energy>  (43) 
-7.4

>  <cluster_rmsd>  (43) 
0.0

>  <cluster>  (43) 
13

$$$$

     RDKit          3D

 61 65  0  0  0  0  0  0  0  0999 V2000
  139.4250   70.9810  221.4640 O   0  0  0  0  0  0  0  0  0  0  0  0
  138.9660   71.4850  222.5340 C   0  0  0  0  0  0  0  0  0  0  0  0
  137.9180   72.4460  222.5170 N   0  0  0  0  0  0  0  0  0  0  0  0
  137.3440   72.8750  221.2610 C   0  0  0  0  0  0  0  0  0  0  0  0
  137.6340   74.2830  220.9500 C   0  0  0  0  0  0  0  0  0  0  0  0
  136.7310   75.1490  220.8120 O   0  0  0  0  0  0  0  0  0  0  0  0
  138.9940   74.6670  220.8020 N   0  0  0  0  0  0  0  0  0  0  0  0
  139.7300   74.9210  219.5540 C   0  0  0  0  0  0  0  0  0  0  0  0
  140.9960   74.1410  219.8420 C   0  0  2  0  0  0  0  0  0  0  0  0
  140.7070   72.7700  219.7990 O   0  0  0  0  0  0  0  0  0  0  0  0
  141.3180   74.5880  221.2520 C   0  0  0  0  0  0  0  0  0  0  0  0
  139.9770   74.8990  221.8470 C   0  0  1  0  0  0  0  0  0  0  0  0
  139.9000   76.3030  222.3470 C   0  0  0  0  0  0  0  0  0  0  0  0
  138.7720   76.7130  222.6950 O   0  0  0  0  0  0  0  0  0  0  0  0
  141.0710   77.0970  222.4110 N   0  0  0  0  0  0  0  0  0  0  0  0
  141.1470   78.4240  222.8570 C   0  0  0  0  0  0  0  0  0  0  0  0
  142.2910   79.1590  223.0340 C   0  0  0  0  0  0  0  0  0  0  0  0
  142.2920   80.4740  223.4790 C   0  0  0  0  0  0  0  0  0  0  0  0
  141.1080   81.1050  223.7660 C   0  0  0  0  0  0  0  0  0  0  0  0
  139.9510   80.3760  223.5920 C   0  0  0  0  0  0  0  0  0  0  0  0
  138.6700   81.0030  223.8820 C   0  0  0  0  0  0  0  0  0  0  0  0
  138.1020   81.8480  222.9970 N   0  0  0  0  0  0  0  0  0  0  0  0
  136.9250   82.4660  223.1890 C   0  0  0  0  0  0  0  0  0  0  0  0
  136.2610   82.2120  224.3760 C   0  0  0  0  0  0  0  0  0  0  0  0
  136.8320   81.3520  225.2840 C   0  0  0  0  0  0  0  0  0  0  0  0
  138.0220   80.7480  225.0530 N   0  0  0  0  0  0  0  0  0  0  0  0
  139.9540   79.0730  223.1510 C   0  0  0  0  0  0  0  0  0  0  0  0
  139.5250   71.0720  223.8300 C   0  0  0  0  0  0  0  0  0  0  0  0
  140.4060   71.8960  224.4990 C   0  0  0  0  0  0  0  0  0  0  0  0
  140.9230   71.4810  225.7310 C   0  0  0  0  0  0  0  0  0  0  0  0
  140.5480   70.2580  226.2570 C   0  0  0  0  0  0  0  0  0  0  0  0
  141.0340   69.8010  227.4770 C   0  0  0  0  0  0  0  0  0  0  0  0
  140.6310   68.5670  227.9680 C   0  0  0  0  0  0  0  0  0  0  0  0
  141.1240   68.1440  229.1670 F   0  0  0  0  0  0  0  0  0  0  0  0
  139.7470   67.7550  227.2830 C   0  0  0  0  0  0  0  0  0  0  0  0
  139.2800   68.2330  226.0760 C   0  0  0  0  0  0  0  0  0  0  0  0
  139.6630   69.4590  225.5590 C   0  0  0  0  0  0  0  0  0  0  0  0
  139.1820   69.8840  224.3780 N   0  0  0  0  0  0  0  0  0  0  0  0
  137.5880   72.8210  223.4500 H   0  0  0  0  0  0  0  0  0  0  0  0
  137.7522   72.2465  220.4558 H   0  0  0  0  0  0  0  0  0  0  0  0
  136.2519   72.7740  221.3457 H   0  0  0  0  0  0  0  0  0  0  0  0
  139.1967   74.5268  218.6764 H   0  0  0  0  0  0  0  0  0  0  0  0
  139.8816   75.9827  219.3096 H   0  0  0  0  0  0  0  0  0  0  0  0
  141.8216   74.3080  219.1346 H   0  0  0  0  0  0  0  0  0  0  0  0
  139.9790   72.5670  220.4430 H   0  0  0  0  0  0  0  0  0  0  0  0
  141.8181   73.7845  221.8127 H   0  0  0  0  0  0  0  0  0  0  0  0
  142.0034   75.4479  221.2782 H   0  0  0  0  0  0  0  0  0  0  0  0
  139.7910   74.2570  222.7206 H   0  0  0  0  0  0  0  0  0  0  0  0
  141.9540   76.6230  222.0860 H   0  0  0  0  0  0  0  0  0  0  0  0
  143.2572   78.6823  222.8121 H   0  0  0  0  0  0  0  0  0  0  0  0
  143.2441   81.0112  223.6018 H   0  0  0  0  0  0  0  0  0  0  0  0
  141.0831   82.1464  224.1193 H   0  0  0  0  0  0  0  0  0  0  0  0
  136.5059   83.1465  222.4331 H   0  0  0  0  0  0  0  0  0  0  0  0
  135.2934   82.6897  224.5894 H   0  0  0  0  0  0  0  0  0  0  0  0
  136.3056   81.1480  226.2281 H   0  0  0  0  0  0  0  0  0  0  0  0
  139.0004   78.5383  223.0296 H   0  0  0  0  0  0  0  0  0  0  0  0
  140.6980   72.8658  224.0698 H   0  0  0  0  0  0  0  0  0  0  0  0
  141.6256   72.1254  226.2797 H   0  0  0  0  0  0  0  0  0  0  0  0
  141.7387   70.4182  228.0536 H   0  0  0  0  0  0  0  0  0  0  0  0
  139.4321   66.7784  227.6795 H   0  0  0  0  0  0  0  0  0  0  0  0
  138.5747   67.6150  225.5010 H   0  0  0  0  0  0  0  0  0  0  0  0
  1  2  2  0
  2  3  1  0
  3  4  1  0
  4  5  1  0
  5  6  2  0
  5  7  1  0
  7  8  1  0
  8  9  1  0
  9 10  1  0
  9 11  1  0
 11 12  1  0
 12 13  1  0
 13 14  2  0
 13 15  1  0
 15 16  1  0
 16 17  2  0
 17 18  1  0
 18 19  2  0
 19 20  1  0
 20 21  1  0
 21 22  2  0
 22 23  1  0
 23 24  2  0
 24 25  1  0
 25 26  2  0
 20 27  2  0
  2 28  1  0
 28 29  2  0
 29 30  1  0
 30 31  2  0
 31 32  1  0
 32 33  2  0
 33 34  1  0
 33 35  1  0
 35 36  2  0
 36 37  1  0
 37 38  2  0
 12  7  1  0
 27 16  1  0
 38 28  1  0
 26 21  1  0
 37 31  1  0
  3 39  1  0
  4 40  1  0
  4 41  1  0
  8 42  1  0
  8 43  1  0
  9 44  1  6
 10 45  1  0
 11 46  1  0
 11 47  1  0
 12 48  1  1
 15 49  1  0
 17 50  1  0
 18 51  1  0
 19 52  1  0
 23 53  1  0
 24 54  1  0
 25 55  1  0
 27 56  1  0
 29 57  1  0
 30 58  1  0
 32 59  1  0
 35 60  1  0
 36 61  1  0
M  END
>  <smiles>  (44) 
O=C(NCC(=O)N1C[C@H](O)C[C@H]1C(=O)Nc1cccc(-c2ncccn2)c1)c1ccc2cc(F)ccc2n1

>  <score_type>  (44) 
oracle

>  <origin>  (44) 
autodockgpu

>  <m_score__min__energy>  (44) 
-9.6600000000000001

>  <m_primary>  (44) 
energy

>  <rmsd>  (44) 
3.011762948067887

>  <m_score__min__rmsd>  (44) 
3.011762948067887

>  <meeko>  (44) 
{"free_energy": -9.47, "intermolecular_energy": -11.85, "internal_energy": -2.57, "cluster_size": 9, "cluster_id": 2, "rank_in_cluster": 1}

>  <energy>  (44) 
-7.25

>  <cluster_rmsd>  (44) 
0.0

>  <cluster>  (44) 
14

$$$$

     RDKit          3D

 61 65  0  0  0  0  0  0  0  0999 V2000
  140.2790   79.1150  223.7360 O   0  0  0  0  0  0  0  0  0  0  0  0
  140.9020   78.3420  222.9450 C   0  0  0  0  0  0  0  0  0  0  0  0
  142.1990   78.6610  222.4570 N   0  0  0  0  0  0  0  0  0  0  0  0
  142.8450   79.8910  222.8570 C   0  0  0  0  0  0  0  0  0  0  0  0
  141.9200   81.0320  222.9160 C   0  0  0  0  0  0  0  0  0  0  0  0
  141.6660   81.6480  223.9830 O   0  0  0  0  0  0  0  0  0  0  0  0
  141.2910   81.4440  221.7090 N   0  0  0  0  0  0  0  0  0  0  0  0
  141.3190   82.7760  221.0860 C   0  0  0  0  0  0  0  0  0  0  0  0
  139.8480   82.9350  220.7630 C   0  0  2  0  0  0  0  0  0  0  0  0
  139.1370   83.1270  221.9560 O   0  0  0  0  0  0  0  0  0  0  0  0
  139.5220   81.5930  220.1420 C   0  0  0  0  0  0  0  0  0  0  0  0
  140.4760   80.6470  220.8080 C   0  0  1  0  0  0  0  0  0  0  0  0
  141.3270   79.9230  219.8190 C   0  0  0  0  0  0  0  0  0  0  0  0
  141.9510   80.6260  218.9960 O   0  0  0  0  0  0  0  0  0  0  0  0
  141.3970   78.5090  219.8470 N   0  0  0  0  0  0  0  0  0  0  0  0
  142.1500   77.7010  218.9830 C   0  0  0  0  0  0  0  0  0  0  0  0
  142.3850   77.9300  217.6510 C   0  0  0  0  0  0  0  0  0  0  0  0
  143.1450   77.0850  216.8540 C   0  0  0  0  0  0  0  0  0  0  0  0
  143.7050   75.9530  217.3890 C   0  0  0  0  0  0  0  0  0  0  0  0
  143.4760   75.7110  218.7280 C   0  0  0  0  0  0  0  0  0  0  0  0
  144.0510   74.5230  219.3400 C   0  0  0  0  0  0  0  0  0  0  0  0
  144.8820   74.6290  220.3980 N   0  0  0  0  0  0  0  0  0  0  0  0
  145.4530   73.5850  221.0200 C   0  0  0  0  0  0  0  0  0  0  0  0
  145.1630   72.3220  220.5350 C   0  0  0  0  0  0  0  0  0  0  0  0
  144.3180   72.2040  219.4570 C   0  0  0  0  0  0  0  0  0  0  0  0
  143.7610   73.2830  218.8570 N   0  0  0  0  0  0  0  0  0  0  0  0
  142.7220   76.5520  219.5140 C   0  0  0  0  0  0  0  0  0  0  0  0
  140.2750   77.0830  222.5170 C   0  0  0  0  0  0  0  0  0  0  0  0
  138.9170   76.8980  222.6690 C   0  0  0  0  0  0  0  0  0  0  0  0
  138.3440   75.6910  222.2530 C   0  0  0  0  0  0  0  0  0  0  0  0
  139.1430   74.7060  221.7000 C   0  0  0  0  0  0  0  0  0  0  0  0
  138.6210   73.4900  221.2720 C   0  0  0  0  0  0  0  0  0  0  0  0
  139.4590   72.5290  220.7230 C   0  0  0  0  0  0  0  0  0  0  0  0
  138.9210   71.3450  220.3110 F   0  0  0  0  0  0  0  0  0  0  0  0
  140.8190   72.7320  220.5790 C   0  0  0  0  0  0  0  0  0  0  0  0
  141.3090   73.9480  221.0120 C   0  0  0  0  0  0  0  0  0  0  0  0
  140.5000   74.9260  221.5640 C   0  0  0  0  0  0  0  0  0  0  0  0
  141.0220   76.0950  221.9710 N   0  0  0  0  0  0  0  0  0  0  0  0
  142.6550   77.9670  221.8010 H   0  0  0  0  0  0  0  0  0  0  0  0
  143.2877   79.7466  223.8536 H   0  0  0  0  0  0  0  0  0  0  0  0
  143.6075   80.1241  222.0992 H   0  0  0  0  0  0  0  0  0  0  0  0
  141.6708   83.5484  221.7857 H   0  0  0  0  0  0  0  0  0  0  0  0
  141.9992   82.8759  220.2273 H   0  0  0  0  0  0  0  0  0  0  0  0
  139.6001   83.7859  220.1115 H   0  0  0  0  0  0  0  0  0  0  0  0
  139.6230   82.6890  222.7030 H   0  0  0  0  0  0  0  0  0  0  0  0
  138.4798   81.3085  220.3493 H   0  0  0  0  0  0  0  0  0  0  0  0
  139.6228   81.5964  219.0466 H   0  0  0  0  0  0  0  0  0  0  0  0
  139.9214   79.8693  221.3535 H   0  0  0  0  0  0  0  0  0  0  0  0
  140.8180   78.0440  220.5950 H   0  0  0  0  0  0  0  0  0  0  0  0
  141.9489   78.8291  217.1911 H   0  0  0  0  0  0  0  0  0  0  0  0
  143.2985   77.3237  215.7912 H   0  0  0  0  0  0  0  0  0  0  0  0
  144.3103   75.2679  216.7773 H   0  0  0  0  0  0  0  0  0  0  0  0
  146.1239   73.7279  221.8799 H   0  0  0  0  0  0  0  0  0  0  0  0
  145.6007   71.4283  221.0036 H   0  0  0  0  0  0  0  0  0  0  0  0
  144.0868   71.2009  219.0692 H   0  0  0  0  0  0  0  0  0  0  0  0
  142.5703   76.3112  220.5766 H   0  0  0  0  0  0  0  0  0  0  0  0
  138.2927   77.6884  223.1112 H   0  0  0  0  0  0  0  0  0  0  0  0
  137.2623   75.5259  222.3652 H   0  0  0  0  0  0  0  0  0  0  0  0
  137.5437   73.2896  221.3685 H   0  0  0  0  0  0  0  0  0  0  0  0
  141.4759   71.9652  220.1425 H   0  0  0  0  0  0  0  0  0  0  0  0
  142.3863   74.1477  220.9143 H   0  0  0  0  0  0  0  0  0  0  0  0
  1  2  2  0
  2  3  1  0
  3  4  1  0
  4  5  1  0
  5  6  2  0
  5  7  1  0
  7  8  1  0
  8  9  1  0
  9 10  1  0
  9 11  1  0
 11 12  1  0
 12 13  1  0
 13 14  2  0
 13 15  1  0
 15 16  1  0
 16 17  2  0
 17 18  1  0
 18 19  2  0
 19 20  1  0
 20 21  1  0
 21 22  2  0
 22 23  1  0
 23 24  2  0
 24 25  1  0
 25 26  2  0
 20 27  2  0
  2 28  1  0
 28 29  2  0
 29 30  1  0
 30 31  2  0
 31 32  1  0
 32 33  2  0
 33 34  1  0
 33 35  1  0
 35 36  2  0
 36 37  1  0
 37 38  2  0
 12  7  1  0
 27 16  1  0
 38 28  1  0
 26 21  1  0
 37 31  1  0
  3 39  1  0
  4 40  1  0
  4 41  1  0
  8 42  1  0
  8 43  1  0
  9 44  1  6
 10 45  1  0
 11 46  1  0
 11 47  1  0
 12 48  1  1
 15 49  1  0
 17 50  1  0
 18 51  1  0
 19 52  1  0
 23 53  1  0
 24 54  1  0
 25 55  1  0
 27 56  1  0
 29 57  1  0
 30 58  1  0
 32 59  1  0
 35 60  1  0
 36 61  1  0
M  END
>  <smiles>  (45) 
O=C(NCC(=O)N1C[C@H](O)C[C@H]1C(=O)Nc1cccc(-c2ncccn2)c1)c1ccc2cc(F)ccc2n1

>  <score_type>  (45) 
oracle

>  <origin>  (45) 
autodockgpu

>  <m_score__min__energy>  (45) 
-9.6600000000000001

>  <m_primary>  (45) 
energy

>  <rmsd>  (45) 
7.023034933166279

>  <m_score__min__rmsd>  (45) 
7.023034933166279

>  <meeko>  (45) 
{"free_energy": -7.1, "intermolecular_energy": -9.49, "internal_energy": -3.89, "cluster_size": 1, "cluster_id": 16, "rank_in_cluster": 1}

>  <energy>  (45) 
-6.65

>  <cluster_rmsd>  (45) 
0.88

>  <cluster>  (45) 
14

$$$$

     RDKit          3D

 61 65  0  0  0  0  0  0  0  0999 V2000
  143.1050   77.3780  217.2300 O   0  0  0  0  0  0  0  0  0  0  0  0
  142.9200   77.8320  218.4000 C   0  0  0  0  0  0  0  0  0  0  0  0
  143.1820   77.0460  219.5560 N   0  0  0  0  0  0  0  0  0  0  0  0
  143.6720   75.6920  219.4200 C   0  0  0  0  0  0  0  0  0  0  0  0
  142.5920   74.6990  219.3280 C   0  0  0  0  0  0  0  0  0  0  0  0
  142.6930   73.6450  218.6480 O   0  0  0  0  0  0  0  0  0  0  0  0
  141.3900   74.9540  220.0420 N   0  0  0  0  0  0  0  0  0  0  0  0
  140.1550   75.5780  219.5400 C   0  0  0  0  0  0  0  0  0  0  0  0
  139.8840   76.5490  220.6700 C   0  0  2  0  0  0  0  0  0  0  0  0
  140.8350   77.5790  220.6240 O   0  0  0  0  0  0  0  0  0  0  0  0
  140.0880   75.6710  221.8860 C   0  0  0  0  0  0  0  0  0  0  0  0
  141.0960   74.6570  221.4340 C   0  0  1  0  0  0  0  0  0  0  0  0
  140.5920   73.2610  221.5860 C   0  0  0  0  0  0  0  0  0  0  0  0
  141.1280   72.3900  220.8690 O   0  0  0  0  0  0  0  0  0  0  0  0
  139.5570   72.9800  222.5110 N   0  0  0  0  0  0  0  0  0  0  0  0
  138.9870   71.7230  222.7570 C   0  0  0  0  0  0  0  0  0  0  0  0
  138.0020   71.1160  222.0210 C   0  0  0  0  0  0  0  0  0  0  0  0
  137.4840   69.8640  222.3230 C   0  0  0  0  0  0  0  0  0  0  0  0
  137.9550   69.1670  223.4070 C   0  0  0  0  0  0  0  0  0  0  0  0
  138.9460   69.7660  224.1560 C   0  0  0  0  0  0  0  0  0  0  0  0
  139.4790   69.0650  225.3140 C   0  0  0  0  0  0  0  0  0  0  0  0
  140.2570   69.7090  226.2090 N   0  0  0  0  0  0  0  0  0  0  0  0
  140.7870   69.1360  227.3020 C   0  0  0  0  0  0  0  0  0  0  0  0
  140.5100   67.7970  227.5130 C   0  0  0  0  0  0  0  0  0  0  0  0
  139.7180   67.1320  226.6060 C   0  0  0  0  0  0  0  0  0  0  0  0
  139.2020   67.7470  225.5150 N   0  0  0  0  0  0  0  0  0  0  0  0
  139.4570   71.0080  223.8520 C   0  0  0  0  0  0  0  0  0  0  0  0
  142.4230   79.2050  218.5760 C   0  0  0  0  0  0  0  0  0  0  0  0
  142.2250   80.0160  217.4790 C   0  0  0  0  0  0  0  0  0  0  0  0
  141.7500   81.3180  217.6730 C   0  0  0  0  0  0  0  0  0  0  0  0
  141.4890   81.7710  218.9530 C   0  0  0  0  0  0  0  0  0  0  0  0
  141.0170   83.0560  219.1970 C   0  0  0  0  0  0  0  0  0  0  0  0
  140.7680   83.4690  220.4990 C   0  0  0  0  0  0  0  0  0  0  0  0
  140.3050   84.7350  220.7100 F   0  0  0  0  0  0  0  0  0  0  0  0
  140.9720   82.6410  221.5870 C   0  0  0  0  0  0  0  0  0  0  0  0
  141.4410   81.3720  221.3150 C   0  0  0  0  0  0  0  0  0  0  0  0
  141.6990   80.9300  220.0290 C   0  0  0  0  0  0  0  0  0  0  0  0
  142.1550   79.6840  219.8130 N   0  0  0  0  0  0  0  0  0  0  0  0
  143.0040   77.4940  220.4980 H   0  0  0  0  0  0  0  0  0  0  0  0
  144.2841   75.6302  218.5081 H   0  0  0  0  0  0  0  0  0  0  0  0
  144.2570   75.4606  220.3224 H   0  0  0  0  0  0  0  0  0  0  0  0
  140.3175   76.0970  218.5839 H   0  0  0  0  0  0  0  0  0  0  0  0
  139.3352   74.8787  219.3187 H   0  0  0  0  0  0  0  0  0  0  0  0
  138.8968   77.0337  220.6458 H   0  0  0  0  0  0  0  0  0  0  0  0
  140.5950   78.2150  219.8990 H   0  0  0  0  0  0  0  0  0  0  0  0
  140.4755   76.2579  222.7318 H   0  0  0  0  0  0  0  0  0  0  0  0
  139.1530   75.2114  222.2389 H   0  0  0  0  0  0  0  0  0  0  0  0
  142.0015   74.7188  222.0556 H   0  0  0  0  0  0  0  0  0  0  0  0
  139.1970   73.8110  223.0500 H   0  0  0  0  0  0  0  0  0  0  0  0
  137.6016   71.6488  221.1459 H   0  0  0  0  0  0  0  0  0  0  0  0
  136.6944   69.4298  221.6921 H   0  0  0  0  0  0  0  0  0  0  0  0
  137.5595   68.1741  223.6672 H   0  0  0  0  0  0  0  0  0  0  0  0
  141.4154   69.7078  228.0007 H   0  0  0  0  0  0  0  0  0  0  0  0
  140.9161   67.2732  228.3909 H   0  0  0  0  0  0  0  0  0  0  0  0
  139.4967   66.0673  226.7719 H   0  0  0  0  0  0  0  0  0  0  0  0
  140.2472   71.4396  224.4839 H   0  0  0  0  0  0  0  0  0  0  0  0
  142.4374   79.6450  216.4655 H   0  0  0  0  0  0  0  0  0  0  0  0
  141.5847   81.9792  216.8096 H   0  0  0  0  0  0  0  0  0  0  0  0
  140.8408   83.7455  218.3583 H   0  0  0  0  0  0  0  0  0  0  0  0
  140.7711   82.9760  222.6153 H   0  0  0  0  0  0  0  0  0  0  0  0
  141.6170   80.6835  222.1546 H   0  0  0  0  0  0  0  0  0  0  0  0
  1  2  2  0
  2  3  1  0
  3  4  1  0
  4  5  1  0
  5  6  2  0
  5  7  1  0
  7  8  1  0
  8  9  1  0
  9 10  1  0
  9 11  1  0
 11 12  1  0
 12 13  1  0
 13 14  2  0
 13 15  1  0
 15 16  1  0
 16 17  2  0
 17 18  1  0
 18 19  2  0
 19 20  1  0
 20 21  1  0
 21 22  2  0
 22 23  1  0
 23 24  2  0
 24 25  1  0
 25 26  2  0
 20 27  2  0
  2 28  1  0
 28 29  2  0
 29 30  1  0
 30 31  2  0
 31 32  1  0
 32 33  2  0
 33 34  1  0
 33 35  1  0
 35 36  2  0
 36 37  1  0
 37 38  2  0
 12  7  1  0
 27 16  1  0
 38 28  1  0
 26 21  1  0
 37 31  1  0
  3 39  1  0
  4 40  1  0
  4 41  1  0
  8 42  1  0
  8 43  1  0
  9 44  1  6
 10 45  1  0
 11 46  1  0
 11 47  1  0
 12 48  1  1
 15 49  1  0
 17 50  1  0
 18 51  1  0
 19 52  1  0
 23 53  1  0
 24 54  1  0
 25 55  1  0
 27 56  1  0
 29 57  1  0
 30 58  1  0
 32 59  1  0
 35 60  1  0
 36 61  1  0
M  END
>  <smiles>  (46) 
O=C(NCC(=O)N1C[C@H](O)C[C@H]1C(=O)Nc1cccc(-c2ncccn2)c1)c1ccc2cc(F)ccc2n1

>  <score_type>  (46) 
oracle

>  <origin>  (46) 
autodockgpu

>  <m_score__min__energy>  (46) 
-9.6600000000000001

>  <m_primary>  (46) 
energy

>  <rmsd>  (46) 
10.221453799539457

>  <m_score__min__rmsd>  (46) 
10.221453799539457

>  <meeko>  (46) 
{"free_energy": -7.66, "intermolecular_energy": -10.05, "internal_energy": -3.53, "cluster_size": 9, "cluster_id": 3, "rank_in_cluster": 9}

>  <energy>  (46) 
-7.21

>  <cluster_rmsd>  (46) 
0.0

>  <cluster>  (46) 
15

$$$$

     RDKit          3D

 61 65  0  0  0  0  0  0  0  0999 V2000
  140.6680   77.5670  217.7830 O   0  0  0  0  0  0  0  0  0  0  0  0
  141.6780   77.5920  218.5520 C   0  0  0  0  0  0  0  0  0  0  0  0
  142.7170   76.6260  218.4510 N   0  0  0  0  0  0  0  0  0  0  0  0
  142.6430   75.5800  217.4550 C   0  0  0  0  0  0  0  0  0  0  0  0
  143.2880   74.3310  217.8870 C   0  0  0  0  0  0  0  0  0  0  0  0
  143.5520   73.3910  217.0940 O   0  0  0  0  0  0  0  0  0  0  0  0
  143.6200   74.1940  219.2630 N   0  0  0  0  0  0  0  0  0  0  0  0
  144.4510   75.0870  220.0850 C   0  0  0  0  0  0  0  0  0  0  0  0
  145.3240   74.0590  220.7740 C   0  0  2  0  0  0  0  0  0  0  0  0
  146.2190   73.5200  219.8390 O   0  0  0  0  0  0  0  0  0  0  0  0
  144.3020   73.0300  221.2100 C   0  0  0  0  0  0  0  0  0  0  0  0
  143.2190   73.1400  220.1780 C   0  0  1  0  0  0  0  0  0  0  0  0
  141.8930   73.4440  220.7920 C   0  0  0  0  0  0  0  0  0  0  0  0
  141.2330   72.4700  221.2120 O   0  0  0  0  0  0  0  0  0  0  0  0
  141.4430   74.7840  220.8750 N   0  0  0  0  0  0  0  0  0  0  0  0
  140.2250   75.2150  221.4220 C   0  0  0  0  0  0  0  0  0  0  0  0
  139.1430   74.4280  221.7240 C   0  0  0  0  0  0  0  0  0  0  0  0
  137.9670   74.9240  222.2670 C   0  0  0  0  0  0  0  0  0  0  0  0
  137.8400   76.2640  222.5290 C   0  0  0  0  0  0  0  0  0  0  0  0
  138.9210   77.0670  222.2300 C   0  0  0  0  0  0  0  0  0  0  0  0
  138.8350   78.4960  222.4910 C   0  0  0  0  0  0  0  0  0  0  0  0
  139.0660   78.9830  223.7280 N   0  0  0  0  0  0  0  0  0  0  0  0
  139.0060   80.2850  224.0520 C   0  0  0  0  0  0  0  0  0  0  0  0
  138.6870   81.1760  223.0420 C   0  0  0  0  0  0  0  0  0  0  0  0
  138.4500   80.6890  221.7780 C   0  0  0  0  0  0  0  0  0  0  0  0
  138.5200   79.3670  221.4920 N   0  0  0  0  0  0  0  0  0  0  0  0
  140.0860   76.5710  221.6910 C   0  0  0  0  0  0  0  0  0  0  0  0
  141.7850   78.6410  219.5760 C   0  0  0  0  0  0  0  0  0  0  0  0
  141.6840   79.9700  219.2200 C   0  0  0  0  0  0  0  0  0  0  0  0
  141.7890   80.9500  220.2130 C   0  0  0  0  0  0  0  0  0  0  0  0
  141.9920   80.5760  221.5290 C   0  0  0  0  0  0  0  0  0  0  0  0
  142.1030   81.5120  222.5510 C   0  0  0  0  0  0  0  0  0  0  0  0
  142.3070   81.0920  223.8580 C   0  0  0  0  0  0  0  0  0  0  0  0
  142.4120   82.0320  224.8420 F   0  0  0  0  0  0  0  0  0  0  0  0
  142.4060   79.7550  224.1970 C   0  0  0  0  0  0  0  0  0  0  0  0
  142.2920   78.8490  223.1620 C   0  0  0  0  0  0  0  0  0  0  0  0
  142.0890   79.2360  221.8490 C   0  0  0  0  0  0  0  0  0  0  0  0
  141.9830   78.3160  220.8740 N   0  0  0  0  0  0  0  0  0  0  0  0
  143.5260   76.7120  219.1270 H   0  0  0  0  0  0  0  0  0  0  0  0
  141.5839   75.3726  217.2420 H   0  0  0  0  0  0  0  0  0  0  0  0
  143.1783   75.9360  216.5624 H   0  0  0  0  0  0  0  0  0  0  0  0
  145.0426   75.7793  219.4680 H   0  0  0  0  0  0  0  0  0  0  0  0
  143.8935   75.7533  220.7598 H   0  0  0  0  0  0  0  0  0  0  0  0
  145.9346   74.4426  221.6047 H   0  0  0  0  0  0  0  0  0  0  0  0
  146.6650   74.2590  219.3470 H   0  0  0  0  0  0  0  0  0  0  0  0
  144.7392   72.0206  221.2129 H   0  0  0  0  0  0  0  0  0  0  0  0
  143.9341   73.2031  222.2321 H   0  0  0  0  0  0  0  0  0  0  0  0
  143.0962   72.1815  219.6525 H   0  0  0  0  0  0  0  0  0  0  0  0
  142.1010   75.5060  220.4810 H   0  0  0  0  0  0  0  0  0  0  0  0
  139.2114   73.3482  221.5254 H   0  0  0  0  0  0  0  0  0  0  0  0
  137.1339   74.2405  222.4881 H   0  0  0  0  0  0  0  0  0  0  0  0
  136.9169   76.6802  222.9587 H   0  0  0  0  0  0  0  0  0  0  0  0
  139.2024   80.6292  225.0781 H   0  0  0  0  0  0  0  0  0  0  0  0
  138.6241   82.2549  223.2469 H   0  0  0  0  0  0  0  0  0  0  0  0
  138.1956   81.3953  220.9740 H   0  0  0  0  0  0  0  0  0  0  0  0
  140.9175   77.2566  221.4704 H   0  0  0  0  0  0  0  0  0  0  0  0
  141.5231   80.2553  218.1699 H   0  0  0  0  0  0  0  0  0  0  0  0
  141.7103   82.0147  219.9479 H   0  0  0  0  0  0  0  0  0  0  0  0
  142.0291   82.5857  222.3237 H   0  0  0  0  0  0  0  0  0  0  0  0
  142.5670   79.4309  225.2358 H   0  0  0  0  0  0  0  0  0  0  0  0
  142.3655   77.7754  223.3902 H   0  0  0  0  0  0  0  0  0  0  0  0
  1  2  2  0
  2  3  1  0
  3  4  1  0
  4  5  1  0
  5  6  2  0
  5  7  1  0
  7  8  1  0
  8  9  1  0
  9 10  1  0
  9 11  1  0
 11 12  1  0
 12 13  1  0
 13 14  2  0
 13 15  1  0
 15 16  1  0
 16 17  2  0
 17 18  1  0
 18 19  2  0
 19 20  1  0
 20 21  1  0
 21 22  2  0
 22 23  1  0
 23 24  2  0
 24 25  1  0
 25 26  2  0
 20 27  2  0
  2 28  1  0
 28 29  2  0
 29 30  1  0
 30 31  2  0
 31 32  1  0
 32 33  2  0
 33 34  1  0
 33 35  1  0
 35 36  2  0
 36 37  1  0
 37 38  2  0
 12  7  1  0
 27 16  1  0
 38 28  1  0
 26 21  1  0
 37 31  1  0
  3 39  1  0
  4 40  1  0
  4 41  1  0
  8 42  1  0
  8 43  1  0
  9 44  1  1
 10 45  1  0
 11 46  1  0
 11 47  1  0
 12 48  1  6
 15 49  1  0
 17 50  1  0
 18 51  1  0
 19 52  1  0
 23 53  1  0
 24 54  1  0
 25 55  1  0
 27 56  1  0
 29 57  1  0
 30 58  1  0
 32 59  1  0
 35 60  1  0
 36 61  1  0
M  END
>  <smiles>  (47) 
O=C(NCC(=O)N1C[C@H](O)C[C@H]1C(=O)Nc1cccc(-c2ncccn2)c1)c1ccc2cc(F)ccc2n1

>  <score_type>  (47) 
oracle

>  <origin>  (47) 
autodockgpu

>  <m_score__min__energy>  (47) 
-9.6600000000000001

>  <m_primary>  (47) 
energy

>  <rmsd>  (47) 
8.318311423552325

>  <m_score__min__rmsd>  (47) 
8.318311423552325

>  <meeko>  (47) 
{"free_energy": -7.25, "intermolecular_energy": -9.64, "internal_energy": -3.77, "cluster_size": 2, "cluster_id": 14, "rank_in_cluster": 1}

>  <energy>  (47) 
-5.7

>  <cluster_rmsd>  (47) 
1.84

>  <cluster>  (47) 
15

$$$$

     RDKit          3D

 61 65  0  0  0  0  0  0  0  0999 V2000
  141.4470   75.5210  221.5060 O   0  0  0  0  0  0  0  0  0  0  0  0
  141.4320   76.4520  220.6430 C   0  0  0  0  0  0  0  0  0  0  0  0
  141.4960   76.1790  219.2490 N   0  0  0  0  0  0  0  0  0  0  0  0
  141.5830   74.8150  218.7780 C   0  0  0  0  0  0  0  0  0  0  0  0
  142.9570   74.4080  218.4520 C   0  0  0  0  0  0  0  0  0  0  0  0
  143.5440   74.7750  217.4010 O   0  0  0  0  0  0  0  0  0  0  0  0
  143.6390   73.5640  219.3700 N   0  0  0  0  0  0  0  0  0  0  0  0
  144.5190   73.9610  220.4800 C   0  0  0  0  0  0  0  0  0  0  0  0
  145.6680   73.0040  220.2490 C   0  0  2  0  0  0  0  0  0  0  0  0
  146.3660   73.3980  219.0980 O   0  0  0  0  0  0  0  0  0  0  0  0
  144.9400   71.6960  220.0250 C   0  0  0  0  0  0  0  0  0  0  0  0
  143.6270   72.1120  219.4290 C   0  0  1  0  0  0  0  0  0  0  0  0
  142.4690   71.6210  220.2300 C   0  0  0  0  0  0  0  0  0  0  0  0
  142.1610   70.4180  220.0920 O   0  0  0  0  0  0  0  0  0  0  0  0
  141.7800   72.5060  221.0940 N   0  0  0  0  0  0  0  0  0  0  0  0
  140.6790   72.1850  221.9020 C   0  0  0  0  0  0  0  0  0  0  0  0
  139.3580   72.2350  221.5370 C   0  0  0  0  0  0  0  0  0  0  0  0
  138.3170   71.9000  222.3920 C   0  0  0  0  0  0  0  0  0  0  0  0
  138.5830   71.4930  223.6750 C   0  0  0  0  0  0  0  0  0  0  0  0
  139.9080   71.4370  224.0540 C   0  0  0  0  0  0  0  0  0  0  0  0
  140.2390   71.0100  225.4050 C   0  0  0  0  0  0  0  0  0  0  0  0
  140.7110   71.8930  226.3090 N   0  0  0  0  0  0  0  0  0  0  0  0
  141.0400   71.5810  227.5720 C   0  0  0  0  0  0  0  0  0  0  0  0
  140.8800   70.2620  227.9620 C   0  0  0  0  0  0  0  0  0  0  0  0
  140.4000   69.3540  227.0470 C   0  0  0  0  0  0  0  0  0  0  0  0
  140.0790   69.7110  225.7800 N   0  0  0  0  0  0  0  0  0  0  0  0
  140.9370   71.7710  223.2030 C   0  0  0  0  0  0  0  0  0  0  0  0
  141.3440   77.8510  221.0860 C   0  0  0  0  0  0  0  0  0  0  0  0
  141.2020   78.1470  222.4260 C   0  0  0  0  0  0  0  0  0  0  0  0
  141.1220   79.4860  222.8230 C   0  0  0  0  0  0  0  0  0  0  0  0
  141.1850   80.4890  221.8720 C   0  0  0  0  0  0  0  0  0  0  0  0
  141.1090   81.8340  222.2160 C   0  0  0  0  0  0  0  0  0  0  0  0
  141.1770   82.8080  221.2300 C   0  0  0  0  0  0  0  0  0  0  0  0
  141.1010   84.1200  221.5960 F   0  0  0  0  0  0  0  0  0  0  0  0
  141.3200   82.4940  219.8910 C   0  0  0  0  0  0  0  0  0  0  0  0
  141.3920   81.1510  219.5790 C   0  0  0  0  0  0  0  0  0  0  0  0
  141.3280   80.1560  220.5400 C   0  0  0  0  0  0  0  0  0  0  0  0
  141.4030   78.8610  220.1880 N   0  0  0  0  0  0  0  0  0  0  0  0
  141.4780   77.0080  218.5910 H   0  0  0  0  0  0  0  0  0  0  0  0
  141.1962   74.1477  219.5623 H   0  0  0  0  0  0  0  0  0  0  0  0
  140.9909   74.7471  217.8534 H   0  0  0  0  0  0  0  0  0  0  0  0
  144.8369   75.0106  220.3953 H   0  0  0  0  0  0  0  0  0  0  0  0
  144.0620   73.9083  221.4792 H   0  0  0  0  0  0  0  0  0  0  0  0
  146.4077   72.9550  221.0617 H   0  0  0  0  0  0  0  0  0  0  0  0
  145.8780   74.1420  218.6560 H   0  0  0  0  0  0  0  0  0  0  0  0
  145.4984   71.0511  219.3305 H   0  0  0  0  0  0  0  0  0  0  0  0
  144.8206   71.1128  220.9500 H   0  0  0  0  0  0  0  0  0  0  0  0
  143.5076   71.6721  218.4279 H   0  0  0  0  0  0  0  0  0  0  0  0
  142.1470   73.4940  221.1130 H   0  0  0  0  0  0  0  0  0  0  0  0
  139.1108   72.5570  220.5146 H   0  0  0  0  0  0  0  0  0  0  0  0
  137.2766   71.9610  222.0401 H   0  0  0  0  0  0  0  0  0  0  0  0
  137.7749   71.2232  224.3709 H   0  0  0  0  0  0  0  0  0  0  0  0
  141.4212   72.3419  228.2690 H   0  0  0  0  0  0  0  0  0  0  0  0
  141.1322   69.9460  228.9850 H   0  0  0  0  0  0  0  0  0  0  0  0
  140.2728   68.3052  227.3535 H   0  0  0  0  0  0  0  0  0  0  0  0
  141.9765   71.7094  223.5573 H   0  0  0  0  0  0  0  0  0  0  0  0
  141.1523   77.3406  223.1725 H   0  0  0  0  0  0  0  0  0  0  0  0
  141.0094   79.7405  223.8872 H   0  0  0  0  0  0  0  0  0  0  0  0
  140.9949   82.1261  223.2703 H   0  0  0  0  0  0  0  0  0  0  0  0
  141.3736   83.2726  219.1158 H   0  0  0  0  0  0  0  0  0  0  0  0
  141.5048   80.8596  218.5243 H   0  0  0  0  0  0  0  0  0  0  0  0
  1  2  2  0
  2  3  1  0
  3  4  1  0
  4  5  1  0
  5  6  2  0
  5  7  1  0
  7  8  1  0
  8  9  1  0
  9 10  1  0
  9 11  1  0
 11 12  1  0
 12 13  1  0
 13 14  2  0
 13 15  1  0
 15 16  1  0
 16 17  2  0
 17 18  1  0
 18 19  2  0
 19 20  1  0
 20 21  1  0
 21 22  2  0
 22 23  1  0
 23 24  2  0
 24 25  1  0
 25 26  2  0
 20 27  2  0
  2 28  1  0
 28 29  2  0
 29 30  1  0
 30 31  2  0
 31 32  1  0
 32 33  2  0
 33 34  1  0
 33 35  1  0
 35 36  2  0
 36 37  1  0
 37 38  2  0
 12  7  1  0
 27 16  1  0
 38 28  1  0
 26 21  1  0
 37 31  1  0
  3 39  1  0
  4 40  1  0
  4 41  1  0
  8 42  1  0
  8 43  1  0
  9 44  1  1
 10 45  1  0
 11 46  1  0
 11 47  1  0
 12 48  1  6
 15 49  1  0
 17 50  1  0
 18 51  1  0
 19 52  1  0
 23 53  1  0
 24 54  1  0
 25 55  1  0
 27 56  1  0
 29 57  1  0
 30 58  1  0
 32 59  1  0
 35 60  1  0
 36 61  1  0
M  END
>  <smiles>  (48) 
O=C(NCC(=O)N1C[C@H](O)C[C@H]1C(=O)Nc1cccc(-c2ncccn2)c1)c1ccc2cc(F)ccc2n1

>  <score_type>  (48) 
oracle

>  <origin>  (48) 
autodockgpu

>  <m_score__min__energy>  (48) 
-9.6600000000000001

>  <m_primary>  (48) 
energy

>  <rmsd>  (48) 
9.458068638353966

>  <m_score__min__rmsd>  (48) 
9.458068638353966

>  <meeko>  (48) 
{"free_energy": -8.74, "intermolecular_energy": -11.12, "internal_energy": -3.3, "cluster_size": 9, "cluster_id": 3, "rank_in_cluster": 6}

>  <energy>  (48) 
-7.1

>  <cluster_rmsd>  (48) 
0.0

>  <cluster>  (48) 
16

$$$$

     RDKit          3D

 61 65  0  0  0  0  0  0  0  0999 V2000
  139.8190   71.0000  221.5940 O   0  0  0  0  0  0  0  0  0  0  0  0
  139.1780   71.2300  222.6650 C   0  0  0  0  0  0  0  0  0  0  0  0
  138.2300   72.2860  222.7550 N   0  0  0  0  0  0  0  0  0  0  0  0
  137.9740   73.1340  221.6110 C   0  0  0  0  0  0  0  0  0  0  0  0
  138.6960   74.4130  221.6730 C   0  0  0  0  0  0  0  0  0  0  0  0
  138.4160   75.3130  222.5070 O   0  0  0  0  0  0  0  0  0  0  0  0
  139.7510   74.6290  220.7460 N   0  0  0  0  0  0  0  0  0  0  0  0
  139.6700   74.6670  219.2770 C   0  0  0  0  0  0  0  0  0  0  0  0
  140.8560   73.7890  218.9350 C   0  0  2  0  0  0  0  0  0  0  0  0
  140.5500   72.4600  219.2630 O   0  0  0  0  0  0  0  0  0  0  0  0
  141.9260   74.3450  219.8500 C   0  0  0  0  0  0  0  0  0  0  0  0
  141.1570   74.8620  221.0300 C   0  0  1  0  0  0  0  0  0  0  0  0
  141.4170   76.3110  221.2740 C   0  0  0  0  0  0  0  0  0  0  0  0
  142.1870   76.8850  220.4750 O   0  0  0  0  0  0  0  0  0  0  0  0
  140.8010   76.9660  222.3680 N   0  0  0  0  0  0  0  0  0  0  0  0
  140.9540   78.3160  222.7170 C   0  0  0  0  0  0  0  0  0  0  0  0
  142.1230   79.0330  222.7060 C   0  0  0  0  0  0  0  0  0  0  0  0
  142.2010   80.3710  223.0640 C   0  0  0  0  0  0  0  0  0  0  0  0
  141.0720   81.0460  223.4550 C   0  0  0  0  0  0  0  0  0  0  0  0
  139.8900   80.3360  223.4710 C   0  0  0  0  0  0  0  0  0  0  0  0
  138.6660   81.0100  223.8790 C   0  0  0  0  0  0  0  0  0  0  0  0
  138.0750   80.7100  225.0540 N   0  0  0  0  0  0  0  0  0  0  0  0
  136.9470   81.2840  225.5020 C   0  0  0  0  0  0  0  0  0  0  0  0
  136.3610   82.2450  224.6970 C   0  0  0  0  0  0  0  0  0  0  0  0
  136.9560   82.5580  223.4970 C   0  0  0  0  0  0  0  0  0  0  0  0
  138.0950   81.9550  223.0810 N   0  0  0  0  0  0  0  0  0  0  0  0
  139.8170   79.0090  223.1160 C   0  0  0  0  0  0  0  0  0  0  0  0
  139.4130   70.3880  223.8470 C   0  0  0  0  0  0  0  0  0  0  0  0
  139.0520   69.0570  223.8330 C   0  0  0  0  0  0  0  0  0  0  0  0
  139.2870   68.2770  224.9710 C   0  0  0  0  0  0  0  0  0  0  0  0
  139.8730   68.8470  226.0860 C   0  0  0  0  0  0  0  0  0  0  0  0
  140.1270   68.1140  227.2400 C   0  0  0  0  0  0  0  0  0  0  0  0
  140.7170   68.7260  228.3360 C   0  0  0  0  0  0  0  0  0  0  0  0
  140.9550   67.9830  229.4550 F   0  0  0  0  0  0  0  0  0  0  0  0
  141.0730   70.0620  228.3320 C   0  0  0  0  0  0  0  0  0  0  0  0
  140.8100   70.7650  227.1740 C   0  0  0  0  0  0  0  0  0  0  0  0
  140.2220   70.1830  226.0640 C   0  0  0  0  0  0  0  0  0  0  0  0
  139.9850   70.9080  224.9580 N   0  0  0  0  0  0  0  0  0  0  0  0
  137.7350   72.4160  223.6810 H   0  0  0  0  0  0  0  0  0  0  0  0
  138.2850   72.5993  220.7014 H   0  0  0  0  0  0  0  0  0  0  0  0
  136.8981   73.3627  221.6043 H   0  0  0  0  0  0  0  0  0  0  0  0
  138.7252   74.2417  218.9075 H   0  0  0  0  0  0  0  0  0  0  0  0
  139.6912   75.6737  218.8341 H   0  0  0  0  0  0  0  0  0  0  0  0
  141.1492   73.7895  217.8748 H   0  0  0  0  0  0  0  0  0  0  0  0
  140.0630   72.4390  220.1280 H   0  0  0  0  0  0  0  0  0  0  0  0
  142.6286   73.5558  220.1558 H   0  0  0  0  0  0  0  0  0  0  0  0
  142.5360   75.1225  219.3669 H   0  0  0  0  0  0  0  0  0  0  0  0
  141.4712   74.3403  221.9460 H   0  0  0  0  0  0  0  0  0  0  0  0
  140.1750   76.3600  222.9610 H   0  0  0  0  0  0  0  0  0  0  0  0
  143.0463   78.5208  222.3974 H   0  0  0  0  0  0  0  0  0  0  0  0
  143.1695   80.8918  223.0344 H   0  0  0  0  0  0  0  0  0  0  0  0
  141.1083   82.1070  223.7431 H   0  0  0  0  0  0  0  0  0  0  0  0
  136.5065   81.0018  226.4697 H   0  0  0  0  0  0  0  0  0  0  0  0
  135.4355   82.7498  225.0113 H   0  0  0  0  0  0  0  0  0  0  0  0
  136.4923   83.3217  222.8554 H   0  0  0  0  0  0  0  0  0  0  0  0
  138.8476   78.4902  223.1482 H   0  0  0  0  0  0  0  0  0  0  0  0
  138.5860   68.6148  222.9401 H   0  0  0  0  0  0  0  0  0  0  0  0
  139.0063   67.2135  224.9783 H   0  0  0  0  0  0  0  0  0  0  0  0
  139.8598   67.0478  227.2838 H   0  0  0  0  0  0  0  0  0  0  0  0
  141.5411   70.5392  229.2056 H   0  0  0  0  0  0  0  0  0  0  0  0
  141.0784   71.8309  227.1312 H   0  0  0  0  0  0  0  0  0  0  0  0
  1  2  2  0
  2  3  1  0
  3  4  1  0
  4  5  1  0
  5  6  2  0
  5  7  1  0
  7  8  1  0
  8  9  1  0
  9 10  1  0
  9 11  1  0
 11 12  1  0
 12 13  1  0
 13 14  2  0
 13 15  1  0
 15 16  1  0
 16 17  2  0
 17 18  1  0
 18 19  2  0
 19 20  1  0
 20 21  1  0
 21 22  2  0
 22 23  1  0
 23 24  2  0
 24 25  1  0
 25 26  2  0
 20 27  2  0
  2 28  1  0
 28 29  2  0
 29 30  1  0
 30 31  2  0
 31 32  1  0
 32 33  2  0
 33 34  1  0
 33 35  1  0
 35 36  2  0
 36 37  1  0
 37 38  2  0
 12  7  1  0
 27 16  1  0
 38 28  1  0
 26 21  1  0
 37 31  1  0
  3 39  1  0
  4 40  1  0
  4 41  1  0
  8 42  1  0
  8 43  1  0
  9 44  1  6
 10 45  1  0
 11 46  1  0
 11 47  1  0
 12 48  1  1
 15 49  1  0
 17 50  1  0
 18 51  1  0
 19 52  1  0
 23 53  1  0
 24 54  1  0
 25 55  1  0
 27 56  1  0
 29 57  1  0
 30 58  1  0
 32 59  1  0
 35 60  1  0
 36 61  1  0
M  END
>  <smiles>  (49) 
O=C(NCC(=O)N1C[C@H](O)C[C@H]1C(=O)Nc1cccc(-c2ncccn2)c1)c1ccc2cc(F)ccc2n1

>  <score_type>  (49) 
oracle

>  <origin>  (49) 
autodockgpu

>  <m_score__min__energy>  (49) 
-9.6600000000000001

>  <m_primary>  (49) 
energy

>  <rmsd>  (49) 
2.176932660794225

>  <m_score__min__rmsd>  (49) 
2.176932660794225

>  <meeko>  (49) 
{"free_energy": -8.71, "intermolecular_energy": -11.1, "internal_energy": -3.23, "cluster_size": 9, "cluster_id": 2, "rank_in_cluster": 7}

>  <energy>  (49) 
-6.82

>  <cluster_rmsd>  (49) 
0.0

>  <cluster>  (49) 
17

$$$$

     RDKit          3D

 61 65  0  0  0  0  0  0  0  0999 V2000
  137.6720   72.2590  223.1290 O   0  0  0  0  0  0  0  0  0  0  0  0
  138.2410   71.1580  222.8540 C   0  0  0  0  0  0  0  0  0  0  0  0
  138.3490   70.6870  221.5170 N   0  0  0  0  0  0  0  0  0  0  0  0
  137.8050   71.4640  220.4250 C   0  0  0  0  0  0  0  0  0  0  0  0
  138.8060   71.7910  219.4000 C   0  0  0  0  0  0  0  0  0  0  0  0
  138.5700   71.7040  218.1670 O   0  0  0  0  0  0  0  0  0  0  0  0
  140.0890   72.2220  219.8340 N   0  0  0  0  0  0  0  0  0  0  0  0
  141.3290   72.3000  219.0470 C   0  0  0  0  0  0  0  0  0  0  0  0
  142.2910   71.6550  220.0230 C   0  0  2  0  0  0  0  0  0  0  0  0
  142.0150   70.2820  220.0960 O   0  0  0  0  0  0  0  0  0  0  0  0
  141.9310   72.3550  221.3170 C   0  0  0  0  0  0  0  0  0  0  0  0
  140.4770   72.6860  221.1540 C   0  0  1  0  0  0  0  0  0  0  0  0
  140.2170   74.1480  221.3030 C   0  0  0  0  0  0  0  0  0  0  0  0
  140.9450   74.9160  220.6390 O   0  0  0  0  0  0  0  0  0  0  0  0
  139.1860   74.6000  222.1620 N   0  0  0  0  0  0  0  0  0  0  0  0
  138.8330   75.9360  222.3980 C   0  0  0  0  0  0  0  0  0  0  0  0
  137.5590   76.4390  222.4830 C   0  0  0  0  0  0  0  0  0  0  0  0
  137.2820   77.7780  222.7210 C   0  0  0  0  0  0  0  0  0  0  0  0
  138.3070   78.6750  222.8850 C   0  0  0  0  0  0  0  0  0  0  0  0
  139.5920   78.1820  222.8020 C   0  0  0  0  0  0  0  0  0  0  0  0
  140.7130   79.0950  222.9710 C   0  0  0  0  0  0  0  0  0  0  0  0
  140.5250   80.3230  223.4980 N   0  0  0  0  0  0  0  0  0  0  0  0
  141.5030   81.2230  223.6860 C   0  0  0  0  0  0  0  0  0  0  0  0
  142.7840   80.8560  223.3120 C   0  0  0  0  0  0  0  0  0  0  0  0
  142.9850   79.6070  222.7740 C   0  0  0  0  0  0  0  0  0  0  0  0
  141.9700   78.7260  222.6000 N   0  0  0  0  0  0  0  0  0  0  0  0
  139.8630   76.8530  222.5660 C   0  0  0  0  0  0  0  0  0  0  0  0
  138.8060   70.3420  223.9390 C   0  0  0  0  0  0  0  0  0  0  0  0
  138.7240   68.9660  223.8860 C   0  0  0  0  0  0  0  0  0  0  0  0
  139.2700   68.2120  224.9310 C   0  0  0  0  0  0  0  0  0  0  0  0
  139.8800   68.8520  225.9940 C   0  0  0  0  0  0  0  0  0  0  0  0
  140.4370   68.1470  227.0550 C   0  0  0  0  0  0  0  0  0  0  0  0
  141.0400   68.8290  228.1030 C   0  0  0  0  0  0  0  0  0  0  0  0
  141.5790   68.1130  229.1310 F   0  0  0  0  0  0  0  0  0  0  0  0
  141.1130   70.2090  228.1390 C   0  0  0  0  0  0  0  0  0  0  0  0
  140.5520   70.8830  227.0730 C   0  0  0  0  0  0  0  0  0  0  0  0
  139.9440   70.2320  226.0140 C   0  0  0  0  0  0  0  0  0  0  0  0
  139.4120   70.9300  224.9970 N   0  0  0  0  0  0  0  0  0  0  0  0
  138.8370   69.7600  221.3670 H   0  0  0  0  0  0  0  0  0  0  0  0
  136.9955   70.8875  219.9534 H   0  0  0  0  0  0  0  0  0  0  0  0
  137.4413   72.4133  220.8451 H   0  0  0  0  0  0  0  0  0  0  0  0
  141.2549   71.7311  218.1084 H   0  0  0  0  0  0  0  0  0  0  0  0
  141.6085   73.3111  218.7158 H   0  0  0  0  0  0  0  0  0  0  0  0
  143.3558   71.7456  219.7622 H   0  0  0  0  0  0  0  0  0  0  0  0
  141.2390   70.0710  219.5130 H   0  0  0  0  0  0  0  0  0  0  0  0
  142.0869   71.6894  222.1788 H   0  0  0  0  0  0  0  0  0  0  0  0
  142.5505   73.2442  221.5056 H   0  0  0  0  0  0  0  0  0  0  0  0
  139.8852   72.1933  221.9395 H   0  0  0  0  0  0  0  0  0  0  0  0
  138.6510   73.8410  222.6600 H   0  0  0  0  0  0  0  0  0  0  0  0
  136.7145   75.7457  222.3561 H   0  0  0  0  0  0  0  0  0  0  0  0
  136.2383   78.1208  222.7782 H   0  0  0  0  0  0  0  0  0  0  0  0
  138.1122   79.7409  223.0744 H   0  0  0  0  0  0  0  0  0  0  0  0
  141.2948   82.2122  224.1198 H   0  0  0  0  0  0  0  0  0  0  0  0
  143.6263   81.5513  223.4429 H   0  0  0  0  0  0  0  0  0  0  0  0
  144.0021   79.3133  222.4752 H   0  0  0  0  0  0  0  0  0  0  0  0
  140.9077   76.5131  222.5098 H   0  0  0  0  0  0  0  0  0  0  0  0
  138.2365   68.4685  223.0346 H   0  0  0  0  0  0  0  0  0  0  0  0
  139.2140   67.1137  224.9067 H   0  0  0  0  0  0  0  0  0  0  0  0
  140.3998   67.0477  227.0640 H   0  0  0  0  0  0  0  0  0  0  0  0
  141.5929   70.7419  228.9732 H   0  0  0  0  0  0  0  0  0  0  0  0
  140.5898   71.9823  227.0650 H   0  0  0  0  0  0  0  0  0  0  0  0
  1  2  2  0
  2  3  1  0
  3  4  1  0
  4  5  1  0
  5  6  2  0
  5  7  1  0
  7  8  1  0
  8  9  1  0
  9 10  1  0
  9 11  1  0
 11 12  1  0
 12 13  1  0
 13 14  2  0
 13 15  1  0
 15 16  1  0
 16 17  2  0
 17 18  1  0
 18 19  2  0
 19 20  1  0
 20 21  1  0
 21 22  2  0
 22 23  1  0
 23 24  2  0
 24 25  1  0
 25 26  2  0
 20 27  2  0
  2 28  1  0
 28 29  2  0
 29 30  1  0
 30 31  2  0
 31 32  1  0
 32 33  2  0
 33 34  1  0
 33 35  1  0
 35 36  2  0
 36 37  1  0
 37 38  2  0
 12  7  1  0
 27 16  1  0
 38 28  1  0
 26 21  1  0
 37 31  1  0
  3 39  1  0
  4 40  1  0
  4 41  1  0
  8 42  1  0
  8 43  1  0
  9 44  1  6
 10 45  1  0
 11 46  1  0
 11 47  1  0
 12 48  1  1
 15 49  1  0
 17 50  1  0
 18 51  1  0
 19 52  1  0
 23 53  1  0
 24 54  1  0
 25 55  1  0
 27 56  1  0
 29 57  1  0
 30 58  1  0
 32 59  1  0
 35 60  1  0
 36 61  1  0
M  END
>  <smiles>  (50) 
O=C(NCC(=O)N1C[C@H](O)C[C@H]1C(=O)Nc1cccc(-c2ncccn2)c1)c1ccc2cc(F)ccc2n1

>  <score_type>  (50) 
oracle

>  <origin>  (50) 
autodockgpu

>  <m_score__min__energy>  (50) 
-9.6600000000000001

>  <m_primary>  (50) 
energy

>  <rmsd>  (50) 
3.730835052212584

>  <m_score__min__rmsd>  (50) 
3.730835052212584

>  <meeko>  (50) 
{"free_energy": -8.04, "intermolecular_energy": -10.42, "internal_energy": -2.85, "cluster_size": 2, "cluster_id": 1, "rank_in_cluster": 2}

>  <energy>  (50) 
-5.51

>  <cluster_rmsd>  (50) 
0.0

>  <cluster>  (50) 
18

$$$$
