
     RDKit          3D

 58 61  0  0  0  0  0  0  0  0999 V2000
  132.2300   68.9810  225.5650 C   0  0  0  0  0  0  0  0  0  0  0  0
  132.8900   67.7300  224.9940 C   0  0  0  0  0  0  0  0  0  0  0  0
  133.1610   66.7830  226.1300 C   0  0  0  0  0  0  0  0  0  0  0  0
  134.1590   68.0920  224.2950 C   0  0  0  0  0  0  0  0  0  0  0  0
  135.0420   68.9250  224.9430 C   0  0  0  0  0  0  0  0  0  0  0  0
  136.2180   69.2470  224.3150 C   0  0  0  0  0  0  0  0  0  0  0  0
  137.2080   70.0940  224.9160 N   0  0  0  0  0  0  0  0  0  0  0  0
  138.3670   69.4060  225.4030 C   0  0  0  0  0  0  0  0  0  0  0  0
  138.5090   68.1620  225.3120 O   0  0  0  0  0  0  0  0  0  0  0  0
  139.4130   70.2130  226.0240 C   0  0  0  0  0  0  0  0  0  0  0  0
  139.6370   70.0010  227.3680 C   0  0  0  0  0  0  0  0  0  0  0  0
  140.6140   70.7370  228.0020 C   0  0  0  0  0  0  0  0  0  0  0  0
  141.3810   71.6810  227.3530 C   0  0  0  0  0  0  0  0  0  0  0  0
  141.1190   71.8640  225.9860 C   0  0  0  0  0  0  0  0  0  0  0  0
  140.1500   71.1430  225.3250 C   0  0  0  0  0  0  0  0  0  0  0  0
  139.9140   71.3910  223.8780 C   0  0  0  0  0  0  0  0  0  0  0  0
  140.7770   71.1870  223.0150 O   0  0  0  0  0  0  0  0  0  0  0  0
  138.6290   71.8910  223.4630 N   0  0  0  0  0  0  0  0  0  0  0  0
  138.2900   72.1670  222.0930 C   0  0  0  0  0  0  0  0  0  0  0  0
  136.8840   72.5820  221.9390 C   0  0  0  0  0  0  0  0  0  0  0  0
  136.3960   72.4960  220.7600 O   0  0  0  0  0  0  0  0  0  0  0  0
  136.0020   73.0720  222.9760 C   0  0  0  0  0  0  0  0  0  0  0  0
  135.5720   74.3910  222.9820 C   0  0  0  0  0  0  0  0  0  0  0  0
  134.7100   74.8750  223.9580 C   0  0  0  0  0  0  0  0  0  0  0  0
  134.2730   74.0100  224.9510 C   0  0  0  0  0  0  0  0  0  0  0  0
  133.4180   74.4550  225.9390 C   0  0  0  0  0  0  0  0  0  0  0  0
  133.0320   73.5140  226.8970 C   0  0  0  0  0  0  0  0  0  0  0  0
  132.1840   73.9120  227.8950 F   0  0  0  0  0  0  0  0  0  0  0  0
  133.4770   72.2100  226.8630 C   0  0  0  0  0  0  0  0  0  0  0  0
  134.3300   71.7650  225.8790 C   0  0  0  0  0  0  0  0  0  0  0  0
  134.7170   72.6960  224.9250 C   0  0  0  0  0  0  0  0  0  0  0  0
  135.5330   72.3050  223.9700 N   0  0  0  0  0  0  0  0  0  0  0  0
  136.4800   68.7240  223.0510 C   0  0  0  0  0  0  0  0  0  0  0  0
  135.5440   67.8860  222.4490 C   0  0  0  0  0  0  0  0  0  0  0  0
  134.3800   67.5690  223.0720 N   0  0  0  0  0  0  0  0  0  0  0  0
  132.2525   68.9383  226.6639 H   0  0  0  0  0  0  0  0  0  0  0  0
  132.7751   69.8725  225.2214 H   0  0  0  0  0  0  0  0  0  0  0  0
  131.1864   69.0343  225.2214 H   0  0  0  0  0  0  0  0  0  0  0  0
  132.2270   67.2497  224.2594 H   0  0  0  0  0  0  0  0  0  0  0  0
  133.0115   67.3054  227.0864 H   0  0  0  0  0  0  0  0  0  0  0  0
  132.4714   65.9283  226.0673 H   0  0  0  0  0  0  0  0  0  0  0  0
  134.1984   66.4225  226.0673 H   0  0  0  0  0  0  0  0  0  0  0  0
  134.8100   69.3235  225.9417 H   0  0  0  0  0  0  0  0  0  0  0  0
  137.0780   71.1190  224.9810 H   0  0  0  0  0  0  0  0  0  0  0  0
  139.0464   69.2578  227.9238 H   0  0  0  0  0  0  0  0  0  0  0  0
  140.7899   70.5637  229.0739 H   0  0  0  0  0  0  0  0  0  0  0  0
  142.1559   72.2592  227.8776 H   0  0  0  0  0  0  0  0  0  0  0  0
  141.7061   72.6065  225.4256 H   0  0  0  0  0  0  0  0  0  0  0  0
  137.9430   72.0170  224.2330 H   0  0  0  0  0  0  0  0  0  0  0  0
  138.9398   72.9738  221.7231 H   0  0  0  0  0  0  0  0  0  0  0  0
  138.4333   71.2409  221.5170 H   0  0  0  0  0  0  0  0  0  0  0  0
  135.9231   75.0719  222.1926 H   0  0  0  0  0  0  0  0  0  0  0  0
  134.3801   75.9243  223.9438 H   0  0  0  0  0  0  0  0  0  0  0  0
  133.0598   75.4946  225.9705 H   0  0  0  0  0  0  0  0  0  0  0  0
  133.1423   71.5081  227.6411 H   0  0  0  0  0  0  0  0  0  0  0  0
  134.6868   70.7249  225.8500 H   0  0  0  0  0  0  0  0  0  0  0  0
  137.4182   68.9706  222.5324 H   0  0  0  0  0  0  0  0  0  0  0  0
  135.7518   67.4736  221.4506 H   0  0  0  0  0  0  0  0  0  0  0  0
  1  2  1  0
  2  3  1  0
  2  4  1  0
  4  5  2  0
  5  6  1  0
  6  7  1  0
  7  8  1  0
  8  9  2  0
  8 10  1  0
 10 11  2  0
 11 12  1  0
 12 13  2  0
 13 14  1  0
 14 15  2  0
 15 16  1  0
 16 17  2  0
 16 18  1  0
 18 19  1  0
 19 20  1  0
 20 21  2  0
 20 22  1  0
 22 23  2  0
 23 24  1  0
 24 25  2  0
 25 26  1  0
 26 27  2  0
 27 28  1  0
 27 29  1  0
 29 30  2  0
 30 31  1  0
 31 32  2  0
  6 33  2  0
 33 34  1  0
 34 35  2  0
 35  4  1  0
 15 10  1  0
 32 22  1  0
 31 25  1  0
  1 36  1  0
  1 37  1  0
  1 38  1  0
  2 39  1  0
  3 40  1  0
  3 41  1  0
  3 42  1  0
  5 43  1  0
  7 44  1  0
 11 45  1  0
 12 46  1  0
 13 47  1  0
 14 48  1  0
 18 49  1  0
 19 50  1  0
 19 51  1  0
 23 52  1  0
 24 53  1  0
 26 54  1  0
 29 55  1  0
 30 56  1  0
 33 57  1  0
 34 58  1  0
M  END
