@<TRIPOS>MOLECULE
*****
 69 74 0 0 0
SMALL
GASTEIGER

@<TRIPOS>ATOM
      1 O         141.7860   75.8470  220.8460 O.2     1  UNL1       -0.2668
      2 C         140.9480   75.2880  221.6000 C.2     1  UNL1        0.2815
      3 N         140.0300   76.0010  222.4160 N.am    1  UNL1       -0.3088
      4 C         140.0130   77.4650  222.4210 C.3     1  UNL1        0.0123
      5 C         139.9180   78.0410  221.0430 C.3     1  UNL1       -0.0320
      6 C         141.2690   78.6800  220.6960 C.3     1  UNL1       -0.0090
      7 C         141.5710   79.6350  221.7910 C.ar    1  UNL1        0.0413
      8 C         142.6370   79.3840  222.6420 C.ar    1  UNL1       -0.0404
      9 C         142.8820   80.2940  223.6440 C.ar    1  UNL1       -0.0586
     10 C         142.1330   81.4220  223.8380 C.ar    1  UNL1       -0.0436
     11 C         141.0760   81.6340  222.9650 C.ar    1  UNL1        0.0279
     12 N         140.8320   80.7410  221.9780 N.ar    1  UNL1       -0.2599
     13 C         140.9490   73.8280  221.6110 C.ar    1  UNL1        0.2215
     14 N         140.3560   73.1620  222.6220 N.ar    1  UNL1       -0.1900
     15 C         140.3200   71.8170  222.6900 C.ar    1  UNL1        0.2231
     16 N         139.6950   71.1140  223.7550 N.pl3   1  UNL1       -0.2949
     17 C         138.8080   70.0040  223.4600 C.3     1  UNL1        0.0192
     18 C         138.1060   69.5100  224.7090 C.3     1  UNL1       -0.0115
     19 C         139.1450   69.2330  225.7370 C.ar    1  UNL1       -0.0412
     20 C         139.1770   68.0560  226.4250 C.ar    1  UNL1       -0.0582
     21 C         140.1900   67.8920  227.3670 C.ar    1  UNL1       -0.0615
     22 C         141.1240   68.8970  227.5860 C.ar    1  UNL1       -0.0614
     23 C         141.0730   70.0890  226.8730 C.ar    1  UNL1       -0.0568
     24 C         140.0800   70.2500  225.9500 C.ar    1  UNL1       -0.0269
     25 C         139.9420   71.5050  225.1300 C.3     1  UNL1        0.0402
     26 N         140.9140   71.1470  221.6860 N.ar    1  UNL1       -0.1808
     27 C         141.5300   71.7530  220.6410 C.ar    1  UNL1        0.2231
     28 N         142.1480   71.0010  219.5920 N.pl3   1  UNL1       -0.2949
     29 C         141.5300   69.8010  219.1290 C.3     1  UNL1        0.0192
     30 C         142.4330   69.0180  218.2270 C.3     1  UNL1       -0.0115
     31 C         143.8630   69.1830  218.5340 C.ar    1  UNL1       -0.0412
     32 C         144.7390   68.1300  218.4270 C.ar    1  UNL1       -0.0582
     33 C         146.0940   68.2920  218.7140 C.ar    1  UNL1       -0.0615
     34 C         146.6140   69.5050  219.1140 C.ar    1  UNL1       -0.0614
     35 C         145.7390   70.5670  219.2230 C.ar    1  UNL1       -0.0568
     36 C         144.4020   70.4000  218.9380 C.ar    1  UNL1       -0.0269
     37 C         143.4110   71.5230  219.0460 C.3     1  UNL1        0.0402
     38 N         141.5290   73.0910  220.6350 N.ar    1  UNL1       -0.1900
     39 H         139.3750   75.4610  223.0060 H       1  UNL1        0.1491
     40 H         139.1464   77.8059  223.0065 H       1  UNL1        0.0462
     41 H         140.9598   77.8091  222.8629 H       1  UNL1        0.0462
     42 H         139.6870   77.2437  220.3213 H       1  UNL1        0.0284
     43 H         139.1189   78.7958  221.0011 H       1  UNL1        0.0284
     44 H         142.0511   77.9088  220.6366 H       1  UNL1        0.0329
     45 H         141.2326   79.1879  219.7210 H       1  UNL1        0.0329
     46 H         143.2644   78.4888  222.5200 H       1  UNL1        0.0635
     47 H         143.7247   80.1046  224.3252 H       1  UNL1        0.0619
     48 H         142.3587   82.1292  224.6498 H       1  UNL1        0.0633
     49 H         140.4390   82.5241  223.0746 H       1  UNL1        0.0829
     50 H         138.0526   70.3334  222.7315 H       1  UNL1        0.0468
     51 H         139.4101   69.1788  223.0520 H       1  UNL1        0.0468
     52 H         137.4118   70.2798  225.0770 H       1  UNL1        0.0328
     53 H         137.5301   68.5986  224.4903 H       1  UNL1        0.0328
     54 H         138.4322   67.2672  226.2433 H       1  UNL1        0.0620
     55 H         140.2511   66.9571  227.9434 H       1  UNL1        0.0618
     56 H         141.9157   68.7471  228.3349 H       1  UNL1        0.0618
     57 H         141.8141   70.8828  227.0480 H       1  UNL1        0.0621
     58 H         139.1002   72.1057  225.5048 H       1  UNL1        0.0514
     59 H         140.8583   72.1098  225.1978 H       1  UNL1        0.0514
     60 H         141.2682   69.1784  219.9972 H       1  UNL1        0.0468
     61 H         140.6340   70.0795  218.5549 H       1  UNL1        0.0468
     62 H         142.1783   67.9520  218.3208 H       1  UNL1        0.0328
     63 H         142.2770   69.3983  217.2067 H       1  UNL1        0.0328
     64 H         144.3661   67.1448  218.1103 H       1  UNL1        0.0620
     65 H         146.7674   67.4274  218.6186 H       1  UNL1        0.0618
     66 H         147.6847   69.6217  219.3375 H       1  UNL1        0.0618
     67 H         146.1118   71.5524  219.5393 H       1  UNL1        0.0621
     68 H         143.8076   72.3010  219.7149 H       1  UNL1        0.0514
     69 H         143.2330   71.9566  218.0509 H       1  UNL1        0.0514
@<TRIPOS>BOND
     1     1     2    2
     2     2     3   am
     3     3     4    1
     4     4     5    1
     5     5     6    1
     6     6     7    1
     7     7     8   ar
     8     8     9   ar
     9     9    10   ar
    10    10    11   ar
    11    11    12   ar
    12     2    13    1
    13    13    14   ar
    14    14    15   ar
    15    15    16    1
    16    16    17    1
    17    17    18    1
    18    18    19    1
    19    19    20   ar
    20    20    21   ar
    21    21    22   ar
    22    22    23   ar
    23    23    24   ar
    24    24    25    1
    25    15    26   ar
    26    26    27   ar
    27    27    28    1
    28    28    29    1
    29    29    30    1
    30    30    31    1
    31    31    32   ar
    32    32    33   ar
    33    33    34   ar
    34    34    35   ar
    35    35    36   ar
    36    36    37    1
    37    27    38   ar
    38    12     7   ar
    39    38    13   ar
    40    25    16    1
    41    37    28    1
    42    24    19   ar
    43    36    31   ar
    44     3    39    1
    45     4    40    1
    46     4    41    1
    47     5    42    1
    48     5    43    1
    49     6    44    1
    50     6    45    1
    51     8    46    1
    52     9    47    1
    53    10    48    1
    54    11    49    1
    55    17    50    1
    56    17    51    1
    57    18    52    1
    58    18    53    1
    59    20    54    1
    60    21    55    1
    61    22    56    1
    62    23    57    1
    63    25    58    1
    64    25    59    1
    65    29    60    1
    66    29    61    1
    67    30    62    1
    68    30    63    1
    69    32    64    1
    70    33    65    1
    71    34    66    1
    72    35    67    1
    73    37    68    1
    74    37    69    1
