
 75 80  0  0  0  0  0  0  0  0999 V2000
  145.4220   70.8800  218.4780 C   0  0  0  0  0  0  0  0  0  0  0  0
  145.0300   72.1850  219.1260 C   0  0  1  0  0  0  0  0  0  0  0  0
  143.6520   72.1160  219.7460 C   0  0  0  0  0  0  0  0  0  0  0  0
  143.4270   73.3840  220.4250 N   0  0  0  0  0  0  0  0  0  0  0  0
  142.1850   73.6190  221.0760 C   0  0  0  0  0  0  0  0  0  0  0  0
  141.6450   74.8470  221.2160 N   0  0  0  0  0  0  0  0  0  0  0  0
  140.4680   75.0520  221.8350 C   0  0  0  0  0  0  0  0  0  0  0  0
  139.9830   76.3860  221.9310 N   0  0  0  0  0  0  0  0  0  0  0  0
  138.6970   76.6320  222.5600 C   0  0  0  0  0  0  0  0  0  0  0  0
  138.3010   78.0720  222.5050 C   0  0  0  0  0  0  0  0  0  0  0  0
  138.5120   78.6680  221.2100 N   0  0  0  0  0  0  0  0  0  0  0  0
  138.2750   80.3570  221.2120 S   0  0  0  0  0  0  0  0  0  0  0  0
  136.7800   80.5900  221.0630 O   0  0  0  0  0  0  0  0  0  0  0  0
  138.9550   80.9460  220.0100 O   0  0  0  0  0  0  0  0  0  0  0  0
  138.8460   81.1470  222.6980 C   0  0  0  0  0  0  0  0  0  0  0  0
  140.2680   80.7200  222.8840 C   0  0  0  0  0  0  0  0  0  0  0  0
  141.2630   81.2430  222.0630 C   0  0  0  0  0  0  0  0  0  0  0  0
  142.5620   80.8250  222.2660 C   0  0  0  0  0  0  0  0  0  0  0  0
  142.9190   79.9130  223.2420 C   0  0  0  0  0  0  0  0  0  0  0  0
  141.9120   79.4010  224.0520 C   0  0  0  0  0  0  0  0  0  0  0  0
  140.5930   79.8080  223.8670 C   0  0  0  0  0  0  0  0  0  0  0  0
  139.7480   78.3340  220.5800 C   0  0  0  0  0  0  0  0  0  0  0  0
  140.7020   77.5370  221.4330 C   0  0  0  0  0  0  0  0  0  0  0  0
  139.7800   74.0160  222.3440 N   0  0  0  0  0  0  0  0  0  0  0  0
  140.2950   72.7620  222.2220 C   0  0  0  0  0  0  0  0  0  0  0  0
  139.6080   71.6180  222.7440 N   0  0  0  0  0  0  0  0  0  0  0  0
  139.8940   71.1510  224.0800 C   0  0  0  0  0  0  0  0  0  0  0  0
  138.7370   70.2290  224.4830 C   0  0  0  0  0  0  0  0  0  0  0  0
  138.7550   69.1240  223.4840 C   0  0  0  0  0  0  0  0  0  0  0  0
  138.8220   67.7910  223.8490 C   0  0  0  0  0  0  0  0  0  0  0  0
  138.8330   66.8490  222.8350 C   0  0  0  0  0  0  0  0  0  0  0  0
  138.7790   67.2260  221.5140 C   0  0  0  0  0  0  0  0  0  0  0  0
  138.7120   68.5510  221.1550 C   0  0  0  0  0  0  0  0  0  0  0  0
  138.7000   69.5070  222.1490 C   0  0  0  0  0  0  0  0  0  0  0  0
  138.6320   70.9630  221.8830 C   0  0  0  0  0  0  0  0  0  0  0  0
  141.4830   72.5930  221.5910 N   0  0  0  0  0  0  0  0  0  0  0  0
  144.4730   74.3750  220.4220 C   0  0  0  0  0  0  0  0  0  0  0  0
  145.8290   73.7920  220.7130 C   0  0  0  0  0  0  0  0  0  0  0  0
  145.9630   72.4320  220.2330 N   0  0  0  0  0  0  0  0  0  0  0  0
  145.6454   70.1363  219.2571 H   0  0  0  0  0  0  0  0  0  0  0  0
  144.5930   70.5178  217.8522 H   0  0  0  0  0  0  0  0  0  0  0  0
  146.3134   71.0345  217.8522 H   0  0  0  0  0  0  0  0  0  0  0  0
  145.0468   72.9670  218.3526 H   0  0  0  0  0  0  0  0  0  0  0  0
  142.8930   71.9663  218.9641 H   0  0  0  0  0  0  0  0  0  0  0  0
  143.5804   71.2748  220.4512 H   0  0  0  0  0  0  0  0  0  0  0  0
  137.9312   76.0352  222.0430 H   0  0  0  0  0  0  0  0  0  0  0  0
  138.7825   76.3483  223.6193 H   0  0  0  0  0  0  0  0  0  0  0  0
  137.2331   78.1511  222.7569 H   0  0  0  0  0  0  0  0  0  0  0  0
  138.9350   78.6138  223.2223 H   0  0  0  0  0  0  0  0  0  0  0  0
  138.7877   82.2405  222.5940 H   0  0  0  0  0  0  0  0  0  0  0  0
  138.2282   80.8636  223.5629 H   0  0  0  0  0  0  0  0  0  0  0  0
  141.0202   81.9698  221.2738 H   0  0  0  0  0  0  0  0  0  0  0  0
  143.3516   81.2370  221.6204 H   0  0  0  0  0  0  0  0  0  0  0  0
  143.9661   79.6026  223.3733 H   0  0  0  0  0  0  0  0  0  0  0  0
  142.1572   78.6736  224.8399 H   0  0  0  0  0  0  0  0  0  0  0  0
  139.8017   79.3979  224.5117 H   0  0  0  0  0  0  0  0  0  0  0  0
  139.5234   77.7457  219.6781 H   0  0  0  0  0  0  0  0  0  0  0  0
  140.2513   79.2881  220.3645 H   0  0  0  0  0  0  0  0  0  0  0  0
  141.5618   77.2104  220.8297 H   0  0  0  0  0  0  0  0  0  0  0  0
  141.0792   78.1481  222.2662 H   0  0  0  0  0  0  0  0  0  0  0  0
  140.8432   70.5952  224.0920 H   0  0  0  0  0  0  0  0  0  0  0  0
  139.9905   71.9933  224.7808 H   0  0  0  0  0  0  0  0  0  0  0  0
  138.8931   69.8346  225.4979 H   0  0  0  0  0  0  0  0  0  0  0  0
  137.7729   70.7585  224.4944 H   0  0  0  0  0  0  0  0  0  0  0  0
  138.8650   67.4909  224.9064 H   0  0  0  0  0  0  0  0  0  0  0  0
  138.8858   65.7804  223.0905 H   0  0  0  0  0  0  0  0  0  0  0  0
  138.7896   66.4537  220.7307 H   0  0  0  0  0  0  0  0  0  0  0  0
  138.6688   68.8433  220.0954 H   0  0  0  0  0  0  0  0  0  0  0  0
  138.8702   71.1623  220.8278 H   0  0  0  0  0  0  0  0  0  0  0  0
  137.6209   71.3447  222.0878 H   0  0  0  0  0  0  0  0  0  0  0  0
  144.5012   74.8533  219.4318 H   0  0  0  0  0  0  0  0  0  0  0  0
  144.2458   75.0989  221.2184 H   0  0  0  0  0  0  0  0  0  0  0  0
  146.5929   74.4151  220.2250 H   0  0  0  0  0  0  0  0  0  0  0  0
  145.9579   73.7750  221.8053 H   0  0  0  0  0  0  0  0  0  0  0  0
  146.9510   72.1900  219.9680 H   0  0  0  0  0  0  0  0  0  0  0  0
  1  2  1  0
  2  3  1  0
  3  4  1  0
  4  5  1  0
  5  6  2  0
  6  7  1  0
  7  8  1  0
  8  9  1  0
  9 10  1  0
 10 11  1  0
 11 12  1  0
 12 13  2  0
 12 14  2  0
 12 15  1  0
 15 16  1  0
 16 17  2  0
 17 18  1  0
 18 19  2  0
 19 20  1  0
 20 21  2  0
 11 22  1  0
 22 23  1  0
  7 24  2  0
 24 25  1  0
 25 26  1  0
 26 27  1  0
 27 28  1  0
 28 29  1  0
 29 30  2  0
 30 31  1  0
 31 32  2  0
 32 33  1  0
 33 34  2  0
 34 35  1  0
 25 36  2  0
  4 37  1  0
 37 38  1  0
 38 39  1  0
 39  2  1  0
 36  5  1  0
 23  8  1  0
 35 26  1  0
 21 16  1  0
 34 29  1  0
  1 40  1  0
  1 41  1  0
  1 42  1  0
  2 43  1  6
  3 44  1  0
  3 45  1  0
  9 46  1  0
  9 47  1  0
 10 48  1  0
 10 49  1  0
 15 50  1  0
 15 51  1  0
 17 52  1  0
 18 53  1  0
 19 54  1  0
 20 55  1  0
 21 56  1  0
 22 57  1  0
 22 58  1  0
 23 59  1  0
 23 60  1  0
 27 61  1  0
 27 62  1  0
 28 63  1  0
 28 64  1  0
 30 65  1  0
 31 66  1  0
 32 67  1  0
 33 68  1  0
 35 69  1  0
 35 70  1  0
 37 71  1  0
 37 72  1  0
 38 73  1  0
 38 74  1  0
 39 75  1  0
M  END
