
 60 64  0  0  0  0  0  0  0  0999 V2000
  139.6180   70.5520  221.4200 O   0  0  0  0  0  0  0  0  0  0  0  0
  139.6360   71.1930  222.5200 C   0  0  0  0  0  0  0  0  0  0  0  0
  139.5830   72.6260  222.5450 N   0  0  0  0  0  0  0  0  0  0  0  0
  139.5080   73.2960  221.2730 C   0  0  0  0  0  0  0  0  0  0  0  0
  140.6290   74.2230  221.1470 C   0  0  0  0  0  0  0  0  0  0  0  0
  140.9750   75.0470  222.0590 O   0  0  0  0  0  0  0  0  0  0  0  0
  141.4350   74.2700  219.9630 N   0  0  0  0  0  0  0  0  0  0  0  0
  141.1830   73.3440  218.8730 C   0  0  0  0  0  0  0  0  0  0  0  0
  142.4490   72.6750  218.4740 C   0  0  0  0  0  0  0  0  0  0  0  0
  143.6720   73.5300  218.4880 C   0  0  0  0  0  0  0  0  0  0  0  0
  143.7860   74.4040  219.6960 C   0  0  0  0  0  0  0  0  0  0  0  0
  142.5180   75.2240  219.8030 C   0  0  1  0  0  0  0  0  0  0  0  0
  142.3450   76.0550  218.5510 C   0  0  0  0  0  0  0  0  0  0  0  0
  142.1320   77.4640  218.9720 C   0  0  0  0  0  0  0  0  0  0  0  0
  141.8740   78.5450  218.2060 N   0  0  0  0  0  0  0  0  0  0  0  0
  141.7450   79.6470  218.9930 C   0  0  0  0  0  0  0  0  0  0  0  0
  141.9360   79.1910  220.2710 C   0  0  0  0  0  0  0  0  0  0  0  0
  141.8980   79.9800  221.4770 C   0  0  0  0  0  0  0  0  0  0  0  0
  142.3800   79.4050  222.6500 C   0  0  0  0  0  0  0  0  0  0  0  0
  142.3570   80.1460  223.8350 C   0  0  0  0  0  0  0  0  0  0  0  0
  141.8610   81.4470  223.8590 C   0  0  0  0  0  0  0  0  0  0  0  0
  141.3870   81.9990  222.6820 C   0  0  0  0  0  0  0  0  0  0  0  0
  141.4060   81.2700  221.4980 C   0  0  0  0  0  0  0  0  0  0  0  0
  142.1620   77.8980  220.2300 O   0  0  0  0  0  0  0  0  0  0  0  0
  139.7130   70.4690  223.7860 C   0  0  0  0  0  0  0  0  0  0  0  0
  139.1580   69.2080  223.8830 C   0  0  0  0  0  0  0  0  0  0  0  0
  139.1930   68.4650  225.0470 C   0  0  0  0  0  0  0  0  0  0  0  0
  139.8100   69.0160  226.1510 C   0  0  0  0  0  0  0  0  0  0  0  0
  139.8750   68.3090  227.3550 C   0  0  0  0  0  0  0  0  0  0  0  0
  140.4900   68.8530  228.4590 C   0  0  0  0  0  0  0  0  0  0  0  0
  141.0430   70.1220  228.3420 C   0  0  0  0  0  0  0  0  0  0  0  0
  140.9840   70.8300  227.1570 C   0  0  0  0  0  0  0  0  0  0  0  0
  140.3690   70.2910  226.0450 C   0  0  0  0  0  0  0  0  0  0  0  0
  140.3060   70.9720  224.8850 N   0  0  0  0  0  0  0  0  0  0  0  0
  139.5980   73.1540  223.4620 H   0  0  0  0  0  0  0  0  0  0  0  0
  139.5535   72.5528  220.4633 H   0  0  0  0  0  0  0  0  0  0  0  0
  138.5614   73.8523  221.2057 H   0  0  0  0  0  0  0  0  0  0  0  0
  140.4568   72.5851  219.1997 H   0  0  0  0  0  0  0  0  0  0  0  0
  140.7800   73.8986  218.0128 H   0  0  0  0  0  0  0  0  0  0  0  0
  142.6177   71.8347  219.1635 H   0  0  0  0  0  0  0  0  0  0  0  0
  142.3085   72.3746  217.4252 H   0  0  0  0  0  0  0  0  0  0  0  0
  144.5540   72.8737  218.4508 H   0  0  0  0  0  0  0  0  0  0  0  0
  143.6053   74.1973  217.6161 H   0  0  0  0  0  0  0  0  0  0  0  0
  143.9057   73.7829  220.5959 H   0  0  0  0  0  0  0  0  0  0  0  0
  144.6613   75.0644  219.6080 H   0  0  0  0  0  0  0  0  0  0  0  0
  142.5423   75.9232  220.6518 H   0  0  0  0  0  0  0  0  0  0  0  0
  143.2469   75.9828  217.9254 H   0  0  0  0  0  0  0  0  0  0  0  0
  141.4881   75.6939  217.9634 H   0  0  0  0  0  0  0  0  0  0  0  0
  141.5337   80.6782  218.6735 H   0  0  0  0  0  0  0  0  0  0  0  0
  142.7748   78.3783  222.6442 H   0  0  0  0  0  0  0  0  0  0  0  0
  142.7367   79.6943  224.7633 H   0  0  0  0  0  0  0  0  0  0  0  0
  141.8463   82.0245  224.7951 H   0  0  0  0  0  0  0  0  0  0  0  0
  140.9910   83.0252  222.6830 H   0  0  0  0  0  0  0  0  0  0  0  0
  141.0262   81.7245  220.5711 H   0  0  0  0  0  0  0  0  0  0  0  0
  138.6681   68.7777  222.9971 H   0  0  0  0  0  0  0  0  0  0  0  0
  138.7418   67.4628  225.0923 H   0  0  0  0  0  0  0  0  0  0  0  0
  139.4291   67.3056  227.4207 H   0  0  0  0  0  0  0  0  0  0  0  0
  140.5424   68.2987  229.4077 H   0  0  0  0  0  0  0  0  0  0  0  0
  141.5396   70.5738  229.2134 H   0  0  0  0  0  0  0  0  0  0  0  0
  141.4316   71.8332  227.0992 H   0  0  0  0  0  0  0  0  0  0  0  0
  1  2  2  0
  2  3  1  0
  3  4  1  0
  4  5  1  0
  5  6  2  0
  5  7  1  0
  7  8  1  0
  8  9  1  0
  9 10  1  0
 10 11  1  0
 11 12  1  0
 12 13  1  0
 13 14  1  0
 14 15  2  0
 15 16  1  0
 16 17  2  0
 17 18  1  0
 18 19  2  0
 19 20  1  0
 20 21  2  0
 21 22  1  0
 22 23  2  0
 17 24  1  0
  2 25  1  0
 25 26  2  0
 26 27  1  0
 27 28  2  0
 28 29  1  0
 29 30  2  0
 30 31  1  0
 31 32  2  0
 32 33  1  0
 33 34  2  0
 12  7  1  0
 24 14  1  0
 34 25  1  0
 23 18  1  0
 33 28  1  0
  3 35  1  0
  4 36  1  0
  4 37  1  0
  8 38  1  0
  8 39  1  0
  9 40  1  0
  9 41  1  0
 10 42  1  0
 10 43  1  0
 11 44  1  0
 11 45  1  0
 12 46  1  1
 13 47  1  0
 13 48  1  0
 16 49  1  0
 19 50  1  0
 20 51  1  0
 21 52  1  0
 22 53  1  0
 23 54  1  0
 26 55  1  0
 27 56  1  0
 29 57  1  0
 30 58  1  0
 31 59  1  0
 32 60  1  0
M  END
