
 61 64  0  0  0  0  0  0  0  0999 V2000
  146.3500   73.0530  221.8540 C   0  0  0  0  0  0  0  0  0  0  0  0
  145.8800   73.9290  220.6990 C   0  0  0  0  0  0  0  0  0  0  0  0
  145.5310   73.0700  219.5320 C   0  0  0  0  0  0  0  0  0  0  0  0
  146.3030   73.0630  218.5420 O   0  0  0  0  0  0  0  0  0  0  0  0
  144.3400   72.3000  219.5970 N   0  0  0  0  0  0  0  0  0  0  0  0
  144.3690   70.8620  219.4720 C   0  0  0  0  0  0  0  0  0  0  0  0
  145.5760   70.2090  219.2980 C   0  0  0  0  0  0  0  0  0  0  0  0
  145.5600   68.8300  219.1790 C   0  0  0  0  0  0  0  0  0  0  0  0
  144.3840   68.1170  219.2330 C   0  0  0  0  0  0  0  0  0  0  0  0
  143.1860   68.7760  219.4080 C   0  0  0  0  0  0  0  0  0  0  0  0
  143.1900   70.1400  219.5260 C   0  0  0  0  0  0  0  0  0  0  0  0
  143.0470   72.8940  219.7910 C   0  0  0  0  0  0  0  0  0  0  0  0
  142.5500   72.8280  221.2200 C   0  0  0  0  0  0  0  0  0  0  0  0
  141.0810   73.1780  221.1660 C   0  0  0  0  0  0  0  0  0  0  0  0
  140.9600   74.5330  220.6010 N   0  0  0  0  0  0  0  0  0  0  0  0
  139.6510   75.0410  220.5020 C   0  0  0  0  0  0  0  0  0  0  0  0
  138.7140   74.2640  220.8970 O   0  0  0  0  0  0  0  0  0  0  0  0
  139.2540   76.3550  219.9990 C   0  0  1  0  0  0  0  0  0  0  0  0
  137.7790   76.3730  219.9180 N   0  0  0  0  0  0  0  0  0  0  0  0
  139.7080   77.4930  220.8810 C   0  0  0  0  0  0  0  0  0  0  0  0
  140.8880   78.2360  220.2950 C   0  0  0  0  0  0  0  0  0  0  0  0
  141.4430   78.8970  221.5050 C   0  0  0  0  0  0  0  0  0  0  0  0
  142.1990   80.0580  221.6170 C   0  0  0  0  0  0  0  0  0  0  0  0
  142.6330   80.5310  222.8420 C   0  0  0  0  0  0  0  0  0  0  0  0
  142.2890   79.8030  223.9590 C   0  0  0  0  0  0  0  0  0  0  0  0
  141.5310   78.6400  223.8430 C   0  0  0  0  0  0  0  0  0  0  0  0
  141.0940   78.1650  222.6210 C   0  0  0  0  0  0  0  0  0  0  0  0
  140.2940   76.9870  222.1830 C   0  0  0  0  0  0  0  0  0  0  0  0
  142.1570   75.2040  220.1990 C   0  0  0  0  0  0  0  0  0  0  0  0
  143.0900   74.3240  219.3570 C   0  0  0  0  0  0  0  0  0  0  0  0
  146.0915   73.5349  222.8085 H   0  0  0  0  0  0  0  0  0  0  0  0
  145.8575   72.0713  221.7936 H   0  0  0  0  0  0  0  0  0  0  0  0
  147.4403   72.9205  221.7936 H   0  0  0  0  0  0  0  0  0  0  0  0
  144.9939   74.5016  221.0105 H   0  0  0  0  0  0  0  0  0  0  0  0
  146.6848   74.6230  220.4150 H   0  0  0  0  0  0  0  0  0  0  0  0
  146.5215   70.7696  219.2554 H   0  0  0  0  0  0  0  0  0  0  0  0
  146.5089   68.2917  219.0380 H   0  0  0  0  0  0  0  0  0  0  0  0
  144.4001   67.0214  219.1365 H   0  0  0  0  0  0  0  0  0  0  0  0
  142.2411   68.2145  219.4522 H   0  0  0  0  0  0  0  0  0  0  0  0
  142.2376   70.6721  219.6664 H   0  0  0  0  0  0  0  0  0  0  0  0
  142.3419   72.3082  219.1830 H   0  0  0  0  0  0  0  0  0  0  0  0
  142.6870   71.8149  221.6260 H   0  0  0  0  0  0  0  0  0  0  0  0
  143.1052   73.5182  221.8722 H   0  0  0  0  0  0  0  0  0  0  0  0
  140.5482   72.4578  220.5277 H   0  0  0  0  0  0  0  0  0  0  0  0
  140.6407   73.1417  222.1734 H   0  0  0  0  0  0  0  0  0  0  0  0
  139.7319   76.5040  219.0195 H   0  0  0  0  0  0  0  0  0  0  0  0
  137.3830   76.3350  220.9010 H   0  0  0  0  0  0  0  0  0  0  0  0
  137.4340   75.4700  219.4870 H   0  0  0  0  0  0  0  0  0  0  0  0
  138.8072   78.1134  220.9976 H   0  0  0  0  0  0  0  0  0  0  0  0
  141.6154   77.5453  219.8436 H   0  0  0  0  0  0  0  0  0  0  0  0
  140.6264   78.9291  219.4819 H   0  0  0  0  0  0  0  0  0  0  0  0
  142.4594   80.6163  220.7057 H   0  0  0  0  0  0  0  0  0  0  0  0
  143.2292   81.4520  222.9208 H   0  0  0  0  0  0  0  0  0  0  0  0
  142.6159   80.1431  224.9527 H   0  0  0  0  0  0  0  0  0  0  0  0
  141.2717   78.0812  224.7543 H   0  0  0  0  0  0  0  0  0  0  0  0
  140.9313   76.1050  222.0218 H   0  0  0  0  0  0  0  0  0  0  0  0
  139.5436   76.6548  222.9155 H   0  0  0  0  0  0  0  0  0  0  0  0
  141.8798   76.0876  219.6053 H   0  0  0  0  0  0  0  0  0  0  0  0
  142.7025   75.4757  221.1148 H   0  0  0  0  0  0  0  0  0  0  0  0
  142.7819   74.3854  218.3028 H   0  0  0  0  0  0  0  0  0  0  0  0
  144.1184   74.6908  219.4907 H   0  0  0  0  0  0  0  0  0  0  0  0
  1  2  1  0
  2  3  1  0
  3  4  2  0
  3  5  1  0
  5  6  1  0
  6  7  2  0
  7  8  1  0
  8  9  2  0
  9 10  1  0
 10 11  2  0
  5 12  1  0
 12 13  1  0
 13 14  1  0
 14 15  1  0
 15 16  1  0
 16 17  2  0
 16 18  1  0
 18 19  1  0
 18 20  1  0
 20 21  1  0
 21 22  1  0
 22 23  2  0
 23 24  1  0
 24 25  2  0
 25 26  1  0
 26 27  2  0
 27 28  1  0
 15 29  1  0
 29 30  1  0
 11  6  1  0
 30 12  1  0
 28 20  1  0
 27 22  1  0
  1 31  1  0
  1 32  1  0
  1 33  1  0
  2 34  1  0
  2 35  1  0
  7 36  1  0
  8 37  1  0
  9 38  1  0
 10 39  1  0
 11 40  1  0
 12 41  1  0
 13 42  1  0
 13 43  1  0
 14 44  1  0
 14 45  1  0
 18 46  1  6
 19 47  1  0
 19 48  1  0
 20 49  1  0
 21 50  1  0
 21 51  1  0
 23 52  1  0
 24 53  1  0
 25 54  1  0
 26 55  1  0
 28 56  1  0
 28 57  1  0
 29 58  1  0
 29 59  1  0
 30 60  1  0
 30 61  1  0
M  END
