
     RDKit          3D

 80 86  0  0  1  0  0  0  0  0999 V2000
  140.5480   72.1890  228.2940 N   0  0  0  0  0  0  0  0  0  0  0  0
  140.2130   70.5010  228.1450 S   0  0  0  0  0  0  0  0  0  0  0  0
  139.0120   70.2150  229.0110 O   0  0  0  0  0  0  0  0  0  0  0  0
  141.3550   69.7420  228.7150 O   0  0  0  0  0  0  0  0  0  0  0  0
  139.8260   70.0360  226.5060 C   0  0  0  0  0  0  0  0  0  0  0  0
  140.4980   70.6850  225.4750 C   0  0  0  0  0  0  0  0  0  0  0  0
  140.1920   70.3200  224.1690 C   0  0  0  0  0  0  0  0  0  0  0  0
  139.2600   69.3550  223.8630 C   0  0  0  0  0  0  0  0  0  0  0  0
  138.9680   69.0180  222.4190 C   0  0  0  0  0  0  0  0  0  0  0  0
  137.7220   69.7770  222.0810 C   0  0  0  0  0  0  0  0  0  0  0  0
  137.7670   71.1680  222.0890 N   0  0  0  0  0  0  0  0  0  0  0  0
  136.7470   71.9240  221.4690 C   0  0  0  0  0  0  0  0  0  0  0  0
  137.3570   73.3150  221.2070 C   0  0  0  0  0  0  0  0  0  0  0  0
  138.5160   73.2900  222.1840 C   0  0  2  0  0  0  0  0  0  0  0  0
  139.5420   74.2960  221.9470 C   0  0  0  0  0  0  0  0  0  0  0  0
  139.5340   75.5630  222.3940 N   0  0  0  0  0  0  0  0  0  0  0  0
  140.5350   76.4280  222.1220 C   0  0  0  0  0  0  0  0  0  0  0  0
  140.5320   77.7680  222.5930 N   0  0  0  0  0  0  0  0  0  0  0  0
  141.5330   78.2890  223.5050 C   0  0  0  0  0  0  0  0  0  0  0  0
  142.3380   79.3100  222.7200 C   0  0  0  0  0  0  0  0  0  0  0  0
  141.3760   80.3460  222.2530 C   0  0  0  0  0  0  0  0  0  0  0  0
  141.8450   81.6350  222.0830 C   0  0  0  0  0  0  0  0  0  0  0  0
  140.9750   82.6240  221.6470 C   0  0  0  0  0  0  0  0  0  0  0  0
  139.6390   82.3500  221.3740 C   0  0  0  0  0  0  0  0  0  0  0  0
  139.1930   81.0580  221.5490 C   0  0  0  0  0  0  0  0  0  0  0  0
  140.0510   80.0670  221.9840 C   0  0  0  0  0  0  0  0  0  0  0  0
  139.4960   78.6830  222.1540 C   0  0  0  0  0  0  0  0  0  0  0  0
  141.5740   75.9970  221.3730 N   0  0  0  0  0  0  0  0  0  0  0  0
  141.6320   74.7360  220.8990 C   0  0  0  0  0  0  0  0  0  0  0  0
  142.7060   74.2490  220.1060 N   0  0  0  0  0  0  0  0  0  0  0  0
  144.0040   74.9410  220.1050 C   0  0  0  0  0  0  0  0  0  0  0  0
  144.9780   73.9990  220.7860 C   0  0  0  0  0  0  0  0  0  0  0  0
  144.9710   72.7270  220.0170 C   0  0  0  0  0  0  0  0  0  0  0  0
  146.1560   71.9850  220.0500 C   0  0  0  0  0  0  0  0  0  0  0  0
  146.1880   70.7850  219.3400 C   0  0  0  0  0  0  0  0  0  0  0  0
  145.0760   70.3570  218.6300 C   0  0  0  0  0  0  0  0  0  0  0  0
  143.9000   71.0920  218.5960 C   0  0  0  0  0  0  0  0  0  0  0  0
  143.8780   72.2810  219.3030 C   0  0  0  0  0  0  0  0  0  0  0  0
  142.6200   73.0730  219.2710 C   0  0  0  0  0  0  0  0  0  0  0  0
  140.6210   73.9230  221.1960 N   0  0  0  0  0  0  0  0  0  0  0  0
  139.0080   71.8460  221.9550 C   0  0  0  0  0  0  0  0  0  0  0  0
  138.5930   68.7120  224.8930 C   0  0  0  0  0  0  0  0  0  0  0  0
  138.8770   69.0520  226.2190 C   0  0  0  0  0  0  0  0  0  0  0  0
  140.4200   72.6660  227.3890 H   0  0  0  0  0  0  0  0  0  0  0  0
  140.0050   72.6230  229.0910 H   0  0  0  0  0  0  0  0  0  0  0  0
  141.2474   71.4620  225.6865 H   0  0  0  0  0  0  0  0  0  0  0  0
  140.7175   70.8243  223.3447 H   0  0  0  0  0  0  0  0  0  0  0  0
  139.7999   69.3357  221.7733 H   0  0  0  0  0  0  0  0  0  0  0  0
  138.8431   67.9357  222.2673 H   0  0  0  0  0  0  0  0  0  0  0  0
  137.4183   69.4681  221.0699 H   0  0  0  0  0  0  0  0  0  0  0  0
  137.0258   69.5263  222.8949 H   0  0  0  0  0  0  0  0  0  0  0  0
  136.4435   71.4541  220.5219 H   0  0  0  0  0  0  0  0  0  0  0  0
  135.8488   71.9878  222.1008 H   0  0  0  0  0  0  0  0  0  0  0  0
  137.7026   73.4188  220.1679 H   0  0  0  0  0  0  0  0  0  0  0  0
  136.6605   74.1560  221.3398 H   0  0  0  0  0  0  0  0  0  0  0  0
  138.2357   73.5377  223.2184 H   0  0  0  0  0  0  0  0  0  0  0  0
  141.0484   78.7687  224.3681 H   0  0  0  0  0  0  0  0  0  0  0  0
  142.1769   77.4854  223.8919 H   0  0  0  0  0  0  0  0  0  0  0  0
  143.1032   79.7665  223.3650 H   0  0  0  0  0  0  0  0  0  0  0  0
  142.8546   78.8384  221.8710 H   0  0  0  0  0  0  0  0  0  0  0  0
  142.8982   81.8745  222.2914 H   0  0  0  0  0  0  0  0  0  0  0  0
  141.3508   83.6492  221.5141 H   0  0  0  0  0  0  0  0  0  0  0  0
  138.9581   83.1418  221.0284 H   0  0  0  0  0  0  0  0  0  0  0  0
  138.1412   80.8130  221.3398 H   0  0  0  0  0  0  0  0  0  0  0  0
  138.6919   78.7056  222.9043 H   0  0  0  0  0  0  0  0  0  0  0  0
  139.1039   78.3368  221.1863 H   0  0  0  0  0  0  0  0  0  0  0  0
  144.3275   75.1459  219.0738 H   0  0  0  0  0  0  0  0  0  0  0  0
  143.9464   75.9081  220.6260 H   0  0  0  0  0  0  0  0  0  0  0  0
  145.9879   74.4350  220.7837 H   0  0  0  0  0  0  0  0  0  0  0  0
  144.6852   73.8243  221.8318 H   0  0  0  0  0  0  0  0  0  0  0  0
  147.0318   72.3354  220.6159 H   0  0  0  0  0  0  0  0  0  0  0  0
  147.1022   70.1733  219.3431 H   0  0  0  0  0  0  0  0  0  0  0  0
  145.1282   69.4071  218.0778 H   0  0  0  0  0  0  0  0  0  0  0  0
  143.0225   70.7443  218.0311 H   0  0  0  0  0  0  0  0  0  0  0  0
  142.4220   73.3854  218.2350 H   0  0  0  0  0  0  0  0  0  0  0  0
  141.8068   72.4394  219.6547 H   0  0  0  0  0  0  0  0  0  0  0  0
  139.4456   71.7125  220.9547 H   0  0  0  0  0  0  0  0  0  0  0  0
  139.8094   71.5057  222.6272 H   0  0  0  0  0  0  0  0  0  0  0  0
  137.8441   67.9382  224.6688 H   0  0  0  0  0  0  0  0  0  0  0  0
  138.3509   68.5425  227.0398 H   0  0  0  0  0  0  0  0  0  0  0  0
  1  2  1  0
  2  3  2  0
  2  4  2  0
  2  5  1  0
  5  6  2  0
  6  7  1  0
  7  8  2  0
  8  9  1  0
  9 10  1  0
 10 11  1  0
 11 12  1  0
 12 13  1  0
 13 14  1  0
 14 15  1  0
 15 16  2  0
 16 17  1  0
 17 18  1  0
 18 19  1  0
 19 20  1  0
 20 21  1  0
 21 22  2  0
 22 23  1  0
 23 24  2  0
 24 25  1  0
 25 26  2  0
 26 27  1  0
 17 28  2  0
 28 29  1  0
 29 30  1  0
 30 31  1  0
 31 32  1  0
 32 33  1  0
 33 34  2  0
 34 35  1  0
 35 36  2  0
 36 37  1  0
 37 38  2  0
 38 39  1  0
 29 40  2  0
 14 41  1  0
  8 42  1  0
 42 43  2  0
 43  5  1  0
 41 11  1  0
 40 15  1  0
 27 18  1  0
 39 30  1  0
 26 21  1  0
 38 33  1  0
  1 44  1  0
  1 45  1  0
  6 46  1  0
  7 47  1  0
  9 48  1  0
  9 49  1  0
 10 50  1  0
 10 51  1  0
 12 52  1  0
 12 53  1  0
 13 54  1  0
 13 55  1  0
 14 56  1  1
 19 57  1  0
 19 58  1  0
 20 59  1  0
 20 60  1  0
 22 61  1  0
 23 62  1  0
 24 63  1  0
 25 64  1  0
 27 65  1  0
 27 66  1  0
 31 67  1  0
 31 68  1  0
 32 69  1  0
 32 70  1  0
 34 71  1  0
 35 72  1  0
 36 73  1  0
 37 74  1  0
 39 75  1  0
 39 76  1  0
 41 77  1  0
 41 78  1  0
 42 79  1  0
 43 80  1  0
M  END
