
     RDKit          3D

 43 46  0  0  0  0  0  0  0  0999 V2000
  140.2110   71.9010  225.0070 O   0  0  0  0  0  0  0  0  0  0  0  0
  139.6240   70.7940  224.9600 C   0  0  0  0  0  0  0  0  0  0  0  0
  139.9260   69.9150  226.0070 C   0  0  0  0  0  0  0  0  0  0  0  0
  140.8180   70.2800  227.0090 C   0  0  0  0  0  0  0  0  0  0  0  0
  141.0710   69.3640  228.0130 C   0  0  0  0  0  0  0  0  0  0  0  0
  140.4810   68.1160  228.0600 C   0  0  0  0  0  0  0  0  0  0  0  0
  139.5980   67.7610  227.0650 C   0  0  0  0  0  0  0  0  0  0  0  0
  139.3400   68.6680  226.0610 C   0  0  0  0  0  0  0  0  0  0  0  0
  138.4850   68.3630  225.0680 N   0  0  0  0  0  0  0  0  0  0  0  0
  138.2120   69.2270  224.0730 C   0  0  0  0  0  0  0  0  0  0  0  0
  137.2770   68.7460  223.0430 C   0  0  0  0  0  0  0  0  0  0  0  0
  135.9870   68.7400  223.2650 C   0  0  0  0  0  0  0  0  0  0  0  0
  135.3320   69.3450  224.4120 C   0  0  0  0  0  0  0  0  0  0  0  0
  135.3050   70.7280  224.5890 C   0  0  0  0  0  0  0  0  0  0  0  0
  134.6830   71.3110  225.6770 C   0  0  0  0  0  0  0  0  0  0  0  0
  134.0640   70.5280  226.6280 C   0  0  0  0  0  0  0  0  0  0  0  0
  134.0900   69.1930  226.4570 N   0  0  0  0  0  0  0  0  0  0  0  0
  134.6940   68.6120  225.3990 C   0  0  0  0  0  0  0  0  0  0  0  0
  138.7570   70.4520  223.9790 N   0  0  0  0  0  0  0  0  0  0  0  0
  138.4470   71.3970  222.9330 C   0  0  0  0  0  0  0  0  0  0  0  0
  139.6370   72.0010  222.2900 C   0  0  0  0  0  0  0  0  0  0  0  0
  140.7180   71.3040  221.8210 C   0  0  0  0  0  0  0  0  0  0  0  0
  141.8150   71.9290  221.2280 C   0  0  0  0  0  0  0  0  0  0  0  0
  141.8590   73.2870  221.0870 C   0  0  0  0  0  0  0  0  0  0  0  0
  143.2300   74.0680  220.3450 Cl  0  0  0  0  0  0  0  0  0  0  0  0
  140.7830   74.0120  221.5490 C   0  0  0  0  0  0  0  0  0  0  0  0
  139.6860   73.3870  222.1430 C   0  0  0  0  0  0  0  0  0  0  0  0
  141.3065   71.2656  227.0031 H   0  0  0  0  0  0  0  0  0  0  0  0
  141.7748   69.6419  228.8114 H   0  0  0  0  0  0  0  0  0  0  0  0
  140.7125   67.4180  228.8780 H   0  0  0  0  0  0  0  0  0  0  0  0
  139.1097   66.7754  227.0717 H   0  0  0  0  0  0  0  0  0  0  0  0
  137.6657   68.3884  222.0781 H   0  0  0  0  0  0  0  0  0  0  0  0
  135.3481   68.2369  222.5242 H   0  0  0  0  0  0  0  0  0  0  0  0
  135.7920   71.3725  223.8424 H   0  0  0  0  0  0  0  0  0  0  0  0
  134.6819   72.4057  225.7847 H   0  0  0  0  0  0  0  0  0  0  0  0
  133.5651   70.9795  227.4982 H   0  0  0  0  0  0  0  0  0  0  0  0
  134.6790   67.5151  225.3175 H   0  0  0  0  0  0  0  0  0  0  0  0
  137.8634   70.8765  222.1594 H   0  0  0  0  0  0  0  0  0  0  0  0
  137.8899   72.2199  223.4046 H   0  0  0  0  0  0  0  0  0  0  0  0
  140.7216   70.2081  221.9155 H   0  0  0  0  0  0  0  0  0  0  0  0
  142.6571   71.3193  220.8686 H   0  0  0  0  0  0  0  0  0  0  0  0
  140.7886   75.1073  221.4475 H   0  0  0  0  0  0  0  0  0  0  0  0
  138.8448   73.9984  222.5018 H   0  0  0  0  0  0  0  0  0  0  0  0
  1  2  2  0
  2  3  1  0
  3  4  2  0
  4  5  1  0
  5  6  2  0
  6  7  1  0
  7  8  2  0
  8  9  1  0
  9 10  2  0
 10 11  1  0
 11 12  2  0
 12 13  1  0
 13 14  2  0
 14 15  1  0
 15 16  2  0
 16 17  1  0
 17 18  2  0
 10 19  1  0
 19 20  1  0
 20 21  1  0
 21 22  2  0
 22 23  1  0
 23 24  2  0
 24 25  1  0
 24 26  1  0
 26 27  2  0
 19  2  1  0
 27 21  1  0
  8  3  1  0
 18 13  1  0
  4 28  1  0
  5 29  1  0
  6 30  1  0
  7 31  1  0
 11 32  1  0
 12 33  1  0
 14 34  1  0
 15 35  1  0
 16 36  1  0
 18 37  1  0
 20 38  1  0
 20 39  1  0
 22 40  1  0
 23 41  1  0
 26 42  1  0
 27 43  1  0
M  END
