
     RDKit          3D

 65 70  0  0  0  0  0  0  0  0999 V2000
  146.2390   73.3830  217.6720 N   0  0  0  0  0  0  0  0  0  0  0  0
  145.2650   73.0160  218.6780 C   0  0  1  0  0  0  0  0  0  0  0  0
  145.5610   73.7070  219.9950 C   0  0  0  0  0  0  0  0  0  0  0  0
  144.3050   73.5170  220.8420 C   0  0  0  0  0  0  0  0  0  0  0  0
  143.3050   74.5310  220.2900 C   0  0  2  0  0  0  0  0  0  0  0  0
  142.0190   74.5110  221.0070 C   0  0  0  0  0  0  0  0  0  0  0  0
  141.5880   73.3620  221.5440 N   0  0  0  0  0  0  0  0  0  0  0  0
  140.4420   73.2270  222.2150 C   0  0  0  0  0  0  0  0  0  0  0  0
  140.0100   71.9910  222.7770 N   0  0  0  0  0  0  0  0  0  0  0  0
  138.9370   71.1990  222.2150 C   0  0  0  0  0  0  0  0  0  0  0  0
  139.2420   69.7200  222.3710 C   0  0  0  0  0  0  0  0  0  0  0  0
  139.3380   69.4360  223.8250 C   0  0  0  0  0  0  0  0  0  0  0  0
  138.7670   68.3590  224.4390 C   0  0  0  0  0  0  0  0  0  0  0  0
  138.9020   68.1600  225.8130 C   0  0  0  0  0  0  0  0  0  0  0  0
  139.6190   69.0570  226.5810 C   0  0  0  0  0  0  0  0  0  0  0  0
  140.1960   70.1480  225.9580 C   0  0  0  0  0  0  0  0  0  0  0  0
  140.0670   70.3550  224.5840 C   0  0  0  0  0  0  0  0  0  0  0  0
  140.6980   71.5290  223.9700 C   0  0  0  0  0  0  0  0  0  0  0  0
  139.6680   74.3420  222.3540 N   0  0  0  0  0  0  0  0  0  0  0  0
  140.0850   75.5120  221.8190 C   0  0  0  0  0  0  0  0  0  0  0  0
  139.2590   76.6620  221.9770 N   0  0  0  0  0  0  0  0  0  0  0  0
  137.8350   76.4730  221.7870 C   0  0  0  0  0  0  0  0  0  0  0  0
  137.0210   77.7080  221.8560 C   0  0  0  0  0  0  0  0  0  0  0  0
  137.5470   78.7990  222.6690 C   0  0  0  0  0  0  0  0  0  0  0  0
  136.6790   79.7250  223.2230 C   0  0  0  0  0  0  0  0  0  0  0  0
  137.1510   80.7750  224.0020 C   0  0  0  0  0  0  0  0  0  0  0  0
  138.5140   80.8800  224.2160 C   0  0  0  0  0  0  0  0  0  0  0  0
  139.3650   79.9450  223.6540 C   0  0  0  0  0  0  0  0  0  0  0  0
  138.9010   78.9010  222.8810 C   0  0  0  0  0  0  0  0  0  0  0  0
  139.8530   77.9430  222.3140 C   0  0  0  0  0  0  0  0  0  0  0  0
  141.2470   75.5930  221.1540 N   0  0  0  0  0  0  0  0  0  0  0  0
  143.1870   74.4400  218.7960 C   0  0  0  0  0  0  0  0  0  0  0  0
  143.8500   73.2130  218.2250 C   0  0  0  0  0  0  0  0  0  0  0  0
  145.7130   73.7800  216.8360 H   0  0  0  0  0  0  0  0  0  0  0  0
  146.8120   74.1780  218.0310 H   0  0  0  0  0  0  0  0  0  0  0  0
  145.3630   71.9330  218.8438 H   0  0  0  0  0  0  0  0  0  0  0  0
  145.7579   74.7770  219.8328 H   0  0  0  0  0  0  0  0  0  0  0  0
  146.4528   73.2896  220.4853 H   0  0  0  0  0  0  0  0  0  0  0  0
  144.5179   73.7203  221.9019 H   0  0  0  0  0  0  0  0  0  0  0  0
  143.9223   72.4869  220.7919 H   0  0  0  0  0  0  0  0  0  0  0  0
  143.7091   75.5345  220.4895 H   0  0  0  0  0  0  0  0  0  0  0  0
  137.9987   71.4340  222.7388 H   0  0  0  0  0  0  0  0  0  0  0  0
  138.8382   71.4349  221.1451 H   0  0  0  0  0  0  0  0  0  0  0  0
  138.4353   69.1208  221.9236 H   0  0  0  0  0  0  0  0  0  0  0  0
  140.1828   69.4623  221.8626 H   0  0  0  0  0  0  0  0  0  0  0  0
  138.1916   67.6369  223.8411 H   0  0  0  0  0  0  0  0  0  0  0  0
  138.4351   67.2843  226.2875 H   0  0  0  0  0  0  0  0  0  0  0  0
  139.7285   68.9064  227.6651 H   0  0  0  0  0  0  0  0  0  0  0  0
  140.7696   70.8691  226.5588 H   0  0  0  0  0  0  0  0  0  0  0  0
  140.7073   72.3460  224.7065 H   0  0  0  0  0  0  0  0  0  0  0  0
  141.7134   71.2332  223.6675 H   0  0  0  0  0  0  0  0  0  0  0  0
  137.6810   76.0186  220.7971 H   0  0  0  0  0  0  0  0  0  0  0  0
  137.4974   75.8376  222.6191 H   0  0  0  0  0  0  0  0  0  0  0  0
  136.9018   78.0855  220.8297 H   0  0  0  0  0  0  0  0  0  0  0  0
  136.0846   77.4078  222.3490 H   0  0  0  0  0  0  0  0  0  0  0  0
  135.5981   79.6280  223.0436 H   0  0  0  0  0  0  0  0  0  0  0  0
  136.4558   81.5069  224.4390 H   0  0  0  0  0  0  0  0  0  0  0  0
  138.9177   81.7001  224.8279 H   0  0  0  0  0  0  0  0  0  0  0  0
  140.4470   80.0372  223.8294 H   0  0  0  0  0  0  0  0  0  0  0  0
  140.2815   78.3788  221.3994 H   0  0  0  0  0  0  0  0  0  0  0  0
  140.6150   77.7521  223.0840 H   0  0  0  0  0  0  0  0  0  0  0  0
  143.6569   75.3303  218.3527 H   0  0  0  0  0  0  0  0  0  0  0  0
  142.1157   74.3768  218.5545 H   0  0  0  0  0  0  0  0  0  0  0  0
  143.8468   73.2972  217.1282 H   0  0  0  0  0  0  0  0  0  0  0  0
  143.2775   72.3458  218.5858 H   0  0  0  0  0  0  0  0  0  0  0  0
  1  2  1  0
  2  3  1  0
  3  4  1  0
  4  5  1  0
  5  6  1  0
  6  7  2  0
  7  8  1  0
  8  9  1  0
  9 10  1  0
 10 11  1  0
 11 12  1  0
 12 13  2  0
 13 14  1  0
 14 15  2  0
 15 16  1  0
 16 17  2  0
 17 18  1  0
  8 19  2  0
 19 20  1  0
 20 21  1  0
 21 22  1  0
 22 23  1  0
 23 24  1  0
 24 25  2  0
 25 26  1  0
 26 27  2  0
 27 28  1  0
 28 29  2  0
 29 30  1  0
 20 31  2  0
  5 32  1  0
 32 33  1  0
 33  2  1  0
 31  6  1  0
 18  9  1  0
 30 21  1  0
 17 12  1  0
 29 24  1  0
  1 34  1  0
  1 35  1  0
  2 36  1  1
  3 37  1  0
  3 38  1  0
  4 39  1  0
  4 40  1  0
  5 41  1  6
 10 42  1  0
 10 43  1  0
 11 44  1  0
 11 45  1  0
 13 46  1  0
 14 47  1  0
 15 48  1  0
 16 49  1  0
 18 50  1  0
 18 51  1  0
 22 52  1  0
 22 53  1  0
 23 54  1  0
 23 55  1  0
 25 56  1  0
 26 57  1  0
 27 58  1  0
 28 59  1  0
 30 60  1  0
 30 61  1  0
 32 62  1  0
 32 63  1  0
 33 64  1  0
 33 65  1  0
M  END
