@<TRIPOS>MOLECULE
*****
 61 66 0 0 0
SMALL
GASTEIGER

@<TRIPOS>ATOM
      1 C         141.1540   81.4740  219.0020 C.3     1  UNL1       -0.0624
      2 C         142.1050   80.5110  219.6390 C.3     1  UNL1       -0.0438
      3 C         141.8960   80.3060  221.0970 C.3     1  UNL1       -0.0490
      4 C         141.0420   79.1450  221.4830 C.3     1  UNL1       -0.0371
      5 C         140.0970   78.6790  220.4240 C.3     1  UNL1        0.0105
      6 N         139.4910   77.4230  220.6770 N.3     1  UNL1       -0.2985
      7 C         139.2860   77.1190  222.0690 C.3     1  UNL1        0.0001
      8 C         140.2110   75.9660  222.3390 C.3     1  UNL1       -0.0278
      9 C         140.2740   75.2280  221.0470 C.3     1  UNL1        0.0275
     10 C         139.4010   74.0160  221.0270 C.3     1  UNL1        0.0311
     11 N         140.2880   72.9600  221.4640 N.am    1  UNL1       -0.2638
     12 C         140.0280   71.7580  222.1510 C.2     1  UNL1        0.2862
     13 O         139.5270   70.7610  221.4910 O.2     1  UNL1       -0.2663
     14 C         140.2500   71.4870  223.5550 C.ar    1  UNL1        0.1954
     15 N         140.7000   72.2380  224.5650 N.ar    1  UNL1       -0.2235
     16 C         140.7290   71.4940  225.7160 C.ar    1  UNL1        0.0896
     17 C         141.0850   71.6990  227.0130 C.ar    1  UNL1       -0.0342
     18 C         141.0080   70.7100  227.9710 C.ar    1  UNL1       -0.0596
     19 C         140.5520   69.4220  227.6530 C.ar    1  UNL1       -0.0597
     20 C         140.1860   69.2190  226.3140 C.ar    1  UNL1       -0.0362
     21 C         140.2710   70.2210  225.3800 C.ar    1  UNL1        0.0666
     22 N         139.9890   70.2400  224.0730 N.ar    1  UNL1       -0.3342
     23 C         141.6360   73.3340  221.0750 C.ar    1  UNL1        0.0405
     24 C         142.7960   72.5930  220.9310 C.ar    1  UNL1       -0.0400
     25 C         143.9930   73.1510  220.5050 C.ar    1  UNL1       -0.0600
     26 C         143.9920   74.5000  220.2220 C.ar    1  UNL1       -0.0614
     27 C         142.8390   75.2620  220.3600 C.ar    1  UNL1       -0.0562
     28 C         141.6480   74.6930  220.7870 C.ar    1  UNL1       -0.0170
     29 C         139.9040   76.2710  220.0080 C.3     1  UNL1        0.0104
     30 C         140.7370   78.5540  219.0600 C.3     1  UNL1       -0.0371
     31 C         142.1090   79.1530  218.9860 C.3     1  UNL1       -0.0490
     32 H         140.6106   82.0243  219.7842 H       1  UNL1        0.0232
     33 H         141.7151   82.1840  218.3767 H       1  UNL1        0.0232
     34 H         140.4370   80.9218  218.3767 H       1  UNL1        0.0232
     35 H         143.0751   81.0067  219.4870 H       1  UNL1        0.0298
     36 H         141.4276   81.2160  221.5001 H       1  UNL1        0.0268
     37 H         142.8923   80.0888  221.5096 H       1  UNL1        0.0268
     38 H         140.4513   79.4337  222.3649 H       1  UNL1        0.0280
     39 H         141.7287   78.3071  221.6737 H       1  UNL1        0.0280
     40 H         139.3368   79.4738  220.4419 H       1  UNL1        0.0462
     41 H         139.5462   77.9827  222.6986 H       1  UNL1        0.0427
     42 H         138.2371   76.8775  222.2957 H       1  UNL1        0.0427
     43 H         141.2085   76.3275  222.6293 H       1  UNL1        0.0287
     44 H         139.8588   75.3320  223.1661 H       1  UNL1        0.0287
     45 H         138.5530   74.1297  221.7183 H       1  UNL1        0.0478
     46 H         138.9550   73.8229  220.0402 H       1  UNL1        0.0478
     47 H         141.4490   72.6938  227.3095 H       1  UNL1        0.0639
     48 H         141.3100   70.9354  229.0044 H       1  UNL1        0.0618
     49 H         140.4857   68.6224  228.4054 H       1  UNL1        0.0618
     50 H         139.8206   68.2289  226.0040 H       1  UNL1        0.0639
     51 H         139.6180   69.4080  223.5490 H       1  UNL1        0.1675
     52 H         142.7680   71.5183  221.1636 H       1  UNL1        0.0636
     53 H         144.9034   72.5430  220.3978 H       1  UNL1        0.0618
     54 H         144.9204   74.9814  219.8810 H       1  UNL1        0.0618
     55 H         142.8708   76.3364  220.1264 H       1  UNL1        0.0621
     56 H         140.7782   76.4979  219.3800 H       1  UNL1        0.0436
     57 H         139.0963   75.8955  219.3625 H       1  UNL1        0.0436
     58 H         140.0948   79.0630  218.3262 H       1  UNL1        0.0280
     59 H         140.8413   77.4795  218.8489 H       1  UNL1        0.0280
     60 H         142.4074   79.2547  217.9321 H       1  UNL1        0.0268
     61 H         142.8214   78.4986  219.5096 H       1  UNL1        0.0268
@<TRIPOS>BOND
     1     1     2    1
     2     2     3    1
     3     3     4    1
     4     4     5    1
     5     5     6    1
     6     6     7    1
     7     7     8    1
     8     9     8    1
     9     9    10    1
    10    10    11    1
    11    11    12   am
    12    12    13    2
    13    12    14    1
    14    14    15   ar
    15    15    16   ar
    16    16    17   ar
    17    17    18   ar
    18    18    19   ar
    19    19    20   ar
    20    20    21   ar
    21    21    22   ar
    22    11    23    1
    23    23    24   ar
    24    24    25   ar
    25    25    26   ar
    26    26    27   ar
    27    27    28   ar
    28     9    29    1
    29     5    30    1
    30    30    31    1
    31    31     2    1
    32    29     6    1
    33    28     9    1
    34    22    14   ar
    35    28    23   ar
    36    21    16   ar
    37     1    32    1
    38     1    33    1
    39     1    34    1
    40     2    35    1
    41     3    36    1
    42     3    37    1
    43     4    38    1
    44     4    39    1
    45     5    40    1
    46     7    41    1
    47     7    42    1
    48     8    43    1
    49     8    44    1
    50    10    45    1
    51    10    46    1
    52    17    47    1
    53    18    48    1
    54    19    49    1
    55    20    50    1
    56    22    51    1
    57    24    52    1
    58    25    53    1
    59    26    54    1
    60    27    55    1
    61    29    56    1
    62    29    57    1
    63    30    58    1
    64    30    59    1
    65    31    60    1
    66    31    61    1
