
 63 67  0  0  0  0  0  0  0  0999 V2000
  138.4100   72.5060  222.5080 N   0  0  0  0  0  0  0  0  0  0  0  0
  136.9680   72.3420  222.5600 C   0  0  1  0  0  0  0  0  0  0  0  0
  136.4520   71.4700  221.4750 C   0  0  0  0  0  0  0  0  0  0  0  0
  136.2540   70.1470  222.1570 C   0  0  1  0  0  0  0  0  0  0  0  0
  137.5150   69.4020  222.3650 C   0  0  0  0  0  0  0  0  0  0  0  0
  138.4340   69.6060  221.5150 O   0  0  0  0  0  0  0  0  0  0  0  0
  137.6580   68.5190  223.4580 N   0  0  0  0  0  0  0  0  0  0  0  0
  138.8520   67.7490  223.7390 C   0  0  0  0  0  0  0  0  0  0  0  0
  139.4480   68.2470  225.0020 C   0  0  0  0  0  0  0  0  0  0  0  0
  139.7860   67.4490  226.0680 C   0  0  0  0  0  0  0  0  0  0  0  0
  140.3380   68.0430  227.2080 C   0  0  0  0  0  0  0  0  0  0  0  0
  140.5250   69.4230  227.2150 C   0  0  0  0  0  0  0  0  0  0  0  0
  141.0700   70.0730  228.3220 C   0  0  0  0  0  0  0  0  0  0  0  0
  141.2410   71.4540  228.2880 C   0  0  0  0  0  0  0  0  0  0  0  0
  140.8850   72.2090  227.1910 C   0  0  0  0  0  0  0  0  0  0  0  0
  140.3450   71.5720  226.0980 C   0  0  0  0  0  0  0  0  0  0  0  0
  140.1790   70.1990  226.1370 C   0  0  0  0  0  0  0  0  0  0  0  0
  139.6570   69.5950  225.0720 N   0  0  0  0  0  0  0  0  0  0  0  0
  135.7660   70.5290  223.4800 N   0  0  0  0  0  0  0  0  0  0  0  0
  134.7680   69.8150  224.1930 C   0  0  0  0  0  0  0  0  0  0  0  0
  135.1300   68.6780  224.6520 O   0  0  0  0  0  0  0  0  0  0  0  0
  133.4120   70.3600  224.3810 C   0  0  0  0  0  0  0  0  0  0  0  0
  133.4610   71.7990  224.5430 N   0  0  0  0  0  0  0  0  0  0  0  0
  133.4010   72.3130  225.8670 C   0  0  0  0  0  0  0  0  0  0  0  0
  133.3070   71.4590  226.7950 O   0  0  0  0  0  0  0  0  0  0  0  0
  133.4440   73.7370  226.1720 C   0  0  0  0  0  0  0  0  0  0  0  0
  134.4170   74.5880  225.7080 C   0  0  0  0  0  0  0  0  0  0  0  0
  134.3910   75.9300  226.0440 C   0  0  0  0  0  0  0  0  0  0  0  0
  133.3830   76.4340  226.8500 C   0  0  0  0  0  0  0  0  0  0  0  0
  133.3110   77.7570  227.2130 C   0  0  0  0  0  0  0  0  0  0  0  0
  132.2760   78.2160  228.0290 C   0  0  0  0  0  0  0  0  0  0  0  0
  131.2910   77.3460  228.4950 C   0  0  0  0  0  0  0  0  0  0  0  0
  131.3650   76.0260  228.1320 C   0  0  0  0  0  0  0  0  0  0  0  0
  132.3860   75.5910  227.3310 C   0  0  0  0  0  0  0  0  0  0  0  0
  132.4600   74.2760  226.9700 C   0  0  0  0  0  0  0  0  0  0  0  0
  136.5050   71.7170  223.8270 C   0  0  0  0  0  0  0  0  0  0  0  0
  138.8060   72.9720  223.3550 H   0  0  0  0  0  0  0  0  0  0  0  0
  138.8790   71.5820  222.3680 H   0  0  0  0  0  0  0  0  0  0  0  0
  136.5849   73.3685  222.4619 H   0  0  0  0  0  0  0  0  0  0  0  0
  135.5007   71.8552  221.0792 H   0  0  0  0  0  0  0  0  0  0  0  0
  137.1311   71.4109  220.6117 H   0  0  0  0  0  0  0  0  0  0  0  0
  135.5960   69.5004  221.5579 H   0  0  0  0  0  0  0  0  0  0  0  0
  136.8230   68.4370  224.0970 H   0  0  0  0  0  0  0  0  0  0  0  0
  138.5910   66.6858  223.8461 H   0  0  0  0  0  0  0  0  0  0  0  0
  139.5723   67.8571  222.9146 H   0  0  0  0  0  0  0  0  0  0  0  0
  139.6253   66.3616  226.0259 H   0  0  0  0  0  0  0  0  0  0  0  0
  140.6182   67.4334  228.0797 H   0  0  0  0  0  0  0  0  0  0  0  0
  141.3621   69.4995  229.2140 H   0  0  0  0  0  0  0  0  0  0  0  0
  141.6739   71.9588  229.1642 H   0  0  0  0  0  0  0  0  0  0  0  0
  141.0299   73.2994  227.1897 H   0  0  0  0  0  0  0  0  0  0  0  0
  140.0497   72.1453  225.2068 H   0  0  0  0  0  0  0  0  0  0  0  0
  132.7985   70.1155  223.5013 H   0  0  0  0  0  0  0  0  0  0  0  0
  132.9722   69.9151  225.2858 H   0  0  0  0  0  0  0  0  0  0  0  0
  133.5380   72.4610  223.7290 H   0  0  0  0  0  0  0  0  0  0  0  0
  135.2215   74.2005  225.0656 H   0  0  0  0  0  0  0  0  0  0  0  0
  135.1767   76.6020  225.6683 H   0  0  0  0  0  0  0  0  0  0  0  0
  134.0769   78.4617  226.8569 H   0  0  0  0  0  0  0  0  0  0  0  0
  132.2367   79.2792  228.3085 H   0  0  0  0  0  0  0  0  0  0  0  0
  130.4754   77.7095  229.1374 H   0  0  0  0  0  0  0  0  0  0  0  0
  130.6029   75.3157  228.4850 H   0  0  0  0  0  0  0  0  0  0  0  0
  131.6775   73.5991  227.3435 H   0  0  0  0  0  0  0  0  0  0  0  0
  135.8563   72.4160  224.3753 H   0  0  0  0  0  0  0  0  0  0  0  0
  137.3612   71.4663  224.4705 H   0  0  0  0  0  0  0  0  0  0  0  0
  1  2  1  0
  2  3  1  0
  3  4  1  0
  4  5  1  0
  5  6  2  0
  5  7  1  0
  7  8  1  0
  8  9  1  0
  9 10  2  0
 10 11  1  0
 11 12  2  0
 12 13  1  0
 13 14  2  0
 14 15  1  0
 15 16  2  0
 16 17  1  0
 17 18  2  0
  4 19  1  0
 19 20  1  0
 20 21  2  0
 20 22  1  0
 22 23  1  0
 23 24  1  0
 24 25  2  0
 24 26  1  0
 26 27  2  0
 27 28  1  0
 28 29  2  0
 29 30  1  0
 30 31  2  0
 31 32  1  0
 32 33  2  0
 33 34  1  0
 34 35  2  0
 19 36  1  0
 36  2  1  0
 18  9  1  0
 35 26  1  0
 17 12  1  0
 34 29  1  0
  1 37  1  0
  1 38  1  0
  2 39  1  6
  3 40  1  0
  3 41  1  0
  4 42  1  6
  7 43  1  0
  8 44  1  0
  8 45  1  0
 10 46  1  0
 11 47  1  0
 13 48  1  0
 14 49  1  0
 15 50  1  0
 16 51  1  0
 22 52  1  0
 22 53  1  0
 23 54  1  0
 27 55  1  0
 28 56  1  0
 30 57  1  0
 31 58  1  0
 32 59  1  0
 33 60  1  0
 35 61  1  0
 36 62  1  0
 36 63  1  0
M  END
