@<TRIPOS>MOLECULE
*****
 79 85 0 0 0
SMALL
GASTEIGER

@<TRIPOS>ATOM
      1 C         143.9690   74.0070  219.6200 C.3     1  UNL1       -0.0449
      2 C         144.1740   72.7540  220.4230 C.3     1  UNL1        0.0392
      3 C         145.2290   71.8840  219.7710 C.3     1  UNL1        0.0346
      4 N         144.6950   71.2210  218.5830 N.am    1  UNL1       -0.2822
      5 C         145.5870   71.0790  217.5010 C.2     1  UNL1        0.3050
      6 O         145.9610   72.2010  216.9770 O.2     1  UNL1       -0.2524
      7 N         146.1040   69.9080  216.9390 N.am    1  UNL1       -0.2811
      8 C         145.8130   68.5500  217.3390 C.3     1  UNL1        0.0396
      9 C         146.3420   67.6570  216.2220 C.3     1  UNL1        0.0635
     10 O         145.9500   68.0790  214.9580 O.3     1  UNL1       -0.3767
     11 C         146.4250   69.3420  214.6430 C.3     1  UNL1        0.0635
     12 C         147.0600   70.0320  215.8180 C.3     1  UNL1        0.0396
     13 C         143.3290   70.7740  218.6330 C.3     1  UNL1        0.0320
     14 C         142.9230   70.6530  220.0930 C.3     1  UNL1        0.0311
     15 N         142.9500   72.0020  220.6460 N.pl3   1  UNL1       -0.2937
     16 C         141.8580   72.5530  221.3620 C.ar    1  UNL1        0.2240
     17 N         141.5560   73.8790  221.2570 N.ar    1  UNL1       -0.1807
     18 C         140.5170   74.3710  221.9540 C.ar    1  UNL1        0.2240
     19 N         140.1310   75.7390  221.9050 N.pl3   1  UNL1       -0.2948
     20 C         138.7970   76.1470  221.4390 C.3     1  UNL1        0.0192
     21 C         138.1540   76.8870  222.6220 C.3     1  UNL1       -0.0115
     22 C         138.9710   78.1200  222.7930 C.ar    1  UNL1       -0.0412
     23 C         138.4010   79.3510  223.0990 C.ar    1  UNL1       -0.0582
     24 C         139.2060   80.4670  223.2480 C.ar    1  UNL1       -0.0615
     25 C         140.5840   80.4040  223.1010 C.ar    1  UNL1       -0.0614
     26 C         141.1510   79.1740  222.7950 C.ar    1  UNL1       -0.0568
     27 C         140.3400   78.0460  222.6440 C.ar    1  UNL1       -0.0269
     28 C         141.0540   76.7800  222.3150 C.3     1  UNL1        0.0402
     29 N         139.8360   73.5030  222.7200 N.ar    1  UNL1       -0.1804
     30 C         140.1080   72.2020  222.8410 C.ar    1  UNL1        0.2280
     31 N         139.3920   71.2840  223.6520 N.pl3   1  UNL1       -0.2691
     32 C         138.1040   70.7290  223.2290 C.3     1  UNL1        0.0203
     33 C         137.7410   69.5270  224.0630 C.3     1  UNL1       -0.0327
     34 C         139.0000   68.7310  224.3600 C.3     1  UNL1       -0.0245
     35 C         139.7800   69.5880  225.3230 C.ar    1  UNL1       -0.0259
     36 C         140.2770   69.1290  226.5030 C.ar    1  UNL1       -0.0568
     37 C         140.9770   70.0470  227.2910 C.ar    1  UNL1       -0.0614
     38 C         141.1470   71.3670  226.8700 C.ar    1  UNL1       -0.0600
     39 C         140.6380   71.8200  225.6730 C.ar    1  UNL1       -0.0400
     40 C         139.9500   70.9100  224.9020 C.ar    1  UNL1        0.0396
     41 N         141.1490   71.7200  222.1390 N.ar    1  UNL1       -0.1804
     42 H         143.8295   74.8599  220.3005 H       1  UNL1        0.0248
     43 H         144.8501   74.1843  218.9858 H       1  UNL1        0.0248
     44 H         143.0774   73.8943  218.9858 H       1  UNL1        0.0248
     45 H         144.5199   73.0698  221.4183 H       1  UNL1        0.0513
     46 H         146.0841   72.5117  219.4797 H       1  UNL1        0.0483
     47 H         145.5454   71.1150  220.4911 H       1  UNL1        0.0483
     48 H         146.3184   68.3149  218.2873 H       1  UNL1        0.0488
     49 H         144.7347   68.4000  217.4965 H       1  UNL1        0.0488
     50 H         147.4411   67.6550  216.2657 H       1  UNL1        0.0575
     51 H         145.9230   66.6520  216.3779 H       1  UNL1        0.0575
     52 H         147.1744   69.2470  213.8434 H       1  UNL1        0.0575
     53 H         145.5658   69.9506  214.3245 H       1  UNL1        0.0575
     54 H         148.0132   69.5468  216.0750 H       1  UNL1        0.0488
     55 H         147.2770   71.0866  215.5927 H       1  UNL1        0.0488
     56 H         142.6798   71.5023  218.1249 H       1  UNL1        0.0480
     57 H         143.2282   69.8018  218.1283 H       1  UNL1        0.0480
     58 H         141.9103   70.2308  220.1716 H       1  UNL1        0.0480
     59 H         143.6052   69.9861  220.6405 H       1  UNL1        0.0480
     60 H         138.8819   76.8147  220.5689 H       1  UNL1        0.0468
     61 H         138.1942   75.2826  221.1237 H       1  UNL1        0.0468
     62 H         137.1086   77.1438  222.3957 H       1  UNL1        0.0328
     63 H         138.1361   76.2725  223.5342 H       1  UNL1        0.0328
     64 H         137.3114   79.4377  223.2225 H       1  UNL1        0.0620
     65 H         138.7390   81.4330  223.4903 H       1  UNL1        0.0618
     66 H         141.2085   81.3012  223.2231 H       1  UNL1        0.0618
     67 H         142.2406   79.0873  222.6712 H       1  UNL1        0.0621
     68 H         141.7626   76.9720  221.4959 H       1  UNL1        0.0514
     69 H         141.5813   76.4372  223.2175 H       1  UNL1        0.0514
     70 H         137.3248   71.4968  223.3442 H       1  UNL1        0.0469
     71 H         138.1817   70.4183  222.1767 H       1  UNL1        0.0469
     72 H         137.2830   69.8580  225.0068 H       1  UNL1        0.0284
     73 H         137.0247   68.8975  223.5146 H       1  UNL1        0.0284
     74 H         138.7475   67.7638  224.8192 H       1  UNL1        0.0314
     75 H         139.5726   68.5048  223.4484 H       1  UNL1        0.0314
     76 H         140.1349   68.0858  226.8217 H       1  UNL1        0.0621
     77 H         141.3990   69.7254  228.2546 H       1  UNL1        0.0618
     78 H         141.7033   72.0653  227.5125 H       1  UNL1        0.0618
     79 H         140.7750   72.8618  225.3477 H       1  UNL1        0.0636
@<TRIPOS>BOND
     1     1     2    1
     2     2     3    1
     3     3     4    1
     4     4     5   am
     5     5     6    2
     6     5     7   am
     7     7     8    1
     8     8     9    1
     9     9    10    1
    10    10    11    1
    11    11    12    1
    12     4    13    1
    13    13    14    1
    14    14    15    1
    15    15    16    1
    16    16    17   ar
    17    17    18   ar
    18    18    19    1
    19    19    20    1
    20    20    21    1
    21    21    22    1
    22    22    23   ar
    23    23    24   ar
    24    24    25   ar
    25    25    26   ar
    26    26    27   ar
    27    27    28    1
    28    18    29   ar
    29    29    30   ar
    30    30    31    1
    31    31    32    1
    32    32    33    1
    33    33    34    1
    34    34    35    1
    35    35    36   ar
    36    36    37   ar
    37    37    38   ar
    38    38    39   ar
    39    39    40   ar
    40    30    41   ar
    41    15     2    1
    42    41    16   ar
    43    12     7    1
    44    28    19    1
    45    40    31    1
    46    27    22   ar
    47    40    35   ar
    48     1    42    1
    49     1    43    1
    50     1    44    1
    51     2    45    1
    52     3    46    1
    53     3    47    1
    54     8    48    1
    55     8    49    1
    56     9    50    1
    57     9    51    1
    58    11    52    1
    59    11    53    1
    60    12    54    1
    61    12    55    1
    62    13    56    1
    63    13    57    1
    64    14    58    1
    65    14    59    1
    66    20    60    1
    67    20    61    1
    68    21    62    1
    69    21    63    1
    70    23    64    1
    71    24    65    1
    72    25    66    1
    73    26    67    1
    74    28    68    1
    75    28    69    1
    76    32    70    1
    77    32    71    1
    78    33    72    1
    79    33    73    1
    80    34    74    1
    81    34    75    1
    82    36    76    1
    83    37    77    1
    84    38    78    1
    85    39    79    1
