@<TRIPOS>MOLECULE
*****
 64 68 0 0 0
SMALL
GASTEIGER

@<TRIPOS>ATOM
      1 O         141.0330   72.0000  221.7640 O.2     1  UNL1       -0.2685
      2 C         140.0840   72.0400  222.5990 C.2     1  UNL1        0.2628
      3 N         139.0220   73.0120  222.3470 N.am    1  UNL1       -0.3015
      4 C         139.1880   73.8030  221.1810 C.3     1  UNL1        0.0887
      5 C         140.2530   74.7680  221.1850 C.2     1  UNL1        0.2330
      6 O         140.3570   75.4290  222.3170 O.2     1  UNL1       -0.2739
      7 N         141.2090   75.1330  220.1910 N.am    1  UNL1       -0.2959
      8 C         141.6000   74.4690  218.9790 C.3     1  UNL1        0.0151
      9 C         142.5210   75.4090  218.2560 C.3     1  UNL1       -0.0354
     10 C         143.0470   76.3270  219.3050 C.3     1  UNL1       -0.0317
     11 C         142.0100   76.3460  220.3740 C.3     1  UNL1        0.0386
     12 C         141.2400   77.6130  220.3410 C.3     1  UNL1        0.0149
     13 N         141.9750   78.8190  220.5770 N.3     1  UNL1       -0.3103
     14 C         142.2260   79.0030  222.0150 C.3     1  UNL1        0.0213
     15 C         140.9930   79.4850  222.7040 C.ar    1  UNL1       -0.0335
     16 C         140.8630   80.7570  223.2110 C.ar    1  UNL1       -0.0567
     17 C         139.6980   81.1810  223.8540 C.ar    1  UNL1       -0.0508
     18 C         138.6380   80.3120  223.9910 C.ar    1  UNL1        0.0191
     19 C         137.4180   80.7400  224.6620 C.ar    1  UNL1        0.1597
     20 N         136.2000   80.3680  224.2370 N.ar    1  UNL1       -0.2357
     21 C         135.0720   80.7590  224.8560 C.ar    1  UNL1        0.0314
     22 C         135.1360   81.5770  225.9780 C.ar    1  UNL1       -0.0254
     23 C         136.3900   81.9590  226.4150 C.ar    1  UNL1        0.0314
     24 N         137.4870   81.5350  225.7530 N.ar    1  UNL1       -0.2357
     25 C         138.7420   79.0310  223.4900 C.ar    1  UNL1       -0.0508
     26 C         139.9030   78.6400  222.8610 C.ar    1  UNL1       -0.0567
     27 C         140.0270   71.1660  223.7640 C.ar    1  UNL1        0.1260
     28 C         139.3840   69.9590  223.6310 C.ar    1  UNL1       -0.0306
     29 C         139.2930   69.0800  224.7100 C.ar    1  UNL1       -0.0503
     30 C         139.8650   69.4570  225.9090 C.ar    1  UNL1        0.0031
     31 C         139.8220   68.6460  227.0360 C.ar    1  UNL1       -0.0173
     32 C         140.3770   68.9930  228.2360 C.ar    1  UNL1        0.1241
     33 F         140.3240   68.1830  229.3370 F       1  UNL1       -0.2055
     34 C         141.0160   70.2060  228.3450 C.ar    1  UNL1       -0.0244
     35 C         141.0680   71.0290  227.2270 C.ar    1  UNL1       -0.0330
     36 C         140.5050   70.6720  226.0200 C.ar    1  UNL1        0.0720
     37 N         140.5740   71.4970  224.9550 N.ar    1  UNL1       -0.2421
     38 H         138.2820   72.9930  223.0430 H       1  UNL1        0.1496
     39 H         139.3664   73.1175  220.3394 H       1  UNL1        0.0558
     40 H         138.2666   74.3998  221.1112 H       1  UNL1        0.0558
     41 H         142.1223   73.5294  219.2120 H       1  UNL1        0.0465
     42 H         140.7242   74.2177  218.3627 H       1  UNL1        0.0465
     43 H         143.3438   74.8538  217.7818 H       1  UNL1        0.0281
     44 H         142.0029   75.9557  217.4543 H       1  UNL1        0.0281
     45 H         144.0013   75.9505  219.7019 H       1  UNL1        0.0284
     46 H         143.2404   77.3338  218.9063 H       1  UNL1        0.0284
     47 H         142.4423   76.3300  221.3853 H       1  UNL1        0.0513
     48 H         140.7755   77.6949  219.3472 H       1  UNL1        0.0442
     49 H         140.5282   77.5403  221.1765 H       1  UNL1        0.0442
     50 H         142.9240   78.8130  220.1250 H       1  UNL1        0.1223
     51 H         142.5341   78.0428  222.4543 H       1  UNL1        0.0473
     52 H         143.0212   79.7520  222.1441 H       1  UNL1        0.0473
     53 H         141.7016   81.4612  223.1069 H       1  UNL1        0.0621
     54 H         139.6271   82.2050  224.2495 H       1  UNL1        0.0625
     55 H         134.0947   80.4302  224.4729 H       1  UNL1        0.0831
     56 H         134.2244   81.9072  226.4975 H       1  UNL1        0.0648
     57 H         136.4937   82.6059  227.2986 H       1  UNL1        0.0831
     58 H         137.9033   78.3266  223.5922 H       1  UNL1        0.0625
     59 H         139.9694   77.6153  222.4665 H       1  UNL1        0.0621
     60 H         138.9369   69.6834  222.6645 H       1  UNL1        0.0641
     61 H         138.7794   68.1125  224.6087 H       1  UNL1        0.0625
     62 H         139.3145   67.6731  226.9586 H       1  UNL1        0.0653
     63 H         141.4751   70.5171  229.2950 H       1  UNL1        0.0647
     64 H         141.5768   72.0009  227.3076 H       1  UNL1        0.0640
@<TRIPOS>BOND
     1     1     2    2
     2     2     3   am
     3     3     4    1
     4     4     5    1
     5     5     6    2
     6     5     7   am
     7     7     8    1
     8     8     9    1
     9     9    10    1
    10    10    11    1
    11    11    12    1
    12    12    13    1
    13    13    14    1
    14    14    15    1
    15    15    16   ar
    16    16    17   ar
    17    17    18   ar
    18    18    19    1
    19    19    20   ar
    20    20    21   ar
    21    21    22   ar
    22    22    23   ar
    23    23    24   ar
    24    18    25   ar
    25    25    26   ar
    26     2    27    1
    27    27    28   ar
    28    28    29   ar
    29    29    30   ar
    30    30    31   ar
    31    31    32   ar
    32    32    33    1
    33    32    34   ar
    34    34    35   ar
    35    35    36   ar
    36    36    37   ar
    37    11     7    1
    38    26    15   ar
    39    37    27   ar
    40    24    19   ar
    41    36    30   ar
    42     3    38    1
    43     4    39    1
    44     4    40    1
    45     8    41    1
    46     8    42    1
    47     9    43    1
    48     9    44    1
    49    10    45    1
    50    10    46    1
    51    11    47    1
    52    12    48    1
    53    12    49    1
    54    13    50    1
    55    14    51    1
    56    14    52    1
    57    16    53    1
    58    17    54    1
    59    21    55    1
    60    22    56    1
    61    23    57    1
    62    25    58    1
    63    26    59    1
    64    28    60    1
    65    29    61    1
    66    31    62    1
    67    34    63    1
    68    35    64    1
