
 72 78  0  0  0  0  0  0  0  0999 V2000
  141.7810   81.8370  221.5940 C   0  0  0  0  0  0  0  0  0  0  0  0
  142.6240   80.9010  222.1750 C   0  0  0  0  0  0  0  0  0  0  0  0
  142.1390   79.6890  222.6570 C   0  0  0  0  0  0  0  0  0  0  0  0
  140.7930   79.4210  222.5520 C   0  0  0  0  0  0  0  0  0  0  0  0
  139.9210   80.3250  221.9800 C   0  0  0  0  0  0  0  0  0  0  0  0
  140.4410   81.5170  221.5150 C   0  0  0  0  0  0  0  0  0  0  0  0
  138.4630   80.0590  221.8560 C   0  0  0  0  0  0  0  0  0  0  0  0
  138.0700   79.1860  223.0300 C   0  0  0  0  0  0  0  0  0  0  0  0
  138.8780   77.9840  222.9550 N   0  0  0  0  0  0  0  0  0  0  0  0
  138.2720   76.7120  222.7610 C   0  0  0  0  0  0  0  0  0  0  0  0
  138.8160   75.7710  221.9740 N   0  0  0  0  0  0  0  0  0  0  0  0
  138.2520   74.5650  221.7830 C   0  0  0  0  0  0  0  0  0  0  0  0
  138.8660   73.5990  220.9390 N   0  0  0  0  0  0  0  0  0  0  0  0
  139.7800   72.6300  221.4430 C   0  0  0  0  0  0  0  0  0  0  0  0
  139.6150   72.2780  222.8900 C   0  0  0  0  0  0  0  0  0  0  0  0
  140.0790   70.8470  223.0550 C   0  0  0  0  0  0  0  0  0  0  0  0
  139.7270   70.2910  224.3460 N   0  0  0  0  0  0  0  0  0  0  0  0
  138.9270   69.2480  224.6330 C   0  0  0  0  0  0  0  0  0  0  0  0
  138.9110   69.1110  226.0260 C   0  0  0  0  0  0  0  0  0  0  0  0
  139.7280   70.1060  226.5760 C   0  0  0  0  0  0  0  0  0  0  0  0
  140.0640   70.4240  227.8790 C   0  0  0  0  0  0  0  0  0  0  0  0
  140.9150   71.4900  228.1160 C   0  0  0  0  0  0  0  0  0  0  0  0
  141.4260   72.2280  227.0670 C   0  0  0  0  0  0  0  0  0  0  0  0
  141.0730   71.8880  225.7600 C   0  0  0  0  0  0  0  0  0  0  0  0
  140.2180   70.8200  225.5010 C   0  0  0  0  0  0  0  0  0  0  0  0
  137.0980   74.3250  222.4210 N   0  0  0  0  0  0  0  0  0  0  0  0
  136.4990   75.2230  223.2230 C   0  0  0  0  0  0  0  0  0  0  0  0
  135.2720   74.9270  223.8830 N   0  0  0  0  0  0  0  0  0  0  0  0
  134.1610   75.8600  223.9250 C   0  0  0  0  0  0  0  0  0  0  0  0
  133.8350   76.1180  225.3890 C   0  0  0  0  0  0  0  0  0  0  0  0
  133.4350   74.8120  225.9930 C   0  0  0  0  0  0  0  0  0  0  0  0
  132.4560   74.7210  226.9590 C   0  0  0  0  0  0  0  0  0  0  0  0
  132.0950   73.5010  227.5100 C   0  0  0  0  0  0  0  0  0  0  0  0
  132.7210   72.3690  227.0890 C   0  0  0  0  0  0  0  0  0  0  0  0
  133.7130   72.4290  226.1150 C   0  0  0  0  0  0  0  0  0  0  0  0
  134.0610   73.6440  225.5770 C   0  0  0  0  0  0  0  0  0  0  0  0
  135.1310   73.6410  224.5390 C   0  0  0  0  0  0  0  0  0  0  0  0
  137.1170   76.4090  223.3700 N   0  0  0  0  0  0  0  0  0  0  0  0
  140.3020   78.1020  223.0820 C   0  0  0  0  0  0  0  0  0  0  0  0
  142.1648   82.7945  221.2121 H   0  0  0  0  0  0  0  0  0  0  0  0
  143.6986   81.1215  222.2564 H   0  0  0  0  0  0  0  0  0  0  0  0
  142.8205   78.9568  223.1146 H   0  0  0  0  0  0  0  0  0  0  0  0
  139.7543   82.2460  221.0600 H   0  0  0  0  0  0  0  0  0  0  0  0
  137.9027   81.0052  221.8847 H   0  0  0  0  0  0  0  0  0  0  0  0
  138.2349   79.5602  220.9025 H   0  0  0  0  0  0  0  0  0  0  0  0
  138.2653   79.7139  223.9751 H   0  0  0  0  0  0  0  0  0  0  0  0
  136.9982   78.9409  222.9950 H   0  0  0  0  0  0  0  0  0  0  0  0
  138.6120   73.6300  219.9070 H   0  0  0  0  0  0  0  0  0  0  0  0
  139.6563   71.7092  220.8541 H   0  0  0  0  0  0  0  0  0  0  0  0
  140.7787   73.0826  221.3546 H   0  0  0  0  0  0  0  0  0  0  0  0
  140.2263   72.9472  223.5133 H   0  0  0  0  0  0  0  0  0  0  0  0
  138.5662   72.3883  223.2029 H   0  0  0  0  0  0  0  0  0  0  0  0
  139.6145   70.2335  222.2690 H   0  0  0  0  0  0  0  0  0  0  0  0
  141.1764   70.8424  222.9789 H   0  0  0  0  0  0  0  0  0  0  0  0
  138.3868   68.6206  223.9088 H   0  0  0  0  0  0  0  0  0  0  0  0
  138.3519   68.3513  226.5919 H   0  0  0  0  0  0  0  0  0  0  0  0
  139.6601   69.8371  228.7171 H   0  0  0  0  0  0  0  0  0  0  0  0
  141.1865   71.7513  229.1494 H   0  0  0  0  0  0  0  0  0  0  0  0
  142.1030   73.0735  227.2588 H   0  0  0  0  0  0  0  0  0  0  0  0
  141.4769   72.4734  224.9209 H   0  0  0  0  0  0  0  0  0  0  0  0
  134.4427   76.8018  223.4314 H   0  0  0  0  0  0  0  0  0  0  0  0
  133.2872   75.4456  223.4008 H   0  0  0  0  0  0  0  0  0  0  0  0
  134.7198   76.5167  225.9069 H   0  0  0  0  0  0  0  0  0  0  0  0
  133.0235   76.8547  225.4828 H   0  0  0  0  0  0  0  0  0  0  0  0
  131.9501   75.6362  227.3002 H   0  0  0  0  0  0  0  0  0  0  0  0
  131.3107   73.4490  228.2795 H   0  0  0  0  0  0  0  0  0  0  0  0
  132.4405   71.3976  227.5224 H   0  0  0  0  0  0  0  0  0  0  0  0
  134.2149   71.5099  225.7783 H   0  0  0  0  0  0  0  0  0  0  0  0
  136.0868   73.3828  225.0184 H   0  0  0  0  0  0  0  0  0  0  0  0
  134.8509   72.9036  223.7723 H   0  0  0  0  0  0  0  0  0  0  0  0
  140.5746   78.0195  224.1445 H   0  0  0  0  0  0  0  0  0  0  0  0
  140.7696   77.2976  222.4953 H   0  0  0  0  0  0  0  0  0  0  0  0
  1  2  2  0
  2  3  1  0
  3  4  2  0
  4  5  1  0
  5  6  2  0
  5  7  1  0
  7  8  1  0
  8  9  1  0
  9 10  1  0
 10 11  2  0
 11 12  1  0
 12 13  1  0
 13 14  1  0
 14 15  1  0
 15 16  1  0
 16 17  1  0
 17 18  1  0
 18 19  2  0
 19 20  1  0
 20 21  2  0
 21 22  1  0
 22 23  2  0
 23 24  1  0
 24 25  2  0
 12 26  2  0
 26 27  1  0
 27 28  1  0
 28 29  1  0
 29 30  1  0
 30 31  1  0
 31 32  2  0
 32 33  1  0
 33 34  2  0
 34 35  1  0
 35 36  2  0
 36 37  1  0
 27 38  2  0
  9 39  1  0
  6  1  1  0
 38 10  1  0
 39  4  1  0
 25 17  1  0
 37 28  1  0
 25 20  1  0
 36 31  1  0
  1 40  1  0
  2 41  1  0
  3 42  1  0
  6 43  1  0
  7 44  1  0
  7 45  1  0
  8 46  1  0
  8 47  1  0
 13 48  1  0
 14 49  1  0
 14 50  1  0
 15 51  1  0
 15 52  1  0
 16 53  1  0
 16 54  1  0
 18 55  1  0
 19 56  1  0
 21 57  1  0
 22 58  1  0
 23 59  1  0
 24 60  1  0
 29 61  1  0
 29 62  1  0
 30 63  1  0
 30 64  1  0
 32 65  1  0
 33 66  1  0
 34 67  1  0
 35 68  1  0
 37 69  1  0
 37 70  1  0
 39 71  1  0
 39 72  1  0
M  END
