
 67 71  0  0  0  0  0  0  0  0999 V2000
  138.2870   72.0890  222.3000 O   0  0  0  0  0  0  0  0  0  0  0  0
  139.4530   71.7600  222.7030 C   0  0  0  0  0  0  0  0  0  0  0  0
  140.6040   72.2310  221.9780 N   0  0  0  0  0  0  0  0  0  0  0  0
  140.3540   73.0600  220.8280 C   0  0  0  0  0  0  0  0  0  0  0  0
  141.4900   73.9970  220.6110 C   0  0  0  0  0  0  0  0  0  0  0  0
  142.6890   73.6900  220.8380 O   0  0  0  0  0  0  0  0  0  0  0  0
  141.2410   75.3100  220.1230 N   0  0  0  0  0  0  0  0  0  0  0  0
  139.9650   75.7600  219.5950 C   0  0  0  0  0  0  0  0  0  0  0  0
  140.3240   76.9150  218.6550 C   0  0  0  0  0  0  0  0  0  0  0  0
  141.8570   76.8730  218.5910 C   0  0  0  0  0  0  0  0  0  0  0  0
  142.1390   76.4470  220.0390 C   0  0  1  0  0  0  0  0  0  0  0  0
  141.6750   77.5630  220.9020 C   0  0  0  0  0  0  0  0  0  0  0  0
  141.4730   78.7230  220.4810 O   0  0  0  0  0  0  0  0  0  0  0  0
  141.4480   77.3030  222.2710 N   0  0  0  0  0  0  0  0  0  0  0  0
  140.9920   78.3650  223.1570 C   0  0  1  0  0  0  0  0  0  0  0  0
  141.9640   79.5050  223.0130 C   0  0  0  0  0  0  0  0  0  0  0  0
  141.4400   80.8330  223.4590 C   0  0  0  0  0  0  0  0  0  0  0  0
  140.0370   81.1450  223.0830 C   0  0  2  0  0  0  0  0  0  0  0  0
  139.1660   81.2750  224.2000 O   0  0  0  0  0  0  0  0  0  0  0  0
  137.7900   81.3150  223.9140 C   0  0  0  0  0  0  0  0  0  0  0  0
  137.0200   80.2960  224.3450 N   0  0  0  0  0  0  0  0  0  0  0  0
  135.6900   80.3380  224.0660 C   0  0  0  0  0  0  0  0  0  0  0  0
  135.1820   81.4210  223.3580 C   0  0  0  0  0  0  0  0  0  0  0  0
  136.0060   82.4590  222.9280 C   0  0  0  0  0  0  0  0  0  0  0  0
  137.3090   82.3610  223.2310 N   0  0  0  0  0  0  0  0  0  0  0  0
  139.5380   80.1080  222.1070 C   0  0  0  0  0  0  0  0  0  0  0  0
  139.5750   78.7770  222.8260 C   0  0  0  0  0  0  0  0  0  0  0  0
  139.6390   70.9160  223.8780 C   0  0  0  0  0  0  0  0  0  0  0  0
  139.2030   69.6070  223.8180 C   0  0  0  0  0  0  0  0  0  0  0  0
  139.3330   68.7260  224.8770 C   0  0  0  0  0  0  0  0  0  0  0  0
  139.9310   69.2150  226.0320 C   0  0  0  0  0  0  0  0  0  0  0  0
  140.0580   68.3280  227.0890 C   0  0  0  0  0  0  0  0  0  0  0  0
  140.6560   68.8000  228.2580 C   0  0  0  0  0  0  0  0  0  0  0  0
  140.8000   67.9710  229.3120 F   0  0  0  0  0  0  0  0  0  0  0  0
  141.0940   70.1190  228.3160 C   0  0  0  0  0  0  0  0  0  0  0  0
  140.9470   70.9690  227.2340 C   0  0  0  0  0  0  0  0  0  0  0  0
  140.3640   70.5190  226.0880 C   0  0  0  0  0  0  0  0  0  0  0  0
  140.2140   71.3500  225.0150 N   0  0  0  0  0  0  0  0  0  0  0  0
  141.5710   71.9660  222.3000 H   0  0  0  0  0  0  0  0  0  0  0  0
  140.2347   72.4222  219.9397 H   0  0  0  0  0  0  0  0  0  0  0  0
  139.4368   73.6426  220.9990 H   0  0  0  0  0  0  0  0  0  0  0  0
  139.4655   74.9503  219.0428 H   0  0  0  0  0  0  0  0  0  0  0  0
  139.2692   76.0683  220.3893 H   0  0  0  0  0  0  0  0  0  0  0  0
  139.8859   76.7594  217.6581 H   0  0  0  0  0  0  0  0  0  0  0  0
  139.9396   77.8840  219.0061 H   0  0  0  0  0  0  0  0  0  0  0  0
  142.2205   76.1321  217.8637 H   0  0  0  0  0  0  0  0  0  0  0  0
  142.3452   77.8033  218.2652 H   0  0  0  0  0  0  0  0  0  0  0  0
  143.1771   76.2184  220.3221 H   0  0  0  0  0  0  0  0  0  0  0  0
  141.5980   76.3460  222.6910 H   0  0  0  0  0  0  0  0  0  0  0  0
  140.9671   78.0244  224.2026 H   0  0  0  0  0  0  0  0  0  0  0  0
  142.2430   79.5855  221.9520 H   0  0  0  0  0  0  0  0  0  0  0  0
  142.8163   79.2713  223.6680 H   0  0  0  0  0  0  0  0  0  0  0  0
  142.0847   81.6112  223.0246 H   0  0  0  0  0  0  0  0  0  0  0  0
  141.4492   80.7987  224.5584 H   0  0  0  0  0  0  0  0  0  0  0  0
  140.0354   82.1344  222.6022 H   0  0  0  0  0  0  0  0  0  0  0  0
  135.0251   79.5262  224.3960 H   0  0  0  0  0  0  0  0  0  0  0  0
  134.1061   81.4594  223.1323 H   0  0  0  0  0  0  0  0  0  0  0  0
  135.6073   83.3172  222.3672 H   0  0  0  0  0  0  0  0  0  0  0  0
  140.1889   80.0779  221.2208 H   0  0  0  0  0  0  0  0  0  0  0  0
  138.5191   80.3445  221.7666 H   0  0  0  0  0  0  0  0  0  0  0  0
  139.1210   78.0099  222.1815 H   0  0  0  0  0  0  0  0  0  0  0  0
  139.0160   78.8780  223.7680 H   0  0  0  0  0  0  0  0  0  0  0  0
  138.7329   69.2499  222.8898 H   0  0  0  0  0  0  0  0  0  0  0  0
  138.9793   67.6867  224.8078 H   0  0  0  0  0  0  0  0  0  0  0  0
  139.7008   67.2907  227.0095 H   0  0  0  0  0  0  0  0  0  0  0  0
  141.5650   70.4925  229.2372 H   0  0  0  0  0  0  0  0  0  0  0  0
  141.3011   72.0084  227.2993 H   0  0  0  0  0  0  0  0  0  0  0  0
  1  2  2  0
  2  3  1  0
  3  4  1  0
  4  5  1  0
  5  6  2  0
  5  7  1  0
  7  8  1  0
  8  9  1  0
  9 10  1  0
 10 11  1  0
 11 12  1  0
 12 13  2  0
 12 14  1  0
 14 15  1  0
 15 16  1  0
 16 17  1  0
 17 18  1  0
 18 19  1  0
 19 20  1  0
 20 21  2  0
 21 22  1  0
 22 23  2  0
 23 24  1  0
 24 25  2  0
 18 26  1  0
 26 27  1  0
  2 28  1  0
 28 29  2  0
 29 30  1  0
 30 31  2  0
 31 32  1  0
 32 33  2  0
 33 34  1  0
 33 35  1  0
 35 36  2  0
 36 37  1  0
 37 38  2  0
 11  7  1  0
 27 15  1  0
 38 28  1  0
 25 20  1  0
 37 31  1  0
  3 39  1  0
  4 40  1  0
  4 41  1  0
  8 42  1  0
  8 43  1  0
  9 44  1  0
  9 45  1  0
 10 46  1  0
 10 47  1  0
 11 48  1  6
 14 49  1  0
 15 50  1  1
 16 51  1  0
 16 52  1  0
 17 53  1  0
 17 54  1  0
 18 55  1  6
 22 56  1  0
 23 57  1  0
 24 58  1  0
 26 59  1  0
 26 60  1  0
 27 61  1  0
 27 62  1  0
 29 63  1  0
 30 64  1  0
 32 65  1  0
 35 66  1  0
 36 67  1  0
M  END
