
     RDKit          3D

 73 78  0  0  0  0  0  0  0  0999 V2000
  138.1230   69.9540  224.9710 C   0  0  0  0  0  0  0  0  0  0  0  0
  139.4470   69.4240  225.0160 N   0  0  0  0  0  0  0  0  0  0  0  0
  140.4300   70.2350  225.6580 C   0  0  0  0  0  0  0  0  0  0  0  0
  140.7510   71.5260  224.9520 C   0  0  0  0  0  0  0  0  0  0  0  0
  140.3000   71.5390  223.5900 N   0  0  0  0  0  0  0  0  0  0  0  0
  140.9050   72.2580  222.5370 C   0  0  0  0  0  0  0  0  0  0  0  0
  141.7130   71.5870  221.6980 N   0  0  0  0  0  0  0  0  0  0  0  0
  142.3100   72.2330  220.6720 C   0  0  0  0  0  0  0  0  0  0  0  0
  143.1760   71.4840  219.8020 N   0  0  0  0  0  0  0  0  0  0  0  0
  144.4640   72.0660  219.5240 C   0  0  0  0  0  0  0  0  0  0  0  0
  145.3000   71.2040  218.6140 C   0  0  0  0  0  0  0  0  0  0  0  0
  145.1880   69.7640  218.9550 C   0  0  0  0  0  0  0  0  0  0  0  0
  146.2970   68.9460  218.9520 C   0  0  0  0  0  0  0  0  0  0  0  0
  146.1510   67.6150  219.2750 C   0  0  0  0  0  0  0  0  0  0  0  0
  144.8910   67.1010  219.6010 C   0  0  0  0  0  0  0  0  0  0  0  0
  143.8130   67.9660  219.5870 C   0  0  0  0  0  0  0  0  0  0  0  0
  143.9180   69.3030  219.2700 C   0  0  0  0  0  0  0  0  0  0  0  0
  142.7260   70.2150  219.2640 C   0  0  0  0  0  0  0  0  0  0  0  0
  142.1010   73.5520  220.4780 N   0  0  0  0  0  0  0  0  0  0  0  0
  141.2840   74.2520  221.3200 C   0  0  0  0  0  0  0  0  0  0  0  0
  141.0400   75.6420  221.1530 N   0  0  0  0  0  0  0  0  0  0  0  0
  140.1910   76.3550  222.0870 C   0  0  0  0  0  0  0  0  0  0  0  0
  140.9040   77.5570  222.6720 C   0  0  0  0  0  0  0  0  0  0  0  0
  141.3270   78.3870  221.5070 C   0  0  0  0  0  0  0  0  0  0  0  0
  141.3780   79.7770  221.6550 C   0  0  0  0  0  0  0  0  0  0  0  0
  141.7690   80.5600  220.5780 C   0  0  0  0  0  0  0  0  0  0  0  0
  142.1120   80.0130  219.3530 C   0  0  0  0  0  0  0  0  0  0  0  0
  142.0530   78.6290  219.2300 C   0  0  0  0  0  0  0  0  0  0  0  0
  141.6650   77.8180  220.2930 C   0  0  0  0  0  0  0  0  0  0  0  0
  141.6390   76.3570  220.0450 C   0  0  0  0  0  0  0  0  0  0  0  0
  140.7010   73.5840  222.3360 N   0  0  0  0  0  0  0  0  0  0  0  0
  139.9620   70.5690  227.0560 C   0  0  0  0  0  0  0  0  0  0  0  0
  139.5790   69.3020  227.7730 C   0  0  0  0  0  0  0  0  0  0  0  0
  140.7620   68.3750  227.8070 C   0  0  0  0  0  0  0  0  0  0  0  0
  141.2930   68.1060  226.4220 C   0  0  0  0  0  0  0  0  0  0  0  0
  141.7110   69.4350  225.8180 C   0  0  0  0  0  0  0  0  0  0  0  0
  137.7524   70.1024  225.9960 H   0  0  0  0  0  0  0  0  0  0  0  0
  138.1317   70.9179  224.4411 H   0  0  0  0  0  0  0  0  0  0  0  0
  137.4642   69.2503  224.4411 H   0  0  0  0  0  0  0  0  0  0  0  0
  139.4770   68.4150  225.2960 H   0  0  0  0  0  0  0  0  0  0  0  0
  140.2652   72.3524  225.4915 H   0  0  0  0  0  0  0  0  0  0  0  0
  141.8455   71.6354  224.9407 H   0  0  0  0  0  0  0  0  0  0  0  0
  139.4560   70.9710  223.3560 H   0  0  0  0  0  0  0  0  0  0  0  0
  144.3134   73.0441  219.0438 H   0  0  0  0  0  0  0  0  0  0  0  0
  145.0007   72.1640  220.4792 H   0  0  0  0  0  0  0  0  0  0  0  0
  144.9629   71.3508  217.5773 H   0  0  0  0  0  0  0  0  0  0  0  0
  146.3520   71.5013  218.7361 H   0  0  0  0  0  0  0  0  0  0  0  0
  147.2868   69.3511  218.6948 H   0  0  0  0  0  0  0  0  0  0  0  0
  147.0293   66.9528  219.2767 H   0  0  0  0  0  0  0  0  0  0  0  0
  144.7622   66.0399  219.8607 H   0  0  0  0  0  0  0  0  0  0  0  0
  142.8203   67.5667  219.8420 H   0  0  0  0  0  0  0  0  0  0  0  0
  142.3543   70.3479  218.2373 H   0  0  0  0  0  0  0  0  0  0  0  0
  141.9031   69.7982  219.8633 H   0  0  0  0  0  0  0  0  0  0  0  0
  139.2868   76.6956  221.5612 H   0  0  0  0  0  0  0  0  0  0  0  0
  139.9294   75.6725  222.9091 H   0  0  0  0  0  0  0  0  0  0  0  0
  140.2234   78.1272  223.3213 H   0  0  0  0  0  0  0  0  0  0  0  0
  141.7644   77.2565  223.2879 H   0  0  0  0  0  0  0  0  0  0  0  0
  141.1112   80.2443  222.6144 H   0  0  0  0  0  0  0  0  0  0  0  0
  141.8078   81.6523  220.7017 H   0  0  0  0  0  0  0  0  0  0  0  0
  142.4193   80.6488  218.5096 H   0  0  0  0  0  0  0  0  0  0  0  0
  142.3194   78.1638  218.2695 H   0  0  0  0  0  0  0  0  0  0  0  0
  141.0549   76.1592  219.1341 H   0  0  0  0  0  0  0  0  0  0  0  0
  142.6756   76.0078  219.9284 H   0  0  0  0  0  0  0  0  0  0  0  0
  140.7734   71.0697  227.6045 H   0  0  0  0  0  0  0  0  0  0  0  0
  139.0899   71.2371  227.0009 H   0  0  0  0  0  0  0  0  0  0  0  0
  139.2691   69.5406  228.8011 H   0  0  0  0  0  0  0  0  0  0  0  0
  138.7449   68.8168  227.2449 H   0  0  0  0  0  0  0  0  0  0  0  0
  141.5580   68.8333  228.4122 H   0  0  0  0  0  0  0  0  0  0  0  0
  140.4388   67.4189  228.2445 H   0  0  0  0  0  0  0  0  0  0  0  0
  142.1601   67.4315  226.4783 H   0  0  0  0  0  0  0  0  0  0  0  0
  140.5210   67.6280  225.8010 H   0  0  0  0  0  0  0  0  0  0  0  0
  142.4088   69.9583  226.4882 H   0  0  0  0  0  0  0  0  0  0  0  0
  142.2276   69.2993  224.8564 H   0  0  0  0  0  0  0  0  0  0  0  0
  1  2  1  0
  2  3  1  0
  3  4  1  0
  4  5  1  0
  5  6  1  0
  6  7  2  0
  7  8  1  0
  8  9  1  0
  9 10  1  0
 10 11  1  0
 11 12  1  0
 12 13  2  0
 13 14  1  0
 14 15  2  0
 15 16  1  0
 16 17  2  0
 17 18  1  0
  8 19  2  0
 19 20  1  0
 20 21  1  0
 21 22  1  0
 22 23  1  0
 23 24  1  0
 24 25  2  0
 25 26  1  0
 26 27  2  0
 27 28  1  0
 28 29  2  0
 29 30  1  0
 20 31  2  0
  3 32  1  0
 32 33  1  0
 33 34  1  0
 34 35  1  0
 35 36  1  0
 36  3  1  0
 31  6  1  0
 18  9  1  0
 30 21  1  0
 17 12  1  0
 29 24  1  0
  1 37  1  0
  1 38  1  0
  1 39  1  0
  2 40  1  0
  4 41  1  0
  4 42  1  0
  5 43  1  0
 10 44  1  0
 10 45  1  0
 11 46  1  0
 11 47  1  0
 13 48  1  0
 14 49  1  0
 15 50  1  0
 16 51  1  0
 18 52  1  0
 18 53  1  0
 22 54  1  0
 22 55  1  0
 23 56  1  0
 23 57  1  0
 25 58  1  0
 26 59  1  0
 27 60  1  0
 28 61  1  0
 30 62  1  0
 30 63  1  0
 32 64  1  0
 32 65  1  0
 33 66  1  0
 33 67  1  0
 34 68  1  0
 34 69  1  0
 35 70  1  0
 35 71  1  0
 36 72  1  0
 36 73  1  0
M  END
>  <smiles>  (1) 
CNC1(CNc2nc(N3CCc4ccccc4C3)nc(N3CCc4ccccc4C3)n2)CCCCC1

>  <score_type>  (1) 
oracle

>  <origin>  (1) 
autodockgpu

>  <m_score__min__energy>  (1) 
-10.869999999999999

>  <m_primary>  (1) 
energy

>  <rmsd>  (1) 
10.964461351755952

>  <m_score__min__rmsd>  (1) 
10.964461351755952

>  <meeko>  (1) 
{"free_energy": -9.4, "intermolecular_energy": -11.19, "internal_energy": -1.52, "cluster_size": 2, "cluster_id": 4, "rank_in_cluster": 2}

>  <energy>  (1) 
-10.87

>  <cluster_rmsd>  (1) 
0.0

>  <cluster>  (1) 
1

$$$$

     RDKit          3D

 73 78  0  0  0  0  0  0  0  0999 V2000
  138.0410   69.6350  225.2950 C   0  0  0  0  0  0  0  0  0  0  0  0
  139.3640   69.1050  225.3730 N   0  0  0  0  0  0  0  0  0  0  0  0
  140.3470   69.9500  225.9680 C   0  0  0  0  0  0  0  0  0  0  0  0
  140.6140   71.2350  225.2290 C   0  0  0  0  0  0  0  0  0  0  0  0
  140.2050   71.1790  223.8550 N   0  0  0  0  0  0  0  0  0  0  0  0
  140.6540   72.0440  222.8340 C   0  0  0  0  0  0  0  0  0  0  0  0
  141.5340   71.5630  221.9400 N   0  0  0  0  0  0  0  0  0  0  0  0
  141.9880   72.3540  220.9430 C   0  0  0  0  0  0  0  0  0  0  0  0
  142.9370   71.8060  220.0120 N   0  0  0  0  0  0  0  0  0  0  0  0
  144.1710   72.5340  219.8520 C   0  0  0  0  0  0  0  0  0  0  0  0
  145.1020   71.8770  218.8660 C   0  0  0  0  0  0  0  0  0  0  0  0
  145.1190   70.4010  219.0160 C   0  0  0  0  0  0  0  0  0  0  0  0
  146.3000   69.6950  218.9440 C   0  0  0  0  0  0  0  0  0  0  0  0
  146.2730   68.3250  219.0900 C   0  0  0  0  0  0  0  0  0  0  0  0
  145.0620   67.6600  219.3070 C   0  0  0  0  0  0  0  0  0  0  0  0
  143.9070   68.4180  219.3700 C   0  0  0  0  0  0  0  0  0  0  0  0
  143.8920   69.7890  219.2290 C   0  0  0  0  0  0  0  0  0  0  0  0
  142.6200   70.5820  219.3020 C   0  0  0  0  0  0  0  0  0  0  0  0
  141.5620   73.6290  220.8320 N   0  0  0  0  0  0  0  0  0  0  0  0
  140.6680   74.1390  221.7310 C   0  0  0  0  0  0  0  0  0  0  0  0
  140.1960   75.4760  221.6520 N   0  0  0  0  0  0  0  0  0  0  0  0
  138.8260   75.7490  221.2630 C   0  0  0  0  0  0  0  0  0  0  0  0
  138.1210   76.6070  222.2940 C   0  0  0  0  0  0  0  0  0  0  0  0
  138.9520   77.8380  222.4360 C   0  0  0  0  0  0  0  0  0  0  0  0
  138.3150   79.0480  222.7350 C   0  0  0  0  0  0  0  0  0  0  0  0
  139.0760   80.2000  222.8670 C   0  0  0  0  0  0  0  0  0  0  0  0
  140.4520   80.1990  222.7140 C   0  0  0  0  0  0  0  0  0  0  0  0
  141.0620   78.9850  222.4170 C   0  0  0  0  0  0  0  0  0  0  0  0
  140.3250   77.8130  222.2780 C   0  0  0  0  0  0  0  0  0  0  0  0
  141.0840   76.5790  221.9600 C   0  0  0  0  0  0  0  0  0  0  0  0
  140.2320   73.3280  222.7170 N   0  0  0  0  0  0  0  0  0  0  0  0
  139.9170   70.2990  227.3750 C   0  0  0  0  0  0  0  0  0  0  0  0
  139.5880   69.0370  228.1250 C   0  0  0  0  0  0  0  0  0  0  0  0
  140.7940   68.1380  228.1360 C   0  0  0  0  0  0  0  0  0  0  0  0
  141.2850   67.8560  226.7400 C   0  0  0  0  0  0  0  0  0  0  0  0
  141.6510   69.1830  226.0990 C   0  0  0  0  0  0  0  0  0  0  0  0
  137.6485   69.7922  226.3105 H   0  0  0  0  0  0  0  0  0  0  0  0
  138.0614   70.5943  224.7572 H   0  0  0  0  0  0  0  0  0  0  0  0
  137.3934   68.9269  224.7572 H   0  0  0  0  0  0  0  0  0  0  0  0
  139.3910   68.1150  225.7120 H   0  0  0  0  0  0  0  0  0  0  0  0
  140.0648   72.0478  225.7268 H   0  0  0  0  0  0  0  0  0  0  0  0
  141.7002   71.4081  225.2455 H   0  0  0  0  0  0  0  0  0  0  0  0
  139.5210   70.4380  223.5850 H   0  0  0  0  0  0  0  0  0  0  0  0
  143.9389   73.5488  219.4965 H   0  0  0  0  0  0  0  0  0  0  0  0
  144.6771   72.5548  220.8285 H   0  0  0  0  0  0  0  0  0  0  0  0
  144.7731   72.1266  217.8464 H   0  0  0  0  0  0  0  0  0  0  0  0
  146.1188   72.2498  219.0585 H   0  0  0  0  0  0  0  0  0  0  0  0
  147.2522   70.2182  218.7722 H   0  0  0  0  0  0  0  0  0  0  0  0
  147.2097   67.7509  219.0355 H   0  0  0  0  0  0  0  0  0  0  0  0
  145.0292   66.5667  219.4241 H   0  0  0  0  0  0  0  0  0  0  0  0
  142.9516   67.9004  219.5413 H   0  0  0  0  0  0  0  0  0  0  0  0
  142.2579   70.8132  218.2894 H   0  0  0  0  0  0  0  0  0  0  0  0
  141.8287   70.0174  219.8169 H   0  0  0  0  0  0  0  0  0  0  0  0
  138.8260   76.2763  220.2976 H   0  0  0  0  0  0  0  0  0  0  0  0
  138.2904   74.7915  221.1836 H   0  0  0  0  0  0  0  0  0  0  0  0
  137.1089   76.8658  221.9494 H   0  0  0  0  0  0  0  0  0  0  0  0
  138.0120   76.0795  223.2531 H   0  0  0  0  0  0  0  0  0  0  0  0
  137.2232   79.0848  222.8638 H   0  0  0  0  0  0  0  0  0  0  0  0
  138.5686   81.1474  223.1014 H   0  0  0  0  0  0  0  0  0  0  0  0
  141.0398   81.1223  222.8231 H   0  0  0  0  0  0  0  0  0  0  0  0
  142.1540   78.9505  222.2888 H   0  0  0  0  0  0  0  0  0  0  0  0
  141.7310   76.7708  221.0913 H   0  0  0  0  0  0  0  0  0  0  0  0
  141.6835   76.3050  222.8407 H   0  0  0  0  0  0  0  0  0  0  0  0
  140.7338   70.8281  227.8877 H   0  0  0  0  0  0  0  0  0  0  0  0
  139.0283   70.9462  227.3375 H   0  0  0  0  0  0  0  0  0  0  0  0
  139.3059   69.2864  229.1585 H   0  0  0  0  0  0  0  0  0  0  0  0
  138.7492   68.5232  227.6327 H   0  0  0  0  0  0  0  0  0  0  0  0
  141.5983   68.6259  228.7061 H   0  0  0  0  0  0  0  0  0  0  0  0
  140.5083   67.1829  228.6010 H   0  0  0  0  0  0  0  0  0  0  0  0
  142.1694   67.2030  226.7793 H   0  0  0  0  0  0  0  0  0  0  0  0
  140.5047   67.3487  226.1537 H   0  0  0  0  0  0  0  0  0  0  0  0
  142.3580   69.7346  226.7361 H   0  0  0  0  0  0  0  0  0  0  0  0
  142.1384   69.0415  225.1231 H   0  0  0  0  0  0  0  0  0  0  0  0
  1  2  1  0
  2  3  1  0
  3  4  1  0
  4  5  1  0
  5  6  1  0
  6  7  2  0
  7  8  1  0
  8  9  1  0
  9 10  1  0
 10 11  1  0
 11 12  1  0
 12 13  2  0
 13 14  1  0
 14 15  2  0
 15 16  1  0
 16 17  2  0
 17 18  1  0
  8 19  2  0
 19 20  1  0
 20 21  1  0
 21 22  1  0
 22 23  1  0
 23 24  1  0
 24 25  2  0
 25 26  1  0
 26 27  2  0
 27 28  1  0
 28 29  2  0
 29 30  1  0
 20 31  2  0
  3 32  1  0
 32 33  1  0
 33 34  1  0
 34 35  1  0
 35 36  1  0
 36  3  1  0
 31  6  1  0
 18  9  1  0
 30 21  1  0
 17 12  1  0
 29 24  1  0
  1 37  1  0
  1 38  1  0
  1 39  1  0
  2 40  1  0
  4 41  1  0
  4 42  1  0
  5 43  1  0
 10 44  1  0
 10 45  1  0
 11 46  1  0
 11 47  1  0
 13 48  1  0
 14 49  1  0
 15 50  1  0
 16 51  1  0
 18 52  1  0
 18 53  1  0
 22 54  1  0
 22 55  1  0
 23 56  1  0
 23 57  1  0
 25 58  1  0
 26 59  1  0
 27 60  1  0
 28 61  1  0
 30 62  1  0
 30 63  1  0
 32 64  1  0
 32 65  1  0
 33 66  1  0
 33 67  1  0
 34 68  1  0
 34 69  1  0
 35 70  1  0
 35 71  1  0
 36 72  1  0
 36 73  1  0
M  END
>  <smiles>  (2) 
CNC1(CNc2nc(N3CCc4ccccc4C3)nc(N3CCc4ccccc4C3)n2)CCCCC1

>  <score_type>  (2) 
oracle

>  <origin>  (2) 
autodockgpu

>  <m_score__min__energy>  (2) 
-10.869999999999999

>  <m_primary>  (2) 
energy

>  <rmsd>  (2) 
10.513239732318608

>  <m_score__min__rmsd>  (2) 
10.513239732318608

>  <meeko>  (2) 
{"free_energy": -9.42, "intermolecular_energy": -11.21, "internal_energy": -1.55, "cluster_size": 2, "cluster_id": 4, "rank_in_cluster": 1}

>  <energy>  (2) 
-10.78

>  <cluster_rmsd>  (2) 
0.7

>  <cluster>  (2) 
1

$$$$

     RDKit          3D

 73 78  0  0  0  0  0  0  0  0999 V2000
  146.0730   73.3170  220.6250 C   0  0  0  0  0  0  0  0  0  0  0  0
  145.9500   73.0110  219.2370 N   0  0  0  0  0  0  0  0  0  0  0  0
  144.7040   72.4530  218.8220 C   0  0  0  0  0  0  0  0  0  0  0  0
  143.8870   71.8290  219.9230 C   0  0  0  0  0  0  0  0  0  0  0  0
  142.4820   72.0830  219.7820 N   0  0  0  0  0  0  0  0  0  0  0  0
  141.6330   72.5600  220.8030 C   0  0  0  0  0  0  0  0  0  0  0  0
  141.2640   73.8520  220.7640 N   0  0  0  0  0  0  0  0  0  0  0  0
  140.4470   74.3520  221.7180 C   0  0  0  0  0  0  0  0  0  0  0  0
  140.0840   75.7410  221.6500 N   0  0  0  0  0  0  0  0  0  0  0  0
  138.7220   76.0660  221.9900 C   0  0  0  0  0  0  0  0  0  0  0  0
  138.4430   77.5430  221.8980 C   0  0  0  0  0  0  0  0  0  0  0  0
  139.5610   78.3560  222.4350 C   0  0  0  0  0  0  0  0  0  0  0  0
  139.3210   79.4650  223.2160 C   0  0  0  0  0  0  0  0  0  0  0  0
  140.3870   80.1920  223.6980 C   0  0  0  0  0  0  0  0  0  0  0  0
  141.6980   79.8090  223.3960 C   0  0  0  0  0  0  0  0  0  0  0  0
  141.8820   78.6870  222.6080 C   0  0  0  0  0  0  0  0  0  0  0  0
  140.8410   77.9340  222.1080 C   0  0  0  0  0  0  0  0  0  0  0  0
  141.0770   76.7220  221.2550 C   0  0  0  0  0  0  0  0  0  0  0  0
  139.9940   73.5630  222.7150 N   0  0  0  0  0  0  0  0  0  0  0  0
  140.3580   72.2470  222.7730 C   0  0  0  0  0  0  0  0  0  0  0  0
  139.9050   71.3840  223.8050 N   0  0  0  0  0  0  0  0  0  0  0  0
  138.8030   70.4710  223.5680 C   0  0  0  0  0  0  0  0  0  0  0  0
  139.1890   69.0440  223.8960 C   0  0  0  0  0  0  0  0  0  0  0  0
  139.6450   69.0620  225.3170 C   0  0  0  0  0  0  0  0  0  0  0  0
  139.4270   67.9280  226.1070 C   0  0  0  0  0  0  0  0  0  0  0  0
  139.8450   67.9330  227.4300 C   0  0  0  0  0  0  0  0  0  0  0  0
  140.4750   69.0260  228.0020 C   0  0  0  0  0  0  0  0  0  0  0  0
  140.6800   70.1410  227.1970 C   0  0  0  0  0  0  0  0  0  0  0  0
  140.2710   70.1650  225.8660 C   0  0  0  0  0  0  0  0  0  0  0  0
  140.5430   71.4080  225.1060 C   0  0  0  0  0  0  0  0  0  0  0  0
  141.1740   71.7740  221.8080 N   0  0  0  0  0  0  0  0  0  0  0  0
  143.8680   73.5340  218.1730 C   0  0  0  0  0  0  0  0  0  0  0  0
  144.6760   74.2170  217.1030 C   0  0  0  0  0  0  0  0  0  0  0  0
  145.1210   73.1970  216.0910 C   0  0  0  0  0  0  0  0  0  0  0  0
  145.8790   72.0690  216.7410 C   0  0  0  0  0  0  0  0  0  0  0  0
  144.9560   71.4090  217.7500 C   0  0  0  0  0  0  0  0  0  0  0  0
  145.7283   72.4594  221.2215 H   0  0  0  0  0  0  0  0  0  0  0  0
  147.1261   73.5288  220.8619 H   0  0  0  0  0  0  0  0  0  0  0  0
  145.4594   74.1987  220.8619 H   0  0  0  0  0  0  0  0  0  0  0  0
  146.3030   73.7750  218.6140 H   0  0  0  0  0  0  0  0  0  0  0  0
  144.0510   70.7414  219.9098 H   0  0  0  0  0  0  0  0  0  0  0  0
  144.2120   72.2779  220.8732 H   0  0  0  0  0  0  0  0  0  0  0  0
  142.0510   71.9020  218.8490 H   0  0  0  0  0  0  0  0  0  0  0  0
  138.0496   75.5360  221.2994 H   0  0  0  0  0  0  0  0  0  0  0  0
  138.5544   75.7578  223.0326 H   0  0  0  0  0  0  0  0  0  0  0  0
  138.2858   77.8093  220.8423 H   0  0  0  0  0  0  0  0  0  0  0  0
  137.5482   77.7571  222.5009 H   0  0  0  0  0  0  0  0  0  0  0  0
  138.2898   79.7666  223.4521 H   0  0  0  0  0  0  0  0  0  0  0  0
  140.2064   81.0785  224.3237 H   0  0  0  0  0  0  0  0  0  0  0  0
  142.5570   80.3829  223.7738 H   0  0  0  0  0  0  0  0  0  0  0  0
  142.9108   78.3802  222.3683 H   0  0  0  0  0  0  0  0  0  0  0  0
  140.9577   76.9766  220.1915 H   0  0  0  0  0  0  0  0  0  0  0  0
  142.0968   76.3326  221.3904 H   0  0  0  0  0  0  0  0  0  0  0  0
  137.9517   70.7658  224.1991 H   0  0  0  0  0  0  0  0  0  0  0  0
  138.5341   70.5213  222.5025 H   0  0  0  0  0  0  0  0  0  0  0  0
  138.3223   68.3766  223.7804 H   0  0  0  0  0  0  0  0  0  0  0  0
  139.9760   68.6728  223.2231 H   0  0  0  0  0  0  0  0  0  0  0  0
  138.9299   67.0426  225.6840 H   0  0  0  0  0  0  0  0  0  0  0  0
  139.6701   67.0384  228.0457 H   0  0  0  0  0  0  0  0  0  0  0  0
  140.8006   69.0124  229.0526 H   0  0  0  0  0  0  0  0  0  0  0  0
  141.1772   71.0255  227.6217 H   0  0  0  0  0  0  0  0  0  0  0  0
  140.1600   72.2670  225.6764 H   0  0  0  0  0  0  0  0  0  0  0  0
  141.6296   71.4910  224.9566 H   0  0  0  0  0  0  0  0  0  0  0  0
  142.9706   73.0837  217.7238 H   0  0  0  0  0  0  0  0  0  0  0  0
  143.5670   74.2708  218.9323 H   0  0  0  0  0  0  0  0  0  0  0  0
  144.0590   74.9814  216.6079 H   0  0  0  0  0  0  0  0  0  0  0  0
  145.5565   74.6969  217.5551 H   0  0  0  0  0  0  0  0  0  0  0  0
  144.2354   72.7869  215.5836 H   0  0  0  0  0  0  0  0  0  0  0  0
  145.7896   73.6930  215.3719 H   0  0  0  0  0  0  0  0  0  0  0  0
  146.1855   71.3367  215.9796 H   0  0  0  0  0  0  0  0  0  0  0  0
  146.7823   72.4506  217.2393 H   0  0  0  0  0  0  0  0  0  0  0  0
  144.0104   71.1161  217.2703 H   0  0  0  0  0  0  0  0  0  0  0  0
  145.4017   70.4954  218.1704 H   0  0  0  0  0  0  0  0  0  0  0  0
  1  2  1  0
  2  3  1  0
  3  4  1  0
  4  5  1  0
  5  6  1  0
  6  7  2  0
  7  8  1  0
  8  9  1  0
  9 10  1  0
 10 11  1  0
 11 12  1  0
 12 13  2  0
 13 14  1  0
 14 15  2  0
 15 16  1  0
 16 17  2  0
 17 18  1  0
  8 19  2  0
 19 20  1  0
 20 21  1  0
 21 22  1  0
 22 23  1  0
 23 24  1  0
 24 25  2  0
 25 26  1  0
 26 27  2  0
 27 28  1  0
 28 29  2  0
 29 30  1  0
 20 31  2  0
  3 32  1  0
 32 33  1  0
 33 34  1  0
 34 35  1  0
 35 36  1  0
 36  3  1  0
 31  6  1  0
 18  9  1  0
 30 21  1  0
 17 12  1  0
 29 24  1  0
  1 37  1  0
  1 38  1  0
  1 39  1  0
  2 40  1  0
  4 41  1  0
  4 42  1  0
  5 43  1  0
 10 44  1  0
 10 45  1  0
 11 46  1  0
 11 47  1  0
 13 48  1  0
 14 49  1  0
 15 50  1  0
 16 51  1  0
 18 52  1  0
 18 53  1  0
 22 54  1  0
 22 55  1  0
 23 56  1  0
 23 57  1  0
 25 58  1  0
 26 59  1  0
 27 60  1  0
 28 61  1  0
 30 62  1  0
 30 63  1  0
 32 64  1  0
 32 65  1  0
 33 66  1  0
 33 67  1  0
 34 68  1  0
 34 69  1  0
 35 70  1  0
 35 71  1  0
 36 72  1  0
 36 73  1  0
M  END
>  <smiles>  (3) 
CNC1(CNc2nc(N3CCc4ccccc4C3)nc(N3CCc4ccccc4C3)n2)CCCCC1

>  <score_type>  (3) 
oracle

>  <origin>  (3) 
autodockgpu

>  <m_score__min__energy>  (3) 
-10.869999999999999

>  <m_primary>  (3) 
energy

>  <rmsd>  (3) 
5.0871562472172425

>  <m_score__min__rmsd>  (3) 
5.0871562472172425

>  <meeko>  (3) 
{"free_energy": -10.61, "intermolecular_energy": -12.4, "internal_energy": -1.15, "cluster_size": 29, "cluster_id": 1, "rank_in_cluster": 5}

>  <energy>  (3) 
-10.77

>  <cluster_rmsd>  (3) 
0.64

>  <cluster>  (3) 
1

$$$$

     RDKit          3D

 73 78  0  0  0  0  0  0  0  0999 V2000
  145.9810   73.3780  220.0190 C   0  0  0  0  0  0  0  0  0  0  0  0
  144.8420   73.8350  219.2900 N   0  0  0  0  0  0  0  0  0  0  0  0
  144.2500   72.8980  218.3930 C   0  0  0  0  0  0  0  0  0  0  0  0
  143.9740   71.5390  218.9810 C   0  0  0  0  0  0  0  0  0  0  0  0
  143.7590   71.5820  220.4000 N   0  0  0  0  0  0  0  0  0  0  0  0
  142.7010   72.2580  221.0440 C   0  0  0  0  0  0  0  0  0  0  0  0
  141.9520   71.5660  221.9210 N   0  0  0  0  0  0  0  0  0  0  0  0
  140.9320   72.1740  222.5660 C   0  0  0  0  0  0  0  0  0  0  0  0
  140.1460   71.3980  223.4870 N   0  0  0  0  0  0  0  0  0  0  0  0
  139.2180   70.4610  222.9070 C   0  0  0  0  0  0  0  0  0  0  0  0
  138.4510   69.6910  223.9510 C   0  0  0  0  0  0  0  0  0  0  0  0
  139.3130   69.2840  225.0880 C   0  0  0  0  0  0  0  0  0  0  0  0
  139.2020   68.0300  225.6470 C   0  0  0  0  0  0  0  0  0  0  0  0
  140.0230   67.6890  226.7000 C   0  0  0  0  0  0  0  0  0  0  0  0
  140.9560   68.6070  227.1950 C   0  0  0  0  0  0  0  0  0  0  0  0
  141.0240   69.8510  226.5960 C   0  0  0  0  0  0  0  0  0  0  0  0
  140.2210   70.2290  225.5410 C   0  0  0  0  0  0  0  0  0  0  0  0
  140.3210   71.5890  224.9140 C   0  0  0  0  0  0  0  0  0  0  0  0
  140.6560   73.4750  222.3400 N   0  0  0  0  0  0  0  0  0  0  0  0
  141.4040   74.1950  221.4530 C   0  0  0  0  0  0  0  0  0  0  0  0
  141.1460   75.5660  221.1850 N   0  0  0  0  0  0  0  0  0  0  0  0
  140.2840   76.3350  222.0620 C   0  0  0  0  0  0  0  0  0  0  0  0
  140.9800   77.5840  222.5620 C   0  0  0  0  0  0  0  0  0  0  0  0
  141.4010   78.3320  221.3420 C   0  0  0  0  0  0  0  0  0  0  0  0
  141.4360   79.7310  221.3900 C   0  0  0  0  0  0  0  0  0  0  0  0
  141.8230   80.4380  220.2610 C   0  0  0  0  0  0  0  0  0  0  0  0
  142.1790   79.8080  219.0800 C   0  0  0  0  0  0  0  0  0  0  0  0
  142.1360   78.4190  219.0570 C   0  0  0  0  0  0  0  0  0  0  0  0
  141.7510   77.6820  220.1730 C   0  0  0  0  0  0  0  0  0  0  0  0
  141.7430   76.2060  220.0310 C   0  0  0  0  0  0  0  0  0  0  0  0
  142.4170   73.5650  220.8220 N   0  0  0  0  0  0  0  0  0  0  0  0
  142.9430   73.4600  217.8800 C   0  0  0  0  0  0  0  0  0  0  0  0
  143.1730   74.8440  217.3350 C   0  0  0  0  0  0  0  0  0  0  0  0
  144.2010   74.7800  216.2390 C   0  0  0  0  0  0  0  0  0  0  0  0
  145.4780   74.1390  216.7170 C   0  0  0  0  0  0  0  0  0  0  0  0
  145.1470   72.7320  217.1800 C   0  0  0  0  0  0  0  0  0  0  0  0
  145.7820   73.4578  221.0979 H   0  0  0  0  0  0  0  0  0  0  0  0
  146.1849   72.3284  219.7604 H   0  0  0  0  0  0  0  0  0  0  0  0
  146.8538   73.9956  219.7604 H   0  0  0  0  0  0  0  0  0  0  0  0
  144.1520   74.3510  219.8860 H   0  0  0  0  0  0  0  0  0  0  0  0
  143.0752   71.1241  218.5014 H   0  0  0  0  0  0  0  0  0  0  0  0
  144.8592   70.9121  218.7981 H   0  0  0  0  0  0  0  0  0  0  0  0
  144.4390   71.0720  221.0060 H   0  0  0  0  0  0  0  0  0  0  0  0
  138.5033   71.0140  222.2798 H   0  0  0  0  0  0  0  0  0  0  0  0
  139.7978   69.7374  222.3152 H   0  0  0  0  0  0  0  0  0  0  0  0
  137.6365   70.3245  224.3321 H   0  0  0  0  0  0  0  0  0  0  0  0
  138.0584   68.7782  223.4791 H   0  0  0  0  0  0  0  0  0  0  0  0
  138.4673   67.3098  225.2578 H   0  0  0  0  0  0  0  0  0  0  0  0
  139.9445   66.6900  227.1537 H   0  0  0  0  0  0  0  0  0  0  0  0
  141.6157   68.3465  228.0358 H   0  0  0  0  0  0  0  0  0  0  0  0
  141.7561   70.5763  226.9807 H   0  0  0  0  0  0  0  0  0  0  0  0
  139.5338   72.2483  225.3086 H   0  0  0  0  0  0  0  0  0  0  0  0
  141.2900   72.0596  225.1366 H   0  0  0  0  0  0  0  0  0  0  0  0
  139.3787   76.6263  221.5092 H   0  0  0  0  0  0  0  0  0  0  0  0
  140.0262   75.7104  222.9300 H   0  0  0  0  0  0  0  0  0  0  0  0
  140.2892   78.1921  223.1645 H   0  0  0  0  0  0  0  0  0  0  0  0
  141.8398   77.3388  223.2028 H   0  0  0  0  0  0  0  0  0  0  0  0
  141.1598   80.2632  222.3122 H   0  0  0  0  0  0  0  0  0  0  0  0
  141.8480   81.5368  220.3052 H   0  0  0  0  0  0  0  0  0  0  0  0
  142.4840   80.3848  218.1944 H   0  0  0  0  0  0  0  0  0  0  0  0
  142.4132   77.8890  218.1338 H   0  0  0  0  0  0  0  0  0  0  0  0
  141.1662   75.9361  219.1341 H   0  0  0  0  0  0  0  0  0  0  0  0
  142.7841   75.8615  219.9448 H   0  0  0  0  0  0  0  0  0  0  0  0
  142.5529   72.8115  217.0817 H   0  0  0  0  0  0  0  0  0  0  0  0
  142.2147   73.5058  218.7031 H   0  0  0  0  0  0  0  0  0  0  0  0
  142.2300   75.2420  216.9320 H   0  0  0  0  0  0  0  0  0  0  0  0
  143.5315   75.5029  218.1396 H   0  0  0  0  0  0  0  0  0  0  0  0
  143.7962   74.1906  215.4031 H   0  0  0  0  0  0  0  0  0  0  0  0
  144.4291   75.8074  215.9191 H   0  0  0  0  0  0  0  0  0  0  0  0
  146.2076   74.1002  215.8947 H   0  0  0  0  0  0  0  0  0  0  0  0
  145.9147   74.7216  217.5415 H   0  0  0  0  0  0  0  0  0  0  0  0
  144.6207   72.1812  216.3865 H   0  0  0  0  0  0  0  0  0  0  0  0
  146.0552   72.1606  217.4223 H   0  0  0  0  0  0  0  0  0  0  0  0
  1  2  1  0
  2  3  1  0
  3  4  1  0
  4  5  1  0
  5  6  1  0
  6  7  2  0
  7  8  1  0
  8  9  1  0
  9 10  1  0
 10 11  1  0
 11 12  1  0
 12 13  2  0
 13 14  1  0
 14 15  2  0
 15 16  1  0
 16 17  2  0
 17 18  1  0
  8 19  2  0
 19 20  1  0
 20 21  1  0
 21 22  1  0
 22 23  1  0
 23 24  1  0
 24 25  2  0
 25 26  1  0
 26 27  2  0
 27 28  1  0
 28 29  2  0
 29 30  1  0
 20 31  2  0
  3 32  1  0
 32 33  1  0
 33 34  1  0
 34 35  1  0
 35 36  1  0
 36  3  1  0
 31  6  1  0
 18  9  1  0
 30 21  1  0
 17 12  1  0
 29 24  1  0
  1 37  1  0
  1 38  1  0
  1 39  1  0
  2 40  1  0
  4 41  1  0
  4 42  1  0
  5 43  1  0
 10 44  1  0
 10 45  1  0
 11 46  1  0
 11 47  1  0
 13 48  1  0
 14 49  1  0
 15 50  1  0
 16 51  1  0
 18 52  1  0
 18 53  1  0
 22 54  1  0
 22 55  1  0
 23 56  1  0
 23 57  1  0
 25 58  1  0
 26 59  1  0
 27 60  1  0
 28 61  1  0
 30 62  1  0
 30 63  1  0
 32 64  1  0
 32 65  1  0
 33 66  1  0
 33 67  1  0
 34 68  1  0
 34 69  1  0
 35 70  1  0
 35 71  1  0
 36 72  1  0
 36 73  1  0
M  END
>  <smiles>  (4) 
CNC1(CNc2nc(N3CCc4ccccc4C3)nc(N3CCc4ccccc4C3)n2)CCCCC1

>  <score_type>  (4) 
oracle

>  <origin>  (4) 
autodockgpu

>  <m_score__min__energy>  (4) 
-10.869999999999999

>  <m_primary>  (4) 
energy

>  <rmsd>  (4) 
11.115502821858131

>  <m_score__min__rmsd>  (4) 
11.115502821858131

>  <meeko>  (4) 
{"free_energy": -8.53, "intermolecular_energy": -10.32, "internal_energy": -2.34, "cluster_size": 29, "cluster_id": 1, "rank_in_cluster": 29}

>  <energy>  (4) 
-10.7

>  <cluster_rmsd>  (4) 
0.82

>  <cluster>  (4) 
1

$$$$

     RDKit          3D

 73 78  0  0  0  0  0  0  0  0999 V2000
  144.9460   72.8690  216.8370 C   0  0  0  0  0  0  0  0  0  0  0  0
  144.6340   73.6820  217.9670 N   0  0  0  0  0  0  0  0  0  0  0  0
  143.8410   73.0730  218.9840 C   0  0  0  0  0  0  0  0  0  0  0  0
  142.4560   72.6650  218.5530 C   0  0  0  0  0  0  0  0  0  0  0  0
  141.7700   71.8950  219.5500 N   0  0  0  0  0  0  0  0  0  0  0  0
  141.0930   72.4260  220.6680 C   0  0  0  0  0  0  0  0  0  0  0  0
  140.7790   73.7330  220.6540 N   0  0  0  0  0  0  0  0  0  0  0  0
  140.1260   74.2830  221.7010 C   0  0  0  0  0  0  0  0  0  0  0  0
  139.8180   75.6870  221.6540 N   0  0  0  0  0  0  0  0  0  0  0  0
  138.4640   76.0580  221.9790 C   0  0  0  0  0  0  0  0  0  0  0  0
  138.2440   77.5470  221.9110 C   0  0  0  0  0  0  0  0  0  0  0  0
  139.3830   78.3050  222.4830 C   0  0  0  0  0  0  0  0  0  0  0  0
  139.1720   79.4070  223.2820 C   0  0  0  0  0  0  0  0  0  0  0  0
  140.2570   80.0830  223.7960 C   0  0  0  0  0  0  0  0  0  0  0  0
  141.5580   79.6540  223.5080 C   0  0  0  0  0  0  0  0  0  0  0  0
  141.7120   78.5420  222.7010 C   0  0  0  0  0  0  0  0  0  0  0  0
  140.6520   77.8400  222.1690 C   0  0  0  0  0  0  0  0  0  0  0  0
  140.8550   76.6360  221.2950 C   0  0  0  0  0  0  0  0  0  0  0  0
  139.7820   73.5310  222.7670 N   0  0  0  0  0  0  0  0  0  0  0  0
  140.0920   72.2010  222.8020 C   0  0  0  0  0  0  0  0  0  0  0  0
  139.7500   71.3750  223.9050 N   0  0  0  0  0  0  0  0  0  0  0  0
  138.6940   70.3870  223.7830 C   0  0  0  0  0  0  0  0  0  0  0  0
  139.1850   69.0060  224.1670 C   0  0  0  0  0  0  0  0  0  0  0  0
  139.7160   69.1350  225.5560 C   0  0  0  0  0  0  0  0  0  0  0  0
  139.6110   68.0380  226.4190 C   0  0  0  0  0  0  0  0  0  0  0  0
  140.1000   68.1450  227.7130 C   0  0  0  0  0  0  0  0  0  0  0  0
  140.6910   69.3050  228.1860 C   0  0  0  0  0  0  0  0  0  0  0  0
  140.7830   70.3800  227.3100 C   0  0  0  0  0  0  0  0  0  0  0  0
  140.3020   70.3030  226.0060 C   0  0  0  0  0  0  0  0  0  0  0  0
  140.4550   71.5130  225.1630 C   0  0  0  0  0  0  0  0  0  0  0  0
  140.7450   71.6760  221.7440 N   0  0  0  0  0  0  0  0  0  0  0  0
  144.5530   71.8420  219.4980 C   0  0  0  0  0  0  0  0  0  0  0  0
  145.9610   72.2040  219.8860 C   0  0  0  0  0  0  0  0  0  0  0  0
  145.9250   73.2840  220.9320 C   0  0  0  0  0  0  0  0  0  0  0  0
  145.1400   74.4820  220.4620 C   0  0  0  0  0  0  0  0  0  0  0  0
  143.7240   74.0210  220.1630 C   0  0  0  0  0  0  0  0  0  0  0  0
  145.3205   71.8931  217.1796 H   0  0  0  0  0  0  0  0  0  0  0  0
  144.0405   72.7217  216.2300 H   0  0  0  0  0  0  0  0  0  0  0  0
  145.7175   73.3653  216.2300 H   0  0  0  0  0  0  0  0  0  0  0  0
  145.4590   74.2150  218.3320 H   0  0  0  0  0  0  0  0  0  0  0  0
  141.8705   73.5727  218.3450 H   0  0  0  0  0  0  0  0  0  0  0  0
  142.5591   72.0334  217.6583 H   0  0  0  0  0  0  0  0  0  0  0  0
  141.7690   70.8560  219.4410 H   0  0  0  0  0  0  0  0  0  0  0  0
  137.7830   75.5675  221.2679 H   0  0  0  0  0  0  0  0  0  0  0  0
  138.2673   75.7369  223.0126 H   0  0  0  0  0  0  0  0  0  0  0  0
  138.1163   77.8391  220.8582 H   0  0  0  0  0  0  0  0  0  0  0  0
  137.3474   77.7847  222.5022 H   0  0  0  0  0  0  0  0  0  0  0  0
  138.1492   79.7434  223.5071 H   0  0  0  0  0  0  0  0  0  0  0  0
  140.1002   80.9640  224.4357 H   0  0  0  0  0  0  0  0  0  0  0  0
  142.4320   80.1859  223.9118 H   0  0  0  0  0  0  0  0  0  0  0  0
  142.7322   78.2003  222.4720 H   0  0  0  0  0  0  0  0  0  0  0  0
  140.7636   76.9160  220.2352 H   0  0  0  0  0  0  0  0  0  0  0  0
  141.8565   76.2043  221.4388 H   0  0  0  0  0  0  0  0  0  0  0  0
  137.8619   70.6684  224.4451 H   0  0  0  0  0  0  0  0  0  0  0  0
  138.3643   70.3590  222.7339 H   0  0  0  0  0  0  0  0  0  0  0  0
  138.3561   68.2833  224.1393 H   0  0  0  0  0  0  0  0  0  0  0  0
  139.9553   68.6421  223.4712 H   0  0  0  0  0  0  0  0  0  0  0  0
  139.1462   67.1021  226.0754 H   0  0  0  0  0  0  0  0  0  0  0  0
  140.0155   67.2792  228.3862 H   0  0  0  0  0  0  0  0  0  0  0  0
  141.0728   69.3727  229.2154 H   0  0  0  0  0  0  0  0  0  0  0  0
  141.2476   71.3152  227.6558 H   0  0  0  0  0  0  0  0  0  0  0  0
  140.0514   72.3804  225.7058 H   0  0  0  0  0  0  0  0  0  0  0  0
  141.5247   71.6503  224.9464 H   0  0  0  0  0  0  0  0  0  0  0  0
  144.0197   71.4496  220.3764 H   0  0  0  0  0  0  0  0  0  0  0  0
  144.5749   71.0746  218.7102 H   0  0  0  0  0  0  0  0  0  0  0  0
  146.4704   71.3170  220.2907 H   0  0  0  0  0  0  0  0  0  0  0  0
  146.5062   72.5650  219.0015 H   0  0  0  0  0  0  0  0  0  0  0  0
  145.4556   72.8840  221.8429 H   0  0  0  0  0  0  0  0  0  0  0  0
  146.9578   73.6050  221.1325 H   0  0  0  0  0  0  0  0  0  0  0  0
  145.1249   75.2514  221.2480 H   0  0  0  0  0  0  0  0  0  0  0  0
  145.6013   74.9147  219.5620 H   0  0  0  0  0  0  0  0  0  0  0  0
  143.2985   73.5000  221.0333 H   0  0  0  0  0  0  0  0  0  0  0  0
  143.0601   74.8687  219.9379 H   0  0  0  0  0  0  0  0  0  0  0  0
  1  2  1  0
  2  3  1  0
  3  4  1  0
  4  5  1  0
  5  6  1  0
  6  7  2  0
  7  8  1  0
  8  9  1  0
  9 10  1  0
 10 11  1  0
 11 12  1  0
 12 13  2  0
 13 14  1  0
 14 15  2  0
 15 16  1  0
 16 17  2  0
 17 18  1  0
  8 19  2  0
 19 20  1  0
 20 21  1  0
 21 22  1  0
 22 23  1  0
 23 24  1  0
 24 25  2  0
 25 26  1  0
 26 27  2  0
 27 28  1  0
 28 29  2  0
 29 30  1  0
 20 31  2  0
  3 32  1  0
 32 33  1  0
 33 34  1  0
 34 35  1  0
 35 36  1  0
 36  3  1  0
 31  6  1  0
 18  9  1  0
 30 21  1  0
 17 12  1  0
 29 24  1  0
  1 37  1  0
  1 38  1  0
  1 39  1  0
  2 40  1  0
  4 41  1  0
  4 42  1  0
  5 43  1  0
 10 44  1  0
 10 45  1  0
 11 46  1  0
 11 47  1  0
 13 48  1  0
 14 49  1  0
 15 50  1  0
 16 51  1  0
 18 52  1  0
 18 53  1  0
 22 54  1  0
 22 55  1  0
 23 56  1  0
 23 57  1  0
 25 58  1  0
 26 59  1  0
 27 60  1  0
 28 61  1  0
 30 62  1  0
 30 63  1  0
 32 64  1  0
 32 65  1  0
 33 66  1  0
 33 67  1  0
 34 68  1  0
 34 69  1  0
 35 70  1  0
 35 71  1  0
 36 72  1  0
 36 73  1  0
M  END
>  <smiles>  (5) 
CNC1(CNc2nc(N3CCc4ccccc4C3)nc(N3CCc4ccccc4C3)n2)CCCCC1

>  <score_type>  (5) 
oracle

>  <origin>  (5) 
autodockgpu

>  <m_score__min__energy>  (5) 
-10.869999999999999

>  <m_primary>  (5) 
energy

>  <rmsd>  (5) 
5.157911368277165

>  <m_score__min__rmsd>  (5) 
5.157911368277165

>  <meeko>  (5) 
{"free_energy": -10.48, "intermolecular_energy": -12.27, "internal_energy": -1.31, "cluster_size": 29, "cluster_id": 1, "rank_in_cluster": 11}

>  <energy>  (5) 
-10.61

>  <cluster_rmsd>  (5) 
0.61

>  <cluster>  (5) 
1

$$$$

     RDKit          3D

 73 78  0  0  0  0  0  0  0  0999 V2000
  141.9780   77.5520  220.2120 C   0  0  0  0  0  0  0  0  0  0  0  0
  140.6730   77.9890  220.5880 N   0  0  0  0  0  0  0  0  0  0  0  0
  140.3280   77.8330  221.9630 C   0  0  0  0  0  0  0  0  0  0  0  0
  140.0420   76.4180  222.3920 C   0  0  0  0  0  0  0  0  0  0  0  0
  140.3450   75.4570  221.3700 N   0  0  0  0  0  0  0  0  0  0  0  0
  140.7390   74.1220  221.5960 C   0  0  0  0  0  0  0  0  0  0  0  0
  141.6430   73.5800  220.7620 N   0  0  0  0  0  0  0  0  0  0  0  0
  142.0530   72.3050  220.9440 C   0  0  0  0  0  0  0  0  0  0  0  0
  143.0130   71.7570  220.0250 N   0  0  0  0  0  0  0  0  0  0  0  0
  144.2640   72.4630  219.9060 C   0  0  0  0  0  0  0  0  0  0  0  0
  145.2040   71.8070  218.9280 C   0  0  0  0  0  0  0  0  0  0  0  0
  145.1890   70.3290  219.0490 C   0  0  0  0  0  0  0  0  0  0  0  0
  146.3580   69.6010  218.9890 C   0  0  0  0  0  0  0  0  0  0  0  0
  146.3020   68.2300  219.1080 C   0  0  0  0  0  0  0  0  0  0  0  0
  145.0730   67.5850  219.2850 C   0  0  0  0  0  0  0  0  0  0  0  0
  143.9320   68.3630  219.3370 C   0  0  0  0  0  0  0  0  0  0  0  0
  143.9470   69.7370  219.2230 C   0  0  0  0  0  0  0  0  0  0  0  0
  142.6890   70.5530  219.2840 C   0  0  0  0  0  0  0  0  0  0  0  0
  141.5640   71.5660  221.9610 N   0  0  0  0  0  0  0  0  0  0  0  0
  140.6440   72.0980  222.8200 C   0  0  0  0  0  0  0  0  0  0  0  0
  140.1020   71.3530  223.9020 N   0  0  0  0  0  0  0  0  0  0  0  0
  138.9460   70.5010  223.6990 C   0  0  0  0  0  0  0  0  0  0  0  0
  139.2220   69.0820  224.1530 C   0  0  0  0  0  0  0  0  0  0  0  0
  139.6370   69.1850  225.5830 C   0  0  0  0  0  0  0  0  0  0  0  0
  139.3180   68.1360  226.4520 C   0  0  0  0  0  0  0  0  0  0  0  0
  139.6970   68.2210  227.7840 C   0  0  0  0  0  0  0  0  0  0  0  0
  140.3840   69.3120  228.2890 C   0  0  0  0  0  0  0  0  0  0  0  0
  140.6900   70.3410  227.4060 C   0  0  0  0  0  0  0  0  0  0  0  0
  140.3220   70.2840  226.0640 C   0  0  0  0  0  0  0  0  0  0  0  0
  140.7020   71.4400  225.2170 C   0  0  0  0  0  0  0  0  0  0  0  0
  140.2500   73.3720  222.6160 N   0  0  0  0  0  0  0  0  0  0  0  0
  141.4530   78.3650  222.8210 C   0  0  0  0  0  0  0  0  0  0  0  0
  141.8020   79.7610  222.3810 C   0  0  0  0  0  0  0  0  0  0  0  0
  140.5820   80.6340  222.4880 C   0  0  0  0  0  0  0  0  0  0  0  0
  139.4250   80.0650  221.7080 C   0  0  0  0  0  0  0  0  0  0  0  0
  139.1140   78.6910  222.2740 C   0  0  0  0  0  0  0  0  0  0  0  0
  142.5726   77.3529  221.1158 H   0  0  0  0  0  0  0  0  0  0  0  0
  141.8986   76.6314  219.6152 H   0  0  0  0  0  0  0  0  0  0  0  0
  142.4690   78.3347  219.6152 H   0  0  0  0  0  0  0  0  0  0  0  0
  140.4200   78.9240  220.1880 H   0  0  0  0  0  0  0  0  0  0  0  0
  140.6493   76.1901  223.2804 H   0  0  0  0  0  0  0  0  0  0  0  0
  138.9653   76.3470  222.6059 H   0  0  0  0  0  0  0  0  0  0  0  0
  140.2670   75.7700  220.3770 H   0  0  0  0  0  0  0  0  0  0  0  0
  144.0596   73.4888  219.5655 H   0  0  0  0  0  0  0  0  0  0  0  0
  144.7486   72.4547  220.8935 H   0  0  0  0  0  0  0  0  0  0  0  0
  144.9030   72.0828  217.9066 H   0  0  0  0  0  0  0  0  0  0  0  0
  146.2233   72.1558  219.1503 H   0  0  0  0  0  0  0  0  0  0  0  0
  147.3236   70.1087  218.8478 H   0  0  0  0  0  0  0  0  0  0  0  0
  147.2286   67.6388  219.0637 H   0  0  0  0  0  0  0  0  0  0  0  0
  145.0166   66.4906  219.3800 H   0  0  0  0  0  0  0  0  0  0  0  0
  142.9633   67.8609  219.4763 H   0  0  0  0  0  0  0  0  0  0  0  0
  142.3539   70.8107  218.2685 H   0  0  0  0  0  0  0  0  0  0  0  0
  141.8761   69.9939  219.7704 H   0  0  0  0  0  0  0  0  0  0  0  0
  138.0990   70.9030  224.2743 H   0  0  0  0  0  0  0  0  0  0  0  0
  138.7124   70.4827  222.6243 H   0  0  0  0  0  0  0  0  0  0  0  0
  138.3145   68.4672  224.0610 H   0  0  0  0  0  0  0  0  0  0  0  0
  140.0004   68.6052  223.5393 H   0  0  0  0  0  0  0  0  0  0  0  0
  138.7731   67.2543  226.0836 H   0  0  0  0  0  0  0  0  0  0  0  0
  139.4430   67.3931  228.4622 H   0  0  0  0  0  0  0  0  0  0  0  0
  140.6764   69.3625  229.3482 H   0  0  0  0  0  0  0  0  0  0  0  0
  141.2359   71.2214  227.7760 H   0  0  0  0  0  0  0  0  0  0  0  0
  140.3637   72.3666  225.7038 H   0  0  0  0  0  0  0  0  0  0  0  0
  141.7956   71.4371  225.0988 H   0  0  0  0  0  0  0  0  0  0  0  0
  141.1351   78.3811  223.8739 H   0  0  0  0  0  0  0  0  0  0  0  0
  142.3344   77.7156  222.7141 H   0  0  0  0  0  0  0  0  0  0  0  0
  142.5984   80.1614  223.0256 H   0  0  0  0  0  0  0  0  0  0  0  0
  142.1524   79.7426  221.3385 H   0  0  0  0  0  0  0  0  0  0  0  0
  140.2934   80.7166  223.5463 H   0  0  0  0  0  0  0  0  0  0  0  0
  140.8270   81.6217  222.0705 H   0  0  0  0  0  0  0  0  0  0  0  0
  138.5468   80.7194  221.8105 H   0  0  0  0  0  0  0  0  0  0  0  0
  139.6805   79.9918  220.6406 H   0  0  0  0  0  0  0  0  0  0  0  0
  138.9552   78.7510  223.3608 H   0  0  0  0  0  0  0  0  0  0  0  0
  138.1969   78.2700  221.8362 H   0  0  0  0  0  0  0  0  0  0  0  0
  1  2  1  0
  2  3  1  0
  3  4  1  0
  4  5  1  0
  5  6  1  0
  6  7  2  0
  7  8  1  0
  8  9  1  0
  9 10  1  0
 10 11  1  0
 11 12  1  0
 12 13  2  0
 13 14  1  0
 14 15  2  0
 15 16  1  0
 16 17  2  0
 17 18  1  0
  8 19  2  0
 19 20  1  0
 20 21  1  0
 21 22  1  0
 22 23  1  0
 23 24  1  0
 24 25  2  0
 25 26  1  0
 26 27  2  0
 27 28  1  0
 28 29  2  0
 29 30  1  0
 20 31  2  0
  3 32  1  0
 32 33  1  0
 33 34  1  0
 34 35  1  0
 35 36  1  0
 36  3  1  0
 31  6  1  0
 18  9  1  0
 30 21  1  0
 17 12  1  0
 29 24  1  0
  1 37  1  0
  1 38  1  0
  1 39  1  0
  2 40  1  0
  4 41  1  0
  4 42  1  0
  5 43  1  0
 10 44  1  0
 10 45  1  0
 11 46  1  0
 11 47  1  0
 13 48  1  0
 14 49  1  0
 15 50  1  0
 16 51  1  0
 18 52  1  0
 18 53  1  0
 22 54  1  0
 22 55  1  0
 23 56  1  0
 23 57  1  0
 25 58  1  0
 26 59  1  0
 27 60  1  0
 28 61  1  0
 30 62  1  0
 30 63  1  0
 32 64  1  0
 32 65  1  0
 33 66  1  0
 33 67  1  0
 34 68  1  0
 34 69  1  0
 35 70  1  0
 35 71  1  0
 36 72  1  0
 36 73  1  0
M  END
>  <smiles>  (6) 
CNC1(CNc2nc(N3CCc4ccccc4C3)nc(N3CCc4ccccc4C3)n2)CCCCC1

>  <score_type>  (6) 
oracle

>  <origin>  (6) 
autodockgpu

>  <m_score__min__energy>  (6) 
-10.869999999999999

>  <m_primary>  (6) 
energy

>  <rmsd>  (6) 
10.58611982570111

>  <m_score__min__rmsd>  (6) 
10.58611982570111

>  <meeko>  (6) 
{"free_energy": -9.86, "intermolecular_energy": -11.65, "internal_energy": -1.46, "cluster_size": 16, "cluster_id": 2, "rank_in_cluster": 11}

>  <energy>  (6) 
-10.61

>  <cluster_rmsd>  (6) 
0.64

>  <cluster>  (6) 
1

$$$$

     RDKit          3D

 73 78  0  0  0  0  0  0  0  0999 V2000
  145.1740   72.2930  217.5200 C   0  0  0  0  0  0  0  0  0  0  0  0
  144.5040   73.5160  217.8220 N   0  0  0  0  0  0  0  0  0  0  0  0
  143.3740   73.4190  218.6870 C   0  0  0  0  0  0  0  0  0  0  0  0
  142.4850   72.2280  218.4430 C   0  0  0  0  0  0  0  0  0  0  0  0
  142.0970   71.5680  219.6570 N   0  0  0  0  0  0  0  0  0  0  0  0
  141.3740   72.1610  220.7130 C   0  0  0  0  0  0  0  0  0  0  0  0
  141.0430   73.4590  220.6000 N   0  0  0  0  0  0  0  0  0  0  0  0
  140.3460   74.0680  221.5850 C   0  0  0  0  0  0  0  0  0  0  0  0
  140.0210   75.4600  221.4340 N   0  0  0  0  0  0  0  0  0  0  0  0
  138.6200   75.7870  221.3570 C   0  0  0  0  0  0  0  0  0  0  0  0
  138.3820   77.2670  221.2090 C   0  0  0  0  0  0  0  0  0  0  0  0
  139.2890   78.0650  222.0700 C   0  0  0  0  0  0  0  0  0  0  0  0
  138.8260   79.1630  222.7610 C   0  0  0  0  0  0  0  0  0  0  0  0
  139.7000   79.8770  223.5520 C   0  0  0  0  0  0  0  0  0  0  0  0
  141.0410   79.4910  223.6500 C   0  0  0  0  0  0  0  0  0  0  0  0
  141.4520   78.3810  222.9350 C   0  0  0  0  0  0  0  0  0  0  0  0
  140.6080   77.6410  222.1340 C   0  0  0  0  0  0  0  0  0  0  0  0
  141.0870   76.4420  221.3700 C   0  0  0  0  0  0  0  0  0  0  0  0
  139.9750   73.3830  222.6870 N   0  0  0  0  0  0  0  0  0  0  0  0
  140.3020   72.0630  222.8210 C   0  0  0  0  0  0  0  0  0  0  0  0
  139.9320   71.3060  223.9650 N   0  0  0  0  0  0  0  0  0  0  0  0
  138.8400   70.3550  223.8940 C   0  0  0  0  0  0  0  0  0  0  0  0
  139.2790   68.9770  224.3460 C   0  0  0  0  0  0  0  0  0  0  0  0
  139.8190   69.1540  225.7260 C   0  0  0  0  0  0  0  0  0  0  0  0
  139.6760   68.1070  226.6430 C   0  0  0  0  0  0  0  0  0  0  0  0
  140.1730   68.2610  227.9290 C   0  0  0  0  0  0  0  0  0  0  0  0
  140.8090   69.4190  228.3430 C   0  0  0  0  0  0  0  0  0  0  0  0
  140.9390   70.4450  227.4140 C   0  0  0  0  0  0  0  0  0  0  0  0
  140.4510   70.3200  226.1160 C   0  0  0  0  0  0  0  0  0  0  0  0
  140.6460   71.4800  225.2130 C   0  0  0  0  0  0  0  0  0  0  0  0
  140.9980   71.4790  221.8240 N   0  0  0  0  0  0  0  0  0  0  0  0
  143.8510   73.3610  220.1210 C   0  0  0  0  0  0  0  0  0  0  0  0
  144.7880   74.5090  220.3840 C   0  0  0  0  0  0  0  0  0  0  0  0
  144.0770   75.8040  220.1020 C   0  0  0  0  0  0  0  0  0  0  0  0
  143.5200   75.8340  218.7020 C   0  0  0  0  0  0  0  0  0  0  0  0
  142.5410   74.6820  218.5660 C   0  0  0  0  0  0  0  0  0  0  0  0
  145.4516   71.7862  218.4560 H   0  0  0  0  0  0  0  0  0  0  0  0
  144.5058   71.6434  216.9356 H   0  0  0  0  0  0  0  0  0  0  0  0
  146.0811   72.5065  216.9356 H   0  0  0  0  0  0  0  0  0  0  0  0
  145.1600   74.2960  218.0630 H   0  0  0  0  0  0  0  0  0  0  0  0
  141.5778   72.5671  217.9214 H   0  0  0  0  0  0  0  0  0  0  0  0
  143.0552   71.5059  217.8401 H   0  0  0  0  0  0  0  0  0  0  0  0
  142.3690   70.5660  219.7680 H   0  0  0  0  0  0  0  0  0  0  0  0
  138.1842   75.2708  220.4889 H   0  0  0  0  0  0  0  0  0  0  0  0
  138.1486   75.4643  222.2970 H   0  0  0  0  0  0  0  0  0  0  0  0
  138.5487   77.5502  220.1592 H   0  0  0  0  0  0  0  0  0  0  0  0
  137.3476   77.4772  221.5187 H   0  0  0  0  0  0  0  0  0  0  0  0
  137.7716   79.4662  222.6824 H   0  0  0  0  0  0  0  0  0  0  0  0
  139.3412   80.7550  224.1092 H   0  0  0  0  0  0  0  0  0  0  0  0
  141.7478   80.0539  224.2774 H   0  0  0  0  0  0  0  0  0  0  0  0
  142.5053   78.0728  223.0089 H   0  0  0  0  0  0  0  0  0  0  0  0
  141.2905   76.7144  220.3239 H   0  0  0  0  0  0  0  0  0  0  0  0
  142.0198   76.0449  221.7968 H   0  0  0  0  0  0  0  0  0  0  0  0
  138.0212   70.7007  224.5422 H   0  0  0  0  0  0  0  0  0  0  0  0
  138.5065   70.2871  222.8480 H   0  0  0  0  0  0  0  0  0  0  0  0
  138.4230   68.2863  224.3554 H   0  0  0  0  0  0  0  0  0  0  0  0
  140.0328   68.5499  223.6682 H   0  0  0  0  0  0  0  0  0  0  0  0
  139.1755   67.1730  226.3478 H   0  0  0  0  0  0  0  0  0  0  0  0
  140.0577   67.4339  228.6450 H   0  0  0  0  0  0  0  0  0  0  0  0
  141.1964   69.5232  229.3672 H   0  0  0  0  0  0  0  0  0  0  0  0
  141.4395   71.3782  227.7116 H   0  0  0  0  0  0  0  0  0  0  0  0
  140.2770   72.3880  225.7125 H   0  0  0  0  0  0  0  0  0  0  0  0
  141.7193   71.5661  224.9879 H   0  0  0  0  0  0  0  0  0  0  0  0
  142.9869   73.4303  220.7981 H   0  0  0  0  0  0  0  0  0  0  0  0
  144.3771   72.4107  220.2946 H   0  0  0  0  0  0  0  0  0  0  0  0
  145.1096   74.4876  221.4357 H   0  0  0  0  0  0  0  0  0  0  0  0
  145.6697   74.4225  219.7319 H   0  0  0  0  0  0  0  0  0  0  0  0
  143.2504   75.9214  220.8183 H   0  0  0  0  0  0  0  0  0  0  0  0
  144.8019   76.6252  220.2030 H   0  0  0  0  0  0  0  0  0  0  0  0
  143.0016   76.7881  218.5261 H   0  0  0  0  0  0  0  0  0  0  0  0
  144.3304   75.7379  217.9645 H   0  0  0  0  0  0  0  0  0  0  0  0
  141.7874   74.7226  219.3662 H   0  0  0  0  0  0  0  0  0  0  0  0
  141.9986   74.7207  217.6098 H   0  0  0  0  0  0  0  0  0  0  0  0
  1  2  1  0
  2  3  1  0
  3  4  1  0
  4  5  1  0
  5  6  1  0
  6  7  2  0
  7  8  1  0
  8  9  1  0
  9 10  1  0
 10 11  1  0
 11 12  1  0
 12 13  2  0
 13 14  1  0
 14 15  2  0
 15 16  1  0
 16 17  2  0
 17 18  1  0
  8 19  2  0
 19 20  1  0
 20 21  1  0
 21 22  1  0
 22 23  1  0
 23 24  1  0
 24 25  2  0
 25 26  1  0
 26 27  2  0
 27 28  1  0
 28 29  2  0
 29 30  1  0
 20 31  2  0
  3 32  1  0
 32 33  1  0
 33 34  1  0
 34 35  1  0
 35 36  1  0
 36  3  1  0
 31  6  1  0
 18  9  1  0
 30 21  1  0
 17 12  1  0
 29 24  1  0
  1 37  1  0
  1 38  1  0
  1 39  1  0
  2 40  1  0
  4 41  1  0
  4 42  1  0
  5 43  1  0
 10 44  1  0
 10 45  1  0
 11 46  1  0
 11 47  1  0
 13 48  1  0
 14 49  1  0
 15 50  1  0
 16 51  1  0
 18 52  1  0
 18 53  1  0
 22 54  1  0
 22 55  1  0
 23 56  1  0
 23 57  1  0
 25 58  1  0
 26 59  1  0
 27 60  1  0
 28 61  1  0
 30 62  1  0
 30 63  1  0
 32 64  1  0
 32 65  1  0
 33 66  1  0
 33 67  1  0
 34 68  1  0
 34 69  1  0
 35 70  1  0
 35 71  1  0
 36 72  1  0
 36 73  1  0
M  END
>  <smiles>  (7) 
CNC1(CNc2nc(N3CCc4ccccc4C3)nc(N3CCc4ccccc4C3)n2)CCCCC1

>  <score_type>  (7) 
oracle

>  <origin>  (7) 
autodockgpu

>  <m_score__min__energy>  (7) 
-10.869999999999999

>  <m_primary>  (7) 
energy

>  <rmsd>  (7) 
4.96933383307649

>  <m_score__min__rmsd>  (7) 
4.96933383307649

>  <meeko>  (7) 
{"free_energy": -9.72, "intermolecular_energy": -11.51, "internal_energy": -1.32, "cluster_size": 29, "cluster_id": 1, "rank_in_cluster": 25}

>  <energy>  (7) 
-10.6

>  <cluster_rmsd>  (7) 
0.63

>  <cluster>  (7) 
1

$$$$

     RDKit          3D

 73 78  0  0  0  0  0  0  0  0999 V2000
  145.3010   69.5060  218.9740 C   0  0  0  0  0  0  0  0  0  0  0  0
  145.4400   70.8240  219.5020 N   0  0  0  0  0  0  0  0  0  0  0  0
  144.2300   71.5470  219.7210 C   0  0  0  0  0  0  0  0  0  0  0  0
  142.9720   70.7220  219.6410 C   0  0  0  0  0  0  0  0  0  0  0  0
  141.7900   71.5250  219.5140 N   0  0  0  0  0  0  0  0  0  0  0  0
  141.1510   72.2100  220.5700 C   0  0  0  0  0  0  0  0  0  0  0  0
  140.7070   71.4880  221.6130 N   0  0  0  0  0  0  0  0  0  0  0  0
  140.0940   72.1030  222.6490 C   0  0  0  0  0  0  0  0  0  0  0  0
  139.6220   71.2960  223.7410 N   0  0  0  0  0  0  0  0  0  0  0  0
  138.4600   70.4840  223.4850 C   0  0  0  0  0  0  0  0  0  0  0  0
  138.0500   69.6700  224.6840 C   0  0  0  0  0  0  0  0  0  0  0  0
  139.2200   69.0950  225.3920 C   0  0  0  0  0  0  0  0  0  0  0  0
  139.1960   67.8030  225.8690 C   0  0  0  0  0  0  0  0  0  0  0  0
  140.3040   67.3060  226.5200 C   0  0  0  0  0  0  0  0  0  0  0  0
  141.4380   68.1050  226.6950 C   0  0  0  0  0  0  0  0  0  0  0  0
  141.4080   69.3950  226.1970 C   0  0  0  0  0  0  0  0  0  0  0  0
  140.3200   69.9280  225.5400 C   0  0  0  0  0  0  0  0  0  0  0  0
  140.3200   71.3330  225.0130 C   0  0  0  0  0  0  0  0  0  0  0  0
  139.9240   73.4410  222.6490 N   0  0  0  0  0  0  0  0  0  0  0  0
  140.3670   74.1920  221.5980 C   0  0  0  0  0  0  0  0  0  0  0  0
  140.2060   75.6030  221.5570 N   0  0  0  0  0  0  0  0  0  0  0  0
  138.8800   76.1890  221.5220 C   0  0  0  0  0  0  0  0  0  0  0  0
  138.6900   77.1900  222.6430 C   0  0  0  0  0  0  0  0  0  0  0  0
  139.7830   78.1930  222.4830 C   0  0  0  0  0  0  0  0  0  0  0  0
  139.5390   79.5190  222.8580 C   0  0  0  0  0  0  0  0  0  0  0  0
  140.5470   80.4610  222.7120 C   0  0  0  0  0  0  0  0  0  0  0  0
  141.7950   80.1370  222.2060 C   0  0  0  0  0  0  0  0  0  0  0  0
  142.0130   78.8130  221.8400 C   0  0  0  0  0  0  0  0  0  0  0  0
  141.0210   77.8460  221.9740 C   0  0  0  0  0  0  0  0  0  0  0  0
  141.3680   76.4680  221.5510 C   0  0  0  0  0  0  0  0  0  0  0  0
  140.9750   73.5540  220.5760 N   0  0  0  0  0  0  0  0  0  0  0  0
  144.2790   72.1960  221.0860 C   0  0  0  0  0  0  0  0  0  0  0  0
  145.5540   72.9850  221.2190 C   0  0  0  0  0  0  0  0  0  0  0  0
  145.6140   74.0170  220.1270 C   0  0  0  0  0  0  0  0  0  0  0  0
  145.4760   73.3890  218.7650 C   0  0  0  0  0  0  0  0  0  0  0  0
  144.1350   72.6790  218.7140 C   0  0  0  0  0  0  0  0  0  0  0  0
  145.2250   68.7855  219.8017 H   0  0  0  0  0  0  0  0  0  0  0  0
  144.3922   69.4523  218.3566 H   0  0  0  0  0  0  0  0  0  0  0  0
  146.1786   69.2639  218.3566 H   0  0  0  0  0  0  0  0  0  0  0  0
  146.1200   70.8810  220.2960 H   0  0  0  0  0  0  0  0  0  0  0  0
  143.0418   70.0579  218.7669 H   0  0  0  0  0  0  0  0  0  0  0  0
  142.8878   70.1531  220.5787 H   0  0  0  0  0  0  0  0  0  0  0  0
  141.3670   71.6120  218.5640 H   0  0  0  0  0  0  0  0  0  0  0  0
  137.6249   71.1421  223.2030 H   0  0  0  0  0  0  0  0  0  0  0  0
  138.7135   69.7832  222.6759 H   0  0  0  0  0  0  0  0  0  0  0  0
  137.4965   70.3173  225.3802 H   0  0  0  0  0  0  0  0  0  0  0  0
  137.4236   68.8374  224.3313 H   0  0  0  0  0  0  0  0  0  0  0  0
  138.3030   67.1755  225.7319 H   0  0  0  0  0  0  0  0  0  0  0  0
  140.2964   66.2752  226.9041 H   0  0  0  0  0  0  0  0  0  0  0  0
  142.3280   67.7189  227.2136 H   0  0  0  0  0  0  0  0  0  0  0  0
  142.2977   70.0276  226.3322 H   0  0  0  0  0  0  0  0  0  0  0  0
  139.7982   72.0016  225.7135 H   0  0  0  0  0  0  0  0  0  0  0  0
  141.3453   71.7129  224.8932 H   0  0  0  0  0  0  0  0  0  0  0  0
  138.7395   76.6999  220.5580 H   0  0  0  0  0  0  0  0  0  0  0  0
  138.1414   75.3835  221.6473 H   0  0  0  0  0  0  0  0  0  0  0  0
  137.7076   77.6775  222.5586 H   0  0  0  0  0  0  0  0  0  0  0  0
  138.7275   76.7047  223.6294 H   0  0  0  0  0  0  0  0  0  0  0  0
  138.5592   79.8110  223.2639 H   0  0  0  0  0  0  0  0  0  0  0  0
  140.3482   81.5015  223.0084 H   0  0  0  0  0  0  0  0  0  0  0  0
  142.5828   80.8970  222.0978 H   0  0  0  0  0  0  0  0  0  0  0  0
  142.9936   78.5230  221.4346 H   0  0  0  0  0  0  0  0  0  0  0  0
  141.7843   76.5005  220.5333 H   0  0  0  0  0  0  0  0  0  0  0  0
  142.1035   76.0634  222.2618 H   0  0  0  0  0  0  0  0  0  0  0  0
  143.4170   72.8691  221.2035 H   0  0  0  0  0  0  0  0  0  0  0  0
  144.2450   71.4189  221.8638 H   0  0  0  0  0  0  0  0  0  0  0  0
  145.5768   73.4845  222.1988 H   0  0  0  0  0  0  0  0  0  0  0  0
  146.4173   72.3084  221.1354 H   0  0  0  0  0  0  0  0  0  0  0  0
  144.7967   74.7388  220.2722 H   0  0  0  0  0  0  0  0  0  0  0  0
  146.5923   74.5172  220.1786 H   0  0  0  0  0  0  0  0  0  0  0  0
  145.5171   74.1670  217.9885 H   0  0  0  0  0  0  0  0  0  0  0  0
  146.2947   72.6764  218.5862 H   0  0  0  0  0  0  0  0  0  0  0  0
  143.3246   73.3700  218.9893 H   0  0  0  0  0  0  0  0  0  0  0  0
  143.9119   72.3055  217.7037 H   0  0  0  0  0  0  0  0  0  0  0  0
  1  2  1  0
  2  3  1  0
  3  4  1  0
  4  5  1  0
  5  6  1  0
  6  7  2  0
  7  8  1  0
  8  9  1  0
  9 10  1  0
 10 11  1  0
 11 12  1  0
 12 13  2  0
 13 14  1  0
 14 15  2  0
 15 16  1  0
 16 17  2  0
 17 18  1  0
  8 19  2  0
 19 20  1  0
 20 21  1  0
 21 22  1  0
 22 23  1  0
 23 24  1  0
 24 25  2  0
 25 26  1  0
 26 27  2  0
 27 28  1  0
 28 29  2  0
 29 30  1  0
 20 31  2  0
  3 32  1  0
 32 33  1  0
 33 34  1  0
 34 35  1  0
 35 36  1  0
 36  3  1  0
 31  6  1  0
 18  9  1  0
 30 21  1  0
 17 12  1  0
 29 24  1  0
  1 37  1  0
  1 38  1  0
  1 39  1  0
  2 40  1  0
  4 41  1  0
  4 42  1  0
  5 43  1  0
 10 44  1  0
 10 45  1  0
 11 46  1  0
 11 47  1  0
 13 48  1  0
 14 49  1  0
 15 50  1  0
 16 51  1  0
 18 52  1  0
 18 53  1  0
 22 54  1  0
 22 55  1  0
 23 56  1  0
 23 57  1  0
 25 58  1  0
 26 59  1  0
 27 60  1  0
 28 61  1  0
 30 62  1  0
 30 63  1  0
 32 64  1  0
 32 65  1  0
 33 66  1  0
 33 67  1  0
 34 68  1  0
 34 69  1  0
 35 70  1  0
 35 71  1  0
 36 72  1  0
 36 73  1  0
M  END
>  <smiles>  (8) 
CNC1(CNc2nc(N3CCc4ccccc4C3)nc(N3CCc4ccccc4C3)n2)CCCCC1

>  <score_type>  (8) 
oracle

>  <origin>  (8) 
autodockgpu

>  <m_score__min__energy>  (8) 
-10.869999999999999

>  <m_primary>  (8) 
energy

>  <rmsd>  (8) 
11.392904478392186

>  <m_score__min__rmsd>  (8) 
11.392904478392186

>  <meeko>  (8) 
{"free_energy": -9.76, "intermolecular_energy": -11.55, "internal_energy": -1.47, "cluster_size": 29, "cluster_id": 1, "rank_in_cluster": 23}

>  <energy>  (8) 
-10.55

>  <cluster_rmsd>  (8) 
0.65

>  <cluster>  (8) 
1

$$$$

     RDKit          3D

 73 78  0  0  0  0  0  0  0  0999 V2000
  145.2640   72.8300  216.9650 C   0  0  0  0  0  0  0  0  0  0  0  0
  144.9410   73.7890  217.9700 N   0  0  0  0  0  0  0  0  0  0  0  0
  143.8050   73.4950  218.7810 C   0  0  0  0  0  0  0  0  0  0  0  0
  142.5000   73.3870  218.0350 C   0  0  0  0  0  0  0  0  0  0  0  0
  141.4780   72.7290  218.7980 N   0  0  0  0  0  0  0  0  0  0  0  0
  140.9580   73.1840  220.0280 C   0  0  0  0  0  0  0  0  0  0  0  0
  140.7620   74.5040  220.1810 N   0  0  0  0  0  0  0  0  0  0  0  0
  140.2600   74.9840  221.3410 C   0  0  0  0  0  0  0  0  0  0  0  0
  140.0750   76.4040  221.4710 N   0  0  0  0  0  0  0  0  0  0  0  0
  138.8840   76.8360  222.1570 C   0  0  0  0  0  0  0  0  0  0  0  0
  138.7850   78.3360  222.2510 C   0  0  0  0  0  0  0  0  0  0  0  0
  140.0940   78.9610  222.5610 C   0  0  0  0  0  0  0  0  0  0  0  0
  140.1880   80.0000  223.4610 C   0  0  0  0  0  0  0  0  0  0  0  0
  141.4220   80.5520  223.7230 C   0  0  0  0  0  0  0  0  0  0  0  0
  142.5660   80.0640  223.0820 C   0  0  0  0  0  0  0  0  0  0  0  0
  142.4150   79.0200  222.1880 C   0  0  0  0  0  0  0  0  0  0  0  0
  141.1970   78.4410  221.9000 C   0  0  0  0  0  0  0  0  0  0  0  0
  141.0680   77.3090  220.9230 C   0  0  0  0  0  0  0  0  0  0  0  0
  139.9510   74.1470  222.3520 N   0  0  0  0  0  0  0  0  0  0  0  0
  140.1430   72.8010  222.2170 C   0  0  0  0  0  0  0  0  0  0  0  0
  139.8330   71.8860  223.2580 N   0  0  0  0  0  0  0  0  0  0  0  0
  138.7210   70.9660  223.1190 C   0  0  0  0  0  0  0  0  0  0  0  0
  139.1620   69.5320  223.3320 C   0  0  0  0  0  0  0  0  0  0  0  0
  139.7910   69.4970  224.6850 C   0  0  0  0  0  0  0  0  0  0  0  0
  139.6870   68.3260  225.4440 C   0  0  0  0  0  0  0  0  0  0  0  0
  140.2670   68.2820  226.7040 C   0  0  0  0  0  0  0  0  0  0  0  0
  140.9490   69.3600  227.2420 C   0  0  0  0  0  0  0  0  0  0  0  0
  141.0390   70.5120  226.4690 C   0  0  0  0  0  0  0  0  0  0  0  0
  140.4680   70.5860  225.2010 C   0  0  0  0  0  0  0  0  0  0  0  0
  140.6270   71.8660  224.4690 C   0  0  0  0  0  0  0  0  0  0  0  0
  140.6460   72.3480  221.0500 N   0  0  0  0  0  0  0  0  0  0  0  0
  144.0380   72.1890  219.5070 C   0  0  0  0  0  0  0  0  0  0  0  0
  145.3620   72.2420  220.2190 C   0  0  0  0  0  0  0  0  0  0  0  0
  145.3640   73.4010  221.1780 C   0  0  0  0  0  0  0  0  0  0  0  0
  145.0440   74.6970  220.4770 C   0  0  0  0  0  0  0  0  0  0  0  0
  143.6660   74.5600  219.8540 C   0  0  0  0  0  0  0  0  0  0  0  0
  145.5803   71.8909  217.4425 H   0  0  0  0  0  0  0  0  0  0  0  0
  144.3793   72.6430  216.3387 H   0  0  0  0  0  0  0  0  0  0  0  0
  146.0816   73.2164  216.3387 H   0  0  0  0  0  0  0  0  0  0  0  0
  145.7760   74.1180  218.5100 H   0  0  0  0  0  0  0  0  0  0  0  0
  142.1537   74.4003  217.7834 H   0  0  0  0  0  0  0  0  0  0  0  0
  142.6819   72.7833  217.1336 H   0  0  0  0  0  0  0  0  0  0  0  0
  141.0850   71.8420  218.4120 H   0  0  0  0  0  0  0  0  0  0  0  0
  138.0063   76.4579  221.6123 H   0  0  0  0  0  0  0  0  0  0  0  0
  138.9257   76.4387  223.1819 H   0  0  0  0  0  0  0  0  0  0  0  0
  138.4227   78.7289  221.2896 H   0  0  0  0  0  0  0  0  0  0  0  0
  138.0900   78.5801  223.0680 H   0  0  0  0  0  0  0  0  0  0  0  0
  139.2883   80.3839  223.9641 H   0  0  0  0  0  0  0  0  0  0  0  0
  141.5089   81.3814  224.4404 H   0  0  0  0  0  0  0  0  0  0  0  0
  143.5564   80.4981  223.2834 H   0  0  0  0  0  0  0  0  0  0  0  0
  143.3110   78.6320  221.6814 H   0  0  0  0  0  0  0  0  0  0  0  0
  140.7384   77.6874  219.9441 H   0  0  0  0  0  0  0  0  0  0  0  0
  142.0316   76.7998  220.7741 H   0  0  0  0  0  0  0  0  0  0  0  0
  137.9519   71.2186  223.8638 H   0  0  0  0  0  0  0  0  0  0  0  0
  138.3203   71.0578  222.0987 H   0  0  0  0  0  0  0  0  0  0  0  0
  138.2957   68.8552  223.2947 H   0  0  0  0  0  0  0  0  0  0  0  0
  139.8633   69.2037  222.5508 H   0  0  0  0  0  0  0  0  0  0  0  0
  139.1519   67.4509  225.0467 H   0  0  0  0  0  0  0  0  0  0  0  0
  140.1819   67.3586  227.2957 H   0  0  0  0  0  0  0  0  0  0  0  0
  141.4023   69.3070  228.2428 H   0  0  0  0  0  0  0  0  0  0  0  0
  141.5741   71.3861  226.8686 H   0  0  0  0  0  0  0  0  0  0  0  0
  140.3067   72.6926  225.1203 H   0  0  0  0  0  0  0  0  0  0  0  0
  141.6854   71.9754  224.1901 H   0  0  0  0  0  0  0  0  0  0  0  0
  143.2335   72.0279  220.2397 H   0  0  0  0  0  0  0  0  0  0  0  0
  144.0437   71.3617  218.7820 H   0  0  0  0  0  0  0  0  0  0  0  0
  145.5186   71.3053  220.7741 H   0  0  0  0  0  0  0  0  0  0  0  0
  146.1708   72.3697  219.4845 H   0  0  0  0  0  0  0  0  0  0  0  0
  144.6100   73.2208  221.9584 H   0  0  0  0  0  0  0  0  0  0  0  0
  146.3690   73.4845  221.6173 H   0  0  0  0  0  0  0  0  0  0  0  0
  145.0465   75.5248  221.2014 H   0  0  0  0  0  0  0  0  0  0  0  0
  145.7959   74.9110  219.7032 H   0  0  0  0  0  0  0  0  0  0  0  0
  142.9318   74.2480  220.6114 H   0  0  0  0  0  0  0  0  0  0  0  0
  143.3125   75.5141  219.4360 H   0  0  0  0  0  0  0  0  0  0  0  0
  1  2  1  0
  2  3  1  0
  3  4  1  0
  4  5  1  0
  5  6  1  0
  6  7  2  0
  7  8  1  0
  8  9  1  0
  9 10  1  0
 10 11  1  0
 11 12  1  0
 12 13  2  0
 13 14  1  0
 14 15  2  0
 15 16  1  0
 16 17  2  0
 17 18  1  0
  8 19  2  0
 19 20  1  0
 20 21  1  0
 21 22  1  0
 22 23  1  0
 23 24  1  0
 24 25  2  0
 25 26  1  0
 26 27  2  0
 27 28  1  0
 28 29  2  0
 29 30  1  0
 20 31  2  0
  3 32  1  0
 32 33  1  0
 33 34  1  0
 34 35  1  0
 35 36  1  0
 36  3  1  0
 31  6  1  0
 18  9  1  0
 30 21  1  0
 17 12  1  0
 29 24  1  0
  1 37  1  0
  1 38  1  0
  1 39  1  0
  2 40  1  0
  4 41  1  0
  4 42  1  0
  5 43  1  0
 10 44  1  0
 10 45  1  0
 11 46  1  0
 11 47  1  0
 13 48  1  0
 14 49  1  0
 15 50  1  0
 16 51  1  0
 18 52  1  0
 18 53  1  0
 22 54  1  0
 22 55  1  0
 23 56  1  0
 23 57  1  0
 25 58  1  0
 26 59  1  0
 27 60  1  0
 28 61  1  0
 30 62  1  0
 30 63  1  0
 32 64  1  0
 32 65  1  0
 33 66  1  0
 33 67  1  0
 34 68  1  0
 34 69  1  0
 35 70  1  0
 35 71  1  0
 36 72  1  0
 36 73  1  0
M  END
>  <smiles>  (9) 
CNC1(CNc2nc(N3CCc4ccccc4C3)nc(N3CCc4ccccc4C3)n2)CCCCC1

>  <score_type>  (9) 
oracle

>  <origin>  (9) 
autodockgpu

>  <m_score__min__energy>  (9) 
-10.869999999999999

>  <m_primary>  (9) 
energy

>  <rmsd>  (9) 
5.24495927023832

>  <m_score__min__rmsd>  (9) 
5.24495927023832

>  <meeko>  (9) 
{"free_energy": -10.09, "intermolecular_energy": -11.88, "internal_energy": -1.47, "cluster_size": 29, "cluster_id": 1, "rank_in_cluster": 16}

>  <energy>  (9) 
-10.54

>  <cluster_rmsd>  (9) 
0.62

>  <cluster>  (9) 
1

$$$$

     RDKit          3D

 73 78  0  0  0  0  0  0  0  0999 V2000
  145.0380   72.6570  217.0510 C   0  0  0  0  0  0  0  0  0  0  0  0
  144.6150   73.4560  218.1550 N   0  0  0  0  0  0  0  0  0  0  0  0
  144.0190   72.7580  219.2470 C   0  0  0  0  0  0  0  0  0  0  0  0
  142.7430   72.0300  218.9180 C   0  0  0  0  0  0  0  0  0  0  0  0
  141.5840   72.8710  219.0170 N   0  0  0  0  0  0  0  0  0  0  0  0
  140.9560   73.2570  220.2190 C   0  0  0  0  0  0  0  0  0  0  0  0
  140.7210   74.5650  220.4170 N   0  0  0  0  0  0  0  0  0  0  0  0
  140.1170   74.9810  221.5530 C   0  0  0  0  0  0  0  0  0  0  0  0
  139.8930   76.3890  221.7330 N   0  0  0  0  0  0  0  0  0  0  0  0
  138.7960   76.7600  222.5900 C   0  0  0  0  0  0  0  0  0  0  0  0
  138.6490   78.2540  222.7230 C   0  0  0  0  0  0  0  0  0  0  0  0
  139.9620   78.9320  222.8540 C   0  0  0  0  0  0  0  0  0  0  0  0
  140.1410   79.9640  223.7490 C   0  0  0  0  0  0  0  0  0  0  0  0
  141.3760   80.5670  223.8410 C   0  0  0  0  0  0  0  0  0  0  0  0
  142.4350   80.1370  223.0350 C   0  0  0  0  0  0  0  0  0  0  0  0
  142.2000   79.0980  222.1540 C   0  0  0  0  0  0  0  0  0  0  0  0
  140.9790   78.4690  222.0330 C   0  0  0  0  0  0  0  0  0  0  0  0
  140.7580   77.3430  221.0650 C   0  0  0  0  0  0  0  0  0  0  0  0
  139.7440   74.0910  222.4950 N   0  0  0  0  0  0  0  0  0  0  0  0
  139.9740   72.7560  222.3150 C   0  0  0  0  0  0  0  0  0  0  0  0
  139.5990   71.7870  223.2830 N   0  0  0  0  0  0  0  0  0  0  0  0
  138.4590   70.9210  223.0500 C   0  0  0  0  0  0  0  0  0  0  0  0
  138.8410   69.4610  223.1800 C   0  0  0  0  0  0  0  0  0  0  0  0
  139.4270   69.3140  224.5450 C   0  0  0  0  0  0  0  0  0  0  0  0
  139.2570   68.1000  225.2220 C   0  0  0  0  0  0  0  0  0  0  0  0
  139.7960   67.9520  226.4920 C   0  0  0  0  0  0  0  0  0  0  0  0
  140.5000   68.9650  227.1200 C   0  0  0  0  0  0  0  0  0  0  0  0
  140.6550   70.1610  226.4280 C   0  0  0  0  0  0  0  0  0  0  0  0
  140.1260   70.3400  225.1520 C   0  0  0  0  0  0  0  0  0  0  0  0
  140.3540   71.6580  224.5120 C   0  0  0  0  0  0  0  0  0  0  0  0
  140.5790   72.3680  221.1730 N   0  0  0  0  0  0  0  0  0  0  0  0
  145.0070   71.7510  219.7900 C   0  0  0  0  0  0  0  0  0  0  0  0
  146.3150   72.4370  220.0780 C   0  0  0  0  0  0  0  0  0  0  0  0
  146.0850   73.5510  221.0610 C   0  0  0  0  0  0  0  0  0  0  0  0
  145.0350   74.5140  220.5680 C   0  0  0  0  0  0  0  0  0  0  0  0
  143.7450   73.7370  220.3750 C   0  0  0  0  0  0  0  0  0  0  0  0
  145.5221   71.7425  217.4244 H   0  0  0  0  0  0  0  0  0  0  0  0
  144.1652   72.3860  216.4388 H   0  0  0  0  0  0  0  0  0  0  0  0
  145.7528   73.2265  216.4388 H   0  0  0  0  0  0  0  0  0  0  0  0
  145.3240   74.1710  218.4410 H   0  0  0  0  0  0  0  0  0  0  0  0
  142.8122   71.6458  217.8896 H   0  0  0  0  0  0  0  0  0  0  0  0
  142.6266   71.2165  219.6492 H   0  0  0  0  0  0  0  0  0  0  0  0
  141.1710   73.2280  218.1270 H   0  0  0  0  0  0  0  0  0  0  0  0
  137.8657   76.3497  222.1702 H   0  0  0  0  0  0  0  0  0  0  0  0
  139.0010   76.3533  223.5913 H   0  0  0  0  0  0  0  0  0  0  0  0
  138.1368   78.6414  221.8299 H   0  0  0  0  0  0  0  0  0  0  0  0
  138.0685   78.4585  223.6347 H   0  0  0  0  0  0  0  0  0  0  0  0
  139.3078   80.3023  224.3824 H   0  0  0  0  0  0  0  0  0  0  0  0
  141.5302   81.3916  224.5526 H   0  0  0  0  0  0  0  0  0  0  0  0
  143.4253   80.6114  223.1002 H   0  0  0  0  0  0  0  0  0  0  0  0
  143.0291   78.7557  221.5173 H   0  0  0  0  0  0  0  0  0  0  0  0
  140.2756   77.7176  220.1501 H   0  0  0  0  0  0  0  0  0  0  0  0
  141.7108   76.8782  220.7713 H   0  0  0  0  0  0  0  0  0  0  0  0
  137.6760   71.1534  223.7868 H   0  0  0  0  0  0  0  0  0  0  0  0
  138.0946   71.0947  222.0268 H   0  0  0  0  0  0  0  0  0  0  0  0
  137.9523   68.8216  223.0738 H   0  0  0  0  0  0  0  0  0  0  0  0
  139.5535   69.1578  222.3987 H   0  0  0  0  0  0  0  0  0  0  0  0
  138.7029   67.2737  224.7527 H   0  0  0  0  0  0  0  0  0  0  0  0
  139.6590   66.9959  227.0184 H   0  0  0  0  0  0  0  0  0  0  0  0
  140.9205   68.8291  228.1273 H   0  0  0  0  0  0  0  0  0  0  0  0
  141.2089   70.9860  226.8998 H   0  0  0  0  0  0  0  0  0  0  0  0
  140.0438   72.4518  225.2074 H   0  0  0  0  0  0  0  0  0  0  0  0
  141.4238   71.7453  224.2715 H   0  0  0  0  0  0  0  0  0  0  0  0
  144.6110   71.3122  220.7177 H   0  0  0  0  0  0  0  0  0  0  0  0
  145.1658   70.9556  219.0469 H   0  0  0  0  0  0  0  0  0  0  0  0
  147.0245   71.7120  220.5034 H   0  0  0  0  0  0  0  0  0  0  0  0
  146.7293   72.8477  219.1454 H   0  0  0  0  0  0  0  0  0  0  0  0
  145.7546   73.1209  222.0180 H   0  0  0  0  0  0  0  0  0  0  0  0
  147.0286   74.1026  221.1850 H   0  0  0  0  0  0  0  0  0  0  0  0
  144.8831   75.3130  221.3086 H   0  0  0  0  0  0  0  0  0  0  0  0
  145.3512   74.9743  219.6203 H   0  0  0  0  0  0  0  0  0  0  0  0
  143.4814   73.1966  221.2961 H   0  0  0  0  0  0  0  0  0  0  0  0
  142.9019   74.4028  220.1386 H   0  0  0  0  0  0  0  0  0  0  0  0
  1  2  1  0
  2  3  1  0
  3  4  1  0
  4  5  1  0
  5  6  1  0
  6  7  2  0
  7  8  1  0
  8  9  1  0
  9 10  1  0
 10 11  1  0
 11 12  1  0
 12 13  2  0
 13 14  1  0
 14 15  2  0
 15 16  1  0
 16 17  2  0
 17 18  1  0
  8 19  2  0
 19 20  1  0
 20 21  1  0
 21 22  1  0
 22 23  1  0
 23 24  1  0
 24 25  2  0
 25 26  1  0
 26 27  2  0
 27 28  1  0
 28 29  2  0
 29 30  1  0
 20 31  2  0
  3 32  1  0
 32 33  1  0
 33 34  1  0
 34 35  1  0
 35 36  1  0
 36  3  1  0
 31  6  1  0
 18  9  1  0
 30 21  1  0
 17 12  1  0
 29 24  1  0
  1 37  1  0
  1 38  1  0
  1 39  1  0
  2 40  1  0
  4 41  1  0
  4 42  1  0
  5 43  1  0
 10 44  1  0
 10 45  1  0
 11 46  1  0
 11 47  1  0
 13 48  1  0
 14 49  1  0
 15 50  1  0
 16 51  1  0
 18 52  1  0
 18 53  1  0
 22 54  1  0
 22 55  1  0
 23 56  1  0
 23 57  1  0
 25 58  1  0
 26 59  1  0
 27 60  1  0
 28 61  1  0
 30 62  1  0
 30 63  1  0
 32 64  1  0
 32 65  1  0
 33 66  1  0
 33 67  1  0
 34 68  1  0
 34 69  1  0
 35 70  1  0
 35 71  1  0
 36 72  1  0
 36 73  1  0
M  END
>  <smiles>  (10) 
CNC1(CNc2nc(N3CCc4ccccc4C3)nc(N3CCc4ccccc4C3)n2)CCCCC1

>  <score_type>  (10) 
oracle

>  <origin>  (10) 
autodockgpu

>  <m_score__min__energy>  (10) 
-10.869999999999999

>  <m_primary>  (10) 
energy

>  <rmsd>  (10) 
5.324886064169699

>  <m_score__min__rmsd>  (10) 
5.324886064169699

>  <meeko>  (10) 
{"free_energy": -10.26, "intermolecular_energy": -12.05, "internal_energy": -1.07, "cluster_size": 29, "cluster_id": 1, "rank_in_cluster": 13}

>  <energy>  (10) 
-10.53

>  <cluster_rmsd>  (10) 
0.36

>  <cluster>  (10) 
1

$$$$

     RDKit          3D

 73 78  0  0  0  0  0  0  0  0999 V2000
  144.9470   73.4050  216.8720 C   0  0  0  0  0  0  0  0  0  0  0  0
  144.3770   74.5470  217.5100 N   0  0  0  0  0  0  0  0  0  0  0  0
  143.3860   74.2860  218.5020 C   0  0  0  0  0  0  0  0  0  0  0  0
  143.5150   72.9560  219.1970 C   0  0  0  0  0  0  0  0  0  0  0  0
  142.2460   72.4030  219.5760 N   0  0  0  0  0  0  0  0  0  0  0  0
  141.4600   72.8350  220.6660 C   0  0  0  0  0  0  0  0  0  0  0  0
  141.1130   74.1320  220.7190 N   0  0  0  0  0  0  0  0  0  0  0  0
  140.3570   74.5890  221.7420 C   0  0  0  0  0  0  0  0  0  0  0  0
  140.0150   75.9850  221.7690 N   0  0  0  0  0  0  0  0  0  0  0  0
  138.7520   76.3240  222.3750 C   0  0  0  0  0  0  0  0  0  0  0  0
  138.4890   77.8080  222.3650 C   0  0  0  0  0  0  0  0  0  0  0  0
  139.7070   78.5910  222.6880 C   0  0  0  0  0  0  0  0  0  0  0  0
  139.6450   79.6870  223.5200 C   0  0  0  0  0  0  0  0  0  0  0  0
  140.7990   80.3860  223.7980 C   0  0  0  0  0  0  0  0  0  0  0  0
  142.0190   79.9880  223.2400 C   0  0  0  0  0  0  0  0  0  0  0  0
  142.0240   78.8810  222.4110 C   0  0  0  0  0  0  0  0  0  0  0  0
  140.8910   78.1550  222.1100 C   0  0  0  0  0  0  0  0  0  0  0  0
  140.9310   76.9580  221.2060 C   0  0  0  0  0  0  0  0  0  0  0  0
  139.9430   73.7520  222.7150 N   0  0  0  0  0  0  0  0  0  0  0  0
  140.2860   72.4300  222.6810 C   0  0  0  0  0  0  0  0  0  0  0  0
  139.8730   71.5160  223.6870 N   0  0  0  0  0  0  0  0  0  0  0  0
  138.7780   70.5980  223.4390 C   0  0  0  0  0  0  0  0  0  0  0  0
  139.1930   69.1640  223.6960 C   0  0  0  0  0  0  0  0  0  0  0  0
  139.6870   69.1280  225.1040 C   0  0  0  0  0  0  0  0  0  0  0  0
  139.5060   67.9580  225.8500 C   0  0  0  0  0  0  0  0  0  0  0  0
  139.9600   67.9140  227.1600 C   0  0  0  0  0  0  0  0  0  0  0  0
  140.5890   68.9910  227.7620 C   0  0  0  0  0  0  0  0  0  0  0  0
  140.7560   70.1420  227.0010 C   0  0  0  0  0  0  0  0  0  0  0  0
  140.3120   70.2160  225.6830 C   0  0  0  0  0  0  0  0  0  0  0  0
  140.5450   71.4950  224.9700 C   0  0  0  0  0  0  0  0  0  0  0  0
  141.0420   72.0000  221.6490 N   0  0  0  0  0  0  0  0  0  0  0  0
  143.4390   75.3710  219.5540 C   0  0  0  0  0  0  0  0  0  0  0  0
  143.3690   76.7180  218.8880 C   0  0  0  0  0  0  0  0  0  0  0  0
  142.1020   76.8080  218.0820 C   0  0  0  0  0  0  0  0  0  0  0  0
  141.9970   75.6780  217.0910 C   0  0  0  0  0  0  0  0  0  0  0  0
  142.0090   74.3740  217.8690 C   0  0  0  0  0  0  0  0  0  0  0  0
  145.3006   72.6967  217.6357 H   0  0  0  0  0  0  0  0  0  0  0  0
  144.1863   72.9179  216.2442 H   0  0  0  0  0  0  0  0  0  0  0  0
  145.7935   73.7201  216.2442 H   0  0  0  0  0  0  0  0  0  0  0  0
  145.0910   75.2570  217.7970 H   0  0  0  0  0  0  0  0  0  0  0  0
  144.0171   72.2514  218.5177 H   0  0  0  0  0  0  0  0  0  0  0  0
  144.0950   73.1174  220.1176 H   0  0  0  0  0  0  0  0  0  0  0  0
  141.8700   71.6190  218.9980 H   0  0  0  0  0  0  0  0  0  0  0  0
  137.9474   75.8190  221.8204 H   0  0  0  0  0  0  0  0  0  0  0  0
  138.7854   75.9967  223.4247 H   0  0  0  0  0  0  0  0  0  0  0  0
  138.1346   78.0990  221.3652 H   0  0  0  0  0  0  0  0  0  0  0  0
  137.7327   78.0240  223.1340 H   0  0  0  0  0  0  0  0  0  0  0  0
  138.6855   80.0003  223.9572 H   0  0  0  0  0  0  0  0  0  0  0  0
  140.7613   81.2619  224.4623 H   0  0  0  0  0  0  0  0  0  0  0  0
  142.9465   80.5392  223.4544 H   0  0  0  0  0  0  0  0  0  0  0  0
  142.9802   78.5636  221.9694 H   0  0  0  0  0  0  0  0  0  0  0  0
  140.6116   77.2376  220.1912 H   0  0  0  0  0  0  0  0  0  0  0  0
  141.9495   76.5491  221.1328 H   0  0  0  0  0  0  0  0  0  0  0  0
  137.9393   70.8529  224.1035 H   0  0  0  0  0  0  0  0  0  0  0  0
  138.4804   70.6895  222.3840 H   0  0  0  0  0  0  0  0  0  0  0  0
  138.3329   68.4890  223.5748 H   0  0  0  0  0  0  0  0  0  0  0  0
  139.9671   68.8341  222.9875 H   0  0  0  0  0  0  0  0  0  0  0  0
  139.0098   67.0839  225.4031 H   0  0  0  0  0  0  0  0  0  0  0  0
  139.8154   66.9913  227.7411 H   0  0  0  0  0  0  0  0  0  0  0  0
  140.9428   68.9376  228.8022 H   0  0  0  0  0  0  0  0  0  0  0  0
  141.2508   71.0156  227.4506 H   0  0  0  0  0  0  0  0  0  0  0  0
  140.1646   72.3227  225.5866 H   0  0  0  0  0  0  0  0  0  0  0  0
  141.6259   71.6019  224.7960 H   0  0  0  0  0  0  0  0  0  0  0  0
  142.5880   75.2571  220.2416 H   0  0  0  0  0  0  0  0  0  0  0  0
  144.3795   75.2892  220.1185 H   0  0  0  0  0  0  0  0  0  0  0  0
  143.3743   77.5075  219.6539 H   0  0  0  0  0  0  0  0  0  0  0  0
  144.2375   76.8475  218.2255 H   0  0  0  0  0  0  0  0  0  0  0  0
  141.2404   76.7662  218.7645 H   0  0  0  0  0  0  0  0  0  0  0  0
  142.1140   77.7562  217.5245 H   0  0  0  0  0  0  0  0  0  0  0  0
  141.0596   75.7654  216.5221 H   0  0  0  0  0  0  0  0  0  0  0  0
  142.8377   75.7098  216.3823 H   0  0  0  0  0  0  0  0  0  0  0  0
  141.2299   74.3834  218.6454 H   0  0  0  0  0  0  0  0  0  0  0  0
  141.8055   73.5110  217.2180 H   0  0  0  0  0  0  0  0  0  0  0  0
  1  2  1  0
  2  3  1  0
  3  4  1  0
  4  5  1  0
  5  6  1  0
  6  7  2  0
  7  8  1  0
  8  9  1  0
  9 10  1  0
 10 11  1  0
 11 12  1  0
 12 13  2  0
 13 14  1  0
 14 15  2  0
 15 16  1  0
 16 17  2  0
 17 18  1  0
  8 19  2  0
 19 20  1  0
 20 21  1  0
 21 22  1  0
 22 23  1  0
 23 24  1  0
 24 25  2  0
 25 26  1  0
 26 27  2  0
 27 28  1  0
 28 29  2  0
 29 30  1  0
 20 31  2  0
  3 32  1  0
 32 33  1  0
 33 34  1  0
 34 35  1  0
 35 36  1  0
 36  3  1  0
 31  6  1  0
 18  9  1  0
 30 21  1  0
 17 12  1  0
 29 24  1  0
  1 37  1  0
  1 38  1  0
  1 39  1  0
  2 40  1  0
  4 41  1  0
  4 42  1  0
  5 43  1  0
 10 44  1  0
 10 45  1  0
 11 46  1  0
 11 47  1  0
 13 48  1  0
 14 49  1  0
 15 50  1  0
 16 51  1  0
 18 52  1  0
 18 53  1  0
 22 54  1  0
 22 55  1  0
 23 56  1  0
 23 57  1  0
 25 58  1  0
 26 59  1  0
 27 60  1  0
 28 61  1  0
 30 62  1  0
 30 63  1  0
 32 64  1  0
 32 65  1  0
 33 66  1  0
 33 67  1  0
 34 68  1  0
 34 69  1  0
 35 70  1  0
 35 71  1  0
 36 72  1  0
 36 73  1  0
M  END
>  <smiles>  (11) 
CNC1(CNc2nc(N3CCc4ccccc4C3)nc(N3CCc4ccccc4C3)n2)CCCCC1

>  <score_type>  (11) 
oracle

>  <origin>  (11) 
autodockgpu

>  <m_score__min__energy>  (11) 
-10.869999999999999

>  <m_primary>  (11) 
energy

>  <rmsd>  (11) 
5.204654889309002

>  <m_score__min__rmsd>  (11) 
5.204654889309002

>  <meeko>  (11) 
{"free_energy": -9.85, "intermolecular_energy": -11.64, "internal_energy": -1.74, "cluster_size": 29, "cluster_id": 1, "rank_in_cluster": 19}

>  <energy>  (11) 
-10.48

>  <cluster_rmsd>  (11) 
0.76

>  <cluster>  (11) 
1

$$$$

     RDKit          3D

 73 78  0  0  0  0  0  0  0  0999 V2000
  145.1680   73.0480  216.9160 C   0  0  0  0  0  0  0  0  0  0  0  0
  144.9830   73.7940  218.1190 N   0  0  0  0  0  0  0  0  0  0  0  0
  144.0640   73.2490  219.0640 C   0  0  0  0  0  0  0  0  0  0  0  0
  142.6850   72.9730  218.5260 C   0  0  0  0  0  0  0  0  0  0  0  0
  141.8880   72.1840  219.4210 N   0  0  0  0  0  0  0  0  0  0  0  0
  141.2220   72.6700  220.5660 C   0  0  0  0  0  0  0  0  0  0  0  0
  140.9410   73.9830  220.6220 N   0  0  0  0  0  0  0  0  0  0  0  0
  140.2990   74.4930  221.6960 C   0  0  0  0  0  0  0  0  0  0  0  0
  140.0260   75.9040  221.7250 N   0  0  0  0  0  0  0  0  0  0  0  0
  138.7850   76.3060  222.3370 C   0  0  0  0  0  0  0  0  0  0  0  0
  138.5950   77.8000  222.3270 C   0  0  0  0  0  0  0  0  0  0  0  0
  139.8520   78.5230  222.6420 C   0  0  0  0  0  0  0  0  0  0  0  0
  139.8480   79.6210  223.4740 C   0  0  0  0  0  0  0  0  0  0  0  0
  141.0370   80.2640  223.7430 C   0  0  0  0  0  0  0  0  0  0  0  0
  142.2320   79.8060  223.1780 C   0  0  0  0  0  0  0  0  0  0  0  0
  142.1780   78.6990  222.3510 C   0  0  0  0  0  0  0  0  0  0  0  0
  141.0090   78.0290  222.0580 C   0  0  0  0  0  0  0  0  0  0  0  0
  140.9850   76.8310  221.1550 C   0  0  0  0  0  0  0  0  0  0  0  0
  139.9340   73.6930  222.7190 N   0  0  0  0  0  0  0  0  0  0  0  0
  140.2110   72.3560  222.6830 C   0  0  0  0  0  0  0  0  0  0  0  0
  139.8450   71.4800  223.7390 N   0  0  0  0  0  0  0  0  0  0  0  0
  138.7470   70.5470  223.5730 C   0  0  0  0  0  0  0  0  0  0  0  0
  139.1810   69.1260  223.8670 C   0  0  0  0  0  0  0  0  0  0  0  0
  139.7330   69.1480  225.2540 C   0  0  0  0  0  0  0  0  0  0  0  0
  139.5910   68.0070  226.0510 C   0  0  0  0  0  0  0  0  0  0  0  0
  140.0970   68.0160  227.3430 C   0  0  0  0  0  0  0  0  0  0  0  0
  140.7440   69.1180  227.8760 C   0  0  0  0  0  0  0  0  0  0  0  0
  140.8720   70.2400  227.0640 C   0  0  0  0  0  0  0  0  0  0  0  0
  140.3740   70.2610  225.7650 C   0  0  0  0  0  0  0  0  0  0  0  0
  140.5690   71.5120  224.9930 C   0  0  0  0  0  0  0  0  0  0  0  0
  140.8530   71.8730  221.5990 N   0  0  0  0  0  0  0  0  0  0  0  0
  144.6220   71.9530  219.6080 C   0  0  0  0  0  0  0  0  0  0  0  0
  146.0240   72.1810  220.1050 C   0  0  0  0  0  0  0  0  0  0  0  0
  146.0080   73.2490  221.1640 C   0  0  0  0  0  0  0  0  0  0  0  0
  145.3720   74.5180  220.6570 C   0  0  0  0  0  0  0  0  0  0  0  0
  143.9470   74.1920  220.2480 C   0  0  0  0  0  0  0  0  0  0  0  0
  145.4259   72.0081  217.1654 H   0  0  0  0  0  0  0  0  0  0  0  0
  144.2386   73.0643  216.3278 H   0  0  0  0  0  0  0  0  0  0  0  0
  145.9821   73.4967  216.3278 H   0  0  0  0  0  0  0  0  0  0  0  0
  145.8830   74.1250  218.5410 H   0  0  0  0  0  0  0  0  0  0  0  0
  142.1757   73.9328  218.3548 H   0  0  0  0  0  0  0  0  0  0  0  0
  142.8010   72.4013  217.5934 H   0  0  0  0  0  0  0  0  0  0  0  0
  141.7910   71.1660  219.2090 H   0  0  0  0  0  0  0  0  0  0  0  0
  137.9535   75.8409  221.7872 H   0  0  0  0  0  0  0  0  0  0  0  0
  138.8085   75.9788  223.3870 H   0  0  0  0  0  0  0  0  0  0  0  0
  138.2493   78.1072  221.3289 H   0  0  0  0  0  0  0  0  0  0  0  0
  137.8548   78.0533  223.1003 H   0  0  0  0  0  0  0  0  0  0  0  0
  138.9078   79.9800  223.9180 H   0  0  0  0  0  0  0  0  0  0  0  0
  141.0464   81.1420  224.4055 H   0  0  0  0  0  0  0  0  0  0  0  0
  143.1866   80.3116  223.3855 H   0  0  0  0  0  0  0  0  0  0  0  0
  143.1149   78.3345  221.9044 H   0  0  0  0  0  0  0  0  0  0  0  0
  140.6732   77.1251  220.1419 H   0  0  0  0  0  0  0  0  0  0  0  0
  141.9819   76.3729  221.0757 H   0  0  0  0  0  0  0  0  0  0  0  0
  137.9352   70.8232  224.2620 H   0  0  0  0  0  0  0  0  0  0  0  0
  138.4056   70.5960  222.5285 H   0  0  0  0  0  0  0  0  0  0  0  0
  138.3209   68.4428  223.8078 H   0  0  0  0  0  0  0  0  0  0  0  0
  139.9267   68.7718  223.1401 H   0  0  0  0  0  0  0  0  0  0  0  0
  139.0842   67.1133  225.6580 H   0  0  0  0  0  0  0  0  0  0  0  0
  139.9801   67.1165  227.9653 H   0  0  0  0  0  0  0  0  0  0  0  0
  141.1413   69.1066  228.9017 H   0  0  0  0  0  0  0  0  0  0  0  0
  141.3794   71.1327  227.4585 H   0  0  0  0  0  0  0  0  0  0  0  0
  140.2091   72.3615  225.5920 H   0  0  0  0  0  0  0  0  0  0  0  0
  141.6411   71.6165  224.7701 H   0  0  0  0  0  0  0  0  0  0  0  0
  143.9912   71.6017  220.4379 H   0  0  0  0  0  0  0  0  0  0  0  0
  144.6339   71.1952  218.8108 H   0  0  0  0  0  0  0  0  0  0  0  0
  146.4194   71.2470  220.5309 H   0  0  0  0  0  0  0  0  0  0  0  0
  146.6641   72.5001  219.2693 H   0  0  0  0  0  0  0  0  0  0  0  0
  145.4375   72.8846  222.0310 H   0  0  0  0  0  0  0  0  0  0  0  0
  147.0476   73.4720  221.4460 H   0  0  0  0  0  0  0  0  0  0  0  0
  145.3684   75.2782  221.4520 H   0  0  0  0  0  0  0  0  0  0  0  0
  145.9363   74.9147  219.8001 H   0  0  0  0  0  0  0  0  0  0  0  0
  143.4128   73.7032  221.0761 H   0  0  0  0  0  0  0  0  0  0  0  0
  143.3815   75.0994  219.9895 H   0  0  0  0  0  0  0  0  0  0  0  0
  1  2  1  0
  2  3  1  0
  3  4  1  0
  4  5  1  0
  5  6  1  0
  6  7  2  0
  7  8  1  0
  8  9  1  0
  9 10  1  0
 10 11  1  0
 11 12  1  0
 12 13  2  0
 13 14  1  0
 14 15  2  0
 15 16  1  0
 16 17  2  0
 17 18  1  0
  8 19  2  0
 19 20  1  0
 20 21  1  0
 21 22  1  0
 22 23  1  0
 23 24  1  0
 24 25  2  0
 25 26  1  0
 26 27  2  0
 27 28  1  0
 28 29  2  0
 29 30  1  0
 20 31  2  0
  3 32  1  0
 32 33  1  0
 33 34  1  0
 34 35  1  0
 35 36  1  0
 36  3  1  0
 31  6  1  0
 18  9  1  0
 30 21  1  0
 17 12  1  0
 29 24  1  0
  1 37  1  0
  1 38  1  0
  1 39  1  0
  2 40  1  0
  4 41  1  0
  4 42  1  0
  5 43  1  0
 10 44  1  0
 10 45  1  0
 11 46  1  0
 11 47  1  0
 13 48  1  0
 14 49  1  0
 15 50  1  0
 16 51  1  0
 18 52  1  0
 18 53  1  0
 22 54  1  0
 22 55  1  0
 23 56  1  0
 23 57  1  0
 25 58  1  0
 26 59  1  0
 27 60  1  0
 28 61  1  0
 30 62  1  0
 30 63  1  0
 32 64  1  0
 32 65  1  0
 33 66  1  0
 33 67  1  0
 34 68  1  0
 34 69  1  0
 35 70  1  0
 35 71  1  0
 36 72  1  0
 36 73  1  0
M  END
>  <smiles>  (12) 
CNC1(CNc2nc(N3CCc4ccccc4C3)nc(N3CCc4ccccc4C3)n2)CCCCC1

>  <score_type>  (12) 
oracle

>  <origin>  (12) 
autodockgpu

>  <m_score__min__energy>  (12) 
-10.869999999999999

>  <m_primary>  (12) 
energy

>  <rmsd>  (12) 
5.203826948146324

>  <m_score__min__rmsd>  (12) 
5.203826948146324

>  <meeko>  (12) 
{"free_energy": -10.77, "intermolecular_energy": -12.56, "internal_energy": -1.41, "cluster_size": 29, "cluster_id": 1, "rank_in_cluster": 3}

>  <energy>  (12) 
-10.37

>  <cluster_rmsd>  (12) 
0.59

>  <cluster>  (12) 
1

$$$$

     RDKit          3D

 73 78  0  0  0  0  0  0  0  0999 V2000
  142.9280   76.4270  219.7110 C   0  0  0  0  0  0  0  0  0  0  0  0
  142.4580   77.5480  220.4570 N   0  0  0  0  0  0  0  0  0  0  0  0
  141.0880   77.5140  220.8510 C   0  0  0  0  0  0  0  0  0  0  0  0
  140.3140   76.3180  220.3610 C   0  0  0  0  0  0  0  0  0  0  0  0
  139.8980   75.4520  221.4280 N   0  0  0  0  0  0  0  0  0  0  0  0
  140.4080   74.1610  221.6770 C   0  0  0  0  0  0  0  0  0  0  0  0
  141.3410   73.6780  220.8380 N   0  0  0  0  0  0  0  0  0  0  0  0
  141.8620   72.4480  221.0400 C   0  0  0  0  0  0  0  0  0  0  0  0
  142.8490   71.9620  220.1150 N   0  0  0  0  0  0  0  0  0  0  0  0
  144.0630   72.7300  220.0100 C   0  0  0  0  0  0  0  0  0  0  0  0
  145.0370   72.1370  219.0250 C   0  0  0  0  0  0  0  0  0  0  0  0
  145.0950   70.6580  219.1240 C   0  0  0  0  0  0  0  0  0  0  0  0
  146.2980   69.9890  219.0560 C   0  0  0  0  0  0  0  0  0  0  0  0
  146.3090   68.6150  219.1530 C   0  0  0  0  0  0  0  0  0  0  0  0
  145.1130   67.9080  219.3170 C   0  0  0  0  0  0  0  0  0  0  0  0
  143.9350   68.6280  219.3780 C   0  0  0  0  0  0  0  0  0  0  0  0
  143.8830   70.0030  219.2860 C   0  0  0  0  0  0  0  0  0  0  0  0
  142.5860   70.7550  219.3550 C   0  0  0  0  0  0  0  0  0  0  0  0
  141.4540   71.6940  222.0820 N   0  0  0  0  0  0  0  0  0  0  0  0
  140.5070   72.1660  222.9460 C   0  0  0  0  0  0  0  0  0  0  0  0
  140.0490   71.4030  224.0540 N   0  0  0  0  0  0  0  0  0  0  0  0
  138.9010   70.5270  223.9180 C   0  0  0  0  0  0  0  0  0  0  0  0
  139.2350   69.1120  224.3440 C   0  0  0  0  0  0  0  0  0  0  0  0
  139.7350   69.2160  225.7460 C   0  0  0  0  0  0  0  0  0  0  0  0
  139.4930   68.1560  226.6260 C   0  0  0  0  0  0  0  0  0  0  0  0
  139.9520   68.2420  227.9330 C   0  0  0  0  0  0  0  0  0  0  0  0
  140.6470   69.3440  228.4020 C   0  0  0  0  0  0  0  0  0  0  0  0
  140.8750   70.3850  227.5080 C   0  0  0  0  0  0  0  0  0  0  0  0
  140.4260   70.3280  226.1910 C   0  0  0  0  0  0  0  0  0  0  0  0
  140.7280   71.4960  225.3310 C   0  0  0  0  0  0  0  0  0  0  0  0
  140.0020   73.3970  222.7210 N   0  0  0  0  0  0  0  0  0  0  0  0
  141.0040   77.5400  222.3600 C   0  0  0  0  0  0  0  0  0  0  0  0
  141.8140   78.6940  222.8870 C   0  0  0  0  0  0  0  0  0  0  0  0
  141.2960   79.9750  222.2940 C   0  0  0  0  0  0  0  0  0  0  0  0
  141.2920   79.9250  220.7880 C   0  0  0  0  0  0  0  0  0  0  0  0
  140.3960   78.7750  220.3640 C   0  0  0  0  0  0  0  0  0  0  0  0
  143.2586   75.6385  220.4031 H   0  0  0  0  0  0  0  0  0  0  0  0
  142.1157   76.0417  219.0773 H   0  0  0  0  0  0  0  0  0  0  0  0
  143.7722   76.7362  219.0773 H   0  0  0  0  0  0  0  0  0  0  0  0
  143.1140   77.8390  221.2200 H   0  0  0  0  0  0  0  0  0  0  0  0
  139.4202   76.6722  219.8265 H   0  0  0  0  0  0  0  0  0  0  0  0
  140.9787   75.7389  219.7031 H   0  0  0  0  0  0  0  0  0  0  0  0
  139.1580   75.8060  222.0750 H   0  0  0  0  0  0  0  0  0  0  0  0
  143.8086   73.7495  219.6844 H   0  0  0  0  0  0  0  0  0  0  0  0
  144.5453   72.7300  220.9986 H   0  0  0  0  0  0  0  0  0  0  0  0
  144.7251   72.4130  218.0069 H   0  0  0  0  0  0  0  0  0  0  0  0
  146.0371   72.5328  219.2553 H   0  0  0  0  0  0  0  0  0  0  0  0
  147.2379   70.5455  218.9259 H   0  0  0  0  0  0  0  0  0  0  0  0
  147.2635   68.0707  219.1012 H   0  0  0  0  0  0  0  0  0  0  0  0
  145.1103   66.8108  219.3951 H   0  0  0  0  0  0  0  0  0  0  0  0
  142.9917   68.0768  219.5064 H   0  0  0  0  0  0  0  0  0  0  0  0
  142.2411   71.0113  218.3424 H   0  0  0  0  0  0  0  0  0  0  0  0
  141.8002   70.1494  219.8301 H   0  0  0  0  0  0  0  0  0  0  0  0
  138.0834   70.9073  224.5480 H   0  0  0  0  0  0  0  0  0  0  0  0
  138.6010   70.5094  222.8598 H   0  0  0  0  0  0  0  0  0  0  0  0
  138.3370   68.4780  224.3038 H   0  0  0  0  0  0  0  0  0  0  0  0
  139.9841   68.6558  223.6801 H   0  0  0  0  0  0  0  0  0  0  0  0
  138.9453   67.2646  226.2861 H   0  0  0  0  0  0  0  0  0  0  0  0
  139.7569   67.4056  228.6203 H   0  0  0  0  0  0  0  0  0  0  0  0
  141.0048   69.3942  229.4409 H   0  0  0  0  0  0  0  0  0  0  0  0
  141.4235   71.2752  227.8497 H   0  0  0  0  0  0  0  0  0  0  0  0
  140.4008   72.4123  225.8442 H   0  0  0  0  0  0  0  0  0  0  0  0
  141.8120   71.5179  225.1455 H   0  0  0  0  0  0  0  0  0  0  0  0
  139.9543   77.6582  222.6670 H   0  0  0  0  0  0  0  0  0  0  0  0
  141.4005   76.5977  222.7659 H   0  0  0  0  0  0  0  0  0  0  0  0
  141.7267   78.7344  223.9828 H   0  0  0  0  0  0  0  0  0  0  0  0
  142.8703   78.5601  222.6106 H   0  0  0  0  0  0  0  0  0  0  0  0
  140.2684   80.1431  222.6487 H   0  0  0  0  0  0  0  0  0  0  0  0
  141.9586   80.7941  222.6102 H   0  0  0  0  0  0  0  0  0  0  0  0
  140.9033   80.8711  220.3833 H   0  0  0  0  0  0  0  0  0  0  0  0
  142.3129   79.7777  220.4058 H   0  0  0  0  0  0  0  0  0  0  0  0
  139.4032   78.8712  220.8277 H   0  0  0  0  0  0  0  0  0  0  0  0
  140.2432   78.7595  219.2748 H   0  0  0  0  0  0  0  0  0  0  0  0
  1  2  1  0
  2  3  1  0
  3  4  1  0
  4  5  1  0
  5  6  1  0
  6  7  2  0
  7  8  1  0
  8  9  1  0
  9 10  1  0
 10 11  1  0
 11 12  1  0
 12 13  2  0
 13 14  1  0
 14 15  2  0
 15 16  1  0
 16 17  2  0
 17 18  1  0
  8 19  2  0
 19 20  1  0
 20 21  1  0
 21 22  1  0
 22 23  1  0
 23 24  1  0
 24 25  2  0
 25 26  1  0
 26 27  2  0
 27 28  1  0
 28 29  2  0
 29 30  1  0
 20 31  2  0
  3 32  1  0
 32 33  1  0
 33 34  1  0
 34 35  1  0
 35 36  1  0
 36  3  1  0
 31  6  1  0
 18  9  1  0
 30 21  1  0
 17 12  1  0
 29 24  1  0
  1 37  1  0
  1 38  1  0
  1 39  1  0
  2 40  1  0
  4 41  1  0
  4 42  1  0
  5 43  1  0
 10 44  1  0
 10 45  1  0
 11 46  1  0
 11 47  1  0
 13 48  1  0
 14 49  1  0
 15 50  1  0
 16 51  1  0
 18 52  1  0
 18 53  1  0
 22 54  1  0
 22 55  1  0
 23 56  1  0
 23 57  1  0
 25 58  1  0
 26 59  1  0
 27 60  1  0
 28 61  1  0
 30 62  1  0
 30 63  1  0
 32 64  1  0
 32 65  1  0
 33 66  1  0
 33 67  1  0
 34 68  1  0
 34 69  1  0
 35 70  1  0
 35 71  1  0
 36 72  1  0
 36 73  1  0
M  END
>  <smiles>  (13) 
CNC1(CNc2nc(N3CCc4ccccc4C3)nc(N3CCc4ccccc4C3)n2)CCCCC1

>  <score_type>  (13) 
oracle

>  <origin>  (13) 
autodockgpu

>  <m_score__min__energy>  (13) 
-10.869999999999999

>  <m_primary>  (13) 
energy

>  <rmsd>  (13) 
10.321968256444451

>  <m_score__min__rmsd>  (13) 
10.321968256444451

>  <meeko>  (13) 
{"free_energy": -10.35, "intermolecular_energy": -12.14, "internal_energy": -1.33, "cluster_size": 16, "cluster_id": 2, "rank_in_cluster": 2}

>  <energy>  (13) 
-10.26

>  <cluster_rmsd>  (13) 
0.89

>  <cluster>  (13) 
1

$$$$

     RDKit          3D

 73 78  0  0  0  0  0  0  0  0999 V2000
  145.0910   72.6020  217.0760 C   0  0  0  0  0  0  0  0  0  0  0  0
  144.6700   73.4280  218.1610 N   0  0  0  0  0  0  0  0  0  0  0  0
  144.0420   72.7600  219.2540 C   0  0  0  0  0  0  0  0  0  0  0  0
  142.7360   72.0880  218.9250 C   0  0  0  0  0  0  0  0  0  0  0  0
  141.6140   72.9780  219.0200 N   0  0  0  0  0  0  0  0  0  0  0  0
  140.9720   73.3550  220.2180 C   0  0  0  0  0  0  0  0  0  0  0  0
  140.7340   74.6620  220.4220 N   0  0  0  0  0  0  0  0  0  0  0  0
  140.1160   75.0690  221.5530 C   0  0  0  0  0  0  0  0  0  0  0  0
  139.8890   76.4770  221.7410 N   0  0  0  0  0  0  0  0  0  0  0  0
  138.8000   76.8410  222.6120 C   0  0  0  0  0  0  0  0  0  0  0  0
  138.6500   78.3330  222.7520 C   0  0  0  0  0  0  0  0  0  0  0  0
  139.9620   79.0160  222.8710 C   0  0  0  0  0  0  0  0  0  0  0  0
  140.1470   80.0450  223.7680 C   0  0  0  0  0  0  0  0  0  0  0  0
  141.3810   80.6510  223.8500 C   0  0  0  0  0  0  0  0  0  0  0  0
  142.4330   80.2270  223.0310 C   0  0  0  0  0  0  0  0  0  0  0  0
  142.1920   79.1910  222.1480 C   0  0  0  0  0  0  0  0  0  0  0  0
  140.9720   78.5580  222.0380 C   0  0  0  0  0  0  0  0  0  0  0  0
  140.7440   77.4360  221.0680 C   0  0  0  0  0  0  0  0  0  0  0  0
  139.7310   74.1730  222.4850 N   0  0  0  0  0  0  0  0  0  0  0  0
  139.9640   72.8400  222.2970 C   0  0  0  0  0  0  0  0  0  0  0  0
  139.5770   71.8630  223.2530 N   0  0  0  0  0  0  0  0  0  0  0  0
  138.4190   71.0220  223.0160 C   0  0  0  0  0  0  0  0  0  0  0  0
  138.7750   69.5530  223.1210 C   0  0  0  0  0  0  0  0  0  0  0  0
  139.3670   69.3740  224.4800 C   0  0  0  0  0  0  0  0  0  0  0  0
  139.1780   68.1540  225.1390 C   0  0  0  0  0  0  0  0  0  0  0  0
  139.7230   67.9760  226.4030 C   0  0  0  0  0  0  0  0  0  0  0  0
  140.4500   68.9670  227.0410 C   0  0  0  0  0  0  0  0  0  0  0  0
  140.6230   70.1700  226.3660 C   0  0  0  0  0  0  0  0  0  0  0  0
  140.0890   70.3780  225.0970 C   0  0  0  0  0  0  0  0  0  0  0  0
  140.3380   71.7010  224.4750 C   0  0  0  0  0  0  0  0  0  0  0  0
  140.5830   72.4600  221.1600 N   0  0  0  0  0  0  0  0  0  0  0  0
  144.9840   71.7120  219.8020 C   0  0  0  0  0  0  0  0  0  0  0  0
  146.3200   72.3410  220.0910 C   0  0  0  0  0  0  0  0  0  0  0  0
  146.1370   73.4680  221.0700 C   0  0  0  0  0  0  0  0  0  0  0  0
  145.1320   74.4740  220.5720 C   0  0  0  0  0  0  0  0  0  0  0  0
  143.8100   73.7530  220.3790 C   0  0  0  0  0  0  0  0  0  0  0  0
  145.5572   71.6873  217.4710 H   0  0  0  0  0  0  0  0  0  0  0  0
  144.2199   72.3332  216.4604 H   0  0  0  0  0  0  0  0  0  0  0  0
  145.8203   73.1489  216.4604 H   0  0  0  0  0  0  0  0  0  0  0  0
  145.3920   74.1310  218.4480 H   0  0  0  0  0  0  0  0  0  0  0  0
  142.7899   71.6986  217.8976 H   0  0  0  0  0  0  0  0  0  0  0  0
  142.5834   71.2827  219.6587 H   0  0  0  0  0  0  0  0  0  0  0  0
  141.2430   73.3820  218.1320 H   0  0  0  0  0  0  0  0  0  0  0  0
  137.8664   76.4292  222.2011 H   0  0  0  0  0  0  0  0  0  0  0  0
  139.0172   76.4310  223.6094 H   0  0  0  0  0  0  0  0  0  0  0  0
  138.1265   78.7218  221.8661 H   0  0  0  0  0  0  0  0  0  0  0  0
  138.0794   78.5318  223.6712 H   0  0  0  0  0  0  0  0  0  0  0  0
  139.3192   80.3786  224.4110 H   0  0  0  0  0  0  0  0  0  0  0  0
  141.5403   81.4730  224.5634 H   0  0  0  0  0  0  0  0  0  0  0  0
  143.4226   80.7039  223.0880 H   0  0  0  0  0  0  0  0  0  0  0  0
  143.0151   78.8547  221.5004 H   0  0  0  0  0  0  0  0  0  0  0  0
  140.2509   77.8131  220.1599 H   0  0  0  0  0  0  0  0  0  0  0  0
  141.6949   76.9752  220.7622 H   0  0  0  0  0  0  0  0  0  0  0  0
  137.6461   71.2577  223.7624 H   0  0  0  0  0  0  0  0  0  0  0  0
  138.0498   71.2180  221.9985 H   0  0  0  0  0  0  0  0  0  0  0  0
  137.8740   68.9317  223.0108 H   0  0  0  0  0  0  0  0  0  0  0  0
  139.4768   69.2490  222.3304 H   0  0  0  0  0  0  0  0  0  0  0  0
  138.6045   67.3461  224.6611 H   0  0  0  0  0  0  0  0  0  0  0  0
  139.5723   67.0145  226.9157 H   0  0  0  0  0  0  0  0  0  0  0  0
  140.8743   68.8084  228.0434 H   0  0  0  0  0  0  0  0  0  0  0  0
  141.1957   70.9772  226.8461 H   0  0  0  0  0  0  0  0  0  0  0  0
  140.0479   72.4901  225.1844 H   0  0  0  0  0  0  0  0  0  0  0  0
  141.4076   71.7714  224.2282 H   0  0  0  0  0  0  0  0  0  0  0  0
  144.5672   71.2935  220.7300 H   0  0  0  0  0  0  0  0  0  0  0  0
  145.1094   70.9083  219.0615 H   0  0  0  0  0  0  0  0  0  0  0  0
  146.9960   71.5870  220.5207 H   0  0  0  0  0  0  0  0  0  0  0  0
  146.7539   72.7299  219.1580 H   0  0  0  0  0  0  0  0  0  0  0  0
  145.7861   73.0561  222.0277 H   0  0  0  0  0  0  0  0  0  0  0  0
  147.1037   73.9780  221.1939 H   0  0  0  0  0  0  0  0  0  0  0  0
  145.0137   75.2814  221.3097 H   0  0  0  0  0  0  0  0  0  0  0  0
  145.4698   74.9174  219.6237 H   0  0  0  0  0  0  0  0  0  0  0  0
  143.5222   73.2270  221.3012 H   0  0  0  0  0  0  0  0  0  0  0  0
  142.9971   74.4543  220.1394 H   0  0  0  0  0  0  0  0  0  0  0  0
  1  2  1  0
  2  3  1  0
  3  4  1  0
  4  5  1  0
  5  6  1  0
  6  7  2  0
  7  8  1  0
  8  9  1  0
  9 10  1  0
 10 11  1  0
 11 12  1  0
 12 13  2  0
 13 14  1  0
 14 15  2  0
 15 16  1  0
 16 17  2  0
 17 18  1  0
  8 19  2  0
 19 20  1  0
 20 21  1  0
 21 22  1  0
 22 23  1  0
 23 24  1  0
 24 25  2  0
 25 26  1  0
 26 27  2  0
 27 28  1  0
 28 29  2  0
 29 30  1  0
 20 31  2  0
  3 32  1  0
 32 33  1  0
 33 34  1  0
 34 35  1  0
 35 36  1  0
 36  3  1  0
 31  6  1  0
 18  9  1  0
 30 21  1  0
 17 12  1  0
 29 24  1  0
  1 37  1  0
  1 38  1  0
  1 39  1  0
  2 40  1  0
  4 41  1  0
  4 42  1  0
  5 43  1  0
 10 44  1  0
 10 45  1  0
 11 46  1  0
 11 47  1  0
 13 48  1  0
 14 49  1  0
 15 50  1  0
 16 51  1  0
 18 52  1  0
 18 53  1  0
 22 54  1  0
 22 55  1  0
 23 56  1  0
 23 57  1  0
 25 58  1  0
 26 59  1  0
 27 60  1  0
 28 61  1  0
 30 62  1  0
 30 63  1  0
 32 64  1  0
 32 65  1  0
 33 66  1  0
 33 67  1  0
 34 68  1  0
 34 69  1  0
 35 70  1  0
 35 71  1  0
 36 72  1  0
 36 73  1  0
M  END
>  <smiles>  (14) 
CNC1(CNc2nc(N3CCc4ccccc4C3)nc(N3CCc4ccccc4C3)n2)CCCCC1

>  <score_type>  (14) 
oracle

>  <origin>  (14) 
autodockgpu

>  <m_score__min__energy>  (14) 
-10.869999999999999

>  <m_primary>  (14) 
energy

>  <rmsd>  (14) 
5.340629933622059

>  <m_score__min__rmsd>  (14) 
5.340629933622059

>  <meeko>  (14) 
{"free_energy": -10.18, "intermolecular_energy": -11.97, "internal_energy": -1.11, "cluster_size": 29, "cluster_id": 1, "rank_in_cluster": 14}

>  <energy>  (14) 
-10.18

>  <cluster_rmsd>  (14) 
0.92

>  <cluster>  (14) 
1

$$$$

     RDKit          3D

 73 78  0  0  0  0  0  0  0  0999 V2000
  144.8400   73.0580  220.8370 C   0  0  0  0  0  0  0  0  0  0  0  0
  144.2580   71.7670  220.6600 N   0  0  0  0  0  0  0  0  0  0  0  0
  143.7830   71.4640  219.3500 C   0  0  0  0  0  0  0  0  0  0  0  0
  142.8280   72.4730  218.7680 C   0  0  0  0  0  0  0  0  0  0  0  0
  141.4760   72.2710  219.2030 N   0  0  0  0  0  0  0  0  0  0  0  0
  140.9280   72.7450  220.4140 C   0  0  0  0  0  0  0  0  0  0  0  0
  140.6890   74.0630  220.5240 N   0  0  0  0  0  0  0  0  0  0  0  0
  140.1600   74.5620  221.6640 C   0  0  0  0  0  0  0  0  0  0  0  0
  139.9290   75.9790  221.7480 N   0  0  0  0  0  0  0  0  0  0  0  0
  138.7360   76.3940  222.4430 C   0  0  0  0  0  0  0  0  0  0  0  0
  138.5880   77.8920  222.4860 C   0  0  0  0  0  0  0  0  0  0  0  0
  139.8810   78.5720  222.7480 C   0  0  0  0  0  0  0  0  0  0  0  0
  139.9560   79.6450  223.6090 C   0  0  0  0  0  0  0  0  0  0  0  0
  141.1760   80.2470  223.8270 C   0  0  0  0  0  0  0  0  0  0  0  0
  142.3230   79.7750  223.1810 C   0  0  0  0  0  0  0  0  0  0  0  0
  142.1900   78.6960  222.3270 C   0  0  0  0  0  0  0  0  0  0  0  0
  140.9880   78.0660  222.0840 C   0  0  0  0  0  0  0  0  0  0  0  0
  140.8790   76.8970  221.1500 C   0  0  0  0  0  0  0  0  0  0  0  0
  139.8670   73.7470  222.6970 N   0  0  0  0  0  0  0  0  0  0  0  0
  140.1030   72.4040  222.6060 C   0  0  0  0  0  0  0  0  0  0  0  0
  139.8110   71.5120  223.6720 N   0  0  0  0  0  0  0  0  0  0  0  0
  138.7160   70.5670  223.5580 C   0  0  0  0  0  0  0  0  0  0  0  0
  139.1840   69.1490  223.8100 C   0  0  0  0  0  0  0  0  0  0  0  0
  139.8150   69.1620  225.1620 C   0  0  0  0  0  0  0  0  0  0  0  0
  139.7340   68.0100  225.9530 C   0  0  0  0  0  0  0  0  0  0  0  0
  140.3150   68.0110  227.2130 C   0  0  0  0  0  0  0  0  0  0  0  0
  140.9780   69.1160  227.7210 C   0  0  0  0  0  0  0  0  0  0  0  0
  141.0450   70.2480  226.9170 C   0  0  0  0  0  0  0  0  0  0  0  0
  140.4710   70.2770  225.6480 C   0  0  0  0  0  0  0  0  0  0  0  0
  140.6070   71.5390  224.8820 C   0  0  0  0  0  0  0  0  0  0  0  0
  140.6320   71.9320  221.4580 N   0  0  0  0  0  0  0  0  0  0  0  0
  144.9620   71.3390  218.4110 C   0  0  0  0  0  0  0  0  0  0  0  0
  145.9640   70.3770  218.9910 C   0  0  0  0  0  0  0  0  0  0  0  0
  145.3040   69.0440  219.2090 C   0  0  0  0  0  0  0  0  0  0  0  0
  144.0740   69.1720  220.0710 C   0  0  0  0  0  0  0  0  0  0  0  0
  143.1060   70.1050  219.3660 C   0  0  0  0  0  0  0  0  0  0  0  0
  144.9367   73.2724  221.9116 H   0  0  0  0  0  0  0  0  0  0  0  0
  145.8347   73.0792  220.3679 H   0  0  0  0  0  0  0  0  0  0  0  0
  144.1972   73.8174  220.3679 H   0  0  0  0  0  0  0  0  0  0  0  0
  144.8180   70.9990  221.1000 H   0  0  0  0  0  0  0  0  0  0  0  0
  143.1496   73.4793  219.0744 H   0  0  0  0  0  0  0  0  0  0  0  0
  142.8462   72.3553  217.6745 H   0  0  0  0  0  0  0  0  0  0  0  0
  140.8430   71.7300  218.5730 H   0  0  0  0  0  0  0  0  0  0  0  0
  137.8617   75.9673  221.9296 H   0  0  0  0  0  0  0  0  0  0  0  0
  138.8099   76.0345  223.4800 H   0  0  0  0  0  0  0  0  0  0  0  0
  138.1947   78.2378  221.5186 H   0  0  0  0  0  0  0  0  0  0  0  0
  137.9006   78.1417  223.3077 H   0  0  0  0  0  0  0  0  0  0  0  0
  139.0532   80.0164  224.1160 H   0  0  0  0  0  0  0  0  0  0  0  0
  141.2482   81.1038  224.5131 H   0  0  0  0  0  0  0  0  0  0  0  0
  143.3020   80.2482  223.3474 H   0  0  0  0  0  0  0  0  0  0  0  0
  143.0888   78.3211  221.8154 H   0  0  0  0  0  0  0  0  0  0  0  0
  140.5180   77.2296  220.1656 H   0  0  0  0  0  0  0  0  0  0  0  0
  141.8566   76.4156  220.9997 H   0  0  0  0  0  0  0  0  0  0  0  0
  137.9418   70.8251  224.2955 H   0  0  0  0  0  0  0  0  0  0  0  0
  138.3141   70.6233  222.5356 H   0  0  0  0  0  0  0  0  0  0  0  0
  138.3304   68.4554  223.7926 H   0  0  0  0  0  0  0  0  0  0  0  0
  139.8910   68.8132  223.0371 H   0  0  0  0  0  0  0  0  0  0  0  0
  139.2157   67.1143  225.5800 H   0  0  0  0  0  0  0  0  0  0  0  0
  140.2467   67.1028  227.8299 H   0  0  0  0  0  0  0  0  0  0  0  0
  141.4339   69.0984  228.7219 H   0  0  0  0  0  0  0  0  0  0  0  0
  141.5638   71.1426  227.2919 H   0  0  0  0  0  0  0  0  0  0  0  0
  140.2731   72.3772  225.5113 H   0  0  0  0  0  0  0  0  0  0  0  0
  141.6630   71.6596  224.5987 H   0  0  0  0  0  0  0  0  0  0  0  0
  144.6164   70.9652  217.4359 H   0  0  0  0  0  0  0  0  0  0  0  0
  145.4327   72.3245  218.2794 H   0  0  0  0  0  0  0  0  0  0  0  0
  146.8071   70.2601  218.2942 H   0  0  0  0  0  0  0  0  0  0  0  0
  146.3355   70.7657  219.9506 H   0  0  0  0  0  0  0  0  0  0  0  0
  145.0154   68.6242  218.2341 H   0  0  0  0  0  0  0  0  0  0  0  0
  146.0188   68.3844  219.7227 H   0  0  0  0  0  0  0  0  0  0  0  0
  143.6089   68.1846  220.2078 H   0  0  0  0  0  0  0  0  0  0  0  0
  144.3394   69.5715  221.0609 H   0  0  0  0  0  0  0  0  0  0  0  0
  142.9180   69.7581  218.3392 H   0  0  0  0  0  0  0  0  0  0  0  0
  142.1328   70.1423  219.8774 H   0  0  0  0  0  0  0  0  0  0  0  0
  1  2  1  0
  2  3  1  0
  3  4  1  0
  4  5  1  0
  5  6  1  0
  6  7  2  0
  7  8  1  0
  8  9  1  0
  9 10  1  0
 10 11  1  0
 11 12  1  0
 12 13  2  0
 13 14  1  0
 14 15  2  0
 15 16  1  0
 16 17  2  0
 17 18  1  0
  8 19  2  0
 19 20  1  0
 20 21  1  0
 21 22  1  0
 22 23  1  0
 23 24  1  0
 24 25  2  0
 25 26  1  0
 26 27  2  0
 27 28  1  0
 28 29  2  0
 29 30  1  0
 20 31  2  0
  3 32  1  0
 32 33  1  0
 33 34  1  0
 34 35  1  0
 35 36  1  0
 36  3  1  0
 31  6  1  0
 18  9  1  0
 30 21  1  0
 17 12  1  0
 29 24  1  0
  1 37  1  0
  1 38  1  0
  1 39  1  0
  2 40  1  0
  4 41  1  0
  4 42  1  0
  5 43  1  0
 10 44  1  0
 10 45  1  0
 11 46  1  0
 11 47  1  0
 13 48  1  0
 14 49  1  0
 15 50  1  0
 16 51  1  0
 18 52  1  0
 18 53  1  0
 22 54  1  0
 22 55  1  0
 23 56  1  0
 23 57  1  0
 25 58  1  0
 26 59  1  0
 27 60  1  0
 28 61  1  0
 30 62  1  0
 30 63  1  0
 32 64  1  0
 32 65  1  0
 33 66  1  0
 33 67  1  0
 34 68  1  0
 34 69  1  0
 35 70  1  0
 35 71  1  0
 36 72  1  0
 36 73  1  0
M  END
>  <smiles>  (15) 
CNC1(CNc2nc(N3CCc4ccccc4C3)nc(N3CCc4ccccc4C3)n2)CCCCC1

>  <score_type>  (15) 
oracle

>  <origin>  (15) 
autodockgpu

>  <m_score__min__energy>  (15) 
-10.869999999999999

>  <m_primary>  (15) 
energy

>  <rmsd>  (15) 
5.267559168250216

>  <m_score__min__rmsd>  (15) 
5.267559168250216

>  <meeko>  (15) 
{"free_energy": -9.94, "intermolecular_energy": -11.73, "internal_energy": -1.37, "cluster_size": 29, "cluster_id": 1, "rank_in_cluster": 17}

>  <energy>  (15) 
-10.15

>  <cluster_rmsd>  (15) 
0.79

>  <cluster>  (15) 
1

$$$$

     RDKit          3D

 73 78  0  0  0  0  0  0  0  0999 V2000
  145.5500   71.8510  217.9860 C   0  0  0  0  0  0  0  0  0  0  0  0
  144.9600   73.1000  218.3450 N   0  0  0  0  0  0  0  0  0  0  0  0
  143.7260   73.0340  219.0570 C   0  0  0  0  0  0  0  0  0  0  0  0
  143.2050   71.6420  219.3010 C   0  0  0  0  0  0  0  0  0  0  0  0
  141.7950   71.6160  219.5650 N   0  0  0  0  0  0  0  0  0  0  0  0
  141.1630   72.1950  220.6850 C   0  0  0  0  0  0  0  0  0  0  0  0
  140.8650   73.5050  220.6360 N   0  0  0  0  0  0  0  0  0  0  0  0
  140.2560   74.1000  221.6840 C   0  0  0  0  0  0  0  0  0  0  0  0
  139.9630   75.5060  221.5980 N   0  0  0  0  0  0  0  0  0  0  0  0
  138.5720   75.8770  221.6620 C   0  0  0  0  0  0  0  0  0  0  0  0
  138.3700   77.3670  221.5730 C   0  0  0  0  0  0  0  0  0  0  0  0
  139.3790   78.1130  222.3640 C   0  0  0  0  0  0  0  0  0  0  0  0
  139.0200   79.2060  223.1220 C   0  0  0  0  0  0  0  0  0  0  0  0
  139.9860   79.8710  223.8440 C   0  0  0  0  0  0  0  0  0  0  0  0
  141.3180   79.4420  223.8050 C   0  0  0  0  0  0  0  0  0  0  0  0
  141.6230   78.3400  223.0280 C   0  0  0  0  0  0  0  0  0  0  0  0
  140.6840   77.6480  222.2930 C   0  0  0  0  0  0  0  0  0  0  0  0
  141.0500   76.4560  221.4580 C   0  0  0  0  0  0  0  0  0  0  0  0
  139.9390   73.3910  222.7870 N   0  0  0  0  0  0  0  0  0  0  0  0
  140.2340   72.0580  222.8580 C   0  0  0  0  0  0  0  0  0  0  0  0
  139.9200   71.2760  224.0010 N   0  0  0  0  0  0  0  0  0  0  0  0
  138.8500   70.2980  223.9490 C   0  0  0  0  0  0  0  0  0  0  0  0
  139.3370   68.9250  224.3660 C   0  0  0  0  0  0  0  0  0  0  0  0
  139.9160   69.0960  225.7300 C   0  0  0  0  0  0  0  0  0  0  0  0
  139.8290   68.0310  226.6350 C   0  0  0  0  0  0  0  0  0  0  0  0
  140.3620   68.1780  227.9080 C   0  0  0  0  0  0  0  0  0  0  0  0
  140.9820   69.3460  228.3190 C   0  0  0  0  0  0  0  0  0  0  0  0
  141.0560   70.3890  227.4030 C   0  0  0  0  0  0  0  0  0  0  0  0
  140.5300   70.2710  226.1190 C   0  0  0  0  0  0  0  0  0  0  0  0
  140.6690   71.4490  225.2290 C   0  0  0  0  0  0  0  0  0  0  0  0
  140.8430   71.4880  221.7980 N   0  0  0  0  0  0  0  0  0  0  0  0
  143.8890   73.7150  220.3980 C   0  0  0  0  0  0  0  0  0  0  0  0
  144.4610   75.0910  220.1940 C   0  0  0  0  0  0  0  0  0  0  0  0
  143.5490   75.8800  219.2950 C   0  0  0  0  0  0  0  0  0  0  0  0
  143.3090   75.1660  217.9900 C   0  0  0  0  0  0  0  0  0  0  0  0
  142.6710   73.8240  218.3040 C   0  0  0  0  0  0  0  0  0  0  0  0
  145.8130   71.2942  218.8975 H   0  0  0  0  0  0  0  0  0  0  0  0
  144.8338   71.2644  217.3919 H   0  0  0  0  0  0  0  0  0  0  0  0
  146.4580   72.0317  217.3919 H   0  0  0  0  0  0  0  0  0  0  0  0
  145.6480   73.7800  218.7470 H   0  0  0  0  0  0  0  0  0  0  0  0
  143.4074   71.0295  218.4100 H   0  0  0  0  0  0  0  0  0  0  0  0
  143.7167   71.2474  220.1912 H   0  0  0  0  0  0  0  0  0  0  0  0
  141.1840   71.1310  218.8700 H   0  0  0  0  0  0  0  0  0  0  0  0
  138.0399   75.3980  220.8269 H   0  0  0  0  0  0  0  0  0  0  0  0
  138.1804   75.5431  222.6342 H   0  0  0  0  0  0  0  0  0  0  0  0
  138.4473   77.6735  220.5194 H   0  0  0  0  0  0  0  0  0  0  0  0
  137.3764   77.6002  221.9835 H   0  0  0  0  0  0  0  0  0  0  0  0
  137.9735   79.5437  223.1502 H   0  0  0  0  0  0  0  0  0  0  0  0
  139.7096   80.7435  224.4543 H   0  0  0  0  0  0  0  0  0  0  0  0
  142.0987   79.9662  224.3756 H   0  0  0  0  0  0  0  0  0  0  0  0
  142.6679   77.9979  222.9945 H   0  0  0  0  0  0  0  0  0  0  0  0
  141.1639   76.7506  220.4043 H   0  0  0  0  0  0  0  0  0  0  0  0
  142.0050   76.0190  221.7853 H   0  0  0  0  0  0  0  0  0  0  0  0
  138.0434   70.6132  224.6273 H   0  0  0  0  0  0  0  0  0  0  0  0
  138.4861   70.2369  222.9127 H   0  0  0  0  0  0  0  0  0  0  0  0
  138.4990   68.2130  224.3921 H   0  0  0  0  0  0  0  0  0  0  0  0
  140.0789   68.5265  223.6583 H   0  0  0  0  0  0  0  0  0  0  0  0
  139.3438   67.0888  226.3404 H   0  0  0  0  0  0  0  0  0  0  0  0
  140.2895   67.3381  228.6146 H   0  0  0  0  0  0  0  0  0  0  0  0
  141.4000   69.4447  229.3317 H   0  0  0  0  0  0  0  0  0  0  0  0
  141.5418   71.3303  227.6996 H   0  0  0  0  0  0  0  0  0  0  0  0
  140.2945   72.3402  225.7540 H   0  0  0  0  0  0  0  0  0  0  0  0
  141.7323   71.5648  224.9722 H   0  0  0  0  0  0  0  0  0  0  0  0
  142.9087   73.7945  220.8907 H   0  0  0  0  0  0  0  0  0  0  0  0
  144.5692   73.1245  221.0294 H   0  0  0  0  0  0  0  0  0  0  0  0
  144.5498   75.5997  221.1652 H   0  0  0  0  0  0  0  0  0  0  0  0
  145.4560   75.0117  219.7317 H   0  0  0  0  0  0  0  0  0  0  0  0
  142.5853   76.0281  219.8042 H   0  0  0  0  0  0  0  0  0  0  0  0
  144.0287   76.8457  219.0775 H   0  0  0  0  0  0  0  0  0  0  0  0
  142.6351   75.7613  217.3564 H   0  0  0  0  0  0  0  0  0  0  0  0
  144.2571   75.0233  217.4507 H   0  0  0  0  0  0  0  0  0  0  0  0
  141.7762   73.9615  218.9288 H   0  0  0  0  0  0  0  0  0  0  0  0
  142.3494   73.3035  217.3899 H   0  0  0  0  0  0  0  0  0  0  0  0
  1  2  1  0
  2  3  1  0
  3  4  1  0
  4  5  1  0
  5  6  1  0
  6  7  2  0
  7  8  1  0
  8  9  1  0
  9 10  1  0
 10 11  1  0
 11 12  1  0
 12 13  2  0
 13 14  1  0
 14 15  2  0
 15 16  1  0
 16 17  2  0
 17 18  1  0
  8 19  2  0
 19 20  1  0
 20 21  1  0
 21 22  1  0
 22 23  1  0
 23 24  1  0
 24 25  2  0
 25 26  1  0
 26 27  2  0
 27 28  1  0
 28 29  2  0
 29 30  1  0
 20 31  2  0
  3 32  1  0
 32 33  1  0
 33 34  1  0
 34 35  1  0
 35 36  1  0
 36  3  1  0
 31  6  1  0
 18  9  1  0
 30 21  1  0
 17 12  1  0
 29 24  1  0
  1 37  1  0
  1 38  1  0
  1 39  1  0
  2 40  1  0
  4 41  1  0
  4 42  1  0
  5 43  1  0
 10 44  1  0
 10 45  1  0
 11 46  1  0
 11 47  1  0
 13 48  1  0
 14 49  1  0
 15 50  1  0
 16 51  1  0
 18 52  1  0
 18 53  1  0
 22 54  1  0
 22 55  1  0
 23 56  1  0
 23 57  1  0
 25 58  1  0
 26 59  1  0
 27 60  1  0
 28 61  1  0
 30 62  1  0
 30 63  1  0
 32 64  1  0
 32 65  1  0
 33 66  1  0
 33 67  1  0
 34 68  1  0
 34 69  1  0
 35 70  1  0
 35 71  1  0
 36 72  1  0
 36 73  1  0
M  END
>  <smiles>  (16) 
CNC1(CNc2nc(N3CCc4ccccc4C3)nc(N3CCc4ccccc4C3)n2)CCCCC1

>  <score_type>  (16) 
oracle

>  <origin>  (16) 
autodockgpu

>  <m_score__min__energy>  (16) 
-10.869999999999999

>  <m_primary>  (16) 
energy

>  <rmsd>  (16) 
5.130900516316094

>  <m_score__min__rmsd>  (16) 
5.130900516316094

>  <meeko>  (16) 
{"free_energy": -9.8, "intermolecular_energy": -11.59, "internal_energy": -1.71, "cluster_size": 29, "cluster_id": 1, "rank_in_cluster": 21}

>  <energy>  (16) 
-10.09

>  <cluster_rmsd>  (16) 
0.91

>  <cluster>  (16) 
1

$$$$

     RDKit          3D

 73 78  0  0  0  0  0  0  0  0999 V2000
  142.5500   74.9500  218.5050 C   0  0  0  0  0  0  0  0  0  0  0  0
  143.4490   74.2840  219.3900 N   0  0  0  0  0  0  0  0  0  0  0  0
  143.6160   72.8820  219.1830 C   0  0  0  0  0  0  0  0  0  0  0  0
  142.4500   72.1920  218.5260 C   0  0  0  0  0  0  0  0  0  0  0  0
  141.5890   71.5390  219.4700 N   0  0  0  0  0  0  0  0  0  0  0  0
  141.0160   72.1470  220.6070 C   0  0  0  0  0  0  0  0  0  0  0  0
  140.7560   73.4650  220.5560 N   0  0  0  0  0  0  0  0  0  0  0  0
  140.2030   74.0880  221.6200 C   0  0  0  0  0  0  0  0  0  0  0  0
  139.9510   75.5000  221.5310 N   0  0  0  0  0  0  0  0  0  0  0  0
  138.5680   75.9070  221.5390 C   0  0  0  0  0  0  0  0  0  0  0  0
  138.4080   77.4030  221.4520 C   0  0  0  0  0  0  0  0  0  0  0  0
  139.4030   78.1180  222.2890 C   0  0  0  0  0  0  0  0  0  0  0  0
  139.0400   79.2160  223.0380 C   0  0  0  0  0  0  0  0  0  0  0  0
  139.9940   79.8520  223.8030 C   0  0  0  0  0  0  0  0  0  0  0  0
  141.3140   79.3880  223.8170 C   0  0  0  0  0  0  0  0  0  0  0  0
  141.6230   78.2830  223.0450 C   0  0  0  0  0  0  0  0  0  0  0  0
  140.6970   77.6200  222.2680 C   0  0  0  0  0  0  0  0  0  0  0  0
  141.0660   76.4230  221.4410 C   0  0  0  0  0  0  0  0  0  0  0  0
  139.9050   73.3970  222.7390 N   0  0  0  0  0  0  0  0  0  0  0  0
  140.1610   72.0570  222.8130 C   0  0  0  0  0  0  0  0  0  0  0  0
  139.8650   71.2940  223.9740 N   0  0  0  0  0  0  0  0  0  0  0  0
  138.7850   70.3260  223.9590 C   0  0  0  0  0  0  0  0  0  0  0  0
  139.2680   68.9550  224.3850 C   0  0  0  0  0  0  0  0  0  0  0  0
  139.8780   69.1390  225.7340 C   0  0  0  0  0  0  0  0  0  0  0  0
  139.8000   68.0890  226.6560 C   0  0  0  0  0  0  0  0  0  0  0  0
  140.3620   68.2490  227.9140 C   0  0  0  0  0  0  0  0  0  0  0  0
  141.0020   69.4170  228.2950 C   0  0  0  0  0  0  0  0  0  0  0  0
  141.0670   70.4450  227.3620 C   0  0  0  0  0  0  0  0  0  0  0  0
  140.5120   70.3150  226.0920 C   0  0  0  0  0  0  0  0  0  0  0  0
  140.6420   71.4780  225.1820 C   0  0  0  0  0  0  0  0  0  0  0  0
  140.7150   71.4600  221.7370 N   0  0  0  0  0  0  0  0  0  0  0  0
  144.8410   72.6500  218.3270 C   0  0  0  0  0  0  0  0  0  0  0  0
  146.0160   73.3750  218.9280 C   0  0  0  0  0  0  0  0  0  0  0  0
  146.2370   72.8840  220.3320 C   0  0  0  0  0  0  0  0  0  0  0  0
  144.9920   73.0290  221.1690 C   0  0  0  0  0  0  0  0  0  0  0  0
  143.8940   72.2100  220.5150 C   0  0  0  0  0  0  0  0  0  0  0  0
  141.8019   75.5042  219.0909 H   0  0  0  0  0  0  0  0  0  0  0  0
  143.1121   75.6514  217.8708 H   0  0  0  0  0  0  0  0  0  0  0  0
  142.0428   74.2080  217.8708 H   0  0  0  0  0  0  0  0  0  0  0  0
  144.3470   74.8040  219.5340 H   0  0  0  0  0  0  0  0  0  0  0  0
  141.8632   72.9412  217.9742 H   0  0  0  0  0  0  0  0  0  0  0  0
  142.8557   71.4191  217.8566 H   0  0  0  0  0  0  0  0  0  0  0  0
  141.3650   70.5340  219.3020 H   0  0  0  0  0  0  0  0  0  0  0  0
  138.0595   75.4469  220.6789 H   0  0  0  0  0  0  0  0  0  0  0  0
  138.1274   75.5778  222.4916 H   0  0  0  0  0  0  0  0  0  0  0  0
  138.5363   77.7136  220.4046 H   0  0  0  0  0  0  0  0  0  0  0  0
  137.4048   77.6596  221.8230 H   0  0  0  0  0  0  0  0  0  0  0  0
  138.0022   79.5804  223.0256 H   0  0  0  0  0  0  0  0  0  0  0  0
  139.7161   80.7291  224.4058 H   0  0  0  0  0  0  0  0  0  0  0  0
  142.0833   79.8875  224.4242 H   0  0  0  0  0  0  0  0  0  0  0  0
  142.6595   77.9146  223.0512 H   0  0  0  0  0  0  0  0  0  0  0  0
  141.2297   76.7201  220.3946 H   0  0  0  0  0  0  0  0  0  0  0  0
  141.9955   75.9602  221.8041 H   0  0  0  0  0  0  0  0  0  0  0  0
  137.9963   70.6586  224.6499 H   0  0  0  0  0  0  0  0  0  0  0  0
  138.3980   70.2538  222.9318 H   0  0  0  0  0  0  0  0  0  0  0  0
  138.4241   68.2515  224.4391 H   0  0  0  0  0  0  0  0  0  0  0  0
  139.9910   68.5398  223.6674 H   0  0  0  0  0  0  0  0  0  0  0  0
  139.2988   67.1477  226.3862 H   0  0  0  0  0  0  0  0  0  0  0  0
  140.2972   67.4198  228.6339 H   0  0  0  0  0  0  0  0  0  0  0  0
  141.4418   69.5266  229.2973 H   0  0  0  0  0  0  0  0  0  0  0  0
  141.5696   71.3849  227.6339 H   0  0  0  0  0  0  0  0  0  0  0  0
  140.2872   72.3803  225.7016 H   0  0  0  0  0  0  0  0  0  0  0  0
  141.7004   71.5801  224.9003 H   0  0  0  0  0  0  0  0  0  0  0  0
  145.0585   71.5727  218.2819 H   0  0  0  0  0  0  0  0  0  0  0  0
  144.6562   73.0288  217.3109 H   0  0  0  0  0  0  0  0  0  0  0  0
  146.9153   73.1809  218.3249 H   0  0  0  0  0  0  0  0  0  0  0  0
  145.8138   74.4561  218.9430 H   0  0  0  0  0  0  0  0  0  0  0  0
  146.5240   71.8226  220.2987 H   0  0  0  0  0  0  0  0  0  0  0  0
  147.0332   73.4902  220.7888 H   0  0  0  0  0  0  0  0  0  0  0  0
  145.1802   72.6570  222.1869 H   0  0  0  0  0  0  0  0  0  0  0  0
  144.6948   74.0860  221.2350 H   0  0  0  0  0  0  0  0  0  0  0  0
  144.2298   71.1742  220.3590 H   0  0  0  0  0  0  0  0  0  0  0  0
  142.9920   72.1666  221.1431 H   0  0  0  0  0  0  0  0  0  0  0  0
  1  2  1  0
  2  3  1  0
  3  4  1  0
  4  5  1  0
  5  6  1  0
  6  7  2  0
  7  8  1  0
  8  9  1  0
  9 10  1  0
 10 11  1  0
 11 12  1  0
 12 13  2  0
 13 14  1  0
 14 15  2  0
 15 16  1  0
 16 17  2  0
 17 18  1  0
  8 19  2  0
 19 20  1  0
 20 21  1  0
 21 22  1  0
 22 23  1  0
 23 24  1  0
 24 25  2  0
 25 26  1  0
 26 27  2  0
 27 28  1  0
 28 29  2  0
 29 30  1  0
 20 31  2  0
  3 32  1  0
 32 33  1  0
 33 34  1  0
 34 35  1  0
 35 36  1  0
 36  3  1  0
 31  6  1  0
 18  9  1  0
 30 21  1  0
 17 12  1  0
 29 24  1  0
  1 37  1  0
  1 38  1  0
  1 39  1  0
  2 40  1  0
  4 41  1  0
  4 42  1  0
  5 43  1  0
 10 44  1  0
 10 45  1  0
 11 46  1  0
 11 47  1  0
 13 48  1  0
 14 49  1  0
 15 50  1  0
 16 51  1  0
 18 52  1  0
 18 53  1  0
 22 54  1  0
 22 55  1  0
 23 56  1  0
 23 57  1  0
 25 58  1  0
 26 59  1  0
 27 60  1  0
 28 61  1  0
 30 62  1  0
 30 63  1  0
 32 64  1  0
 32 65  1  0
 33 66  1  0
 33 67  1  0
 34 68  1  0
 34 69  1  0
 35 70  1  0
 35 71  1  0
 36 72  1  0
 36 73  1  0
M  END
>  <smiles>  (17) 
CNC1(CNc2nc(N3CCc4ccccc4C3)nc(N3CCc4ccccc4C3)n2)CCCCC1

>  <score_type>  (17) 
oracle

>  <origin>  (17) 
autodockgpu

>  <m_score__min__energy>  (17) 
-10.869999999999999

>  <m_primary>  (17) 
energy

>  <rmsd>  (17) 
5.115708983776311

>  <m_score__min__rmsd>  (17) 
5.115708983776311

>  <meeko>  (17) 
{"free_energy": -9.83, "intermolecular_energy": -11.62, "internal_energy": -1.42, "cluster_size": 29, "cluster_id": 1, "rank_in_cluster": 20}

>  <energy>  (17) 
-9.94

>  <cluster_rmsd>  (17) 
1.01

>  <cluster>  (17) 
1

$$$$

     RDKit          3D

 73 78  0  0  0  0  0  0  0  0999 V2000
  142.7080   76.3290  219.5210 C   0  0  0  0  0  0  0  0  0  0  0  0
  142.3760   77.3850  220.4210 N   0  0  0  0  0  0  0  0  0  0  0  0
  141.0080   77.4750  220.8110 C   0  0  0  0  0  0  0  0  0  0  0  0
  140.1350   76.3410  220.3410 C   0  0  0  0  0  0  0  0  0  0  0  0
  139.7460   75.4620  221.4070 N   0  0  0  0  0  0  0  0  0  0  0  0
  140.3210   74.2020  221.6760 C   0  0  0  0  0  0  0  0  0  0  0  0
  141.3080   73.7730  220.8710 N   0  0  0  0  0  0  0  0  0  0  0  0
  141.8920   72.5750  221.0940 C   0  0  0  0  0  0  0  0  0  0  0  0
  142.9360   72.1460  220.2040 N   0  0  0  0  0  0  0  0  0  0  0  0
  144.2000   72.8270  220.3230 C   0  0  0  0  0  0  0  0  0  0  0  0
  145.2300   72.3000  219.3580 C   0  0  0  0  0  0  0  0  0  0  0  0
  145.1860   70.8210  219.2490 C   0  0  0  0  0  0  0  0  0  0  0  0
  146.3450   70.0790  219.1980 C   0  0  0  0  0  0  0  0  0  0  0  0
  146.2610   68.7080  219.0980 C   0  0  0  0  0  0  0  0  0  0  0  0
  145.0130   68.0780  219.0480 C   0  0  0  0  0  0  0  0  0  0  0  0
  143.8820   68.8710  219.1020 C   0  0  0  0  0  0  0  0  0  0  0  0
  143.9250   70.2450  219.2020 C   0  0  0  0  0  0  0  0  0  0  0  0
  142.6770   71.0770  219.2580 C   0  0  0  0  0  0  0  0  0  0  0  0
  141.4930   71.8000  222.1240 N   0  0  0  0  0  0  0  0  0  0  0  0
  140.4910   72.2170  222.9540 C   0  0  0  0  0  0  0  0  0  0  0  0
  140.0400   71.4300  224.0480 N   0  0  0  0  0  0  0  0  0  0  0  0
  138.8890   70.5610  223.9010 C   0  0  0  0  0  0  0  0  0  0  0  0
  139.2220   69.1350  224.2910 C   0  0  0  0  0  0  0  0  0  0  0  0
  139.7350   69.2060  225.6910 C   0  0  0  0  0  0  0  0  0  0  0  0
  139.4970   68.1260  226.5490 C   0  0  0  0  0  0  0  0  0  0  0  0
  139.9670   68.1800  227.8530 C   0  0  0  0  0  0  0  0  0  0  0  0
  140.6690   69.2690  228.3410 C   0  0  0  0  0  0  0  0  0  0  0  0
  140.8920   70.3290  227.4700 C   0  0  0  0  0  0  0  0  0  0  0  0
  140.4320   70.3040  226.1560 C   0  0  0  0  0  0  0  0  0  0  0  0
  140.7300   71.4920  225.3200 C   0  0  0  0  0  0  0  0  0  0  0  0
  139.9250   73.4160  222.7090 N   0  0  0  0  0  0  0  0  0  0  0  0
  140.9240   77.5360  222.3200 C   0  0  0  0  0  0  0  0  0  0  0  0
  141.8290   78.6250  222.8280 C   0  0  0  0  0  0  0  0  0  0  0  0
  141.4230   79.9360  222.2110 C   0  0  0  0  0  0  0  0  0  0  0  0
  141.4160   79.8580  220.7060 C   0  0  0  0  0  0  0  0  0  0  0  0
  140.4270   78.7810  220.3000 C   0  0  0  0  0  0  0  0  0  0  0  0
  142.9895   75.4335  220.0944 H   0  0  0  0  0  0  0  0  0  0  0  0
  141.8384   76.1003  218.8873 H   0  0  0  0  0  0  0  0  0  0  0  0
  143.5520   76.6390  218.8873 H   0  0  0  0  0  0  0  0  0  0  0  0
  143.0530   77.4770  221.2150 H   0  0  0  0  0  0  0  0  0  0  0  0
  139.2276   76.7620  219.8833 H   0  0  0  0  0  0  0  0  0  0  0  0
  140.7183   75.7500  219.6196 H   0  0  0  0  0  0  0  0  0  0  0  0
  138.9770   75.7800  222.0360 H   0  0  0  0  0  0  0  0  0  0  0  0
  144.0445   73.8976  220.1237 H   0  0  0  0  0  0  0  0  0  0  0  0
  144.5776   72.6571  221.3421 H   0  0  0  0  0  0  0  0  0  0  0  0
  145.0415   72.7348  218.3653 H   0  0  0  0  0  0  0  0  0  0  0  0
  146.2240   72.5829  219.7348 H   0  0  0  0  0  0  0  0  0  0  0  0
  147.3259   70.5753  219.2367 H   0  0  0  0  0  0  0  0  0  0  0  0
  147.1802   68.1051  219.0572 H   0  0  0  0  0  0  0  0  0  0  0  0
  144.9340   66.9838  218.9681 H   0  0  0  0  0  0  0  0  0  0  0  0
  142.8981   68.3807  219.0632 H   0  0  0  0  0  0  0  0  0  0  0  0
  142.4537   71.4943  218.2650 H   0  0  0  0  0  0  0  0  0  0  0  0
  141.8106   70.4738  219.5671 H   0  0  0  0  0  0  0  0  0  0  0  0
  138.0777   70.9288  224.5464 H   0  0  0  0  0  0  0  0  0  0  0  0
  138.5806   70.5691  222.8451 H   0  0  0  0  0  0  0  0  0  0  0  0
  138.3216   68.5048  224.2444 H   0  0  0  0  0  0  0  0  0  0  0  0
  139.9633   68.6914  223.6100 H   0  0  0  0  0  0  0  0  0  0  0  0
  138.9435   67.2444  226.1933 H   0  0  0  0  0  0  0  0  0  0  0  0
  139.7754   67.3284  228.5223 H   0  0  0  0  0  0  0  0  0  0  0  0
  141.0360   69.2943  229.3777 H   0  0  0  0  0  0  0  0  0  0  0  0
  141.4457   71.2096  227.8277 H   0  0  0  0  0  0  0  0  0  0  0  0
  140.4097   72.3970  225.8571 H   0  0  0  0  0  0  0  0  0  0  0  0
  141.8124   71.5157  225.1257 H   0  0  0  0  0  0  0  0  0  0  0  0
  139.8879   77.7497  222.6214 H   0  0  0  0  0  0  0  0  0  0  0  0
  141.2371   76.5707  222.7444 H   0  0  0  0  0  0  0  0  0  0  0  0
  141.7447   78.6922  223.9227 H   0  0  0  0  0  0  0  0  0  0  0  0
  142.8700   78.3961  222.5563 H   0  0  0  0  0  0  0  0  0  0  0  0
  140.4134   80.1983  222.5603 H   0  0  0  0  0  0  0  0  0  0  0  0
  142.1526   80.7014  222.5141 H   0  0  0  0  0  0  0  0  0  0  0  0
  141.1093   80.8259  220.2829 H   0  0  0  0  0  0  0  0  0  0  0  0
  142.4212   79.6170  220.3298 H   0  0  0  0  0  0  0  0  0  0  0  0
  139.4452   78.9694  220.7589 H   0  0  0  0  0  0  0  0  0  0  0  0
  140.2757   78.7590  219.2107 H   0  0  0  0  0  0  0  0  0  0  0  0
  1  2  1  0
  2  3  1  0
  3  4  1  0
  4  5  1  0
  5  6  1  0
  6  7  2  0
  7  8  1  0
  8  9  1  0
  9 10  1  0
 10 11  1  0
 11 12  1  0
 12 13  2  0
 13 14  1  0
 14 15  2  0
 15 16  1  0
 16 17  2  0
 17 18  1  0
  8 19  2  0
 19 20  1  0
 20 21  1  0
 21 22  1  0
 22 23  1  0
 23 24  1  0
 24 25  2  0
 25 26  1  0
 26 27  2  0
 27 28  1  0
 28 29  2  0
 29 30  1  0
 20 31  2  0
  3 32  1  0
 32 33  1  0
 33 34  1  0
 34 35  1  0
 35 36  1  0
 36  3  1  0
 31  6  1  0
 18  9  1  0
 30 21  1  0
 17 12  1  0
 29 24  1  0
  1 37  1  0
  1 38  1  0
  1 39  1  0
  2 40  1  0
  4 41  1  0
  4 42  1  0
  5 43  1  0
 10 44  1  0
 10 45  1  0
 11 46  1  0
 11 47  1  0
 13 48  1  0
 14 49  1  0
 15 50  1  0
 16 51  1  0
 18 52  1  0
 18 53  1  0
 22 54  1  0
 22 55  1  0
 23 56  1  0
 23 57  1  0
 25 58  1  0
 26 59  1  0
 27 60  1  0
 28 61  1  0
 30 62  1  0
 30 63  1  0
 32 64  1  0
 32 65  1  0
 33 66  1  0
 33 67  1  0
 34 68  1  0
 34 69  1  0
 35 70  1  0
 35 71  1  0
 36 72  1  0
 36 73  1  0
M  END
>  <smiles>  (18) 
CNC1(CNc2nc(N3CCc4ccccc4C3)nc(N3CCc4ccccc4C3)n2)CCCCC1

>  <score_type>  (18) 
oracle

>  <origin>  (18) 
autodockgpu

>  <m_score__min__energy>  (18) 
-10.869999999999999

>  <m_primary>  (18) 
energy

>  <rmsd>  (18) 
10.177966722421212

>  <m_score__min__rmsd>  (18) 
10.177966722421212

>  <meeko>  (18) 
{"free_energy": -10.31, "intermolecular_energy": -12.1, "internal_energy": -1.37, "cluster_size": 16, "cluster_id": 2, "rank_in_cluster": 3}

>  <energy>  (18) 
-9.86

>  <cluster_rmsd>  (18) 
1.05

>  <cluster>  (18) 
1

$$$$

     RDKit          3D

 73 78  0  0  0  0  0  0  0  0999 V2000
  142.2090   77.4080  219.4070 C   0  0  0  0  0  0  0  0  0  0  0  0
  141.9180   77.3150  220.8010 N   0  0  0  0  0  0  0  0  0  0  0  0
  140.6230   77.7550  221.2060 C   0  0  0  0  0  0  0  0  0  0  0  0
  139.4730   77.0230  220.5660 C   0  0  0  0  0  0  0  0  0  0  0  0
  139.0650   75.8690  221.3160 N   0  0  0  0  0  0  0  0  0  0  0  0
  139.8610   74.7300  221.5580 C   0  0  0  0  0  0  0  0  0  0  0  0
  141.0190   74.6140  220.8850 N   0  0  0  0  0  0  0  0  0  0  0  0
  141.8160   73.5420  221.0900 C   0  0  0  0  0  0  0  0  0  0  0  0
  143.0410   73.4480  220.3430 N   0  0  0  0  0  0  0  0  0  0  0  0
  143.6570   72.1470  220.2800 C   0  0  0  0  0  0  0  0  0  0  0  0
  144.9260   72.1490  219.4690 C   0  0  0  0  0  0  0  0  0  0  0  0
  144.8020   72.9760  218.2440 C   0  0  0  0  0  0  0  0  0  0  0  0
  145.3220   72.5460  217.0430 C   0  0  0  0  0  0  0  0  0  0  0  0
  145.1840   73.3430  215.9270 C   0  0  0  0  0  0  0  0  0  0  0  0
  144.5250   74.5740  216.0150 C   0  0  0  0  0  0  0  0  0  0  0  0
  144.0220   74.9560  217.2450 C   0  0  0  0  0  0  0  0  0  0  0  0
  144.1400   74.1870  218.3830 C   0  0  0  0  0  0  0  0  0  0  0  0
  143.5830   74.6320  219.7030 C   0  0  0  0  0  0  0  0  0  0  0  0
  141.4620   72.5820  221.9680 N   0  0  0  0  0  0  0  0  0  0  0  0
  140.2890   72.6800  222.6620 C   0  0  0  0  0  0  0  0  0  0  0  0
  139.8790   71.6900  223.5950 N   0  0  0  0  0  0  0  0  0  0  0  0
  138.7360   70.8440  223.3110 C   0  0  0  0  0  0  0  0  0  0  0  0
  139.0980   69.3770  223.4110 C   0  0  0  0  0  0  0  0  0  0  0  0
  139.6470   69.1860  224.7860 C   0  0  0  0  0  0  0  0  0  0  0  0
  139.4460   67.9580  225.4250 C   0  0  0  0  0  0  0  0  0  0  0  0
  139.9500   67.7690  226.7040 C   0  0  0  0  0  0  0  0  0  0  0  0
  140.6500   68.7570  227.3760 C   0  0  0  0  0  0  0  0  0  0  0  0
  140.8360   69.9690  226.7200 C   0  0  0  0  0  0  0  0  0  0  0  0
  140.3420   70.1880  225.4370 C   0  0  0  0  0  0  0  0  0  0  0  0
  140.6010   71.5190  224.8380 C   0  0  0  0  0  0  0  0  0  0  0  0
  139.5110   73.7590  222.4390 N   0  0  0  0  0  0  0  0  0  0  0  0
  140.4960   77.6080  222.7050 C   0  0  0  0  0  0  0  0  0  0  0  0
  141.6630   78.2830  223.3750 C   0  0  0  0  0  0  0  0  0  0  0  0
  141.6950   79.7320  222.9740 C   0  0  0  0  0  0  0  0  0  0  0  0
  141.7320   79.8890  221.4760 C   0  0  0  0  0  0  0  0  0  0  0  0
  140.4830   79.2370  220.9090 C   0  0  0  0  0  0  0  0  0  0  0  0
  143.2487   77.7403  219.2708 H   0  0  0  0  0  0  0  0  0  0  0  0
  142.0747   76.4222  218.9378 H   0  0  0  0  0  0  0  0  0  0  0  0
  141.5279   78.1332  218.9378 H   0  0  0  0  0  0  0  0  0  0  0  0
  142.2100   76.4020  221.2220 H   0  0  0  0  0  0  0  0  0  0  0  0
  138.6185   77.7111  220.4862 H   0  0  0  0  0  0  0  0  0  0  0  0
  139.8089   76.6755  219.5779 H   0  0  0  0  0  0  0  0  0  0  0  0
  138.1010   75.8710  221.7160 H   0  0  0  0  0  0  0  0  0  0  0  0
  143.8925   71.8182  221.3029 H   0  0  0  0  0  0  0  0  0  0  0  0
  142.9475   71.4644  219.7893 H   0  0  0  0  0  0  0  0  0  0  0  0
  145.7420   72.5509  220.0876 H   0  0  0  0  0  0  0  0  0  0  0  0
  145.1331   71.1138  219.1602 H   0  0  0  0  0  0  0  0  0  0  0  0
  145.8410   71.5785  216.9755 H   0  0  0  0  0  0  0  0  0  0  0  0
  145.5941   73.0095  214.9623 H   0  0  0  0  0  0  0  0  0  0  0  0
  144.4104   75.2191  215.1314 H   0  0  0  0  0  0  0  0  0  0  0  0
  143.5015   75.9222  217.3192 H   0  0  0  0  0  0  0  0  0  0  0  0
  144.3795   75.0683  220.3237 H   0  0  0  0  0  0  0  0  0  0  0  0
  142.8079   75.4008  219.5683 H   0  0  0  0  0  0  0  0  0  0  0  0
  137.9375   71.0660  224.0343 H   0  0  0  0  0  0  0  0  0  0  0  0
  138.3993   71.0490  222.2840 H   0  0  0  0  0  0  0  0  0  0  0  0
  138.2051   68.7514  223.2648 H   0  0  0  0  0  0  0  0  0  0  0  0
  139.8271   69.0866  222.6402 H   0  0  0  0  0  0  0  0  0  0  0  0
  138.8948   67.1514  224.9194 H   0  0  0  0  0  0  0  0  0  0  0  0
  139.7879   66.8012  227.2011 H   0  0  0  0  0  0  0  0  0  0  0  0
  141.0436   68.5896  228.3894 H   0  0  0  0  0  0  0  0  0  0  0  0
  141.3871   70.7745  227.2274 H   0  0  0  0  0  0  0  0  0  0  0  0
  140.2828   72.2980  225.5464 H   0  0  0  0  0  0  0  0  0  0  0  0
  141.6774   71.5990  224.6261 H   0  0  0  0  0  0  0  0  0  0  0  0
  139.5590   78.0758  223.0414 H   0  0  0  0  0  0  0  0  0  0  0  0
  140.4879   76.5404  222.9698 H   0  0  0  0  0  0  0  0  0  0  0  0
  141.5548   78.2061  224.4670 H   0  0  0  0  0  0  0  0  0  0  0  0
  142.5988   77.7941  223.0665 H   0  0  0  0  0  0  0  0  0  0  0  0
  140.7954   80.2308  223.3637 H   0  0  0  0  0  0  0  0  0  0  0  0
  142.6059   80.1859  223.3915 H   0  0  0  0  0  0  0  0  0  0  0  0
  141.7492   80.9567  221.2121 H   0  0  0  0  0  0  0  0  0  0  0  0
  142.6342   79.4146  221.0625 H   0  0  0  0  0  0  0  0  0  0  0  0
  139.5838   79.6425  221.3958 H   0  0  0  0  0  0  0  0  0  0  0  0
  140.3794   79.4271  219.8305 H   0  0  0  0  0  0  0  0  0  0  0  0
  1  2  1  0
  2  3  1  0
  3  4  1  0
  4  5  1  0
  5  6  1  0
  6  7  2  0
  7  8  1  0
  8  9  1  0
  9 10  1  0
 10 11  1  0
 11 12  1  0
 12 13  2  0
 13 14  1  0
 14 15  2  0
 15 16  1  0
 16 17  2  0
 17 18  1  0
  8 19  2  0
 19 20  1  0
 20 21  1  0
 21 22  1  0
 22 23  1  0
 23 24  1  0
 24 25  2  0
 25 26  1  0
 26 27  2  0
 27 28  1  0
 28 29  2  0
 29 30  1  0
 20 31  2  0
  3 32  1  0
 32 33  1  0
 33 34  1  0
 34 35  1  0
 35 36  1  0
 36  3  1  0
 31  6  1  0
 18  9  1  0
 30 21  1  0
 17 12  1  0
 29 24  1  0
  1 37  1  0
  1 38  1  0
  1 39  1  0
  2 40  1  0
  4 41  1  0
  4 42  1  0
  5 43  1  0
 10 44  1  0
 10 45  1  0
 11 46  1  0
 11 47  1  0
 13 48  1  0
 14 49  1  0
 15 50  1  0
 16 51  1  0
 18 52  1  0
 18 53  1  0
 22 54  1  0
 22 55  1  0
 23 56  1  0
 23 57  1  0
 25 58  1  0
 26 59  1  0
 27 60  1  0
 28 61  1  0
 30 62  1  0
 30 63  1  0
 32 64  1  0
 32 65  1  0
 33 66  1  0
 33 67  1  0
 34 68  1  0
 34 69  1  0
 35 70  1  0
 35 71  1  0
 36 72  1  0
 36 73  1  0
M  END
>  <smiles>  (19) 
CNC1(CNc2nc(N3CCc4ccccc4C3)nc(N3CCc4ccccc4C3)n2)CCCCC1

>  <score_type>  (19) 
oracle

>  <origin>  (19) 
autodockgpu

>  <m_score__min__energy>  (19) 
-10.869999999999999

>  <m_primary>  (19) 
energy

>  <rmsd>  (19) 
6.942081680771849

>  <m_score__min__rmsd>  (19) 
6.942081680771849

>  <meeko>  (19) 
{"free_energy": -9.31, "intermolecular_energy": -11.1, "internal_energy": -2.2, "cluster_size": 16, "cluster_id": 2, "rank_in_cluster": 16}

>  <energy>  (19) 
-9.85

>  <cluster_rmsd>  (19) 
1.25

>  <cluster>  (19) 
1

$$$$

     RDKit          3D

 73 78  0  0  0  0  0  0  0  0999 V2000
  146.0970   73.1130  220.5550 C   0  0  0  0  0  0  0  0  0  0  0  0
  145.9540   72.9610  219.1440 N   0  0  0  0  0  0  0  0  0  0  0  0
  144.6970   72.4650  218.6870 C   0  0  0  0  0  0  0  0  0  0  0  0
  143.7640   71.9980  219.7720 C   0  0  0  0  0  0  0  0  0  0  0  0
  142.4370   72.5250  219.6270 N   0  0  0  0  0  0  0  0  0  0  0  0
  141.5940   72.9180  220.6880 C   0  0  0  0  0  0  0  0  0  0  0  0
  141.2140   74.2050  220.7500 N   0  0  0  0  0  0  0  0  0  0  0  0
  140.4030   74.6250  221.7460 C   0  0  0  0  0  0  0  0  0  0  0  0
  140.0270   76.0120  221.7840 N   0  0  0  0  0  0  0  0  0  0  0  0
  138.7660   76.3180  222.4110 C   0  0  0  0  0  0  0  0  0  0  0  0
  138.4670   77.7950  222.4100 C   0  0  0  0  0  0  0  0  0  0  0  0
  139.6700   78.6070  222.7160 C   0  0  0  0  0  0  0  0  0  0  0  0
  139.5950   79.6990  223.5520 C   0  0  0  0  0  0  0  0  0  0  0  0
  140.7360   80.4260  223.8130 C   0  0  0  0  0  0  0  0  0  0  0  0
  141.9550   80.0590  223.2330 C   0  0  0  0  0  0  0  0  0  0  0  0
  141.9740   78.9550  222.4010 C   0  0  0  0  0  0  0  0  0  0  0  0
  140.8540   78.2030  222.1170 C   0  0  0  0  0  0  0  0  0  0  0  0
  140.9090   77.0090  221.2090 C   0  0  0  0  0  0  0  0  0  0  0  0
  139.9670   73.7600  222.6850 N   0  0  0  0  0  0  0  0  0  0  0  0
  140.3420   72.4470  222.6420 C   0  0  0  0  0  0  0  0  0  0  0  0
  139.9080   71.5050  223.6120 N   0  0  0  0  0  0  0  0  0  0  0  0
  138.7970   70.6170  223.3260 C   0  0  0  0  0  0  0  0  0  0  0  0
  139.1850   69.1670  223.5310 C   0  0  0  0  0  0  0  0  0  0  0  0
  139.6700   69.0710  224.9390 C   0  0  0  0  0  0  0  0  0  0  0  0
  139.4640   67.8780  225.6420 C   0  0  0  0  0  0  0  0  0  0  0  0
  139.9100   67.7780  226.9520 C   0  0  0  0  0  0  0  0  0  0  0  0
  140.5550   68.8210  227.5960 C   0  0  0  0  0  0  0  0  0  0  0  0
  140.7470   69.9950  226.8770 C   0  0  0  0  0  0  0  0  0  0  0  0
  140.3110   70.1260  225.5620 C   0  0  0  0  0  0  0  0  0  0  0  0
  140.5720   71.4250  224.8960 C   0  0  0  0  0  0  0  0  0  0  0  0
  141.1530   72.0540  221.6370 N   0  0  0  0  0  0  0  0  0  0  0  0
  143.9940   73.5460  217.8970 C   0  0  0  0  0  0  0  0  0  0  0  0
  144.9220   74.0750  216.8370 C   0  0  0  0  0  0  0  0  0  0  0  0
  145.3490   72.9440  215.9420 C   0  0  0  0  0  0  0  0  0  0  0  0
  145.9700   71.8210  216.7310 C   0  0  0  0  0  0  0  0  0  0  0  0
  144.9340   71.3180  217.7200 C   0  0  0  0  0  0  0  0  0  0  0  0
  145.4308   72.4049  221.0695 H   0  0  0  0  0  0  0  0  0  0  0  0
  147.1394   72.9102  220.8418 H   0  0  0  0  0  0  0  0  0  0  0  0
  145.8311   74.1411  220.8418 H   0  0  0  0  0  0  0  0  0  0  0  0
  146.3100   73.7840  218.6030 H   0  0  0  0  0  0  0  0  0  0  0  0
  143.7115   70.8997  219.7422 H   0  0  0  0  0  0  0  0  0  0  0  0
  144.1623   72.3607  220.7311 H   0  0  0  0  0  0  0  0  0  0  0  0
  142.0630   72.6290  218.6580 H   0  0  0  0  0  0  0  0  0  0  0  0
  137.9652   75.7952  221.8675 H   0  0  0  0  0  0  0  0  0  0  0  0
  138.8239   75.9884  223.4589 H   0  0  0  0  0  0  0  0  0  0  0  0
  138.0897   78.0800  221.4168 H   0  0  0  0  0  0  0  0  0  0  0  0
  137.7183   77.9900  223.1919 H   0  0  0  0  0  0  0  0  0  0  0  0
  138.6355   79.9874  224.0060 H   0  0  0  0  0  0  0  0  0  0  0  0
  140.6882   81.2990  224.4805 H   0  0  0  0  0  0  0  0  0  0  0  0
  142.8721   80.6324  223.4332 H   0  0  0  0  0  0  0  0  0  0  0  0
  142.9302   78.6621  221.9429 H   0  0  0  0  0  0  0  0  0  0  0  0
  140.5662   77.2829  220.2003 H   0  0  0  0  0  0  0  0  0  0  0  0
  141.9361   76.6258  221.1183 H   0  0  0  0  0  0  0  0  0  0  0  0
  137.9603   70.8624  223.9966 H   0  0  0  0  0  0  0  0  0  0  0  0
  138.5053   70.7532  222.2742 H   0  0  0  0  0  0  0  0  0  0  0  0
  138.3139   68.5124  223.3805 H   0  0  0  0  0  0  0  0  0  0  0  0
  139.9567   68.8492  222.8144 H   0  0  0  0  0  0  0  0  0  0  0  0
  138.9545   67.0298  225.1614 H   0  0  0  0  0  0  0  0  0  0  0  0
  139.7456   66.8375  227.4983 H   0  0  0  0  0  0  0  0  0  0  0  0
  140.9016   68.7240  228.6354 H   0  0  0  0  0  0  0  0  0  0  0  0
  141.2565   70.8420  227.3597 H   0  0  0  0  0  0  0  0  0  0  0  0
  140.2041   72.2373  225.5400 H   0  0  0  0  0  0  0  0  0  0  0  0
  141.6556   71.5170  224.7308 H   0  0  0  0  0  0  0  0  0  0  0  0
  143.0949   73.1271  217.4216 H   0  0  0  0  0  0  0  0  0  0  0  0
  143.7036   74.3643  218.5723 H   0  0  0  0  0  0  0  0  0  0  0  0
  144.4017   74.8392  216.2409 H   0  0  0  0  0  0  0  0  0  0  0  0
  145.8069   74.5238  217.3120 H   0  0  0  0  0  0  0  0  0  0  0  0
  144.4685   72.5602  215.4060 H   0  0  0  0  0  0  0  0  0  0  0  0
  146.1005   73.3270  215.2359 H   0  0  0  0  0  0  0  0  0  0  0  0
  146.2659   71.0068  216.0531 H   0  0  0  0  0  0  0  0  0  0  0  0
  146.8664   72.1749  217.2614 H   0  0  0  0  0  0  0  0  0  0  0  0
  144.0012   71.0571  217.1987 H   0  0  0  0  0  0  0  0  0  0  0  0
  145.2770   70.4121  218.2413 H   0  0  0  0  0  0  0  0  0  0  0  0
  1  2  1  0
  2  3  1  0
  3  4  1  0
  4  5  1  0
  5  6  1  0
  6  7  2  0
  7  8  1  0
  8  9  1  0
  9 10  1  0
 10 11  1  0
 11 12  1  0
 12 13  2  0
 13 14  1  0
 14 15  2  0
 15 16  1  0
 16 17  2  0
 17 18  1  0
  8 19  2  0
 19 20  1  0
 20 21  1  0
 21 22  1  0
 22 23  1  0
 23 24  1  0
 24 25  2  0
 25 26  1  0
 26 27  2  0
 27 28  1  0
 28 29  2  0
 29 30  1  0
 20 31  2  0
  3 32  1  0
 32 33  1  0
 33 34  1  0
 34 35  1  0
 35 36  1  0
 36  3  1  0
 31  6  1  0
 18  9  1  0
 30 21  1  0
 17 12  1  0
 29 24  1  0
  1 37  1  0
  1 38  1  0
  1 39  1  0
  2 40  1  0
  4 41  1  0
  4 42  1  0
  5 43  1  0
 10 44  1  0
 10 45  1  0
 11 46  1  0
 11 47  1  0
 13 48  1  0
 14 49  1  0
 15 50  1  0
 16 51  1  0
 18 52  1  0
 18 53  1  0
 22 54  1  0
 22 55  1  0
 23 56  1  0
 23 57  1  0
 25 58  1  0
 26 59  1  0
 27 60  1  0
 28 61  1  0
 30 62  1  0
 30 63  1  0
 32 64  1  0
 32 65  1  0
 33 66  1  0
 33 67  1  0
 34 68  1  0
 34 69  1  0
 35 70  1  0
 35 71  1  0
 36 72  1  0
 36 73  1  0
M  END
>  <smiles>  (20) 
CNC1(CNc2nc(N3CCc4ccccc4C3)nc(N3CCc4ccccc4C3)n2)CCCCC1

>  <score_type>  (20) 
oracle

>  <origin>  (20) 
autodockgpu

>  <m_score__min__energy>  (20) 
-10.869999999999999

>  <m_primary>  (20) 
energy

>  <rmsd>  (20) 
5.203756456337819

>  <m_score__min__rmsd>  (20) 
5.203756456337819

>  <meeko>  (20) 
{"free_energy": -10.54, "intermolecular_energy": -12.33, "internal_energy": -1.08, "cluster_size": 29, "cluster_id": 1, "rank_in_cluster": 9}

>  <energy>  (20) 
-9.83

>  <cluster_rmsd>  (20) 
1.08

>  <cluster>  (20) 
1

$$$$

     RDKit          3D

 73 78  0  0  0  0  0  0  0  0999 V2000
  145.1940   72.6420  217.1620 C   0  0  0  0  0  0  0  0  0  0  0  0
  144.7920   73.7230  218.0020 N   0  0  0  0  0  0  0  0  0  0  0  0
  143.6020   73.5220  218.7620 C   0  0  0  0  0  0  0  0  0  0  0  0
  142.3300   73.4840  217.9560 C   0  0  0  0  0  0  0  0  0  0  0  0
  141.2280   72.9230  218.6860 N   0  0  0  0  0  0  0  0  0  0  0  0
  140.7820   73.3580  219.9510 C   0  0  0  0  0  0  0  0  0  0  0  0
  140.6310   74.6790  220.1480 N   0  0  0  0  0  0  0  0  0  0  0  0
  140.2010   75.1400  221.3430 C   0  0  0  0  0  0  0  0  0  0  0  0
  140.0640   76.5610  221.5190 N   0  0  0  0  0  0  0  0  0  0  0  0
  138.9060   77.0070  222.2530 C   0  0  0  0  0  0  0  0  0  0  0  0
  138.8570   78.5070  222.3920 C   0  0  0  0  0  0  0  0  0  0  0  0
  140.1930   79.0830  222.6810 C   0  0  0  0  0  0  0  0  0  0  0  0
  140.3450   80.0920  223.6070 C   0  0  0  0  0  0  0  0  0  0  0  0
  141.6030   80.5990  223.8480 C   0  0  0  0  0  0  0  0  0  0  0  0
  142.7120   80.0950  223.1600 C   0  0  0  0  0  0  0  0  0  0  0  0
  142.5030   79.0830  222.2420 C   0  0  0  0  0  0  0  0  0  0  0  0
  141.2600   78.5500  221.9730 C   0  0  0  0  0  0  0  0  0  0  0  0
  141.0680   77.4510  220.9690 C   0  0  0  0  0  0  0  0  0  0  0  0
  139.9170   74.2850  222.3470 N   0  0  0  0  0  0  0  0  0  0  0  0
  140.0640   72.9380  222.1680 C   0  0  0  0  0  0  0  0  0  0  0  0
  139.7780   72.0040  223.1990 N   0  0  0  0  0  0  0  0  0  0  0  0
  138.5990   71.1640  223.1210 C   0  0  0  0  0  0  0  0  0  0  0  0
  138.9570   69.6970  223.2470 C   0  0  0  0  0  0  0  0  0  0  0  0
  139.6910   69.5670  224.5390 C   0  0  0  0  0  0  0  0  0  0  0  0
  139.5700   68.3750  225.2630 C   0  0  0  0  0  0  0  0  0  0  0  0
  140.2470   68.2430  226.4670 C   0  0  0  0  0  0  0  0  0  0  0  0
  141.0430   69.2510  226.9830 C   0  0  0  0  0  0  0  0  0  0  0  0
  141.1470   70.4250  226.2460 C   0  0  0  0  0  0  0  0  0  0  0  0
  140.4800   70.5880  225.0340 C   0  0  0  0  0  0  0  0  0  0  0  0
  140.6660   71.8830  224.3370 C   0  0  0  0  0  0  0  0  0  0  0  0
  140.4960   72.5040  220.9660 N   0  0  0  0  0  0  0  0  0  0  0  0
  143.7130   72.2200  219.5240 C   0  0  0  0  0  0  0  0  0  0  0  0
  145.0030   72.2020  220.2980 C   0  0  0  0  0  0  0  0  0  0  0  0
  145.0370   73.3800  221.2330 C   0  0  0  0  0  0  0  0  0  0  0  0
  144.8370   74.6770  220.4930 C   0  0  0  0  0  0  0  0  0  0  0  0
  143.4850   74.6170  219.8070 C   0  0  0  0  0  0  0  0  0  0  0  0
  145.5101   71.7919  217.7845 H   0  0  0  0  0  0  0  0  0  0  0  0
  144.3491   72.3373  216.5270 H   0  0  0  0  0  0  0  0  0  0  0  0
  146.0327   72.9634  216.5270 H   0  0  0  0  0  0  0  0  0  0  0  0
  145.5830   74.1350  218.5500 H   0  0  0  0  0  0  0  0  0  0  0  0
  142.0699   74.5111  217.6604 H   0  0  0  0  0  0  0  0  0  0  0  0
  142.5101   72.8422  217.0810 H   0  0  0  0  0  0  0  0  0  0  0  0
  140.7130   72.1300  218.2440 H   0  0  0  0  0  0  0  0  0  0  0  0
  138.0017   76.6714  221.7243 H   0  0  0  0  0  0  0  0  0  0  0  0
  138.9640   76.5780  223.2642 H   0  0  0  0  0  0  0  0  0  0  0  0
  138.4800   78.9384  221.4530 H   0  0  0  0  0  0  0  0  0  0  0  0
  138.1937   78.7482  223.2357 H   0  0  0  0  0  0  0  0  0  0  0  0
  139.4724   80.4879  224.1472 H   0  0  0  0  0  0  0  0  0  0  0  0
  141.7363   81.4044  224.5853 H   0  0  0  0  0  0  0  0  0  0  0  0
  143.7210   80.4925  223.3443 H   0  0  0  0  0  0  0  0  0  0  0  0
  143.3718   78.6828  221.6988 H   0  0  0  0  0  0  0  0  0  0  0  0
  140.7228   77.8675  220.0112 H   0  0  0  0  0  0  0  0  0  0  0  0
  142.0108   76.9174  220.7784 H   0  0  0  0  0  0  0  0  0  0  0  0
  137.9112   71.4359  223.9352 H   0  0  0  0  0  0  0  0  0  0  0  0
  138.1251   71.3221  222.1410 H   0  0  0  0  0  0  0  0  0  0  0  0
  138.0462   69.0803  223.2602 H   0  0  0  0  0  0  0  0  0  0  0  0
  139.5677   69.3551  222.3984 H   0  0  0  0  0  0  0  0  0  0  0  0
  138.9459   67.5531  224.8821 H   0  0  0  0  0  0  0  0  0  0  0  0
  140.1476   67.3041  227.0314 H   0  0  0  0  0  0  0  0  0  0  0  0
  141.5727   69.1278  227.9392 H   0  0  0  0  0  0  0  0  0  0  0  0
  141.7714   71.2455  226.6293 H   0  0  0  0  0  0  0  0  0  0  0  0
  140.4580   72.7016  225.0417 H   0  0  0  0  0  0  0  0  0  0  0  0
  141.7029   71.9343  223.9735 H   0  0  0  0  0  0  0  0  0  0  0  0
  142.8661   72.1289  220.2201 H   0  0  0  0  0  0  0  0  0  0  0  0
  143.6974   71.3779  218.8165 H   0  0  0  0  0  0  0  0  0  0  0  0
  145.0706   71.2700  220.8783 H   0  0  0  0  0  0  0  0  0  0  0  0
  145.8522   72.2594  219.6012 H   0  0  0  0  0  0  0  0  0  0  0  0
  144.2371   73.2672  221.9796 H   0  0  0  0  0  0  0  0  0  0  0  0
  146.0238   73.4076  221.7183 H   0  0  0  0  0  0  0  0  0  0  0  0
  144.8603   75.5188  221.2007 H   0  0  0  0  0  0  0  0  0  0  0  0
  145.6370   74.8237  219.7524 H   0  0  0  0  0  0  0  0  0  0  0  0
  142.6969   74.3707  220.5338 H   0  0  0  0  0  0  0  0  0  0  0  0
  143.2166   75.5829  219.3542 H   0  0  0  0  0  0  0  0  0  0  0  0
  1  2  1  0
  2  3  1  0
  3  4  1  0
  4  5  1  0
  5  6  1  0
  6  7  2  0
  7  8  1  0
  8  9  1  0
  9 10  1  0
 10 11  1  0
 11 12  1  0
 12 13  2  0
 13 14  1  0
 14 15  2  0
 15 16  1  0
 16 17  2  0
 17 18  1  0
  8 19  2  0
 19 20  1  0
 20 21  1  0
 21 22  1  0
 22 23  1  0
 23 24  1  0
 24 25  2  0
 25 26  1  0
 26 27  2  0
 27 28  1  0
 28 29  2  0
 29 30  1  0
 20 31  2  0
  3 32  1  0
 32 33  1  0
 33 34  1  0
 34 35  1  0
 35 36  1  0
 36  3  1  0
 31  6  1  0
 18  9  1  0
 30 21  1  0
 17 12  1  0
 29 24  1  0
  1 37  1  0
  1 38  1  0
  1 39  1  0
  2 40  1  0
  4 41  1  0
  4 42  1  0
  5 43  1  0
 10 44  1  0
 10 45  1  0
 11 46  1  0
 11 47  1  0
 13 48  1  0
 14 49  1  0
 15 50  1  0
 16 51  1  0
 18 52  1  0
 18 53  1  0
 22 54  1  0
 22 55  1  0
 23 56  1  0
 23 57  1  0
 25 58  1  0
 26 59  1  0
 27 60  1  0
 28 61  1  0
 30 62  1  0
 30 63  1  0
 32 64  1  0
 32 65  1  0
 33 66  1  0
 33 67  1  0
 34 68  1  0
 34 69  1  0
 35 70  1  0
 35 71  1  0
 36 72  1  0
 36 73  1  0
M  END
>  <smiles>  (21) 
CNC1(CNc2nc(N3CCc4ccccc4C3)nc(N3CCc4ccccc4C3)n2)CCCCC1

>  <score_type>  (21) 
oracle

>  <origin>  (21) 
autodockgpu

>  <m_score__min__energy>  (21) 
-10.869999999999999

>  <m_primary>  (21) 
energy

>  <rmsd>  (21) 
5.3362454901015965

>  <m_score__min__rmsd>  (21) 
5.3362454901015965

>  <meeko>  (21) 
{"free_energy": -9.86, "intermolecular_energy": -11.65, "internal_energy": -1.42, "cluster_size": 29, "cluster_id": 1, "rank_in_cluster": 18}

>  <energy>  (21) 
-9.8

>  <cluster_rmsd>  (21) 
1.07

>  <cluster>  (21) 
1

$$$$

     RDKit          3D

 73 78  0  0  0  0  0  0  0  0999 V2000
  143.3790   69.6970  219.7070 C   0  0  0  0  0  0  0  0  0  0  0  0
  143.4100   71.0300  220.2150 N   0  0  0  0  0  0  0  0  0  0  0  0
  143.6460   72.0630  219.2600 C   0  0  0  0  0  0  0  0  0  0  0  0
  142.4900   72.3560  218.3390 C   0  0  0  0  0  0  0  0  0  0  0  0
  141.2230   71.9920  218.9070 N   0  0  0  0  0  0  0  0  0  0  0  0
  140.6920   72.5020  220.1110 C   0  0  0  0  0  0  0  0  0  0  0  0
  140.3230   71.6250  221.0600 N   0  0  0  0  0  0  0  0  0  0  0  0
  139.8140   72.0680  222.2310 C   0  0  0  0  0  0  0  0  0  0  0  0
  139.4200   71.0990  223.2170 N   0  0  0  0  0  0  0  0  0  0  0  0
  139.1730   69.7620  222.7390 C   0  0  0  0  0  0  0  0  0  0  0  0
  138.7770   68.8200  223.8460 C   0  0  0  0  0  0  0  0  0  0  0  0
  139.5780   69.0380  225.0760 C   0  0  0  0  0  0  0  0  0  0  0  0
  140.0470   67.9740  225.8140 C   0  0  0  0  0  0  0  0  0  0  0  0
  140.7890   68.2190  226.9490 C   0  0  0  0  0  0  0  0  0  0  0  0
  141.0610   69.5320  227.3460 C   0  0  0  0  0  0  0  0  0  0  0  0
  140.5650   70.5620  226.5680 C   0  0  0  0  0  0  0  0  0  0  0  0
  139.8200   70.3580  225.4270 C   0  0  0  0  0  0  0  0  0  0  0  0
  139.2960   71.4990  224.6050 C   0  0  0  0  0  0  0  0  0  0  0  0
  139.6730   73.3900  222.4600 N   0  0  0  0  0  0  0  0  0  0  0  0
  140.0410   74.2990  221.5080 C   0  0  0  0  0  0  0  0  0  0  0  0
  139.9070   75.6990  221.7080 N   0  0  0  0  0  0  0  0  0  0  0  0
  138.6240   76.3470  221.5180 C   0  0  0  0  0  0  0  0  0  0  0  0
  138.2150   77.1300  222.7490 C   0  0  0  0  0  0  0  0  0  0  0  0
  139.3280   78.0880  223.0100 C   0  0  0  0  0  0  0  0  0  0  0  0
  139.0250   79.3320  223.5770 C   0  0  0  0  0  0  0  0  0  0  0  0
  140.0520   80.2320  223.8240 C   0  0  0  0  0  0  0  0  0  0  0  0
  141.3740   79.9450  223.5290 C   0  0  0  0  0  0  0  0  0  0  0  0
  141.6490   78.7040  222.9670 C   0  0  0  0  0  0  0  0  0  0  0  0
  140.6410   77.7800  222.7070 C   0  0  0  0  0  0  0  0  0  0  0  0
  141.0540   76.4890  222.1060 C   0  0  0  0  0  0  0  0  0  0  0  0
  140.5460   73.8300  220.3480 N   0  0  0  0  0  0  0  0  0  0  0  0
  144.0000   73.3400  219.9870 C   0  0  0  0  0  0  0  0  0  0  0  0
  145.1180   73.0700  220.9580 C   0  0  0  0  0  0  0  0  0  0  0  0
  146.3050   72.5270  220.2100 C   0  0  0  0  0  0  0  0  0  0  0  0
  145.9390   71.3040  219.4090 C   0  0  0  0  0  0  0  0  0  0  0  0
  144.8580   71.7010  218.4200 C   0  0  0  0  0  0  0  0  0  0  0  0
  143.3624   68.9853  220.5456 H   0  0  0  0  0  0  0  0  0  0  0  0
  142.4774   69.5599  219.0919 H   0  0  0  0  0  0  0  0  0  0  0  0
  144.2732   69.5181  219.0919 H   0  0  0  0  0  0  0  0  0  0  0  0
  142.6290   71.2350  220.8810 H   0  0  0  0  0  0  0  0  0  0  0  0
  142.4802   73.4336  218.1185 H   0  0  0  0  0  0  0  0  0  0  0  0
  142.6305   71.7555  217.4281 H   0  0  0  0  0  0  0  0  0  0  0  0
  140.6450   71.2950  218.3880 H   0  0  0  0  0  0  0  0  0  0  0  0
  138.3614   69.7964  221.9973 H   0  0  0  0  0  0  0  0  0  0  0  0
  140.1075   69.3860  222.2971 H   0  0  0  0  0  0  0  0  0  0  0  0
  137.7141   68.9767  224.0822 H   0  0  0  0  0  0  0  0  0  0  0  0
  138.9608   67.7924  223.4991 H   0  0  0  0  0  0  0  0  0  0  0  0
  139.8320   66.9415  225.5013 H   0  0  0  0  0  0  0  0  0  0  0  0
  141.1695   67.3771  227.5461 H   0  0  0  0  0  0  0  0  0  0  0  0
  141.6520   69.7393  228.2503 H   0  0  0  0  0  0  0  0  0  0  0  0
  140.7759   71.5968  226.8757 H   0  0  0  0  0  0  0  0  0  0  0  0
  138.2416   71.6921  224.8518 H   0  0  0  0  0  0  0  0  0  0  0  0
  139.8585   72.4231  224.8039 H   0  0  0  0  0  0  0  0  0  0  0  0
  138.6932   77.0349  220.6624 H   0  0  0  0  0  0  0  0  0  0  0  0
  137.8670   75.5707  221.3330 H   0  0  0  0  0  0  0  0  0  0  0  0
  137.2772   77.6740  222.5628 H   0  0  0  0  0  0  0  0  0  0  0  0
  138.0403   76.4682  223.6101 H   0  0  0  0  0  0  0  0  0  0  0  0
  137.9852   79.5927  223.8237 H   0  0  0  0  0  0  0  0  0  0  0  0
  139.8073   81.2074  224.2697 H   0  0  0  0  0  0  0  0  0  0  0  0
  142.1753   80.6709  223.7315 H   0  0  0  0  0  0  0  0  0  0  0  0
  142.6896   78.4455  222.7214 H   0  0  0  0  0  0  0  0  0  0  0  0
  141.6751   76.6892  221.2205 H   0  0  0  0  0  0  0  0  0  0  0  0
  141.6195   75.9219  222.8601 H   0  0  0  0  0  0  0  0  0  0  0  0
  144.3217   74.0994  219.2591 H   0  0  0  0  0  0  0  0  0  0  0  0
  143.1192   73.7071  220.5342 H   0  0  0  0  0  0  0  0  0  0  0  0
  145.3990   74.0053  221.4643 H   0  0  0  0  0  0  0  0  0  0  0  0
  144.7867   72.3357  221.7070 H   0  0  0  0  0  0  0  0  0  0  0  0
  146.6825   73.3022  219.5270 H   0  0  0  0  0  0  0  0  0  0  0  0
  147.0748   72.2429  220.9425 H   0  0  0  0  0  0  0  0  0  0  0  0
  146.8223   70.9330  218.8684 H   0  0  0  0  0  0  0  0  0  0  0  0
  145.5767   70.5052  220.0728 H   0  0  0  0  0  0  0  0  0  0  0  0
  145.1831   72.5658  217.8230 H   0  0  0  0  0  0  0  0  0  0  0  0
  144.6346   70.8874  217.7142 H   0  0  0  0  0  0  0  0  0  0  0  0
  1  2  1  0
  2  3  1  0
  3  4  1  0
  4  5  1  0
  5  6  1  0
  6  7  2  0
  7  8  1  0
  8  9  1  0
  9 10  1  0
 10 11  1  0
 11 12  1  0
 12 13  2  0
 13 14  1  0
 14 15  2  0
 15 16  1  0
 16 17  2  0
 17 18  1  0
  8 19  2  0
 19 20  1  0
 20 21  1  0
 21 22  1  0
 22 23  1  0
 23 24  1  0
 24 25  2  0
 25 26  1  0
 26 27  2  0
 27 28  1  0
 28 29  2  0
 29 30  1  0
 20 31  2  0
  3 32  1  0
 32 33  1  0
 33 34  1  0
 34 35  1  0
 35 36  1  0
 36  3  1  0
 31  6  1  0
 18  9  1  0
 30 21  1  0
 17 12  1  0
 29 24  1  0
  1 37  1  0
  1 38  1  0
  1 39  1  0
  2 40  1  0
  4 41  1  0
  4 42  1  0
  5 43  1  0
 10 44  1  0
 10 45  1  0
 11 46  1  0
 11 47  1  0
 13 48  1  0
 14 49  1  0
 15 50  1  0
 16 51  1  0
 18 52  1  0
 18 53  1  0
 22 54  1  0
 22 55  1  0
 23 56  1  0
 23 57  1  0
 25 58  1  0
 26 59  1  0
 27 60  1  0
 28 61  1  0
 30 62  1  0
 30 63  1  0
 32 64  1  0
 32 65  1  0
 33 66  1  0
 33 67  1  0
 34 68  1  0
 34 69  1  0
 35 70  1  0
 35 71  1  0
 36 72  1  0
 36 73  1  0
M  END
>  <smiles>  (22) 
CNC1(CNc2nc(N3CCc4ccccc4C3)nc(N3CCc4ccccc4C3)n2)CCCCC1

>  <score_type>  (22) 
oracle

>  <origin>  (22) 
autodockgpu

>  <m_score__min__energy>  (22) 
-10.869999999999999

>  <m_primary>  (22) 
energy

>  <rmsd>  (22) 
11.033133203194096

>  <m_score__min__rmsd>  (22) 
11.033133203194096

>  <meeko>  (22) 
{"free_energy": -8.88, "intermolecular_energy": -10.67, "internal_energy": -1.92, "cluster_size": 29, "cluster_id": 1, "rank_in_cluster": 28}

>  <energy>  (22) 
-9.79

>  <cluster_rmsd>  (22) 
1.17

>  <cluster>  (22) 
1

$$$$

     RDKit          3D

 73 78  0  0  0  0  0  0  0  0999 V2000
  141.3570   77.3010  219.5830 C   0  0  0  0  0  0  0  0  0  0  0  0
  141.8250   77.4700  220.9210 N   0  0  0  0  0  0  0  0  0  0  0  0
  140.8290   77.7230  221.9100 C   0  0  0  0  0  0  0  0  0  0  0  0
  140.0080   76.5260  222.3080 C   0  0  0  0  0  0  0  0  0  0  0  0
  140.0650   75.4680  221.3400 N   0  0  0  0  0  0  0  0  0  0  0  0
  140.5410   74.1630  221.5850 C   0  0  0  0  0  0  0  0  0  0  0  0
  141.4720   73.6640  220.7540 N   0  0  0  0  0  0  0  0  0  0  0  0
  141.9610   72.4200  220.9530 C   0  0  0  0  0  0  0  0  0  0  0  0
  142.9480   71.9180  220.0360 N   0  0  0  0  0  0  0  0  0  0  0  0
  144.1880   72.6470  219.9650 C   0  0  0  0  0  0  0  0  0  0  0  0
  145.1590   72.0380  218.9860 C   0  0  0  0  0  0  0  0  0  0  0  0
  145.1660   70.5560  219.0590 C   0  0  0  0  0  0  0  0  0  0  0  0
  146.3470   69.8500  218.9990 C   0  0  0  0  0  0  0  0  0  0  0  0
  146.3110   68.4740  219.0720 C   0  0  0  0  0  0  0  0  0  0  0  0
  145.0900   67.8050  219.2020 C   0  0  0  0  0  0  0  0  0  0  0  0
  143.9350   68.5630  219.2570 C   0  0  0  0  0  0  0  0  0  0  0  0
  143.9300   69.9400  219.1880 C   0  0  0  0  0  0  0  0  0  0  0  0
  142.6580   70.7340  219.2490 C   0  0  0  0  0  0  0  0  0  0  0  0
  141.5230   71.6680  221.9840 N   0  0  0  0  0  0  0  0  0  0  0  0
  140.5760   72.1560  222.8400 C   0  0  0  0  0  0  0  0  0  0  0  0
  140.0870   71.3970  223.9360 N   0  0  0  0  0  0  0  0  0  0  0  0
  138.9380   70.5280  223.7720 C   0  0  0  0  0  0  0  0  0  0  0  0
  139.2520   69.1110  224.2050 C   0  0  0  0  0  0  0  0  0  0  0  0
  139.7190   69.2110  225.6190 C   0  0  0  0  0  0  0  0  0  0  0  0
  139.4490   68.1520  226.4930 C   0  0  0  0  0  0  0  0  0  0  0  0
  139.8770   68.2350  227.8100 C   0  0  0  0  0  0  0  0  0  0  0  0
  140.5660   69.3330  228.2960 C   0  0  0  0  0  0  0  0  0  0  0  0
  140.8230   70.3720  227.4090 C   0  0  0  0  0  0  0  0  0  0  0  0
  140.4060   70.3180  226.0820 C   0  0  0  0  0  0  0  0  0  0  0  0
  140.7350   71.4850  225.2290 C   0  0  0  0  0  0  0  0  0  0  0  0
  140.1050   73.4000  222.6180 N   0  0  0  0  0  0  0  0  0  0  0  0
  141.4930   78.2710  223.1530 C   0  0  0  0  0  0  0  0  0  0  0  0
  142.3680   79.4370  222.7820 C   0  0  0  0  0  0  0  0  0  0  0  0
  141.5310   80.4900  222.1080 C   0  0  0  0  0  0  0  0  0  0  0  0
  140.7940   79.9310  220.9180 C   0  0  0  0  0  0  0  0  0  0  0  0
  139.8950   78.8120  221.4120 C   0  0  0  0  0  0  0  0  0  0  0  0
  140.3225   76.9274  219.6008 H   0  0  0  0  0  0  0  0  0  0  0  0
  141.3889   78.2674  219.0586 H   0  0  0  0  0  0  0  0  0  0  0  0
  141.9990   76.5779  219.0586 H   0  0  0  0  0  0  0  0  0  0  0  0
  142.5340   76.7530  221.2020 H   0  0  0  0  0  0  0  0  0  0  0  0
  140.3847   76.1447  223.2686 H   0  0  0  0  0  0  0  0  0  0  0  0
  138.9600   76.8520  222.3822 H   0  0  0  0  0  0  0  0  0  0  0  0
  139.7250   75.6790  220.3760 H   0  0  0  0  0  0  0  0  0  0  0  0
  143.9730   73.6797  219.6529 H   0  0  0  0  0  0  0  0  0  0  0  0
  144.6528   72.6148  220.9615 H   0  0  0  0  0  0  0  0  0  0  0  0
  144.8745   72.3421  217.9679 H   0  0  0  0  0  0  0  0  0  0  0  0
  146.1676   72.3955  219.2408 H   0  0  0  0  0  0  0  0  0  0  0  0
  147.3066   70.3774  218.8941 H   0  0  0  0  0  0  0  0  0  0  0  0
  147.2478   67.8991  219.0278 H   0  0  0  0  0  0  0  0  0  0  0  0
  145.0496   66.7072  219.2589 H   0  0  0  0  0  0  0  0  0  0  0  0
  142.9721   68.0415  219.3610 H   0  0  0  0  0  0  0  0  0  0  0  0
  142.3397   71.0200  218.2356 H   0  0  0  0  0  0  0  0  0  0  0  0
  141.8441   70.1469  219.6993 H   0  0  0  0  0  0  0  0  0  0  0  0
  138.1077   70.9132  224.3821 H   0  0  0  0  0  0  0  0  0  0  0  0
  138.6644   70.5124  222.7067 H   0  0  0  0  0  0  0  0  0  0  0  0
  138.3510   68.4831  224.1428 H   0  0  0  0  0  0  0  0  0  0  0  0
  140.0138   68.6501  223.5591 H   0  0  0  0  0  0  0  0  0  0  0  0
  138.9039   67.2642  226.1399 H   0  0  0  0  0  0  0  0  0  0  0  0
  139.6614   67.3992  228.4919 H   0  0  0  0  0  0  0  0  0  0  0  0
  140.8973   69.3814  229.3438 H   0  0  0  0  0  0  0  0  0  0  0  0
  141.3691   71.2583  227.7643 H   0  0  0  0  0  0  0  0  0  0  0  0
  140.4007   72.4029  225.7346 H   0  0  0  0  0  0  0  0  0  0  0  0
  141.8233   71.5001  225.0694 H   0  0  0  0  0  0  0  0  0  0  0  0
  140.7223   78.6027  223.8644 H   0  0  0  0  0  0  0  0  0  0  0  0
  142.1070   77.4852  223.6173 H   0  0  0  0  0  0  0  0  0  0  0  0
  142.8259   79.8566  223.6898 H   0  0  0  0  0  0  0  0  0  0  0  0
  143.1603   79.1008  222.0970 H   0  0  0  0  0  0  0  0  0  0  0  0
  140.7993   80.8815  222.8301 H   0  0  0  0  0  0  0  0  0  0  0  0
  142.1995   81.2894  221.7559 H   0  0  0  0  0  0  0  0  0  0  0  0
  140.1867   80.7197  220.4498 H   0  0  0  0  0  0  0  0  0  0  0  0
  141.5051   79.5504  220.1700 H   0  0  0  0  0  0  0  0  0  0  0  0
  139.2522   79.1694  222.2300 H   0  0  0  0  0  0  0  0  0  0  0  0
  139.2307   78.4441  220.6162 H   0  0  0  0  0  0  0  0  0  0  0  0
  1  2  1  0
  2  3  1  0
  3  4  1  0
  4  5  1  0
  5  6  1  0
  6  7  2  0
  7  8  1  0
  8  9  1  0
  9 10  1  0
 10 11  1  0
 11 12  1  0
 12 13  2  0
 13 14  1  0
 14 15  2  0
 15 16  1  0
 16 17  2  0
 17 18  1  0
  8 19  2  0
 19 20  1  0
 20 21  1  0
 21 22  1  0
 22 23  1  0
 23 24  1  0
 24 25  2  0
 25 26  1  0
 26 27  2  0
 27 28  1  0
 28 29  2  0
 29 30  1  0
 20 31  2  0
  3 32  1  0
 32 33  1  0
 33 34  1  0
 34 35  1  0
 35 36  1  0
 36  3  1  0
 31  6  1  0
 18  9  1  0
 30 21  1  0
 17 12  1  0
 29 24  1  0
  1 37  1  0
  1 38  1  0
  1 39  1  0
  2 40  1  0
  4 41  1  0
  4 42  1  0
  5 43  1  0
 10 44  1  0
 10 45  1  0
 11 46  1  0
 11 47  1  0
 13 48  1  0
 14 49  1  0
 15 50  1  0
 16 51  1  0
 18 52  1  0
 18 53  1  0
 22 54  1  0
 22 55  1  0
 23 56  1  0
 23 57  1  0
 25 58  1  0
 26 59  1  0
 27 60  1  0
 28 61  1  0
 30 62  1  0
 30 63  1  0
 32 64  1  0
 32 65  1  0
 33 66  1  0
 33 67  1  0
 34 68  1  0
 34 69  1  0
 35 70  1  0
 35 71  1  0
 36 72  1  0
 36 73  1  0
M  END
>  <smiles>  (23) 
CNC1(CNc2nc(N3CCc4ccccc4C3)nc(N3CCc4ccccc4C3)n2)CCCCC1

>  <score_type>  (23) 
oracle

>  <origin>  (23) 
autodockgpu

>  <m_score__min__energy>  (23) 
-10.869999999999999

>  <m_primary>  (23) 
energy

>  <rmsd>  (23) 
10.412081081761713

>  <m_score__min__rmsd>  (23) 
10.412081081761713

>  <meeko>  (23) 
{"free_energy": -10.63, "intermolecular_energy": -12.42, "internal_energy": -1.09, "cluster_size": 16, "cluster_id": 2, "rank_in_cluster": 1}

>  <energy>  (23) 
-9.76

>  <cluster_rmsd>  (23) 
1.15

>  <cluster>  (23) 
1

$$$$

     RDKit          3D

 73 78  0  0  0  0  0  0  0  0999 V2000
  141.2320   78.1430  219.7700 C   0  0  0  0  0  0  0  0  0  0  0  0
  141.7480   78.0260  221.0960 N   0  0  0  0  0  0  0  0  0  0  0  0
  140.7920   77.7860  222.1260 C   0  0  0  0  0  0  0  0  0  0  0  0
  140.1530   76.4220  222.0970 C   0  0  0  0  0  0  0  0  0  0  0  0
  140.7590   75.5460  221.1360 N   0  0  0  0  0  0  0  0  0  0  0  0
  141.0110   74.1720  221.3290 C   0  0  0  0  0  0  0  0  0  0  0  0
  140.3840   73.5520  222.3430 N   0  0  0  0  0  0  0  0  0  0  0  0
  140.5910   72.2340  222.5630 C   0  0  0  0  0  0  0  0  0  0  0  0
  139.9110   71.6090  223.6650 N   0  0  0  0  0  0  0  0  0  0  0  0
  138.6810   70.9250  223.3550 C   0  0  0  0  0  0  0  0  0  0  0  0
  138.0510   70.2960  224.5700 C   0  0  0  0  0  0  0  0  0  0  0  0
  139.0590   69.6580  225.4520 C   0  0  0  0  0  0  0  0  0  0  0  0
  138.8160   68.4340  226.0370 C   0  0  0  0  0  0  0  0  0  0  0  0
  139.7780   67.8740  226.8480 C   0  0  0  0  0  0  0  0  0  0  0  0
  140.9870   68.5410  227.0750 C   0  0  0  0  0  0  0  0  0  0  0  0
  141.1790   69.7660  226.4630 C   0  0  0  0  0  0  0  0  0  0  0  0
  140.2400   70.3580  225.6450 C   0  0  0  0  0  0  0  0  0  0  0  0
  140.4800   71.6900  224.9960 C   0  0  0  0  0  0  0  0  0  0  0  0
  141.4230   71.5290  221.7690 N   0  0  0  0  0  0  0  0  0  0  0  0
  142.0710   72.1410  220.7330 C   0  0  0  0  0  0  0  0  0  0  0  0
  142.9570   71.4360  219.8750 N   0  0  0  0  0  0  0  0  0  0  0  0
  144.0090   72.1400  219.1680 C   0  0  0  0  0  0  0  0  0  0  0  0
  145.3660   71.5260  219.4450 C   0  0  0  0  0  0  0  0  0  0  0  0
  145.2500   70.0900  219.0540 C   0  0  0  0  0  0  0  0  0  0  0  0
  146.3810   69.4380  218.5500 C   0  0  0  0  0  0  0  0  0  0  0  0
  146.2850   68.1040  218.1810 C   0  0  0  0  0  0  0  0  0  0  0  0
  145.1050   67.3880  218.2950 C   0  0  0  0  0  0  0  0  0  0  0  0
  143.9960   68.0580  218.7990 C   0  0  0  0  0  0  0  0  0  0  0  0
  144.0610   69.3960  219.1770 C   0  0  0  0  0  0  0  0  0  0  0  0
  142.8150   70.0050  219.7000 C   0  0  0  0  0  0  0  0  0  0  0  0
  141.8480   73.4570  220.5360 N   0  0  0  0  0  0  0  0  0  0  0  0
  141.4570   77.9630  223.4720 C   0  0  0  0  0  0  0  0  0  0  0  0
  142.1540   79.2970  223.5140 C   0  0  0  0  0  0  0  0  0  0  0  0
  141.1510   80.3890  223.2590 C   0  0  0  0  0  0  0  0  0  0  0  0
  140.4180   80.1720  221.9600 C   0  0  0  0  0  0  0  0  0  0  0  0
  139.6990   78.8370  222.0490 C   0  0  0  0  0  0  0  0  0  0  0  0
  140.1601   78.3860  219.8138 H   0  0  0  0  0  0  0  0  0  0  0  0
  141.7678   78.9425  219.2373 H   0  0  0  0  0  0  0  0  0  0  0  0
  141.3706   77.1906  219.2373 H   0  0  0  0  0  0  0  0  0  0  0  0
  142.5990   77.4190  221.1540 H   0  0  0  0  0  0  0  0  0  0  0  0
  140.2468   75.9684  223.0947 H   0  0  0  0  0  0  0  0  0  0  0  0
  139.1002   76.5549  221.8073 H   0  0  0  0  0  0  0  0  0  0  0  0
  141.0360   75.9580  220.2170 H   0  0  0  0  0  0  0  0  0  0  0  0
  137.9731   71.6488  222.9249 H   0  0  0  0  0  0  0  0  0  0  0  0
  138.9157   70.1191  222.6441 H   0  0  0  0  0  0  0  0  0  0  0  0
  137.5230   71.0749  225.1397 H   0  0  0  0  0  0  0  0  0  0  0  0
  137.3571   69.5146  224.2266 H   0  0  0  0  0  0  0  0  0  0  0  0
  137.8651   67.9106  225.8583 H   0  0  0  0  0  0  0  0  0  0  0  0
  139.5950   66.8973  227.3198 H   0  0  0  0  0  0  0  0  0  0  0  0
  141.7621   68.1036  227.7215 H   0  0  0  0  0  0  0  0  0  0  0  0
  142.1279   70.2944  226.6373 H   0  0  0  0  0  0  0  0  0  0  0  0
  139.9873   72.4873  225.5718 H   0  0  0  0  0  0  0  0  0  0  0  0
  141.5539   71.9245  224.9554 H   0  0  0  0  0  0  0  0  0  0  0  0
  143.8082   72.0925  218.0875 H   0  0  0  0  0  0  0  0  0  0  0  0
  144.0228   73.1833  219.5163 H   0  0  0  0  0  0  0  0  0  0  0  0
  146.1417   72.0248  218.8455 H   0  0  0  0  0  0  0  0  0  0  0  0
  145.6522   71.6362  220.5014 H   0  0  0  0  0  0  0  0  0  0  0  0
  147.3346   69.9766  218.4476 H   0  0  0  0  0  0  0  0  0  0  0  0
  147.1771   67.5974  217.7841 H   0  0  0  0  0  0  0  0  0  0  0  0
  145.0475   66.3303  217.9983 H   0  0  0  0  0  0  0  0  0  0  0  0
  143.0436   67.5173  218.9016 H   0  0  0  0  0  0  0  0  0  0  0  0
  141.9971   69.8110  218.9905 H   0  0  0  0  0  0  0  0  0  0  0  0
  142.5969   69.5571  220.6807 H   0  0  0  0  0  0  0  0  0  0  0  0
  140.6963   77.9213  224.2655 H   0  0  0  0  0  0  0  0  0  0  0  0
  142.1920   77.1594  223.6272 H   0  0  0  0  0  0  0  0  0  0  0  0
  142.6115   79.4418  224.5038 H   0  0  0  0  0  0  0  0  0  0  0  0
  142.9377   79.3283  222.7427 H   0  0  0  0  0  0  0  0  0  0  0  0
  140.4221   80.4046  224.0827 H   0  0  0  0  0  0  0  0  0  0  0  0
  141.6902   81.3457  223.1959 H   0  0  0  0  0  0  0  0  0  0  0  0
  139.6884   80.9800  221.8027 H   0  0  0  0  0  0  0  0  0  0  0  0
  141.1238   80.1724  221.1163 H   0  0  0  0  0  0  0  0  0  0  0  0
  139.0678   78.8006  222.9491 H   0  0  0  0  0  0  0  0  0  0  0  0
  139.0385   78.6732  221.1848 H   0  0  0  0  0  0  0  0  0  0  0  0
  1  2  1  0
  2  3  1  0
  3  4  1  0
  4  5  1  0
  5  6  1  0
  6  7  2  0
  7  8  1  0
  8  9  1  0
  9 10  1  0
 10 11  1  0
 11 12  1  0
 12 13  2  0
 13 14  1  0
 14 15  2  0
 15 16  1  0
 16 17  2  0
 17 18  1  0
  8 19  2  0
 19 20  1  0
 20 21  1  0
 21 22  1  0
 22 23  1  0
 23 24  1  0
 24 25  2  0
 25 26  1  0
 26 27  2  0
 27 28  1  0
 28 29  2  0
 29 30  1  0
 20 31  2  0
  3 32  1  0
 32 33  1  0
 33 34  1  0
 34 35  1  0
 35 36  1  0
 36  3  1  0
 31  6  1  0
 18  9  1  0
 30 21  1  0
 17 12  1  0
 29 24  1  0
  1 37  1  0
  1 38  1  0
  1 39  1  0
  2 40  1  0
  4 41  1  0
  4 42  1  0
  5 43  1  0
 10 44  1  0
 10 45  1  0
 11 46  1  0
 11 47  1  0
 13 48  1  0
 14 49  1  0
 15 50  1  0
 16 51  1  0
 18 52  1  0
 18 53  1  0
 22 54  1  0
 22 55  1  0
 23 56  1  0
 23 57  1  0
 25 58  1  0
 26 59  1  0
 27 60  1  0
 28 61  1  0
 30 62  1  0
 30 63  1  0
 32 64  1  0
 32 65  1  0
 33 66  1  0
 33 67  1  0
 34 68  1  0
 34 69  1  0
 35 70  1  0
 35 71  1  0
 36 72  1  0
 36 73  1  0
M  END
>  <smiles>  (24) 
CNC1(CNc2nc(N3CCc4ccccc4C3)nc(N3CCc4ccccc4C3)n2)CCCCC1

>  <score_type>  (24) 
oracle

>  <origin>  (24) 
autodockgpu

>  <m_score__min__energy>  (24) 
-10.869999999999999

>  <m_primary>  (24) 
energy

>  <rmsd>  (24) 
11.10517905122979

>  <m_score__min__rmsd>  (24) 
11.10517905122979

>  <meeko>  (24) 
{"free_energy": -10.0, "intermolecular_energy": -11.79, "internal_energy": -1.4, "cluster_size": 16, "cluster_id": 2, "rank_in_cluster": 6}

>  <energy>  (24) 
-9.75

>  <cluster_rmsd>  (24) 
0.94

>  <cluster>  (24) 
1

$$$$

     RDKit          3D

 73 78  0  0  0  0  0  0  0  0999 V2000
  141.6820   79.1110  222.5380 C   0  0  0  0  0  0  0  0  0  0  0  0
  142.1810   78.3130  221.4660 N   0  0  0  0  0  0  0  0  0  0  0  0
  141.2770   77.3530  220.9200 C   0  0  0  0  0  0  0  0  0  0  0  0
  140.4370   76.6220  221.9340 C   0  0  0  0  0  0  0  0  0  0  0  0
  139.8970   75.3940  221.4240 N   0  0  0  0  0  0  0  0  0  0  0  0
  140.4110   74.1060  221.6840 C   0  0  0  0  0  0  0  0  0  0  0  0
  141.3600   73.6270  220.8620 N   0  0  0  0  0  0  0  0  0  0  0  0
  141.8850   72.4000  221.0760 C   0  0  0  0  0  0  0  0  0  0  0  0
  142.8910   71.9180  220.1680 N   0  0  0  0  0  0  0  0  0  0  0  0
  144.1280   72.6550  220.1320 C   0  0  0  0  0  0  0  0  0  0  0  0
  145.1190   72.0680  219.1610 C   0  0  0  0  0  0  0  0  0  0  0  0
  145.1330   70.5850  219.2090 C   0  0  0  0  0  0  0  0  0  0  0  0
  146.3190   69.8850  219.1590 C   0  0  0  0  0  0  0  0  0  0  0  0
  146.2900   68.5090  219.2080 C   0  0  0  0  0  0  0  0  0  0  0  0
  145.0700   67.8310  219.3060 C   0  0  0  0  0  0  0  0  0  0  0  0
  143.9100   68.5830  219.3520 C   0  0  0  0  0  0  0  0  0  0  0  0
  143.8990   69.9610  219.3060 C   0  0  0  0  0  0  0  0  0  0  0  0
  142.6210   70.7460  219.3580 C   0  0  0  0  0  0  0  0  0  0  0  0
  141.4650   71.6470  222.1130 N   0  0  0  0  0  0  0  0  0  0  0  0
  140.5000   72.1140  222.9590 C   0  0  0  0  0  0  0  0  0  0  0  0
  140.0290   71.3520  224.0610 N   0  0  0  0  0  0  0  0  0  0  0  0
  138.8710   70.4900  223.9150 C   0  0  0  0  0  0  0  0  0  0  0  0
  139.1870   69.0690  224.3350 C   0  0  0  0  0  0  0  0  0  0  0  0
  139.6820   69.1600  225.7400 C   0  0  0  0  0  0  0  0  0  0  0  0
  139.4240   68.0980  226.6140 C   0  0  0  0  0  0  0  0  0  0  0  0
  139.8780   68.1720  227.9230 C   0  0  0  0  0  0  0  0  0  0  0  0
  140.5820   69.2640  228.4010 C   0  0  0  0  0  0  0  0  0  0  0  0
  140.8260   70.3060  227.5140 C   0  0  0  0  0  0  0  0  0  0  0  0
  140.3830   70.2610  226.1950 C   0  0  0  0  0  0  0  0  0  0  0  0
  140.7020   71.4310  225.3410 C   0  0  0  0  0  0  0  0  0  0  0  0
  139.9920   73.3420  222.7230 N   0  0  0  0  0  0  0  0  0  0  0  0
  140.3460   78.0440  219.9500 C   0  0  0  0  0  0  0  0  0  0  0  0
  141.1540   78.8310  218.9550 C   0  0  0  0  0  0  0  0  0  0  0  0
  142.0940   77.9040  218.2340 C   0  0  0  0  0  0  0  0  0  0  0  0
  142.9660   77.1440  219.1990 C   0  0  0  0  0  0  0  0  0  0  0  0
  142.0590   76.3350  220.1090 C   0  0  0  0  0  0  0  0  0  0  0  0
  141.9669   78.6553  223.4978 H   0  0  0  0  0  0  0  0  0  0  0  0
  142.1087   80.1227  222.4714 H   0  0  0  0  0  0  0  0  0  0  0  0
  140.5856   79.1703  222.4714 H   0  0  0  0  0  0  0  0  0  0  0  0
  142.6990   78.8690  220.7450 H   0  0  0  0  0  0  0  0  0  0  0  0
  141.0618   76.3946  222.8103 H   0  0  0  0  0  0  0  0  0  0  0  0
  139.5905   77.2737  222.1961 H   0  0  0  0  0  0  0  0  0  0  0  0
  139.0540   75.4570  220.8110 H   0  0  0  0  0  0  0  0  0  0  0  0
  143.9129   73.6917  219.8336 H   0  0  0  0  0  0  0  0  0  0  0  0
  144.5750   72.6087  221.1360 H   0  0  0  0  0  0  0  0  0  0  0  0
  144.8510   72.3878  218.1432 H   0  0  0  0  0  0  0  0  0  0  0  0
  146.1209   72.4263  219.4399 H   0  0  0  0  0  0  0  0  0  0  0  0
  147.2775   70.4190  219.0809 H   0  0  0  0  0  0  0  0  0  0  0  0
  147.2307   67.9401  219.1699 H   0  0  0  0  0  0  0  0  0  0  0  0
  145.0344   66.7323  219.3453 H   0  0  0  0  0  0  0  0  0  0  0  0
  142.9480   68.0552  219.4292 H   0  0  0  0  0  0  0  0  0  0  0  0
  142.3178   71.0463  218.3441 H   0  0  0  0  0  0  0  0  0  0  0  0
  141.8031   70.1470  219.7848 H   0  0  0  0  0  0  0  0  0  0  0  0
  138.0550   70.8764  224.5433 H   0  0  0  0  0  0  0  0  0  0  0  0
  138.5754   70.4816  222.8555 H   0  0  0  0  0  0  0  0  0  0  0  0
  138.2820   68.4455  224.2875 H   0  0  0  0  0  0  0  0  0  0  0  0
  139.9338   68.6078  223.6720 H   0  0  0  0  0  0  0  0  0  0  0  0
  138.8676   67.2147  226.2672 H   0  0  0  0  0  0  0  0  0  0  0  0
  139.6714   67.3338  228.6047 H   0  0  0  0  0  0  0  0  0  0  0  0
  140.9345   69.3054  229.4422 H   0  0  0  0  0  0  0  0  0  0  0  0
  141.3830   71.1881  227.8629 H   0  0  0  0  0  0  0  0  0  0  0  0
  140.3822   72.3483  225.8571 H   0  0  0  0  0  0  0  0  0  0  0  0
  141.7871   71.4416  225.1608 H   0  0  0  0  0  0  0  0  0  0  0  0
  139.7438   77.2913  219.4201 H   0  0  0  0  0  0  0  0  0  0  0  0
  139.6799   78.7238  220.5016 H   0  0  0  0  0  0  0  0  0  0  0  0
  140.4793   79.3080  218.2289 H   0  0  0  0  0  0  0  0  0  0  0  0
  141.7314   79.6063  219.4799 H   0  0  0  0  0  0  0  0  0  0  0  0
  141.5057   77.1870  217.6426 H   0  0  0  0  0  0  0  0  0  0  0  0
  142.7434   78.5078  217.5830 H   0  0  0  0  0  0  0  0  0  0  0  0
  143.6373   76.4707  218.6458 H   0  0  0  0  0  0  0  0  0  0  0  0
  143.5805   77.8392  219.7898 H   0  0  0  0  0  0  0  0  0  0  0  0
  141.3753   75.7120  219.5136 H   0  0  0  0  0  0  0  0  0  0  0  0
  142.6339   75.6558  220.7557 H   0  0  0  0  0  0  0  0  0  0  0  0
  1  2  1  0
  2  3  1  0
  3  4  1  0
  4  5  1  0
  5  6  1  0
  6  7  2  0
  7  8  1  0
  8  9  1  0
  9 10  1  0
 10 11  1  0
 11 12  1  0
 12 13  2  0
 13 14  1  0
 14 15  2  0
 15 16  1  0
 16 17  2  0
 17 18  1  0
  8 19  2  0
 19 20  1  0
 20 21  1  0
 21 22  1  0
 22 23  1  0
 23 24  1  0
 24 25  2  0
 25 26  1  0
 26 27  2  0
 27 28  1  0
 28 29  2  0
 29 30  1  0
 20 31  2  0
  3 32  1  0
 32 33  1  0
 33 34  1  0
 34 35  1  0
 35 36  1  0
 36  3  1  0
 31  6  1  0
 18  9  1  0
 30 21  1  0
 17 12  1  0
 29 24  1  0
  1 37  1  0
  1 38  1  0
  1 39  1  0
  2 40  1  0
  4 41  1  0
  4 42  1  0
  5 43  1  0
 10 44  1  0
 10 45  1  0
 11 46  1  0
 11 47  1  0
 13 48  1  0
 14 49  1  0
 15 50  1  0
 16 51  1  0
 18 52  1  0
 18 53  1  0
 22 54  1  0
 22 55  1  0
 23 56  1  0
 23 57  1  0
 25 58  1  0
 26 59  1  0
 27 60  1  0
 28 61  1  0
 30 62  1  0
 30 63  1  0
 32 64  1  0
 32 65  1  0
 33 66  1  0
 33 67  1  0
 34 68  1  0
 34 69  1  0
 35 70  1  0
 35 71  1  0
 36 72  1  0
 36 73  1  0
M  END
>  <smiles>  (25) 
CNC1(CNc2nc(N3CCc4ccccc4C3)nc(N3CCc4ccccc4C3)n2)CCCCC1

>  <score_type>  (25) 
oracle

>  <origin>  (25) 
autodockgpu

>  <m_score__min__energy>  (25) 
-10.869999999999999

>  <m_primary>  (25) 
energy

>  <rmsd>  (25) 
10.374351252334506

>  <m_score__min__rmsd>  (25) 
10.374351252334506

>  <meeko>  (25) 
{"free_energy": -9.81, "intermolecular_energy": -11.6, "internal_energy": -1.23, "cluster_size": 16, "cluster_id": 2, "rank_in_cluster": 13}

>  <energy>  (25) 
-9.72

>  <cluster_rmsd>  (25) 
1.11

>  <cluster>  (25) 
1

$$$$

     RDKit          3D

 73 78  0  0  0  0  0  0  0  0999 V2000
  146.0080   72.9990  220.4420 C   0  0  0  0  0  0  0  0  0  0  0  0
  145.9830   73.0390  219.0160 N   0  0  0  0  0  0  0  0  0  0  0  0
  144.6980   72.9490  218.4050 C   0  0  0  0  0  0  0  0  0  0  0  0
  143.5760   73.5830  219.1850 C   0  0  0  0  0  0  0  0  0  0  0  0
  143.0080   72.6960  220.1600 N   0  0  0  0  0  0  0  0  0  0  0  0
  141.9660   73.0230  221.0520 C   0  0  0  0  0  0  0  0  0  0  0  0
  141.4920   74.2800  221.0340 N   0  0  0  0  0  0  0  0  0  0  0  0
  140.4890   74.6370  221.8680 C   0  0  0  0  0  0  0  0  0  0  0  0
  140.0170   75.9950  221.8280 N   0  0  0  0  0  0  0  0  0  0  0  0
  138.6860   76.2260  222.3300 C   0  0  0  0  0  0  0  0  0  0  0  0
  138.2870   77.6770  222.2560 C   0  0  0  0  0  0  0  0  0  0  0  0
  139.3990   78.5800  222.6410 C   0  0  0  0  0  0  0  0  0  0  0  0
  139.1730   79.6850  223.4330 C   0  0  0  0  0  0  0  0  0  0  0  0
  140.2330   80.4980  223.7700 C   0  0  0  0  0  0  0  0  0  0  0  0
  141.5220   80.2050  223.3140 C   0  0  0  0  0  0  0  0  0  0  0  0
  141.6920   79.0840  222.5220 C   0  0  0  0  0  0  0  0  0  0  0  0
  140.6580   78.2460  222.1630 C   0  0  0  0  0  0  0  0  0  0  0  0
  140.8770   77.0370  221.3020 C   0  0  0  0  0  0  0  0  0  0  0  0
  139.9550   73.7400  222.7210 N   0  0  0  0  0  0  0  0  0  0  0  0
  140.4220   72.4570  222.7550 C   0  0  0  0  0  0  0  0  0  0  0  0
  139.8890   71.4810  223.6390 N   0  0  0  0  0  0  0  0  0  0  0  0
  138.8300   70.5930  223.2000 C   0  0  0  0  0  0  0  0  0  0  0  0
  139.2070   69.1410  223.4060 C   0  0  0  0  0  0  0  0  0  0  0  0
  139.5270   69.0060  224.8570 C   0  0  0  0  0  0  0  0  0  0  0  0
  139.2550   67.7900  225.4950 C   0  0  0  0  0  0  0  0  0  0  0  0
  139.5460   67.6530  226.8450 C   0  0  0  0  0  0  0  0  0  0  0  0
  140.1000   68.6800  227.5900 C   0  0  0  0  0  0  0  0  0  0  0  0
  140.3610   69.8780  226.9340 C   0  0  0  0  0  0  0  0  0  0  0  0
  140.0790   70.0460  225.5810 C   0  0  0  0  0  0  0  0  0  0  0  0
  140.4000   71.3670  224.9900 C   0  0  0  0  0  0  0  0  0  0  0  0
  141.4240   72.1260  221.9130 N   0  0  0  0  0  0  0  0  0  0  0  0
  144.7490   73.6030  217.0420 C   0  0  0  0  0  0  0  0  0  0  0  0
  145.8960   73.0310  216.2550 C   0  0  0  0  0  0  0  0  0  0  0  0
  145.7220   71.5420  216.1330 C   0  0  0  0  0  0  0  0  0  0  0  0
  145.5800   70.8910  217.4850 C   0  0  0  0  0  0  0  0  0  0  0  0
  144.3600   71.4890  218.1630 C   0  0  0  0  0  0  0  0  0  0  0  0
  145.4652   73.8678  220.8427 H   0  0  0  0  0  0  0  0  0  0  0  0
  145.5274   72.0733  220.7913 H   0  0  0  0  0  0  0  0  0  0  0  0
  147.0507   73.0251  220.7913 H   0  0  0  0  0  0  0  0  0  0  0  0
  146.5950   73.7880  218.6140 H   0  0  0  0  0  0  0  0  0  0  0  0
  143.9659   74.4717  219.7028 H   0  0  0  0  0  0  0  0  0  0  0  0
  142.7812   73.8439  218.4707 H   0  0  0  0  0  0  0  0  0  0  0  0
  143.3970   71.7280  220.2140 H   0  0  0  0  0  0  0  0  0  0  0  0
  137.9761   75.6338  221.7339 H   0  0  0  0  0  0  0  0  0  0  0  0
  138.6709   75.9280  223.3888 H   0  0  0  0  0  0  0  0  0  0  0  0
  137.9819   77.9092  221.2250 H   0  0  0  0  0  0  0  0  0  0  0  0
  137.4590   77.8379  222.9621 H   0  0  0  0  0  0  0  0  0  0  0  0
  138.1589   79.9150  223.7916 H   0  0  0  0  0  0  0  0  0  0  0  0
  140.0643   81.3828  224.4015 H   0  0  0  0  0  0  0  0  0  0  0  0
  142.3755   80.8471  223.5774 H   0  0  0  0  0  0  0  0  0  0  0  0
  142.7039   78.8491  222.1601 H   0  0  0  0  0  0  0  0  0  0  0  0
  140.6091   77.2600  220.2587 H   0  0  0  0  0  0  0  0  0  0  0  0
  141.9320   76.7258  221.3147 H   0  0  0  0  0  0  0  0  0  0  0  0
  137.9182   70.8113  223.7752 H   0  0  0  0  0  0  0  0  0  0  0  0
  138.6620   70.7584  222.1256 H   0  0  0  0  0  0  0  0  0  0  0  0
  138.3661   68.4850  223.1366 H   0  0  0  0  0  0  0  0  0  0  0  0
  140.0597   68.8506  222.7747 H   0  0  0  0  0  0  0  0  0  0  0  0
  138.8157   66.9528  224.9328 H   0  0  0  0  0  0  0  0  0  0  0  0
  139.3289   66.6951  227.3403 H   0  0  0  0  0  0  0  0  0  0  0  0
  140.3250   68.5533  228.6593 H   0  0  0  0  0  0  0  0  0  0  0  0
  140.8011   70.7136  227.4980 H   0  0  0  0  0  0  0  0  0  0  0  0
  139.9494   72.1555  225.6106 H   0  0  0  0  0  0  0  0  0  0  0  0
  141.4943   71.4739  224.9560 H   0  0  0  0  0  0  0  0  0  0  0  0
  143.8064   73.4121  216.5081 H   0  0  0  0  0  0  0  0  0  0  0  0
  144.8897   74.6875  217.1603 H   0  0  0  0  0  0  0  0  0  0  0  0
  145.9145   73.4821  215.2519 H   0  0  0  0  0  0  0  0  0  0  0  0
  146.8424   73.2502  216.7710 H   0  0  0  0  0  0  0  0  0  0  0  0
  144.8192   71.3348  215.5397 H   0  0  0  0  0  0  0  0  0  0  0  0
  146.6156   71.1286  215.6425 H   0  0  0  0  0  0  0  0  0  0  0  0
  145.4471   69.8056  217.3655 H   0  0  0  0  0  0  0  0  0  0  0  0
  146.4807   71.0657  218.0918 H   0  0  0  0  0  0  0  0  0  0  0  0
  143.4782   71.4025  217.5112 H   0  0  0  0  0  0  0  0  0  0  0  0
  144.1206   70.9671  219.1012 H   0  0  0  0  0  0  0  0  0  0  0  0
  1  2  1  0
  2  3  1  0
  3  4  1  0
  4  5  1  0
  5  6  1  0
  6  7  2  0
  7  8  1  0
  8  9  1  0
  9 10  1  0
 10 11  1  0
 11 12  1  0
 12 13  2  0
 13 14  1  0
 14 15  2  0
 15 16  1  0
 16 17  2  0
 17 18  1  0
  8 19  2  0
 19 20  1  0
 20 21  1  0
 21 22  1  0
 22 23  1  0
 23 24  1  0
 24 25  2  0
 25 26  1  0
 26 27  2  0
 27 28  1  0
 28 29  2  0
 29 30  1  0
 20 31  2  0
  3 32  1  0
 32 33  1  0
 33 34  1  0
 34 35  1  0
 35 36  1  0
 36  3  1  0
 31  6  1  0
 18  9  1  0
 30 21  1  0
 17 12  1  0
 29 24  1  0
  1 37  1  0
  1 38  1  0
  1 39  1  0
  2 40  1  0
  4 41  1  0
  4 42  1  0
  5 43  1  0
 10 44  1  0
 10 45  1  0
 11 46  1  0
 11 47  1  0
 13 48  1  0
 14 49  1  0
 15 50  1  0
 16 51  1  0
 18 52  1  0
 18 53  1  0
 22 54  1  0
 22 55  1  0
 23 56  1  0
 23 57  1  0
 25 58  1  0
 26 59  1  0
 27 60  1  0
 28 61  1  0
 30 62  1  0
 30 63  1  0
 32 64  1  0
 32 65  1  0
 33 66  1  0
 33 67  1  0
 34 68  1  0
 34 69  1  0
 35 70  1  0
 35 71  1  0
 36 72  1  0
 36 73  1  0
M  END
>  <smiles>  (26) 
CNC1(CNc2nc(N3CCc4ccccc4C3)nc(N3CCc4ccccc4C3)n2)CCCCC1

>  <score_type>  (26) 
oracle

>  <origin>  (26) 
autodockgpu

>  <m_score__min__energy>  (26) 
-10.869999999999999

>  <m_primary>  (26) 
energy

>  <rmsd>  (26) 
5.145508676839746

>  <m_score__min__rmsd>  (26) 
5.145508676839746

>  <meeko>  (26) 
{"free_energy": -10.37, "intermolecular_energy": -12.16, "internal_energy": -1.08, "cluster_size": 29, "cluster_id": 1, "rank_in_cluster": 12}

>  <energy>  (26) 
-9.51

>  <cluster_rmsd>  (26) 
1.39

>  <cluster>  (26) 
1

$$$$

     RDKit          3D

 73 78  0  0  0  0  0  0  0  0999 V2000
  145.1690   72.9860  216.7730 C   0  0  0  0  0  0  0  0  0  0  0  0
  145.0090   73.7490  217.9680 N   0  0  0  0  0  0  0  0  0  0  0  0
  144.0890   73.2320  218.9280 C   0  0  0  0  0  0  0  0  0  0  0  0
  142.6540   73.1820  218.4730 C   0  0  0  0  0  0  0  0  0  0  0  0
  141.8310   72.3690  219.3230 N   0  0  0  0  0  0  0  0  0  0  0  0
  141.1720   72.8150  220.4870 C   0  0  0  0  0  0  0  0  0  0  0  0
  140.8930   74.1260  220.5930 N   0  0  0  0  0  0  0  0  0  0  0  0
  140.2580   74.5970  221.6890 C   0  0  0  0  0  0  0  0  0  0  0  0
  139.9870   76.0060  221.7700 N   0  0  0  0  0  0  0  0  0  0  0  0
  138.8040   76.3920  222.4960 C   0  0  0  0  0  0  0  0  0  0  0  0
  138.6130   77.8860  222.5340 C   0  0  0  0  0  0  0  0  0  0  0  0
  139.8920   78.6050  222.7540 C   0  0  0  0  0  0  0  0  0  0  0  0
  139.9600   79.6860  223.6050 C   0  0  0  0  0  0  0  0  0  0  0  0
  141.1680   80.3250  223.7840 C   0  0  0  0  0  0  0  0  0  0  0  0
  142.3090   79.8820  223.1080 C   0  0  0  0  0  0  0  0  0  0  0  0
  142.1840   78.7930  222.2650 C   0  0  0  0  0  0  0  0  0  0  0  0
  140.9940   78.1260  222.0610 C   0  0  0  0  0  0  0  0  0  0  0  0
  140.8930   76.9470  221.1380 C   0  0  0  0  0  0  0  0  0  0  0  0
  139.8960   73.7610  222.6830 N   0  0  0  0  0  0  0  0  0  0  0  0
  140.1700   72.4250  222.5960 C   0  0  0  0  0  0  0  0  0  0  0  0
  139.8080   71.5110  223.6220 N   0  0  0  0  0  0  0  0  0  0  0  0
  138.7120   70.5830  223.4250 C   0  0  0  0  0  0  0  0  0  0  0  0
  139.1490   69.1530  223.6680 C   0  0  0  0  0  0  0  0  0  0  0  0
  139.7030   69.1270  225.0530 C   0  0  0  0  0  0  0  0  0  0  0  0
  139.5650   67.9580  225.8110 C   0  0  0  0  0  0  0  0  0  0  0  0
  140.0740   67.9230  227.1010 C   0  0  0  0  0  0  0  0  0  0  0  0
  140.7190   69.0070  227.6720 C   0  0  0  0  0  0  0  0  0  0  0  0
  140.8440   70.1570  226.9000 C   0  0  0  0  0  0  0  0  0  0  0  0
  140.3430   70.2230  225.6020 C   0  0  0  0  0  0  0  0  0  0  0  0
  140.5350   71.5010  224.8750 C   0  0  0  0  0  0  0  0  0  0  0  0
  140.8060   71.9810  221.4920 N   0  0  0  0  0  0  0  0  0  0  0  0
  144.5080   71.8310  219.3120 C   0  0  0  0  0  0  0  0  0  0  0  0
  145.9570   71.8350  219.7200 C   0  0  0  0  0  0  0  0  0  0  0  0
  146.1460   72.7890  220.8670 C   0  0  0  0  0  0  0  0  0  0  0  0
  145.6480   74.1700  220.5240 C   0  0  0  0  0  0  0  0  0  0  0  0
  144.1700   74.0630  220.1960 C   0  0  0  0  0  0  0  0  0  0  0  0
  145.3884   71.9398  217.0326 H   0  0  0  0  0  0  0  0  0  0  0  0
  144.2420   73.0306  216.1826 H   0  0  0  0  0  0  0  0  0  0  0  0
  146.0000   73.3993  216.1826 H   0  0  0  0  0  0  0  0  0  0  0  0
  145.9180   74.0680  218.3770 H   0  0  0  0  0  0  0  0  0  0  0  0
  142.2508   74.2054  218.4673 H   0  0  0  0  0  0  0  0  0  0  0  0
  142.6395   72.7332  217.4688 H   0  0  0  0  0  0  0  0  0  0  0  0
  141.7080   71.3670  219.0580 H   0  0  0  0  0  0  0  0  0  0  0  0
  137.9280   75.9365  222.0111 H   0  0  0  0  0  0  0  0  0  0  0  0
  138.9190   76.0430  223.5328 H   0  0  0  0  0  0  0  0  0  0  0  0
  138.1819   78.2133  221.5764 H   0  0  0  0  0  0  0  0  0  0  0  0
  137.9425   78.1213  223.3737 H   0  0  0  0  0  0  0  0  0  0  0  0
  139.0615   80.0349  224.1351 H   0  0  0  0  0  0  0  0  0  0  0  0
  141.2349   81.1883  224.4624 H   0  0  0  0  0  0  0  0  0  0  0  0
  143.2779   80.3851  223.2429 H   0  0  0  0  0  0  0  0  0  0  0  0
  143.0785   78.4410  221.7302 H   0  0  0  0  0  0  0  0  0  0  0  0
  140.4945   77.2613  220.1621 H   0  0  0  0  0  0  0  0  0  0  0  0
  141.8796   76.4931  220.9627 H   0  0  0  0  0  0  0  0  0  0  0  0
  137.9009   70.8333  224.1246 H   0  0  0  0  0  0  0  0  0  0  0  0
  138.3688   70.6682  222.3834 H   0  0  0  0  0  0  0  0  0  0  0  0
  138.2900   68.4708  223.5862 H   0  0  0  0  0  0  0  0  0  0  0  0
  139.8941   68.8260  222.9277 H   0  0  0  0  0  0  0  0  0  0  0  0
  139.0588   67.0775  225.3885 H   0  0  0  0  0  0  0  0  0  0  0  0
  139.9612   67.0015  227.6911 H   0  0  0  0  0  0  0  0  0  0  0  0
  141.1170   68.9604  228.6964 H   0  0  0  0  0  0  0  0  0  0  0  0
  141.3509   71.0360  227.3248 H   0  0  0  0  0  0  0  0  0  0  0  0
  140.1749   72.3283  225.5043 H   0  0  0  0  0  0  0  0  0  0  0  0
  141.6065   71.6160  224.6544 H   0  0  0  0  0  0  0  0  0  0  0  0
  143.8912   71.4813  220.1530 H   0  0  0  0  0  0  0  0  0  0  0  0
  144.3708   71.1585  218.4524 H   0  0  0  0  0  0  0  0  0  0  0  0
  146.2543   70.8226  220.0309 H   0  0  0  0  0  0  0  0  0  0  0  0
  146.5790   72.1519  218.8699 H   0  0  0  0  0  0  0  0  0  0  0  0
  145.5896   72.4146  221.7389 H   0  0  0  0  0  0  0  0  0  0  0  0
  147.2216   72.8547  221.0880 H   0  0  0  0  0  0  0  0  0  0  0  0
  145.7930   74.8436  221.3815 H   0  0  0  0  0  0  0  0  0  0  0  0
  146.2033   74.5761  219.6656 H   0  0  0  0  0  0  0  0  0  0  0  0
  143.6304   73.5657  221.0155 H   0  0  0  0  0  0  0  0  0  0  0  0
  143.7114   75.0538  220.0617 H   0  0  0  0  0  0  0  0  0  0  0  0
  1  2  1  0
  2  3  1  0
  3  4  1  0
  4  5  1  0
  5  6  1  0
  6  7  2  0
  7  8  1  0
  8  9  1  0
  9 10  1  0
 10 11  1  0
 11 12  1  0
 12 13  2  0
 13 14  1  0
 14 15  2  0
 15 16  1  0
 16 17  2  0
 17 18  1  0
  8 19  2  0
 19 20  1  0
 20 21  1  0
 21 22  1  0
 22 23  1  0
 23 24  1  0
 24 25  2  0
 25 26  1  0
 26 27  2  0
 27 28  1  0
 28 29  2  0
 29 30  1  0
 20 31  2  0
  3 32  1  0
 32 33  1  0
 33 34  1  0
 34 35  1  0
 35 36  1  0
 36  3  1  0
 31  6  1  0
 18  9  1  0
 30 21  1  0
 17 12  1  0
 29 24  1  0
  1 37  1  0
  1 38  1  0
  1 39  1  0
  2 40  1  0
  4 41  1  0
  4 42  1  0
  5 43  1  0
 10 44  1  0
 10 45  1  0
 11 46  1  0
 11 47  1  0
 13 48  1  0
 14 49  1  0
 15 50  1  0
 16 51  1  0
 18 52  1  0
 18 53  1  0
 22 54  1  0
 22 55  1  0
 23 56  1  0
 23 57  1  0
 25 58  1  0
 26 59  1  0
 27 60  1  0
 28 61  1  0
 30 62  1  0
 30 63  1  0
 32 64  1  0
 32 65  1  0
 33 66  1  0
 33 67  1  0
 34 68  1  0
 34 69  1  0
 35 70  1  0
 35 71  1  0
 36 72  1  0
 36 73  1  0
M  END
>  <smiles>  (27) 
CNC1(CNc2nc(N3CCc4ccccc4C3)nc(N3CCc4ccccc4C3)n2)CCCCC1

>  <score_type>  (27) 
oracle

>  <origin>  (27) 
autodockgpu

>  <m_score__min__energy>  (27) 
-10.869999999999999

>  <m_primary>  (27) 
energy

>  <rmsd>  (27) 
5.247973402735466

>  <m_score__min__rmsd>  (27) 
5.247973402735466

>  <meeko>  (27) 
{"free_energy": -10.61, "intermolecular_energy": -12.4, "internal_energy": -1.33, "cluster_size": 29, "cluster_id": 1, "rank_in_cluster": 6}

>  <energy>  (27) 
-9.21

>  <cluster_rmsd>  (27) 
1.26

>  <cluster>  (27) 
1

$$$$

     RDKit          3D

 73 78  0  0  0  0  0  0  0  0999 V2000
  145.1570   72.9370  216.9120 C   0  0  0  0  0  0  0  0  0  0  0  0
  144.9150   73.7240  218.0780 N   0  0  0  0  0  0  0  0  0  0  0  0
  144.0350   73.1600  219.0480 C   0  0  0  0  0  0  0  0  0  0  0  0
  142.6720   72.7840  218.5300 C   0  0  0  0  0  0  0  0  0  0  0  0
  141.9150   72.0100  219.4730 N   0  0  0  0  0  0  0  0  0  0  0  0
  141.2400   72.5280  220.5980 C   0  0  0  0  0  0  0  0  0  0  0  0
  140.9230   73.8340  220.5980 N   0  0  0  0  0  0  0  0  0  0  0  0
  140.2710   74.3720  221.6530 C   0  0  0  0  0  0  0  0  0  0  0  0
  139.9590   75.7750  221.6210 N   0  0  0  0  0  0  0  0  0  0  0  0
  138.6040   76.1390  221.9510 C   0  0  0  0  0  0  0  0  0  0  0  0
  138.3800   77.6270  221.9000 C   0  0  0  0  0  0  0  0  0  0  0  0
  139.5180   78.3820  222.4790 C   0  0  0  0  0  0  0  0  0  0  0  0
  139.3040   79.4760  223.2900 C   0  0  0  0  0  0  0  0  0  0  0  0
  140.3880   80.1490  223.8090 C   0  0  0  0  0  0  0  0  0  0  0  0
  141.6900   79.7270  223.5160 C   0  0  0  0  0  0  0  0  0  0  0  0
  141.8460   78.6240  222.6970 C   0  0  0  0  0  0  0  0  0  0  0  0
  140.7870   77.9240  222.1580 C   0  0  0  0  0  0  0  0  0  0  0  0
  140.9920   76.7310  221.2720 C   0  0  0  0  0  0  0  0  0  0  0  0
  139.9320   73.6080  222.7120 N   0  0  0  0  0  0  0  0  0  0  0  0
  140.2460   72.2780  222.7320 C   0  0  0  0  0  0  0  0  0  0  0  0
  139.9090   71.4390  223.8280 N   0  0  0  0  0  0  0  0  0  0  0  0
  138.7990   70.5120  223.7280 C   0  0  0  0  0  0  0  0  0  0  0  0
  139.2320   69.0970  224.0530 C   0  0  0  0  0  0  0  0  0  0  0  0
  139.8290   69.1580  225.4190 C   0  0  0  0  0  0  0  0  0  0  0  0
  139.7050   68.0440  226.2570 C   0  0  0  0  0  0  0  0  0  0  0  0
  140.2540   68.0890  227.5300 C   0  0  0  0  0  0  0  0  0  0  0  0
  140.9260   69.2030  228.0060 C   0  0  0  0  0  0  0  0  0  0  0  0
  141.0360   70.2970  227.1550 C   0  0  0  0  0  0  0  0  0  0  0  0
  140.4950   70.2810  225.8730 C   0  0  0  0  0  0  0  0  0  0  0  0
  140.6750   71.5050  225.0560 C   0  0  0  0  0  0  0  0  0  0  0  0
  140.8970   71.7660  221.6670 N   0  0  0  0  0  0  0  0  0  0  0  0
  144.6720   71.9200  219.6340 C   0  0  0  0  0  0  0  0  0  0  0  0
  146.0610   72.2490  220.1120 C   0  0  0  0  0  0  0  0  0  0  0  0
  145.9860   73.3510  221.1320 C   0  0  0  0  0  0  0  0  0  0  0  0
  145.2720   74.5610  220.5860 C   0  0  0  0  0  0  0  0  0  0  0  0
  143.8670   74.1360  220.1990 C   0  0  0  0  0  0  0  0  0  0  0  0
  145.4682   71.9251  217.2107 H   0  0  0  0  0  0  0  0  0  0  0  0
  144.2362   72.8757  216.3134 H   0  0  0  0  0  0  0  0  0  0  0  0
  145.9531   73.4037  216.3134 H   0  0  0  0  0  0  0  0  0  0  0  0
  145.7860   74.1400  218.4830 H   0  0  0  0  0  0  0  0  0  0  0  0
  142.1152   73.7052  218.3034 H   0  0  0  0  0  0  0  0  0  0  0  0
  142.8169   72.1650  217.6323 H   0  0  0  0  0  0  0  0  0  0  0  0
  141.8560   70.9800  219.3130 H   0  0  0  0  0  0  0  0  0  0  0  0
  137.9239   75.6548  221.2348 H   0  0  0  0  0  0  0  0  0  0  0  0
  138.4090   75.8059  222.9811 H   0  0  0  0  0  0  0  0  0  0  0  0
  138.2500   77.9305  220.8507 H   0  0  0  0  0  0  0  0  0  0  0  0
  137.4836   77.8555  222.4952 H   0  0  0  0  0  0  0  0  0  0  0  0
  138.2806   79.8073  223.5197 H   0  0  0  0  0  0  0  0  0  0  0  0
  140.2295   81.0232  224.4575 H   0  0  0  0  0  0  0  0  0  0  0  0
  142.5629   80.2569  223.9250 H   0  0  0  0  0  0  0  0  0  0  0  0
  142.8669   78.2876  222.4634 H   0  0  0  0  0  0  0  0  0  0  0  0
  140.8987   77.0222  220.2154 H   0  0  0  0  0  0  0  0  0  0  0  0
  141.9948   76.3007  221.4108 H   0  0  0  0  0  0  0  0  0  0  0  0
  138.0127   70.8171  224.4341 H   0  0  0  0  0  0  0  0  0  0  0  0
  138.4230   70.5311  222.6944 H   0  0  0  0  0  0  0  0  0  0  0  0
  138.3654   68.4196  224.0436 H   0  0  0  0  0  0  0  0  0  0  0  0
  139.9509   68.7138  223.3138 H   0  0  0  0  0  0  0  0  0  0  0  0
  139.1781   67.1429  225.9100 H   0  0  0  0  0  0  0  0  0  0  0  0
  140.1523   67.2103  228.1838 H   0  0  0  0  0  0  0  0  0  0  0  0
  141.3560   69.2213  229.0183 H   0  0  0  0  0  0  0  0  0  0  0  0
  141.5635   71.1971  227.5036 H   0  0  0  0  0  0  0  0  0  0  0  0
  140.3421   72.3764  225.6389 H   0  0  0  0  0  0  0  0  0  0  0  0
  141.7400   71.5932  224.7951 H   0  0  0  0  0  0  0  0  0  0  0  0
  144.0677   71.5623  220.4807 H   0  0  0  0  0  0  0  0  0  0  0  0
  144.7246   71.1356  218.8646 H   0  0  0  0  0  0  0  0  0  0  0  0
  146.5141   71.3563  220.5678 H   0  0  0  0  0  0  0  0  0  0  0  0
  146.6766   72.5753  219.2608 H   0  0  0  0  0  0  0  0  0  0  0  0
  145.4431   72.9840  222.0155 H   0  0  0  0  0  0  0  0  0  0  0  0
  147.0119   73.6461  221.3976 H   0  0  0  0  0  0  0  0  0  0  0  0
  145.2268   75.3470  221.3542 H   0  0  0  0  0  0  0  0  0  0  0  0
  145.8069   74.9605  219.7117 H   0  0  0  0  0  0  0  0  0  0  0  0
  143.3672   73.6459  221.0475 H   0  0  0  0  0  0  0  0  0  0  0  0
  143.2465   74.9981  219.9129 H   0  0  0  0  0  0  0  0  0  0  0  0
  1  2  1  0
  2  3  1  0
  3  4  1  0
  4  5  1  0
  5  6  1  0
  6  7  2  0
  7  8  1  0
  8  9  1  0
  9 10  1  0
 10 11  1  0
 11 12  1  0
 12 13  2  0
 13 14  1  0
 14 15  2  0
 15 16  1  0
 16 17  2  0
 17 18  1  0
  8 19  2  0
 19 20  1  0
 20 21  1  0
 21 22  1  0
 22 23  1  0
 23 24  1  0
 24 25  2  0
 25 26  1  0
 26 27  2  0
 27 28  1  0
 28 29  2  0
 29 30  1  0
 20 31  2  0
  3 32  1  0
 32 33  1  0
 33 34  1  0
 34 35  1  0
 35 36  1  0
 36  3  1  0
 31  6  1  0
 18  9  1  0
 30 21  1  0
 17 12  1  0
 29 24  1  0
  1 37  1  0
  1 38  1  0
  1 39  1  0
  2 40  1  0
  4 41  1  0
  4 42  1  0
  5 43  1  0
 10 44  1  0
 10 45  1  0
 11 46  1  0
 11 47  1  0
 13 48  1  0
 14 49  1  0
 15 50  1  0
 16 51  1  0
 18 52  1  0
 18 53  1  0
 22 54  1  0
 22 55  1  0
 23 56  1  0
 23 57  1  0
 25 58  1  0
 26 59  1  0
 27 60  1  0
 28 61  1  0
 30 62  1  0
 30 63  1  0
 32 64  1  0
 32 65  1  0
 33 66  1  0
 33 67  1  0
 34 68  1  0
 34 69  1  0
 35 70  1  0
 35 71  1  0
 36 72  1  0
 36 73  1  0
M  END
>  <smiles>  (28) 
CNC1(CNc2nc(N3CCc4ccccc4C3)nc(N3CCc4ccccc4C3)n2)CCCCC1

>  <score_type>  (28) 
oracle

>  <origin>  (28) 
autodockgpu

>  <m_score__min__energy>  (28) 
-10.869999999999999

>  <m_primary>  (28) 
energy

>  <rmsd>  (28) 
5.1484414819532756

>  <m_score__min__rmsd>  (28) 
5.1484414819532756

>  <meeko>  (28) 
{"free_energy": -10.78, "intermolecular_energy": -12.57, "internal_energy": -1.37, "cluster_size": 29, "cluster_id": 1, "rank_in_cluster": 2}

>  <energy>  (28) 
-8.88

>  <cluster_rmsd>  (28) 
1.1

>  <cluster>  (28) 
1

$$$$

     RDKit          3D

 73 78  0  0  0  0  0  0  0  0999 V2000
  146.2410   73.4310  220.5520 C   0  0  0  0  0  0  0  0  0  0  0  0
  146.0240   73.1180  219.1770 N   0  0  0  0  0  0  0  0  0  0  0  0
  144.7580   72.5470  218.8530 C   0  0  0  0  0  0  0  0  0  0  0  0
  144.0080   71.9570  220.0180 C   0  0  0  0  0  0  0  0  0  0  0  0
  142.5840   72.0600  219.8690 N   0  0  0  0  0  0  0  0  0  0  0  0
  141.6910   72.5200  220.8600 C   0  0  0  0  0  0  0  0  0  0  0  0
  141.3050   73.8060  220.8140 N   0  0  0  0  0  0  0  0  0  0  0  0
  140.4470   74.2890  221.7400 C   0  0  0  0  0  0  0  0  0  0  0  0
  140.0660   75.6730  221.6650 N   0  0  0  0  0  0  0  0  0  0  0  0
  138.7010   75.9830  222.0100 C   0  0  0  0  0  0  0  0  0  0  0  0
  138.4030   77.4560  221.9090 C   0  0  0  0  0  0  0  0  0  0  0  0
  139.5140   78.2860  222.4370 C   0  0  0  0  0  0  0  0  0  0  0  0
  139.2630   79.3970  223.2110 C   0  0  0  0  0  0  0  0  0  0  0  0
  140.3220   80.1410  223.6830 C   0  0  0  0  0  0  0  0  0  0  0  0
  141.6370   79.7720  223.3780 C   0  0  0  0  0  0  0  0  0  0  0  0
  141.8310   78.6480  222.5960 C   0  0  0  0  0  0  0  0  0  0  0  0
  140.7980   77.8790  222.1060 C   0  0  0  0  0  0  0  0  0  0  0  0
  141.0440   76.6640  221.2590 C   0  0  0  0  0  0  0  0  0  0  0  0
  139.9700   73.4890  222.7160 N   0  0  0  0  0  0  0  0  0  0  0  0
  140.3500   72.1780  222.7810 C   0  0  0  0  0  0  0  0  0  0  0  0
  139.8730   71.3030  223.7930 N   0  0  0  0  0  0  0  0  0  0  0  0
  138.7500   70.4230  223.5320 C   0  0  0  0  0  0  0  0  0  0  0  0
  139.0990   68.9800  223.8280 C   0  0  0  0  0  0  0  0  0  0  0  0
  139.5510   68.9540  225.2500 C   0  0  0  0  0  0  0  0  0  0  0  0
  139.3030   67.8080  226.0140 C   0  0  0  0  0  0  0  0  0  0  0  0
  139.7170   67.7740  227.3380 C   0  0  0  0  0  0  0  0  0  0  0  0
  140.3720   68.8370  227.9360 C   0  0  0  0  0  0  0  0  0  0  0  0
  140.6060   69.9640  227.1570 C   0  0  0  0  0  0  0  0  0  0  0  0
  140.2030   70.0290  225.8260 C   0  0  0  0  0  0  0  0  0  0  0  0
  140.5070   71.2820  225.0950 C   0  0  0  0  0  0  0  0  0  0  0  0
  141.2080   71.7220  221.8450 N   0  0  0  0  0  0  0  0  0  0  0  0
  143.8840   73.6070  218.2200 C   0  0  0  0  0  0  0  0  0  0  0  0
  144.6270   74.2560  217.0840 C   0  0  0  0  0  0  0  0  0  0  0  0
  145.0150   73.2060  216.0800 C   0  0  0  0  0  0  0  0  0  0  0  0
  145.8120   72.0990  216.7210 C   0  0  0  0  0  0  0  0  0  0  0  0
  144.9500   71.4700  217.8000 C   0  0  0  0  0  0  0  0  0  0  0  0
  145.7273   72.6901  221.1822 H   0  0  0  0  0  0  0  0  0  0  0  0
  147.3196   73.4104  220.7669 H   0  0  0  0  0  0  0  0  0  0  0  0
  145.8434   74.4338  220.7669 H   0  0  0  0  0  0  0  0  0  0  0  0
  146.3270   73.8820  218.5280 H   0  0  0  0  0  0  0  0  0  0  0  0
  144.2766   70.8941  220.1076 H   0  0  0  0  0  0  0  0  0  0  0  0
  144.2901   72.5248  220.9169 H   0  0  0  0  0  0  0  0  0  0  0  0
  142.1730   71.7740  218.9530 H   0  0  0  0  0  0  0  0  0  0  0  0
  138.0319   75.4397  221.3266 H   0  0  0  0  0  0  0  0  0  0  0  0
  138.5424   75.6799  223.0555 H   0  0  0  0  0  0  0  0  0  0  0  0
  138.2388   77.7134  220.8522 H   0  0  0  0  0  0  0  0  0  0  0  0
  137.5075   77.6634  222.5131 H   0  0  0  0  0  0  0  0  0  0  0  0
  138.2291   79.6870  223.4496 H   0  0  0  0  0  0  0  0  0  0  0  0
  140.1330   81.0298  224.3029 H   0  0  0  0  0  0  0  0  0  0  0  0
  142.4906   80.3583  223.7491 H   0  0  0  0  0  0  0  0  0  0  0  0
  142.8624   78.3529  222.3528 H   0  0  0  0  0  0  0  0  0  0  0  0
  140.9156   76.9106  220.1947 H   0  0  0  0  0  0  0  0  0  0  0  0
  142.0693   76.2881  221.3916 H   0  0  0  0  0  0  0  0  0  0  0  0
  137.9040   70.7242  224.1673 H   0  0  0  0  0  0  0  0  0  0  0  0
  138.4866   70.5042  222.4671 H   0  0  0  0  0  0  0  0  0  0  0  0
  138.2162   68.3374  223.6950 H   0  0  0  0  0  0  0  0  0  0  0  0
  139.8785   68.6046  223.1487 H   0  0  0  0  0  0  0  0  0  0  0  0
  138.7860   66.9444  225.5702 H   0  0  0  0  0  0  0  0  0  0  0  0
  139.5178   66.8707  227.9333 H   0  0  0  0  0  0  0  0  0  0  0  0
  140.6946   68.7914  228.9866 H   0  0  0  0  0  0  0  0  0  0  0  0
  141.1227   70.8264  227.6034 H   0  0  0  0  0  0  0  0  0  0  0  0
  140.1430   72.1369  225.6838 H   0  0  0  0  0  0  0  0  0  0  0  0
  141.5958   71.3421  224.9502 H   0  0  0  0  0  0  0  0  0  0  0  0
  142.9628   73.1428  217.8381 H   0  0  0  0  0  0  0  0  0  0  0  0
  143.6265   74.3674  218.9720 H   0  0  0  0  0  0  0  0  0  0  0  0
  143.9806   75.0043  216.6020 H   0  0  0  0  0  0  0  0  0  0  0  0
  145.5314   74.7496  217.4693 H   0  0  0  0  0  0  0  0  0  0  0  0
  144.1026   72.7799  215.6373 H   0  0  0  0  0  0  0  0  0  0  0  0
  145.6395   73.6795  215.3081 H   0  0  0  0  0  0  0  0  0  0  0  0
  146.0770   71.3437  215.9665 H   0  0  0  0  0  0  0  0  0  0  0  0
  146.7410   72.4969  217.1554 H   0  0  0  0  0  0  0  0  0  0  0  0
  143.9790   71.1626  217.3844 H   0  0  0  0  0  0  0  0  0  0  0  0
  145.4205   70.5695  218.2216 H   0  0  0  0  0  0  0  0  0  0  0  0
  1  2  1  0
  2  3  1  0
  3  4  1  0
  4  5  1  0
  5  6  1  0
  6  7  2  0
  7  8  1  0
  8  9  1  0
  9 10  1  0
 10 11  1  0
 11 12  1  0
 12 13  2  0
 13 14  1  0
 14 15  2  0
 15 16  1  0
 16 17  2  0
 17 18  1  0
  8 19  2  0
 19 20  1  0
 20 21  1  0
 21 22  1  0
 22 23  1  0
 23 24  1  0
 24 25  2  0
 25 26  1  0
 26 27  2  0
 27 28  1  0
 28 29  2  0
 29 30  1  0
 20 31  2  0
  3 32  1  0
 32 33  1  0
 33 34  1  0
 34 35  1  0
 35 36  1  0
 36  3  1  0
 31  6  1  0
 18  9  1  0
 30 21  1  0
 17 12  1  0
 29 24  1  0
  1 37  1  0
  1 38  1  0
  1 39  1  0
  2 40  1  0
  4 41  1  0
  4 42  1  0
  5 43  1  0
 10 44  1  0
 10 45  1  0
 11 46  1  0
 11 47  1  0
 13 48  1  0
 14 49  1  0
 15 50  1  0
 16 51  1  0
 18 52  1  0
 18 53  1  0
 22 54  1  0
 22 55  1  0
 23 56  1  0
 23 57  1  0
 25 58  1  0
 26 59  1  0
 27 60  1  0
 28 61  1  0
 30 62  1  0
 30 63  1  0
 32 64  1  0
 32 65  1  0
 33 66  1  0
 33 67  1  0
 34 68  1  0
 34 69  1  0
 35 70  1  0
 35 71  1  0
 36 72  1  0
 36 73  1  0
M  END
>  <smiles>  (29) 
CNC1(CNc2nc(N3CCc4ccccc4C3)nc(N3CCc4ccccc4C3)n2)CCCCC1

>  <score_type>  (29) 
oracle

>  <origin>  (29) 
autodockgpu

>  <m_score__min__energy>  (29) 
-10.869999999999999

>  <m_primary>  (29) 
energy

>  <rmsd>  (29) 
5.077896615849076

>  <m_score__min__rmsd>  (29) 
5.077896615849076

>  <meeko>  (29) 
{"free_energy": -10.6, "intermolecular_energy": -12.39, "internal_energy": -1.15, "cluster_size": 29, "cluster_id": 1, "rank_in_cluster": 7}

>  <energy>  (29) 
-8.53

>  <cluster_rmsd>  (29) 
1.59

>  <cluster>  (29) 
1

$$$$

     RDKit          3D

 73 78  0  0  0  0  0  0  0  0999 V2000
  145.1140   72.7760  216.9060 C   0  0  0  0  0  0  0  0  0  0  0  0
  144.8060   73.5850  218.0410 N   0  0  0  0  0  0  0  0  0  0  0  0
  144.0420   72.9620  219.0710 C   0  0  0  0  0  0  0  0  0  0  0  0
  142.7210   72.3890  218.6270 C   0  0  0  0  0  0  0  0  0  0  0  0
  142.0610   71.6500  219.6650 N   0  0  0  0  0  0  0  0  0  0  0  0
  141.3370   72.2150  220.7350 C   0  0  0  0  0  0  0  0  0  0  0  0
  141.0100   73.5170  220.6580 N   0  0  0  0  0  0  0  0  0  0  0  0
  140.3120   74.1000  221.6580 C   0  0  0  0  0  0  0  0  0  0  0  0
  139.9910   75.4970  221.5440 N   0  0  0  0  0  0  0  0  0  0  0  0
  138.5900   75.8370  221.5630 C   0  0  0  0  0  0  0  0  0  0  0  0
  138.3570   77.3210  221.4490 C   0  0  0  0  0  0  0  0  0  0  0  0
  139.3270   78.1000  222.2580 C   0  0  0  0  0  0  0  0  0  0  0  0
  138.9210   79.1940  222.9900 C   0  0  0  0  0  0  0  0  0  0  0  0
  139.8520   79.8900  223.7300 C   0  0  0  0  0  0  0  0  0  0  0  0
  141.1930   79.4910  223.7350 C   0  0  0  0  0  0  0  0  0  0  0  0
  141.5450   78.3870  222.9810 C   0  0  0  0  0  0  0  0  0  0  0  0
  140.6430   77.6640  222.2290 C   0  0  0  0  0  0  0  0  0  0  0  0
  141.0590   76.4700  221.4220 C   0  0  0  0  0  0  0  0  0  0  0  0
  139.9360   73.3860  222.7390 N   0  0  0  0  0  0  0  0  0  0  0  0
  140.2590   72.0620  222.8370 C   0  0  0  0  0  0  0  0  0  0  0  0
  139.8840   71.2740  223.9590 N   0  0  0  0  0  0  0  0  0  0  0  0
  138.8010   70.3150  223.8530 C   0  0  0  0  0  0  0  0  0  0  0  0
  139.2490   68.9310  224.2770 C   0  0  0  0  0  0  0  0  0  0  0  0
  139.7720   69.0800  225.6660 C   0  0  0  0  0  0  0  0  0  0  0  0
  139.6290   68.0100  226.5570 C   0  0  0  0  0  0  0  0  0  0  0  0
  140.1100   68.1380  227.8520 C   0  0  0  0  0  0  0  0  0  0  0  0
  140.7310   69.2920  228.3000 C   0  0  0  0  0  0  0  0  0  0  0  0
  140.8610   70.3410  227.3970 C   0  0  0  0  0  0  0  0  0  0  0  0
  140.3880   70.2420  226.0910 C   0  0  0  0  0  0  0  0  0  0  0  0
  140.5820   71.4250  225.2190 C   0  0  0  0  0  0  0  0  0  0  0  0
  140.9560   71.5040  221.8260 N   0  0  0  0  0  0  0  0  0  0  0  0
  144.8540   71.8440  219.6850 C   0  0  0  0  0  0  0  0  0  0  0  0
  146.2040   72.3710  220.0900 C   0  0  0  0  0  0  0  0  0  0  0  0
  146.0240   73.5050  221.0620 C   0  0  0  0  0  0  0  0  0  0  0  0
  145.1400   74.5840  220.4920 C   0  0  0  0  0  0  0  0  0  0  0  0
  143.7890   73.9650  220.1820 C   0  0  0  0  0  0  0  0  0  0  0  0
  145.4865   71.7975  217.2434 H   0  0  0  0  0  0  0  0  0  0  0  0
  144.2070   72.6340  216.3000 H   0  0  0  0  0  0  0  0  0  0  0  0
  145.8858   73.2731  216.3000 H   0  0  0  0  0  0  0  0  0  0  0  0
  145.6270   74.1330  218.3910 H   0  0  0  0  0  0  0  0  0  0  0  0
  142.0666   73.2155  218.3129 H   0  0  0  0  0  0  0  0  0  0  0  0
  142.9222   71.6925  217.7997 H   0  0  0  0  0  0  0  0  0  0  0  0
  142.1180   70.6080  219.6260 H   0  0  0  0  0  0  0  0  0  0  0  0
  138.0935   75.3357  220.7191 H   0  0  0  0  0  0  0  0  0  0  0  0
  138.1779   75.5062  222.5278 H   0  0  0  0  0  0  0  0  0  0  0  0
  138.4566   77.6161  220.3940 H   0  0  0  0  0  0  0  0  0  0  0  0
  137.3474   77.5365  221.8289 H   0  0  0  0  0  0  0  0  0  0  0  0
  137.8668   79.5081  222.9839 H   0  0  0  0  0  0  0  0  0  0  0  0
  139.5392   80.7641  224.3200 H   0  0  0  0  0  0  0  0  0  0  0  0
  141.9449   80.0394  224.3214 H   0  0  0  0  0  0  0  0  0  0  0  0
  142.5981   78.0691  222.9809 H   0  0  0  0  0  0  0  0  0  0  0  0
  141.1963   76.7531  220.3680 H   0  0  0  0  0  0  0  0  0  0  0  0
  142.0136   76.0595  221.7828 H   0  0  0  0  0  0  0  0  0  0  0  0
  137.9720   70.6374  224.5002 H   0  0  0  0  0  0  0  0  0  0  0  0
  138.4787   70.2694  222.8023 H   0  0  0  0  0  0  0  0  0  0  0  0
  138.3999   68.2319  224.2605 H   0  0  0  0  0  0  0  0  0  0  0  0
  140.0144   68.5277  223.5976 H   0  0  0  0  0  0  0  0  0  0  0  0
  139.1410   67.0785  226.2342 H   0  0  0  0  0  0  0  0  0  0  0  0
  139.9941   67.2934  228.5472 H   0  0  0  0  0  0  0  0  0  0  0  0
  141.1068   69.3753  229.3304 H   0  0  0  0  0  0  0  0  0  0  0  0
  141.3492   71.2716  227.7220 H   0  0  0  0  0  0  0  0  0  0  0  0
  140.1984   72.3171  225.7358 H   0  0  0  0  0  0  0  0  0  0  0  0
  141.6569   71.5271  225.0088 H   0  0  0  0  0  0  0  0  0  0  0  0
  144.3312   71.4545  220.5710 H   0  0  0  0  0  0  0  0  0  0  0  0
  144.9806   71.0354  218.9501 H   0  0  0  0  0  0  0  0  0  0  0  0
  146.7844   71.5672  220.5665 H   0  0  0  0  0  0  0  0  0  0  0  0
  146.7414   72.7304  219.2000 H   0  0  0  0  0  0  0  0  0  0  0  0
  145.5657   73.1168  221.9836 H   0  0  0  0  0  0  0  0  0  0  0  0
  147.0118   73.9417  221.2706 H   0  0  0  0  0  0  0  0  0  0  0  0
  145.0201   75.3951  221.2253 H   0  0  0  0  0  0  0  0  0  0  0  0
  145.5877   75.0037  219.5791 H   0  0  0  0  0  0  0  0  0  0  0  0
  143.3860   73.4586  221.0715 H   0  0  0  0  0  0  0  0  0  0  0  0
  143.0530   74.7256  219.8825 H   0  0  0  0  0  0  0  0  0  0  0  0
  1  2  1  0
  2  3  1  0
  3  4  1  0
  4  5  1  0
  5  6  1  0
  6  7  2  0
  7  8  1  0
  8  9  1  0
  9 10  1  0
 10 11  1  0
 11 12  1  0
 12 13  2  0
 13 14  1  0
 14 15  2  0
 15 16  1  0
 16 17  2  0
 17 18  1  0
  8 19  2  0
 19 20  1  0
 20 21  1  0
 21 22  1  0
 22 23  1  0
 23 24  1  0
 24 25  2  0
 25 26  1  0
 26 27  2  0
 27 28  1  0
 28 29  2  0
 29 30  1  0
 20 31  2  0
  3 32  1  0
 32 33  1  0
 33 34  1  0
 34 35  1  0
 35 36  1  0
 36  3  1  0
 31  6  1  0
 18  9  1  0
 30 21  1  0
 17 12  1  0
 29 24  1  0
  1 37  1  0
  1 38  1  0
  1 39  1  0
  2 40  1  0
  4 41  1  0
  4 42  1  0
  5 43  1  0
 10 44  1  0
 10 45  1  0
 11 46  1  0
 11 47  1  0
 13 48  1  0
 14 49  1  0
 15 50  1  0
 16 51  1  0
 18 52  1  0
 18 53  1  0
 22 54  1  0
 22 55  1  0
 23 56  1  0
 23 57  1  0
 25 58  1  0
 26 59  1  0
 27 60  1  0
 28 61  1  0
 30 62  1  0
 30 63  1  0
 32 64  1  0
 32 65  1  0
 33 66  1  0
 33 67  1  0
 34 68  1  0
 34 69  1  0
 35 70  1  0
 35 71  1  0
 36 72  1  0
 36 73  1  0
M  END
>  <smiles>  (30) 
CNC1(CNc2nc(N3CCc4ccccc4C3)nc(N3CCc4ccccc4C3)n2)CCCCC1

>  <score_type>  (30) 
oracle

>  <origin>  (30) 
autodockgpu

>  <m_score__min__energy>  (30) 
-10.869999999999999

>  <m_primary>  (30) 
energy

>  <rmsd>  (30) 
5.063731562148321

>  <m_score__min__rmsd>  (30) 
5.063731562148321

>  <meeko>  (30) 
{"free_energy": -10.7, "intermolecular_energy": -12.49, "internal_energy": -1.28, "cluster_size": 29, "cluster_id": 1, "rank_in_cluster": 4}

>  <energy>  (30) 
-10.63

>  <cluster_rmsd>  (30) 
0.0

>  <cluster>  (30) 
2

$$$$

     RDKit          3D

 73 78  0  0  0  0  0  0  0  0999 V2000
  137.8580   76.6380  221.9650 C   0  0  0  0  0  0  0  0  0  0  0  0
  137.2410   75.6080  222.7360 N   0  0  0  0  0  0  0  0  0  0  0  0
  135.9410   75.1980  222.3150 C   0  0  0  0  0  0  0  0  0  0  0  0
  135.9040   74.4270  221.0220 C   0  0  0  0  0  0  0  0  0  0  0  0
  136.5840   73.1660  221.1080 N   0  0  0  0  0  0  0  0  0  0  0  0
  137.8090   72.9440  221.7720 C   0  0  0  0  0  0  0  0  0  0  0  0
  138.8840   73.6380  221.3610 N   0  0  0  0  0  0  0  0  0  0  0  0
  140.0780   73.4620  221.9710 C   0  0  0  0  0  0  0  0  0  0  0  0
  141.2070   74.2140  221.4960 N   0  0  0  0  0  0  0  0  0  0  0  0
  142.2390   73.4650  220.8240 C   0  0  0  0  0  0  0  0  0  0  0  0
  143.3720   74.3410  220.3560 C   0  0  0  0  0  0  0  0  0  0  0  0
  142.8870   75.6220  219.7860 C   0  0  0  0  0  0  0  0  0  0  0  0
  143.4500   76.1480  218.6440 C   0  0  0  0  0  0  0  0  0  0  0  0
  142.9690   77.3390  218.1450 C   0  0  0  0  0  0  0  0  0  0  0  0
  141.9230   78.0050  218.7920 C   0  0  0  0  0  0  0  0  0  0  0  0
  141.3940   77.4320  219.9340 C   0  0  0  0  0  0  0  0  0  0  0  0
  141.8480   76.2420  220.4630 C   0  0  0  0  0  0  0  0  0  0  0  0
  141.2520   75.6480  221.7060 C   0  0  0  0  0  0  0  0  0  0  0  0
  140.2020   72.5920  222.9950 N   0  0  0  0  0  0  0  0  0  0  0  0
  139.1220   71.8770  223.4280 C   0  0  0  0  0  0  0  0  0  0  0  0
  139.2100   70.9500  224.5010 N   0  0  0  0  0  0  0  0  0  0  0  0
  138.4620   69.7090  224.4620 C   0  0  0  0  0  0  0  0  0  0  0  0
  139.3700   68.5120  224.6560 C   0  0  0  0  0  0  0  0  0  0  0  0
  140.0710   68.7380  225.9530 C   0  0  0  0  0  0  0  0  0  0  0  0
  140.4180   67.6290  226.7320 C   0  0  0  0  0  0  0  0  0  0  0  0
  141.0690   67.8270  227.9420 C   0  0  0  0  0  0  0  0  0  0  0  0
  141.3900   69.0900  228.4100 C   0  0  0  0  0  0  0  0  0  0  0  0
  141.0340   70.1760  227.6190 C   0  0  0  0  0  0  0  0  0  0  0  0
  140.3810   70.0090  226.4010 C   0  0  0  0  0  0  0  0  0  0  0  0
  140.0510   71.2400  225.6440 C   0  0  0  0  0  0  0  0  0  0  0  0
  137.9420   72.0710  222.8010 N   0  0  0  0  0  0  0  0  0  0  0  0
  135.3200   74.3370  223.3920 C   0  0  0  0  0  0  0  0  0  0  0  0
  135.3920   75.0570  224.7120 C   0  0  0  0  0  0  0  0  0  0  0  0
  134.6790   76.3770  224.5960 C   0  0  0  0  0  0  0  0  0  0  0  0
  135.2330   77.2060  223.4660 C   0  0  0  0  0  0  0  0  0  0  0  0
  135.0510   76.4200  222.1800 C   0  0  0  0  0  0  0  0  0  0  0  0
  138.3045   77.3834  222.6395 H   0  0  0  0  0  0  0  0  0  0  0  0
  138.6431   76.2008  221.3305 H   0  0  0  0  0  0  0  0  0  0  0  0
  137.1021   77.1239  221.3305 H   0  0  0  0  0  0  0  0  0  0  0  0
  137.8890   74.8150  222.9550 H   0  0  0  0  0  0  0  0  0  0  0  0
  134.8536   74.2425  220.7525 H   0  0  0  0  0  0  0  0  0  0  0  0
  136.4199   75.0308  220.2609 H   0  0  0  0  0  0  0  0  0  0  0  0
  136.1370   72.3450  220.6440 H   0  0  0  0  0  0  0  0  0  0  0  0
  142.6386   72.7120  221.5192 H   0  0  0  0  0  0  0  0  0  0  0  0
  141.7891   72.9957  219.9366 H   0  0  0  0  0  0  0  0  0  0  0  0
  144.0285   74.5591  221.2112 H   0  0  0  0  0  0  0  0  0  0  0  0
  143.9136   73.8013  219.5652 H   0  0  0  0  0  0  0  0  0  0  0  0
  144.2733   75.6238  218.1367 H   0  0  0  0  0  0  0  0  0  0  0  0
  143.4099   77.7681  217.2332 H   0  0  0  0  0  0  0  0  0  0  0  0
  141.5324   78.9572  218.4036 H   0  0  0  0  0  0  0  0  0  0  0  0
  140.5702   77.9511  220.4459 H   0  0  0  0  0  0  0  0  0  0  0  0
  141.8785   75.8849  222.5786 H   0  0  0  0  0  0  0  0  0  0  0  0
  140.2479   76.0536  221.8988 H   0  0  0  0  0  0  0  0  0  0  0  0
  137.7078   69.7200  225.2627 H   0  0  0  0  0  0  0  0  0  0  0  0
  137.9820   69.6241  223.4759 H   0  0  0  0  0  0  0  0  0  0  0  0
  138.7785   67.5855  224.6969 H   0  0  0  0  0  0  0  0  0  0  0  0
  140.0823   68.4059  223.8245 H   0  0  0  0  0  0  0  0  0  0  0  0
  140.1777   66.6116  226.3896 H   0  0  0  0  0  0  0  0  0  0  0  0
  141.3390   66.9507  228.5497 H   0  0  0  0  0  0  0  0  0  0  0  0
  141.9070   69.2286  229.3710 H   0  0  0  0  0  0  0  0  0  0  0  0
  141.2742   71.1925  227.9640 H   0  0  0  0  0  0  0  0  0  0  0  0
  139.5217   71.9379  226.3094 H   0  0  0  0  0  0  0  0  0  0  0  0
  140.9893   71.6830  225.2789 H   0  0  0  0  0  0  0  0  0  0  0  0
  134.2681   74.1365  223.1403 H   0  0  0  0  0  0  0  0  0  0  0  0
  135.8674   73.3855  223.4624 H   0  0  0  0  0  0  0  0  0  0  0  0
  134.9113   74.4465  225.4906 H   0  0  0  0  0  0  0  0  0  0  0  0
  136.4444   75.2283  224.9822 H   0  0  0  0  0  0  0  0  0  0  0  0
  133.6104   76.1912  224.4126 H   0  0  0  0  0  0  0  0  0  0  0  0
  134.8244   76.9317  225.5347 H   0  0  0  0  0  0  0  0  0  0  0  0
  134.6899   78.1604  223.4011 H   0  0  0  0  0  0  0  0  0  0  0  0
  136.2979   77.4233  223.6356 H   0  0  0  0  0  0  0  0  0  0  0  0
  134.0001   76.1176  222.0610 H   0  0  0  0  0  0  0  0  0  0  0  0
  135.3167   77.0197  221.2970 H   0  0  0  0  0  0  0  0  0  0  0  0
  1  2  1  0
  2  3  1  0
  3  4  1  0
  4  5  1  0
  5  6  1  0
  6  7  2  0
  7  8  1  0
  8  9  1  0
  9 10  1  0
 10 11  1  0
 11 12  1  0
 12 13  2  0
 13 14  1  0
 14 15  2  0
 15 16  1  0
 16 17  2  0
 17 18  1  0
  8 19  2  0
 19 20  1  0
 20 21  1  0
 21 22  1  0
 22 23  1  0
 23 24  1  0
 24 25  2  0
 25 26  1  0
 26 27  2  0
 27 28  1  0
 28 29  2  0
 29 30  1  0
 20 31  2  0
  3 32  1  0
 32 33  1  0
 33 34  1  0
 34 35  1  0
 35 36  1  0
 36  3  1  0
 31  6  1  0
 18  9  1  0
 30 21  1  0
 17 12  1  0
 29 24  1  0
  1 37  1  0
  1 38  1  0
  1 39  1  0
  2 40  1  0
  4 41  1  0
  4 42  1  0
  5 43  1  0
 10 44  1  0
 10 45  1  0
 11 46  1  0
 11 47  1  0
 13 48  1  0
 14 49  1  0
 15 50  1  0
 16 51  1  0
 18 52  1  0
 18 53  1  0
 22 54  1  0
 22 55  1  0
 23 56  1  0
 23 57  1  0
 25 58  1  0
 26 59  1  0
 27 60  1  0
 28 61  1  0
 30 62  1  0
 30 63  1  0
 32 64  1  0
 32 65  1  0
 33 66  1  0
 33 67  1  0
 34 68  1  0
 34 69  1  0
 35 70  1  0
 35 71  1  0
 36 72  1  0
 36 73  1  0
M  END
>  <smiles>  (31) 
CNC1(CNc2nc(N3CCc4ccccc4C3)nc(N3CCc4ccccc4C3)n2)CCCCC1

>  <score_type>  (31) 
oracle

>  <origin>  (31) 
autodockgpu

>  <m_score__min__energy>  (31) 
-10.869999999999999

>  <m_primary>  (31) 
energy

>  <rmsd>  (31) 
4.06212229599515

>  <m_score__min__rmsd>  (31) 
4.06212229599515

>  <meeko>  (31) 
{"free_energy": -8.55, "intermolecular_energy": -10.34, "internal_energy": -2.26, "cluster_size": 2, "cluster_id": 5, "rank_in_cluster": 2}

>  <energy>  (31) 
-10.35

>  <cluster_rmsd>  (31) 
0.64

>  <cluster>  (31) 
2

$$$$

     RDKit          3D

 73 78  0  0  0  0  0  0  0  0999 V2000
  146.0830   73.3270  220.4230 C   0  0  0  0  0  0  0  0  0  0  0  0
  145.9150   73.0040  219.0430 N   0  0  0  0  0  0  0  0  0  0  0  0
  144.6710   72.4080  218.6820 C   0  0  0  0  0  0  0  0  0  0  0  0
  143.4490   73.1960  219.0730 C   0  0  0  0  0  0  0  0  0  0  0  0
  142.4530   72.3910  219.7200 N   0  0  0  0  0  0  0  0  0  0  0  0
  141.5980   72.8260  220.7550 C   0  0  0  0  0  0  0  0  0  0  0  0
  141.2550   74.1250  220.7850 N   0  0  0  0  0  0  0  0  0  0  0  0
  140.4330   74.5850  221.7550 C   0  0  0  0  0  0  0  0  0  0  0  0
  140.0980   75.9830  221.7620 N   0  0  0  0  0  0  0  0  0  0  0  0
  138.8200   76.3330  222.3280 C   0  0  0  0  0  0  0  0  0  0  0  0
  138.5650   77.8180  222.2980 C   0  0  0  0  0  0  0  0  0  0  0  0
  139.7770   78.5980  222.6490 C   0  0  0  0  0  0  0  0  0  0  0  0
  139.6970   79.7010  223.4690 C   0  0  0  0  0  0  0  0  0  0  0  0
  140.8460   80.3980  223.7730 C   0  0  0  0  0  0  0  0  0  0  0  0
  142.0790   79.9890  223.2530 C   0  0  0  0  0  0  0  0  0  0  0  0
  142.1020   78.8750  222.4340 C   0  0  0  0  0  0  0  0  0  0  0  0
  140.9740   78.1520  222.1080 C   0  0  0  0  0  0  0  0  0  0  0  0
  141.0340   76.9470  221.2160 C   0  0  0  0  0  0  0  0  0  0  0  0
  139.9500   73.7490  222.6980 N   0  0  0  0  0  0  0  0  0  0  0  0
  140.2880   72.4250  222.6850 C   0  0  0  0  0  0  0  0  0  0  0  0
  139.8030   71.5130  223.6600 N   0  0  0  0  0  0  0  0  0  0  0  0
  138.7150   70.6080  223.3410 C   0  0  0  0  0  0  0  0  0  0  0  0
  139.0970   69.1690  223.6170 C   0  0  0  0  0  0  0  0  0  0  0  0
  139.5020   69.1230  225.0520 C   0  0  0  0  0  0  0  0  0  0  0  0
  139.2630   67.9520  225.7810 C   0  0  0  0  0  0  0  0  0  0  0  0
  139.6330   67.8980  227.1170 C   0  0  0  0  0  0  0  0  0  0  0  0
  140.2360   68.9660  227.7610 C   0  0  0  0  0  0  0  0  0  0  0  0
  140.4630   70.1170  227.0160 C   0  0  0  0  0  0  0  0  0  0  0  0
  140.1020   70.2020  225.6740 C   0  0  0  0  0  0  0  0  0  0  0  0
  140.3940   71.4800  224.9820 C   0  0  0  0  0  0  0  0  0  0  0  0
  141.1100   71.9920  221.7070 N   0  0  0  0  0  0  0  0  0  0  0  0
  144.6360   72.2010  217.1850 C   0  0  0  0  0  0  0  0  0  0  0  0
  145.8740   71.4620  216.7520 C   0  0  0  0  0  0  0  0  0  0  0  0
  145.9460   70.1470  217.4780 C   0  0  0  0  0  0  0  0  0  0  0  0
  145.8910   70.3370  218.9720 C   0  0  0  0  0  0  0  0  0  0  0  0
  144.5800   71.0260  219.3050 C   0  0  0  0  0  0  0  0  0  0  0  0
  145.6634   72.5203  221.0421 H   0  0  0  0  0  0  0  0  0  0  0  0
  147.1543   73.4404  220.6453 H   0  0  0  0  0  0  0  0  0  0  0  0
  145.5607   74.2692  220.6453 H   0  0  0  0  0  0  0  0  0  0  0  0
  146.2230   73.7720  218.4000 H   0  0  0  0  0  0  0  0  0  0  0  0
  143.7534   73.9988  219.7606 H   0  0  0  0  0  0  0  0  0  0  0  0
  143.0036   73.5967  218.1505 H   0  0  0  0  0  0  0  0  0  0  0  0
  142.3500   71.4030  219.4000 H   0  0  0  0  0  0  0  0  0  0  0  0
  138.0293   75.8273  221.7544 H   0  0  0  0  0  0  0  0  0  0  0  0
  138.8212   76.0144  223.3808 H   0  0  0  0  0  0  0  0  0  0  0  0
  138.2408   78.1021  221.2860 H   0  0  0  0  0  0  0  0  0  0  0  0
  137.7882   78.0441  223.0433 H   0  0  0  0  0  0  0  0  0  0  0  0
  138.7271   80.0221  223.8767 H   0  0  0  0  0  0  0  0  0  0  0  0
  140.7937   81.2804  224.4277 H   0  0  0  0  0  0  0  0  0  0  0  0
  143.0029   80.5375  223.4888 H   0  0  0  0  0  0  0  0  0  0  0  0
  143.0685   78.5493  222.0220 H   0  0  0  0  0  0  0  0  0  0  0  0
  140.7444   77.2188  220.1902 H   0  0  0  0  0  0  0  0  0  0  0  0
  142.0523   76.5331  221.1748 H   0  0  0  0  0  0  0  0  0  0  0  0
  137.8397   70.8701  223.9535 H   0  0  0  0  0  0  0  0  0  0  0  0
  138.4843   70.7065  222.2700 H   0  0  0  0  0  0  0  0  0  0  0  0
  138.2386   68.5043  223.4399 H   0  0  0  0  0  0  0  0  0  0  0  0
  139.9096   68.8324  222.9564 H   0  0  0  0  0  0  0  0  0  0  0  0
  138.7873   67.0846  225.3000 H   0  0  0  0  0  0  0  0  0  0  0  0
  139.4409   66.9754  227.6844 H   0  0  0  0  0  0  0  0  0  0  0  0
  140.5240   68.9054  228.8209 H   0  0  0  0  0  0  0  0  0  0  0  0
  140.9399   70.9827  227.4988 H   0  0  0  0  0  0  0  0  0  0  0  0
  139.9861   72.3104  225.5771 H   0  0  0  0  0  0  0  0  0  0  0  0
  141.4848   71.5744  224.8757 H   0  0  0  0  0  0  0  0  0  0  0  0
  143.7455   71.6136  216.9167 H   0  0  0  0  0  0  0  0  0  0  0  0
  144.5964   73.1776  216.6804 H   0  0  0  0  0  0  0  0  0  0  0  0
  145.8341   71.2816  215.6676 H   0  0  0  0  0  0  0  0  0  0  0  0
  146.7643   72.0632  216.9885 H   0  0  0  0  0  0  0  0  0  0  0  0
  145.0980   69.5196  217.1660 H   0  0  0  0  0  0  0  0  0  0  0  0
  146.9026   69.6659  217.2263 H   0  0  0  0  0  0  0  0  0  0  0  0
  145.9385   69.3601  219.4753 H   0  0  0  0  0  0  0  0  0  0  0  0
  146.7418   70.9451  219.3132 H   0  0  0  0  0  0  0  0  0  0  0  0
  143.7341   70.4677  218.8774 H   0  0  0  0  0  0  0  0  0  0  0  0
  144.4151   71.0808  220.3912 H   0  0  0  0  0  0  0  0  0  0  0  0
  1  2  1  0
  2  3  1  0
  3  4  1  0
  4  5  1  0
  5  6  1  0
  6  7  2  0
  7  8  1  0
  8  9  1  0
  9 10  1  0
 10 11  1  0
 11 12  1  0
 12 13  2  0
 13 14  1  0
 14 15  2  0
 15 16  1  0
 16 17  2  0
 17 18  1  0
  8 19  2  0
 19 20  1  0
 20 21  1  0
 21 22  1  0
 22 23  1  0
 23 24  1  0
 24 25  2  0
 25 26  1  0
 26 27  2  0
 27 28  1  0
 28 29  2  0
 29 30  1  0
 20 31  2  0
  3 32  1  0
 32 33  1  0
 33 34  1  0
 34 35  1  0
 35 36  1  0
 36  3  1  0
 31  6  1  0
 18  9  1  0
 30 21  1  0
 17 12  1  0
 29 24  1  0
  1 37  1  0
  1 38  1  0
  1 39  1  0
  2 40  1  0
  4 41  1  0
  4 42  1  0
  5 43  1  0
 10 44  1  0
 10 45  1  0
 11 46  1  0
 11 47  1  0
 13 48  1  0
 14 49  1  0
 15 50  1  0
 16 51  1  0
 18 52  1  0
 18 53  1  0
 22 54  1  0
 22 55  1  0
 23 56  1  0
 23 57  1  0
 25 58  1  0
 26 59  1  0
 27 60  1  0
 28 61  1  0
 30 62  1  0
 30 63  1  0
 32 64  1  0
 32 65  1  0
 33 66  1  0
 33 67  1  0
 34 68  1  0
 34 69  1  0
 35 70  1  0
 35 71  1  0
 36 72  1  0
 36 73  1  0
M  END
>  <smiles>  (32) 
CNC1(CNc2nc(N3CCc4ccccc4C3)nc(N3CCc4ccccc4C3)n2)CCCCC1

>  <score_type>  (32) 
oracle

>  <origin>  (32) 
autodockgpu

>  <m_score__min__energy>  (32) 
-10.869999999999999

>  <m_primary>  (32) 
energy

>  <rmsd>  (32) 
5.189749460589437

>  <m_score__min__rmsd>  (32) 
5.189749460589437

>  <meeko>  (32) 
{"free_energy": -10.87, "intermolecular_energy": -12.66, "internal_energy": -1.08, "cluster_size": 29, "cluster_id": 1, "rank_in_cluster": 1}

>  <energy>  (32) 
-10.31

>  <cluster_rmsd>  (32) 
0.65

>  <cluster>  (32) 
2

$$$$

     RDKit          3D

 73 78  0  0  0  0  0  0  0  0999 V2000
  138.7540   77.8680  220.5090 C   0  0  0  0  0  0  0  0  0  0  0  0
  139.4490   78.0620  221.7400 N   0  0  0  0  0  0  0  0  0  0  0  0
  140.8660   77.9000  221.6970 C   0  0  0  0  0  0  0  0  0  0  0  0
  141.3390   76.5670  221.1820 C   0  0  0  0  0  0  0  0  0  0  0  0
  140.4300   75.4990  221.4880 N   0  0  0  0  0  0  0  0  0  0  0  0
  140.7920   74.1510  221.6870 C   0  0  0  0  0  0  0  0  0  0  0  0
  141.6750   73.6020  220.8340 N   0  0  0  0  0  0  0  0  0  0  0  0
  142.0550   72.3140  220.9880 C   0  0  0  0  0  0  0  0  0  0  0  0
  142.9920   71.7600  220.0500 N   0  0  0  0  0  0  0  0  0  0  0  0
  144.2260   72.4830  219.8720 C   0  0  0  0  0  0  0  0  0  0  0  0
  145.1430   71.8190  218.8780 C   0  0  0  0  0  0  0  0  0  0  0  0
  145.1570   70.3440  219.0330 C   0  0  0  0  0  0  0  0  0  0  0  0
  146.3350   69.6330  218.9500 C   0  0  0  0  0  0  0  0  0  0  0  0
  146.3060   68.2640  219.1020 C   0  0  0  0  0  0  0  0  0  0  0  0
  145.0940   67.6040  219.3350 C   0  0  0  0  0  0  0  0  0  0  0  0
  143.9430   68.3660  219.4090 C   0  0  0  0  0  0  0  0  0  0  0  0
  143.9310   69.7370  219.2630 C   0  0  0  0  0  0  0  0  0  0  0  0
  142.6620   70.5340  219.3480 C   0  0  0  0  0  0  0  0  0  0  0  0
  141.5570   71.5690  221.9960 N   0  0  0  0  0  0  0  0  0  0  0  0
  140.6580   72.1070  222.8740 C   0  0  0  0  0  0  0  0  0  0  0  0
  140.1080   71.3560  223.9470 N   0  0  0  0  0  0  0  0  0  0  0  0
  138.9600   70.4970  223.7290 C   0  0  0  0  0  0  0  0  0  0  0  0
  139.2400   69.0790  224.1810 C   0  0  0  0  0  0  0  0  0  0  0  0
  139.6370   69.1800  225.6160 C   0  0  0  0  0  0  0  0  0  0  0  0
  139.3140   68.1270  226.4790 C   0  0  0  0  0  0  0  0  0  0  0  0
  139.6770   68.2110  227.8160 C   0  0  0  0  0  0  0  0  0  0  0  0
  140.3520   69.3050  228.3320 C   0  0  0  0  0  0  0  0  0  0  0  0
  140.6610   70.3380  227.4550 C   0  0  0  0  0  0  0  0  0  0  0  0
  140.3100   70.2830  226.1090 C   0  0  0  0  0  0  0  0  0  0  0  0
  140.6920   71.4440  225.2700 C   0  0  0  0  0  0  0  0  0  0  0  0
  140.2950   73.3940  222.6970 N   0  0  0  0  0  0  0  0  0  0  0  0
  141.4620   78.9790  220.8210 C   0  0  0  0  0  0  0  0  0  0  0  0
  140.9640   80.3250  221.2750 C   0  0  0  0  0  0  0  0  0  0  0  0
  141.3370   80.5320  222.7170 C   0  0  0  0  0  0  0  0  0  0  0  0
  140.8230   79.4130  223.5860 C   0  0  0  0  0  0  0  0  0  0  0  0
  141.4360   78.1170  223.0870 C   0  0  0  0  0  0  0  0  0  0  0  0
  137.7136   77.5776  220.7171 H   0  0  0  0  0  0  0  0  0  0  0  0
  138.7648   78.8035  219.9304 H   0  0  0  0  0  0  0  0  0  0  0  0
  139.2478   77.0733  219.9304 H   0  0  0  0  0  0  0  0  0  0  0  0
  139.1330   78.9130  222.2620 H   0  0  0  0  0  0  0  0  0  0  0  0
  141.4506   76.6316  220.0896 H   0  0  0  0  0  0  0  0  0  0  0  0
  142.2950   76.3407  221.6767 H   0  0  0  0  0  0  0  0  0  0  0  0
  139.4170   75.7390  221.5740 H   0  0  0  0  0  0  0  0  0  0  0  0
  143.9929   73.4970  219.5149 H   0  0  0  0  0  0  0  0  0  0  0  0
  144.7438   72.5062  220.8422 H   0  0  0  0  0  0  0  0  0  0  0  0
  144.8031   72.0659  217.8614 H   0  0  0  0  0  0  0  0  0  0  0  0
  146.1633   72.1889  219.0577 H   0  0  0  0  0  0  0  0  0  0  0  0
  147.2868   70.1524  218.7646 H   0  0  0  0  0  0  0  0  0  0  0  0
  147.2403   67.6867  219.0399 H   0  0  0  0  0  0  0  0  0  0  0  0
  145.0584   66.5112  219.4557 H   0  0  0  0  0  0  0  0  0  0  0  0
  142.9880   67.8524  219.5938 H   0  0  0  0  0  0  0  0  0  0  0  0
  142.2885   70.7626  218.3389 H   0  0  0  0  0  0  0  0  0  0  0  0
  141.8749   69.9739  219.8740 H   0  0  0  0  0  0  0  0  0  0  0  0
  138.1043   70.8916  224.2965 H   0  0  0  0  0  0  0  0  0  0  0  0
  138.7383   70.4806  222.6517 H   0  0  0  0  0  0  0  0  0  0  0  0
  138.3379   68.4584  224.0760 H   0  0  0  0  0  0  0  0  0  0  0  0
  140.0289   68.6095  223.5750 H   0  0  0  0  0  0  0  0  0  0  0  0
  138.7787   67.2430  226.1022 H   0  0  0  0  0  0  0  0  0  0  0  0
  139.4197   67.3800  228.4892 H   0  0  0  0  0  0  0  0  0  0  0  0
  140.6326   69.3543  229.3945 H   0  0  0  0  0  0  0  0  0  0  0  0
  141.1963   71.2211  227.8339 H   0  0  0  0  0  0  0  0  0  0  0  0
  140.3413   72.3668  225.7552 H   0  0  0  0  0  0  0  0  0  0  0  0
  141.7870   71.4495  225.1651 H   0  0  0  0  0  0  0  0  0  0  0  0
  142.5590   78.9490  220.8972 H   0  0  0  0  0  0  0  0  0  0  0  0
  141.1626   78.8103  219.7761 H   0  0  0  0  0  0  0  0  0  0  0  0
  141.4227   81.1132  220.6599 H   0  0  0  0  0  0  0  0  0  0  0  0
  139.8702   80.3689  221.1672 H   0  0  0  0  0  0  0  0  0  0  0  0
  142.4330   80.5747  222.8002 H   0  0  0  0  0  0  0  0  0  0  0  0
  140.8816   81.4727  223.0599 H   0  0  0  0  0  0  0  0  0  0  0  0
  141.1161   79.5869  224.6319 H   0  0  0  0  0  0  0  0  0  0  0  0
  139.7253   79.3622  223.5366 H   0  0  0  0  0  0  0  0  0  0  0  0
  142.5317   78.2033  223.0428 H   0  0  0  0  0  0  0  0  0  0  0  0
  141.2048   77.2751  223.7561 H   0  0  0  0  0  0  0  0  0  0  0  0
  1  2  1  0
  2  3  1  0
  3  4  1  0
  4  5  1  0
  5  6  1  0
  6  7  2  0
  7  8  1  0
  8  9  1  0
  9 10  1  0
 10 11  1  0
 11 12  1  0
 12 13  2  0
 13 14  1  0
 14 15  2  0
 15 16  1  0
 16 17  2  0
 17 18  1  0
  8 19  2  0
 19 20  1  0
 20 21  1  0
 21 22  1  0
 22 23  1  0
 23 24  1  0
 24 25  2  0
 25 26  1  0
 26 27  2  0
 27 28  1  0
 28 29  2  0
 29 30  1  0
 20 31  2  0
  3 32  1  0
 32 33  1  0
 33 34  1  0
 34 35  1  0
 35 36  1  0
 36  3  1  0
 31  6  1  0
 18  9  1  0
 30 21  1  0
 17 12  1  0
 29 24  1  0
  1 37  1  0
  1 38  1  0
  1 39  1  0
  2 40  1  0
  4 41  1  0
  4 42  1  0
  5 43  1  0
 10 44  1  0
 10 45  1  0
 11 46  1  0
 11 47  1  0
 13 48  1  0
 14 49  1  0
 15 50  1  0
 16 51  1  0
 18 52  1  0
 18 53  1  0
 22 54  1  0
 22 55  1  0
 23 56  1  0
 23 57  1  0
 25 58  1  0
 26 59  1  0
 27 60  1  0
 28 61  1  0
 30 62  1  0
 30 63  1  0
 32 64  1  0
 32 65  1  0
 33 66  1  0
 33 67  1  0
 34 68  1  0
 34 69  1  0
 35 70  1  0
 35 71  1  0
 36 72  1  0
 36 73  1  0
M  END
>  <smiles>  (33) 
CNC1(CNc2nc(N3CCc4ccccc4C3)nc(N3CCc4ccccc4C3)n2)CCCCC1

>  <score_type>  (33) 
oracle

>  <origin>  (33) 
autodockgpu

>  <m_score__min__energy>  (33) 
-10.869999999999999

>  <m_primary>  (33) 
energy

>  <rmsd>  (33) 
10.567624896729786

>  <m_score__min__rmsd>  (33) 
10.567624896729786

>  <meeko>  (33) 
{"free_energy": -9.85, "intermolecular_energy": -11.64, "internal_energy": -1.5, "cluster_size": 16, "cluster_id": 2, "rank_in_cluster": 12}

>  <energy>  (33) 
-10.19

>  <cluster_rmsd>  (33) 
0.59

>  <cluster>  (33) 
2

$$$$

     RDKit          3D

 73 78  0  0  0  0  0  0  0  0999 V2000
  137.1060   70.9230  223.6980 C   0  0  0  0  0  0  0  0  0  0  0  0
  138.2060   71.1460  224.5790 N   0  0  0  0  0  0  0  0  0  0  0  0
  139.4600   70.6000  224.1720 C   0  0  0  0  0  0  0  0  0  0  0  0
  139.9860   71.1210  222.8600 C   0  0  0  0  0  0  0  0  0  0  0  0
  139.7300   72.5210  222.6770 N   0  0  0  0  0  0  0  0  0  0  0  0
  140.5880   73.4280  222.0210 C   0  0  0  0  0  0  0  0  0  0  0  0
  140.3400   74.7420  222.1550 N   0  0  0  0  0  0  0  0  0  0  0  0
  141.1400   75.6480  221.5490 C   0  0  0  0  0  0  0  0  0  0  0  0
  140.8350   77.0440  221.7080 N   0  0  0  0  0  0  0  0  0  0  0  0
  139.5940   77.3590  222.3680 C   0  0  0  0  0  0  0  0  0  0  0  0
  139.3700   78.8440  222.4940 C   0  0  0  0  0  0  0  0  0  0  0  0
  140.6150   79.5650  222.8590 C   0  0  0  0  0  0  0  0  0  0  0  0
  140.5980   80.5840  223.7860 C   0  0  0  0  0  0  0  0  0  0  0  0
  141.7750   81.2270  224.0980 C   0  0  0  0  0  0  0  0  0  0  0  0
  142.9720   80.8500  223.4810 C   0  0  0  0  0  0  0  0  0  0  0  0
  142.9320   79.8210  222.5580 C   0  0  0  0  0  0  0  0  0  0  0  0
  141.7750   79.1530  222.2190 C   0  0  0  0  0  0  0  0  0  0  0  0
  141.7660   78.0400  221.2120 C   0  0  0  0  0  0  0  0  0  0  0  0
  142.1920   75.2450  220.8070 N   0  0  0  0  0  0  0  0  0  0  0  0
  142.4610   73.9140  220.6570 C   0  0  0  0  0  0  0  0  0  0  0  0
  143.5570   73.4480  219.8820 N   0  0  0  0  0  0  0  0  0  0  0  0
  144.3080   72.2810  220.3020 C   0  0  0  0  0  0  0  0  0  0  0  0
  144.3640   71.2380  219.2040 C   0  0  0  0  0  0  0  0  0  0  0  0
  144.9550   71.9260  218.0190 C   0  0  0  0  0  0  0  0  0  0  0  0
  145.7400   71.1810  217.1320 C   0  0  0  0  0  0  0  0  0  0  0  0
  146.2960   71.8100  216.0270 C   0  0  0  0  0  0  0  0  0  0  0  0
  146.1020   73.1560  215.7670 C   0  0  0  0  0  0  0  0  0  0  0  0
  145.3190   73.8750  216.6630 C   0  0  0  0  0  0  0  0  0  0  0  0
  144.7480   73.2710  217.7800 C   0  0  0  0  0  0  0  0  0  0  0  0
  143.9320   74.1380  218.6650 C   0  0  0  0  0  0  0  0  0  0  0  0
  141.6470   73.0310  221.2720 N   0  0  0  0  0  0  0  0  0  0  0  0
  140.4940   70.8850  225.2380 C   0  0  0  0  0  0  0  0  0  0  0  0
  139.9760   70.4260  226.5740 C   0  0  0  0  0  0  0  0  0  0  0  0
  139.6600   68.9570  226.5060 C   0  0  0  0  0  0  0  0  0  0  0  0
  138.6970   68.6510  225.3880 C   0  0  0  0  0  0  0  0  0  0  0  0
  139.3430   69.0890  224.0850 C   0  0  0  0  0  0  0  0  0  0  0  0
  136.1958   70.7385  224.2874 H   0  0  0  0  0  0  0  0  0  0  0  0
  136.9587   71.8095  223.0637 H   0  0  0  0  0  0  0  0  0  0  0  0
  137.3156   70.0491  223.0637 H   0  0  0  0  0  0  0  0  0  0  0  0
  138.2630   72.1320  224.9260 H   0  0  0  0  0  0  0  0  0  0  0  0
  141.0728   70.9546  222.8257 H   0  0  0  0  0  0  0  0  0  0  0  0
  139.4659   70.5804  222.0555 H   0  0  0  0  0  0  0  0  0  0  0  0
  138.8350   72.9010  223.0580 H   0  0  0  0  0  0  0  0  0  0  0  0
  138.7658   76.9249  221.7886 H   0  0  0  0  0  0  0  0  0  0  0  0
  139.6390   76.9396  223.3839 H   0  0  0  0  0  0  0  0  0  0  0  0
  139.0047   79.2310  221.5313 H   0  0  0  0  0  0  0  0  0  0  0  0
  138.6341   79.0099  223.2946 H   0  0  0  0  0  0  0  0  0  0  0  0
  139.6561   80.8802  224.2708 H   0  0  0  0  0  0  0  0  0  0  0  0
  141.7737   82.0419  224.8369 H   0  0  0  0  0  0  0  0  0  0  0  0
  143.9177   81.3571  223.7228 H   0  0  0  0  0  0  0  0  0  0  0  0
  143.8708   79.5205  222.0698 H   0  0  0  0  0  0  0  0  0  0  0  0
  141.4345   78.4160  220.2329 H   0  0  0  0  0  0  0  0  0  0  0  0
  142.7717   77.6142  221.0804 H   0  0  0  0  0  0  0  0  0  0  0  0
  145.3330   72.5874  220.5578 H   0  0  0  0  0  0  0  0  0  0  0  0
  143.8046   71.8397  221.1748 H   0  0  0  0  0  0  0  0  0  0  0  0
  144.9969   70.3923  219.5110 H   0  0  0  0  0  0  0  0  0  0  0  0
  143.3665   70.8318  218.9803 H   0  0  0  0  0  0  0  0  0  0  0  0
  145.9143   70.1093  217.3085 H   0  0  0  0  0  0  0  0  0  0  0  0
  146.9122   71.2187  215.3337 H   0  0  0  0  0  0  0  0  0  0  0  0
  146.5501   73.6379  214.8855 H   0  0  0  0  0  0  0  0  0  0  0  0
  145.1465   74.9467  216.4852 H   0  0  0  0  0  0  0  0  0  0  0  0
  144.5159   75.0328  218.9264 H   0  0  0  0  0  0  0  0  0  0  0  0
  143.0133   74.4145  218.1269 H   0  0  0  0  0  0  0  0  0  0  0  0
  141.4235   70.3469  225.0005 H   0  0  0  0  0  0  0  0  0  0  0  0
  140.6953   71.9658  225.2742 H   0  0  0  0  0  0  0  0  0  0  0  0
  140.7406   70.6022  227.3449 H   0  0  0  0  0  0  0  0  0  0  0  0
  139.0652   70.9877  226.8291 H   0  0  0  0  0  0  0  0  0  0  0  0
  140.5924   68.3981  226.3378 H   0  0  0  0  0  0  0  0  0  0  0  0
  139.1918   68.6601  227.4561 H   0  0  0  0  0  0  0  0  0  0  0  0
  138.4894   67.5712  225.3582 H   0  0  0  0  0  0  0  0  0  0  0  0
  137.7468   69.1830  225.5433 H   0  0  0  0  0  0  0  0  0  0  0  0
  140.3382   68.6328  223.9780 H   0  0  0  0  0  0  0  0  0  0  0  0
  138.7496   68.7773  223.2128 H   0  0  0  0  0  0  0  0  0  0  0  0
  1  2  1  0
  2  3  1  0
  3  4  1  0
  4  5  1  0
  5  6  1  0
  6  7  2  0
  7  8  1  0
  8  9  1  0
  9 10  1  0
 10 11  1  0
 11 12  1  0
 12 13  2  0
 13 14  1  0
 14 15  2  0
 15 16  1  0
 16 17  2  0
 17 18  1  0
  8 19  2  0
 19 20  1  0
 20 21  1  0
 21 22  1  0
 22 23  1  0
 23 24  1  0
 24 25  2  0
 25 26  1  0
 26 27  2  0
 27 28  1  0
 28 29  2  0
 29 30  1  0
 20 31  2  0
  3 32  1  0
 32 33  1  0
 33 34  1  0
 34 35  1  0
 35 36  1  0
 36  3  1  0
 31  6  1  0
 18  9  1  0
 30 21  1  0
 17 12  1  0
 29 24  1  0
  1 37  1  0
  1 38  1  0
  1 39  1  0
  2 40  1  0
  4 41  1  0
  4 42  1  0
  5 43  1  0
 10 44  1  0
 10 45  1  0
 11 46  1  0
 11 47  1  0
 13 48  1  0
 14 49  1  0
 15 50  1  0
 16 51  1  0
 18 52  1  0
 18 53  1  0
 22 54  1  0
 22 55  1  0
 23 56  1  0
 23 57  1  0
 25 58  1  0
 26 59  1  0
 27 60  1  0
 28 61  1  0
 30 62  1  0
 30 63  1  0
 32 64  1  0
 32 65  1  0
 33 66  1  0
 33 67  1  0
 34 68  1  0
 34 69  1  0
 35 70  1  0
 35 71  1  0
 36 72  1  0
 36 73  1  0
M  END
>  <smiles>  (34) 
CNC1(CNc2nc(N3CCc4ccccc4C3)nc(N3CCc4ccccc4C3)n2)CCCCC1

>  <score_type>  (34) 
oracle

>  <origin>  (34) 
autodockgpu

>  <m_score__min__energy>  (34) 
-10.869999999999999

>  <m_primary>  (34) 
energy

>  <rmsd>  (34) 
5.521891752632915

>  <m_score__min__rmsd>  (34) 
5.521891752632915

>  <meeko>  (34) 
{"free_energy": -9.52, "intermolecular_energy": -11.31, "internal_energy": -1.47, "cluster_size": 1, "cluster_id": 3, "rank_in_cluster": 1}

>  <energy>  (34) 
-10.17

>  <cluster_rmsd>  (34) 
0.81

>  <cluster>  (34) 
2

$$$$

     RDKit          3D

 73 78  0  0  0  0  0  0  0  0999 V2000
  145.1440   70.7090  217.7970 C   0  0  0  0  0  0  0  0  0  0  0  0
  145.1300   71.5420  218.9560 N   0  0  0  0  0  0  0  0  0  0  0  0
  143.8470   71.8390  219.5040 C   0  0  0  0  0  0  0  0  0  0  0  0
  142.8110   70.7610  219.3220 C   0  0  0  0  0  0  0  0  0  0  0  0
  141.4700   71.2540  219.4520 N   0  0  0  0  0  0  0  0  0  0  0  0
  140.9460   71.9040  220.5890 C   0  0  0  0  0  0  0  0  0  0  0  0
  140.7270   73.2280  220.5140 N   0  0  0  0  0  0  0  0  0  0  0  0
  140.2210   73.8920  221.5770 C   0  0  0  0  0  0  0  0  0  0  0  0
  140.0110   75.3100  221.4620 N   0  0  0  0  0  0  0  0  0  0  0  0
  138.6460   75.7460  221.3160 C   0  0  0  0  0  0  0  0  0  0  0  0
  138.5280   77.2450  221.2130 C   0  0  0  0  0  0  0  0  0  0  0  0
  139.4380   77.9400  222.1570 C   0  0  0  0  0  0  0  0  0  0  0  0
  139.0170   79.0450  222.8630 C   0  0  0  0  0  0  0  0  0  0  0  0
  139.8920   79.6610  223.7310 C   0  0  0  0  0  0  0  0  0  0  0  0
  141.1910   79.1700  223.8920 C   0  0  0  0  0  0  0  0  0  0  0  0
  141.5610   78.0570  223.1590 C   0  0  0  0  0  0  0  0  0  0  0  0
  140.7150   77.4130  222.2810 C   0  0  0  0  0  0  0  0  0  0  0  0
  141.1490   76.2080  221.5000 C   0  0  0  0  0  0  0  0  0  0  0  0
  139.9310   73.2360  222.7200 N   0  0  0  0  0  0  0  0  0  0  0  0
  140.1480   71.8910  222.8180 C   0  0  0  0  0  0  0  0  0  0  0  0
  139.8580   71.1640  224.0030 N   0  0  0  0  0  0  0  0  0  0  0  0
  138.7960   70.1760  224.0160 C   0  0  0  0  0  0  0  0  0  0  0  0
  139.3010   68.8300  224.4930 C   0  0  0  0  0  0  0  0  0  0  0  0
  139.9000   69.0720  225.8380 C   0  0  0  0  0  0  0  0  0  0  0  0
  139.8350   68.0540  226.7960 C   0  0  0  0  0  0  0  0  0  0  0  0
  140.3860   68.2680  228.0510 C   0  0  0  0  0  0  0  0  0  0  0  0
  141.0030   69.4600  228.3940 C   0  0  0  0  0  0  0  0  0  0  0  0
  141.0540   70.4560  227.4260 C   0  0  0  0  0  0  0  0  0  0  0  0
  140.5100   70.2710  226.1580 C   0  0  0  0  0  0  0  0  0  0  0  0
  140.6240   71.4040  225.2090 C   0  0  0  0  0  0  0  0  0  0  0  0
  140.6530   71.2520  221.7420 N   0  0  0  0  0  0  0  0  0  0  0  0
  143.9900   72.1060  220.9860 C   0  0  0  0  0  0  0  0  0  0  0  0
  145.0590   73.1410  221.2070 C   0  0  0  0  0  0  0  0  0  0  0  0
  144.6950   74.3970  220.4650 C   0  0  0  0  0  0  0  0  0  0  0  0
  144.4630   74.1250  219.0010 C   0  0  0  0  0  0  0  0  0  0  0  0
  143.3260   73.1250  218.8890 C   0  0  0  0  0  0  0  0  0  0  0  0
  145.1617   69.6530  218.1046 H   0  0  0  0  0  0  0  0  0  0  0  0
  144.2425   70.9009  217.1966 H   0  0  0  0  0  0  0  0  0  0  0  0
  146.0385   70.9311  217.1966 H   0  0  0  0  0  0  0  0  0  0  0  0
  145.8460   71.2680  219.6690 H   0  0  0  0  0  0  0  0  0  0  0  0
  142.9298   70.3245  218.3193 H   0  0  0  0  0  0  0  0  0  0  0  0
  142.9679   70.0126  220.1128 H   0  0  0  0  0  0  0  0  0  0  0  0
  140.8270   71.1220  218.6400 H   0  0  0  0  0  0  0  0  0  0  0  0
  138.2272   75.2955  220.4041 H   0  0  0  0  0  0  0  0  0  0  0  0
  138.0951   75.4277  222.2134 H   0  0  0  0  0  0  0  0  0  0  0  0
  138.7792   77.5514  220.1868 H   0  0  0  0  0  0  0  0  0  0  0  0
  137.4951   77.5231  221.4695 H   0  0  0  0  0  0  0  0  0  0  0  0
  137.9949   79.4310  222.7355 H   0  0  0  0  0  0  0  0  0  0  0  0
  139.5666   80.5441  224.3005 H   0  0  0  0  0  0  0  0  0  0  0  0
  141.8980   79.6546  224.5814 H   0  0  0  0  0  0  0  0  0  0  0  0
  142.5816   77.6658  223.2827 H   0  0  0  0  0  0  0  0  0  0  0  0
  141.4368   76.5002  220.4793 H   0  0  0  0  0  0  0  0  0  0  0  0
  142.0211   75.7254  221.9653 H   0  0  0  0  0  0  0  0  0  0  0  0
  137.9969   70.5181  224.6901 H   0  0  0  0  0  0  0  0  0  0  0  0
  138.4173   70.0605  222.9897 H   0  0  0  0  0  0  0  0  0  0  0  0
  138.4695   68.1138  224.5676 H   0  0  0  0  0  0  0  0  0  0  0  0
  140.0356   68.4032  223.7943 H   0  0  0  0  0  0  0  0  0  0  0  0
  139.3525   67.0949  226.5566 H   0  0  0  0  0  0  0  0  0  0  0  0
  140.3311   67.4637  228.7994 H   0  0  0  0  0  0  0  0  0  0  0  0
  141.4358   69.6123  229.3938 H   0  0  0  0  0  0  0  0  0  0  0  0
  141.5363   71.4146  227.6679 H   0  0  0  0  0  0  0  0  0  0  0  0
  140.2491   72.3168  225.6951 H   0  0  0  0  0  0  0  0  0  0  0  0
  141.6821   71.5160  224.9299 H   0  0  0  0  0  0  0  0  0  0  0  0
  143.0340   72.4747  221.3863 H   0  0  0  0  0  0  0  0  0  0  0  0
  144.2681   71.1750  221.5016 H   0  0  0  0  0  0  0  0  0  0  0  0
  145.1419   73.3600  222.2818 H   0  0  0  0  0  0  0  0  0  0  0  0
  146.0226   72.7605  220.8373 H   0  0  0  0  0  0  0  0  0  0  0  0
  143.7762   74.8163  220.9008 H   0  0  0  0  0  0  0  0  0  0  0  0
  145.5305   75.1067  220.5564 H   0  0  0  0  0  0  0  0  0  0  0  0
  144.1926   75.0583  218.4853 H   0  0  0  0  0  0  0  0  0  0  0  0
  145.3752   73.7232  218.5357 H   0  0  0  0  0  0  0  0  0  0  0  0
  142.4442   73.4838  219.4401 H   0  0  0  0  0  0  0  0  0  0  0  0
  143.0162   72.9784  217.8438 H   0  0  0  0  0  0  0  0  0  0  0  0
  1  2  1  0
  2  3  1  0
  3  4  1  0
  4  5  1  0
  5  6  1  0
  6  7  2  0
  7  8  1  0
  8  9  1  0
  9 10  1  0
 10 11  1  0
 11 12  1  0
 12 13  2  0
 13 14  1  0
 14 15  2  0
 15 16  1  0
 16 17  2  0
 17 18  1  0
  8 19  2  0
 19 20  1  0
 20 21  1  0
 21 22  1  0
 22 23  1  0
 23 24  1  0
 24 25  2  0
 25 26  1  0
 26 27  2  0
 27 28  1  0
 28 29  2  0
 29 30  1  0
 20 31  2  0
  3 32  1  0
 32 33  1  0
 33 34  1  0
 34 35  1  0
 35 36  1  0
 36  3  1  0
 31  6  1  0
 18  9  1  0
 30 21  1  0
 17 12  1  0
 29 24  1  0
  1 37  1  0
  1 38  1  0
  1 39  1  0
  2 40  1  0
  4 41  1  0
  4 42  1  0
  5 43  1  0
 10 44  1  0
 10 45  1  0
 11 46  1  0
 11 47  1  0
 13 48  1  0
 14 49  1  0
 15 50  1  0
 16 51  1  0
 18 52  1  0
 18 53  1  0
 22 54  1  0
 22 55  1  0
 23 56  1  0
 23 57  1  0
 25 58  1  0
 26 59  1  0
 27 60  1  0
 28 61  1  0
 30 62  1  0
 30 63  1  0
 32 64  1  0
 32 65  1  0
 33 66  1  0
 33 67  1  0
 34 68  1  0
 34 69  1  0
 35 70  1  0
 35 71  1  0
 36 72  1  0
 36 73  1  0
M  END
>  <smiles>  (35) 
CNC1(CNc2nc(N3CCc4ccccc4C3)nc(N3CCc4ccccc4C3)n2)CCCCC1

>  <score_type>  (35) 
oracle

>  <origin>  (35) 
autodockgpu

>  <m_score__min__energy>  (35) 
-10.869999999999999

>  <m_primary>  (35) 
energy

>  <rmsd>  (35) 
5.081220394010515

>  <m_score__min__rmsd>  (35) 
5.081220394010515

>  <meeko>  (35) 
{"free_energy": -9.79, "intermolecular_energy": -11.58, "internal_energy": -1.65, "cluster_size": 29, "cluster_id": 1, "rank_in_cluster": 22}

>  <energy>  (35) 
-10.0

>  <cluster_rmsd>  (35) 
0.76

>  <cluster>  (35) 
2

$$$$

     RDKit          3D

 73 78  0  0  0  0  0  0  0  0999 V2000
  141.4300   78.2430  219.7760 C   0  0  0  0  0  0  0  0  0  0  0  0
  141.8950   78.3180  221.1240 N   0  0  0  0  0  0  0  0  0  0  0  0
  140.9540   77.9620  222.1350 C   0  0  0  0  0  0  0  0  0  0  0  0
  140.5140   76.5220  222.1180 C   0  0  0  0  0  0  0  0  0  0  0  0
  141.3760   75.6880  221.3300 N   0  0  0  0  0  0  0  0  0  0  0  0
  141.4490   74.2820  221.4120 C   0  0  0  0  0  0  0  0  0  0  0  0
  140.7080   73.6650  222.3480 N   0  0  0  0  0  0  0  0  0  0  0  0
  140.7420   72.3180  222.4600 C   0  0  0  0  0  0  0  0  0  0  0  0
  139.9440   71.6960  223.4810 N   0  0  0  0  0  0  0  0  0  0  0  0
  138.7440   71.0300  223.0400 C   0  0  0  0  0  0  0  0  0  0  0  0
  137.9830   70.4020  224.1790 C   0  0  0  0  0  0  0  0  0  0  0  0
  138.8860   69.7460  225.1560 C   0  0  0  0  0  0  0  0  0  0  0  0
  138.5680   68.5220  225.7040 C   0  0  0  0  0  0  0  0  0  0  0  0
  139.4340   67.9450  226.6060 C   0  0  0  0  0  0  0  0  0  0  0  0
  140.6210   68.5940  226.9620 C   0  0  0  0  0  0  0  0  0  0  0  0
  140.8900   69.8200  226.3820 C   0  0  0  0  0  0  0  0  0  0  0  0
  140.0490   70.4300  225.4750 C   0  0  0  0  0  0  0  0  0  0  0  0
  140.3720   71.7620  224.8650 C   0  0  0  0  0  0  0  0  0  0  0  0
  141.5160   71.5820  221.6370 N   0  0  0  0  0  0  0  0  0  0  0  0
  142.2790   72.1900  220.6790 C   0  0  0  0  0  0  0  0  0  0  0  0
  143.1090   71.4510  219.7940 N   0  0  0  0  0  0  0  0  0  0  0  0
  144.1720   72.1130  219.0620 C   0  0  0  0  0  0  0  0  0  0  0  0
  145.5070   71.4360  219.2990 C   0  0  0  0  0  0  0  0  0  0  0  0
  145.3160   70.0100  218.9040 C   0  0  0  0  0  0  0  0  0  0  0  0
  146.4030   69.3110  218.3650 C   0  0  0  0  0  0  0  0  0  0  0  0
  146.2370   67.9850  217.9930 C   0  0  0  0  0  0  0  0  0  0  0  0
  145.0300   67.3220  218.1350 C   0  0  0  0  0  0  0  0  0  0  0  0
  143.9660   68.0370  218.6720 C   0  0  0  0  0  0  0  0  0  0  0  0
  144.1010   69.3690  219.0550 C   0  0  0  0  0  0  0  0  0  0  0  0
  142.8980   70.0290  219.6160 C   0  0  0  0  0  0  0  0  0  0  0  0
  142.2260   73.5350  220.5890 N   0  0  0  0  0  0  0  0  0  0  0  0
  141.5520   78.2540  223.4930 C   0  0  0  0  0  0  0  0  0  0  0  0
  142.0530   79.6720  223.5260 C   0  0  0  0  0  0  0  0  0  0  0  0
  140.9150   80.6080  223.2240 C   0  0  0  0  0  0  0  0  0  0  0  0
  140.2550   80.2690  221.9130 C   0  0  0  0  0  0  0  0  0  0  0  0
  139.7280   78.8490  222.0110 C   0  0  0  0  0  0  0  0  0  0  0  0
  140.3440   78.0678  219.7720 H   0  0  0  0  0  0  0  0  0  0  0  0
  141.6508   79.1884  219.2588 H   0  0  0  0  0  0  0  0  0  0  0  0
  141.9369   77.4150  219.2588 H   0  0  0  0  0  0  0  0  0  0  0  0
  142.8440   77.8960  221.2560 H   0  0  0  0  0  0  0  0  0  0  0  0
  140.5071   76.1441  223.1510 H   0  0  0  0  0  0  0  0  0  0  0  0
  139.5124   76.4863  221.6646 H   0  0  0  0  0  0  0  0  0  0  0  0
  141.9990   76.1590  220.6370 H   0  0  0  0  0  0  0  0  0  0  0  0
  138.0938   71.7657  222.5440 H   0  0  0  0  0  0  0  0  0  0  0  0
  139.0412   70.2252  222.3515 H   0  0  0  0  0  0  0  0  0  0  0  0
  137.4084   71.1844  224.6963 H   0  0  0  0  0  0  0  0  0  0  0  0
  137.3188   69.6318  223.7600 H   0  0  0  0  0  0  0  0  0  0  0  0
  137.6341   68.0124  225.4244 H   0  0  0  0  0  0  0  0  0  0  0  0
  139.1909   66.9680  227.0492 H   0  0  0  0  0  0  0  0  0  0  0  0
  141.3195   68.1425  227.6819 H   0  0  0  0  0  0  0  0  0  0  0  0
  141.8220   70.3349  226.6580 H   0  0  0  0  0  0  0  0  0  0  0  0
  139.8318   72.5623  225.3920 H   0  0  0  0  0  0  0  0  0  0  0  0
  141.4470   71.9830  224.9387 H   0  0  0  0  0  0  0  0  0  0  0  0
  143.9402   72.0821  217.9871 H   0  0  0  0  0  0  0  0  0  0  0  0
  144.2419   73.1525  219.4149 H   0  0  0  0  0  0  0  0  0  0  0  0
  146.2883   71.9031  218.6814 H   0  0  0  0  0  0  0  0  0  0  0  0
  145.8259   71.5261  220.3479 H   0  0  0  0  0  0  0  0  0  0  0  0
  147.3765   69.8072  218.2382 H   0  0  0  0  0  0  0  0  0  0  0  0
  147.0946   67.4411  217.5703 H   0  0  0  0  0  0  0  0  0  0  0  0
  144.9174   66.2699  217.8344 H   0  0  0  0  0  0  0  0  0  0  0  0
  142.9935   67.5385  218.7975 H   0  0  0  0  0  0  0  0  0  0  0  0
  142.0528   69.8760  218.9288 H   0  0  0  0  0  0  0  0  0  0  0  0
  142.6870   69.5848  220.5999 H   0  0  0  0  0  0  0  0  0  0  0  0
  140.7839   78.1184  224.2687 H   0  0  0  0  0  0  0  0  0  0  0  0
  142.3887   77.5651  223.6809 H   0  0  0  0  0  0  0  0  0  0  0  0
  142.4578   79.8956  224.5241 H   0  0  0  0  0  0  0  0  0  0  0  0
  142.8455   79.8006  222.7741 H   0  0  0  0  0  0  0  0  0  0  0  0
  140.1690   80.5353  224.0291 H   0  0  0  0  0  0  0  0  0  0  0  0
  141.3172   81.6294  223.1542 H   0  0  0  0  0  0  0  0  0  0  0  0
  139.4240   80.9640  221.7219 H   0  0  0  0  0  0  0  0  0  0  0  0
  140.9763   80.3545  221.0869 H   0  0  0  0  0  0  0  0  0  0  0  0
  139.0844   78.7393  222.8963 H   0  0  0  0  0  0  0  0  0  0  0  0
  139.1204   78.5806  221.1342 H   0  0  0  0  0  0  0  0  0  0  0  0
  1  2  1  0
  2  3  1  0
  3  4  1  0
  4  5  1  0
  5  6  1  0
  6  7  2  0
  7  8  1  0
  8  9  1  0
  9 10  1  0
 10 11  1  0
 11 12  1  0
 12 13  2  0
 13 14  1  0
 14 15  2  0
 15 16  1  0
 16 17  2  0
 17 18  1  0
  8 19  2  0
 19 20  1  0
 20 21  1  0
 21 22  1  0
 22 23  1  0
 23 24  1  0
 24 25  2  0
 25 26  1  0
 26 27  2  0
 27 28  1  0
 28 29  2  0
 29 30  1  0
 20 31  2  0
  3 32  1  0
 32 33  1  0
 33 34  1  0
 34 35  1  0
 35 36  1  0
 36  3  1  0
 31  6  1  0
 18  9  1  0
 30 21  1  0
 17 12  1  0
 29 24  1  0
  1 37  1  0
  1 38  1  0
  1 39  1  0
  2 40  1  0
  4 41  1  0
  4 42  1  0
  5 43  1  0
 10 44  1  0
 10 45  1  0
 11 46  1  0
 11 47  1  0
 13 48  1  0
 14 49  1  0
 15 50  1  0
 16 51  1  0
 18 52  1  0
 18 53  1  0
 22 54  1  0
 22 55  1  0
 23 56  1  0
 23 57  1  0
 25 58  1  0
 26 59  1  0
 27 60  1  0
 28 61  1  0
 30 62  1  0
 30 63  1  0
 32 64  1  0
 32 65  1  0
 33 66  1  0
 33 67  1  0
 34 68  1  0
 34 69  1  0
 35 70  1  0
 35 71  1  0
 36 72  1  0
 36 73  1  0
M  END
>  <smiles>  (36) 
CNC1(CNc2nc(N3CCc4ccccc4C3)nc(N3CCc4ccccc4C3)n2)CCCCC1

>  <score_type>  (36) 
oracle

>  <origin>  (36) 
autodockgpu

>  <m_score__min__energy>  (36) 
-10.869999999999999

>  <m_primary>  (36) 
energy

>  <rmsd>  (36) 
10.937953804890352

>  <m_score__min__rmsd>  (36) 
10.937953804890352

>  <meeko>  (36) 
{"free_energy": -9.97, "intermolecular_energy": -11.76, "internal_energy": -1.59, "cluster_size": 16, "cluster_id": 2, "rank_in_cluster": 7}

>  <energy>  (36) 
-9.97

>  <cluster_rmsd>  (36) 
0.86

>  <cluster>  (36) 
2

$$$$

     RDKit          3D

 73 78  0  0  0  0  0  0  0  0999 V2000
  146.2910   73.3710  220.3820 C   0  0  0  0  0  0  0  0  0  0  0  0
  146.1260   73.0720  218.9970 N   0  0  0  0  0  0  0  0  0  0  0  0
  144.8170   72.6820  218.5880 C   0  0  0  0  0  0  0  0  0  0  0  0
  143.7320   73.6840  218.8830 C   0  0  0  0  0  0  0  0  0  0  0  0
  142.4780   73.0640  219.2060 N   0  0  0  0  0  0  0  0  0  0  0  0
  141.6500   73.4170  220.2920 C   0  0  0  0  0  0  0  0  0  0  0  0
  141.3530   74.7160  220.4650 N   0  0  0  0  0  0  0  0  0  0  0  0
  140.5590   75.0990  221.4890 C   0  0  0  0  0  0  0  0  0  0  0  0
  140.2730   76.5000  221.6470 N   0  0  0  0  0  0  0  0  0  0  0  0
  139.1130   76.8330  222.4330 C   0  0  0  0  0  0  0  0  0  0  0  0
  138.9050   78.3210  222.5480 C   0  0  0  0  0  0  0  0  0  0  0  0
  140.1820   79.0470  222.7560 C   0  0  0  0  0  0  0  0  0  0  0  0
  140.2680   80.0880  223.6540 C   0  0  0  0  0  0  0  0  0  0  0  0
  141.4720   80.7360  223.8180 C   0  0  0  0  0  0  0  0  0  0  0  0
  142.5940   80.3420  223.0810 C   0  0  0  0  0  0  0  0  0  0  0  0
  142.4510   79.2910  222.1930 C   0  0  0  0  0  0  0  0  0  0  0  0
  141.2630   78.6180  222.0010 C   0  0  0  0  0  0  0  0  0  0  0  0
  141.1430   77.4820  221.0280 C   0  0  0  0  0  0  0  0  0  0  0  0
  140.0560   74.1860  222.3450 N   0  0  0  0  0  0  0  0  0  0  0  0
  140.3450   72.8600  222.1880 C   0  0  0  0  0  0  0  0  0  0  0  0
  139.8380   71.8670  223.0680 N   0  0  0  0  0  0  0  0  0  0  0  0
  138.7160   71.0390  222.6700 C   0  0  0  0  0  0  0  0  0  0  0  0
  139.0490   69.5660  222.7880 C   0  0  0  0  0  0  0  0  0  0  0  0
  139.4660   69.3550  224.2060 C   0  0  0  0  0  0  0  0  0  0  0  0
  139.1920   68.1230  224.8110 C   0  0  0  0  0  0  0  0  0  0  0  0
  139.5730   67.9160  226.1290 C   0  0  0  0  0  0  0  0  0  0  0  0
  140.2190   68.8890  226.8730 C   0  0  0  0  0  0  0  0  0  0  0  0
  140.4790   70.1040  226.2500 C   0  0  0  0  0  0  0  0  0  0  0  0
  140.1090   70.3420  224.9290 C   0  0  0  0  0  0  0  0  0  0  0  0
  140.4390   71.6750  224.3710 C   0  0  0  0  0  0  0  0  0  0  0  0
  141.1410   72.5050  221.1580 N   0  0  0  0  0  0  0  0  0  0  0  0
  144.8190   72.4210  217.0980 C   0  0  0  0  0  0  0  0  0  0  0  0
  145.9300   71.4640  216.7600 C   0  0  0  0  0  0  0  0  0  0  0  0
  145.7380   70.1870  217.5320 C   0  0  0  0  0  0  0  0  0  0  0  0
  145.6440   70.4480  219.0140 C   0  0  0  0  0  0  0  0  0  0  0  0
  144.4570   71.3640  219.2500 C   0  0  0  0  0  0  0  0  0  0  0  0
  145.8469   72.5662  220.9863 H   0  0  0  0  0  0  0  0  0  0  0  0
  147.3630   73.4547  220.6139 H   0  0  0  0  0  0  0  0  0  0  0  0
  145.7903   74.3226  220.6139 H   0  0  0  0  0  0  0  0  0  0  0  0
  146.5780   73.7760  218.3670 H   0  0  0  0  0  0  0  0  0  0  0  0
  144.0478   74.3040  219.7350 H   0  0  0  0  0  0  0  0  0  0  0  0
  143.5806   74.2866  217.9753 H   0  0  0  0  0  0  0  0  0  0  0  0
  142.1500   72.2900  218.5870 H   0  0  0  0  0  0  0  0  0  0  0  0
  138.2256   76.3878  221.9593 H   0  0  0  0  0  0  0  0  0  0  0  0
  139.2700   76.4369  223.4471 H   0  0  0  0  0  0  0  0  0  0  0  0
  138.4355   78.6864  221.6227 H   0  0  0  0  0  0  0  0  0  0  0  0
  138.2624   78.5074  223.4211 H   0  0  0  0  0  0  0  0  0  0  0  0
  139.3856   80.3979  224.2331 H   0  0  0  0  0  0  0  0  0  0  0  0
  141.5520   81.5683  224.5327 H   0  0  0  0  0  0  0  0  0  0  0  0
  143.5606   80.8525  223.2039 H   0  0  0  0  0  0  0  0  0  0  0  0
  143.3295   78.9763  221.6106 H   0  0  0  0  0  0  0  0  0  0  0  0
  140.7051   77.8357  220.0829 H   0  0  0  0  0  0  0  0  0  0  0  0
  142.1281   77.0509  220.7962 H   0  0  0  0  0  0  0  0  0  0  0  0
  137.8564   71.2650  223.3181 H   0  0  0  0  0  0  0  0  0  0  0  0
  138.4791   71.2580  221.6184 H   0  0  0  0  0  0  0  0  0  0  0  0
  138.1658   68.9537  222.5534 H   0  0  0  0  0  0  0  0  0  0  0  0
  139.8426   69.2730  222.0849 H   0  0  0  0  0  0  0  0  0  0  0  0
  138.6806   67.3282  224.2482 H   0  0  0  0  0  0  0  0  0  0  0  0
  139.3544   66.9458  226.5990 H   0  0  0  0  0  0  0  0  0  0  0  0
  140.5150   68.7074  227.9168 H   0  0  0  0  0  0  0  0  0  0  0  0
  140.9900   70.8976  226.8149 H   0  0  0  0  0  0  0  0  0  0  0  0
  140.0657   72.4514  225.0550 H   0  0  0  0  0  0  0  0  0  0  0  0
  141.5314   71.7430  224.2612 H   0  0  0  0  0  0  0  0  0  0  0  0
  143.8545   71.9835  216.8007 H   0  0  0  0  0  0  0  0  0  0  0  0
  144.9727   73.3676  216.5592 H   0  0  0  0  0  0  0  0  0  0  0  0
  145.9132   71.2476  215.6816 H   0  0  0  0  0  0  0  0  0  0  0  0
  146.8978   71.9138  217.0264 H   0  0  0  0  0  0  0  0  0  0  0  0
  144.8105   69.7011  217.1948 H   0  0  0  0  0  0  0  0  0  0  0  0
  146.6076   69.5385  217.3495 H   0  0  0  0  0  0  0  0  0  0  0  0
  145.4977   69.4999  219.5523 H   0  0  0  0  0  0  0  0  0  0  0  0
  146.5693   70.9162  219.3809 H   0  0  0  0  0  0  0  0  0  0  0  0
  143.5496   70.9411  218.7941 H   0  0  0  0  0  0  0  0  0  0  0  0
  144.2498   71.4918  220.3227 H   0  0  0  0  0  0  0  0  0  0  0  0
  1  2  1  0
  2  3  1  0
  3  4  1  0
  4  5  1  0
  5  6  1  0
  6  7  2  0
  7  8  1  0
  8  9  1  0
  9 10  1  0
 10 11  1  0
 11 12  1  0
 12 13  2  0
 13 14  1  0
 14 15  2  0
 15 16  1  0
 16 17  2  0
 17 18  1  0
  8 19  2  0
 19 20  1  0
 20 21  1  0
 21 22  1  0
 22 23  1  0
 23 24  1  0
 24 25  2  0
 25 26  1  0
 26 27  2  0
 27 28  1  0
 28 29  2  0
 29 30  1  0
 20 31  2  0
  3 32  1  0
 32 33  1  0
 33 34  1  0
 34 35  1  0
 35 36  1  0
 36  3  1  0
 31  6  1  0
 18  9  1  0
 30 21  1  0
 17 12  1  0
 29 24  1  0
  1 37  1  0
  1 38  1  0
  1 39  1  0
  2 40  1  0
  4 41  1  0
  4 42  1  0
  5 43  1  0
 10 44  1  0
 10 45  1  0
 11 46  1  0
 11 47  1  0
 13 48  1  0
 14 49  1  0
 15 50  1  0
 16 51  1  0
 18 52  1  0
 18 53  1  0
 22 54  1  0
 22 55  1  0
 23 56  1  0
 23 57  1  0
 25 58  1  0
 26 59  1  0
 27 60  1  0
 28 61  1  0
 30 62  1  0
 30 63  1  0
 32 64  1  0
 32 65  1  0
 33 66  1  0
 33 67  1  0
 34 68  1  0
 34 69  1  0
 35 70  1  0
 35 71  1  0
 36 72  1  0
 36 73  1  0
M  END
>  <smiles>  (37) 
CNC1(CNc2nc(N3CCc4ccccc4C3)nc(N3CCc4ccccc4C3)n2)CCCCC1

>  <score_type>  (37) 
oracle

>  <origin>  (37) 
autodockgpu

>  <m_score__min__energy>  (37) 
-10.869999999999999

>  <m_primary>  (37) 
energy

>  <rmsd>  (37) 
5.296602213210814

>  <m_score__min__rmsd>  (37) 
5.296602213210814

>  <meeko>  (37) 
{"free_energy": -10.55, "intermolecular_energy": -12.34, "internal_energy": -1.14, "cluster_size": 29, "cluster_id": 1, "rank_in_cluster": 8}

>  <energy>  (37) 
-9.95

>  <cluster_rmsd>  (37) 
0.89

>  <cluster>  (37) 
2

$$$$

     RDKit          3D

 73 78  0  0  0  0  0  0  0  0999 V2000
  143.3730   70.1840  220.0110 C   0  0  0  0  0  0  0  0  0  0  0  0
  143.4150   71.5440  220.4400 N   0  0  0  0  0  0  0  0  0  0  0  0
  143.6240   72.5210  219.4210 C   0  0  0  0  0  0  0  0  0  0  0  0
  142.4990   72.6570  218.4290 C   0  0  0  0  0  0  0  0  0  0  0  0
  141.2190   72.3410  218.9950 N   0  0  0  0  0  0  0  0  0  0  0  0
  140.7420   72.8000  220.2410 C   0  0  0  0  0  0  0  0  0  0  0  0
  140.5320   74.1190  220.3890 N   0  0  0  0  0  0  0  0  0  0  0  0
  140.0700   74.6040  221.5630 C   0  0  0  0  0  0  0  0  0  0  0  0
  139.8680   76.0220  221.6870 N   0  0  0  0  0  0  0  0  0  0  0  0
  138.7080   76.4430  222.4300 C   0  0  0  0  0  0  0  0  0  0  0  0
  138.5890   77.9430  222.5110 C   0  0  0  0  0  0  0  0  0  0  0  0
  139.9020   78.5920  222.7460 C   0  0  0  0  0  0  0  0  0  0  0  0
  140.0260   79.6440  223.6270 C   0  0  0  0  0  0  0  0  0  0  0  0
  141.2630   80.2190  223.8180 C   0  0  0  0  0  0  0  0  0  0  0  0
  142.3800   79.7410  223.1240 C   0  0  0  0  0  0  0  0  0  0  0  0
  142.1990   78.6840  222.2510 C   0  0  0  0  0  0  0  0  0  0  0  0
  140.9780   78.0820  222.0330 C   0  0  0  0  0  0  0  0  0  0  0  0
  140.8160   76.9360  221.0780 C   0  0  0  0  0  0  0  0  0  0  0  0
  139.8150   73.7730  222.5950 N   0  0  0  0  0  0  0  0  0  0  0  0
  140.0230   72.4290  222.4650 C   0  0  0  0  0  0  0  0  0  0  0  0
  139.7690   71.5200  223.5270 N   0  0  0  0  0  0  0  0  0  0  0  0
  138.6800   70.5670  223.4320 C   0  0  0  0  0  0  0  0  0  0  0  0
  139.1680   69.1490  223.6520 C   0  0  0  0  0  0  0  0  0  0  0  0
  139.8370   69.1510  224.9860 C   0  0  0  0  0  0  0  0  0  0  0  0
  139.7880   67.9890  225.7640 C   0  0  0  0  0  0  0  0  0  0  0  0
  140.4050   67.9790  227.0060 C   0  0  0  0  0  0  0  0  0  0  0  0
  141.0720   69.0830  227.5100 C   0  0  0  0  0  0  0  0  0  0  0  0
  141.1060   70.2260  226.7190 C   0  0  0  0  0  0  0  0  0  0  0  0
  140.4960   70.2660  225.4680 C   0  0  0  0  0  0  0  0  0  0  0  0
  140.5980   71.5390  224.7150 C   0  0  0  0  0  0  0  0  0  0  0  0
  140.4840   71.9710  221.2830 N   0  0  0  0  0  0  0  0  0  0  0  0
  143.8460   73.8700  220.0660 C   0  0  0  0  0  0  0  0  0  0  0  0
  144.9290   73.7570  221.1050 C   0  0  0  0  0  0  0  0  0  0  0  0
  146.1890   73.2540  220.4560 C   0  0  0  0  0  0  0  0  0  0  0  0
  145.9560   71.9510  219.7340 C   0  0  0  0  0  0  0  0  0  0  0  0
  144.9010   72.1930  218.6690 C   0  0  0  0  0  0  0  0  0  0  0  0
  143.3526   69.5228  220.8898 H   0  0  0  0  0  0  0  0  0  0  0  0
  142.4693   70.0180  219.4062 H   0  0  0  0  0  0  0  0  0  0  0  0
  144.2647   69.9626  219.4062 H   0  0  0  0  0  0  0  0  0  0  0  0
  142.6510   71.7880  221.1140 H   0  0  0  0  0  0  0  0  0  0  0  0
  142.4756   73.6943  218.0638 H   0  0  0  0  0  0  0  0  0  0  0  0
  142.6870   71.9423  217.6142 H   0  0  0  0  0  0  0  0  0  0  0  0
  140.5870   71.7220  218.4410 H   0  0  0  0  0  0  0  0  0  0  0  0
  137.8092   76.0437  221.9373 H   0  0  0  0  0  0  0  0  0  0  0  0
  138.8103   76.0595  223.4559 H   0  0  0  0  0  0  0  0  0  0  0  0
  138.1717   78.3179  221.5648 H   0  0  0  0  0  0  0  0  0  0  0  0
  137.9325   78.1867  223.3593 H   0  0  0  0  0  0  0  0  0  0  0  0
  139.1474   80.0203  224.1715 H   0  0  0  0  0  0  0  0  0  0  0  0
  141.3733   81.0586  224.5200 H   0  0  0  0  0  0  0  0  0  0  0  0
  143.3726   80.1926  223.2686 H   0  0  0  0  0  0  0  0  0  0  0  0
  143.0737   78.3042  221.7026 H   0  0  0  0  0  0  0  0  0  0  0  0
  140.4296   77.2970  220.1135 H   0  0  0  0  0  0  0  0  0  0  0  0
  141.7788   76.4400  220.8855 H   0  0  0  0  0  0  0  0  0  0  0  0
  137.9250   70.8085  224.1947 H   0  0  0  0  0  0  0  0  0  0  0  0
  138.2483   70.6328  222.4224 H   0  0  0  0  0  0  0  0  0  0  0  0
  138.3206   68.4477  223.6496 H   0  0  0  0  0  0  0  0  0  0  0  0
  139.8555   68.8295  222.8550 H   0  0  0  0  0  0  0  0  0  0  0  0
  139.2661   67.0938  225.3948 H   0  0  0  0  0  0  0  0  0  0  0  0
  140.3631   67.0620  227.6120 H   0  0  0  0  0  0  0  0  0  0  0  0
  141.5560   69.0567  228.4975 H   0  0  0  0  0  0  0  0  0  0  0  0
  141.6275   71.1204  227.0906 H   0  0  0  0  0  0  0  0  0  0  0  0
  140.2736   72.3655  225.3643 H   0  0  0  0  0  0  0  0  0  0  0  0
  141.6445   71.6736  224.4040 H   0  0  0  0  0  0  0  0  0  0  0  0
  144.1484   74.5980  219.2988 H   0  0  0  0  0  0  0  0  0  0  0  0
  142.9137   74.2062  220.5432 H   0  0  0  0  0  0  0  0  0  0  0  0
  145.1147   74.7451  221.5514 H   0  0  0  0  0  0  0  0  0  0  0  0
  144.6138   73.0554  221.8914 H   0  0  0  0  0  0  0  0  0  0  0  0
  146.5434   74.0044  219.7340 H   0  0  0  0  0  0  0  0  0  0  0  0
  146.9384   73.0835  221.2429 H   0  0  0  0  0  0  0  0  0  0  0  0
  146.8908   71.6110  219.2643 H   0  0  0  0  0  0  0  0  0  0  0  0
  145.6202   71.1759  220.4386 H   0  0  0  0  0  0  0  0  0  0  0  0
  145.1932   73.0350  218.0243 H   0  0  0  0  0  0  0  0  0  0  0  0
  144.7739   71.3159  218.0175 H   0  0  0  0  0  0  0  0  0  0  0  0
  1  2  1  0
  2  3  1  0
  3  4  1  0
  4  5  1  0
  5  6  1  0
  6  7  2  0
  7  8  1  0
  8  9  1  0
  9 10  1  0
 10 11  1  0
 11 12  1  0
 12 13  2  0
 13 14  1  0
 14 15  2  0
 15 16  1  0
 16 17  2  0
 17 18  1  0
  8 19  2  0
 19 20  1  0
 20 21  1  0
 21 22  1  0
 22 23  1  0
 23 24  1  0
 24 25  2  0
 25 26  1  0
 26 27  2  0
 27 28  1  0
 28 29  2  0
 29 30  1  0
 20 31  2  0
  3 32  1  0
 32 33  1  0
 33 34  1  0
 34 35  1  0
 35 36  1  0
 36  3  1  0
 31  6  1  0
 18  9  1  0
 30 21  1  0
 17 12  1  0
 29 24  1  0
  1 37  1  0
  1 38  1  0
  1 39  1  0
  2 40  1  0
  4 41  1  0
  4 42  1  0
  5 43  1  0
 10 44  1  0
 10 45  1  0
 11 46  1  0
 11 47  1  0
 13 48  1  0
 14 49  1  0
 15 50  1  0
 16 51  1  0
 18 52  1  0
 18 53  1  0
 22 54  1  0
 22 55  1  0
 23 56  1  0
 23 57  1  0
 25 58  1  0
 26 59  1  0
 27 60  1  0
 28 61  1  0
 30 62  1  0
 30 63  1  0
 32 64  1  0
 32 65  1  0
 33 66  1  0
 33 67  1  0
 34 68  1  0
 34 69  1  0
 35 70  1  0
 35 71  1  0
 36 72  1  0
 36 73  1  0
M  END
>  <smiles>  (38) 
CNC1(CNc2nc(N3CCc4ccccc4C3)nc(N3CCc4ccccc4C3)n2)CCCCC1

>  <score_type>  (38) 
oracle

>  <origin>  (38) 
autodockgpu

>  <m_score__min__energy>  (38) 
-10.869999999999999

>  <m_primary>  (38) 
energy

>  <rmsd>  (38) 
5.273592357795262

>  <m_score__min__rmsd>  (38) 
5.273592357795262

>  <meeko>  (38) 
{"free_energy": -9.75, "intermolecular_energy": -11.54, "internal_energy": -2.23, "cluster_size": 29, "cluster_id": 1, "rank_in_cluster": 24}

>  <energy>  (38) 
-9.91

>  <cluster_rmsd>  (38) 
0.94

>  <cluster>  (38) 
2

$$$$

     RDKit          3D

 73 78  0  0  0  0  0  0  0  0999 V2000
  145.8920   73.2180  220.3460 C   0  0  0  0  0  0  0  0  0  0  0  0
  145.7430   72.9160  218.9590 N   0  0  0  0  0  0  0  0  0  0  0  0
  144.5800   72.1740  218.5970 C   0  0  0  0  0  0  0  0  0  0  0  0
  143.2710   72.8310  218.9440 C   0  0  0  0  0  0  0  0  0  0  0  0
  142.4630   72.0290  219.8190 N   0  0  0  0  0  0  0  0  0  0  0  0
  141.6090   72.5270  220.8250 C   0  0  0  0  0  0  0  0  0  0  0  0
  141.2480   73.8200  220.7640 N   0  0  0  0  0  0  0  0  0  0  0  0
  140.4260   74.3390  221.7030 C   0  0  0  0  0  0  0  0  0  0  0  0
  140.0720   75.7300  221.6100 N   0  0  0  0  0  0  0  0  0  0  0  0
  138.6990   76.0620  221.8960 C   0  0  0  0  0  0  0  0  0  0  0  0
  138.4300   77.5400  221.7820 C   0  0  0  0  0  0  0  0  0  0  0  0
  139.5310   78.3520  222.3560 C   0  0  0  0  0  0  0  0  0  0  0  0
  139.2660   79.4690  223.1180 C   0  0  0  0  0  0  0  0  0  0  0  0
  140.3160   80.1950  223.6350 C   0  0  0  0  0  0  0  0  0  0  0  0
  141.6360   79.8040  223.3860 C   0  0  0  0  0  0  0  0  0  0  0  0
  141.8450   78.6760  222.6140 C   0  0  0  0  0  0  0  0  0  0  0  0
  140.8210   77.9230  222.0810 C   0  0  0  0  0  0  0  0  0  0  0  0
  141.0830   76.7040  221.2460 C   0  0  0  0  0  0  0  0  0  0  0  0
  139.9600   73.5680  222.7070 N   0  0  0  0  0  0  0  0  0  0  0  0
  140.3150   72.2520  222.7880 C   0  0  0  0  0  0  0  0  0  0  0  0
  139.8490   71.4060  223.8300 N   0  0  0  0  0  0  0  0  0  0  0  0
  138.7730   70.4650  223.5850 C   0  0  0  0  0  0  0  0  0  0  0  0
  139.1780   69.0550  223.9640 C   0  0  0  0  0  0  0  0  0  0  0  0
  139.5900   69.1210  225.3960 C   0  0  0  0  0  0  0  0  0  0  0  0
  139.3710   68.0040  226.2100 C   0  0  0  0  0  0  0  0  0  0  0  0
  139.7490   68.0540  227.5450 C   0  0  0  0  0  0  0  0  0  0  0  0
  140.3380   69.1740  228.1050 C   0  0  0  0  0  0  0  0  0  0  0  0
  140.5450   70.2710  227.2760 C   0  0  0  0  0  0  0  0  0  0  0  0
  140.1770   70.2510  225.9340 C   0  0  0  0  0  0  0  0  0  0  0  0
  140.4460   71.4790  225.1480 C   0  0  0  0  0  0  0  0  0  0  0  0
  141.1370   71.7590  221.8380 N   0  0  0  0  0  0  0  0  0  0  0  0
  144.5970   71.9220  217.1060 C   0  0  0  0  0  0  0  0  0  0  0  0
  145.9180   71.3150  216.7150 C   0  0  0  0  0  0  0  0  0  0  0  0
  146.1230   70.0370  217.4810 C   0  0  0  0  0  0  0  0  0  0  0  0
  146.0180   70.2620  218.9680 C   0  0  0  0  0  0  0  0  0  0  0  0
  144.6320   70.8090  219.2590 C   0  0  0  0  0  0  0  0  0  0  0  0
  145.4844   72.3918  220.9470 H   0  0  0  0  0  0  0  0  0  0  0  0
  146.9587   73.3501  220.5800 H   0  0  0  0  0  0  0  0  0  0  0  0
  145.3478   74.1449  220.5800 H   0  0  0  0  0  0  0  0  0  0  0  0
  145.9380   73.7350  218.3360 H   0  0  0  0  0  0  0  0  0  0  0  0
  143.4794   73.7910  219.4390 H   0  0  0  0  0  0  0  0  0  0  0  0
  142.7103   72.9692  218.0078 H   0  0  0  0  0  0  0  0  0  0  0  0
  142.5090   70.9930  219.7010 H   0  0  0  0  0  0  0  0  0  0  0  0
  138.0511   75.5291  221.1845 H   0  0  0  0  0  0  0  0  0  0  0  0
  138.4905   75.7621  222.9336 H   0  0  0  0  0  0  0  0  0  0  0  0
  138.3148   77.7989  220.7191 H   0  0  0  0  0  0  0  0  0  0  0  0
  137.5134   77.7628  222.3478 H   0  0  0  0  0  0  0  0  0  0  0  0
  138.2279   79.7773  223.3111 H   0  0  0  0  0  0  0  0  0  0  0  0
  140.1157   81.0869  224.2469 H   0  0  0  0  0  0  0  0  0  0  0  0
  142.4825   80.3769  223.7923 H   0  0  0  0  0  0  0  0  0  0  0  0
  142.8809   78.3639  222.4152 H   0  0  0  0  0  0  0  0  0  0  0  0
  141.0046   76.9516  220.1771 H   0  0  0  0  0  0  0  0  0  0  0  0
  142.0952   76.3113  221.4224 H   0  0  0  0  0  0  0  0  0  0  0  0
  137.8970   70.7589  224.1819 H   0  0  0  0  0  0  0  0  0  0  0  0
  138.5353   70.4812  222.5111 H   0  0  0  0  0  0  0  0  0  0  0  0
  138.3289   68.3666  223.8412 H   0  0  0  0  0  0  0  0  0  0  0  0
  139.9925   68.6825  223.3254 H   0  0  0  0  0  0  0  0  0  0  0  0
  138.9050   67.0972  225.7971 H   0  0  0  0  0  0  0  0  0  0  0  0
  139.5742   67.1727  228.1796 H   0  0  0  0  0  0  0  0  0  0  0  0
  140.6311   69.1956  229.1650 H   0  0  0  0  0  0  0  0  0  0  0  0
  141.0110   71.1768  227.6911 H   0  0  0  0  0  0  0  0  0  0  0  0
  140.0277   72.3446  225.6826 H   0  0  0  0  0  0  0  0  0  0  0  0
  141.5347   71.5816  225.0290 H   0  0  0  0  0  0  0  0  0  0  0  0
  143.7832   71.2308  216.8416 H   0  0  0  0  0  0  0  0  0  0  0  0
  144.4580   72.8734  216.5716 H   0  0  0  0  0  0  0  0  0  0  0  0
  145.9193   71.1011  215.6360 H   0  0  0  0  0  0  0  0  0  0  0  0
  146.7307   72.0189  216.9477 H   0  0  0  0  0  0  0  0  0  0  0  0
  145.3569   69.3096  217.1745 H   0  0  0  0  0  0  0  0  0  0  0  0
  147.1321   69.6594  217.2592 H   0  0  0  0  0  0  0  0  0  0  0  0
  146.1644   69.3112  219.5014 H   0  0  0  0  0  0  0  0  0  0  0  0
  146.7888   70.9711  219.3042 H   0  0  0  0  0  0  0  0  0  0  0  0
  143.8621   70.1477  218.8347 H   0  0  0  0  0  0  0  0  0  0  0  0
  144.4412   70.8754  220.3403 H   0  0  0  0  0  0  0  0  0  0  0  0
  1  2  1  0
  2  3  1  0
  3  4  1  0
  4  5  1  0
  5  6  1  0
  6  7  2  0
  7  8  1  0
  8  9  1  0
  9 10  1  0
 10 11  1  0
 11 12  1  0
 12 13  2  0
 13 14  1  0
 14 15  2  0
 15 16  1  0
 16 17  2  0
 17 18  1  0
  8 19  2  0
 19 20  1  0
 20 21  1  0
 21 22  1  0
 22 23  1  0
 23 24  1  0
 24 25  2  0
 25 26  1  0
 26 27  2  0
 27 28  1  0
 28 29  2  0
 29 30  1  0
 20 31  2  0
  3 32  1  0
 32 33  1  0
 33 34  1  0
 34 35  1  0
 35 36  1  0
 36  3  1  0
 31  6  1  0
 18  9  1  0
 30 21  1  0
 17 12  1  0
 29 24  1  0
  1 37  1  0
  1 38  1  0
  1 39  1  0
  2 40  1  0
  4 41  1  0
  4 42  1  0
  5 43  1  0
 10 44  1  0
 10 45  1  0
 11 46  1  0
 11 47  1  0
 13 48  1  0
 14 49  1  0
 15 50  1  0
 16 51  1  0
 18 52  1  0
 18 53  1  0
 22 54  1  0
 22 55  1  0
 23 56  1  0
 23 57  1  0
 25 58  1  0
 26 59  1  0
 27 60  1  0
 28 61  1  0
 30 62  1  0
 30 63  1  0
 32 64  1  0
 32 65  1  0
 33 66  1  0
 33 67  1  0
 34 68  1  0
 34 69  1  0
 35 70  1  0
 35 71  1  0
 36 72  1  0
 36 73  1  0
M  END
>  <smiles>  (39) 
CNC1(CNc2nc(N3CCc4ccccc4C3)nc(N3CCc4ccccc4C3)n2)CCCCC1

>  <score_type>  (39) 
oracle

>  <origin>  (39) 
autodockgpu

>  <m_score__min__energy>  (39) 
-10.869999999999999

>  <m_primary>  (39) 
energy

>  <rmsd>  (39) 
5.054287583377867

>  <m_score__min__rmsd>  (39) 
5.054287583377867

>  <meeko>  (39) 
{"free_energy": -10.53, "intermolecular_energy": -12.32, "internal_energy": -1.04, "cluster_size": 29, "cluster_id": 1, "rank_in_cluster": 10}

>  <energy>  (39) 
-9.9

>  <cluster_rmsd>  (39) 
0.61

>  <cluster>  (39) 
2

$$$$

     RDKit          3D

 73 78  0  0  0  0  0  0  0  0999 V2000
  141.1520   77.9470  219.8090 C   0  0  0  0  0  0  0  0  0  0  0  0
  141.7330   77.9070  221.1110 N   0  0  0  0  0  0  0  0  0  0  0  0
  140.8270   77.7420  222.2010 C   0  0  0  0  0  0  0  0  0  0  0  0
  140.2380   76.3630  222.3370 C   0  0  0  0  0  0  0  0  0  0  0  0
  140.7200   75.4530  221.3370 N   0  0  0  0  0  0  0  0  0  0  0  0
  140.9370   74.0720  221.5270 C   0  0  0  0  0  0  0  0  0  0  0  0
  141.6750   73.4180  220.6140 N   0  0  0  0  0  0  0  0  0  0  0  0
  141.9130   72.0950  220.7580 C   0  0  0  0  0  0  0  0  0  0  0  0
  142.6970   71.4280  219.7550 N   0  0  0  0  0  0  0  0  0  0  0  0
  143.7070   72.2180  219.0990 C   0  0  0  0  0  0  0  0  0  0  0  0
  144.4800   71.4290  218.0740 C   0  0  0  0  0  0  0  0  0  0  0  0
  144.7940   70.0590  218.5480 C   0  0  0  0  0  0  0  0  0  0  0  0
  146.0300   69.4950  218.3190 C   0  0  0  0  0  0  0  0  0  0  0  0
  146.2820   68.2200  218.7760 C   0  0  0  0  0  0  0  0  0  0  0  0
  145.2950   67.5080  219.4640 C   0  0  0  0  0  0  0  0  0  0  0  0
  144.0720   68.1210  219.6660 C   0  0  0  0  0  0  0  0  0  0  0  0
  143.7810   69.3940  219.2240 C   0  0  0  0  0  0  0  0  0  0  0  0
  142.4430   70.0300  219.4600 C   0  0  0  0  0  0  0  0  0  0  0  0
  141.4170   71.4210  221.8160 N   0  0  0  0  0  0  0  0  0  0  0  0
  140.6640   72.0670  222.7550 C   0  0  0  0  0  0  0  0  0  0  0  0
  140.1220   71.3940  223.8820 N   0  0  0  0  0  0  0  0  0  0  0  0
  138.9400   70.5640  223.7430 C   0  0  0  0  0  0  0  0  0  0  0  0
  139.1860   69.1630  224.2640 C   0  0  0  0  0  0  0  0  0  0  0  0
  139.6290   69.3270  225.6790 C   0  0  0  0  0  0  0  0  0  0  0  0
  139.2970   68.3330  226.6070 C   0  0  0  0  0  0  0  0  0  0  0  0
  139.7010   68.4750  227.9260 C   0  0  0  0  0  0  0  0  0  0  0  0
  140.4270   69.5710  228.3630 C   0  0  0  0  0  0  0  0  0  0  0  0
  140.7440   70.5450  227.4240 C   0  0  0  0  0  0  0  0  0  0  0  0
  140.3520   70.4310  226.0930 C   0  0  0  0  0  0  0  0  0  0  0  0
  140.7470   71.5310  225.1810 C   0  0  0  0  0  0  0  0  0  0  0  0
  140.4410   73.3870  222.5870 N   0  0  0  0  0  0  0  0  0  0  0  0
  141.5390   78.0770  223.4930 C   0  0  0  0  0  0  0  0  0  0  0  0
  142.1880   79.4290  223.3710 C   0  0  0  0  0  0  0  0  0  0  0  0
  141.1370   80.4570  223.0510 C   0  0  0  0  0  0  0  0  0  0  0  0
  140.3610   80.0860  221.8130 C   0  0  0  0  0  0  0  0  0  0  0  0
  139.6950   78.7450  222.0670 C   0  0  0  0  0  0  0  0  0  0  0  0
  140.0582   78.0223  219.8978 H   0  0  0  0  0  0  0  0  0  0  0  0
  141.5365   78.8208  219.2626 H   0  0  0  0  0  0  0  0  0  0  0  0
  141.4132   77.0287  219.2626 H   0  0  0  0  0  0  0  0  0  0  0  0
  142.5810   77.2960  221.1660 H   0  0  0  0  0  0  0  0  0  0  0  0
  140.4983   75.9656  223.3291 H   0  0  0  0  0  0  0  0  0  0  0  0
  139.1494   76.4527  222.2072 H   0  0  0  0  0  0  0  0  0  0  0  0
  140.9260   75.8430  220.3910 H   0  0  0  0  0  0  0  0  0  0  0  0
  143.2201   73.0671  218.5971 H   0  0  0  0  0  0  0  0  0  0  0  0
  144.4183   72.5564  219.8669 H   0  0  0  0  0  0  0  0  0  0  0  0
  143.8804   71.3579  217.1545 H   0  0  0  0  0  0  0  0  0  0  0  0
  145.4306   71.9509  217.8899 H   0  0  0  0  0  0  0  0  0  0  0  0
  146.8062   70.0559  217.7778 H   0  0  0  0  0  0  0  0  0  0  0  0
  147.2652   67.7597  218.5986 H   0  0  0  0  0  0  0  0  0  0  0  0
  145.4857   66.4898  219.8339 H   0  0  0  0  0  0  0  0  0  0  0  0
  143.2920   67.5648  220.2066 H   0  0  0  0  0  0  0  0  0  0  0  0
  141.8154   69.9393  218.5612 H   0  0  0  0  0  0  0  0  0  0  0  0
  141.9101   69.5394  220.2879 H   0  0  0  0  0  0  0  0  0  0  0  0
  138.1148   71.0178  224.3114 H   0  0  0  0  0  0  0  0  0  0  0  0
  138.6866   70.4973  222.6747 H   0  0  0  0  0  0  0  0  0  0  0  0
  138.2609   68.5696  224.2187 H   0  0  0  0  0  0  0  0  0  0  0  0
  139.9401   68.6342  223.6626 H   0  0  0  0  0  0  0  0  0  0  0  0
  138.7221   67.4491  226.2935 H   0  0  0  0  0  0  0  0  0  0  0  0
  139.4359   67.6905  228.6501 H   0  0  0  0  0  0  0  0  0  0  0  0
  140.7405   69.6665  229.4131 H   0  0  0  0  0  0  0  0  0  0  0  0
  141.3189   71.4279  227.7401 H   0  0  0  0  0  0  0  0  0  0  0  0
  140.4421   72.4902  225.6249 H   0  0  0  0  0  0  0  0  0  0  0  0
  141.8378   71.4914  225.0449 H   0  0  0  0  0  0  0  0  0  0  0  0
  140.8126   78.0920  224.3189 H   0  0  0  0  0  0  0  0  0  0  0  0
  142.3084   77.3175  223.6957 H   0  0  0  0  0  0  0  0  0  0  0  0
  142.6787   79.6883  224.3207 H   0  0  0  0  0  0  0  0  0  0  0  0
  142.9389   79.4066  222.5674 H   0  0  0  0  0  0  0  0  0  0  0  0
  140.4413   80.5332  223.8996 H   0  0  0  0  0  0  0  0  0  0  0  0
  141.6388   81.4188  222.8688 H   0  0  0  0  0  0  0  0  0  0  0  0
  139.5970   80.8502  221.6072 H   0  0  0  0  0  0  0  0  0  0  0  0
  141.0318   80.0233  220.9435 H   0  0  0  0  0  0  0  0  0  0  0  0
  139.1026   78.7805  222.9931 H   0  0  0  0  0  0  0  0  0  0  0  0
  139.0065   78.4734  221.2532 H   0  0  0  0  0  0  0  0  0  0  0  0
  1  2  1  0
  2  3  1  0
  3  4  1  0
  4  5  1  0
  5  6  1  0
  6  7  2  0
  7  8  1  0
  8  9  1  0
  9 10  1  0
 10 11  1  0
 11 12  1  0
 12 13  2  0
 13 14  1  0
 14 15  2  0
 15 16  1  0
 16 17  2  0
 17 18  1  0
  8 19  2  0
 19 20  1  0
 20 21  1  0
 21 22  1  0
 22 23  1  0
 23 24  1  0
 24 25  2  0
 25 26  1  0
 26 27  2  0
 27 28  1  0
 28 29  2  0
 29 30  1  0
 20 31  2  0
  3 32  1  0
 32 33  1  0
 33 34  1  0
 34 35  1  0
 35 36  1  0
 36  3  1  0
 31  6  1  0
 18  9  1  0
 30 21  1  0
 17 12  1  0
 29 24  1  0
  1 37  1  0
  1 38  1  0
  1 39  1  0
  2 40  1  0
  4 41  1  0
  4 42  1  0
  5 43  1  0
 10 44  1  0
 10 45  1  0
 11 46  1  0
 11 47  1  0
 13 48  1  0
 14 49  1  0
 15 50  1  0
 16 51  1  0
 18 52  1  0
 18 53  1  0
 22 54  1  0
 22 55  1  0
 23 56  1  0
 23 57  1  0
 25 58  1  0
 26 59  1  0
 27 60  1  0
 28 61  1  0
 30 62  1  0
 30 63  1  0
 32 64  1  0
 32 65  1  0
 33 66  1  0
 33 67  1  0
 34 68  1  0
 34 69  1  0
 35 70  1  0
 35 71  1  0
 36 72  1  0
 36 73  1  0
M  END
>  <smiles>  (40) 
CNC1(CNc2nc(N3CCc4ccccc4C3)nc(N3CCc4ccccc4C3)n2)CCCCC1

>  <score_type>  (40) 
oracle

>  <origin>  (40) 
autodockgpu

>  <m_score__min__energy>  (40) 
-10.869999999999999

>  <m_primary>  (40) 
energy

>  <rmsd>  (40) 
10.71269557707756

>  <m_score__min__rmsd>  (40) 
10.71269557707756

>  <meeko>  (40) 
{"free_energy": -10.19, "intermolecular_energy": -11.98, "internal_energy": -1.38, "cluster_size": 16, "cluster_id": 2, "rank_in_cluster": 4}

>  <energy>  (40) 
-9.86

>  <cluster_rmsd>  (40) 
0.71

>  <cluster>  (40) 
2

$$$$

     RDKit          3D

 73 78  0  0  0  0  0  0  0  0999 V2000
  137.7910   76.1190  221.9280 C   0  0  0  0  0  0  0  0  0  0  0  0
  137.1720   75.0560  222.6520 N   0  0  0  0  0  0  0  0  0  0  0  0
  135.8360   74.7300  222.2750 C   0  0  0  0  0  0  0  0  0  0  0  0
  135.6870   74.1520  220.8920 C   0  0  0  0  0  0  0  0  0  0  0  0
  136.5150   72.9990  220.6810 N   0  0  0  0  0  0  0  0  0  0  0  0
  137.7470   72.7500  221.3220 C   0  0  0  0  0  0  0  0  0  0  0  0
  138.8650   73.2230  220.7450 N   0  0  0  0  0  0  0  0  0  0  0  0
  140.0670   73.0130  221.3260 C   0  0  0  0  0  0  0  0  0  0  0  0
  141.2420   73.5240  220.6720 N   0  0  0  0  0  0  0  0  0  0  0  0
  141.5310   74.9210  220.8730 C   0  0  0  0  0  0  0  0  0  0  0  0
  142.7830   75.3580  220.1580 C   0  0  0  0  0  0  0  0  0  0  0  0
  143.8650   74.3480  220.2640 C   0  0  0  0  0  0  0  0  0  0  0  0
  145.1690   74.7280  220.4940 C   0  0  0  0  0  0  0  0  0  0  0  0
  146.1440   73.7590  220.5880 C   0  0  0  0  0  0  0  0  0  0  0  0
  145.8130   72.4070  220.4490 C   0  0  0  0  0  0  0  0  0  0  0  0
  144.4890   72.0820  220.2190 C   0  0  0  0  0  0  0  0  0  0  0  0
  143.4850   73.0220  220.1190 C   0  0  0  0  0  0  0  0  0  0  0  0
  142.0570   72.6350  219.8680 C   0  0  0  0  0  0  0  0  0  0  0  0
  140.1580   72.3330  222.4870 N   0  0  0  0  0  0  0  0  0  0  0  0
  139.0340   71.8440  223.0900 C   0  0  0  0  0  0  0  0  0  0  0  0
  139.0860   71.1200  224.3110 N   0  0  0  0  0  0  0  0  0  0  0  0
  138.1790   70.0130  224.5480 C   0  0  0  0  0  0  0  0  0  0  0  0
  138.9330   68.7510  224.9120 C   0  0  0  0  0  0  0  0  0  0  0  0
  139.7610   69.1010  226.1030 C   0  0  0  0  0  0  0  0  0  0  0  0
  140.0200   68.1090  227.0560 C   0  0  0  0  0  0  0  0  0  0  0  0
  140.7870   68.4230  228.1690 C   0  0  0  0  0  0  0  0  0  0  0  0
  141.3100   69.6890  228.3730 C   0  0  0  0  0  0  0  0  0  0  0  0
  141.0380   70.6570  227.4130 C   0  0  0  0  0  0  0  0  0  0  0  0
  140.2710   70.3720  226.2870 C   0  0  0  0  0  0  0  0  0  0  0  0
  140.0480   71.4840  225.3310 C   0  0  0  0  0  0  0  0  0  0  0  0
  137.8460   72.0660  222.4890 N   0  0  0  0  0  0  0  0  0  0  0  0
  135.2710   73.7340  223.2620 C   0  0  0  0  0  0  0  0  0  0  0  0
  135.4540   74.2570  224.6610 C   0  0  0  0  0  0  0  0  0  0  0  0
  134.7690   75.5900  224.7870 C   0  0  0  0  0  0  0  0  0  0  0  0
  135.2630   76.5640  223.7470 C   0  0  0  0  0  0  0  0  0  0  0  0
  134.9700   75.9720  222.3800 C   0  0  0  0  0  0  0  0  0  0  0  0
  138.2147   76.8467  222.6358 H   0  0  0  0  0  0  0  0  0  0  0  0
  138.5938   75.7128  221.2951 H   0  0  0  0  0  0  0  0  0  0  0  0
  137.0415   76.6167  221.2951 H   0  0  0  0  0  0  0  0  0  0  0  0
  137.7960   74.2240  222.7750 H   0  0  0  0  0  0  0  0  0  0  0  0
  134.6363   73.8626  220.7429 H   0  0  0  0  0  0  0  0  0  0  0  0
  136.0025   74.9233  220.1740 H   0  0  0  0  0  0  0  0  0  0  0  0
  136.1790   72.2830  220.0000 H   0  0  0  0  0  0  0  0  0  0  0  0
  140.6844   75.5143  220.4972 H   0  0  0  0  0  0  0  0  0  0  0  0
  141.6879   75.0790  221.9502 H   0  0  0  0  0  0  0  0  0  0  0  0
  142.5480   75.5165  219.0951 H   0  0  0  0  0  0  0  0  0  0  0  0
  143.1373   76.2863  220.6299 H   0  0  0  0  0  0  0  0  0  0  0  0
  145.4286   75.7915  220.6013 H   0  0  0  0  0  0  0  0  0  0  0  0
  147.1884   74.0502  220.7734 H   0  0  0  0  0  0  0  0  0  0  0  0
  146.5836   71.6253  220.5206 H   0  0  0  0  0  0  0  0  0  0  0  0
  144.2231   71.0202  220.1103 H   0  0  0  0  0  0  0  0  0  0  0  0
  141.8125   72.7551  218.8023 H   0  0  0  0  0  0  0  0  0  0  0  0
  141.8777   71.5826  220.1330 H   0  0  0  0  0  0  0  0  0  0  0  0
  137.5010   70.2758  225.3734 H   0  0  0  0  0  0  0  0  0  0  0  0
  137.6129   69.8245  223.6239 H   0  0  0  0  0  0  0  0  0  0  0  0
  138.2295   67.9423  225.1589 H   0  0  0  0  0  0  0  0  0  0  0  0
  139.5548   68.3959  224.0770 H   0  0  0  0  0  0  0  0  0  0  0  0
  139.6203   67.0927  226.9242 H   0  0  0  0  0  0  0  0  0  0  0  0
  140.9864   67.6394  228.9148 H   0  0  0  0  0  0  0  0  0  0  0  0
  141.9173   69.9198  229.2606 H   0  0  0  0  0  0  0  0  0  0  0  0
  141.4386   71.6727  227.5465 H   0  0  0  0  0  0  0  0  0  0  0  0
  139.6720   72.3590  225.8814 H   0  0  0  0  0  0  0  0  0  0  0  0
  141.0043   71.7137  224.8383 H   0  0  0  0  0  0  0  0  0  0  0  0
  134.1992   73.5873  223.0624 H   0  0  0  0  0  0  0  0  0  0  0  0
  135.7977   72.7740  223.1571 H   0  0  0  0  0  0  0  0  0  0  0  0
  135.0143   73.5486  225.3785 H   0  0  0  0  0  0  0  0  0  0  0  0
  136.5270   74.3726  224.8737 H   0  0  0  0  0  0  0  0  0  0  0  0
  133.6856   75.4490  224.6590 H   0  0  0  0  0  0  0  0  0  0  0  0
  134.9947   76.0021  225.7816 H   0  0  0  0  0  0  0  0  0  0  0  0
  134.7413   77.5261  223.8577 H   0  0  0  0  0  0  0  0  0  0  0  0
  136.3424   76.7389  223.8665 H   0  0  0  0  0  0  0  0  0  0  0  0
  133.9059   75.7055  222.2977 H   0  0  0  0  0  0  0  0  0  0  0  0
  135.1873   76.6874  221.5732 H   0  0  0  0  0  0  0  0  0  0  0  0
  1  2  1  0
  2  3  1  0
  3  4  1  0
  4  5  1  0
  5  6  1  0
  6  7  2  0
  7  8  1  0
  8  9  1  0
  9 10  1  0
 10 11  1  0
 11 12  1  0
 12 13  2  0
 13 14  1  0
 14 15  2  0
 15 16  1  0
 16 17  2  0
 17 18  1  0
  8 19  2  0
 19 20  1  0
 20 21  1  0
 21 22  1  0
 22 23  1  0
 23 24  1  0
 24 25  2  0
 25 26  1  0
 26 27  2  0
 27 28  1  0
 28 29  2  0
 29 30  1  0
 20 31  2  0
  3 32  1  0
 32 33  1  0
 33 34  1  0
 34 35  1  0
 35 36  1  0
 36  3  1  0
 31  6  1  0
 18  9  1  0
 30 21  1  0
 17 12  1  0
 29 24  1  0
  1 37  1  0
  1 38  1  0
  1 39  1  0
  2 40  1  0
  4 41  1  0
  4 42  1  0
  5 43  1  0
 10 44  1  0
 10 45  1  0
 11 46  1  0
 11 47  1  0
 13 48  1  0
 14 49  1  0
 15 50  1  0
 16 51  1  0
 18 52  1  0
 18 53  1  0
 22 54  1  0
 22 55  1  0
 23 56  1  0
 23 57  1  0
 25 58  1  0
 26 59  1  0
 27 60  1  0
 28 61  1  0
 30 62  1  0
 30 63  1  0
 32 64  1  0
 32 65  1  0
 33 66  1  0
 33 67  1  0
 34 68  1  0
 34 69  1  0
 35 70  1  0
 35 71  1  0
 36 72  1  0
 36 73  1  0
M  END
>  <smiles>  (41) 
CNC1(CNc2nc(N3CCc4ccccc4C3)nc(N3CCc4ccccc4C3)n2)CCCCC1

>  <score_type>  (41) 
oracle

>  <origin>  (41) 
autodockgpu

>  <m_score__min__energy>  (41) 
-10.869999999999999

>  <m_primary>  (41) 
energy

>  <rmsd>  (41) 
7.627057406716428

>  <m_score__min__rmsd>  (41) 
7.627057406716428

>  <meeko>  (41) 
{"free_energy": -8.96, "intermolecular_energy": -10.75, "internal_energy": -2.28, "cluster_size": 2, "cluster_id": 5, "rank_in_cluster": 1}

>  <energy>  (41) 
-9.85

>  <cluster_rmsd>  (41) 
0.93

>  <cluster>  (41) 
2

$$$$

     RDKit          3D

 73 78  0  0  0  0  0  0  0  0999 V2000
  142.1300   69.2820  218.4360 C   0  0  0  0  0  0  0  0  0  0  0  0
  143.3920   69.8760  218.1320 N   0  0  0  0  0  0  0  0  0  0  0  0
  144.3030   70.0130  219.2210 C   0  0  0  0  0  0  0  0  0  0  0  0
  143.9610   71.1000  220.2050 C   0  0  0  0  0  0  0  0  0  0  0  0
  142.6970   71.7200  219.9300 N   0  0  0  0  0  0  0  0  0  0  0  0
  141.8280   72.2670  220.8970 C   0  0  0  0  0  0  0  0  0  0  0  0
  141.4530   73.5500  220.7540 N   0  0  0  0  0  0  0  0  0  0  0  0
  140.6170   74.1150  221.6540 C   0  0  0  0  0  0  0  0  0  0  0  0
  140.2470   75.4920  221.4740 N   0  0  0  0  0  0  0  0  0  0  0  0
  138.8410   75.7960  221.5620 C   0  0  0  0  0  0  0  0  0  0  0  0
  138.5560   77.2620  221.3700 C   0  0  0  0  0  0  0  0  0  0  0  0
  139.5500   78.1180  222.0640 C   0  0  0  0  0  0  0  0  0  0  0  0
  139.1570   79.2460  222.7510 C   0  0  0  0  0  0  0  0  0  0  0  0
  140.1110   80.0130  223.3840 C   0  0  0  0  0  0  0  0  0  0  0  0
  141.4610   79.6500  223.3280 C   0  0  0  0  0  0  0  0  0  0  0  0
  141.7990   78.5090  222.6240 C   0  0  0  0  0  0  0  0  0  0  0  0
  140.8740   77.7160  221.9790 C   0  0  0  0  0  0  0  0  0  0  0  0
  141.2760   76.4830  221.2220 C   0  0  0  0  0  0  0  0  0  0  0  0
  140.1520   73.4010  222.7000 N   0  0  0  0  0  0  0  0  0  0  0  0
  140.5220   72.0960  222.8640 C   0  0  0  0  0  0  0  0  0  0  0  0
  140.0570   71.3100  223.9520 N   0  0  0  0  0  0  0  0  0  0  0  0
  138.9640   70.3740  223.7670 C   0  0  0  0  0  0  0  0  0  0  0  0
  139.3530   68.9780  224.2090 C   0  0  0  0  0  0  0  0  0  0  0  0
  139.7860   69.1080  225.6310 C   0  0  0  0  0  0  0  0  0  0  0  0
  139.5610   68.0350  226.5020 C   0  0  0  0  0  0  0  0  0  0  0  0
  139.9570   68.1440  227.8270 C   0  0  0  0  0  0  0  0  0  0  0  0
  140.5710   69.2810  228.3240 C   0  0  0  0  0  0  0  0  0  0  0  0
  140.7830   70.3330  227.4400 C   0  0  0  0  0  0  0  0  0  0  0  0
  140.3960   70.2540  226.1050 C   0  0  0  0  0  0  0  0  0  0  0  0
  140.6730   71.4370  225.2570 C   0  0  0  0  0  0  0  0  0  0  0  0
  141.3580   71.5560  221.9520 N   0  0  0  0  0  0  0  0  0  0  0  0
  144.3760   68.7040  219.9750 C   0  0  0  0  0  0  0  0  0  0  0  0
  144.6620   67.5850  219.0090 C   0  0  0  0  0  0  0  0  0  0  0  0
  145.9530   67.8670  218.2910 C   0  0  0  0  0  0  0  0  0  0  0  0
  145.9220   69.2110  217.6100 C   0  0  0  0  0  0  0  0  0  0  0  0
  145.6970   70.2680  218.6770 C   0  0  0  0  0  0  0  0  0  0  0  0
  142.0057   69.2235  219.5274 H   0  0  0  0  0  0  0  0  0  0  0  0
  141.3235   69.8950  218.0074 H   0  0  0  0  0  0  0  0  0  0  0  0
  142.0884   68.2698  218.0074 H   0  0  0  0  0  0  0  0  0  0  0  0
  143.8250   69.4960  217.2580 H   0  0  0  0  0  0  0  0  0  0  0  0
  143.9261   70.6628  221.2138 H   0  0  0  0  0  0  0  0  0  0  0  0
  144.7359   71.8765  220.1239 H   0  0  0  0  0  0  0  0  0  0  0  0
  142.3940   71.7730  218.9320 H   0  0  0  0  0  0  0  0  0  0  0  0
  138.3078   75.2281  220.7853 H   0  0  0  0  0  0  0  0  0  0  0  0
  138.5010   75.5182  222.5706 H   0  0  0  0  0  0  0  0  0  0  0  0
  138.5804   77.4904  220.2943 H   0  0  0  0  0  0  0  0  0  0  0  0
  137.5661   77.4745  221.8000 H   0  0  0  0  0  0  0  0  0  0  0  0
  138.0953   79.5306  222.7936 H   0  0  0  0  0  0  0  0  0  0  0  0
  139.8095   80.9153  223.9362 H   0  0  0  0  0  0  0  0  0  0  0  0
  142.2310   80.2547  223.8294 H   0  0  0  0  0  0  0  0  0  0  0  0
  142.8591   78.2195  222.5762 H   0  0  0  0  0  0  0  0  0  0  0  0
  141.3382   76.7012  220.1456 H   0  0  0  0  0  0  0  0  0  0  0  0
  142.2638   76.1221  221.5447 H   0  0  0  0  0  0  0  0  0  0  0  0
  138.1005   70.7099  224.3600 H   0  0  0  0  0  0  0  0  0  0  0  0
  138.7125   70.3415  222.6966 H   0  0  0  0  0  0  0  0  0  0  0  0
  138.4921   68.2977  224.1314 H   0  0  0  0  0  0  0  0  0  0  0  0
  140.1526   68.5617  223.5786 H   0  0  0  0  0  0  0  0  0  0  0  0
  139.0760   67.1165  226.1399 H   0  0  0  0  0  0  0  0  0  0  0  0
  139.7769   67.2978  228.5063 H   0  0  0  0  0  0  0  0  0  0  0  0
  140.8792   69.3494  229.3777 H   0  0  0  0  0  0  0  0  0  0  0  0
  141.2685   71.2503  227.8044 H   0  0  0  0  0  0  0  0  0  0  0  0
  140.2757   72.3342  225.7541 H   0  0  0  0  0  0  0  0  0  0  0  0
  141.7615   71.5158  225.1190 H   0  0  0  0  0  0  0  0  0  0  0  0
  145.1798   68.7564  220.7241 H   0  0  0  0  0  0  0  0  0  0  0  0
  143.4167   68.5171  220.4798 H   0  0  0  0  0  0  0  0  0  0  0  0
  144.7473   66.6367  219.5598 H   0  0  0  0  0  0  0  0  0  0  0  0
  143.8427   67.5097  218.2788 H   0  0  0  0  0  0  0  0  0  0  0  0
  146.7775   67.8537  219.0190 H   0  0  0  0  0  0  0  0  0  0  0  0
  146.0977   67.0932  217.5227 H   0  0  0  0  0  0  0  0  0  0  0  0
  146.8787   69.3934  217.0987 H   0  0  0  0  0  0  0  0  0  0  0  0
  145.1165   69.2436  216.8615 H   0  0  0  0  0  0  0  0  0  0  0  0
  146.4449   70.1699  219.4776 H   0  0  0  0  0  0  0  0  0  0  0  0
  145.7933   71.2845  218.2679 H   0  0  0  0  0  0  0  0  0  0  0  0
  1  2  1  0
  2  3  1  0
  3  4  1  0
  4  5  1  0
  5  6  1  0
  6  7  2  0
  7  8  1  0
  8  9  1  0
  9 10  1  0
 10 11  1  0
 11 12  1  0
 12 13  2  0
 13 14  1  0
 14 15  2  0
 15 16  1  0
 16 17  2  0
 17 18  1  0
  8 19  2  0
 19 20  1  0
 20 21  1  0
 21 22  1  0
 22 23  1  0
 23 24  1  0
 24 25  2  0
 25 26  1  0
 26 27  2  0
 27 28  1  0
 28 29  2  0
 29 30  1  0
 20 31  2  0
  3 32  1  0
 32 33  1  0
 33 34  1  0
 34 35  1  0
 35 36  1  0
 36  3  1  0
 31  6  1  0
 18  9  1  0
 30 21  1  0
 17 12  1  0
 29 24  1  0
  1 37  1  0
  1 38  1  0
  1 39  1  0
  2 40  1  0
  4 41  1  0
  4 42  1  0
  5 43  1  0
 10 44  1  0
 10 45  1  0
 11 46  1  0
 11 47  1  0
 13 48  1  0
 14 49  1  0
 15 50  1  0
 16 51  1  0
 18 52  1  0
 18 53  1  0
 22 54  1  0
 22 55  1  0
 23 56  1  0
 23 57  1  0
 25 58  1  0
 26 59  1  0
 27 60  1  0
 28 61  1  0
 30 62  1  0
 30 63  1  0
 32 64  1  0
 32 65  1  0
 33 66  1  0
 33 67  1  0
 34 68  1  0
 34 69  1  0
 35 70  1  0
 35 71  1  0
 36 72  1  0
 36 73  1  0
M  END
>  <smiles>  (42) 
CNC1(CNc2nc(N3CCc4ccccc4C3)nc(N3CCc4ccccc4C3)n2)CCCCC1

>  <score_type>  (42) 
oracle

>  <origin>  (42) 
autodockgpu

>  <m_score__min__energy>  (42) 
-10.869999999999999

>  <m_primary>  (42) 
energy

>  <rmsd>  (42) 
4.896075440949994

>  <m_score__min__rmsd>  (42) 
4.896075440949994

>  <meeko>  (42) 
{"free_energy": -9.51, "intermolecular_energy": -11.3, "internal_energy": -1.44, "cluster_size": 29, "cluster_id": 1, "rank_in_cluster": 26}

>  <energy>  (42) 
-9.81

>  <cluster_rmsd>  (42) 
0.74

>  <cluster>  (42) 
2

$$$$

     RDKit          3D

 73 78  0  0  0  0  0  0  0  0999 V2000
  141.8220   77.7610  220.4190 C   0  0  0  0  0  0  0  0  0  0  0  0
  140.5700   78.2130  220.9330 N   0  0  0  0  0  0  0  0  0  0  0  0
  140.2160   77.7450  222.2330 C   0  0  0  0  0  0  0  0  0  0  0  0
  139.6880   76.3350  222.2800 C   0  0  0  0  0  0  0  0  0  0  0  0
  140.3330   75.4690  221.3350 N   0  0  0  0  0  0  0  0  0  0  0  0
  140.7270   74.1380  221.5840 C   0  0  0  0  0  0  0  0  0  0  0  0
  141.6260   73.5800  220.7550 N   0  0  0  0  0  0  0  0  0  0  0  0
  142.0370   72.3090  220.9590 C   0  0  0  0  0  0  0  0  0  0  0  0
  142.9910   71.7430  220.0450 N   0  0  0  0  0  0  0  0  0  0  0  0
  144.2370   72.4520  219.8980 C   0  0  0  0  0  0  0  0  0  0  0  0
  145.1720   71.7770  218.9280 C   0  0  0  0  0  0  0  0  0  0  0  0
  145.1660   70.3010  219.0840 C   0  0  0  0  0  0  0  0  0  0  0  0
  146.3370   69.5780  219.0320 C   0  0  0  0  0  0  0  0  0  0  0  0
  146.2890   68.2100  219.1840 C   0  0  0  0  0  0  0  0  0  0  0  0
  145.0650   67.5630  219.3870 C   0  0  0  0  0  0  0  0  0  0  0  0
  143.9200   68.3380  219.4310 C   0  0  0  0  0  0  0  0  0  0  0  0
  143.9280   69.7090  219.2840 C   0  0  0  0  0  0  0  0  0  0  0  0
  142.6660   70.5200  219.3360 C   0  0  0  0  0  0  0  0  0  0  0  0
  141.5530   71.5890  221.9920 N   0  0  0  0  0  0  0  0  0  0  0  0
  140.6370   72.1370  222.8460 C   0  0  0  0  0  0  0  0  0  0  0  0
  140.1010   71.4130  223.9440 N   0  0  0  0  0  0  0  0  0  0  0  0
  138.9340   70.5700  223.7680 C   0  0  0  0  0  0  0  0  0  0  0  0
  139.2010   69.1550  224.2370 C   0  0  0  0  0  0  0  0  0  0  0  0
  139.6350   69.2730  225.6600 C   0  0  0  0  0  0  0  0  0  0  0  0
  139.3150   68.2400  226.5480 C   0  0  0  0  0  0  0  0  0  0  0  0
  139.7110   68.3390  227.8750 C   0  0  0  0  0  0  0  0  0  0  0  0
  140.4160   69.4300  228.3560 C   0  0  0  0  0  0  0  0  0  0  0  0
  140.7210   70.4440  227.4550 C   0  0  0  0  0  0  0  0  0  0  0  0
  140.3370   70.3720  226.1180 C   0  0  0  0  0  0  0  0  0  0  0  0
  140.7180   71.5120  225.2510 C   0  0  0  0  0  0  0  0  0  0  0  0
  140.2440   73.4070  222.6200 N   0  0  0  0  0  0  0  0  0  0  0  0
  141.4260   77.8220  223.1350 C   0  0  0  0  0  0  0  0  0  0  0  0
  142.0130   79.2070  223.0680 C   0  0  0  0  0  0  0  0  0  0  0  0
  140.9680   80.2090  223.4770 C   0  0  0  0  0  0  0  0  0  0  0  0
  139.7220   80.0790  222.6410 C   0  0  0  0  0  0  0  0  0  0  0  0
  139.1770   78.6750  222.8330 C   0  0  0  0  0  0  0  0  0  0  0  0
  142.4951   77.5180  221.2544 H   0  0  0  0  0  0  0  0  0  0  0  0
  141.6631   76.8635  219.8032 H   0  0  0  0  0  0  0  0  0  0  0  0
  142.2730   78.5531  219.8032 H   0  0  0  0  0  0  0  0  0  0  0  0
  140.4130   79.2390  220.7910 H   0  0  0  0  0  0  0  0  0  0  0  0
  139.8479   75.9331  223.2914 H   0  0  0  0  0  0  0  0  0  0  0  0
  138.6197   76.3721  222.0205 H   0  0  0  0  0  0  0  0  0  0  0  0
  140.5260   75.8540  220.3840 H   0  0  0  0  0  0  0  0  0  0  0  0
  144.0243   73.4681  219.5344 H   0  0  0  0  0  0  0  0  0  0  0  0
  144.7301   72.4702  220.8811 H   0  0  0  0  0  0  0  0  0  0  0  0
  144.8609   72.0268  217.9029 H   0  0  0  0  0  0  0  0  0  0  0  0
  146.1913   72.1358  219.1337 H   0  0  0  0  0  0  0  0  0  0  0  0
  147.2988   70.0869  218.8710 H   0  0  0  0  0  0  0  0  0  0  0  0
  147.2182   67.6226  219.1456 H   0  0  0  0  0  0  0  0  0  0  0  0
  145.0148   66.4708  219.5080 H   0  0  0  0  0  0  0  0  0  0  0  0
  142.9548   67.8354  219.5913 H   0  0  0  0  0  0  0  0  0  0  0  0
  142.3209   70.7515  218.3175 H   0  0  0  0  0  0  0  0  0  0  0  0
  141.8598   69.9690  219.8424 H   0  0  0  0  0  0  0  0  0  0  0  0
  138.0989   70.9884  224.3490 H   0  0  0  0  0  0  0  0  0  0  0  0
  138.6863   70.5396  222.6967 H   0  0  0  0  0  0  0  0  0  0  0  0
  138.2862   68.5485  224.1646 H   0  0  0  0  0  0  0  0  0  0  0  0
  139.9665   68.6618  223.6200 H   0  0  0  0  0  0  0  0  0  0  0  0
  138.7560   67.3594  226.1986 H   0  0  0  0  0  0  0  0  0  0  0  0
  139.4563   67.5235  228.5678 H   0  0  0  0  0  0  0  0  0  0  0  0
  140.7228   69.4918  229.4105 H   0  0  0  0  0  0  0  0  0  0  0  0
  141.2790   71.3244  227.8065 H   0  0  0  0  0  0  0  0  0  0  0  0
  140.3949   72.4485  225.7290 H   0  0  0  0  0  0  0  0  0  0  0  0
  141.8100   71.4965  225.1198 H   0  0  0  0  0  0  0  0  0  0  0  0
  141.1268   77.6000  224.1700 H   0  0  0  0  0  0  0  0  0  0  0  0
  142.1768   77.0886  222.8057 H   0  0  0  0  0  0  0  0  0  0  0  0
  142.8739   79.2748  223.7493 H   0  0  0  0  0  0  0  0  0  0  0  0
  142.3444   79.4180  222.0405 H   0  0  0  0  0  0  0  0  0  0  0  0
  140.7087   80.0442  224.5332 H   0  0  0  0  0  0  0  0  0  0  0  0
  141.3801   81.2180  223.3280 H   0  0  0  0  0  0  0  0  0  0  0  0
  138.9748   80.8179  222.9661 H   0  0  0  0  0  0  0  0  0  0  0  0
  139.9510   80.2600  221.5804 H   0  0  0  0  0  0  0  0  0  0  0  0
  139.0416   78.4592  223.9031 H   0  0  0  0  0  0  0  0  0  0  0  0
  138.1956   78.5513  222.3519 H   0  0  0  0  0  0  0  0  0  0  0  0
  1  2  1  0
  2  3  1  0
  3  4  1  0
  4  5  1  0
  5  6  1  0
  6  7  2  0
  7  8  1  0
  8  9  1  0
  9 10  1  0
 10 11  1  0
 11 12  1  0
 12 13  2  0
 13 14  1  0
 14 15  2  0
 15 16  1  0
 16 17  2  0
 17 18  1  0
  8 19  2  0
 19 20  1  0
 20 21  1  0
 21 22  1  0
 22 23  1  0
 23 24  1  0
 24 25  2  0
 25 26  1  0
 26 27  2  0
 27 28  1  0
 28 29  2  0
 29 30  1  0
 20 31  2  0
  3 32  1  0
 32 33  1  0
 33 34  1  0
 34 35  1  0
 35 36  1  0
 36  3  1  0
 31  6  1  0
 18  9  1  0
 30 21  1  0
 17 12  1  0
 29 24  1  0
  1 37  1  0
  1 38  1  0
  1 39  1  0
  2 40  1  0
  4 41  1  0
  4 42  1  0
  5 43  1  0
 10 44  1  0
 10 45  1  0
 11 46  1  0
 11 47  1  0
 13 48  1  0
 14 49  1  0
 15 50  1  0
 16 51  1  0
 18 52  1  0
 18 53  1  0
 22 54  1  0
 22 55  1  0
 23 56  1  0
 23 57  1  0
 25 58  1  0
 26 59  1  0
 27 60  1  0
 28 61  1  0
 30 62  1  0
 30 63  1  0
 32 64  1  0
 32 65  1  0
 33 66  1  0
 33 67  1  0
 34 68  1  0
 34 69  1  0
 35 70  1  0
 35 71  1  0
 36 72  1  0
 36 73  1  0
M  END
>  <smiles>  (43) 
CNC1(CNc2nc(N3CCc4ccccc4C3)nc(N3CCc4ccccc4C3)n2)CCCCC1

>  <score_type>  (43) 
oracle

>  <origin>  (43) 
autodockgpu

>  <m_score__min__energy>  (43) 
-10.869999999999999

>  <m_primary>  (43) 
energy

>  <rmsd>  (43) 
10.59700234184855

>  <m_score__min__rmsd>  (43) 
10.59700234184855

>  <meeko>  (43) 
{"free_energy": -10.17, "intermolecular_energy": -11.96, "internal_energy": -1.22, "cluster_size": 16, "cluster_id": 2, "rank_in_cluster": 5}

>  <energy>  (43) 
-9.51

>  <cluster_rmsd>  (43) 
0.86

>  <cluster>  (43) 
2

$$$$

     RDKit          3D

 73 78  0  0  0  0  0  0  0  0999 V2000
  142.1690   77.6410  219.3650 C   0  0  0  0  0  0  0  0  0  0  0  0
  141.9510   77.5640  220.7740 N   0  0  0  0  0  0  0  0  0  0  0  0
  140.6780   78.0060  221.2400 C   0  0  0  0  0  0  0  0  0  0  0  0
  139.4990   77.2480  220.6870 C   0  0  0  0  0  0  0  0  0  0  0  0
  139.1300   76.1260  221.5020 N   0  0  0  0  0  0  0  0  0  0  0  0
  139.8960   74.9540  221.6710 C   0  0  0  0  0  0  0  0  0  0  0  0
  141.0680   74.8660  221.0190 N   0  0  0  0  0  0  0  0  0  0  0  0
  141.8380   73.7630  221.1560 C   0  0  0  0  0  0  0  0  0  0  0  0
  143.0790   73.7010  220.4330 N   0  0  0  0  0  0  0  0  0  0  0  0
  143.7930   72.4510  220.4890 C   0  0  0  0  0  0  0  0  0  0  0  0
  145.0720   72.4820  219.6950 C   0  0  0  0  0  0  0  0  0  0  0  0
  144.9070   73.1910  218.4020 C   0  0  0  0  0  0  0  0  0  0  0  0
  145.4800   72.7030  217.2480 C   0  0  0  0  0  0  0  0  0  0  0  0
  145.3020   73.3890  216.0670 C   0  0  0  0  0  0  0  0  0  0  0  0
  144.5490   74.5690  216.0420 C   0  0  0  0  0  0  0  0  0  0  0  0
  143.9970   75.0140  217.2290 C   0  0  0  0  0  0  0  0  0  0  0  0
  144.1530   74.3540  218.4300 C   0  0  0  0  0  0  0  0  0  0  0  0
  143.5410   74.8650  219.7010 C   0  0  0  0  0  0  0  0  0  0  0  0
  141.4410   72.7440  221.9460 N   0  0  0  0  0  0  0  0  0  0  0  0
  140.2530   72.8130  222.6170 C   0  0  0  0  0  0  0  0  0  0  0  0
  139.7980   71.7620  223.4570 N   0  0  0  0  0  0  0  0  0  0  0  0
  138.7220   70.8910  223.0250 C   0  0  0  0  0  0  0  0  0  0  0  0
  139.1330   69.4350  223.0880 C   0  0  0  0  0  0  0  0  0  0  0  0
  139.5590   69.1930  224.4980 C   0  0  0  0  0  0  0  0  0  0  0  0
  139.3500   67.9260  225.0550 C   0  0  0  0  0  0  0  0  0  0  0  0
  139.7410   67.6890  226.3650 C   0  0  0  0  0  0  0  0  0  0  0  0
  140.3330   68.6650  227.1480 C   0  0  0  0  0  0  0  0  0  0  0  0
  140.5300   69.9150  226.5720 C   0  0  0  0  0  0  0  0  0  0  0  0
  140.1490   70.1830  225.2600 C   0  0  0  0  0  0  0  0  0  0  0  0
  140.4080   71.5520  224.7540 C   0  0  0  0  0  0  0  0  0  0  0  0
  139.5040   73.9250  222.4630 N   0  0  0  0  0  0  0  0  0  0  0  0
  140.6380   77.9000  222.7480 C   0  0  0  0  0  0  0  0  0  0  0  0
  141.8350   78.6000  223.3310 C   0  0  0  0  0  0  0  0  0  0  0  0
  141.8320   80.0380  222.8900 C   0  0  0  0  0  0  0  0  0  0  0  0
  141.7820   80.1550  221.3890 C   0  0  0  0  0  0  0  0  0  0  0  0
  140.5090   79.4780  220.9120 C   0  0  0  0  0  0  0  0  0  0  0  0
  143.1900   78.0016  219.1711 H   0  0  0  0  0  0  0  0  0  0  0  0
  142.0416   76.6435  218.9192 H   0  0  0  0  0  0  0  0  0  0  0  0
  141.4434   78.3372  218.9192 H   0  0  0  0  0  0  0  0  0  0  0  0
  142.2670   76.6560  221.1900 H   0  0  0  0  0  0  0  0  0  0  0  0
  138.6403   77.9324  220.6209 H   0  0  0  0  0  0  0  0  0  0  0  0
  139.7873   76.8602  219.6988 H   0  0  0  0  0  0  0  0  0  0  0  0
  138.2210   76.1800  222.0130 H   0  0  0  0  0  0  0  0  0  0  0  0
  144.0348   72.2295  221.5390 H   0  0  0  0  0  0  0  0  0  0  0  0
  143.1462   71.6765  220.0511 H   0  0  0  0  0  0  0  0  0  0  0  0
  145.8443   72.9962  220.2859 H   0  0  0  0  0  0  0  0  0  0  0  0
  145.3624   71.4434  219.4782 H   0  0  0  0  0  0  0  0  0  0  0  0
  146.0726   71.7765  217.2696 H   0  0  0  0  0  0  0  0  0  0  0  0
  145.7536   73.0080  215.1392 H   0  0  0  0  0  0  0  0  0  0  0  0
  144.4008   75.1260  215.1051 H   0  0  0  0  0  0  0  0  0  0  0  0
  143.4040   75.9404  217.2148 H   0  0  0  0  0  0  0  0  0  0  0  0
  144.2913   75.4117  220.2910 H   0  0  0  0  0  0  0  0  0  0  0  0
  142.7128   75.5584  219.4929 H   0  0  0  0  0  0  0  0  0  0  0  0
  137.8512   71.0460  223.6789 H   0  0  0  0  0  0  0  0  0  0  0  0
  138.4743   71.1367  221.9818 H   0  0  0  0  0  0  0  0  0  0  0  0
  138.2840   68.7858  222.8276 H   0  0  0  0  0  0  0  0  0  0  0  0
  139.9419   69.2116  222.3768 H   0  0  0  0  0  0  0  0  0  0  0  0
  138.8813   67.1275  224.4611 H   0  0  0  0  0  0  0  0  0  0  0  0
  139.5748   66.6908  226.7963 H   0  0  0  0  0  0  0  0  0  0  0  0
  140.6357   68.4597  228.1854 H   0  0  0  0  0  0  0  0  0  0  0  0
  140.9986   70.7121  227.1678 H   0  0  0  0  0  0  0  0  0  0  0  0
  139.9938   72.2808  225.4662 H   0  0  0  0  0  0  0  0  0  0  0  0
  141.4953   71.6817  224.6495 H   0  0  0  0  0  0  0  0  0  0  0  0
  139.7181   78.3712  223.1246 H   0  0  0  0  0  0  0  0  0  0  0  0
  140.6535   76.8401  223.0419 H   0  0  0  0  0  0  0  0  0  0  0  0
  141.7903   78.5521  224.4290 H   0  0  0  0  0  0  0  0  0  0  0  0
  142.7556   78.1091  222.9824 H   0  0  0  0  0  0  0  0  0  0  0  0
  140.9520   80.5411  223.3172 H   0  0  0  0  0  0  0  0  0  0  0  0
  142.7616   80.5089  223.2421 H   0  0  0  0  0  0  0  0  0  0  0  0
  141.7739   81.2154  221.0965 H   0  0  0  0  0  0  0  0  0  0  0  0
  142.6636   79.6769  220.9371 H   0  0  0  0  0  0  0  0  0  0  0  0
  139.6353   79.8902  221.4381 H   0  0  0  0  0  0  0  0  0  0  0  0
  140.3433   79.6375  219.8363 H   0  0  0  0  0  0  0  0  0  0  0  0
  1  2  1  0
  2  3  1  0
  3  4  1  0
  4  5  1  0
  5  6  1  0
  6  7  2  0
  7  8  1  0
  8  9  1  0
  9 10  1  0
 10 11  1  0
 11 12  1  0
 12 13  2  0
 13 14  1  0
 14 15  2  0
 15 16  1  0
 16 17  2  0
 17 18  1  0
  8 19  2  0
 19 20  1  0
 20 21  1  0
 21 22  1  0
 22 23  1  0
 23 24  1  0
 24 25  2  0
 25 26  1  0
 26 27  2  0
 27 28  1  0
 28 29  2  0
 29 30  1  0
 20 31  2  0
  3 32  1  0
 32 33  1  0
 33 34  1  0
 34 35  1  0
 35 36  1  0
 36  3  1  0
 31  6  1  0
 18  9  1  0
 30 21  1  0
 17 12  1  0
 29 24  1  0
  1 37  1  0
  1 38  1  0
  1 39  1  0
  2 40  1  0
  4 41  1  0
  4 42  1  0
  5 43  1  0
 10 44  1  0
 10 45  1  0
 11 46  1  0
 11 47  1  0
 13 48  1  0
 14 49  1  0
 15 50  1  0
 16 51  1  0
 18 52  1  0
 18 53  1  0
 22 54  1  0
 22 55  1  0
 23 56  1  0
 23 57  1  0
 25 58  1  0
 26 59  1  0
 27 60  1  0
 28 61  1  0
 30 62  1  0
 30 63  1  0
 32 64  1  0
 32 65  1  0
 33 66  1  0
 33 67  1  0
 34 68  1  0
 34 69  1  0
 35 70  1  0
 35 71  1  0
 36 72  1  0
 36 73  1  0
M  END
>  <smiles>  (44) 
CNC1(CNc2nc(N3CCc4ccccc4C3)nc(N3CCc4ccccc4C3)n2)CCCCC1

>  <score_type>  (44) 
oracle

>  <origin>  (44) 
autodockgpu

>  <m_score__min__energy>  (44) 
-10.869999999999999

>  <m_primary>  (44) 
energy

>  <rmsd>  (44) 
6.880710686199032

>  <m_score__min__rmsd>  (44) 
6.880710686199032

>  <meeko>  (44) 
{"free_energy": -9.33, "intermolecular_energy": -11.12, "internal_energy": -2.18, "cluster_size": 16, "cluster_id": 2, "rank_in_cluster": 15}

>  <energy>  (44) 
-9.33

>  <cluster_rmsd>  (44) 
1.9

>  <cluster>  (44) 
2

$$$$

     RDKit          3D

 73 78  0  0  0  0  0  0  0  0999 V2000
  141.5030   78.2600  219.7790 C   0  0  0  0  0  0  0  0  0  0  0  0
  141.8780   78.3240  221.1540 N   0  0  0  0  0  0  0  0  0  0  0  0
  140.8860   77.9210  222.0970 C   0  0  0  0  0  0  0  0  0  0  0  0
  140.4320   76.4900  221.9710 C   0  0  0  0  0  0  0  0  0  0  0  0
  141.4080   75.6530  221.3330 N   0  0  0  0  0  0  0  0  0  0  0  0
  141.4510   74.2450  221.4110 C   0  0  0  0  0  0  0  0  0  0  0  0
  140.7010   73.6410  222.3490 N   0  0  0  0  0  0  0  0  0  0  0  0
  140.7070   72.2940  222.4570 C   0  0  0  0  0  0  0  0  0  0  0  0
  139.9010   71.6860  223.4810 N   0  0  0  0  0  0  0  0  0  0  0  0
  138.6820   71.0530  223.0450 C   0  0  0  0  0  0  0  0  0  0  0  0
  137.9140   70.4380  224.1860 C   0  0  0  0  0  0  0  0  0  0  0  0
  138.8070   69.7540  225.1530 C   0  0  0  0  0  0  0  0  0  0  0  0
  138.4630   68.5350  225.6970 C   0  0  0  0  0  0  0  0  0  0  0  0
  139.3200   67.9310  226.5890 C   0  0  0  0  0  0  0  0  0  0  0  0
  140.5260   68.5490  226.9400 C   0  0  0  0  0  0  0  0  0  0  0  0
  140.8220   69.7710  226.3650 C   0  0  0  0  0  0  0  0  0  0  0  0
  139.9900   70.4060  225.4680 C   0  0  0  0  0  0  0  0  0  0  0  0
  140.3410   71.7340  224.8620 C   0  0  0  0  0  0  0  0  0  0  0  0
  141.4610   71.5440  221.6280 N   0  0  0  0  0  0  0  0  0  0  0  0
  142.2310   72.1370  220.6680 C   0  0  0  0  0  0  0  0  0  0  0  0
  143.0400   71.3840  219.7760 N   0  0  0  0  0  0  0  0  0  0  0  0
  144.0310   72.0440  218.9480 C   0  0  0  0  0  0  0  0  0  0  0  0
  145.4040   71.4360  219.1420 C   0  0  0  0  0  0  0  0  0  0  0  0
  145.2530   69.9830  218.8360 C   0  0  0  0  0  0  0  0  0  0  0  0
  146.3360   69.2980  218.2720 C   0  0  0  0  0  0  0  0  0  0  0  0
  146.2060   67.9480  217.9820 C   0  0  0  0  0  0  0  0  0  0  0  0
  145.0380   67.2470  218.2310 C   0  0  0  0  0  0  0  0  0  0  0  0
  143.9770   67.9490  218.7910 C   0  0  0  0  0  0  0  0  0  0  0  0
  144.0770   69.3040  219.0930 C   0  0  0  0  0  0  0  0  0  0  0  0
  142.8800   69.9470  219.6870 C   0  0  0  0  0  0  0  0  0  0  0  0
  142.2070   73.4830  220.5810 N   0  0  0  0  0  0  0  0  0  0  0  0
  141.4220   78.1210  223.4970 C   0  0  0  0  0  0  0  0  0  0  0  0
  141.9360   79.5280  223.6400 C   0  0  0  0  0  0  0  0  0  0  0  0
  140.8240   80.4950  223.3440 C   0  0  0  0  0  0  0  0  0  0  0  0
  140.2230   80.2450  221.9850 C   0  0  0  0  0  0  0  0  0  0  0  0
  139.6770   78.8290  221.9710 C   0  0  0  0  0  0  0  0  0  0  0  0
  140.4213   78.0754  219.7022 H   0  0  0  0  0  0  0  0  0  0  0  0
  141.7482   79.2130  219.2873 H   0  0  0  0  0  0  0  0  0  0  0  0
  142.0504   77.4423  219.2873 H   0  0  0  0  0  0  0  0  0  0  0  0
  142.8300   77.9300  221.3410 H   0  0  0  0  0  0  0  0  0  0  0  0
  140.2331   76.0940  222.9778 H   0  0  0  0  0  0  0  0  0  0  0  0
  139.5277   76.4824  221.3447 H   0  0  0  0  0  0  0  0  0  0  0  0
  142.1450   76.1220  220.7630 H   0  0  0  0  0  0  0  0  0  0  0  0
  138.0469   71.8075  222.5578 H   0  0  0  0  0  0  0  0  0  0  0  0
  138.9538   70.2451  222.3498 H   0  0  0  0  0  0  0  0  0  0  0  0
  137.3630   71.2317  224.7117 H   0  0  0  0  0  0  0  0  0  0  0  0
  137.2279   69.6869  223.7676 H   0  0  0  0  0  0  0  0  0  0  0  0
  137.5146   68.0505  225.4215 H   0  0  0  0  0  0  0  0  0  0  0  0
  139.0558   66.9577  227.0282 H   0  0  0  0  0  0  0  0  0  0  0  0
  141.2180   68.0762  227.6525 H   0  0  0  0  0  0  0  0  0  0  0  0
  141.7686   70.2609  226.6369 H   0  0  0  0  0  0  0  0  0  0  0  0
  139.8245   72.5443  225.3974 H   0  0  0  0  0  0  0  0  0  0  0  0
  141.4217   71.9283  224.9285 H   0  0  0  0  0  0  0  0  0  0  0  0
  143.7403   71.9427  217.8919 H   0  0  0  0  0  0  0  0  0  0  0  0
  144.0765   73.1037  219.2395 H   0  0  0  0  0  0  0  0  0  0  0  0
  146.1282   71.8987  218.4554 H   0  0  0  0  0  0  0  0  0  0  0  0
  145.7773   71.5975  220.1640 H   0  0  0  0  0  0  0  0  0  0  0  0
  147.2787   69.8242  218.0614 H   0  0  0  0  0  0  0  0  0  0  0  0
  147.0604   67.4156  217.5387 H   0  0  0  0  0  0  0  0  0  0  0  0
  144.9531   66.1760  217.9948 H   0  0  0  0  0  0  0  0  0  0  0  0
  143.0352   67.4207  219.0006 H   0  0  0  0  0  0  0  0  0  0  0  0
  142.0049   69.7227  219.0593 H   0  0  0  0  0  0  0  0  0  0  0  0
  142.7435   69.5507  220.7040 H   0  0  0  0  0  0  0  0  0  0  0  0
  140.6167   77.9488  224.2262 H   0  0  0  0  0  0  0  0  0  0  0  0
  142.2412   77.4104  223.6814 H   0  0  0  0  0  0  0  0  0  0  0  0
  142.2960   79.6852  224.6675 H   0  0  0  0  0  0  0  0  0  0  0  0
  142.7643   79.6914  222.9348 H   0  0  0  0  0  0  0  0  0  0  0  0
  140.0402   80.3833  224.1077 H   0  0  0  0  0  0  0  0  0  0  0  0
  141.2395   81.5135  223.3560 H   0  0  0  0  0  0  0  0  0  0  0  0
  139.4094   80.9614  221.7984 H   0  0  0  0  0  0  0  0  0  0  0  0
  140.9834   80.3707  221.2002 H   0  0  0  0  0  0  0  0  0  0  0  0
  138.9913   78.6741  222.8170 H   0  0  0  0  0  0  0  0  0  0  0  0
  139.1083   78.6224  221.0523 H   0  0  0  0  0  0  0  0  0  0  0  0
  1  2  1  0
  2  3  1  0
  3  4  1  0
  4  5  1  0
  5  6  1  0
  6  7  2  0
  7  8  1  0
  8  9  1  0
  9 10  1  0
 10 11  1  0
 11 12  1  0
 12 13  2  0
 13 14  1  0
 14 15  2  0
 15 16  1  0
 16 17  2  0
 17 18  1  0
  8 19  2  0
 19 20  1  0
 20 21  1  0
 21 22  1  0
 22 23  1  0
 23 24  1  0
 24 25  2  0
 25 26  1  0
 26 27  2  0
 27 28  1  0
 28 29  2  0
 29 30  1  0
 20 31  2  0
  3 32  1  0
 32 33  1  0
 33 34  1  0
 34 35  1  0
 35 36  1  0
 36  3  1  0
 31  6  1  0
 18  9  1  0
 30 21  1  0
 17 12  1  0
 29 24  1  0
  1 37  1  0
  1 38  1  0
  1 39  1  0
  2 40  1  0
  4 41  1  0
  4 42  1  0
  5 43  1  0
 10 44  1  0
 10 45  1  0
 11 46  1  0
 11 47  1  0
 13 48  1  0
 14 49  1  0
 15 50  1  0
 16 51  1  0
 18 52  1  0
 18 53  1  0
 22 54  1  0
 22 55  1  0
 23 56  1  0
 23 57  1  0
 25 58  1  0
 26 59  1  0
 27 60  1  0
 28 61  1  0
 30 62  1  0
 30 63  1  0
 32 64  1  0
 32 65  1  0
 33 66  1  0
 33 67  1  0
 34 68  1  0
 34 69  1  0
 35 70  1  0
 35 71  1  0
 36 72  1  0
 36 73  1  0
M  END
>  <smiles>  (45) 
CNC1(CNc2nc(N3CCc4ccccc4C3)nc(N3CCc4ccccc4C3)n2)CCCCC1

>  <score_type>  (45) 
oracle

>  <origin>  (45) 
autodockgpu

>  <m_score__min__energy>  (45) 
-10.869999999999999

>  <m_primary>  (45) 
energy

>  <rmsd>  (45) 
10.954372368846535

>  <m_score__min__rmsd>  (45) 
10.954372368846535

>  <meeko>  (45) 
{"free_energy": -9.95, "intermolecular_energy": -11.74, "internal_energy": -1.61, "cluster_size": 16, "cluster_id": 2, "rank_in_cluster": 8}

>  <energy>  (45) 
-9.31

>  <cluster_rmsd>  (45) 
1.84

>  <cluster>  (45) 
2

$$$$

     RDKit          3D

 73 78  0  0  0  0  0  0  0  0999 V2000
  138.6360   77.9260  220.6430 C   0  0  0  0  0  0  0  0  0  0  0  0
  139.3940   78.0610  221.8440 N   0  0  0  0  0  0  0  0  0  0  0  0
  140.8040   77.8830  221.7250 C   0  0  0  0  0  0  0  0  0  0  0  0
  141.2310   76.5690  221.1240 C   0  0  0  0  0  0  0  0  0  0  0  0
  140.3400   75.4930  221.4540 N   0  0  0  0  0  0  0  0  0  0  0  0
  140.7230   74.1530  221.6680 C   0  0  0  0  0  0  0  0  0  0  0  0
  141.6150   73.6080  220.8220 N   0  0  0  0  0  0  0  0  0  0  0  0
  142.0160   72.3290  220.9920 C   0  0  0  0  0  0  0  0  0  0  0  0
  142.9620   71.7780  220.0600 N   0  0  0  0  0  0  0  0  0  0  0  0
  144.1940   72.5060  219.8920 C   0  0  0  0  0  0  0  0  0  0  0  0
  145.1220   71.8460  218.9050 C   0  0  0  0  0  0  0  0  0  0  0  0
  145.1400   70.3700  219.0590 C   0  0  0  0  0  0  0  0  0  0  0  0
  146.3200   69.6640  218.9850 C   0  0  0  0  0  0  0  0  0  0  0  0
  146.2950   68.2950  219.1360 C   0  0  0  0  0  0  0  0  0  0  0  0
  145.0840   67.6310  219.3600 C   0  0  0  0  0  0  0  0  0  0  0  0
  143.9300   68.3880  219.4250 C   0  0  0  0  0  0  0  0  0  0  0  0
  143.9140   69.7590  219.2800 C   0  0  0  0  0  0  0  0  0  0  0  0
  142.6420   70.5520  219.3550 C   0  0  0  0  0  0  0  0  0  0  0  0
  141.5290   71.5870  222.0090 N   0  0  0  0  0  0  0  0  0  0  0  0
  140.6210   72.1210  222.8790 C   0  0  0  0  0  0  0  0  0  0  0  0
  140.0830   71.3750  223.9610 N   0  0  0  0  0  0  0  0  0  0  0  0
  138.9230   70.5270  223.7620 C   0  0  0  0  0  0  0  0  0  0  0  0
  139.1970   69.1050  224.2090 C   0  0  0  0  0  0  0  0  0  0  0  0
  139.6200   69.2020  225.6360 C   0  0  0  0  0  0  0  0  0  0  0  0
  139.3020   68.1500  226.5040 C   0  0  0  0  0  0  0  0  0  0  0  0
  139.6890   68.2290  227.8340 C   0  0  0  0  0  0  0  0  0  0  0  0
  140.3830   69.3160  228.3390 C   0  0  0  0  0  0  0  0  0  0  0  0
  140.6870   70.3470  227.4580 C   0  0  0  0  0  0  0  0  0  0  0  0
  140.3120   70.2970  226.1180 C   0  0  0  0  0  0  0  0  0  0  0  0
  140.6910   71.4550  225.2740 C   0  0  0  0  0  0  0  0  0  0  0  0
  140.2380   73.4000  222.6870 N   0  0  0  0  0  0  0  0  0  0  0  0
  141.3740   78.9940  220.8740 C   0  0  0  0  0  0  0  0  0  0  0  0
  140.9200   80.3230  221.4150 C   0  0  0  0  0  0  0  0  0  0  0  0
  141.3650   80.4550  222.8450 C   0  0  0  0  0  0  0  0  0  0  0  0
  140.8750   79.3020  223.6840 C   0  0  0  0  0  0  0  0  0  0  0  0
  141.4430   78.0240  223.0940 C   0  0  0  0  0  0  0  0  0  0  0  0
  137.5816   77.7382  220.8940 H   0  0  0  0  0  0  0  0  0  0  0  0
  138.7135   78.8521  220.0545 H   0  0  0  0  0  0  0  0  0  0  0  0
  139.0284   77.0836  220.0545 H   0  0  0  0  0  0  0  0  0  0  0  0
  139.1160   78.8950  222.4150 H   0  0  0  0  0  0  0  0  0  0  0  0
  141.2629   76.6764  220.0297 H   0  0  0  0  0  0  0  0  0  0  0  0
  142.2195   76.3203  221.5374 H   0  0  0  0  0  0  0  0  0  0  0  0
  139.3250   75.7190  221.5450 H   0  0  0  0  0  0  0  0  0  0  0  0
  143.9595   73.5190  219.5332 H   0  0  0  0  0  0  0  0  0  0  0  0
  144.7040   72.5311  220.8663 H   0  0  0  0  0  0  0  0  0  0  0  0
  144.7898   72.0926  217.8858 H   0  0  0  0  0  0  0  0  0  0  0  0
  146.1394   72.2194  219.0935 H   0  0  0  0  0  0  0  0  0  0  0  0
  147.2713   70.1870  218.8074 H   0  0  0  0  0  0  0  0  0  0  0  0
  147.2317   67.7210  219.0802 H   0  0  0  0  0  0  0  0  0  0  0  0
  145.0516   66.5381  219.4808 H   0  0  0  0  0  0  0  0  0  0  0  0
  142.9755   67.8705  219.6014 H   0  0  0  0  0  0  0  0  0  0  0  0
  142.2761   70.7800  218.3430 H   0  0  0  0  0  0  0  0  0  0  0  0
  141.8524   69.9891  219.8743 H   0  0  0  0  0  0  0  0  0  0  0  0
  138.0808   70.9295  224.3440 H   0  0  0  0  0  0  0  0  0  0  0  0
  138.6831   70.5133  222.6886 H   0  0  0  0  0  0  0  0  0  0  0  0
  138.2871   68.4934  224.1199 H   0  0  0  0  0  0  0  0  0  0  0  0
  139.9702   68.6276  223.5891 H   0  0  0  0  0  0  0  0  0  0  0  0
  138.7519   67.2715  226.1357 H   0  0  0  0  0  0  0  0  0  0  0  0
  139.4359   67.3996  228.5108 H   0  0  0  0  0  0  0  0  0  0  0  0
  140.6820   69.3616  229.3966 H   0  0  0  0  0  0  0  0  0  0  0  0
  141.2375   71.2243  227.8285 H   0  0  0  0  0  0  0  0  0  0  0  0
  140.3583   72.3807  225.7665 H   0  0  0  0  0  0  0  0  0  0  0  0
  141.7840   71.4494  225.1499 H   0  0  0  0  0  0  0  0  0  0  0  0
  142.4727   78.9454  220.8952 H   0  0  0  0  0  0  0  0  0  0  0  0
  141.0221   78.8800  219.8381 H   0  0  0  0  0  0  0  0  0  0  0  0
  141.3612   81.1336  220.8164 H   0  0  0  0  0  0  0  0  0  0  0  0
  139.8231   80.3871  221.3628 H   0  0  0  0  0  0  0  0  0  0  0  0
  142.4643   80.4785  222.8767 H   0  0  0  0  0  0  0  0  0  0  0  0
  140.9419   81.3843  223.2541 H   0  0  0  0  0  0  0  0  0  0  0  0
  141.2205   79.4209  224.7215 H   0  0  0  0  0  0  0  0  0  0  0  0
  139.7755   79.2685  223.6861 H   0  0  0  0  0  0  0  0  0  0  0  0
  142.5366   78.0977  223.0008 H   0  0  0  0  0  0  0  0  0  0  0  0
  141.2309   77.1535  223.7321 H   0  0  0  0  0  0  0  0  0  0  0  0
  1  2  1  0
  2  3  1  0
  3  4  1  0
  4  5  1  0
  5  6  1  0
  6  7  2  0
  7  8  1  0
  8  9  1  0
  9 10  1  0
 10 11  1  0
 11 12  1  0
 12 13  2  0
 13 14  1  0
 14 15  2  0
 15 16  1  0
 16 17  2  0
 17 18  1  0
  8 19  2  0
 19 20  1  0
 20 21  1  0
 21 22  1  0
 22 23  1  0
 23 24  1  0
 24 25  2  0
 25 26  1  0
 26 27  2  0
 27 28  1  0
 28 29  2  0
 29 30  1  0
 20 31  2  0
  3 32  1  0
 32 33  1  0
 33 34  1  0
 34 35  1  0
 35 36  1  0
 36  3  1  0
 31  6  1  0
 18  9  1  0
 30 21  1  0
 17 12  1  0
 29 24  1  0
  1 37  1  0
  1 38  1  0
  1 39  1  0
  2 40  1  0
  4 41  1  0
  4 42  1  0
  5 43  1  0
 10 44  1  0
 10 45  1  0
 11 46  1  0
 11 47  1  0
 13 48  1  0
 14 49  1  0
 15 50  1  0
 16 51  1  0
 18 52  1  0
 18 53  1  0
 22 54  1  0
 22 55  1  0
 23 56  1  0
 23 57  1  0
 25 58  1  0
 26 59  1  0
 27 60  1  0
 28 61  1  0
 30 62  1  0
 30 63  1  0
 32 64  1  0
 32 65  1  0
 33 66  1  0
 33 67  1  0
 34 68  1  0
 34 69  1  0
 35 70  1  0
 35 71  1  0
 36 72  1  0
 36 73  1  0
M  END
>  <smiles>  (46) 
CNC1(CNc2nc(N3CCc4ccccc4C3)nc(N3CCc4ccccc4C3)n2)CCCCC1

>  <score_type>  (46) 
oracle

>  <origin>  (46) 
autodockgpu

>  <m_score__min__energy>  (46) 
-10.869999999999999

>  <m_primary>  (46) 
energy

>  <rmsd>  (46) 
10.541826675796548

>  <m_score__min__rmsd>  (46) 
10.541826675796548

>  <meeko>  (46) 
{"free_energy": -9.91, "intermolecular_energy": -11.7, "internal_energy": -1.48, "cluster_size": 16, "cluster_id": 2, "rank_in_cluster": 9}

>  <energy>  (46) 
-9.52

>  <cluster_rmsd>  (46) 
0.0

>  <cluster>  (46) 
3

$$$$

     RDKit          3D

 73 78  0  0  0  0  0  0  0  0999 V2000
  143.7830   69.6120  219.2450 C   0  0  0  0  0  0  0  0  0  0  0  0
  144.2500   70.7650  218.5460 N   0  0  0  0  0  0  0  0  0  0  0  0
  143.4740   71.9520  218.6960 C   0  0  0  0  0  0  0  0  0  0  0  0
  142.0160   71.8080  218.3450 C   0  0  0  0  0  0  0  0  0  0  0  0
  141.2460   71.2220  219.4050 N   0  0  0  0  0  0  0  0  0  0  0  0
  140.7760   71.9050  220.5460 C   0  0  0  0  0  0  0  0  0  0  0  0
  140.5820   73.2310  220.4530 N   0  0  0  0  0  0  0  0  0  0  0  0
  140.1270   73.9260  221.5190 C   0  0  0  0  0  0  0  0  0  0  0  0
  139.9430   75.3450  221.3840 N   0  0  0  0  0  0  0  0  0  0  0  0
  138.5910   75.8000  221.1750 C   0  0  0  0  0  0  0  0  0  0  0  0
  138.5010   77.2990  221.0550 C   0  0  0  0  0  0  0  0  0  0  0  0
  139.3790   77.9890  222.0320 C   0  0  0  0  0  0  0  0  0  0  0  0
  138.9440   79.1070  222.7100 C   0  0  0  0  0  0  0  0  0  0  0  0
  139.7890   79.7180  223.6100 C   0  0  0  0  0  0  0  0  0  0  0  0
  141.0740   79.2090  223.8310 C   0  0  0  0  0  0  0  0  0  0  0  0
  141.4590   78.0850  223.1240 C   0  0  0  0  0  0  0  0  0  0  0  0
  140.6420   77.4460  222.2160 C   0  0  0  0  0  0  0  0  0  0  0  0
  141.0910   76.2280  221.4640 C   0  0  0  0  0  0  0  0  0  0  0  0
  139.8620   73.2980  222.6840 N   0  0  0  0  0  0  0  0  0  0  0  0
  140.0540   71.9500  222.8000 C   0  0  0  0  0  0  0  0  0  0  0  0
  139.7890   71.2520  224.0080 N   0  0  0  0  0  0  0  0  0  0  0  0
  138.7090   70.2870  224.0770 C   0  0  0  0  0  0  0  0  0  0  0  0
  139.2030   68.9400  224.5620 C   0  0  0  0  0  0  0  0  0  0  0  0
  139.8510   69.1960  225.8820 C   0  0  0  0  0  0  0  0  0  0  0  0
  139.7980   68.1970  226.8610 C   0  0  0  0  0  0  0  0  0  0  0  0
  140.3950   68.4240  228.0930 C   0  0  0  0  0  0  0  0  0  0  0  0
  141.0460   69.6090  228.3920 C   0  0  0  0  0  0  0  0  0  0  0  0
  141.0850   70.5850  227.4030 C   0  0  0  0  0  0  0  0  0  0  0  0
  140.4950   70.3870  226.1580 C   0  0  0  0  0  0  0  0  0  0  0  0
  140.6000   71.4990  225.1830 C   0  0  0  0  0  0  0  0  0  0  0  0
  140.5090   71.2810  221.7210 N   0  0  0  0  0  0  0  0  0  0  0  0
  143.5670   72.4280  220.1280 C   0  0  0  0  0  0  0  0  0  0  0  0
  145.0140   72.5290  220.5290 C   0  0  0  0  0  0  0  0  0  0  0  0
  145.7220   73.4740  219.5990 C   0  0  0  0  0  0  0  0  0  0  0  0
  145.5590   73.0580  218.1600 C   0  0  0  0  0  0  0  0  0  0  0  0
  144.0750   73.0540  217.8420 C   0  0  0  0  0  0  0  0  0  0  0  0
  143.8537   69.7866  220.3287 H   0  0  0  0  0  0  0  0  0  0  0  0
  142.7352   69.4174  218.9725 H   0  0  0  0  0  0  0  0  0  0  0  0
  144.4001   68.7431  218.9725 H   0  0  0  0  0  0  0  0  0  0  0  0
  145.2820   70.9150  218.6430 H   0  0  0  0  0  0  0  0  0  0  0  0
  141.6075   72.8049  218.1229 H   0  0  0  0  0  0  0  0  0  0  0  0
  141.9484   71.1375  217.4756 H   0  0  0  0  0  0  0  0  0  0  0  0
  141.0130   70.2070  219.3260 H   0  0  0  0  0  0  0  0  0  0  0  0
  138.2053   75.3478  220.2494 H   0  0  0  0  0  0  0  0  0  0  0  0
  137.9966   75.4975  222.0498 H   0  0  0  0  0  0  0  0  0  0  0  0
  138.8016   77.5925  220.0384 H   0  0  0  0  0  0  0  0  0  0  0  0
  137.4623   77.5946  221.2640 H   0  0  0  0  0  0  0  0  0  0  0  0
  137.9343   79.5067  222.5347 H   0  0  0  0  0  0  0  0  0  0  0  0
  139.4522   80.6105  224.1578 H   0  0  0  0  0  0  0  0  0  0  0  0
  141.7577   79.6893  224.5464 H   0  0  0  0  0  0  0  0  0  0  0  0
  142.4676   77.6804  223.2945 H   0  0  0  0  0  0  0  0  0  0  0  0
  141.4263   76.5073  220.4543 H   0  0  0  0  0  0  0  0  0  0  0  0
  141.9350   75.7372  221.9707 H   0  0  0  0  0  0  0  0  0  0  0  0
  137.9411   70.6581  224.7717 H   0  0  0  0  0  0  0  0  0  0  0  0
  138.2924   70.1602  223.0669 H   0  0  0  0  0  0  0  0  0  0  0  0
  138.3607   68.2420  224.6777 H   0  0  0  0  0  0  0  0  0  0  0  0
  139.9050   68.4850  223.8477 H   0  0  0  0  0  0  0  0  0  0  0  0
  139.2893   67.2434  226.6562 H   0  0  0  0  0  0  0  0  0  0  0  0
  140.3495   67.6354  228.8585 H   0  0  0  0  0  0  0  0  0  0  0  0
  141.5141   69.7717  229.3740 H   0  0  0  0  0  0  0  0  0  0  0  0
  141.5949   71.5376  227.6094 H   0  0  0  0  0  0  0  0  0  0  0  0
  140.2604   72.4287  225.6629 H   0  0  0  0  0  0  0  0  0  0  0  0
  141.6502   71.5832  224.8666 H   0  0  0  0  0  0  0  0  0  0  0  0
  143.0916   73.4159  220.2178 H   0  0  0  0  0  0  0  0  0  0  0  0
  143.0526   71.7128  220.7867 H   0  0  0  0  0  0  0  0  0  0  0  0
  145.0842   72.9063  221.5599 H   0  0  0  0  0  0  0  0  0  0  0  0
  145.4826   71.5354  220.4720 H   0  0  0  0  0  0  0  0  0  0  0  0
  145.3043   74.4833  219.7288 H   0  0  0  0  0  0  0  0  0  0  0  0
  146.7945   73.4598  219.8431 H   0  0  0  0  0  0  0  0  0  0  0  0
  146.0802   73.7703  217.5035 H   0  0  0  0  0  0  0  0  0  0  0  0
  145.9886   72.0583  217.9986 H   0  0  0  0  0  0  0  0  0  0  0  0
  143.6256   74.0250  218.0972 H   0  0  0  0  0  0  0  0  0  0  0  0
  143.8901   72.8838  216.7711 H   0  0  0  0  0  0  0  0  0  0  0  0
  1  2  1  0
  2  3  1  0
  3  4  1  0
  4  5  1  0
  5  6  1  0
  6  7  2  0
  7  8  1  0
  8  9  1  0
  9 10  1  0
 10 11  1  0
 11 12  1  0
 12 13  2  0
 13 14  1  0
 14 15  2  0
 15 16  1  0
 16 17  2  0
 17 18  1  0
  8 19  2  0
 19 20  1  0
 20 21  1  0
 21 22  1  0
 22 23  1  0
 23 24  1  0
 24 25  2  0
 25 26  1  0
 26 27  2  0
 27 28  1  0
 28 29  2  0
 29 30  1  0
 20 31  2  0
  3 32  1  0
 32 33  1  0
 33 34  1  0
 34 35  1  0
 35 36  1  0
 36  3  1  0
 31  6  1  0
 18  9  1  0
 30 21  1  0
 17 12  1  0
 29 24  1  0
  1 37  1  0
  1 38  1  0
  1 39  1  0
  2 40  1  0
  4 41  1  0
  4 42  1  0
  5 43  1  0
 10 44  1  0
 10 45  1  0
 11 46  1  0
 11 47  1  0
 13 48  1  0
 14 49  1  0
 15 50  1  0
 16 51  1  0
 18 52  1  0
 18 53  1  0
 22 54  1  0
 22 55  1  0
 23 56  1  0
 23 57  1  0
 25 58  1  0
 26 59  1  0
 27 60  1  0
 28 61  1  0
 30 62  1  0
 30 63  1  0
 32 64  1  0
 32 65  1  0
 33 66  1  0
 33 67  1  0
 34 68  1  0
 34 69  1  0
 35 70  1  0
 35 71  1  0
 36 72  1  0
 36 73  1  0
M  END
>  <smiles>  (47) 
CNC1(CNc2nc(N3CCc4ccccc4C3)nc(N3CCc4ccccc4C3)n2)CCCCC1

>  <score_type>  (47) 
oracle

>  <origin>  (47) 
autodockgpu

>  <m_score__min__energy>  (47) 
-10.869999999999999

>  <m_primary>  (47) 
energy

>  <rmsd>  (47) 
5.03115430765028

>  <m_score__min__rmsd>  (47) 
5.03115430765028

>  <meeko>  (47) 
{"free_energy": -9.21, "intermolecular_energy": -11.0, "internal_energy": -1.15, "cluster_size": 29, "cluster_id": 1, "rank_in_cluster": 27}

>  <energy>  (47) 
-9.42

>  <cluster_rmsd>  (47) 
0.0

>  <cluster>  (47) 
4

$$$$

     RDKit          3D

 73 78  0  0  0  0  0  0  0  0999 V2000
  142.6040   75.9860  219.1290 C   0  0  0  0  0  0  0  0  0  0  0  0
  142.1100   76.6150  220.3110 N   0  0  0  0  0  0  0  0  0  0  0  0
  140.8150   77.2050  220.2170 C   0  0  0  0  0  0  0  0  0  0  0  0
  139.6680   76.2300  220.2360 C   0  0  0  0  0  0  0  0  0  0  0  0
  139.5820   75.4980  221.4670 N   0  0  0  0  0  0  0  0  0  0  0  0
  140.1970   74.2530  221.7210 C   0  0  0  0  0  0  0  0  0  0  0  0
  141.2210   73.8830  220.9330 N   0  0  0  0  0  0  0  0  0  0  0  0
  141.8430   72.7010  221.1420 C   0  0  0  0  0  0  0  0  0  0  0  0
  142.9270   72.3350  220.2720 N   0  0  0  0  0  0  0  0  0  0  0  0
  144.1870   72.9930  220.5040 C   0  0  0  0  0  0  0  0  0  0  0  0
  145.2600   72.5350  219.5500 C   0  0  0  0  0  0  0  0  0  0  0  0
  145.2120   71.0700  219.3210 C   0  0  0  0  0  0  0  0  0  0  0  0
  146.3690   70.3240  219.2660 C   0  0  0  0  0  0  0  0  0  0  0  0
  146.2820   68.9650  219.0530 C   0  0  0  0  0  0  0  0  0  0  0  0
  145.0350   68.3530  218.8940 C   0  0  0  0  0  0  0  0  0  0  0  0
  143.9060   69.1490  218.9570 C   0  0  0  0  0  0  0  0  0  0  0  0
  143.9520   70.5110  219.1690 C   0  0  0  0  0  0  0  0  0  0  0  0
  142.7070   71.3470  219.2320 C   0  0  0  0  0  0  0  0  0  0  0  0
  141.4460   71.8860  222.1410 N   0  0  0  0  0  0  0  0  0  0  0  0
  140.4070   72.2430  222.9530 C   0  0  0  0  0  0  0  0  0  0  0  0
  139.9570   71.4120  224.0130 N   0  0  0  0  0  0  0  0  0  0  0  0
  138.8770   70.4680  223.7990 C   0  0  0  0  0  0  0  0  0  0  0  0
  139.2880   69.0630  224.1900 C   0  0  0  0  0  0  0  0  0  0  0  0
  139.7230   69.1480  225.6140 C   0  0  0  0  0  0  0  0  0  0  0  0
  139.5180   68.0430  226.4470 C   0  0  0  0  0  0  0  0  0  0  0  0
  139.9170   68.1100  227.7740 C   0  0  0  0  0  0  0  0  0  0  0  0
  140.5160   69.2380  228.3100 C   0  0  0  0  0  0  0  0  0  0  0  0
  140.7090   70.3230  227.4630 C   0  0  0  0  0  0  0  0  0  0  0  0
  140.3190   70.2860  226.1270 C   0  0  0  0  0  0  0  0  0  0  0  0
  140.5760   71.5020  225.3200 C   0  0  0  0  0  0  0  0  0  0  0  0
  139.8030   73.4270  222.7220 N   0  0  0  0  0  0  0  0  0  0  0  0
  140.6260   78.1730  221.3640 C   0  0  0  0  0  0  0  0  0  0  0  0
  141.7870   79.1290  221.4080 C   0  0  0  0  0  0  0  0  0  0  0  0
  141.8800   79.8580  220.0950 C   0  0  0  0  0  0  0  0  0  0  0  0
  141.9780   78.8990  218.9380 C   0  0  0  0  0  0  0  0  0  0  0  0
  140.7330   78.0310  218.9460 C   0  0  0  0  0  0  0  0  0  0  0  0
  143.2615   75.1489  219.4065 H   0  0  0  0  0  0  0  0  0  0  0  0
  141.7593   75.6074  218.5347 H   0  0  0  0  0  0  0  0  0  0  0  0
  143.1720   76.7169  218.5347 H   0  0  0  0  0  0  0  0  0  0  0  0
  142.2560   76.0410  221.1750 H   0  0  0  0  0  0  0  0  0  0  0  0
  138.7305   76.7871  220.0919 H   0  0  0  0  0  0  0  0  0  0  0  0
  139.8379   75.5024  219.4287 H   0  0  0  0  0  0  0  0  0  0  0  0
  139.0220   75.9190  222.2400 H   0  0  0  0  0  0  0  0  0  0  0  0
  144.0465   74.0773  220.3831 H   0  0  0  0  0  0  0  0  0  0  0  0
  144.5145   72.7394  221.5230 H   0  0  0  0  0  0  0  0  0  0  0  0
  145.1226   73.0495  218.5875 H   0  0  0  0  0  0  0  0  0  0  0  0
  146.2363   72.7774  219.9951 H   0  0  0  0  0  0  0  0  0  0  0  0
  147.3496   70.8067  219.3905 H   0  0  0  0  0  0  0  0  0  0  0  0
  147.1987   68.3586  219.0078 H   0  0  0  0  0  0  0  0  0  0  0  0
  144.9543   67.2693  218.7237 H   0  0  0  0  0  0  0  0  0  0  0  0
  142.9226   68.6723  218.8318 H   0  0  0  0  0  0  0  0  0  0  0  0
  142.5336   71.8440  218.2661 H   0  0  0  0  0  0  0  0  0  0  0  0
  141.8234   70.7293  219.4503 H   0  0  0  0  0  0  0  0  0  0  0  0
  138.0113   70.7702  224.4066 H   0  0  0  0  0  0  0  0  0  0  0  0
  138.6213   70.4698  222.7291 H   0  0  0  0  0  0  0  0  0  0  0  0
  138.4370   68.3732  224.0900 H   0  0  0  0  0  0  0  0  0  0  0  0
  140.0920   68.6817  223.5433 H   0  0  0  0  0  0  0  0  0  0  0  0
  139.0455   67.1307  226.0540 H   0  0  0  0  0  0  0  0  0  0  0  0
  139.7520   67.2372  228.4229 H   0  0  0  0  0  0  0  0  0  0  0  0
  140.8268   69.2737  229.3646 H   0  0  0  0  0  0  0  0  0  0  0  0
  141.1819   71.2341  227.8583 H   0  0  0  0  0  0  0  0  0  0  0  0
  140.1677   72.3754  225.8496 H   0  0  0  0  0  0  0  0  0  0  0  0
  141.6627   71.6012  225.1814 H   0  0  0  0  0  0  0  0  0  0  0  0
  139.6923   78.7361  221.2188 H   0  0  0  0  0  0  0  0  0  0  0  0
  140.5735   77.6151  222.3106 H   0  0  0  0  0  0  0  0  0  0  0  0
  141.6354   79.8542  222.2211 H   0  0  0  0  0  0  0  0  0  0  0  0
  142.7178   78.5708  221.5866 H   0  0  0  0  0  0  0  0  0  0  0  0
  140.9827   80.4814  219.9678 H   0  0  0  0  0  0  0  0  0  0  0  0
  142.7885   80.4781  220.1077 H   0  0  0  0  0  0  0  0  0  0  0  0
  142.0377   79.4584  217.9927 H   0  0  0  0  0  0  0  0  0  0  0  0
  142.8801   78.2765  219.0311 H   0  0  0  0  0  0  0  0  0  0  0  0
  139.8289   78.6575  218.9536 H   0  0  0  0  0  0  0  0  0  0  0  0
  140.6771   77.3938  218.0511 H   0  0  0  0  0  0  0  0  0  0  0  0
  1  2  1  0
  2  3  1  0
  3  4  1  0
  4  5  1  0
  5  6  1  0
  6  7  2  0
  7  8  1  0
  8  9  1  0
  9 10  1  0
 10 11  1  0
 11 12  1  0
 12 13  2  0
 13 14  1  0
 14 15  2  0
 15 16  1  0
 16 17  2  0
 17 18  1  0
  8 19  2  0
 19 20  1  0
 20 21  1  0
 21 22  1  0
 22 23  1  0
 23 24  1  0
 24 25  2  0
 25 26  1  0
 26 27  2  0
 27 28  1  0
 28 29  2  0
 29 30  1  0
 20 31  2  0
  3 32  1  0
 32 33  1  0
 33 34  1  0
 34 35  1  0
 35 36  1  0
 36  3  1  0
 31  6  1  0
 18  9  1  0
 30 21  1  0
 17 12  1  0
 29 24  1  0
  1 37  1  0
  1 38  1  0
  1 39  1  0
  2 40  1  0
  4 41  1  0
  4 42  1  0
  5 43  1  0
 10 44  1  0
 10 45  1  0
 11 46  1  0
 11 47  1  0
 13 48  1  0
 14 49  1  0
 15 50  1  0
 16 51  1  0
 18 52  1  0
 18 53  1  0
 22 54  1  0
 22 55  1  0
 23 56  1  0
 23 57  1  0
 25 58  1  0
 26 59  1  0
 27 60  1  0
 28 61  1  0
 30 62  1  0
 30 63  1  0
 32 64  1  0
 32 65  1  0
 33 66  1  0
 33 67  1  0
 34 68  1  0
 34 69  1  0
 35 70  1  0
 35 71  1  0
 36 72  1  0
 36 73  1  0
M  END
>  <smiles>  (48) 
CNC1(CNc2nc(N3CCc4ccccc4C3)nc(N3CCc4ccccc4C3)n2)CCCCC1

>  <score_type>  (48) 
oracle

>  <origin>  (48) 
autodockgpu

>  <m_score__min__energy>  (48) 
-10.869999999999999

>  <m_primary>  (48) 
energy

>  <rmsd>  (48) 
9.982404303516342

>  <m_score__min__rmsd>  (48) 
9.982404303516342

>  <meeko>  (48) 
{"free_energy": -9.51, "intermolecular_energy": -11.3, "internal_energy": -1.69, "cluster_size": 16, "cluster_id": 2, "rank_in_cluster": 14}

>  <energy>  (48) 
-9.4

>  <cluster_rmsd>  (48) 
1.18

>  <cluster>  (48) 
4

$$$$

     RDKit          3D

 73 78  0  0  0  0  0  0  0  0999 V2000
  142.2710   76.3770  219.5780 C   0  0  0  0  0  0  0  0  0  0  0  0
  142.3120   77.5040  220.4520 N   0  0  0  0  0  0  0  0  0  0  0  0
  141.1260   77.7650  221.2000 C   0  0  0  0  0  0  0  0  0  0  0  0
  140.7060   76.6610  222.1340 C   0  0  0  0  0  0  0  0  0  0  0  0
  140.2150   75.5050  221.4390 N   0  0  0  0  0  0  0  0  0  0  0  0
  140.6410   74.1780  221.6600 C   0  0  0  0  0  0  0  0  0  0  0  0
  141.5530   73.6600  220.8200 N   0  0  0  0  0  0  0  0  0  0  0  0
  141.9950   72.3950  220.9970 C   0  0  0  0  0  0  0  0  0  0  0  0
  142.9620   71.8720  220.0710 N   0  0  0  0  0  0  0  0  0  0  0  0
  144.2030   72.5970  219.9610 C   0  0  0  0  0  0  0  0  0  0  0  0
  145.1520   71.9670  218.9760 C   0  0  0  0  0  0  0  0  0  0  0  0
  145.1580   70.4870  219.0770 C   0  0  0  0  0  0  0  0  0  0  0  0
  146.3370   69.7770  219.0090 C   0  0  0  0  0  0  0  0  0  0  0  0
  146.3000   68.4030  219.1090 C   0  0  0  0  0  0  0  0  0  0  0  0
  145.0800   67.7390  219.2770 C   0  0  0  0  0  0  0  0  0  0  0  0
  143.9280   68.5010  219.3390 C   0  0  0  0  0  0  0  0  0  0  0  0
  143.9240   69.8760  219.2430 C   0  0  0  0  0  0  0  0  0  0  0  0
  142.6550   70.6740  219.3140 C   0  0  0  0  0  0  0  0  0  0  0  0
  141.5280   71.6420  222.0140 N   0  0  0  0  0  0  0  0  0  0  0  0
  140.6000   72.1490  222.8790 C   0  0  0  0  0  0  0  0  0  0  0  0
  140.0820   71.3890  223.9610 N   0  0  0  0  0  0  0  0  0  0  0  0
  138.9430   70.5130  223.7640 C   0  0  0  0  0  0  0  0  0  0  0  0
  139.2530   69.0990  224.2100 C   0  0  0  0  0  0  0  0  0  0  0  0
  139.6750   69.2060  225.6370 C   0  0  0  0  0  0  0  0  0  0  0  0
  139.3850   68.1470  226.5050 C   0  0  0  0  0  0  0  0  0  0  0  0
  139.7710   68.2350  227.8350 C   0  0  0  0  0  0  0  0  0  0  0  0
  140.4380   69.3390  228.3390 C   0  0  0  0  0  0  0  0  0  0  0  0
  140.7150   70.3770  227.4580 C   0  0  0  0  0  0  0  0  0  0  0  0
  140.3400   70.3180  226.1180 C   0  0  0  0  0  0  0  0  0  0  0  0
  140.6890   71.4850  225.2730 C   0  0  0  0  0  0  0  0  0  0  0  0
  140.1760   73.4150  222.6800 N   0  0  0  0  0  0  0  0  0  0  0  0
  141.3220   79.0220  222.0180 C   0  0  0  0  0  0  0  0  0  0  0  0
  141.7970   80.1340  221.1220 C   0  0  0  0  0  0  0  0  0  0  0  0
  140.7900   80.3540  220.0280 C   0  0  0  0  0  0  0  0  0  0  0  0
  140.5200   79.0840  219.2620 C   0  0  0  0  0  0  0  0  0  0  0  0
  139.9850   78.0550  220.2420 C   0  0  0  0  0  0  0  0  0  0  0  0
  142.2374   75.4525  220.1731 H   0  0  0  0  0  0  0  0  0  0  0  0
  141.3745   76.4375  218.9435 H   0  0  0  0  0  0  0  0  0  0  0  0
  143.1696   76.3722  218.9435 H   0  0  0  0  0  0  0  0  0  0  0  0
  143.1930   77.5560  221.0160 H   0  0  0  0  0  0  0  0  0  0  0  0
  141.5739   76.3644  222.7413 H   0  0  0  0  0  0  0  0  0  0  0  0
  139.8863   77.0470  222.7578 H   0  0  0  0  0  0  0  0  0  0  0  0
  139.4810   75.6560  220.7120 H   0  0  0  0  0  0  0  0  0  0  0  0
  143.9841   73.6239  219.6330 H   0  0  0  0  0  0  0  0  0  0  0  0
  144.6875   72.5832  220.9485 H   0  0  0  0  0  0  0  0  0  0  0  0
  144.8478   72.2520  217.9580 H   0  0  0  0  0  0  0  0  0  0  0  0
  146.1661   72.3267  219.2043 H   0  0  0  0  0  0  0  0  0  0  0  0
  147.2955   70.3002  218.8766 H   0  0  0  0  0  0  0  0  0  0  0  0
  147.2346   67.8253  219.0564 H   0  0  0  0  0  0  0  0  0  0  0  0
  145.0386   66.6427  219.3574 H   0  0  0  0  0  0  0  0  0  0  0  0
  142.9662   67.9839  219.4716 H   0  0  0  0  0  0  0  0  0  0  0  0
  142.3170   70.9406  218.3018 H   0  0  0  0  0  0  0  0  0  0  0  0
  141.8496   70.0975  219.7924 H   0  0  0  0  0  0  0  0  0  0  0  0
  138.0923   70.8945  224.3477 H   0  0  0  0  0  0  0  0  0  0  0  0
  138.7011   70.4937  222.6911 H   0  0  0  0  0  0  0  0  0  0  0  0
  138.3586   68.4647  224.1216 H   0  0  0  0  0  0  0  0  0  0  0  0
  140.0374   68.6415  223.5891 H   0  0  0  0  0  0  0  0  0  0  0  0
  138.8570   67.2549  226.1370 H   0  0  0  0  0  0  0  0  0  0  0  0
  139.5393   67.3995  228.5119 H   0  0  0  0  0  0  0  0  0  0  0  0
  140.7370   69.3921  229.3962 H   0  0  0  0  0  0  0  0  0  0  0  0
  141.2437   71.2678  227.8281 H   0  0  0  0  0  0  0  0  0  0  0  0
  140.3336   72.4022  225.7653 H   0  0  0  0  0  0  0  0  0  0  0  0
  141.7816   71.5069  225.1478 H   0  0  0  0  0  0  0  0  0  0  0  0
  140.3678   79.3088  222.4841 H   0  0  0  0  0  0  0  0  0  0  0  0
  142.0715   78.8367  222.8016 H   0  0  0  0  0  0  0  0  0  0  0  0
  141.9090   81.0571  221.7096 H   0  0  0  0  0  0  0  0  0  0  0  0
  142.7676   79.8631  220.6808 H   0  0  0  0  0  0  0  0  0  0  0  0
  139.8493   80.7091  220.4742 H   0  0  0  0  0  0  0  0  0  0  0  0
  141.1974   81.0989  219.3286 H   0  0  0  0  0  0  0  0  0  0  0  0
  139.7756   79.2731  218.4746 H   0  0  0  0  0  0  0  0  0  0  0  0
  141.4424   78.7186  218.7870 H   0  0  0  0  0  0  0  0  0  0  0  0
  139.1198   78.4593  220.7878 H   0  0  0  0  0  0  0  0  0  0  0  0
  139.6462   77.1436  219.7277 H   0  0  0  0  0  0  0  0  0  0  0  0
  1  2  1  0
  2  3  1  0
  3  4  1  0
  4  5  1  0
  5  6  1  0
  6  7  2  0
  7  8  1  0
  8  9  1  0
  9 10  1  0
 10 11  1  0
 11 12  1  0
 12 13  2  0
 13 14  1  0
 14 15  2  0
 15 16  1  0
 16 17  2  0
 17 18  1  0
  8 19  2  0
 19 20  1  0
 20 21  1  0
 21 22  1  0
 22 23  1  0
 23 24  1  0
 24 25  2  0
 25 26  1  0
 26 27  2  0
 27 28  1  0
 28 29  2  0
 29 30  1  0
 20 31  2  0
  3 32  1  0
 32 33  1  0
 33 34  1  0
 34 35  1  0
 35 36  1  0
 36  3  1  0
 31  6  1  0
 18  9  1  0
 30 21  1  0
 17 12  1  0
 29 24  1  0
  1 37  1  0
  1 38  1  0
  1 39  1  0
  2 40  1  0
  4 41  1  0
  4 42  1  0
  5 43  1  0
 10 44  1  0
 10 45  1  0
 11 46  1  0
 11 47  1  0
 13 48  1  0
 14 49  1  0
 15 50  1  0
 16 51  1  0
 18 52  1  0
 18 53  1  0
 22 54  1  0
 22 55  1  0
 23 56  1  0
 23 57  1  0
 25 58  1  0
 26 59  1  0
 27 60  1  0
 28 61  1  0
 30 62  1  0
 30 63  1  0
 32 64  1  0
 32 65  1  0
 33 66  1  0
 33 67  1  0
 34 68  1  0
 34 69  1  0
 35 70  1  0
 35 71  1  0
 36 72  1  0
 36 73  1  0
M  END
>  <smiles>  (49) 
CNC1(CNc2nc(N3CCc4ccccc4C3)nc(N3CCc4ccccc4C3)n2)CCCCC1

>  <score_type>  (49) 
oracle

>  <origin>  (49) 
autodockgpu

>  <m_score__min__energy>  (49) 
-10.869999999999999

>  <m_primary>  (49) 
energy

>  <rmsd>  (49) 
10.456413472784169

>  <m_score__min__rmsd>  (49) 
10.456413472784169

>  <meeko>  (49) 
{"free_energy": -9.9, "intermolecular_energy": -11.69, "internal_energy": -1.14, "cluster_size": 16, "cluster_id": 2, "rank_in_cluster": 10}

>  <energy>  (49) 
-8.96

>  <cluster_rmsd>  (49) 
0.0

>  <cluster>  (49) 
5

$$$$

     RDKit          3D

 73 78  0  0  0  0  0  0  0  0999 V2000
  144.1720   74.6630  217.0320 C   0  0  0  0  0  0  0  0  0  0  0  0
  144.7980   73.7860  217.9690 N   0  0  0  0  0  0  0  0  0  0  0  0
  143.9450   73.1930  218.9450 C   0  0  0  0  0  0  0  0  0  0  0  0
  142.5430   72.9040  218.4750 C   0  0  0  0  0  0  0  0  0  0  0  0
  141.7970   72.1130  219.4120 N   0  0  0  0  0  0  0  0  0  0  0  0
  141.1440   72.6090  220.5600 C   0  0  0  0  0  0  0  0  0  0  0  0
  140.8590   73.9210  220.6070 N   0  0  0  0  0  0  0  0  0  0  0  0
  140.2290   74.4390  221.6840 C   0  0  0  0  0  0  0  0  0  0  0  0
  139.9520   75.8500  221.7030 N   0  0  0  0  0  0  0  0  0  0  0  0
  138.7350   76.2570  222.3580 C   0  0  0  0  0  0  0  0  0  0  0  0
  138.5400   77.7500  222.3340 C   0  0  0  0  0  0  0  0  0  0  0  0
  139.8050   78.4810  222.5880 C   0  0  0  0  0  0  0  0  0  0  0  0
  139.8310   79.5920  223.4020 C   0  0  0  0  0  0  0  0  0  0  0  0
  141.0270   80.2420  223.6150 C   0  0  0  0  0  0  0  0  0  0  0  0
  142.2000   79.7790  223.0090 C   0  0  0  0  0  0  0  0  0  0  0  0
  142.1170   78.6600  222.2010 C   0  0  0  0  0  0  0  0  0  0  0  0
  140.9400   77.9830  221.9650 C   0  0  0  0  0  0  0  0  0  0  0  0
  140.8850   76.7710  221.0810 C   0  0  0  0  0  0  0  0  0  0  0  0
  139.8790   73.6480  222.7190 N   0  0  0  0  0  0  0  0  0  0  0  0
  140.1590   72.3110  222.6920 C   0  0  0  0  0  0  0  0  0  0  0  0
  139.8100   71.4440  223.7610 N   0  0  0  0  0  0  0  0  0  0  0  0
  138.7420   70.4760  223.6020 C   0  0  0  0  0  0  0  0  0  0  0  0
  139.2160   69.0750  223.9270 C   0  0  0  0  0  0  0  0  0  0  0  0
  139.7520   69.1390  225.3180 C   0  0  0  0  0  0  0  0  0  0  0  0
  139.6360   68.0090  226.1360 C   0  0  0  0  0  0  0  0  0  0  0  0
  140.1300   68.0570  227.4320 C   0  0  0  0  0  0  0  0  0  0  0  0
  140.7370   69.1880  227.9500 C   0  0  0  0  0  0  0  0  0  0  0  0
  140.8400   70.2980  227.1190 C   0  0  0  0  0  0  0  0  0  0  0  0
  140.3540   70.2800  225.8140 C   0  0  0  0  0  0  0  0  0  0  0  0
  140.5200   71.5220  225.0220 C   0  0  0  0  0  0  0  0  0  0  0  0
  140.7890   71.8200  221.6050 N   0  0  0  0  0  0  0  0  0  0  0  0
  144.5580   71.8940  219.4170 C   0  0  0  0  0  0  0  0  0  0  0  0
  145.9810   72.1380  219.8430 C   0  0  0  0  0  0  0  0  0  0  0  0
  146.0020   73.1730  220.9340 C   0  0  0  0  0  0  0  0  0  0  0  0
  145.3120   74.4420  220.5030 C   0  0  0  0  0  0  0  0  0  0  0  0
  143.8740   74.0970  220.1620 C   0  0  0  0  0  0  0  0  0  0  0  0
  143.6159   75.4421  217.5740 H   0  0  0  0  0  0  0  0  0  0  0  0
  144.9400   75.1331  216.4001 H   0  0  0  0  0  0  0  0  0  0  0  0
  143.4779   74.0894  216.4001 H   0  0  0  0  0  0  0  0  0  0  0  0
  145.4660   73.1150  217.5210 H   0  0  0  0  0  0  0  0  0  0  0  0
  142.0184   73.8590  218.3244 H   0  0  0  0  0  0  0  0  0  0  0  0
  142.6177   72.3292  217.5401 H   0  0  0  0  0  0  0  0  0  0  0  0
  141.7290   71.0870  219.2300 H   0  0  0  0  0  0  0  0  0  0  0  0
  137.8839   75.7816  221.8484 H   0  0  0  0  0  0  0  0  0  0  0  0
  138.8010   75.9449  223.4107 H   0  0  0  0  0  0  0  0  0  0  0  0
  138.1538   78.0416  221.3462 H   0  0  0  0  0  0  0  0  0  0  0  0
  137.8305   78.0122  223.1327 H   0  0  0  0  0  0  0  0  0  0  0  0
  138.9077   79.9560  223.8764 H   0  0  0  0  0  0  0  0  0  0  0  0
  141.0598   81.1291  224.2646 H   0  0  0  0  0  0  0  0  0  0  0  0
  143.1604   80.2904  223.1707 H   0  0  0  0  0  0  0  0  0  0  0  0
  143.0365   78.2917  221.7226 H   0  0  0  0  0  0  0  0  0  0  0  0
  140.5325   77.0487  220.0767 H   0  0  0  0  0  0  0  0  0  0  0  0
  141.8796   76.3147  220.9688 H   0  0  0  0  0  0  0  0  0  0  0  0
  137.9153   70.7403  224.2778 H   0  0  0  0  0  0  0  0  0  0  0  0
  138.4092   70.4954  222.5537 H   0  0  0  0  0  0  0  0  0  0  0  0
  138.3779   68.3647  223.8719 H   0  0  0  0  0  0  0  0  0  0  0  0
  139.9801   68.7309  223.2144 H   0  0  0  0  0  0  0  0  0  0  0  0
  139.1588   67.0936  225.7560 H   0  0  0  0  0  0  0  0  0  0  0  0
  140.0359   67.1655  228.0696 H   0  0  0  0  0  0  0  0  0  0  0  0
  141.1232   69.2079  228.9798 H   0  0  0  0  0  0  0  0  0  0  0  0
  141.3169   71.2125  227.5016 H   0  0  0  0  0  0  0  0  0  0  0  0
  140.1282   72.3710  225.6014 H   0  0  0  0  0  0  0  0  0  0  0  0
  141.5908   71.6560  224.8087 H   0  0  0  0  0  0  0  0  0  0  0  0
  143.9816   71.5045  220.2691 H   0  0  0  0  0  0  0  0  0  0  0  0
  144.5406   71.1605  218.5975 H   0  0  0  0  0  0  0  0  0  0  0  0
  146.4186   71.2007  220.2171 H   0  0  0  0  0  0  0  0  0  0  0  0
  146.5670   72.4961  218.9837 H   0  0  0  0  0  0  0  0  0  0  0  0
  145.4888   72.7698  221.8195 H   0  0  0  0  0  0  0  0  0  0  0  0
  147.0509   73.4110  221.1647 H   0  0  0  0  0  0  0  0  0  0  0  0
  145.3363   75.1772  221.3209 H   0  0  0  0  0  0  0  0  0  0  0  0
  145.8196   74.8771  219.6295 H   0  0  0  0  0  0  0  0  0  0  0  0
  143.3961   73.5719  221.0022 H   0  0  0  0  0  0  0  0  0  0  0  0
  143.2767   74.9990  219.9629 H   0  0  0  0  0  0  0  0  0  0  0  0
  1  2  1  0
  2  3  1  0
  3  4  1  0
  4  5  1  0
  5  6  1  0
  6  7  2  0
  7  8  1  0
  8  9  1  0
  9 10  1  0
 10 11  1  0
 11 12  1  0
 12 13  2  0
 13 14  1  0
 14 15  2  0
 15 16  1  0
 16 17  2  0
 17 18  1  0
  8 19  2  0
 19 20  1  0
 20 21  1  0
 21 22  1  0
 22 23  1  0
 23 24  1  0
 24 25  2  0
 25 26  1  0
 26 27  2  0
 27 28  1  0
 28 29  2  0
 29 30  1  0
 20 31  2  0
  3 32  1  0
 32 33  1  0
 33 34  1  0
 34 35  1  0
 35 36  1  0
 36  3  1  0
 31  6  1  0
 18  9  1  0
 30 21  1  0
 17 12  1  0
 29 24  1  0
  1 37  1  0
  1 38  1  0
  1 39  1  0
  2 40  1  0
  4 41  1  0
  4 42  1  0
  5 43  1  0
 10 44  1  0
 10 45  1  0
 11 46  1  0
 11 47  1  0
 13 48  1  0
 14 49  1  0
 15 50  1  0
 16 51  1  0
 18 52  1  0
 18 53  1  0
 22 54  1  0
 22 55  1  0
 23 56  1  0
 23 57  1  0
 25 58  1  0
 26 59  1  0
 27 60  1  0
 28 61  1  0
 30 62  1  0
 30 63  1  0
 32 64  1  0
 32 65  1  0
 33 66  1  0
 33 67  1  0
 34 68  1  0
 34 69  1  0
 35 70  1  0
 35 71  1  0
 36 72  1  0
 36 73  1  0
M  END
>  <smiles>  (50) 
CNC1(CNc2nc(N3CCc4ccccc4C3)nc(N3CCc4ccccc4C3)n2)CCCCC1

>  <score_type>  (50) 
oracle

>  <origin>  (50) 
autodockgpu

>  <m_score__min__energy>  (50) 
-10.869999999999999

>  <m_primary>  (50) 
energy

>  <rmsd>  (50) 
5.162315364854969

>  <m_score__min__rmsd>  (50) 
5.162315364854969

>  <meeko>  (50) 
{"free_energy": -10.15, "intermolecular_energy": -11.94, "internal_energy": -1.47, "cluster_size": 29, "cluster_id": 1, "rank_in_cluster": 15}

>  <energy>  (50) 
-8.55

>  <cluster_rmsd>  (50) 
1.46

>  <cluster>  (50) 
5

$$$$
