@<TRIPOS>MOLECULE
*****
 44 47 0 0 0
SMALL
GASTEIGER

@<TRIPOS>ATOM
      1 O         138.2870   69.5730  221.8600 O.2     1  UNL1       -0.2916
      2 C         138.9770   70.5200  222.3600 C.2     1  UNL1        0.1710
      3 C         139.2270   71.7180  221.5230 C.3     1  UNL1        0.0535
      4 C         140.0450   72.6830  222.2950 C.2     1  UNL1        0.0565
      5 C         140.3970   73.9480  221.6170 C.ar    1  UNL1       -0.0026
      6 C         139.8490   75.1580  222.0230 C.ar    1  UNL1       -0.0528
      7 C         140.1940   76.3400  221.3700 C.ar    1  UNL1       -0.0604
      8 C         141.0860   76.3430  220.3060 C.ar    1  UNL1       -0.0496
      9 C         141.6300   75.1480  219.9000 C.ar    1  UNL1        0.0375
     10 C         142.5750   75.0190  218.7990 C.2     1  UNL1        0.2467
     11 O         142.5220   75.8470  217.8530 O.2     1  UNL1       -0.2700
     12 N         143.5650   74.0050  218.7280 N.am    1  UNL1       -0.2951
     13 C         144.4430   73.9970  217.5660 C.3     1  UNL1        0.0275
     14 C         145.5770   72.9960  217.7610 C.3     1  UNL1        0.0118
     15 N         146.1230   73.3160  219.0880 N.3     1  UNL1       -0.3130
     16 C         145.2150   72.7310  220.0540 C.3     1  UNL1        0.0118
     17 C         143.7670   72.9850  219.7160 C.3     1  UNL1        0.0275
     18 C         141.2740   73.9960  220.5610 C.ar    1  UNL1       -0.0407
     19 N         140.4630   72.5170  223.4800 N.2     1  UNL1       -0.2504
     20 C         140.2190   71.3690  224.2700 C.ar    1  UNL1        0.0761
     21 C         140.7030   71.2470  225.5560 C.ar    1  UNL1       -0.0159
     22 C         140.4310   70.0910  226.2930 C.ar    1  UNL1        0.0613
     23 CL        141.0620   69.9710  227.9230 Cl      1  UNL1       -0.0820
     24 C         139.6810   69.0580  225.7580 C.ar    1  UNL1        0.0600
     25 CL        139.3370   67.6080  226.6760 Cl      1  UNL1       -0.0820
     26 C         139.2140   69.2170  224.4690 C.ar    1  UNL1       -0.0294
     27 C         139.4730   70.3600  223.7170 C.ar    1  UNL1        0.0446
     28 H         139.7663   71.4244  220.6103 H       1  UNL1        0.0409
     29 H         138.2699   72.1823  221.2428 H       1  UNL1        0.0409
     30 H         139.1397   75.1835  222.8634 H       1  UNL1        0.0624
     31 H         139.7507   77.2896  221.7043 H       1  UNL1        0.0618
     32 H         141.3517   77.2821  219.7986 H       1  UNL1        0.0625
     33 H         143.8619   73.7168  216.6750 H       1  UNL1        0.0477
     34 H         144.8728   75.0014  217.4376 H       1  UNL1        0.0477
     35 H         145.1947   71.9649  217.7357 H       1  UNL1        0.0439
     36 H         146.3363   73.0629  216.9679 H       1  UNL1        0.0439
     37 H         146.1540   74.3670  219.1660 H       1  UNL1        0.1220
     38 H         145.3845   71.6446  220.0841 H       1  UNL1        0.0439
     39 H         145.4172   73.2000  221.0283 H       1  UNL1        0.0439
     40 H         143.3311   72.0481  219.3389 H       1  UNL1        0.0477
     41 H         143.2838   73.3382  220.6389 H       1  UNL1        0.0477
     42 H         141.7213   73.0501  220.2216 H       1  UNL1        0.0631
     43 H         141.3009   72.0566  225.9999 H       1  UNL1        0.0654
     44 H         138.6153   68.4113  224.0192 H       1  UNL1        0.0640
@<TRIPOS>BOND
     1     1     2    2
     2     2     3    1
     3     3     4    1
     4     4     5    1
     5     5     6   ar
     6     6     7   ar
     7     7     8   ar
     8     8     9   ar
     9     9    10    1
    10    10    11    2
    11    10    12   am
    12    12    13    1
    13    13    14    1
    14    14    15    1
    15    15    16    1
    16    16    17    1
    17     9    18   ar
    18     4    19    2
    19    19    20    1
    20    20    21   ar
    21    21    22   ar
    22    22    23    1
    23    22    24   ar
    24    24    25    1
    25    24    26   ar
    26    26    27   ar
    27    27     2    1
    28    18     5   ar
    29    27    20   ar
    30    17    12    1
    31     3    28    1
    32     3    29    1
    33     6    30    1
    34     7    31    1
    35     8    32    1
    36    13    33    1
    37    13    34    1
    38    14    35    1
    39    14    36    1
    40    15    37    1
    41    16    38    1
    42    16    39    1
    43    17    40    1
    44    17    41    1
    45    18    42    1
    46    21    43    1
    47    26    44    1
