
     RDKit          3D

 48 52  0  0  1  0  0  0  0  0999 V2000
  137.7120   75.4260  221.9680 O   0  0  0  0  0  0  0  0  0  0  0  0
  139.0810   75.8610  221.5180 S   0  0  0  0  0  0  0  0  0  0  0  0
  139.9860   75.6290  222.6860 O   0  0  0  0  0  0  0  0  0  0  0  0
  138.9590   77.6270  221.1920 C   0  0  0  0  0  0  0  0  0  0  0  0
  140.1820   78.3150  221.7480 C   0  0  0  0  0  0  0  0  0  0  0  0
  141.0760   78.9280  220.8930 C   0  0  0  0  0  0  0  0  0  0  0  0
  142.1870   79.5530  221.4210 C   0  0  0  0  0  0  0  0  0  0  0  0
  142.4280   79.5780  222.7920 C   0  0  0  0  0  0  0  0  0  0  0  0
  141.5390   78.9670  223.6470 C   0  0  0  0  0  0  0  0  0  0  0  0
  140.4290   78.3450  223.1070 C   0  0  0  0  0  0  0  0  0  0  0  0
  139.5740   75.1050  220.0620 N   0  0  0  0  0  0  0  0  0  0  0  0
  138.5730   74.0150  219.8670 C   0  0  0  0  0  0  0  0  0  0  0  0
  138.9380   73.1880  221.0770 C   0  0  0  0  0  0  0  0  0  0  0  0
  138.2100   72.3800  221.9340 C   0  0  0  0  0  0  0  0  0  0  0  0
  138.8030   71.7290  223.0140 C   0  0  0  0  0  0  0  0  0  0  0  0
  140.1590   71.9220  223.2020 C   0  0  0  0  0  0  0  0  0  0  0  0
  140.8720   72.7360  222.3320 C   0  0  0  0  0  0  0  0  0  0  0  0
  140.3230   73.3800  221.2720 C   0  0  0  0  0  0  0  0  0  0  0  0
  140.7180   74.2530  220.1500 C   0  0  2  0  0  0  0  0  0  0  0  0
  142.0290   74.8490  220.1710 C   0  0  0  0  0  0  0  0  0  0  0  0
  142.5000   76.1330  219.9890 C   0  0  0  0  0  0  0  0  0  0  0  0
  143.8390   76.1790  220.0800 N   0  0  0  0  0  0  0  0  0  0  0  0
  144.2860   74.9370  220.3190 C   0  0  0  0  0  0  0  0  0  0  0  0
  145.5580   74.4710  220.4850 C   0  0  0  0  0  0  0  0  0  0  0  0
  145.7860   73.1450  220.7200 C   0  0  0  0  0  0  0  0  0  0  0  0
  144.7260   72.2650  220.7900 C   0  0  0  0  0  0  0  0  0  0  0  0
  143.4510   72.7630  220.6180 C   0  0  0  0  0  0  0  0  0  0  0  0
  143.2000   74.0970  220.3810 C   0  0  0  0  0  0  0  0  0  0  0  0
  138.9006   77.7986  220.1070 H   0  0  0  0  0  0  0  0  0  0  0  0
  138.0551   78.0317  221.6707 H   0  0  0  0  0  0  0  0  0  0  0  0
  140.9050   78.9183  219.8064 H   0  0  0  0  0  0  0  0  0  0  0  0
  142.8999   80.0436  220.7420 H   0  0  0  0  0  0  0  0  0  0  0  0
  143.3216   80.0820  223.1888 H   0  0  0  0  0  0  0  0  0  0  0  0
  141.7079   78.9736  224.7339 H   0  0  0  0  0  0  0  0  0  0  0  0
  139.7149   77.8551  223.7853 H   0  0  0  0  0  0  0  0  0  0  0  0
  137.5380   74.3851  219.9103 H   0  0  0  0  0  0  0  0  0  0  0  0
  138.6016   73.4966  218.8973 H   0  0  0  0  0  0  0  0  0  0  0  0
  137.1323   72.2482  221.7572 H   0  0  0  0  0  0  0  0  0  0  0  0
  138.2166   71.0882  223.6889 H   0  0  0  0  0  0  0  0  0  0  0  0
  140.6732   71.4305  224.0411 H   0  0  0  0  0  0  0  0  0  0  0  0
  141.9490   72.8667  222.5137 H   0  0  0  0  0  0  0  0  0  0  0  0
  140.9244   73.7065  219.2179 H   0  0  0  0  0  0  0  0  0  0  0  0
  141.8608   77.0068  219.7943 H   0  0  0  0  0  0  0  0  0  0  0  0
  144.4500   77.0230  219.9820 H   0  0  0  0  0  0  0  0  0  0  0  0
  146.4064   75.1689  220.4291 H   0  0  0  0  0  0  0  0  0  0  0  0
  146.8147   72.7789  220.8534 H   0  0  0  0  0  0  0  0  0  0  0  0
  144.8930   71.1941  220.9780 H   0  0  0  0  0  0  0  0  0  0  0  0
  142.6007   72.0673  220.6722 H   0  0  0  0  0  0  0  0  0  0  0  0
  1  2  2  0
  2  3  2  0
  2  4  1  0
  4  5  1  0
  5  6  2  0
  6  7  1  0
  7  8  2  0
  8  9  1  0
  9 10  2  0
  2 11  1  0
 11 12  1  0
 12 13  1  0
 13 14  2  0
 14 15  1  0
 15 16  2  0
 16 17  1  0
 17 18  2  0
 18 19  1  0
 19 20  1  0
 20 21  2  0
 21 22  1  0
 22 23  1  0
 23 24  2  0
 24 25  1  0
 25 26  2  0
 26 27  1  0
 27 28  2  0
 10  5  1  0
 19 11  1  0
 28 20  1  0
 18 13  1  0
 28 23  1  0
  4 29  1  0
  4 30  1  0
  6 31  1  0
  7 32  1  0
  8 33  1  0
  9 34  1  0
 10 35  1  0
 12 36  1  0
 12 37  1  0
 14 38  1  0
 15 39  1  0
 16 40  1  0
 17 41  1  0
 19 42  1  6
 21 43  1  0
 22 44  1  0
 24 45  1  0
 25 46  1  0
 26 47  1  0
 27 48  1  0
M  END
>  <smiles>  (1) 
O=S(=O)(Cc1ccccc1)N1Cc2ccccc2C1c1c[nH]c2ccccc12

>  <score_type>  (1) 
oracle

>  <origin>  (1) 
autodockgpu

>  <m_score__min__energy>  (1) 
-7.54

>  <m_primary>  (1) 
energy

>  <rmsd>  (1) 
7.774370094531045

>  <m_score__min__rmsd>  (1) 
7.774370094531045

>  <meeko>  (1) 
{"free_energy": -7.44, "intermolecular_energy": -8.63, "internal_energy": -1.73, "cluster_size": 25, "cluster_id": 1, "rank_in_cluster": 14}

>  <energy>  (1) 
-7.54

>  <cluster_rmsd>  (1) 
0.0

>  <cluster>  (1) 
1

$$$$

     RDKit          3D

 48 52  0  0  1  0  0  0  0  0999 V2000
  137.6920   75.4780  222.0630 O   0  0  0  0  0  0  0  0  0  0  0  0
  139.0410   75.9250  221.5650 S   0  0  0  0  0  0  0  0  0  0  0  0
  139.9880   75.7030  222.7010 O   0  0  0  0  0  0  0  0  0  0  0  0
  138.8920   77.6880  221.2400 C   0  0  0  0  0  0  0  0  0  0  0  0
  139.9310   78.4270  222.0480 C   0  0  0  0  0  0  0  0  0  0  0  0
  139.5450   79.2020  223.1230 C   0  0  0  0  0  0  0  0  0  0  0  0
  140.5090   79.8690  223.8500 C   0  0  0  0  0  0  0  0  0  0  0  0
  141.8610   79.7780  223.5250 C   0  0  0  0  0  0  0  0  0  0  0  0
  142.2490   79.0070  222.4540 C   0  0  0  0  0  0  0  0  0  0  0  0
  141.2740   78.3430  221.7330 C   0  0  0  0  0  0  0  0  0  0  0  0
  139.4900   75.1710  220.0940 N   0  0  0  0  0  0  0  0  0  0  0  0
  138.4570   74.1100  219.9050 C   0  0  0  0  0  0  0  0  0  0  0  0
  138.8180   73.2610  221.1010 C   0  0  0  0  0  0  0  0  0  0  0  0
  138.0820   72.4650  221.9620 C   0  0  0  0  0  0  0  0  0  0  0  0
  138.6740   71.7870  223.0260 C   0  0  0  0  0  0  0  0  0  0  0  0
  140.0380   71.9410  223.1940 C   0  0  0  0  0  0  0  0  0  0  0  0
  140.7580   72.7440  222.3200 C   0  0  0  0  0  0  0  0  0  0  0  0
  140.2110   73.4140  221.2760 C   0  0  0  0  0  0  0  0  0  0  0  0
  140.6120   74.2860  220.1550 C   0  0  2  0  0  0  0  0  0  0  0  0
  141.9390   74.8460  220.1610 C   0  0  0  0  0  0  0  0  0  0  0  0
  142.4440   76.1130  219.9550 C   0  0  0  0  0  0  0  0  0  0  0  0
  143.7840   76.1240  220.0390 N   0  0  0  0  0  0  0  0  0  0  0  0
  144.1970   74.8760  220.2990 C   0  0  0  0  0  0  0  0  0  0  0  0
  145.4570   74.3770  220.4690 C   0  0  0  0  0  0  0  0  0  0  0  0
  145.6500   73.0500  220.7250 C   0  0  0  0  0  0  0  0  0  0  0  0
  144.5660   72.2010  220.8150 C   0  0  0  0  0  0  0  0  0  0  0  0
  143.3040   72.7310  220.6400 C   0  0  0  0  0  0  0  0  0  0  0  0
  143.0900   74.0660  220.3790 C   0  0  0  0  0  0  0  0  0  0  0  0
  139.0526   77.8803  220.1689 H   0  0  0  0  0  0  0  0  0  0  0  0
  137.8868   78.0340  221.5225 H   0  0  0  0  0  0  0  0  0  0  0  0
  138.4828   79.2866  223.3963 H   0  0  0  0  0  0  0  0  0  0  0  0
  140.2032   80.4875  224.7067 H   0  0  0  0  0  0  0  0  0  0  0  0
  142.6119   80.3184  224.1201 H   0  0  0  0  0  0  0  0  0  0  0  0
  143.3102   78.9208  222.1776 H   0  0  0  0  0  0  0  0  0  0  0  0
  141.5788   77.7243  220.8761 H   0  0  0  0  0  0  0  0  0  0  0  0
  137.4333   74.5074  219.9683 H   0  0  0  0  0  0  0  0  0  0  0  0
  138.4567   73.6006  218.9301 H   0  0  0  0  0  0  0  0  0  0  0  0
  136.9984   72.3648  221.8016 H   0  0  0  0  0  0  0  0  0  0  0  0
  138.0810   71.1556  223.7040 H   0  0  0  0  0  0  0  0  0  0  0  0
  140.5522   71.4275  224.0198 H   0  0  0  0  0  0  0  0  0  0  0  0
  141.8410   72.8430  222.4850 H   0  0  0  0  0  0  0  0  0  0  0  0
  140.7878   73.7428  219.2148 H   0  0  0  0  0  0  0  0  0  0  0  0
  141.8279   77.0005  219.7484 H   0  0  0  0  0  0  0  0  0  0  0  0
  144.4180   76.9500  219.9250 H   0  0  0  0  0  0  0  0  0  0  0  0
  146.3240   75.0504  220.3990 H   0  0  0  0  0  0  0  0  0  0  0  0
  146.6689   72.6579  220.8594 H   0  0  0  0  0  0  0  0  0  0  0  0
  144.7043   71.1293  221.0209 H   0  0  0  0  0  0  0  0  0  0  0  0
  142.4348   72.0607  220.7118 H   0  0  0  0  0  0  0  0  0  0  0  0
  1  2  2  0
  2  3  2  0
  2  4  1  0
  4  5  1  0
  5  6  2  0
  6  7  1  0
  7  8  2  0
  8  9  1  0
  9 10  2  0
  2 11  1  0
 11 12  1  0
 12 13  1  0
 13 14  2  0
 14 15  1  0
 15 16  2  0
 16 17  1  0
 17 18  2  0
 18 19  1  0
 19 20  1  0
 20 21  2  0
 21 22  1  0
 22 23  1  0
 23 24  2  0
 24 25  1  0
 25 26  2  0
 26 27  1  0
 27 28  2  0
 10  5  1  0
 19 11  1  0
 28 20  1  0
 18 13  1  0
 28 23  1  0
  4 29  1  0
  4 30  1  0
  6 31  1  0
  7 32  1  0
  8 33  1  0
  9 34  1  0
 10 35  1  0
 12 36  1  0
 12 37  1  0
 14 38  1  0
 15 39  1  0
 16 40  1  0
 17 41  1  0
 19 42  1  6
 21 43  1  0
 22 44  1  0
 24 45  1  0
 25 46  1  0
 26 47  1  0
 27 48  1  0
M  END
>  <smiles>  (2) 
O=S(=O)(Cc1ccccc1)N1Cc2ccccc2C1c1c[nH]c2ccccc12

>  <score_type>  (2) 
oracle

>  <origin>  (2) 
autodockgpu

>  <m_score__min__energy>  (2) 
-7.54

>  <m_primary>  (2) 
energy

>  <rmsd>  (2) 
7.760440098571841

>  <m_score__min__rmsd>  (2) 
7.760440098571841

>  <meeko>  (2) 
{"free_energy": -7.54, "intermolecular_energy": -8.73, "internal_energy": -1.59, "cluster_size": 25, "cluster_id": 1, "rank_in_cluster": 2}

>  <energy>  (2) 
-7.54

>  <cluster_rmsd>  (2) 
0.36

>  <cluster>  (2) 
1

$$$$

     RDKit          3D

 48 52  0  0  1  0  0  0  0  0999 V2000
  140.5980   75.4960  218.7650 O   0  0  0  0  0  0  0  0  0  0  0  0
  140.5180   76.7320  219.6210 S   0  0  0  0  0  0  0  0  0  0  0  0
  139.0580   77.0110  219.7950 O   0  0  0  0  0  0  0  0  0  0  0  0
  141.2740   78.0520  218.6620 C   0  0  0  0  0  0  0  0  0  0  0  0
  140.9860   79.3740  219.3320 C   0  0  0  0  0  0  0  0  0  0  0  0
  139.6800   79.7680  219.5440 C   0  0  0  0  0  0  0  0  0  0  0  0
  139.4360   80.9790  220.1590 C   0  0  0  0  0  0  0  0  0  0  0  0
  140.4750   81.8110  220.5700 C   0  0  0  0  0  0  0  0  0  0  0  0
  141.7770   81.4210  220.3600 C   0  0  0  0  0  0  0  0  0  0  0  0
  142.0100   80.2060  219.7430 C   0  0  0  0  0  0  0  0  0  0  0  0
  141.4030   76.5880  221.0800 N   0  0  0  0  0  0  0  0  0  0  0  0
  141.6970   75.1290  221.1800 C   0  0  0  0  0  0  0  0  0  0  0  0
  140.2740   74.6470  221.3410 C   0  0  0  0  0  0  0  0  0  0  0  0
  139.6070   73.4990  220.9500 C   0  0  0  0  0  0  0  0  0  0  0  0
  138.2520   73.3080  221.2150 C   0  0  0  0  0  0  0  0  0  0  0  0
  137.5900   74.3200  221.8860 C   0  0  0  0  0  0  0  0  0  0  0  0
  138.2770   75.4640  222.2690 C   0  0  0  0  0  0  0  0  0  0  0  0
  139.5950   75.6770  222.0280 C   0  0  0  0  0  0  0  0  0  0  0  0
  140.6460   76.6780  222.2900 C   0  0  2  0  0  0  0  0  0  0  0  0
  140.2530   77.9780  222.7690 C   0  0  0  0  0  0  0  0  0  0  0  0
  139.0370   78.5780  223.0220 C   0  0  0  0  0  0  0  0  0  0  0  0
  139.1950   79.8440  223.4410 N   0  0  0  0  0  0  0  0  0  0  0  0
  140.5080   80.1130  223.4750 C   0  0  0  0  0  0  0  0  0  0  0  0
  141.1690   81.2550  223.8260 C   0  0  0  0  0  0  0  0  0  0  0  0
  142.5330   81.3100  223.7820 C   0  0  0  0  0  0  0  0  0  0  0  0
  143.2540   80.2040  223.3790 C   0  0  0  0  0  0  0  0  0  0  0  0
  142.5610   79.0630  223.0300 C   0  0  0  0  0  0  0  0  0  0  0  0
  141.1860   78.9890  223.0680 C   0  0  0  0  0  0  0  0  0  0  0  0
  142.3614   77.8940  218.6103 H   0  0  0  0  0  0  0  0  0  0  0  0
  140.8605   78.0543  217.6427 H   0  0  0  0  0  0  0  0  0  0  0  0
  138.8453   79.1254  219.2271 H   0  0  0  0  0  0  0  0  0  0  0  0
  138.3961   81.2949  220.3288 H   0  0  0  0  0  0  0  0  0  0  0  0
  140.2559   82.7719  221.0585 H   0  0  0  0  0  0  0  0  0  0  0  0
  142.6139   82.0612  220.6758 H   0  0  0  0  0  0  0  0  0  0  0  0
  143.0497   79.8896  219.5728 H   0  0  0  0  0  0  0  0  0  0  0  0
  142.1714   74.7348  220.2692 H   0  0  0  0  0  0  0  0  0  0  0  0
  142.4038   74.8286  221.9675 H   0  0  0  0  0  0  0  0  0  0  0  0
  140.1623   72.7147  220.4147 H   0  0  0  0  0  0  0  0  0  0  0  0
  137.7310   72.3907  220.9035 H   0  0  0  0  0  0  0  0  0  0  0  0
  136.5192   74.2185  222.1162 H   0  0  0  0  0  0  0  0  0  0  0  0
  137.7174   76.2471  222.8015 H   0  0  0  0  0  0  0  0  0  0  0  0
  141.2408   76.4680  223.1911 H   0  0  0  0  0  0  0  0  0  0  0  0
  138.0628   78.0829  222.8966 H   0  0  0  0  0  0  0  0  0  0  0  0
  138.4410   80.5220  223.7010 H   0  0  0  0  0  0  0  0  0  0  0  0
  140.5979   82.1386  224.1471 H   0  0  0  0  0  0  0  0  0  0  0  0
  143.0563   82.2345  224.0673 H   0  0  0  0  0  0  0  0  0  0  0  0
  144.3529   80.2316  223.3372 H   0  0  0  0  0  0  0  0  0  0  0  0
  143.1290   78.1775  222.7087 H   0  0  0  0  0  0  0  0  0  0  0  0
  1  2  2  0
  2  3  2  0
  2  4  1  0
  4  5  1  0
  5  6  2  0
  6  7  1  0
  7  8  2  0
  8  9  1  0
  9 10  2  0
  2 11  1  0
 11 12  1  0
 12 13  1  0
 13 14  2  0
 14 15  1  0
 15 16  2  0
 16 17  1  0
 17 18  2  0
 18 19  1  0
 19 20  1  0
 20 21  2  0
 21 22  1  0
 22 23  1  0
 23 24  2  0
 24 25  1  0
 25 26  2  0
 26 27  1  0
 27 28  2  0
 10  5  1  0
 19 11  1  0
 28 20  1  0
 18 13  1  0
 28 23  1  0
  4 29  1  0
  4 30  1  0
  6 31  1  0
  7 32  1  0
  8 33  1  0
  9 34  1  0
 10 35  1  0
 12 36  1  0
 12 37  1  0
 14 38  1  0
 15 39  1  0
 16 40  1  0
 17 41  1  0
 19 42  1  1
 21 43  1  0
 22 44  1  0
 24 45  1  0
 25 46  1  0
 26 47  1  0
 27 48  1  0
M  END
>  <smiles>  (3) 
O=S(=O)(Cc1ccccc1)N1Cc2ccccc2C1c1c[nH]c2ccccc12

>  <score_type>  (3) 
oracle

>  <origin>  (3) 
autodockgpu

>  <m_score__min__energy>  (3) 
-7.54

>  <m_primary>  (3) 
energy

>  <rmsd>  (3) 
4.542515335474425

>  <m_score__min__rmsd>  (3) 
4.542515335474425

>  <meeko>  (3) 
{"free_energy": -6.25, "intermolecular_energy": -7.45, "internal_energy": -2.6, "cluster_size": 17, "cluster_id": 5, "rank_in_cluster": 14}

>  <energy>  (3) 
-7.53

>  <cluster_rmsd>  (3) 
0.05

>  <cluster>  (3) 
1

$$$$

     RDKit          3D

 48 52  0  0  1  0  0  0  0  0999 V2000
  137.4520   75.2200  221.9330 O   0  0  0  0  0  0  0  0  0  0  0  0
  138.8330   75.6430  221.5080 S   0  0  0  0  0  0  0  0  0  0  0  0
  139.7080   75.4340  222.7030 O   0  0  0  0  0  0  0  0  0  0  0  0
  138.7240   77.4010  221.1410 C   0  0  0  0  0  0  0  0  0  0  0  0
  139.6180   78.1580  222.0930 C   0  0  0  0  0  0  0  0  0  0  0  0
  139.0660   79.0220  223.0160 C   0  0  0  0  0  0  0  0  0  0  0  0
  139.8990   79.7060  223.8790 C   0  0  0  0  0  0  0  0  0  0  0  0
  141.2820   79.5430  223.8390 C   0  0  0  0  0  0  0  0  0  0  0  0
  141.8350   78.6820  222.9190 C   0  0  0  0  0  0  0  0  0  0  0  0
  140.9910   78.0040  222.0610 C   0  0  0  0  0  0  0  0  0  0  0  0
  139.3610   74.8550  220.0820 N   0  0  0  0  0  0  0  0  0  0  0  0
  138.4120   73.7130  219.9310 C   0  0  0  0  0  0  0  0  0  0  0  0
  138.8150   72.9510  221.1710 C   0  0  0  0  0  0  0  0  0  0  0  0
  138.1250   72.1440  222.0600 C   0  0  0  0  0  0  0  0  0  0  0  0
  138.7480   71.5630  223.1630 C   0  0  0  0  0  0  0  0  0  0  0  0
  140.0950   71.8260  223.3410 C   0  0  0  0  0  0  0  0  0  0  0  0
  140.7680   72.6380  222.4390 C   0  0  0  0  0  0  0  0  0  0  0  0
  140.1900   73.2150  221.3560 C   0  0  0  0  0  0  0  0  0  0  0  0
  140.5440   74.0600  220.2000 C   0  0  2  0  0  0  0  0  0  0  0  0
  141.8260   74.7170  220.1950 C   0  0  0  0  0  0  0  0  0  0  0  0
  142.2330   76.0190  219.9890 C   0  0  0  0  0  0  0  0  0  0  0  0
  143.5700   76.1290  220.0610 N   0  0  0  0  0  0  0  0  0  0  0  0
  144.0770   74.9130  220.3120 C   0  0  0  0  0  0  0  0  0  0  0  0
  145.3720   74.5090  220.4690 C   0  0  0  0  0  0  0  0  0  0  0  0
  145.6650   73.1990  220.7200 C   0  0  0  0  0  0  0  0  0  0  0  0
  144.6480   72.2720  220.8160 C   0  0  0  0  0  0  0  0  0  0  0  0
  143.3480   72.7070  220.6540 C   0  0  0  0  0  0  0  0  0  0  0  0
  143.0330   74.0240  220.4010 C   0  0  0  0  0  0  0  0  0  0  0  0
  139.0495   77.5826  220.1061 H   0  0  0  0  0  0  0  0  0  0  0  0
  137.6844   77.7412  221.2574 H   0  0  0  0  0  0  0  0  0  0  0  0
  137.9763   79.1642  223.0638 H   0  0  0  0  0  0  0  0  0  0  0  0
  139.4604   80.3957  224.6152 H   0  0  0  0  0  0  0  0  0  0  0  0
  141.9264   80.0978  224.5369 H   0  0  0  0  0  0  0  0  0  0  0  0
  142.9242   78.5369  222.8680 H   0  0  0  0  0  0  0  0  0  0  0  0
  141.4287   77.3149  221.3238 H   0  0  0  0  0  0  0  0  0  0  0  0
  137.3609   74.0360  219.9619 H   0  0  0  0  0  0  0  0  0  0  0  0
  138.4648   73.1595  218.9819 H   0  0  0  0  0  0  0  0  0  0  0  0
  137.0545   71.9561  221.8907 H   0  0  0  0  0  0  0  0  0  0  0  0
  138.1921   70.9220  223.8631 H   0  0  0  0  0  0  0  0  0  0  0  0
  140.6320   71.3916  224.1971 H   0  0  0  0  0  0  0  0  0  0  0  0
  141.8378   72.8256  222.6133 H   0  0  0  0  0  0  0  0  0  0  0  0
  140.7752   73.4872  219.2898 H   0  0  0  0  0  0  0  0  0  0  0  0
  141.5507   76.8589  219.7913 H   0  0  0  0  0  0  0  0  0  0  0  0
  144.1390   77.0000  219.9440 H   0  0  0  0  0  0  0  0  0  0  0  0
  146.1860   75.2450  220.3926 H   0  0  0  0  0  0  0  0  0  0  0  0
  146.7112   72.8833  220.8455 H   0  0  0  0  0  0  0  0  0  0  0  0
  144.8674   71.2129  221.0166 H   0  0  0  0  0  0  0  0  0  0  0  0
  142.5318   71.9735  220.7299 H   0  0  0  0  0  0  0  0  0  0  0  0
  1  2  2  0
  2  3  2  0
  2  4  1  0
  4  5  1  0
  5  6  2  0
  6  7  1  0
  7  8  2  0
  8  9  1  0
  9 10  2  0
  2 11  1  0
 11 12  1  0
 12 13  1  0
 13 14  2  0
 14 15  1  0
 15 16  2  0
 16 17  1  0
 17 18  2  0
 18 19  1  0
 19 20  1  0
 20 21  2  0
 21 22  1  0
 22 23  1  0
 23 24  2  0
 24 25  1  0
 25 26  2  0
 26 27  1  0
 27 28  2  0
 10  5  1  0
 19 11  1  0
 28 20  1  0
 18 13  1  0
 28 23  1  0
  4 29  1  0
  4 30  1  0
  6 31  1  0
  7 32  1  0
  8 33  1  0
  9 34  1  0
 10 35  1  0
 12 36  1  0
 12 37  1  0
 14 38  1  0
 15 39  1  0
 16 40  1  0
 17 41  1  0
 19 42  1  6
 21 43  1  0
 22 44  1  0
 24 45  1  0
 25 46  1  0
 26 47  1  0
 27 48  1  0
M  END
>  <smiles>  (4) 
O=S(=O)(Cc1ccccc1)N1Cc2ccccc2C1c1c[nH]c2ccccc12

>  <score_type>  (4) 
oracle

>  <origin>  (4) 
autodockgpu

>  <m_score__min__energy>  (4) 
-7.54

>  <m_primary>  (4) 
energy

>  <rmsd>  (4) 
7.86481549286338

>  <m_score__min__rmsd>  (4) 
7.86481549286338

>  <meeko>  (4) 
{"free_energy": -7.53, "intermolecular_energy": -8.72, "internal_energy": -1.63, "cluster_size": 25, "cluster_id": 1, "rank_in_cluster": 3}

>  <energy>  (4) 
-7.53

>  <cluster_rmsd>  (4) 
0.04

>  <cluster>  (4) 
1

$$$$

     RDKit          3D

 48 52  0  0  1  0  0  0  0  0999 V2000
  137.6930   75.5160  222.0390 O   0  0  0  0  0  0  0  0  0  0  0  0
  139.0580   75.9480  221.5730 S   0  0  0  0  0  0  0  0  0  0  0  0
  139.9820   75.6810  222.7190 O   0  0  0  0  0  0  0  0  0  0  0  0
  138.9480   77.7210  221.2870 C   0  0  0  0  0  0  0  0  0  0  0  0
  140.2100   78.3790  221.7900 C   0  0  0  0  0  0  0  0  0  0  0  0
  141.0350   79.0490  220.9080 C   0  0  0  0  0  0  0  0  0  0  0  0
  142.1850   79.6450  221.3860 C   0  0  0  0  0  0  0  0  0  0  0  0
  142.5300   79.5860  222.7350 C   0  0  0  0  0  0  0  0  0  0  0  0
  141.7100   78.9190  223.6150 C   0  0  0  0  0  0  0  0  0  0  0  0
  140.5620   78.3260  223.1250 C   0  0  0  0  0  0  0  0  0  0  0  0
  139.5170   75.2190  220.0920 N   0  0  0  0  0  0  0  0  0  0  0  0
  138.4920   74.1540  219.8830 C   0  0  0  0  0  0  0  0  0  0  0  0
  138.8560   73.2900  221.0680 C   0  0  0  0  0  0  0  0  0  0  0  0
  138.1230   72.4750  221.9140 C   0  0  0  0  0  0  0  0  0  0  0  0
  138.7160   71.7850  222.9690 C   0  0  0  0  0  0  0  0  0  0  0  0
  140.0790   71.9470  223.1440 C   0  0  0  0  0  0  0  0  0  0  0  0
  140.7960   72.7680  222.2850 C   0  0  0  0  0  0  0  0  0  0  0  0
  140.2470   73.4500  221.2490 C   0  0  0  0  0  0  0  0  0  0  0  0
  140.6450   74.3420  220.1430 C   0  0  2  0  0  0  0  0  0  0  0  0
  141.9680   74.9110  220.1610 C   0  0  0  0  0  0  0  0  0  0  0  0
  142.4650   76.1850  219.9750 C   0  0  0  0  0  0  0  0  0  0  0  0
  143.8040   76.2040  220.0650 N   0  0  0  0  0  0  0  0  0  0  0  0
  144.2260   74.9540  220.3070 C   0  0  0  0  0  0  0  0  0  0  0  0
  145.4880   74.4630  220.4750 C   0  0  0  0  0  0  0  0  0  0  0  0
  145.6900   73.1330  220.7140 C   0  0  0  0  0  0  0  0  0  0  0  0
  144.6120   72.2750  220.7870 C   0  0  0  0  0  0  0  0  0  0  0  0
  143.3470   72.7980  220.6150 C   0  0  0  0  0  0  0  0  0  0  0  0
  143.1240   74.1360  220.3730 C   0  0  0  0  0  0  0  0  0  0  0  0
  138.8351   77.9146  220.2101 H   0  0  0  0  0  0  0  0  0  0  0  0
  138.0774   78.1303  221.8205 H   0  0  0  0  0  0  0  0  0  0  0  0
  140.7794   79.1070  219.8397 H   0  0  0  0  0  0  0  0  0  0  0  0
  142.8443   80.1789  220.6858 H   0  0  0  0  0  0  0  0  0  0  0  0
  143.4510   80.0692  223.0932 H   0  0  0  0  0  0  0  0  0  0  0  0
  141.9622   78.8590  224.6840 H   0  0  0  0  0  0  0  0  0  0  0  0
  139.9030   77.7912  223.8248 H   0  0  0  0  0  0  0  0  0  0  0  0
  137.4652   74.5431  219.9488 H   0  0  0  0  0  0  0  0  0  0  0  0
  138.4979   73.6594  218.9005 H   0  0  0  0  0  0  0  0  0  0  0  0
  137.0407   72.3693  221.7482 H   0  0  0  0  0  0  0  0  0  0  0  0
  138.1255   71.1386  223.6349 H   0  0  0  0  0  0  0  0  0  0  0  0
  140.5942   71.4251  223.9639 H   0  0  0  0  0  0  0  0  0  0  0  0
  141.8778   72.8722  222.4550 H   0  0  0  0  0  0  0  0  0  0  0  0
  140.8279   73.8148  219.1950 H   0  0  0  0  0  0  0  0  0  0  0  0
  141.8435   77.0710  219.7783 H   0  0  0  0  0  0  0  0  0  0  0  0
  144.4330   77.0350  219.9640 H   0  0  0  0  0  0  0  0  0  0  0  0
  146.3501   75.1438  220.4175 H   0  0  0  0  0  0  0  0  0  0  0  0
  146.7112   72.7467  220.8481 H   0  0  0  0  0  0  0  0  0  0  0  0
  144.7574   71.2014  220.9775 H   0  0  0  0  0  0  0  0  0  0  0  0
  142.4825   72.1203  220.6734 H   0  0  0  0  0  0  0  0  0  0  0  0
  1  2  2  0
  2  3  2  0
  2  4  1  0
  4  5  1  0
  5  6  2  0
  6  7  1  0
  7  8  2  0
  8  9  1  0
  9 10  2  0
  2 11  1  0
 11 12  1  0
 12 13  1  0
 13 14  2  0
 14 15  1  0
 15 16  2  0
 16 17  1  0
 17 18  2  0
 18 19  1  0
 19 20  1  0
 20 21  2  0
 21 22  1  0
 22 23  1  0
 23 24  2  0
 24 25  1  0
 25 26  2  0
 26 27  1  0
 27 28  2  0
 10  5  1  0
 19 11  1  0
 28 20  1  0
 18 13  1  0
 28 23  1  0
  4 29  1  0
  4 30  1  0
  6 31  1  0
  7 32  1  0
  8 33  1  0
  9 34  1  0
 10 35  1  0
 12 36  1  0
 12 37  1  0
 14 38  1  0
 15 39  1  0
 16 40  1  0
 17 41  1  0
 19 42  1  6
 21 43  1  0
 22 44  1  0
 24 45  1  0
 25 46  1  0
 26 47  1  0
 27 48  1  0
M  END
>  <smiles>  (5) 
O=S(=O)(Cc1ccccc1)N1Cc2ccccc2C1c1c[nH]c2ccccc12

>  <score_type>  (5) 
oracle

>  <origin>  (5) 
autodockgpu

>  <m_score__min__energy>  (5) 
-7.54

>  <m_primary>  (5) 
energy

>  <rmsd>  (5) 
7.71605295417728

>  <m_score__min__rmsd>  (5) 
7.71605295417728

>  <meeko>  (5) 
{"free_energy": -7.46, "intermolecular_energy": -8.66, "internal_energy": -1.7, "cluster_size": 25, "cluster_id": 1, "rank_in_cluster": 10}

>  <energy>  (5) 
-7.51

>  <cluster_rmsd>  (5) 
0.35

>  <cluster>  (5) 
1

$$$$

     RDKit          3D

 48 52  0  0  1  0  0  0  0  0999 V2000
  137.4870   75.2020  221.9210 O   0  0  0  0  0  0  0  0  0  0  0  0
  138.8620   75.6370  221.4880 S   0  0  0  0  0  0  0  0  0  0  0  0
  139.7470   75.4290  222.6760 O   0  0  0  0  0  0  0  0  0  0  0  0
  138.7370   77.3950  221.1290 C   0  0  0  0  0  0  0  0  0  0  0  0
  139.6170   78.1570  222.0910 C   0  0  0  0  0  0  0  0  0  0  0  0
  139.0550   79.0670  222.9640 C   0  0  0  0  0  0  0  0  0  0  0  0
  139.8740   79.7530  223.8370 C   0  0  0  0  0  0  0  0  0  0  0  0
  141.2520   79.5490  223.8570 C   0  0  0  0  0  0  0  0  0  0  0  0
  141.8150   78.6430  222.9880 C   0  0  0  0  0  0  0  0  0  0  0  0
  140.9840   77.9620  222.1190 C   0  0  0  0  0  0  0  0  0  0  0  0
  139.3850   74.8590  220.0540 N   0  0  0  0  0  0  0  0  0  0  0  0
  138.4320   73.7210  219.8950 C   0  0  0  0  0  0  0  0  0  0  0  0
  138.8330   72.9480  221.1290 C   0  0  0  0  0  0  0  0  0  0  0  0
  138.1410   72.1360  222.0120 C   0  0  0  0  0  0  0  0  0  0  0  0
  138.7620   71.5440  223.1090 C   0  0  0  0  0  0  0  0  0  0  0  0
  140.1100   71.8000  223.2880 C   0  0  0  0  0  0  0  0  0  0  0  0
  140.7860   72.6170  222.3920 C   0  0  0  0  0  0  0  0  0  0  0  0
  140.2090   73.2050  221.3140 C   0  0  0  0  0  0  0  0  0  0  0  0
  140.5650   74.0590  220.1650 C   0  0  2  0  0  0  0  0  0  0  0  0
  141.8490   74.7110  220.1640 C   0  0  0  0  0  0  0  0  0  0  0  0
  142.2640   76.0090  219.9500 C   0  0  0  0  0  0  0  0  0  0  0  0
  143.6000   76.1140  220.0320 N   0  0  0  0  0  0  0  0  0  0  0  0
  144.1000   74.8990  220.2980 C   0  0  0  0  0  0  0  0  0  0  0  0
  145.3920   74.4920  220.4690 C   0  0  0  0  0  0  0  0  0  0  0  0
  145.6780   73.1830  220.7340 C   0  0  0  0  0  0  0  0  0  0  0  0
  144.6570   72.2610  220.8310 C   0  0  0  0  0  0  0  0  0  0  0  0
  143.3610   72.6990  220.6540 C   0  0  0  0  0  0  0  0  0  0  0  0
  143.0520   74.0150  220.3860 C   0  0  0  0  0  0  0  0  0  0  0  0
  139.0675   77.5851  220.0972 H   0  0  0  0  0  0  0  0  0  0  0  0
  137.6932   77.7237  221.2401 H   0  0  0  0  0  0  0  0  0  0  0  0
  137.9691   79.2427  222.9635 H   0  0  0  0  0  0  0  0  0  0  0  0
  139.4284   80.4782  224.5338 H   0  0  0  0  0  0  0  0  0  0  0  0
  141.8849   80.1079  224.5620 H   0  0  0  0  0  0  0  0  0  0  0  0
  142.9005   78.4650  222.9851 H   0  0  0  0  0  0  0  0  0  0  0  0
  141.4286   77.2362  221.4223 H   0  0  0  0  0  0  0  0  0  0  0  0
  137.3820   74.0472  219.9290 H   0  0  0  0  0  0  0  0  0  0  0  0
  138.4826   73.1746  218.9417 H   0  0  0  0  0  0  0  0  0  0  0  0
  137.0697   71.9533  221.8419 H   0  0  0  0  0  0  0  0  0  0  0  0
  138.2040   70.8996  223.8043 H   0  0  0  0  0  0  0  0  0  0  0  0
  140.6458   71.3563  224.1400 H   0  0  0  0  0  0  0  0  0  0  0  0
  141.8566   72.7990  222.5670 H   0  0  0  0  0  0  0  0  0  0  0  0
  140.7935   73.4930  219.2499 H   0  0  0  0  0  0  0  0  0  0  0  0
  141.5872   76.8501  219.7392 H   0  0  0  0  0  0  0  0  0  0  0  0
  144.1740   76.9820  219.9110 H   0  0  0  0  0  0  0  0  0  0  0  0
  146.2093   75.2243  220.3927 H   0  0  0  0  0  0  0  0  0  0  0  0
  146.7220   72.8644  220.8700 H   0  0  0  0  0  0  0  0  0  0  0  0
  144.8707   71.2032  221.0441 H   0  0  0  0  0  0  0  0  0  0  0  0
  142.5417   71.9689  220.7298 H   0  0  0  0  0  0  0  0  0  0  0  0
  1  2  2  0
  2  3  2  0
  2  4  1  0
  4  5  1  0
  5  6  2  0
  6  7  1  0
  7  8  2  0
  8  9  1  0
  9 10  2  0
  2 11  1  0
 11 12  1  0
 12 13  1  0
 13 14  2  0
 14 15  1  0
 15 16  2  0
 16 17  1  0
 17 18  2  0
 18 19  1  0
 19 20  1  0
 20 21  2  0
 21 22  1  0
 22 23  1  0
 23 24  2  0
 24 25  1  0
 25 26  2  0
 26 27  1  0
 27 28  2  0
 10  5  1  0
 19 11  1  0
 28 20  1  0
 18 13  1  0
 28 23  1  0
  4 29  1  0
  4 30  1  0
  6 31  1  0
  7 32  1  0
  8 33  1  0
  9 34  1  0
 10 35  1  0
 12 36  1  0
 12 37  1  0
 14 38  1  0
 15 39  1  0
 16 40  1  0
 17 41  1  0
 19 42  1  6
 21 43  1  0
 22 44  1  0
 24 45  1  0
 25 46  1  0
 26 47  1  0
 27 48  1  0
M  END
>  <smiles>  (6) 
O=S(=O)(Cc1ccccc1)N1Cc2ccccc2C1c1c[nH]c2ccccc12

>  <score_type>  (6) 
oracle

>  <origin>  (6) 
autodockgpu

>  <m_score__min__energy>  (6) 
-7.54

>  <m_primary>  (6) 
energy

>  <rmsd>  (6) 
7.866035907893563

>  <m_score__min__rmsd>  (6) 
7.866035907893563

>  <meeko>  (6) 
{"free_energy": -7.54, "intermolecular_energy": -8.74, "internal_energy": -1.61, "cluster_size": 25, "cluster_id": 1, "rank_in_cluster": 1}

>  <energy>  (6) 
-7.49

>  <cluster_rmsd>  (6) 
0.75

>  <cluster>  (6) 
1

$$$$

     RDKit          3D

 48 52  0  0  1  0  0  0  0  0999 V2000
  137.5650   75.1910  221.9980 O   0  0  0  0  0  0  0  0  0  0  0  0
  138.9310   75.6130  221.5240 S   0  0  0  0  0  0  0  0  0  0  0  0
  139.8450   75.4170  222.6910 O   0  0  0  0  0  0  0  0  0  0  0  0
  138.8050   77.3670  221.1440 C   0  0  0  0  0  0  0  0  0  0  0  0
  139.6820   78.1410  222.0980 C   0  0  0  0  0  0  0  0  0  0  0  0
  141.0510   77.9680  222.0690 C   0  0  0  0  0  0  0  0  0  0  0  0
  141.8370   78.6840  222.9480 C   0  0  0  0  0  0  0  0  0  0  0  0
  141.2810   79.5760  223.8630 C   0  0  0  0  0  0  0  0  0  0  0  0
  139.9170   79.7490  223.8950 C   0  0  0  0  0  0  0  0  0  0  0  0
  139.1400   79.0270  223.0090 C   0  0  0  0  0  0  0  0  0  0  0  0
  139.4130   74.8130  220.0880 N   0  0  0  0  0  0  0  0  0  0  0  0
  138.4080   73.7220  219.9300 C   0  0  0  0  0  0  0  0  0  0  0  0
  138.7750   72.9290  221.1620 C   0  0  0  0  0  0  0  0  0  0  0  0
  138.0470   72.1490  222.0460 C   0  0  0  0  0  0  0  0  0  0  0  0
  138.6430   71.5270  223.1410 C   0  0  0  0  0  0  0  0  0  0  0  0
  140.0010   71.7200  223.3170 C   0  0  0  0  0  0  0  0  0  0  0  0
  140.7130   72.5050  222.4200 C   0  0  0  0  0  0  0  0  0  0  0  0
  140.1620   73.1210  221.3440 C   0  0  0  0  0  0  0  0  0  0  0  0
  140.5550   73.9580  220.1950 C   0  0  2  0  0  0  0  0  0  0  0  0
  141.8680   74.5490  220.1920 C   0  0  0  0  0  0  0  0  0  0  0  0
  142.3370   75.8400  220.0670 C   0  0  0  0  0  0  0  0  0  0  0  0
  143.6790   75.8780  220.0990 N   0  0  0  0  0  0  0  0  0  0  0  0
  144.1300   74.6240  220.2430 C   0  0  0  0  0  0  0  0  0  0  0  0
  145.4060   74.1450  220.3240 C   0  0  0  0  0  0  0  0  0  0  0  0
  145.6380   72.8070  220.4690 C   0  0  0  0  0  0  0  0  0  0  0  0
  144.5780   71.9270  220.5340 C   0  0  0  0  0  0  0  0  0  0  0  0
  143.2980   72.4370  220.4500 C   0  0  0  0  0  0  0  0  0  0  0  0
  143.0440   73.7830  220.3040 C   0  0  0  0  0  0  0  0  0  0  0  0
  139.1372   77.5452  220.1106 H   0  0  0  0  0  0  0  0  0  0  0  0
  137.7606   77.6959  221.2494 H   0  0  0  0  0  0  0  0  0  0  0  0
  141.5093   77.2685  221.3544 H   0  0  0  0  0  0  0  0  0  0  0  0
  142.9283   78.5476  222.9261 H   0  0  0  0  0  0  0  0  0  0  0  0
  141.9276   80.1370  224.5538 H   0  0  0  0  0  0  0  0  0  0  0  0
  139.4550   80.4462  224.6095 H   0  0  0  0  0  0  0  0  0  0  0  0
  138.0486   79.1629  223.0299 H   0  0  0  0  0  0  0  0  0  0  0  0
  137.3746   74.0971  219.9669 H   0  0  0  0  0  0  0  0  0  0  0  0
  138.4308   73.1752  218.9758 H   0  0  0  0  0  0  0  0  0  0  0  0
  136.9679   72.0171  221.8785 H   0  0  0  0  0  0  0  0  0  0  0  0
  138.0576   70.9080  223.8368 H   0  0  0  0  0  0  0  0  0  0  0  0
  140.5173   71.2515  224.1679 H   0  0  0  0  0  0  0  0  0  0  0  0
  141.7915   72.6357  222.5925 H   0  0  0  0  0  0  0  0  0  0  0  0
  140.7544   73.3830  219.2787 H   0  0  0  0  0  0  0  0  0  0  0  0
  141.6939   76.7254  219.9554 H   0  0  0  0  0  0  0  0  0  0  0  0
  144.2890   76.7260  220.0250 H   0  0  0  0  0  0  0  0  0  0  0  0
  146.2546   74.8429  220.2720 H   0  0  0  0  0  0  0  0  0  0  0  0
  146.6698   72.4313  220.5339 H   0  0  0  0  0  0  0  0  0  0  0  0
  144.7482   70.8464  220.6498 H   0  0  0  0  0  0  0  0  0  0  0  0
  142.4475   71.7413  220.5017 H   0  0  0  0  0  0  0  0  0  0  0  0
  1  2  2  0
  2  3  2  0
  2  4  1  0
  4  5  1  0
  5  6  2  0
  6  7  1  0
  7  8  2  0
  8  9  1  0
  9 10  2  0
  2 11  1  0
 11 12  1  0
 12 13  1  0
 13 14  2  0
 14 15  1  0
 15 16  2  0
 16 17  1  0
 17 18  2  0
 18 19  1  0
 19 20  1  0
 20 21  2  0
 21 22  1  0
 22 23  1  0
 23 24  2  0
 24 25  1  0
 25 26  2  0
 26 27  1  0
 27 28  2  0
 10  5  1  0
 19 11  1  0
 28 20  1  0
 18 13  1  0
 28 23  1  0
  4 29  1  0
  4 30  1  0
  6 31  1  0
  7 32  1  0
  8 33  1  0
  9 34  1  0
 10 35  1  0
 12 36  1  0
 12 37  1  0
 14 38  1  0
 15 39  1  0
 16 40  1  0
 17 41  1  0
 19 42  1  6
 21 43  1  0
 22 44  1  0
 24 45  1  0
 25 46  1  0
 26 47  1  0
 27 48  1  0
M  END
>  <smiles>  (7) 
O=S(=O)(Cc1ccccc1)N1Cc2ccccc2C1c1c[nH]c2ccccc12

>  <score_type>  (7) 
oracle

>  <origin>  (7) 
autodockgpu

>  <m_score__min__energy>  (7) 
-7.54

>  <m_primary>  (7) 
energy

>  <rmsd>  (7) 
8.001032018862613

>  <m_score__min__rmsd>  (7) 
8.001032018862613

>  <meeko>  (7) 
{"free_energy": -7.38, "intermolecular_energy": -8.57, "internal_energy": -1.63, "cluster_size": 25, "cluster_id": 1, "rank_in_cluster": 21}

>  <energy>  (7) 
-7.49

>  <cluster_rmsd>  (7) 
0.63

>  <cluster>  (7) 
1

$$$$

     RDKit          3D

 48 52  0  0  1  0  0  0  0  0999 V2000
  138.1320   76.0830  223.0510 O   0  0  0  0  0  0  0  0  0  0  0  0
  139.1970   76.7550  222.2250 S   0  0  0  0  0  0  0  0  0  0  0  0
  140.5020   76.2960  222.7940 O   0  0  0  0  0  0  0  0  0  0  0  0
  139.0040   78.5210  222.5070 C   0  0  0  0  0  0  0  0  0  0  0  0
  140.3700   79.1580  222.5880 C   0  0  0  0  0  0  0  0  0  0  0  0
  141.0620   79.1530  223.7830 C   0  0  0  0  0  0  0  0  0  0  0  0
  142.3100   79.7390  223.8390 C   0  0  0  0  0  0  0  0  0  0  0  0
  142.8870   80.3340  222.7190 C   0  0  0  0  0  0  0  0  0  0  0  0
  142.2000   80.3400  221.5270 C   0  0  0  0  0  0  0  0  0  0  0  0
  140.9510   79.7500  221.4840 C   0  0  0  0  0  0  0  0  0  0  0  0
  139.0060   76.4820  220.5450 N   0  0  0  0  0  0  0  0  0  0  0  0
  137.9670   75.4140  220.4700 C   0  0  0  0  0  0  0  0  0  0  0  0
  138.7640   74.3120  221.1280 C   0  0  0  0  0  0  0  0  0  0  0  0
  138.4210   73.2390  221.9330 C   0  0  0  0  0  0  0  0  0  0  0  0
  139.3790   72.3600  222.4360 C   0  0  0  0  0  0  0  0  0  0  0  0
  140.6990   72.6020  222.1000 C   0  0  0  0  0  0  0  0  0  0  0  0
  141.0210   73.6830  221.2910 C   0  0  0  0  0  0  0  0  0  0  0  0
  140.1120   74.5530  220.7850 C   0  0  0  0  0  0  0  0  0  0  0  0
  140.0450   75.7350  219.9050 C   0  0  2  0  0  0  0  0  0  0  0  0
  141.2710   76.4060  219.5590 C   0  0  0  0  0  0  0  0  0  0  0  0
  142.6040   76.1510  219.8060 C   0  0  0  0  0  0  0  0  0  0  0  0
  143.3890   77.1080  219.2850 N   0  0  0  0  0  0  0  0  0  0  0  0
  142.6030   78.0140  218.6860 C   0  0  0  0  0  0  0  0  0  0  0  0
  142.9230   79.1640  218.0220 C   0  0  0  0  0  0  0  0  0  0  0  0
  141.9450   79.9510  217.4850 C   0  0  0  0  0  0  0  0  0  0  0  0
  140.6200   79.5860  217.6120 C   0  0  0  0  0  0  0  0  0  0  0  0
  140.3240   78.4200  218.2870 C   0  0  0  0  0  0  0  0  0  0  0  0
  141.2970   77.6130  218.8360 C   0  0  0  0  0  0  0  0  0  0  0  0
  138.4376   78.9674  221.6764 H   0  0  0  0  0  0  0  0  0  0  0  0
  138.4590   78.6897  223.4475 H   0  0  0  0  0  0  0  0  0  0  0  0
  140.6241   78.6880  224.6785 H   0  0  0  0  0  0  0  0  0  0  0  0
  142.8624   79.7363  224.7903 H   0  0  0  0  0  0  0  0  0  0  0  0
  143.8834   80.7951  222.7872 H   0  0  0  0  0  0  0  0  0  0  0  0
  142.6347   80.8036  220.6291 H   0  0  0  0  0  0  0  0  0  0  0  0
  140.3980   79.7521  220.5331 H   0  0  0  0  0  0  0  0  0  0  0  0
  137.0610   75.6714  221.0383 H   0  0  0  0  0  0  0  0  0  0  0  0
  137.5673   75.1939  219.4691 H   0  0  0  0  0  0  0  0  0  0  0  0
  137.3623   73.0754  222.1828 H   0  0  0  0  0  0  0  0  0  0  0  0
  139.0970   71.5092  223.0737 H   0  0  0  0  0  0  0  0  0  0  0  0
  141.4927   71.9383  222.4736 H   0  0  0  0  0  0  0  0  0  0  0  0
  142.0809   73.8442  221.0446 H   0  0  0  0  0  0  0  0  0  0  0  0
  139.8221   75.4910  218.8558 H   0  0  0  0  0  0  0  0  0  0  0  0
  142.9763   75.2759  220.3589 H   0  0  0  0  0  0  0  0  0  0  0  0
  144.4340   77.1610  219.3270 H   0  0  0  0  0  0  0  0  0  0  0  0
  143.9778   79.4586  217.9190 H   0  0  0  0  0  0  0  0  0  0  0  0
  142.2128   80.8750  216.9517 H   0  0  0  0  0  0  0  0  0  0  0  0
  139.8201   80.2093  217.1857 H   0  0  0  0  0  0  0  0  0  0  0  0
  139.2701   78.1227  218.3912 H   0  0  0  0  0  0  0  0  0  0  0  0
  1  2  2  0
  2  3  2  0
  2  4  1  0
  4  5  1  0
  5  6  2  0
  6  7  1  0
  7  8  2  0
  8  9  1  0
  9 10  2  0
  2 11  1  0
 11 12  1  0
 12 13  1  0
 13 14  2  0
 14 15  1  0
 15 16  2  0
 16 17  1  0
 17 18  2  0
 18 19  1  0
 19 20  1  0
 20 21  2  0
 21 22  1  0
 22 23  1  0
 23 24  2  0
 24 25  1  0
 25 26  2  0
 26 27  1  0
 27 28  2  0
 10  5  1  0
 19 11  1  0
 28 20  1  0
 18 13  1  0
 28 23  1  0
  4 29  1  0
  4 30  1  0
  6 31  1  0
  7 32  1  0
  8 33  1  0
  9 34  1  0
 10 35  1  0
 12 36  1  0
 12 37  1  0
 14 38  1  0
 15 39  1  0
 16 40  1  0
 17 41  1  0
 19 42  1  6
 21 43  1  0
 22 44  1  0
 24 45  1  0
 25 46  1  0
 26 47  1  0
 27 48  1  0
M  END
>  <smiles>  (8) 
O=S(=O)(Cc1ccccc1)N1Cc2ccccc2C1c1c[nH]c2ccccc12

>  <score_type>  (8) 
oracle

>  <origin>  (8) 
autodockgpu

>  <m_score__min__energy>  (8) 
-7.54

>  <m_primary>  (8) 
energy

>  <rmsd>  (8) 
5.211283318592945

>  <m_score__min__rmsd>  (8) 
5.211283318592945

>  <meeko>  (8) 
{"free_energy": -6.56, "intermolecular_energy": -7.75, "internal_energy": -2.27, "cluster_size": 5, "cluster_id": 4, "rank_in_cluster": 3}

>  <energy>  (8) 
-7.48

>  <cluster_rmsd>  (8) 
0.64

>  <cluster>  (8) 
1

$$$$

     RDKit          3D

 48 52  0  0  1  0  0  0  0  0999 V2000
  138.0210   76.0540  222.9360 O   0  0  0  0  0  0  0  0  0  0  0  0
  139.1210   76.6870  222.1250 S   0  0  0  0  0  0  0  0  0  0  0  0
  140.4010   76.2330  222.7520 O   0  0  0  0  0  0  0  0  0  0  0  0
  138.9390   78.4630  222.3410 C   0  0  0  0  0  0  0  0  0  0  0  0
  140.3080   79.0840  222.4790 C   0  0  0  0  0  0  0  0  0  0  0  0
  140.9180   79.6580  221.3810 C   0  0  0  0  0  0  0  0  0  0  0  0
  142.1700   80.2200  221.5260 C   0  0  0  0  0  0  0  0  0  0  0  0
  142.8310   80.2230  222.7530 C   0  0  0  0  0  0  0  0  0  0  0  0
  142.2250   79.6510  223.8480 C   0  0  0  0  0  0  0  0  0  0  0  0
  140.9720   79.0910  223.6910 C   0  0  0  0  0  0  0  0  0  0  0  0
  138.9830   76.3590  220.4490 N   0  0  0  0  0  0  0  0  0  0  0  0
  137.9770   75.2590  220.3790 C   0  0  0  0  0  0  0  0  0  0  0  0
  138.7860   74.2000  221.0910 C   0  0  0  0  0  0  0  0  0  0  0  0
  138.4530   73.1420  221.9190 C   0  0  0  0  0  0  0  0  0  0  0  0
  139.4210   72.3070  222.4720 C   0  0  0  0  0  0  0  0  0  0  0  0
  140.7420   72.5770  222.1640 C   0  0  0  0  0  0  0  0  0  0  0  0
  141.0560   73.6430  221.3310 C   0  0  0  0  0  0  0  0  0  0  0  0
  140.1360   74.4710  220.7760 C   0  0  0  0  0  0  0  0  0  0  0  0
  140.0590   75.6240  219.8590 C   0  0  2  0  0  0  0  0  0  0  0  0
  141.2750   76.3200  219.5250 C   0  0  0  0  0  0  0  0  0  0  0  0
  142.6100   76.0930  219.7870 C   0  0  0  0  0  0  0  0  0  0  0  0
  143.3800   77.0660  219.2720 N   0  0  0  0  0  0  0  0  0  0  0  0
  142.5820   77.9550  218.6640 C   0  0  0  0  0  0  0  0  0  0  0  0
  142.8850   79.1090  218.0020 C   0  0  0  0  0  0  0  0  0  0  0  0
  141.8970   79.8760  217.4540 C   0  0  0  0  0  0  0  0  0  0  0  0
  140.5790   79.4840  217.5670 C   0  0  0  0  0  0  0  0  0  0  0  0
  140.3000   78.3120  218.2400 C   0  0  0  0  0  0  0  0  0  0  0  0
  141.2830   77.5260  218.8010 C   0  0  0  0  0  0  0  0  0  0  0  0
  138.4266   78.8903  221.4664 H   0  0  0  0  0  0  0  0  0  0  0  0
  138.3448   78.6687  223.2436 H   0  0  0  0  0  0  0  0  0  0  0  0
  140.4127   79.6671  220.4040 H   0  0  0  0  0  0  0  0  0  0  0  0
  142.6580   80.6765  220.6522 H   0  0  0  0  0  0  0  0  0  0  0  0
  143.8280   80.6785  222.8452 H   0  0  0  0  0  0  0  0  0  0  0  0
  142.7272   79.6399  224.8266 H   0  0  0  0  0  0  0  0  0  0  0  0
  140.4841   78.6331  224.5641 H   0  0  0  0  0  0  0  0  0  0  0  0
  137.0488   75.5067  220.9149 H   0  0  0  0  0  0  0  0  0  0  0  0
  137.6117   74.9979  219.3748 H   0  0  0  0  0  0  0  0  0  0  0  0
  137.3932   72.9552  222.1469 H   0  0  0  0  0  0  0  0  0  0  0  0
  139.1460   71.4671  223.1270 H   0  0  0  0  0  0  0  0  0  0  0  0
  141.5435   71.9478  222.5785 H   0  0  0  0  0  0  0  0  0  0  0  0
  142.1171   73.8274  221.1073 H   0  0  0  0  0  0  0  0  0  0  0  0
  139.8709   75.3429  218.8123 H   0  0  0  0  0  0  0  0  0  0  0  0
  142.9946   75.2270  220.3456 H   0  0  0  0  0  0  0  0  0  0  0  0
  144.4240   77.1400  219.3250 H   0  0  0  0  0  0  0  0  0  0  0  0
  143.9347   79.4244  217.9089 H   0  0  0  0  0  0  0  0  0  0  0  0
  142.1516   80.8052  216.9231 H   0  0  0  0  0  0  0  0  0  0  0  0
  139.7710   80.0903  217.1317 H   0  0  0  0  0  0  0  0  0  0  0  0
  139.2514   77.9926  218.3323 H   0  0  0  0  0  0  0  0  0  0  0  0
  1  2  2  0
  2  3  2  0
  2  4  1  0
  4  5  1  0
  5  6  2  0
  6  7  1  0
  7  8  2  0
  8  9  1  0
  9 10  2  0
  2 11  1  0
 11 12  1  0
 12 13  1  0
 13 14  2  0
 14 15  1  0
 15 16  2  0
 16 17  1  0
 17 18  2  0
 18 19  1  0
 19 20  1  0
 20 21  2  0
 21 22  1  0
 22 23  1  0
 23 24  2  0
 24 25  1  0
 25 26  2  0
 26 27  1  0
 27 28  2  0
 10  5  1  0
 19 11  1  0
 28 20  1  0
 18 13  1  0
 28 23  1  0
  4 29  1  0
  4 30  1  0
  6 31  1  0
  7 32  1  0
  8 33  1  0
  9 34  1  0
 10 35  1  0
 12 36  1  0
 12 37  1  0
 14 38  1  0
 15 39  1  0
 16 40  1  0
 17 41  1  0
 19 42  1  6
 21 43  1  0
 22 44  1  0
 24 45  1  0
 25 46  1  0
 26 47  1  0
 27 48  1  0
M  END
>  <smiles>  (9) 
O=S(=O)(Cc1ccccc1)N1Cc2ccccc2C1c1c[nH]c2ccccc12

>  <score_type>  (9) 
oracle

>  <origin>  (9) 
autodockgpu

>  <m_score__min__energy>  (9) 
-7.54

>  <m_primary>  (9) 
energy

>  <rmsd>  (9) 
5.286406325368389

>  <m_score__min__rmsd>  (9) 
5.286406325368389

>  <meeko>  (9) 
{"free_energy": -6.55, "intermolecular_energy": -7.74, "internal_energy": -2.28, "cluster_size": 5, "cluster_id": 4, "rank_in_cluster": 5}

>  <energy>  (9) 
-7.47

>  <cluster_rmsd>  (9) 
0.38

>  <cluster>  (9) 
1

$$$$

     RDKit          3D

 48 52  0  0  1  0  0  0  0  0999 V2000
  140.5980   75.4660  218.7850 O   0  0  0  0  0  0  0  0  0  0  0  0
  140.5170   76.7070  219.6340 S   0  0  0  0  0  0  0  0  0  0  0  0
  139.0580   76.9780  219.8200 O   0  0  0  0  0  0  0  0  0  0  0  0
  141.2550   78.0260  218.6580 C   0  0  0  0  0  0  0  0  0  0  0  0
  140.9740   79.3490  219.3280 C   0  0  0  0  0  0  0  0  0  0  0  0
  139.6700   79.7540  219.5310 C   0  0  0  0  0  0  0  0  0  0  0  0
  139.4330   80.9670  220.1460 C   0  0  0  0  0  0  0  0  0  0  0  0
  140.4760   81.7890  220.5650 C   0  0  0  0  0  0  0  0  0  0  0  0
  141.7760   81.3880  220.3630 C   0  0  0  0  0  0  0  0  0  0  0  0
  142.0020   80.1720  219.7470 C   0  0  0  0  0  0  0  0  0  0  0  0
  141.4180   76.5800  221.0850 N   0  0  0  0  0  0  0  0  0  0  0  0
  141.7240   75.1230  221.1910 C   0  0  0  0  0  0  0  0  0  0  0  0
  140.3060   74.6320  221.3690 C   0  0  0  0  0  0  0  0  0  0  0  0
  139.6440   73.4760  220.9920 C   0  0  0  0  0  0  0  0  0  0  0  0
  138.2930   73.2770  221.2710 C   0  0  0  0  0  0  0  0  0  0  0  0
  137.6300   74.2880  221.9420 C   0  0  0  0  0  0  0  0  0  0  0  0
  138.3120   75.4400  222.3110 C   0  0  0  0  0  0  0  0  0  0  0  0
  139.6260   75.6600  222.0560 C   0  0  0  0  0  0  0  0  0  0  0  0
  140.6720   76.6720  222.3010 C   0  0  2  0  0  0  0  0  0  0  0  0
  140.2730   77.9720  222.7760 C   0  0  0  0  0  0  0  0  0  0  0  0
  139.0550   78.5710  223.0180 C   0  0  0  0  0  0  0  0  0  0  0  0
  139.2080   79.8370  223.4380 N   0  0  0  0  0  0  0  0  0  0  0  0
  140.5200   80.1080  223.4810 C   0  0  0  0  0  0  0  0  0  0  0  0
  141.1770   81.2510  223.8370 C   0  0  0  0  0  0  0  0  0  0  0  0
  142.5410   81.3070  223.8040 C   0  0  0  0  0  0  0  0  0  0  0  0
  143.2660   80.2020  223.4090 C   0  0  0  0  0  0  0  0  0  0  0  0
  142.5780   79.0590  223.0550 C   0  0  0  0  0  0  0  0  0  0  0  0
  141.2030   78.9840  223.0820 C   0  0  0  0  0  0  0  0  0  0  0  0
  142.3418   77.8706  218.5898 H   0  0  0  0  0  0  0  0  0  0  0  0
  140.8259   78.0237  217.6452 H   0  0  0  0  0  0  0  0  0  0  0  0
  138.8319   79.1193  219.2074 H   0  0  0  0  0  0  0  0  0  0  0  0
  138.3949   81.2922  220.3090 H   0  0  0  0  0  0  0  0  0  0  0  0
  140.2619   82.7511  221.0535 H   0  0  0  0  0  0  0  0  0  0  0  0
  142.6164   82.0207  220.6844 H   0  0  0  0  0  0  0  0  0  0  0  0
  143.0400   79.8466  219.5838 H   0  0  0  0  0  0  0  0  0  0  0  0
  142.1922   74.7266  220.2779 H   0  0  0  0  0  0  0  0  0  0  0  0
  142.4408   74.8325  221.9732 H   0  0  0  0  0  0  0  0  0  0  0  0
  140.2002   72.6921  220.4570 H   0  0  0  0  0  0  0  0  0  0  0  0
  137.7757   72.3541  220.9699 H   0  0  0  0  0  0  0  0  0  0  0  0
  136.5623   74.1797  222.1835 H   0  0  0  0  0  0  0  0  0  0  0  0
  137.7518   76.2229  222.8432 H   0  0  0  0  0  0  0  0  0  0  0  0
  141.2775   76.4730  223.1975 H   0  0  0  0  0  0  0  0  0  0  0  0
  138.0823   78.0751  222.8841 H   0  0  0  0  0  0  0  0  0  0  0  0
  138.4510   80.5150  223.6900 H   0  0  0  0  0  0  0  0  0  0  0  0
  140.6025   82.1342  224.1531 H   0  0  0  0  0  0  0  0  0  0  0  0
  143.0611   82.2324  224.0921 H   0  0  0  0  0  0  0  0  0  0  0  0
  144.3652   80.2310  223.3769 H   0  0  0  0  0  0  0  0  0  0  0  0
  143.1498   78.1740  222.7392 H   0  0  0  0  0  0  0  0  0  0  0  0
  1  2  2  0
  2  3  2  0
  2  4  1  0
  4  5  1  0
  5  6  2  0
  6  7  1  0
  7  8  2  0
  8  9  1  0
  9 10  2  0
  2 11  1  0
 11 12  1  0
 12 13  1  0
 13 14  2  0
 14 15  1  0
 15 16  2  0
 16 17  1  0
 17 18  2  0
 18 19  1  0
 19 20  1  0
 20 21  2  0
 21 22  1  0
 22 23  1  0
 23 24  2  0
 24 25  1  0
 25 26  2  0
 26 27  1  0
 27 28  2  0
 10  5  1  0
 19 11  1  0
 28 20  1  0
 18 13  1  0
 28 23  1  0
  4 29  1  0
  4 30  1  0
  6 31  1  0
  7 32  1  0
  8 33  1  0
  9 34  1  0
 10 35  1  0
 12 36  1  0
 12 37  1  0
 14 38  1  0
 15 39  1  0
 16 40  1  0
 17 41  1  0
 19 42  1  1
 21 43  1  0
 22 44  1  0
 24 45  1  0
 25 46  1  0
 26 47  1  0
 27 48  1  0
M  END
>  <smiles>  (10) 
O=S(=O)(Cc1ccccc1)N1Cc2ccccc2C1c1c[nH]c2ccccc12

>  <score_type>  (10) 
oracle

>  <origin>  (10) 
autodockgpu

>  <m_score__min__energy>  (10) 
-7.54

>  <m_primary>  (10) 
energy

>  <rmsd>  (10) 
4.56181451384418

>  <m_score__min__rmsd>  (10) 
4.56181451384418

>  <meeko>  (10) 
{"free_energy": -6.26, "intermolecular_energy": -7.45, "internal_energy": -2.61, "cluster_size": 17, "cluster_id": 5, "rank_in_cluster": 10}

>  <energy>  (10) 
-7.46

>  <cluster_rmsd>  (10) 
0.64

>  <cluster>  (10) 
1

$$$$

     RDKit          3D

 48 52  0  0  1  0  0  0  0  0999 V2000
  135.2300   69.9250  222.6370 O   0  0  0  0  0  0  0  0  0  0  0  0
  136.0830   69.3840  223.7530 S   0  0  0  0  0  0  0  0  0  0  0  0
  136.7320   68.1510  223.2080 O   0  0  0  0  0  0  0  0  0  0  0  0
  134.9470   68.9340  225.0740 C   0  0  0  0  0  0  0  0  0  0  0  0
  134.3990   70.1930  225.7000 C   0  0  0  0  0  0  0  0  0  0  0  0
  134.4290   70.3500  227.0710 C   0  0  0  0  0  0  0  0  0  0  0  0
  133.9240   71.5080  227.6260 C   0  0  0  0  0  0  0  0  0  0  0  0
  133.3850   72.5200  226.8350 C   0  0  0  0  0  0  0  0  0  0  0  0
  133.3530   72.3670  225.4690 C   0  0  0  0  0  0  0  0  0  0  0  0
  133.8620   71.2030  224.9250 C   0  0  0  0  0  0  0  0  0  0  0  0
  137.1670   70.5490  224.3870 N   0  0  0  0  0  0  0  0  0  0  0  0
  137.1800   71.6270  223.3550 C   0  0  0  0  0  0  0  0  0  0  0  0
  137.8080   70.8280  222.2370 C   0  0  0  0  0  0  0  0  0  0  0  0
  137.6740   70.8480  220.8590 C   0  0  0  0  0  0  0  0  0  0  0  0
  138.3750   69.9660  220.0380 C   0  0  0  0  0  0  0  0  0  0  0  0
  139.2170   69.0590  220.6560 C   0  0  0  0  0  0  0  0  0  0  0  0
  139.3380   69.0560  222.0400 C   0  0  0  0  0  0  0  0  0  0  0  0
  138.6710   69.9020  222.8630 C   0  0  0  0  0  0  0  0  0  0  0  0
  138.5580   70.2310  224.2970 C   0  0  2  0  0  0  0  0  0  0  0  0
  139.1270   69.3210  225.2580 C   0  0  0  0  0  0  0  0  0  0  0  0
  139.0920   67.9510  225.4170 C   0  0  0  0  0  0  0  0  0  0  0  0
  139.7720   67.5690  226.5100 N   0  0  0  0  0  0  0  0  0  0  0  0
  140.2680   68.6660  227.1000 C   0  0  0  0  0  0  0  0  0  0  0  0
  141.0190   68.8000  228.2320 C   0  0  0  0  0  0  0  0  0  0  0  0
  141.4190   70.0350  228.6580 C   0  0  0  0  0  0  0  0  0  0  0  0
  141.0620   71.1590  227.9430 C   0  0  0  0  0  0  0  0  0  0  0  0
  140.3030   70.9960  226.8020 C   0  0  0  0  0  0  0  0  0  0  0  0
  139.8910   69.7590  226.3570 C   0  0  0  0  0  0  0  0  0  0  0  0
  134.1202   68.3367  224.6621 H   0  0  0  0  0  0  0  0  0  0  0  0
  135.4767   68.3409  225.8340 H   0  0  0  0  0  0  0  0  0  0  0  0
  134.8501   69.5621  227.7129 H   0  0  0  0  0  0  0  0  0  0  0  0
  133.9476   71.6349  228.7184 H   0  0  0  0  0  0  0  0  0  0  0  0
  132.9880   73.4346  227.2997 H   0  0  0  0  0  0  0  0  0  0  0  0
  132.9321   73.1526  224.8243 H   0  0  0  0  0  0  0  0  0  0  0  0
  133.8387   71.0757  223.8326 H   0  0  0  0  0  0  0  0  0  0  0  0
  136.1679   71.9759  223.1021 H   0  0  0  0  0  0  0  0  0  0  0  0
  137.6925   72.5598  223.6330 H   0  0  0  0  0  0  0  0  0  0  0  0
  136.9949   71.5809  220.3989 H   0  0  0  0  0  0  0  0  0  0  0  0
  138.2632   69.9903  218.9440 H   0  0  0  0  0  0  0  0  0  0  0  0
  139.7904   68.3405  220.0519 H   0  0  0  0  0  0  0  0  0  0  0  0
  140.0175   68.3213  222.4966 H   0  0  0  0  0  0  0  0  0  0  0  0
  139.2127   71.0566  224.6128 H   0  0  0  0  0  0  0  0  0  0  0  0
  138.5735   67.2602  224.7358 H   0  0  0  0  0  0  0  0  0  0  0  0
  139.9040   66.5920  226.8620 H   0  0  0  0  0  0  0  0  0  0  0  0
  141.3045   67.9062  228.8060 H   0  0  0  0  0  0  0  0  0  0  0  0
  142.0253   70.1327  229.5706 H   0  0  0  0  0  0  0  0  0  0  0  0
  141.3744   72.1604  228.2739 H   0  0  0  0  0  0  0  0  0  0  0  0
  140.0160   71.8880  226.2258 H   0  0  0  0  0  0  0  0  0  0  0  0
  1  2  2  0
  2  3  2  0
  2  4  1  0
  4  5  1  0
  5  6  2  0
  6  7  1  0
  7  8  2  0
  8  9  1  0
  9 10  2  0
  2 11  1  0
 11 12  1  0
 12 13  1  0
 13 14  2  0
 14 15  1  0
 15 16  2  0
 16 17  1  0
 17 18  2  0
 18 19  1  0
 19 20  1  0
 20 21  2  0
 21 22  1  0
 22 23  1  0
 23 24  2  0
 24 25  1  0
 25 26  2  0
 26 27  1  0
 27 28  2  0
 10  5  1  0
 19 11  1  0
 28 20  1  0
 18 13  1  0
 28 23  1  0
  4 29  1  0
  4 30  1  0
  6 31  1  0
  7 32  1  0
  8 33  1  0
  9 34  1  0
 10 35  1  0
 12 36  1  0
 12 37  1  0
 14 38  1  0
 15 39  1  0
 16 40  1  0
 17 41  1  0
 19 42  1  6
 21 43  1  0
 22 44  1  0
 24 45  1  0
 25 46  1  0
 26 47  1  0
 27 48  1  0
M  END
>  <smiles>  (11) 
O=S(=O)(Cc1ccccc1)N1Cc2ccccc2C1c1c[nH]c2ccccc12

>  <score_type>  (11) 
oracle

>  <origin>  (11) 
autodockgpu

>  <m_score__min__energy>  (11) 
-7.54

>  <m_primary>  (11) 
energy

>  <rmsd>  (11) 
10.754725870585313

>  <m_score__min__rmsd>  (11) 
10.754725870585313

>  <meeko>  (11) 
{"free_energy": -7.32, "intermolecular_energy": -8.51, "internal_energy": -1.56, "cluster_size": 2, "cluster_id": 2, "rank_in_cluster": 2}

>  <energy>  (11) 
-7.46

>  <cluster_rmsd>  (11) 
0.63

>  <cluster>  (11) 
1

$$$$

     RDKit          3D

 48 52  0  0  1  0  0  0  0  0999 V2000
  140.5790   75.5360  218.7380 O   0  0  0  0  0  0  0  0  0  0  0  0
  140.5000   76.7710  219.5980 S   0  0  0  0  0  0  0  0  0  0  0  0
  139.0410   77.0290  219.8050 O   0  0  0  0  0  0  0  0  0  0  0  0
  141.2170   78.1020  218.6230 C   0  0  0  0  0  0  0  0  0  0  0  0
  140.9720   79.4140  219.3280 C   0  0  0  0  0  0  0  0  0  0  0  0
  142.0420   80.1970  219.7160 C   0  0  0  0  0  0  0  0  0  0  0  0
  141.7990   81.3930  220.3590 C   0  0  0  0  0  0  0  0  0  0  0  0
  140.5030   81.8280  220.6260 C   0  0  0  0  0  0  0  0  0  0  0  0
  139.4360   81.0500  220.2410 C   0  0  0  0  0  0  0  0  0  0  0  0
  139.6910   79.8540  219.5970 C   0  0  0  0  0  0  0  0  0  0  0  0
  141.4200   76.6390  221.0360 N   0  0  0  0  0  0  0  0  0  0  0  0
  141.7450   75.1850  221.1230 C   0  0  0  0  0  0  0  0  0  0  0  0
  140.3370   74.6740  221.3120 C   0  0  0  0  0  0  0  0  0  0  0  0
  139.6840   73.5140  220.9310 C   0  0  0  0  0  0  0  0  0  0  0  0
  138.3390   73.2950  221.2240 C   0  0  0  0  0  0  0  0  0  0  0  0
  137.6720   74.2910  221.9150 C   0  0  0  0  0  0  0  0  0  0  0  0
  138.3440   75.4470  222.2880 C   0  0  0  0  0  0  0  0  0  0  0  0
  139.6520   75.6870  222.0190 C   0  0  0  0  0  0  0  0  0  0  0  0
  140.6880   76.7080  222.2630 C   0  0  2  0  0  0  0  0  0  0  0  0
  140.2800   77.9980  222.7570 C   0  0  0  0  0  0  0  0  0  0  0  0
  139.0560   78.5860  223.0020 C   0  0  0  0  0  0  0  0  0  0  0  0
  139.2000   79.8460  223.4430 N   0  0  0  0  0  0  0  0  0  0  0  0
  140.5110   80.1230  223.4990 C   0  0  0  0  0  0  0  0  0  0  0  0
  141.1590   81.2640  223.8770 C   0  0  0  0  0  0  0  0  0  0  0  0
  142.5230   81.3280  223.8530 C   0  0  0  0  0  0  0  0  0  0  0  0
  143.2570   80.2330  223.4440 C   0  0  0  0  0  0  0  0  0  0  0  0
  142.5770   79.0930  223.0670 C   0  0  0  0  0  0  0  0  0  0  0  0
  141.2020   79.0100  223.0840 C   0  0  0  0  0  0  0  0  0  0  0  0
  142.2993   77.9380  218.5144 H   0  0  0  0  0  0  0  0  0  0  0  0
  140.7535   78.1236  217.6256 H   0  0  0  0  0  0  0  0  0  0  0  0
  143.0733   79.8713  219.5150 H   0  0  0  0  0  0  0  0  0  0  0  0
  142.6494   82.0184  220.6684 H   0  0  0  0  0  0  0  0  0  0  0  0
  140.3342   82.7856  221.1404 H   0  0  0  0  0  0  0  0  0  0  0  0
  138.4035   81.3723  220.4411 H   0  0  0  0  0  0  0  0  0  0  0  0
  138.8409   79.2286  219.2868 H   0  0  0  0  0  0  0  0  0  0  0  0
  142.2075   74.8042  220.2004 H   0  0  0  0  0  0  0  0  0  0  0  0
  142.4742   74.8957  221.8940 H   0  0  0  0  0  0  0  0  0  0  0  0
  140.2431   72.7427  220.3810 H   0  0  0  0  0  0  0  0  0  0  0  0
  137.8293   72.3693  220.9187 H   0  0  0  0  0  0  0  0  0  0  0  0
  136.6089   74.1668  222.1688 H   0  0  0  0  0  0  0  0  0  0  0  0
  137.7807   76.2167  222.8360 H   0  0  0  0  0  0  0  0  0  0  0  0
  141.3061   76.5057  223.1501 H   0  0  0  0  0  0  0  0  0  0  0  0
  138.0869   78.0867  222.8549 H   0  0  0  0  0  0  0  0  0  0  0  0
  138.4380   80.5150  223.7020 H   0  0  0  0  0  0  0  0  0  0  0  0
  140.5776   82.1388  224.2035 H   0  0  0  0  0  0  0  0  0  0  0  0
  143.0362   82.2514  224.1594 H   0  0  0  0  0  0  0  0  0  0  0  0
  144.3562   80.2682  223.4192 H   0  0  0  0  0  0  0  0  0  0  0  0
  143.1554   78.2163  222.7401 H   0  0  0  0  0  0  0  0  0  0  0  0
  1  2  2  0
  2  3  2  0
  2  4  1  0
  4  5  1  0
  5  6  2  0
  6  7  1  0
  7  8  2  0
  8  9  1  0
  9 10  2  0
  2 11  1  0
 11 12  1  0
 12 13  1  0
 13 14  2  0
 14 15  1  0
 15 16  2  0
 16 17  1  0
 17 18  2  0
 18 19  1  0
 19 20  1  0
 20 21  2  0
 21 22  1  0
 22 23  1  0
 23 24  2  0
 24 25  1  0
 25 26  2  0
 26 27  1  0
 27 28  2  0
 10  5  1  0
 19 11  1  0
 28 20  1  0
 18 13  1  0
 28 23  1  0
  4 29  1  0
  4 30  1  0
  6 31  1  0
  7 32  1  0
  8 33  1  0
  9 34  1  0
 10 35  1  0
 12 36  1  0
 12 37  1  0
 14 38  1  0
 15 39  1  0
 16 40  1  0
 17 41  1  0
 19 42  1  1
 21 43  1  0
 22 44  1  0
 24 45  1  0
 25 46  1  0
 26 47  1  0
 27 48  1  0
M  END
>  <smiles>  (12) 
O=S(=O)(Cc1ccccc1)N1Cc2ccccc2C1c1c[nH]c2ccccc12

>  <score_type>  (12) 
oracle

>  <origin>  (12) 
autodockgpu

>  <m_score__min__energy>  (12) 
-7.54

>  <m_primary>  (12) 
energy

>  <rmsd>  (12) 
4.532904058044481

>  <m_score__min__rmsd>  (12) 
4.532904058044481

>  <meeko>  (12) 
{"free_energy": -6.26, "intermolecular_energy": -7.45, "internal_energy": -2.62, "cluster_size": 17, "cluster_id": 5, "rank_in_cluster": 12}

>  <energy>  (12) 
-7.44

>  <cluster_rmsd>  (12) 
0.62

>  <cluster>  (12) 
1

$$$$

     RDKit          3D

 48 52  0  0  1  0  0  0  0  0999 V2000
  137.9870   76.0490  222.8960 O   0  0  0  0  0  0  0  0  0  0  0  0
  139.1070   76.6620  222.0980 S   0  0  0  0  0  0  0  0  0  0  0  0
  140.3710   76.2020  222.7520 O   0  0  0  0  0  0  0  0  0  0  0  0
  138.9410   78.4430  222.2940 C   0  0  0  0  0  0  0  0  0  0  0  0
  140.3130   79.0500  222.4570 C   0  0  0  0  0  0  0  0  0  0  0  0
  140.9370   79.6420  221.3780 C   0  0  0  0  0  0  0  0  0  0  0  0
  142.1910   80.1920  221.5460 C   0  0  0  0  0  0  0  0  0  0  0  0
  142.8410   80.1630  222.7780 C   0  0  0  0  0  0  0  0  0  0  0  0
  142.2220   79.5730  223.8560 C   0  0  0  0  0  0  0  0  0  0  0  0
  140.9660   79.0260  223.6750 C   0  0  0  0  0  0  0  0  0  0  0  0
  138.9950   76.3200  220.4230 N   0  0  0  0  0  0  0  0  0  0  0  0
  138.0010   75.2090  220.3500 C   0  0  0  0  0  0  0  0  0  0  0  0
  138.8110   74.1650  221.0800 C   0  0  0  0  0  0  0  0  0  0  0  0
  138.4770   73.1100  221.9130 C   0  0  0  0  0  0  0  0  0  0  0  0
  139.4460   72.2890  222.4860 C   0  0  0  0  0  0  0  0  0  0  0  0
  140.7680   72.5690  222.1930 C   0  0  0  0  0  0  0  0  0  0  0  0
  141.0820   73.6320  221.3550 C   0  0  0  0  0  0  0  0  0  0  0  0
  140.1620   74.4460  220.7810 C   0  0  0  0  0  0  0  0  0  0  0  0
  140.0860   75.5910  219.8540 C   0  0  2  0  0  0  0  0  0  0  0  0
  141.2990   76.2960  219.5300 C   0  0  0  0  0  0  0  0  0  0  0  0
  142.6340   76.0790  219.8030 C   0  0  0  0  0  0  0  0  0  0  0  0
  143.4010   77.0570  219.2950 N   0  0  0  0  0  0  0  0  0  0  0  0
  142.6010   77.9400  218.6810 C   0  0  0  0  0  0  0  0  0  0  0  0
  142.9010   79.0980  218.0210 C   0  0  0  0  0  0  0  0  0  0  0  0
  141.9110   79.8570  217.4650 C   0  0  0  0  0  0  0  0  0  0  0  0
  140.5960   79.4550  217.5670 C   0  0  0  0  0  0  0  0  0  0  0  0
  140.3200   78.2810  218.2380 C   0  0  0  0  0  0  0  0  0  0  0  0
  141.3040   77.5030  218.8060 C   0  0  0  0  0  0  0  0  0  0  0  0
  138.4532   78.8679  221.4044 H   0  0  0  0  0  0  0  0  0  0  0  0
  138.3295   78.6636  223.1814 H   0  0  0  0  0  0  0  0  0  0  0  0
  140.4410   79.6749  220.3967 H   0  0  0  0  0  0  0  0  0  0  0  0
  142.6895   80.6647  220.6869 H   0  0  0  0  0  0  0  0  0  0  0  0
  143.8409   80.6081  222.8880 H   0  0  0  0  0  0  0  0  0  0  0  0
  142.7153   79.5376  224.8386 H   0  0  0  0  0  0  0  0  0  0  0  0
  140.4665   78.5532  224.5335 H   0  0  0  0  0  0  0  0  0  0  0  0
  137.0639   75.4516  220.8725 H   0  0  0  0  0  0  0  0  0  0  0  0
  137.6508   74.9359  219.3436 H   0  0  0  0  0  0  0  0  0  0  0  0
  137.4161   72.9147  222.1284 H   0  0  0  0  0  0  0  0  0  0  0  0
  139.1705   71.4522  223.1446 H   0  0  0  0  0  0  0  0  0  0  0  0
  141.5701   71.9510  222.6228 H   0  0  0  0  0  0  0  0  0  0  0  0
  142.1441   73.8254  221.1439 H   0  0  0  0  0  0  0  0  0  0  0  0
  139.9147   75.2995  218.8073 H   0  0  0  0  0  0  0  0  0  0  0  0
  143.0203   75.2157  220.3647 H   0  0  0  0  0  0  0  0  0  0  0  0
  144.4430   77.1400  219.3570 H   0  0  0  0  0  0  0  0  0  0  0  0
  143.9489   79.4218  217.9367 H   0  0  0  0  0  0  0  0  0  0  0  0
  142.1625   80.7882  216.9363 H   0  0  0  0  0  0  0  0  0  0  0  0
  139.7871   80.0550  217.1246 H   0  0  0  0  0  0  0  0  0  0  0  0
  139.2731   77.9540  218.3224 H   0  0  0  0  0  0  0  0  0  0  0  0
  1  2  2  0
  2  3  2  0
  2  4  1  0
  4  5  1  0
  5  6  2  0
  6  7  1  0
  7  8  2  0
  8  9  1  0
  9 10  2  0
  2 11  1  0
 11 12  1  0
 12 13  1  0
 13 14  2  0
 14 15  1  0
 15 16  2  0
 16 17  1  0
 17 18  2  0
 18 19  1  0
 19 20  1  0
 20 21  2  0
 21 22  1  0
 22 23  1  0
 23 24  2  0
 24 25  1  0
 25 26  2  0
 26 27  1  0
 27 28  2  0
 10  5  1  0
 19 11  1  0
 28 20  1  0
 18 13  1  0
 28 23  1  0
  4 29  1  0
  4 30  1  0
  6 31  1  0
  7 32  1  0
  8 33  1  0
  9 34  1  0
 10 35  1  0
 12 36  1  0
 12 37  1  0
 14 38  1  0
 15 39  1  0
 16 40  1  0
 17 41  1  0
 19 42  1  6
 21 43  1  0
 22 44  1  0
 24 45  1  0
 25 46  1  0
 26 47  1  0
 27 48  1  0
M  END
>  <smiles>  (13) 
O=S(=O)(Cc1ccccc1)N1Cc2ccccc2C1c1c[nH]c2ccccc12

>  <score_type>  (13) 
oracle

>  <origin>  (13) 
autodockgpu

>  <m_score__min__energy>  (13) 
-7.54

>  <m_primary>  (13) 
energy

>  <rmsd>  (13) 
5.3072559979374185

>  <m_score__min__rmsd>  (13) 
5.3072559979374185

>  <meeko>  (13) 
{"free_energy": -6.55, "intermolecular_energy": -7.74, "internal_energy": -2.28, "cluster_size": 25, "cluster_id": 1, "rank_in_cluster": 24}

>  <energy>  (13) 
-7.44

>  <cluster_rmsd>  (13) 
0.62

>  <cluster>  (13) 
1

$$$$

     RDKit          3D

 48 52  0  0  1  0  0  0  0  0999 V2000
  140.6170   75.4900  218.7910 O   0  0  0  0  0  0  0  0  0  0  0  0
  140.5360   76.7310  219.6390 S   0  0  0  0  0  0  0  0  0  0  0  0
  139.0770   77.0060  219.8200 O   0  0  0  0  0  0  0  0  0  0  0  0
  141.2830   78.0480  218.6670 C   0  0  0  0  0  0  0  0  0  0  0  0
  141.0170   79.3700  219.3440 C   0  0  0  0  0  0  0  0  0  0  0  0
  142.0740   80.1720  219.7270 C   0  0  0  0  0  0  0  0  0  0  0  0
  141.8130   81.3780  220.3450 C   0  0  0  0  0  0  0  0  0  0  0  0
  140.5090   81.8040  220.5910 C   0  0  0  0  0  0  0  0  0  0  0  0
  139.4540   81.0070  220.2110 C   0  0  0  0  0  0  0  0  0  0  0  0
  139.7280   79.8020  219.5930 C   0  0  0  0  0  0  0  0  0  0  0  0
  141.4310   76.6020  221.0940 N   0  0  0  0  0  0  0  0  0  0  0  0
  141.7360   75.1450  221.2000 C   0  0  0  0  0  0  0  0  0  0  0  0
  140.3170   74.6540  221.3710 C   0  0  0  0  0  0  0  0  0  0  0  0
  139.6560   73.4990  220.9900 C   0  0  0  0  0  0  0  0  0  0  0  0
  138.3040   73.3000  221.2630 C   0  0  0  0  0  0  0  0  0  0  0  0
  137.6380   74.3110  221.9330 C   0  0  0  0  0  0  0  0  0  0  0  0
  138.3190   75.4620  222.3060 C   0  0  0  0  0  0  0  0  0  0  0  0
  139.6340   75.6820  222.0570 C   0  0  0  0  0  0  0  0  0  0  0  0
  140.6800   76.6920  222.3080 C   0  0  2  0  0  0  0  0  0  0  0  0
  140.2800   77.9920  222.7830 C   0  0  0  0  0  0  0  0  0  0  0  0
  139.0610   78.5920  223.0190 C   0  0  0  0  0  0  0  0  0  0  0  0
  139.2130   79.8570  223.4410 N   0  0  0  0  0  0  0  0  0  0  0  0
  140.5250   80.1270  223.4930 C   0  0  0  0  0  0  0  0  0  0  0  0
  141.1810   81.2680  223.8550 C   0  0  0  0  0  0  0  0  0  0  0  0
  142.5460   81.3220  223.8300 C   0  0  0  0  0  0  0  0  0  0  0  0
  143.2720   80.2170  223.4370 C   0  0  0  0  0  0  0  0  0  0  0  0
  142.5840   79.0760  223.0770 C   0  0  0  0  0  0  0  0  0  0  0  0
  141.2090   79.0020  223.0950 C   0  0  0  0  0  0  0  0  0  0  0  0
  142.3681   77.8827  218.5943 H   0  0  0  0  0  0  0  0  0  0  0  0
  140.8502   78.0547  217.6558 H   0  0  0  0  0  0  0  0  0  0  0  0
  143.1105   79.8537  219.5419 H   0  0  0  0  0  0  0  0  0  0  0  0
  142.6538   82.0180  220.6506 H   0  0  0  0  0  0  0  0  0  0  0  0
  140.3249   82.7695  221.0849 H   0  0  0  0  0  0  0  0  0  0  0  0
  138.4162   81.3218  220.3949 H   0  0  0  0  0  0  0  0  0  0  0  0
  138.8875   79.1616  219.2873 H   0  0  0  0  0  0  0  0  0  0  0  0
  142.2083   74.7494  220.2887 H   0  0  0  0  0  0  0  0  0  0  0  0
  142.4490   74.8536  221.9853 H   0  0  0  0  0  0  0  0  0  0  0  0
  140.2141   72.7156  220.4563 H   0  0  0  0  0  0  0  0  0  0  0  0
  137.7878   72.3776  220.9585 H   0  0  0  0  0  0  0  0  0  0  0  0
  136.5693   74.2028  222.1701 H   0  0  0  0  0  0  0  0  0  0  0  0
  137.7568   76.2445  222.8367 H   0  0  0  0  0  0  0  0  0  0  0  0
  141.2816   76.4900  223.2065 H   0  0  0  0  0  0  0  0  0  0  0  0
  138.0886   78.0972  222.8793 H   0  0  0  0  0  0  0  0  0  0  0  0
  138.4550   80.5360  223.6910 H   0  0  0  0  0  0  0  0  0  0  0  0
  140.6059   82.1514  224.1695 H   0  0  0  0  0  0  0  0  0  0  0  0
  143.0657   82.2461  224.1231 H   0  0  0  0  0  0  0  0  0  0  0  0
  144.3714   80.2445  223.4112 H   0  0  0  0  0  0  0  0  0  0  0  0
  143.1566   78.1907  222.7633 H   0  0  0  0  0  0  0  0  0  0  0  0
  1  2  2  0
  2  3  2  0
  2  4  1  0
  4  5  1  0
  5  6  2  0
  6  7  1  0
  7  8  2  0
  8  9  1  0
  9 10  2  0
  2 11  1  0
 11 12  1  0
 12 13  1  0
 13 14  2  0
 14 15  1  0
 15 16  2  0
 16 17  1  0
 17 18  2  0
 18 19  1  0
 19 20  1  0
 20 21  2  0
 21 22  1  0
 22 23  1  0
 23 24  2  0
 24 25  1  0
 25 26  2  0
 26 27  1  0
 27 28  2  0
 10  5  1  0
 19 11  1  0
 28 20  1  0
 18 13  1  0
 28 23  1  0
  4 29  1  0
  4 30  1  0
  6 31  1  0
  7 32  1  0
  8 33  1  0
  9 34  1  0
 10 35  1  0
 12 36  1  0
 12 37  1  0
 14 38  1  0
 15 39  1  0
 16 40  1  0
 17 41  1  0
 19 42  1  1
 21 43  1  0
 22 44  1  0
 24 45  1  0
 25 46  1  0
 26 47  1  0
 27 48  1  0
M  END
>  <smiles>  (14) 
O=S(=O)(Cc1ccccc1)N1Cc2ccccc2C1c1c[nH]c2ccccc12

>  <score_type>  (14) 
oracle

>  <origin>  (14) 
autodockgpu

>  <m_score__min__energy>  (14) 
-7.54

>  <m_primary>  (14) 
energy

>  <rmsd>  (14) 
4.552674824769258

>  <m_score__min__rmsd>  (14) 
4.552674824769258

>  <meeko>  (14) 
{"free_energy": -6.27, "intermolecular_energy": -7.46, "internal_energy": -2.62, "cluster_size": 17, "cluster_id": 5, "rank_in_cluster": 3}

>  <energy>  (14) 
-7.44

>  <cluster_rmsd>  (14) 
0.61

>  <cluster>  (14) 
1

$$$$

     RDKit          3D

 48 52  0  0  1  0  0  0  0  0999 V2000
  139.9690   83.0030  221.0620 O   0  0  0  0  0  0  0  0  0  0  0  0
  140.6880   82.0030  220.1960 S   0  0  0  0  0  0  0  0  0  0  0  0
  142.1380   82.1410  220.5360 O   0  0  0  0  0  0  0  0  0  0  0  0
  140.4140   82.5280  218.4970 C   0  0  0  0  0  0  0  0  0  0  0  0
  141.6890   83.1280  217.9570 C   0  0  0  0  0  0  0  0  0  0  0  0
  142.7190   82.3040  217.5490 C   0  0  0  0  0  0  0  0  0  0  0  0
  143.8770   82.8700  217.0570 C   0  0  0  0  0  0  0  0  0  0  0  0
  144.0290   84.2520  216.9620 C   0  0  0  0  0  0  0  0  0  0  0  0
  143.0050   85.0750  217.3670 C   0  0  0  0  0  0  0  0  0  0  0  0
  141.8500   84.4970  217.8580 C   0  0  0  0  0  0  0  0  0  0  0  0
  140.0590   80.4170  220.3490 N   0  0  0  0  0  0  0  0  0  0  0  0
  139.4220   80.4110  221.6980 C   0  0  0  0  0  0  0  0  0  0  0  0
  140.6790   80.5950  222.5160 C   0  0  0  0  0  0  0  0  0  0  0  0
  140.9510   81.2300  223.7150 C   0  0  0  0  0  0  0  0  0  0  0  0
  142.2360   81.2690  224.2530 C   0  0  0  0  0  0  0  0  0  0  0  0
  143.2420   80.6450  223.5360 C   0  0  0  0  0  0  0  0  0  0  0  0
  142.9480   80.0140  222.3350 C   0  0  0  0  0  0  0  0  0  0  0  0
  141.7080   79.9570  221.7890 C   0  0  0  0  0  0  0  0  0  0  0  0
  141.0110   79.3840  220.6220 C   0  0  2  0  0  0  0  0  0  0  0  0
  141.8010   78.8630  219.5360 C   0  0  0  0  0  0  0  0  0  0  0  0
  142.2670   79.3920  218.3510 C   0  0  0  0  0  0  0  0  0  0  0  0
  142.9530   78.4790  217.6450 N   0  0  0  0  0  0  0  0  0  0  0  0
  142.9560   77.3300  218.3370 C   0  0  0  0  0  0  0  0  0  0  0  0
  143.5130   76.1200  218.0400 C   0  0  0  0  0  0  0  0  0  0  0  0
  143.3880   75.0680  218.9030 C   0  0  0  0  0  0  0  0  0  0  0  0
  142.6950   75.2260  220.0850 C   0  0  0  0  0  0  0  0  0  0  0  0
  142.1430   76.4600  220.3610 C   0  0  0  0  0  0  0  0  0  0  0  0
  142.2580   77.5320  219.5030 C   0  0  0  0  0  0  0  0  0  0  0  0
  140.1263   81.6606  217.8847 H   0  0  0  0  0  0  0  0  0  0  0  0
  139.6081   83.2760  218.4643 H   0  0  0  0  0  0  0  0  0  0  0  0
  142.6176   81.2107  217.6153 H   0  0  0  0  0  0  0  0  0  0  0  0
  144.6992   82.2154  216.7323 H   0  0  0  0  0  0  0  0  0  0  0  0
  144.9612   84.6811  216.5660 H   0  0  0  0  0  0  0  0  0  0  0  0
  143.1029   86.1687  217.3017 H   0  0  0  0  0  0  0  0  0  0  0  0
  141.0275   85.1514  218.1824 H   0  0  0  0  0  0  0  0  0  0  0  0
  138.7128   81.2416  221.8290 H   0  0  0  0  0  0  0  0  0  0  0  0
  138.8085   79.5311  221.9415 H   0  0  0  0  0  0  0  0  0  0  0  0
  140.1291   81.7182  224.2592 H   0  0  0  0  0  0  0  0  0  0  0  0
  142.4421   81.7747  225.2079 H   0  0  0  0  0  0  0  0  0  0  0  0
  144.2737   80.6491  223.9175 H   0  0  0  0  0  0  0  0  0  0  0  0
  143.7729   79.5297  221.7919 H   0  0  0  0  0  0  0  0  0  0  0  0
  140.5468   78.4071  220.8224 H   0  0  0  0  0  0  0  0  0  0  0  0
  142.0983   80.4292  218.0257 H   0  0  0  0  0  0  0  0  0  0  0  0
  143.4120   78.6140  216.7140 H   0  0  0  0  0  0  0  0  0  0  0  0
  144.0669   75.9906  217.0985 H   0  0  0  0  0  0  0  0  0  0  0  0
  143.8396   74.0961  218.6553 H   0  0  0  0  0  0  0  0  0  0  0  0
  142.5851   74.3889  220.7902 H   0  0  0  0  0  0  0  0  0  0  0  0
  141.5897   76.5932  221.3024 H   0  0  0  0  0  0  0  0  0  0  0  0
  1  2  2  0
  2  3  2  0
  2  4  1  0
  4  5  1  0
  5  6  2  0
  6  7  1  0
  7  8  2  0
  8  9  1  0
  9 10  2  0
  2 11  1  0
 11 12  1  0
 12 13  1  0
 13 14  2  0
 14 15  1  0
 15 16  2  0
 16 17  1  0
 17 18  2  0
 18 19  1  0
 19 20  1  0
 20 21  2  0
 21 22  1  0
 22 23  1  0
 23 24  2  0
 24 25  1  0
 25 26  2  0
 26 27  1  0
 27 28  2  0
 10  5  1  0
 19 11  1  0
 28 20  1  0
 18 13  1  0
 28 23  1  0
  4 29  1  0
  4 30  1  0
  6 31  1  0
  7 32  1  0
  8 33  1  0
  9 34  1  0
 10 35  1  0
 12 36  1  0
 12 37  1  0
 14 38  1  0
 15 39  1  0
 16 40  1  0
 17 41  1  0
 19 42  1  1
 21 43  1  0
 22 44  1  0
 24 45  1  0
 25 46  1  0
 26 47  1  0
 27 48  1  0
M  END
>  <smiles>  (15) 
O=S(=O)(Cc1ccccc1)N1Cc2ccccc2C1c1c[nH]c2ccccc12

>  <score_type>  (15) 
oracle

>  <origin>  (15) 
autodockgpu

>  <m_score__min__energy>  (15) 
-7.54

>  <m_primary>  (15) 
energy

>  <rmsd>  (15) 
6.484502049586268

>  <m_score__min__rmsd>  (15) 
6.484502049586268

>  <meeko>  (15) 
{"free_energy": -7.19, "intermolecular_energy": -8.38, "internal_energy": -1.42, "cluster_size": 1, "cluster_id": 3, "rank_in_cluster": 1}

>  <energy>  (15) 
-7.43

>  <cluster_rmsd>  (15) 
0.45

>  <cluster>  (15) 
1

$$$$

     RDKit          3D

 48 52  0  0  1  0  0  0  0  0999 V2000
  137.7130   75.4860  221.9980 O   0  0  0  0  0  0  0  0  0  0  0  0
  139.0840   75.8830  221.5170 S   0  0  0  0  0  0  0  0  0  0  0  0
  140.0050   75.6420  222.6710 O   0  0  0  0  0  0  0  0  0  0  0  0
  138.9990   77.6460  221.1720 C   0  0  0  0  0  0  0  0  0  0  0  0
  140.0950   78.3500  221.9340 C   0  0  0  0  0  0  0  0  0  0  0  0
  141.3030   78.6130  221.3190 C   0  0  0  0  0  0  0  0  0  0  0  0
  142.2930   79.2570  222.0310 C   0  0  0  0  0  0  0  0  0  0  0  0
  142.1030   79.6480  223.3550 C   0  0  0  0  0  0  0  0  0  0  0  0
  140.9010   79.3870  223.9710 C   0  0  0  0  0  0  0  0  0  0  0  0
  139.9160   78.7410  223.2470 C   0  0  0  0  0  0  0  0  0  0  0  0
  139.5310   75.0980  220.0610 N   0  0  0  0  0  0  0  0  0  0  0  0
  138.4730   74.0640  219.8710 C   0  0  0  0  0  0  0  0  0  0  0  0
  138.7950   73.2200  221.0820 C   0  0  0  0  0  0  0  0  0  0  0  0
  138.0260   72.4550  221.9430 C   0  0  0  0  0  0  0  0  0  0  0  0
  138.5860   71.7740  223.0220 C   0  0  0  0  0  0  0  0  0  0  0  0
  139.9510   71.8940  223.2070 C   0  0  0  0  0  0  0  0  0  0  0  0
  140.7050   72.6660  222.3330 C   0  0  0  0  0  0  0  0  0  0  0  0
  140.1890   73.3370  221.2730 C   0  0  0  0  0  0  0  0  0  0  0  0
  140.6280   74.1850  220.1480 C   0  0  2  0  0  0  0  0  0  0  0  0
  141.9700   74.7090  220.1640 C   0  0  0  0  0  0  0  0  0  0  0  0
  142.5050   75.9730  220.0320 C   0  0  0  0  0  0  0  0  0  0  0  0
  143.8460   75.9440  220.0910 N   0  0  0  0  0  0  0  0  0  0  0  0
  144.2300   74.6700  220.2600 C   0  0  0  0  0  0  0  0  0  0  0  0
  145.4790   74.1300  220.3730 C   0  0  0  0  0  0  0  0  0  0  0  0
  145.6400   72.7830  220.5380 C   0  0  0  0  0  0  0  0  0  0  0  0
  144.5360   71.9590  220.5930 C   0  0  0  0  0  0  0  0  0  0  0  0
  143.2860   72.5310  220.4770 C   0  0  0  0  0  0  0  0  0  0  0  0
  143.1030   73.8860  220.3090 C   0  0  0  0  0  0  0  0  0  0  0  0
  139.1311   77.8174  220.0935 H   0  0  0  0  0  0  0  0  0  0  0  0
  138.0195   78.0384  221.4829 H   0  0  0  0  0  0  0  0  0  0  0  0
  141.4734   78.3127  220.2746 H   0  0  0  0  0  0  0  0  0  0  0  0
  143.2557   79.4671  221.5421 H   0  0  0  0  0  0  0  0  0  0  0  0
  142.9072   80.1609  223.9028 H   0  0  0  0  0  0  0  0  0  0  0  0
  140.7275   79.6854  225.0154 H   0  0  0  0  0  0  0  0  0  0  0  0
  138.9530   78.5303  223.7350 H   0  0  0  0  0  0  0  0  0  0  0  0
  137.4597   74.4898  219.9158 H   0  0  0  0  0  0  0  0  0  0  0  0
  138.4717   73.5429  218.9023 H   0  0  0  0  0  0  0  0  0  0  0  0
  136.9421   72.3829  221.7701 H   0  0  0  0  0  0  0  0  0  0  0  0
  137.9676   71.1660  223.6987 H   0  0  0  0  0  0  0  0  0  0  0  0
  140.4397   71.3779  224.0465 H   0  0  0  0  0  0  0  0  0  0  0  0
  141.7881   72.7379  222.5113 H   0  0  0  0  0  0  0  0  0  0  0  0
  140.8022   73.6262  219.2166 H   0  0  0  0  0  0  0  0  0  0  0  0
  141.9095   76.8878  219.8958 H   0  0  0  0  0  0  0  0  0  0  0  0
  144.5000   76.7590  220.0190 H   0  0  0  0  0  0  0  0  0  0  0  0
  146.3623   74.7842  220.3309 H   0  0  0  0  0  0  0  0  0  0  0  0
  146.6500   72.3564  220.6269 H   0  0  0  0  0  0  0  0  0  0  0  0
  144.6490   70.8729  220.7260 H   0  0  0  0  0  0  0  0  0  0  0  0
  142.4007   71.8796  220.5204 H   0  0  0  0  0  0  0  0  0  0  0  0
  1  2  2  0
  2  3  2  0
  2  4  1  0
  4  5  1  0
  5  6  2  0
  6  7  1  0
  7  8  2  0
  8  9  1  0
  9 10  2  0
  2 11  1  0
 11 12  1  0
 12 13  1  0
 13 14  2  0
 14 15  1  0
 15 16  2  0
 16 17  1  0
 17 18  2  0
 18 19  1  0
 19 20  1  0
 20 21  2  0
 21 22  1  0
 22 23  1  0
 23 24  2  0
 24 25  1  0
 25 26  2  0
 26 27  1  0
 27 28  2  0
 10  5  1  0
 19 11  1  0
 28 20  1  0
 18 13  1  0
 28 23  1  0
  4 29  1  0
  4 30  1  0
  6 31  1  0
  7 32  1  0
  8 33  1  0
  9 34  1  0
 10 35  1  0
 12 36  1  0
 12 37  1  0
 14 38  1  0
 15 39  1  0
 16 40  1  0
 17 41  1  0
 19 42  1  6
 21 43  1  0
 22 44  1  0
 24 45  1  0
 25 46  1  0
 26 47  1  0
 27 48  1  0
M  END
>  <smiles>  (16) 
O=S(=O)(Cc1ccccc1)N1Cc2ccccc2C1c1c[nH]c2ccccc12

>  <score_type>  (16) 
oracle

>  <origin>  (16) 
autodockgpu

>  <m_score__min__energy>  (16) 
-7.54

>  <m_primary>  (16) 
energy

>  <rmsd>  (16) 
7.869336135133679

>  <m_score__min__rmsd>  (16) 
7.869336135133679

>  <meeko>  (16) 
{"free_energy": -7.4, "intermolecular_energy": -8.59, "internal_energy": -1.68, "cluster_size": 25, "cluster_id": 1, "rank_in_cluster": 20}

>  <energy>  (16) 
-7.42

>  <cluster_rmsd>  (16) 
0.63

>  <cluster>  (16) 
1

$$$$

     RDKit          3D

 48 52  0  0  1  0  0  0  0  0999 V2000
  137.6890   75.5100  222.0230 O   0  0  0  0  0  0  0  0  0  0  0  0
  139.0590   75.9340  221.5650 S   0  0  0  0  0  0  0  0  0  0  0  0
  139.9740   75.6660  222.7170 O   0  0  0  0  0  0  0  0  0  0  0  0
  138.9590   77.7070  221.2740 C   0  0  0  0  0  0  0  0  0  0  0  0
  140.2220   78.3600  221.7820 C   0  0  0  0  0  0  0  0  0  0  0  0
  141.0510   79.0310  220.9050 C   0  0  0  0  0  0  0  0  0  0  0  0
  142.2010   79.6220  221.3880 C   0  0  0  0  0  0  0  0  0  0  0  0
  142.5430   79.5570  222.7370 C   0  0  0  0  0  0  0  0  0  0  0  0
  141.7190   78.8900  223.6130 C   0  0  0  0  0  0  0  0  0  0  0  0
  140.5700   78.3020  223.1180 C   0  0  0  0  0  0  0  0  0  0  0  0
  139.5230   75.2000  220.0890 N   0  0  0  0  0  0  0  0  0  0  0  0
  138.4970   74.1380  219.8770 C   0  0  0  0  0  0  0  0  0  0  0  0
  138.8510   73.2760  221.0660 C   0  0  0  0  0  0  0  0  0  0  0  0
  138.1110   72.4660  221.9100 C   0  0  0  0  0  0  0  0  0  0  0  0
  138.6970   71.7770  222.9700 C   0  0  0  0  0  0  0  0  0  0  0  0
  140.0590   71.9340  223.1520 C   0  0  0  0  0  0  0  0  0  0  0  0
  140.7840   72.7520  222.2940 C   0  0  0  0  0  0  0  0  0  0  0  0
  140.2420   73.4320  221.2540 C   0  0  0  0  0  0  0  0  0  0  0  0
  140.6490   74.3200  220.1480 C   0  0  2  0  0  0  0  0  0  0  0  0
  141.9730   74.8850  220.1710 C   0  0  0  0  0  0  0  0  0  0  0  0
  142.4740   76.1580  219.9920 C   0  0  0  0  0  0  0  0  0  0  0  0
  143.8130   76.1730  220.0850 N   0  0  0  0  0  0  0  0  0  0  0  0
  144.2310   74.9210  220.3230 C   0  0  0  0  0  0  0  0  0  0  0  0
  145.4920   74.4250  220.4920 C   0  0  0  0  0  0  0  0  0  0  0  0
  145.6890   73.0940  220.7250 C   0  0  0  0  0  0  0  0  0  0  0  0
  144.6080   72.2390  220.7930 C   0  0  0  0  0  0  0  0  0  0  0  0
  143.3450   72.7670  220.6190 C   0  0  0  0  0  0  0  0  0  0  0  0
  143.1260   74.1060  220.3830 C   0  0  0  0  0  0  0  0  0  0  0  0
  138.8526   77.8985  220.1960 H   0  0  0  0  0  0  0  0  0  0  0  0
  138.0877   78.1219  221.8018 H   0  0  0  0  0  0  0  0  0  0  0  0
  140.7984   79.0937  219.8362 H   0  0  0  0  0  0  0  0  0  0  0  0
  142.8632   80.1570  220.6913 H   0  0  0  0  0  0  0  0  0  0  0  0
  143.4651   80.0355  223.0987 H   0  0  0  0  0  0  0  0  0  0  0  0
  141.9683   78.8259  224.6825 H   0  0  0  0  0  0  0  0  0  0  0  0
  139.9073   77.7674  223.8144 H   0  0  0  0  0  0  0  0  0  0  0  0
  137.4710   74.5302  219.9356 H   0  0  0  0  0  0  0  0  0  0  0  0
  138.5076   73.6408  218.8958 H   0  0  0  0  0  0  0  0  0  0  0  0
  137.0292   72.3633  221.7390 H   0  0  0  0  0  0  0  0  0  0  0  0
  138.1008   71.1346  223.6347 H   0  0  0  0  0  0  0  0  0  0  0  0
  140.5680   71.4116  223.9754 H   0  0  0  0  0  0  0  0  0  0  0  0
  141.8651   72.8541  222.4696 H   0  0  0  0  0  0  0  0  0  0  0  0
  140.8363   73.7901  219.2024 H   0  0  0  0  0  0  0  0  0  0  0  0
  141.8555   77.0467  219.7980 H   0  0  0  0  0  0  0  0  0  0  0  0
  144.4440   77.0030  219.9890 H   0  0  0  0  0  0  0  0  0  0  0  0
  146.3564   75.1034  220.4400 H   0  0  0  0  0  0  0  0  0  0  0  0
  146.7087   72.7036  220.8584 H   0  0  0  0  0  0  0  0  0  0  0  0
  144.7494   71.1645  220.9810 H   0  0  0  0  0  0  0  0  0  0  0  0
  142.4785   72.0914  220.6709 H   0  0  0  0  0  0  0  0  0  0  0  0
  1  2  2  0
  2  3  2  0
  2  4  1  0
  4  5  1  0
  5  6  2  0
  6  7  1  0
  7  8  2  0
  8  9  1  0
  9 10  2  0
  2 11  1  0
 11 12  1  0
 12 13  1  0
 13 14  2  0
 14 15  1  0
 15 16  2  0
 16 17  1  0
 17 18  2  0
 18 19  1  0
 19 20  1  0
 20 21  2  0
 21 22  1  0
 22 23  1  0
 23 24  2  0
 24 25  1  0
 25 26  2  0
 26 27  1  0
 27 28  2  0
 10  5  1  0
 19 11  1  0
 28 20  1  0
 18 13  1  0
 28 23  1  0
  4 29  1  0
  4 30  1  0
  6 31  1  0
  7 32  1  0
  8 33  1  0
  9 34  1  0
 10 35  1  0
 12 36  1  0
 12 37  1  0
 14 38  1  0
 15 39  1  0
 16 40  1  0
 17 41  1  0
 19 42  1  6
 21 43  1  0
 22 44  1  0
 24 45  1  0
 25 46  1  0
 26 47  1  0
 27 48  1  0
M  END
>  <smiles>  (17) 
O=S(=O)(Cc1ccccc1)N1Cc2ccccc2C1c1c[nH]c2ccccc12

>  <score_type>  (17) 
oracle

>  <origin>  (17) 
autodockgpu

>  <m_score__min__energy>  (17) 
-7.54

>  <m_primary>  (17) 
energy

>  <rmsd>  (17) 
7.735331266185078

>  <m_score__min__rmsd>  (17) 
7.735331266185078

>  <meeko>  (17) 
{"free_energy": -7.46, "intermolecular_energy": -8.65, "internal_energy": -1.69, "cluster_size": 25, "cluster_id": 1, "rank_in_cluster": 11}

>  <energy>  (17) 
-7.42

>  <cluster_rmsd>  (17) 
0.38

>  <cluster>  (17) 
1

$$$$

     RDKit          3D

 48 52  0  0  1  0  0  0  0  0999 V2000
  140.6770   75.5220  218.7610 O   0  0  0  0  0  0  0  0  0  0  0  0
  140.5880   76.7530  219.6240 S   0  0  0  0  0  0  0  0  0  0  0  0
  139.1270   77.0340  219.7810 O   0  0  0  0  0  0  0  0  0  0  0  0
  141.3600   78.0780  218.6830 C   0  0  0  0  0  0  0  0  0  0  0  0
  141.0550   79.3970  219.3510 C   0  0  0  0  0  0  0  0  0  0  0  0
  139.7440   79.7770  219.5570 C   0  0  0  0  0  0  0  0  0  0  0  0
  139.4850   80.9860  220.1690 C   0  0  0  0  0  0  0  0  0  0  0  0
  140.5130   81.8290  220.5840 C   0  0  0  0  0  0  0  0  0  0  0  0
  141.8210   81.4530  220.3800 C   0  0  0  0  0  0  0  0  0  0  0  0
  142.0680   80.2400  219.7650 C   0  0  0  0  0  0  0  0  0  0  0  0
  141.4550   76.5980  221.0930 N   0  0  0  0  0  0  0  0  0  0  0  0
  141.7470   75.1370  221.1860 C   0  0  0  0  0  0  0  0  0  0  0  0
  140.3220   74.6550  221.3240 C   0  0  0  0  0  0  0  0  0  0  0  0
  139.6590   73.5100  220.9170 C   0  0  0  0  0  0  0  0  0  0  0  0
  138.3010   73.3180  221.1620 C   0  0  0  0  0  0  0  0  0  0  0  0
  137.6300   74.3250  221.8320 C   0  0  0  0  0  0  0  0  0  0  0  0
  138.3130   75.4660  222.2330 C   0  0  0  0  0  0  0  0  0  0  0  0
  139.6340   75.6790  222.0110 C   0  0  0  0  0  0  0  0  0  0  0  0
  140.6820   76.6780  222.2940 C   0  0  2  0  0  0  0  0  0  0  0  0
  140.2830   77.9750  222.7780 C   0  0  0  0  0  0  0  0  0  0  0  0
  139.0640   78.5680  223.0340 C   0  0  0  0  0  0  0  0  0  0  0  0
  139.2160   79.8330  223.4570 N   0  0  0  0  0  0  0  0  0  0  0  0
  140.5280   80.1090  223.4890 C   0  0  0  0  0  0  0  0  0  0  0  0
  141.1840   81.2530  223.8430 C   0  0  0  0  0  0  0  0  0  0  0  0
  142.5470   81.3150  223.7970 C   0  0  0  0  0  0  0  0  0  0  0  0
  143.2730   80.2150  223.3900 C   0  0  0  0  0  0  0  0  0  0  0  0
  142.5860   79.0710  223.0380 C   0  0  0  0  0  0  0  0  0  0  0  0
  141.2110   78.9900  223.0780 C   0  0  0  0  0  0  0  0  0  0  0  0
  142.4486   77.9230  218.6525 H   0  0  0  0  0  0  0  0  0  0  0  0
  140.9672   78.0820  217.6555 H   0  0  0  0  0  0  0  0  0  0  0  0
  138.9175   79.1251  219.2377 H   0  0  0  0  0  0  0  0  0  0  0  0
  138.4411   81.2916  220.3332 H   0  0  0  0  0  0  0  0  0  0  0  0
  140.2813   82.7877  221.0710 H   0  0  0  0  0  0  0  0  0  0  0  0
  142.6499   82.1021  220.6987 H   0  0  0  0  0  0  0  0  0  0  0  0
  143.1115   79.9342  219.5988 H   0  0  0  0  0  0  0  0  0  0  0  0
  142.2334   74.7493  220.2788 H   0  0  0  0  0  0  0  0  0  0  0  0
  142.4429   74.8302  221.9808 H   0  0  0  0  0  0  0  0  0  0  0  0
  140.2210   72.7286  220.3844 H   0  0  0  0  0  0  0  0  0  0  0  0
  137.7839   72.4035  220.8361 H   0  0  0  0  0  0  0  0  0  0  0  0
  136.5561   74.2223  222.0471 H   0  0  0  0  0  0  0  0  0  0  0  0
  137.7471   76.2457  222.7639 H   0  0  0  0  0  0  0  0  0  0  0  0
  141.2649   76.4600  223.2010 H   0  0  0  0  0  0  0  0  0  0  0  0
  138.0922   78.0684  222.9077 H   0  0  0  0  0  0  0  0  0  0  0  0
  138.4590   80.5070  223.7210 H   0  0  0  0  0  0  0  0  0  0  0  0
  140.6091   82.1326  224.1682 H   0  0  0  0  0  0  0  0  0  0  0  0
  143.0659   82.2414  224.0843 H   0  0  0  0  0  0  0  0  0  0  0  0
  144.3716   80.2488  223.3471 H   0  0  0  0  0  0  0  0  0  0  0  0
  143.1583   78.1896  222.7129 H   0  0  0  0  0  0  0  0  0  0  0  0
  1  2  2  0
  2  3  2  0
  2  4  1  0
  4  5  1  0
  5  6  2  0
  6  7  1  0
  7  8  2  0
  8  9  1  0
  9 10  2  0
  2 11  1  0
 11 12  1  0
 12 13  1  0
 13 14  2  0
 14 15  1  0
 15 16  2  0
 16 17  1  0
 17 18  2  0
 18 19  1  0
 19 20  1  0
 20 21  2  0
 21 22  1  0
 22 23  1  0
 23 24  2  0
 24 25  1  0
 25 26  2  0
 26 27  1  0
 27 28  2  0
 10  5  1  0
 19 11  1  0
 28 20  1  0
 18 13  1  0
 28 23  1  0
  4 29  1  0
  4 30  1  0
  6 31  1  0
  7 32  1  0
  8 33  1  0
  9 34  1  0
 10 35  1  0
 12 36  1  0
 12 37  1  0
 14 38  1  0
 15 39  1  0
 16 40  1  0
 17 41  1  0
 19 42  1  1
 21 43  1  0
 22 44  1  0
 24 45  1  0
 25 46  1  0
 26 47  1  0
 27 48  1  0
M  END
>  <smiles>  (18) 
O=S(=O)(Cc1ccccc1)N1Cc2ccccc2C1c1c[nH]c2ccccc12

>  <score_type>  (18) 
oracle

>  <origin>  (18) 
autodockgpu

>  <m_score__min__energy>  (18) 
-7.54

>  <m_primary>  (18) 
energy

>  <rmsd>  (18) 
4.529116602078121

>  <m_score__min__rmsd>  (18) 
4.529116602078121

>  <meeko>  (18) 
{"free_energy": -6.26, "intermolecular_energy": -7.45, "internal_energy": -2.6, "cluster_size": 17, "cluster_id": 5, "rank_in_cluster": 9}

>  <energy>  (18) 
-7.41

>  <cluster_rmsd>  (18) 
0.61

>  <cluster>  (18) 
1

$$$$

     RDKit          3D

 48 52  0  0  1  0  0  0  0  0999 V2000
  137.6550   75.4650  221.7850 O   0  0  0  0  0  0  0  0  0  0  0  0
  139.0480   75.8670  221.3770 S   0  0  0  0  0  0  0  0  0  0  0  0
  139.9050   75.6450  222.5820 O   0  0  0  0  0  0  0  0  0  0  0  0
  138.9690   77.6270  221.0090 C   0  0  0  0  0  0  0  0  0  0  0  0
  139.9990   78.3490  221.8420 C   0  0  0  0  0  0  0  0  0  0  0  0
  141.2450   78.6230  221.3130 C   0  0  0  0  0  0  0  0  0  0  0  0
  142.1740   79.2850  222.0890 C   0  0  0  0  0  0  0  0  0  0  0  0
  141.8840   79.6830  223.3920 C   0  0  0  0  0  0  0  0  0  0  0  0
  140.6440   79.4110  223.9230 C   0  0  0  0  0  0  0  0  0  0  0  0
  139.7220   78.7480  223.1360 C   0  0  0  0  0  0  0  0  0  0  0  0
  139.5790   75.0720  219.9560 N   0  0  0  0  0  0  0  0  0  0  0  0
  138.5890   73.9720  219.7680 C   0  0  0  0  0  0  0  0  0  0  0  0
  138.9260   73.1820  221.0100 C   0  0  0  0  0  0  0  0  0  0  0  0
  138.1800   72.3960  221.8720 C   0  0  0  0  0  0  0  0  0  0  0  0
  138.7490   71.7790  222.9850 C   0  0  0  0  0  0  0  0  0  0  0  0
  140.1000   71.9840  223.2010 C   0  0  0  0  0  0  0  0  0  0  0  0
  140.8300   72.7760  222.3250 C   0  0  0  0  0  0  0  0  0  0  0  0
  140.3060   73.3860  221.2340 C   0  0  0  0  0  0  0  0  0  0  0  0
  140.7250   74.2270  220.0970 C   0  0  2  0  0  0  0  0  0  0  0  0
  142.0330   74.8300  220.1320 C   0  0  0  0  0  0  0  0  0  0  0  0
  142.5000   76.1150  219.9490 C   0  0  0  0  0  0  0  0  0  0  0  0
  143.8370   76.1680  220.0590 N   0  0  0  0  0  0  0  0  0  0  0  0
  144.2860   74.9310  220.3130 C   0  0  0  0  0  0  0  0  0  0  0  0
  145.5580   74.4720  220.5020 C   0  0  0  0  0  0  0  0  0  0  0  0
  145.7890   73.1490  220.7490 C   0  0  0  0  0  0  0  0  0  0  0  0
  144.7320   72.2650  220.8100 C   0  0  0  0  0  0  0  0  0  0  0  0
  143.4570   72.7550  220.6160 C   0  0  0  0  0  0  0  0  0  0  0  0
  143.2040   74.0850  220.3650 C   0  0  0  0  0  0  0  0  0  0  0  0
  139.1775   77.7904  219.9414 H   0  0  0  0  0  0  0  0  0  0  0  0
  137.9653   78.0113  221.2434 H   0  0  0  0  0  0  0  0  0  0  0  0
  141.4936   78.3173  220.2860 H   0  0  0  0  0  0  0  0  0  0  0  0
  143.1668   79.5036  221.6689 H   0  0  0  0  0  0  0  0  0  0  0  0
  142.6403   80.2106  223.9918 H   0  0  0  0  0  0  0  0  0  0  0  0
  140.3927   79.7143  224.9501 H   0  0  0  0  0  0  0  0  0  0  0  0
  138.7290   78.5292  223.5556 H   0  0  0  0  0  0  0  0  0  0  0  0
  137.5516   74.3378  219.7741 H   0  0  0  0  0  0  0  0  0  0  0  0
  138.6452   73.4257  218.8149 H   0  0  0  0  0  0  0  0  0  0  0  0
  137.1075   72.2544  221.6728 H   0  0  0  0  0  0  0  0  0  0  0  0
  138.1487   71.1550  223.6634 H   0  0  0  0  0  0  0  0  0  0  0  0
  140.5956   71.5197  224.0664 H   0  0  0  0  0  0  0  0  0  0  0  0
  141.9016   72.9174  222.5293 H   0  0  0  0  0  0  0  0  0  0  0  0
  140.9564   73.6537  219.1872 H   0  0  0  0  0  0  0  0  0  0  0  0
  141.8594   76.9844  219.7399 H   0  0  0  0  0  0  0  0  0  0  0  0
  144.4460   77.0150  219.9640 H   0  0  0  0  0  0  0  0  0  0  0  0
  146.4037   75.1738  220.4549 H   0  0  0  0  0  0  0  0  0  0  0  0
  146.8173   72.7885  220.8992 H   0  0  0  0  0  0  0  0  0  0  0  0
  144.9013   71.1964  221.0083 H   0  0  0  0  0  0  0  0  0  0  0  0
  142.6092   72.0557  220.6637 H   0  0  0  0  0  0  0  0  0  0  0  0
  1  2  2  0
  2  3  2  0
  2  4  1  0
  4  5  1  0
  5  6  2  0
  6  7  1  0
  7  8  2  0
  8  9  1  0
  9 10  2  0
  2 11  1  0
 11 12  1  0
 12 13  1  0
 13 14  2  0
 14 15  1  0
 15 16  2  0
 16 17  1  0
 17 18  2  0
 18 19  1  0
 19 20  1  0
 20 21  2  0
 21 22  1  0
 22 23  1  0
 23 24  2  0
 24 25  1  0
 25 26  2  0
 26 27  1  0
 27 28  2  0
 10  5  1  0
 19 11  1  0
 28 20  1  0
 18 13  1  0
 28 23  1  0
  4 29  1  0
  4 30  1  0
  6 31  1  0
  7 32  1  0
  8 33  1  0
  9 34  1  0
 10 35  1  0
 12 36  1  0
 12 37  1  0
 14 38  1  0
 15 39  1  0
 16 40  1  0
 17 41  1  0
 19 42  1  6
 21 43  1  0
 22 44  1  0
 24 45  1  0
 25 46  1  0
 26 47  1  0
 27 48  1  0
M  END
>  <smiles>  (19) 
O=S(=O)(Cc1ccccc1)N1Cc2ccccc2C1c1c[nH]c2ccccc12

>  <score_type>  (19) 
oracle

>  <origin>  (19) 
autodockgpu

>  <m_score__min__energy>  (19) 
-7.54

>  <m_primary>  (19) 
energy

>  <rmsd>  (19) 
7.777292502224346

>  <m_score__min__rmsd>  (19) 
7.777292502224346

>  <meeko>  (19) 
{"free_energy": -7.43, "intermolecular_energy": -8.62, "internal_energy": -1.68, "cluster_size": 25, "cluster_id": 1, "rank_in_cluster": 15}

>  <energy>  (19) 
-7.4

>  <cluster_rmsd>  (19) 
0.37

>  <cluster>  (19) 
1

$$$$

     RDKit          3D

 48 52  0  0  1  0  0  0  0  0999 V2000
  140.6570   75.5140  218.7850 O   0  0  0  0  0  0  0  0  0  0  0  0
  140.5720   76.7480  219.6440 S   0  0  0  0  0  0  0  0  0  0  0  0
  139.1120   77.0260  219.8140 O   0  0  0  0  0  0  0  0  0  0  0  0
  141.3310   78.0710  218.6900 C   0  0  0  0  0  0  0  0  0  0  0  0
  141.0380   79.3910  219.3620 C   0  0  0  0  0  0  0  0  0  0  0  0
  142.0780   80.2150  219.7450 C   0  0  0  0  0  0  0  0  0  0  0  0
  141.7910   81.4180  220.3560 C   0  0  0  0  0  0  0  0  0  0  0  0
  140.4790   81.8200  220.5960 C   0  0  0  0  0  0  0  0  0  0  0  0
  139.4410   81.0010  220.2150 C   0  0  0  0  0  0  0  0  0  0  0  0
  139.7400   79.7990  219.6040 C   0  0  0  0  0  0  0  0  0  0  0  0
  141.4530   76.6020  221.1060 N   0  0  0  0  0  0  0  0  0  0  0  0
  141.7530   75.1430  221.2010 C   0  0  0  0  0  0  0  0  0  0  0  0
  140.3320   74.6550  221.3540 C   0  0  0  0  0  0  0  0  0  0  0  0
  139.6710   73.5050  220.9560 C   0  0  0  0  0  0  0  0  0  0  0  0
  138.3160   73.3070  221.2140 C   0  0  0  0  0  0  0  0  0  0  0  0
  137.6470   74.3130  221.8880 C   0  0  0  0  0  0  0  0  0  0  0  0
  138.3280   75.4590  222.2780 C   0  0  0  0  0  0  0  0  0  0  0  0
  139.6450   75.6780  222.0430 C   0  0  0  0  0  0  0  0  0  0  0  0
  140.6910   76.6830  222.3130 C   0  0  2  0  0  0  0  0  0  0  0  0
  140.2910   77.9790  222.7970 C   0  0  0  0  0  0  0  0  0  0  0  0
  139.0710   78.5700  223.0560 C   0  0  0  0  0  0  0  0  0  0  0  0
  139.2210   79.8360  223.4770 N   0  0  0  0  0  0  0  0  0  0  0  0
  140.5320   80.1140  223.5060 C   0  0  0  0  0  0  0  0  0  0  0  0
  141.1860   81.2600  223.8580 C   0  0  0  0  0  0  0  0  0  0  0  0
  142.5500   81.3250  223.8090 C   0  0  0  0  0  0  0  0  0  0  0  0
  143.2770   80.2250  223.4020 C   0  0  0  0  0  0  0  0  0  0  0  0
  142.5910   79.0800  223.0520 C   0  0  0  0  0  0  0  0  0  0  0  0
  141.2170   78.9960  223.0950 C   0  0  0  0  0  0  0  0  0  0  0  0
  142.4188   77.9145  218.6427 H   0  0  0  0  0  0  0  0  0  0  0  0
  140.9224   78.0748  217.6687 H   0  0  0  0  0  0  0  0  0  0  0  0
  143.1212   79.9160  219.5652 H   0  0  0  0  0  0  0  0  0  0  0  0
  142.6182   82.0758  220.6611 H   0  0  0  0  0  0  0  0  0  0  0  0
  140.2746   82.7835  221.0857 H   0  0  0  0  0  0  0  0  0  0  0  0
  138.3966   81.2969  220.3930 H   0  0  0  0  0  0  0  0  0  0  0  0
  138.9132   79.1411  219.2982 H   0  0  0  0  0  0  0  0  0  0  0  0
  142.2327   74.7546  220.2905 H   0  0  0  0  0  0  0  0  0  0  0  0
  142.4579   74.8421  221.9900 H   0  0  0  0  0  0  0  0  0  0  0  0
  140.2320   72.7250  220.4205 H   0  0  0  0  0  0  0  0  0  0  0  0
  137.8000   72.3894  220.8952 H   0  0  0  0  0  0  0  0  0  0  0  0
  136.5761   74.2053  222.1150 H   0  0  0  0  0  0  0  0  0  0  0  0
  137.7631   76.2379  222.8111 H   0  0  0  0  0  0  0  0  0  0  0  0
  141.2834   76.4713  223.2154 H   0  0  0  0  0  0  0  0  0  0  0  0
  138.1000   78.0680  222.9332 H   0  0  0  0  0  0  0  0  0  0  0  0
  138.4630   80.5080  223.7410 H   0  0  0  0  0  0  0  0  0  0  0  0
  140.6097   82.1385  224.1838 H   0  0  0  0  0  0  0  0  0  0  0  0
  143.0678   82.2528  224.0936 H   0  0  0  0  0  0  0  0  0  0  0  0
  144.3755   80.2600  223.3577 H   0  0  0  0  0  0  0  0  0  0  0  0
  143.1642   78.1996  222.7258 H   0  0  0  0  0  0  0  0  0  0  0  0
  1  2  2  0
  2  3  2  0
  2  4  1  0
  4  5  1  0
  5  6  2  0
  6  7  1  0
  7  8  2  0
  8  9  1  0
  9 10  2  0
  2 11  1  0
 11 12  1  0
 12 13  1  0
 13 14  2  0
 14 15  1  0
 15 16  2  0
 16 17  1  0
 17 18  2  0
 18 19  1  0
 19 20  1  0
 20 21  2  0
 21 22  1  0
 22 23  1  0
 23 24  2  0
 24 25  1  0
 25 26  2  0
 26 27  1  0
 27 28  2  0
 10  5  1  0
 19 11  1  0
 28 20  1  0
 18 13  1  0
 28 23  1  0
  4 29  1  0
  4 30  1  0
  6 31  1  0
  7 32  1  0
  8 33  1  0
  9 34  1  0
 10 35  1  0
 12 36  1  0
 12 37  1  0
 14 38  1  0
 15 39  1  0
 16 40  1  0
 17 41  1  0
 19 42  1  1
 21 43  1  0
 22 44  1  0
 24 45  1  0
 25 46  1  0
 26 47  1  0
 27 48  1  0
M  END
>  <smiles>  (20) 
O=S(=O)(Cc1ccccc1)N1Cc2ccccc2C1c1c[nH]c2ccccc12

>  <score_type>  (20) 
oracle

>  <origin>  (20) 
autodockgpu

>  <m_score__min__energy>  (20) 
-7.54

>  <m_primary>  (20) 
energy

>  <rmsd>  (20) 
4.5412617041686065

>  <m_score__min__rmsd>  (20) 
4.5412617041686065

>  <meeko>  (20) 
{"free_energy": -6.26, "intermolecular_energy": -7.45, "internal_energy": -2.61, "cluster_size": 17, "cluster_id": 5, "rank_in_cluster": 11}

>  <energy>  (20) 
-7.4

>  <cluster_rmsd>  (20) 
0.5

>  <cluster>  (20) 
1

$$$$

     RDKit          3D

 48 52  0  0  1  0  0  0  0  0999 V2000
  140.5710   75.5290  218.7410 O   0  0  0  0  0  0  0  0  0  0  0  0
  140.4910   76.7640  219.5990 S   0  0  0  0  0  0  0  0  0  0  0  0
  139.0320   77.0210  219.8050 O   0  0  0  0  0  0  0  0  0  0  0  0
  141.2070   78.0950  218.6230 C   0  0  0  0  0  0  0  0  0  0  0  0
  140.9470   79.4090  219.3200 C   0  0  0  0  0  0  0  0  0  0  0  0
  139.6500   79.8250  219.5430 C   0  0  0  0  0  0  0  0  0  0  0  0
  139.4320   81.0290  220.1820 C   0  0  0  0  0  0  0  0  0  0  0  0
  140.4880   81.8310  220.6060 C   0  0  0  0  0  0  0  0  0  0  0  0
  141.7820   81.4190  220.3860 C   0  0  0  0  0  0  0  0  0  0  0  0
  141.9880   80.2120  219.7450 C   0  0  0  0  0  0  0  0  0  0  0  0
  141.4100   76.6330  221.0380 N   0  0  0  0  0  0  0  0  0  0  0  0
  141.7320   75.1790  221.1290 C   0  0  0  0  0  0  0  0  0  0  0  0
  140.3210   74.6720  221.3190 C   0  0  0  0  0  0  0  0  0  0  0  0
  139.6660   73.5120  220.9410 C   0  0  0  0  0  0  0  0  0  0  0  0
  138.3210   73.2980  221.2340 C   0  0  0  0  0  0  0  0  0  0  0  0
  137.6550   74.2970  221.9220 C   0  0  0  0  0  0  0  0  0  0  0  0
  138.3310   75.4520  222.2920 C   0  0  0  0  0  0  0  0  0  0  0  0
  139.6390   75.6880  222.0230 C   0  0  0  0  0  0  0  0  0  0  0  0
  140.6770   76.7080  222.2640 C   0  0  2  0  0  0  0  0  0  0  0  0
  140.2720   78.0000  222.7550 C   0  0  0  0  0  0  0  0  0  0  0  0
  139.0500   78.5920  222.9970 C   0  0  0  0  0  0  0  0  0  0  0  0
  139.1960   79.8520  223.4350 N   0  0  0  0  0  0  0  0  0  0  0  0
  140.5080   80.1270  223.4910 C   0  0  0  0  0  0  0  0  0  0  0  0
  141.1580   81.2670  223.8660 C   0  0  0  0  0  0  0  0  0  0  0  0
  142.5230   81.3270  223.8430 C   0  0  0  0  0  0  0  0  0  0  0  0
  143.2540   80.2300  223.4370 C   0  0  0  0  0  0  0  0  0  0  0  0
  142.5710   79.0910  223.0630 C   0  0  0  0  0  0  0  0  0  0  0  0
  141.1960   79.0110  223.0800 C   0  0  0  0  0  0  0  0  0  0  0  0
  142.2912   77.9380  218.5241 H   0  0  0  0  0  0  0  0  0  0  0  0
  140.7519   78.1085  217.6217 H   0  0  0  0  0  0  0  0  0  0  0  0
  138.8018   79.2057  219.2160 H   0  0  0  0  0  0  0  0  0  0  0  0
  138.3992   81.3627  220.3605 H   0  0  0  0  0  0  0  0  0  0  0  0
  140.2893   82.7867  221.1130 H   0  0  0  0  0  0  0  0  0  0  0  0
  142.6325   82.0355  220.7125 H   0  0  0  0  0  0  0  0  0  0  0  0
  143.0206   79.8777  219.5663 H   0  0  0  0  0  0  0  0  0  0  0  0
  142.1939   74.7946  220.2077 H   0  0  0  0  0  0  0  0  0  0  0  0
  142.4605   74.8898  221.9008 H   0  0  0  0  0  0  0  0  0  0  0  0
  140.2235   72.7375  220.3938 H   0  0  0  0  0  0  0  0  0  0  0  0
  137.8093   72.3727  220.9308 H   0  0  0  0  0  0  0  0  0  0  0  0
  136.5914   74.1762  222.1754 H   0  0  0  0  0  0  0  0  0  0  0  0
  137.7699   76.2247  222.8380 H   0  0  0  0  0  0  0  0  0  0  0  0
  141.2944   76.5079  223.1521 H   0  0  0  0  0  0  0  0  0  0  0  0
  138.0798   78.0949  222.8498 H   0  0  0  0  0  0  0  0  0  0  0  0
  138.4360   80.5240  223.6920 H   0  0  0  0  0  0  0  0  0  0  0  0
  140.5786   82.1444  224.1893 H   0  0  0  0  0  0  0  0  0  0  0  0
  143.0385   82.2496  224.1481 H   0  0  0  0  0  0  0  0  0  0  0  0
  144.3532   80.2624  223.4120 H   0  0  0  0  0  0  0  0  0  0  0  0
  143.1473   78.2121  222.7384 H   0  0  0  0  0  0  0  0  0  0  0  0
  1  2  2  0
  2  3  2  0
  2  4  1  0
  4  5  1  0
  5  6  2  0
  6  7  1  0
  7  8  2  0
  8  9  1  0
  9 10  2  0
  2 11  1  0
 11 12  1  0
 12 13  1  0
 13 14  2  0
 14 15  1  0
 15 16  2  0
 16 17  1  0
 17 18  2  0
 18 19  1  0
 19 20  1  0
 20 21  2  0
 21 22  1  0
 22 23  1  0
 23 24  2  0
 24 25  1  0
 25 26  2  0
 26 27  1  0
 27 28  2  0
 10  5  1  0
 19 11  1  0
 28 20  1  0
 18 13  1  0
 28 23  1  0
  4 29  1  0
  4 30  1  0
  6 31  1  0
  7 32  1  0
  8 33  1  0
  9 34  1  0
 10 35  1  0
 12 36  1  0
 12 37  1  0
 14 38  1  0
 15 39  1  0
 16 40  1  0
 17 41  1  0
 19 42  1  1
 21 43  1  0
 22 44  1  0
 24 45  1  0
 25 46  1  0
 26 47  1  0
 27 48  1  0
M  END
>  <smiles>  (21) 
O=S(=O)(Cc1ccccc1)N1Cc2ccccc2C1c1c[nH]c2ccccc12

>  <score_type>  (21) 
oracle

>  <origin>  (21) 
autodockgpu

>  <m_score__min__energy>  (21) 
-7.54

>  <m_primary>  (21) 
energy

>  <rmsd>  (21) 
4.5350305962108735

>  <m_score__min__rmsd>  (21) 
4.5350305962108735

>  <meeko>  (21) 
{"free_energy": -6.26, "intermolecular_energy": -7.45, "internal_energy": -2.61, "cluster_size": 17, "cluster_id": 5, "rank_in_cluster": 13}

>  <energy>  (21) 
-7.38

>  <cluster_rmsd>  (21) 
0.2

>  <cluster>  (21) 
1

$$$$

     RDKit          3D

 48 52  0  0  1  0  0  0  0  0999 V2000
  137.9500   76.0700  222.8820 O   0  0  0  0  0  0  0  0  0  0  0  0
  139.0740   76.6760  222.0850 S   0  0  0  0  0  0  0  0  0  0  0  0
  140.3350   76.2160  222.7450 O   0  0  0  0  0  0  0  0  0  0  0  0
  138.9110   78.4580  222.2720 C   0  0  0  0  0  0  0  0  0  0  0  0
  140.2850   79.0620  222.4390 C   0  0  0  0  0  0  0  0  0  0  0  0
  140.9160   79.6450  221.3590 C   0  0  0  0  0  0  0  0  0  0  0  0
  142.1710   80.1930  221.5310 C   0  0  0  0  0  0  0  0  0  0  0  0
  142.8140   80.1700  222.7660 C   0  0  0  0  0  0  0  0  0  0  0  0
  142.1870   79.5890  223.8440 C   0  0  0  0  0  0  0  0  0  0  0  0
  140.9310   79.0450  223.6610 C   0  0  0  0  0  0  0  0  0  0  0  0
  138.9670   76.3270  220.4120 N   0  0  0  0  0  0  0  0  0  0  0  0
  137.9740   75.2150  220.3400 C   0  0  0  0  0  0  0  0  0  0  0  0
  138.7820   74.1740  221.0780 C   0  0  0  0  0  0  0  0  0  0  0  0
  138.4470   73.1230  221.9140 C   0  0  0  0  0  0  0  0  0  0  0  0
  139.4150   72.3050  222.4940 C   0  0  0  0  0  0  0  0  0  0  0  0
  140.7380   72.5850  222.2020 C   0  0  0  0  0  0  0  0  0  0  0  0
  141.0530   73.6440  221.3610 C   0  0  0  0  0  0  0  0  0  0  0  0
  140.1340   74.4550  220.7810 C   0  0  0  0  0  0  0  0  0  0  0  0
  140.0590   75.5960  219.8490 C   0  0  2  0  0  0  0  0  0  0  0  0
  141.2730   76.3000  219.5250 C   0  0  0  0  0  0  0  0  0  0  0  0
  142.6080   76.0810  219.7940 C   0  0  0  0  0  0  0  0  0  0  0  0
  143.3750   77.0600  219.2880 N   0  0  0  0  0  0  0  0  0  0  0  0
  142.5750   77.9460  218.6780 C   0  0  0  0  0  0  0  0  0  0  0  0
  142.8750   79.1050  218.0220 C   0  0  0  0  0  0  0  0  0  0  0  0
  141.8850   79.8670  217.4690 C   0  0  0  0  0  0  0  0  0  0  0  0
  140.5690   79.4660  217.5720 C   0  0  0  0  0  0  0  0  0  0  0  0
  140.2940   78.2910  218.2410 C   0  0  0  0  0  0  0  0  0  0  0  0
  141.2780   77.5090  218.8040 C   0  0  0  0  0  0  0  0  0  0  0  0
  138.4286   78.8801  221.3781 H   0  0  0  0  0  0  0  0  0  0  0  0
  138.2954   78.6845  223.1550 H   0  0  0  0  0  0  0  0  0  0  0  0
  140.4256   79.6726  220.3748 H   0  0  0  0  0  0  0  0  0  0  0  0
  142.6755   80.6592  220.6718 H   0  0  0  0  0  0  0  0  0  0  0  0
  143.8147   80.6126  222.8787 H   0  0  0  0  0  0  0  0  0  0  0  0
  142.6751   79.5585  224.8293 H   0  0  0  0  0  0  0  0  0  0  0  0
  140.4253   78.5805  224.5203 H   0  0  0  0  0  0  0  0  0  0  0  0
  137.0347   75.4593  220.8577 H   0  0  0  0  0  0  0  0  0  0  0  0
  137.6280   74.9374  219.3334 H   0  0  0  0  0  0  0  0  0  0  0  0
  137.3856   72.9276  222.1269 H   0  0  0  0  0  0  0  0  0  0  0  0
  139.1385   71.4714  223.1564 H   0  0  0  0  0  0  0  0  0  0  0  0
  141.5397   71.9692  222.6357 H   0  0  0  0  0  0  0  0  0  0  0  0
  142.1155   73.8373  221.1520 H   0  0  0  0  0  0  0  0  0  0  0  0
  139.8894   75.3000  218.8033 H   0  0  0  0  0  0  0  0  0  0  0  0
  142.9947   75.2153  220.3516 H   0  0  0  0  0  0  0  0  0  0  0  0
  144.4170   77.1410  219.3480 H   0  0  0  0  0  0  0  0  0  0  0  0
  143.9231   79.4282  217.9379 H   0  0  0  0  0  0  0  0  0  0  0  0
  142.1369   80.7992  216.9422 H   0  0  0  0  0  0  0  0  0  0  0  0
  139.7598   80.0675  217.1322 H   0  0  0  0  0  0  0  0  0  0  0  0
  139.2468   77.9658  218.3282 H   0  0  0  0  0  0  0  0  0  0  0  0
  1  2  2  0
  2  3  2  0
  2  4  1  0
  4  5  1  0
  5  6  2  0
  6  7  1  0
  7  8  2  0
  8  9  1  0
  9 10  2  0
  2 11  1  0
 11 12  1  0
 12 13  1  0
 13 14  2  0
 14 15  1  0
 15 16  2  0
 16 17  1  0
 17 18  2  0
 18 19  1  0
 19 20  1  0
 20 21  2  0
 21 22  1  0
 22 23  1  0
 23 24  2  0
 24 25  1  0
 25 26  2  0
 26 27  1  0
 27 28  2  0
 10  5  1  0
 19 11  1  0
 28 20  1  0
 18 13  1  0
 28 23  1  0
  4 29  1  0
  4 30  1  0
  6 31  1  0
  7 32  1  0
  8 33  1  0
  9 34  1  0
 10 35  1  0
 12 36  1  0
 12 37  1  0
 14 38  1  0
 15 39  1  0
 16 40  1  0
 17 41  1  0
 19 42  1  6
 21 43  1  0
 22 44  1  0
 24 45  1  0
 25 46  1  0
 26 47  1  0
 27 48  1  0
M  END
>  <smiles>  (22) 
O=S(=O)(Cc1ccccc1)N1Cc2ccccc2C1c1c[nH]c2ccccc12

>  <score_type>  (22) 
oracle

>  <origin>  (22) 
autodockgpu

>  <m_score__min__energy>  (22) 
-7.54

>  <m_primary>  (22) 
energy

>  <rmsd>  (22) 
5.3030921523404695

>  <m_score__min__rmsd>  (22) 
5.3030921523404695

>  <meeko>  (22) 
{"free_energy": -6.55, "intermolecular_energy": -7.75, "internal_energy": -2.29, "cluster_size": 25, "cluster_id": 1, "rank_in_cluster": 23}

>  <energy>  (22) 
-6.56

>  <cluster_rmsd>  (22) 
2.0

>  <cluster>  (22) 
1

$$$$

     RDKit          3D

 48 52  0  0  1  0  0  0  0  0999 V2000
  137.6980   75.4490  222.0210 O   0  0  0  0  0  0  0  0  0  0  0  0
  139.0660   75.8810  221.5610 S   0  0  0  0  0  0  0  0  0  0  0  0
  139.9790   75.6380  222.7210 O   0  0  0  0  0  0  0  0  0  0  0  0
  138.9490   77.6480  221.2460 C   0  0  0  0  0  0  0  0  0  0  0  0
  140.1940   78.3240  221.7670 C   0  0  0  0  0  0  0  0  0  0  0  0
  141.0530   78.9550  220.8900 C   0  0  0  0  0  0  0  0  0  0  0  0
  142.1860   79.5680  221.3850 C   0  0  0  0  0  0  0  0  0  0  0  0
  142.4820   79.5640  222.7460 C   0  0  0  0  0  0  0  0  0  0  0  0
  141.6270   78.9360  223.6220 C   0  0  0  0  0  0  0  0  0  0  0  0
  140.4960   78.3260  223.1150 C   0  0  0  0  0  0  0  0  0  0  0  0
  139.5430   75.1310  220.0970 N   0  0  0  0  0  0  0  0  0  0  0  0
  138.5360   74.0470  219.9040 C   0  0  0  0  0  0  0  0  0  0  0  0
  138.9060   73.2110  221.1060 C   0  0  0  0  0  0  0  0  0  0  0  0
  138.1800   72.4020  221.9650 C   0  0  0  0  0  0  0  0  0  0  0  0
  138.7790   71.7410  223.0360 C   0  0  0  0  0  0  0  0  0  0  0  0
  140.1380   71.9270  223.2150 C   0  0  0  0  0  0  0  0  0  0  0  0
  140.8470   72.7420  222.3430 C   0  0  0  0  0  0  0  0  0  0  0  0
  140.2940   73.3950  221.2920 C   0  0  0  0  0  0  0  0  0  0  0  0
  140.6840   74.2720  220.1710 C   0  0  2  0  0  0  0  0  0  0  0  0
  141.9980   74.8620  220.1850 C   0  0  0  0  0  0  0  0  0  0  0  0
  142.4750   76.1420  219.9940 C   0  0  0  0  0  0  0  0  0  0  0  0
  143.8140   76.1820  220.0810 N   0  0  0  0  0  0  0  0  0  0  0  0
  144.2550   74.9400  220.3270 C   0  0  0  0  0  0  0  0  0  0  0  0
  145.5260   74.4680  220.4930 C   0  0  0  0  0  0  0  0  0  0  0  0
  145.7480   73.1420  220.7350 C   0  0  0  0  0  0  0  0  0  0  0  0
  144.6830   72.2680  220.8130 C   0  0  0  0  0  0  0  0  0  0  0  0
  143.4100   72.7710  220.6420 C   0  0  0  0  0  0  0  0  0  0  0  0
  143.1660   74.1050  220.3970 C   0  0  0  0  0  0  0  0  0  0  0  0
  138.8589   77.8245  220.1640 H   0  0  0  0  0  0  0  0  0  0  0  0
  138.0635   78.0580  221.7538 H   0  0  0  0  0  0  0  0  0  0  0  0
  140.8374   78.9691  219.8114 H   0  0  0  0  0  0  0  0  0  0  0  0
  142.8718   80.0718  220.6880 H   0  0  0  0  0  0  0  0  0  0  0  0
  143.3916   80.0587  223.1173 H   0  0  0  0  0  0  0  0  0  0  0  0
  141.8391   78.9200  224.7012 H   0  0  0  0  0  0  0  0  0  0  0  0
  139.8095   77.8225  223.8115 H   0  0  0  0  0  0  0  0  0  0  0  0
  137.5032   74.4217  219.9575 H   0  0  0  0  0  0  0  0  0  0  0  0
  138.5550   73.5340  218.9311 H   0  0  0  0  0  0  0  0  0  0  0  0
  137.1000   72.2778  221.7970 H   0  0  0  0  0  0  0  0  0  0  0  0
  138.1952   71.0980  223.7110 H   0  0  0  0  0  0  0  0  0  0  0  0
  140.6566   71.4294  224.0478 H   0  0  0  0  0  0  0  0  0  0  0  0
  141.9262   72.8656  222.5161 H   0  0  0  0  0  0  0  0  0  0  0  0
  140.8796   73.7291  219.2345 H   0  0  0  0  0  0  0  0  0  0  0  0
  141.8397   77.0178  219.7958 H   0  0  0  0  0  0  0  0  0  0  0  0
  144.4300   77.0230  219.9770 H   0  0  0  0  0  0  0  0  0  0  0  0
  146.3778   75.1613  220.4313 H   0  0  0  0  0  0  0  0  0  0  0  0
  146.7751   72.7712  220.8676 H   0  0  0  0  0  0  0  0  0  0  0  0
  144.8451   71.1974  221.0066 H   0  0  0  0  0  0  0  0  0  0  0  0
  142.5562   72.0802  220.7036 H   0  0  0  0  0  0  0  0  0  0  0  0
  1  2  2  0
  2  3  2  0
  2  4  1  0
  4  5  1  0
  5  6  2  0
  6  7  1  0
  7  8  2  0
  8  9  1  0
  9 10  2  0
  2 11  1  0
 11 12  1  0
 12 13  1  0
 13 14  2  0
 14 15  1  0
 15 16  2  0
 16 17  1  0
 17 18  2  0
 18 19  1  0
 19 20  1  0
 20 21  2  0
 21 22  1  0
 22 23  1  0
 23 24  2  0
 24 25  1  0
 25 26  2  0
 26 27  1  0
 27 28  2  0
 10  5  1  0
 19 11  1  0
 28 20  1  0
 18 13  1  0
 28 23  1  0
  4 29  1  0
  4 30  1  0
  6 31  1  0
  7 32  1  0
  8 33  1  0
  9 34  1  0
 10 35  1  0
 12 36  1  0
 12 37  1  0
 14 38  1  0
 15 39  1  0
 16 40  1  0
 17 41  1  0
 19 42  1  6
 21 43  1  0
 22 44  1  0
 24 45  1  0
 25 46  1  0
 26 47  1  0
 27 48  1  0
M  END
>  <smiles>  (23) 
O=S(=O)(Cc1ccccc1)N1Cc2ccccc2C1c1c[nH]c2ccccc12

>  <score_type>  (23) 
oracle

>  <origin>  (23) 
autodockgpu

>  <m_score__min__energy>  (23) 
-7.54

>  <m_primary>  (23) 
energy

>  <rmsd>  (23) 
7.762824953448365

>  <m_score__min__rmsd>  (23) 
7.762824953448365

>  <meeko>  (23) 
{"free_energy": -7.44, "intermolecular_energy": -8.64, "internal_energy": -1.73, "cluster_size": 25, "cluster_id": 1, "rank_in_cluster": 12}

>  <energy>  (23) 
-6.55

>  <cluster_rmsd>  (23) 
2.0

>  <cluster>  (23) 
1

$$$$

     RDKit          3D

 48 52  0  0  1  0  0  0  0  0999 V2000
  140.6100   75.5080  218.7530 O   0  0  0  0  0  0  0  0  0  0  0  0
  140.5310   76.7400  219.6150 S   0  0  0  0  0  0  0  0  0  0  0  0
  139.0720   76.9970  219.8230 O   0  0  0  0  0  0  0  0  0  0  0  0
  141.2450   78.0750  218.6420 C   0  0  0  0  0  0  0  0  0  0  0  0
  140.9750   79.3880  219.3360 C   0  0  0  0  0  0  0  0  0  0  0  0
  142.0260   80.2110  219.6860 C   0  0  0  0  0  0  0  0  0  0  0  0
  141.7600   81.4080  220.3190 C   0  0  0  0  0  0  0  0  0  0  0  0
  140.4570   81.8030  220.6130 C   0  0  0  0  0  0  0  0  0  0  0  0
  139.4070   80.9850  220.2660 C   0  0  0  0  0  0  0  0  0  0  0  0
  139.6860   79.7890  219.6320 C   0  0  0  0  0  0  0  0  0  0  0  0
  141.4520   76.6060  221.0530 N   0  0  0  0  0  0  0  0  0  0  0  0
  141.7760   75.1520  221.1370 C   0  0  0  0  0  0  0  0  0  0  0  0
  140.3660   74.6420  221.3270 C   0  0  0  0  0  0  0  0  0  0  0  0
  139.7130   73.4830  220.9450 C   0  0  0  0  0  0  0  0  0  0  0  0
  138.3680   73.2650  221.2390 C   0  0  0  0  0  0  0  0  0  0  0  0
  137.7020   74.2600  221.9310 C   0  0  0  0  0  0  0  0  0  0  0  0
  138.3750   75.4160  222.3050 C   0  0  0  0  0  0  0  0  0  0  0  0
  139.6830   75.6550  222.0360 C   0  0  0  0  0  0  0  0  0  0  0  0
  140.7200   76.6750  222.2790 C   0  0  2  0  0  0  0  0  0  0  0  0
  140.3140   77.9640  222.7750 C   0  0  0  0  0  0  0  0  0  0  0  0
  139.0920   78.5430  223.0500 C   0  0  0  0  0  0  0  0  0  0  0  0
  139.2350   79.8070  223.4770 N   0  0  0  0  0  0  0  0  0  0  0  0
  140.5440   80.0980  223.4950 C   0  0  0  0  0  0  0  0  0  0  0  0
  141.1920   81.2470  223.8470 C   0  0  0  0  0  0  0  0  0  0  0  0
  142.5540   81.3240  223.7840 C   0  0  0  0  0  0  0  0  0  0  0  0
  143.2860   80.2330  223.3630 C   0  0  0  0  0  0  0  0  0  0  0  0
  142.6070   79.0840  223.0140 C   0  0  0  0  0  0  0  0  0  0  0  0
  141.2340   78.9880  223.0700 C   0  0  0  0  0  0  0  0  0  0  0  0
  142.3305   77.9236  218.5487 H   0  0  0  0  0  0  0  0  0  0  0  0
  140.7943   78.0856  217.6386 H   0  0  0  0  0  0  0  0  0  0  0  0
  143.0622   79.9167  219.4633 H   0  0  0  0  0  0  0  0  0  0  0  0
  142.5965   82.0656  220.5979 H   0  0  0  0  0  0  0  0  0  0  0  0
  140.2692   82.7616  221.1187 H   0  0  0  0  0  0  0  0  0  0  0  0
  138.3696   81.2759  220.4879 H   0  0  0  0  0  0  0  0  0  0  0  0
  138.8500   79.1311  219.3523 H   0  0  0  0  0  0  0  0  0  0  0  0
  142.2370   74.7724  220.2132 H   0  0  0  0  0  0  0  0  0  0  0  0
  142.5061   74.8604  221.9064 H   0  0  0  0  0  0  0  0  0  0  0  0
  140.2713   72.7120  220.3938 H   0  0  0  0  0  0  0  0  0  0  0  0
  137.8575   72.3399  220.9332 H   0  0  0  0  0  0  0  0  0  0  0  0
  136.6390   74.1359  222.1853 H   0  0  0  0  0  0  0  0  0  0  0  0
  137.8123   76.1857  222.8535 H   0  0  0  0  0  0  0  0  0  0  0  0
  141.3388   76.4717  223.1654 H   0  0  0  0  0  0  0  0  0  0  0  0
  138.1241   78.0334  222.9340 H   0  0  0  0  0  0  0  0  0  0  0  0
  138.4740   80.4720  223.7530 H   0  0  0  0  0  0  0  0  0  0  0  0
  140.6118   82.1185  224.1844 H   0  0  0  0  0  0  0  0  0  0  0  0
  143.0668   82.2547  224.0685 H   0  0  0  0  0  0  0  0  0  0  0  0
  144.3836   80.2782  223.3070 H   0  0  0  0  0  0  0  0  0  0  0  0
  143.1846   78.2103  222.6778 H   0  0  0  0  0  0  0  0  0  0  0  0
  1  2  2  0
  2  3  2  0
  2  4  1  0
  4  5  1  0
  5  6  2  0
  6  7  1  0
  7  8  2  0
  8  9  1  0
  9 10  2  0
  2 11  1  0
 11 12  1  0
 12 13  1  0
 13 14  2  0
 14 15  1  0
 15 16  2  0
 16 17  1  0
 17 18  2  0
 18 19  1  0
 19 20  1  0
 20 21  2  0
 21 22  1  0
 22 23  1  0
 23 24  2  0
 24 25  1  0
 25 26  2  0
 26 27  1  0
 27 28  2  0
 10  5  1  0
 19 11  1  0
 28 20  1  0
 18 13  1  0
 28 23  1  0
  4 29  1  0
  4 30  1  0
  6 31  1  0
  7 32  1  0
  8 33  1  0
  9 34  1  0
 10 35  1  0
 12 36  1  0
 12 37  1  0
 14 38  1  0
 15 39  1  0
 16 40  1  0
 17 41  1  0
 19 42  1  1
 21 43  1  0
 22 44  1  0
 24 45  1  0
 25 46  1  0
 26 47  1  0
 27 48  1  0
M  END
>  <smiles>  (24) 
O=S(=O)(Cc1ccccc1)N1Cc2ccccc2C1c1c[nH]c2ccccc12

>  <score_type>  (24) 
oracle

>  <origin>  (24) 
autodockgpu

>  <m_score__min__energy>  (24) 
-7.54

>  <m_primary>  (24) 
energy

>  <rmsd>  (24) 
4.544701385199256

>  <m_score__min__rmsd>  (24) 
4.544701385199256

>  <meeko>  (24) 
{"free_energy": -6.25, "intermolecular_energy": -7.44, "internal_energy": -2.61, "cluster_size": 17, "cluster_id": 5, "rank_in_cluster": 15}

>  <energy>  (24) 
-6.55

>  <cluster_rmsd>  (24) 
1.99

>  <cluster>  (24) 
1

$$$$

     RDKit          3D

 48 52  0  0  1  0  0  0  0  0999 V2000
  137.7030   75.4410  222.0190 O   0  0  0  0  0  0  0  0  0  0  0  0
  139.0680   75.8850  221.5620 S   0  0  0  0  0  0  0  0  0  0  0  0
  139.9830   75.6380  222.7190 O   0  0  0  0  0  0  0  0  0  0  0  0
  138.9410   77.6540  221.2600 C   0  0  0  0  0  0  0  0  0  0  0  0
  140.1810   78.3330  221.7880 C   0  0  0  0  0  0  0  0  0  0  0  0
  141.0460   78.9630  220.9150 C   0  0  0  0  0  0  0  0  0  0  0  0
  142.1740   79.5790  221.4160 C   0  0  0  0  0  0  0  0  0  0  0  0
  142.4610   79.5790  222.7800 C   0  0  0  0  0  0  0  0  0  0  0  0
  141.6010   78.9520  223.6520 C   0  0  0  0  0  0  0  0  0  0  0  0
  140.4740   78.3380  223.1380 C   0  0  0  0  0  0  0  0  0  0  0  0
  139.5490   75.1480  220.0920 N   0  0  0  0  0  0  0  0  0  0  0  0
  138.5410   74.0680  219.8850 C   0  0  0  0  0  0  0  0  0  0  0  0
  138.9060   73.2200  221.0810 C   0  0  0  0  0  0  0  0  0  0  0  0
  138.1770   72.4030  221.9290 C   0  0  0  0  0  0  0  0  0  0  0  0
  138.7710   71.7310  222.9950 C   0  0  0  0  0  0  0  0  0  0  0  0
  140.1300   71.9130  223.1800 C   0  0  0  0  0  0  0  0  0  0  0  0
  140.8430   72.7360  222.3190 C   0  0  0  0  0  0  0  0  0  0  0  0
  140.2940   73.4000  221.2720 C   0  0  0  0  0  0  0  0  0  0  0  0
  140.6880   74.2870  220.1610 C   0  0  2  0  0  0  0  0  0  0  0  0
  142.0030   74.8750  220.1840 C   0  0  0  0  0  0  0  0  0  0  0  0
  142.4830   76.1550  219.9980 C   0  0  0  0  0  0  0  0  0  0  0  0
  143.8220   76.1930  220.0940 N   0  0  0  0  0  0  0  0  0  0  0  0
  144.2600   74.9500  220.3420 C   0  0  0  0  0  0  0  0  0  0  0  0
  145.5280   74.4760  220.5170 C   0  0  0  0  0  0  0  0  0  0  0  0
  145.7470   73.1500  220.7600 C   0  0  0  0  0  0  0  0  0  0  0  0
  144.6800   72.2780  220.8300 C   0  0  0  0  0  0  0  0  0  0  0  0
  143.4090   72.7830  220.6500 C   0  0  0  0  0  0  0  0  0  0  0  0
  143.1680   74.1160  220.4040 C   0  0  0  0  0  0  0  0  0  0  0  0
  138.8516   77.8381  220.1792 H   0  0  0  0  0  0  0  0  0  0  0  0
  138.0523   78.0550  221.7693 H   0  0  0  0  0  0  0  0  0  0  0  0
  140.8383   78.9734  219.8348 H   0  0  0  0  0  0  0  0  0  0  0  0
  142.8636   80.0823  220.7224 H   0  0  0  0  0  0  0  0  0  0  0  0
  143.3674   80.0761  223.1561 H   0  0  0  0  0  0  0  0  0  0  0  0
  141.8054   78.9396  224.7328 H   0  0  0  0  0  0  0  0  0  0  0  0
  139.7840   77.8340  223.8307 H   0  0  0  0  0  0  0  0  0  0  0  0
  137.5086   74.4439  219.9384 H   0  0  0  0  0  0  0  0  0  0  0  0
  138.5622   73.5642  218.9074 H   0  0  0  0  0  0  0  0  0  0  0  0
  137.0976   72.2812  221.7558 H   0  0  0  0  0  0  0  0  0  0  0  0
  138.1839   71.0826  223.6620 H   0  0  0  0  0  0  0  0  0  0  0  0
  140.6453   71.4058  224.0090 H   0  0  0  0  0  0  0  0  0  0  0  0
  141.9217   72.8571  222.4974 H   0  0  0  0  0  0  0  0  0  0  0  0
  140.8853   73.7527  219.2199 H   0  0  0  0  0  0  0  0  0  0  0  0
  141.8501   77.0319  219.7969 H   0  0  0  0  0  0  0  0  0  0  0  0
  144.4390   77.0330  219.9950 H   0  0  0  0  0  0  0  0  0  0  0  0
  146.3811   75.1682  220.4618 H   0  0  0  0  0  0  0  0  0  0  0  0
  146.7726   72.7777  220.8997 H   0  0  0  0  0  0  0  0  0  0  0  0
  144.8389   71.2070  221.0245 H   0  0  0  0  0  0  0  0  0  0  0  0
  142.5540   72.0932  220.7052 H   0  0  0  0  0  0  0  0  0  0  0  0
  1  2  2  0
  2  3  2  0
  2  4  1  0
  4  5  1  0
  5  6  2  0
  6  7  1  0
  7  8  2  0
  8  9  1  0
  9 10  2  0
  2 11  1  0
 11 12  1  0
 12 13  1  0
 13 14  2  0
 14 15  1  0
 15 16  2  0
 16 17  1  0
 17 18  2  0
 18 19  1  0
 19 20  1  0
 20 21  2  0
 21 22  1  0
 22 23  1  0
 23 24  2  0
 24 25  1  0
 25 26  2  0
 26 27  1  0
 27 28  2  0
 10  5  1  0
 19 11  1  0
 28 20  1  0
 18 13  1  0
 28 23  1  0
  4 29  1  0
  4 30  1  0
  6 31  1  0
  7 32  1  0
  8 33  1  0
  9 34  1  0
 10 35  1  0
 12 36  1  0
 12 37  1  0
 14 38  1  0
 15 39  1  0
 16 40  1  0
 17 41  1  0
 19 42  1  6
 21 43  1  0
 22 44  1  0
 24 45  1  0
 25 46  1  0
 26 47  1  0
 27 48  1  0
M  END
>  <smiles>  (25) 
O=S(=O)(Cc1ccccc1)N1Cc2ccccc2C1c1c[nH]c2ccccc12

>  <score_type>  (25) 
oracle

>  <origin>  (25) 
autodockgpu

>  <m_score__min__energy>  (25) 
-7.54

>  <m_primary>  (25) 
energy

>  <rmsd>  (25) 
7.750339217000815

>  <m_score__min__rmsd>  (25) 
7.750339217000815

>  <meeko>  (25) 
{"free_energy": -7.44, "intermolecular_energy": -8.63, "internal_energy": -1.72, "cluster_size": 25, "cluster_id": 1, "rank_in_cluster": 13}

>  <energy>  (25) 
-6.54

>  <cluster_rmsd>  (25) 
1.99

>  <cluster>  (25) 
1

$$$$

     RDKit          3D

 48 52  0  0  1  0  0  0  0  0999 V2000
  138.1320   76.0930  223.0630 O   0  0  0  0  0  0  0  0  0  0  0  0
  139.1980   76.7560  222.2320 S   0  0  0  0  0  0  0  0  0  0  0  0
  140.5020   76.3010  222.8050 O   0  0  0  0  0  0  0  0  0  0  0  0
  139.0080   78.5260  222.4980 C   0  0  0  0  0  0  0  0  0  0  0  0
  140.3750   79.1620  222.5670 C   0  0  0  0  0  0  0  0  0  0  0  0
  140.9350   79.7150  221.4330 C   0  0  0  0  0  0  0  0  0  0  0  0
  142.1850   80.2930  221.5150 C   0  0  0  0  0  0  0  0  0  0  0  0
  142.8940   80.3310  222.7140 C   0  0  0  0  0  0  0  0  0  0  0  0
  142.3380   79.7800  223.8460 C   0  0  0  0  0  0  0  0  0  0  0  0
  141.0860   79.2050  223.7510 C   0  0  0  0  0  0  0  0  0  0  0  0
  139.0080   76.4690  220.5540 N   0  0  0  0  0  0  0  0  0  0  0  0
  137.9710   75.3970  220.4890 C   0  0  0  0  0  0  0  0  0  0  0  0
  138.7710   74.3030  221.1560 C   0  0  0  0  0  0  0  0  0  0  0  0
  138.4320   73.2360  221.9710 C   0  0  0  0  0  0  0  0  0  0  0  0
  139.3920   72.3640  222.4800 C   0  0  0  0  0  0  0  0  0  0  0  0
  140.7110   72.6060  222.1410 C   0  0  0  0  0  0  0  0  0  0  0  0
  141.0300   73.6820  221.3230 C   0  0  0  0  0  0  0  0  0  0  0  0
  140.1180   74.5450  220.8100 C   0  0  0  0  0  0  0  0  0  0  0  0
  140.0470   75.7190  219.9200 C   0  0  2  0  0  0  0  0  0  0  0  0
  141.2720   76.3900  219.5680 C   0  0  0  0  0  0  0  0  0  0  0  0
  142.6050   76.1480  219.8270 C   0  0  0  0  0  0  0  0  0  0  0  0
  143.3870   77.0990  219.2920 N   0  0  0  0  0  0  0  0  0  0  0  0
  142.5990   77.9890  218.6710 C   0  0  0  0  0  0  0  0  0  0  0  0
  142.9170   79.1270  217.9870 C   0  0  0  0  0  0  0  0  0  0  0  0
  141.9370   79.8980  217.4300 C   0  0  0  0  0  0  0  0  0  0  0  0
  140.6140   79.5290  217.5560 C   0  0  0  0  0  0  0  0  0  0  0  0
  140.3210   78.3740  218.2520 C   0  0  0  0  0  0  0  0  0  0  0  0
  141.2950   77.5830  218.8220 C   0  0  0  0  0  0  0  0  0  0  0  0
  138.4386   78.9650  221.6655 H   0  0  0  0  0  0  0  0  0  0  0  0
  138.4671   78.7045  223.4391 H   0  0  0  0  0  0  0  0  0  0  0  0
  140.3918   79.6951  220.4767 H   0  0  0  0  0  0  0  0  0  0  0  0
  142.6327   80.7344  220.6123 H   0  0  0  0  0  0  0  0  0  0  0  0
  143.8894   80.7973  222.7554 H   0  0  0  0  0  0  0  0  0  0  0  0
  142.8782   79.7972  224.8040 H   0  0  0  0  0  0  0  0  0  0  0  0
  140.6372   78.7640  224.6533 H   0  0  0  0  0  0  0  0  0  0  0  0
  137.0647   75.6570  221.0555 H   0  0  0  0  0  0  0  0  0  0  0  0
  137.5713   75.1671  219.4903 H   0  0  0  0  0  0  0  0  0  0  0  0
  137.3741   73.0722  222.2238 H   0  0  0  0  0  0  0  0  0  0  0  0
  139.1125   71.5179  223.1249 H   0  0  0  0  0  0  0  0  0  0  0  0
  141.5064   71.9469  222.5189 H   0  0  0  0  0  0  0  0  0  0  0  0
  142.0894   73.8447  221.0755 H   0  0  0  0  0  0  0  0  0  0  0  0
  139.8229   75.4654  218.8734 H   0  0  0  0  0  0  0  0  0  0  0  0
  142.9794   75.2861  220.3988 H   0  0  0  0  0  0  0  0  0  0  0  0
  144.4320   77.1590  219.3380 H   0  0  0  0  0  0  0  0  0  0  0  0
  143.9708   79.4252  217.8837 H   0  0  0  0  0  0  0  0  0  0  0  0
  142.2028   80.8133  216.8808 H   0  0  0  0  0  0  0  0  0  0  0  0
  139.8132   80.1395  217.1132 H   0  0  0  0  0  0  0  0  0  0  0  0
  139.2682   78.0727  218.3560 H   0  0  0  0  0  0  0  0  0  0  0  0
  1  2  2  0
  2  3  2  0
  2  4  1  0
  4  5  1  0
  5  6  2  0
  6  7  1  0
  7  8  2  0
  8  9  1  0
  9 10  2  0
  2 11  1  0
 11 12  1  0
 12 13  1  0
 13 14  2  0
 14 15  1  0
 15 16  2  0
 16 17  1  0
 17 18  2  0
 18 19  1  0
 19 20  1  0
 20 21  2  0
 21 22  1  0
 22 23  1  0
 23 24  2  0
 24 25  1  0
 25 26  2  0
 26 27  1  0
 27 28  2  0
 10  5  1  0
 19 11  1  0
 28 20  1  0
 18 13  1  0
 28 23  1  0
  4 29  1  0
  4 30  1  0
  6 31  1  0
  7 32  1  0
  8 33  1  0
  9 34  1  0
 10 35  1  0
 12 36  1  0
 12 37  1  0
 14 38  1  0
 15 39  1  0
 16 40  1  0
 17 41  1  0
 19 42  1  6
 21 43  1  0
 22 44  1  0
 24 45  1  0
 25 46  1  0
 26 47  1  0
 27 48  1  0
M  END
>  <smiles>  (26) 
O=S(=O)(Cc1ccccc1)N1Cc2ccccc2C1c1c[nH]c2ccccc12

>  <score_type>  (26) 
oracle

>  <origin>  (26) 
autodockgpu

>  <m_score__min__energy>  (26) 
-7.54

>  <m_primary>  (26) 
energy

>  <rmsd>  (26) 
5.2370142003350315

>  <m_score__min__rmsd>  (26) 
5.2370142003350315

>  <meeko>  (26) 
{"free_energy": -6.56, "intermolecular_energy": -7.75, "internal_energy": -2.25, "cluster_size": 5, "cluster_id": 4, "rank_in_cluster": 1}

>  <energy>  (26) 
-7.37

>  <cluster_rmsd>  (26) 
0.0

>  <cluster>  (26) 
2

$$$$

     RDKit          3D

 48 52  0  0  1  0  0  0  0  0999 V2000
  140.6310   75.4610  218.8010 O   0  0  0  0  0  0  0  0  0  0  0  0
  140.5380   76.7060  219.6440 S   0  0  0  0  0  0  0  0  0  0  0  0
  139.0760   76.9670  219.8230 O   0  0  0  0  0  0  0  0  0  0  0  0
  141.2710   78.0260  218.6660 C   0  0  0  0  0  0  0  0  0  0  0  0
  140.9960   79.3480  219.3400 C   0  0  0  0  0  0  0  0  0  0  0  0
  142.0460   80.1610  219.7160 C   0  0  0  0  0  0  0  0  0  0  0  0
  141.7750   81.3660  220.3310 C   0  0  0  0  0  0  0  0  0  0  0  0
  140.4680   81.7810  220.5800 C   0  0  0  0  0  0  0  0  0  0  0  0
  139.4190   80.9720  220.2060 C   0  0  0  0  0  0  0  0  0  0  0  0
  139.7030   79.7680  219.5910 C   0  0  0  0  0  0  0  0  0  0  0  0
  141.4330   76.5910  221.1000 N   0  0  0  0  0  0  0  0  0  0  0  0
  141.7450   75.1360  221.2160 C   0  0  0  0  0  0  0  0  0  0  0  0
  140.3290   74.6390  221.3900 C   0  0  0  0  0  0  0  0  0  0  0  0
  139.6730   73.4780  221.0170 C   0  0  0  0  0  0  0  0  0  0  0  0
  138.3220   73.2740  221.2910 C   0  0  0  0  0  0  0  0  0  0  0  0
  137.6510   74.2860  221.9530 C   0  0  0  0  0  0  0  0  0  0  0  0
  138.3260   75.4430  222.3190 C   0  0  0  0  0  0  0  0  0  0  0  0
  139.6400   75.6680  222.0690 C   0  0  0  0  0  0  0  0  0  0  0  0
  140.6800   76.6860  222.3130 C   0  0  2  0  0  0  0  0  0  0  0  0
  140.2740   77.9870  222.7780 C   0  0  0  0  0  0  0  0  0  0  0  0
  139.0510   78.5860  222.9990 C   0  0  0  0  0  0  0  0  0  0  0  0
  139.1970   79.8530  223.4180 N   0  0  0  0  0  0  0  0  0  0  0  0
  140.5080   80.1250  223.4830 C   0  0  0  0  0  0  0  0  0  0  0  0
  141.1590   81.2680  223.8470 C   0  0  0  0  0  0  0  0  0  0  0  0
  142.5230   81.3250  223.8360 C   0  0  0  0  0  0  0  0  0  0  0  0
  143.2550   80.2190  223.4550 C   0  0  0  0  0  0  0  0  0  0  0  0
  142.5730   79.0760  223.0920 C   0  0  0  0  0  0  0  0  0  0  0  0
  141.1980   79.0000  223.0970 C   0  0  0  0  0  0  0  0  0  0  0  0
  142.3572   77.8695  218.5905 H   0  0  0  0  0  0  0  0  0  0  0  0
  140.8351   78.0261  217.6560 H   0  0  0  0  0  0  0  0  0  0  0  0
  143.0850   79.8524  219.5279 H   0  0  0  0  0  0  0  0  0  0  0  0
  142.6107   82.0148  220.6320 H   0  0  0  0  0  0  0  0  0  0  0  0
  140.2764   82.7465  221.0711 H   0  0  0  0  0  0  0  0  0  0  0  0
  138.3787   81.2771  220.3925 H   0  0  0  0  0  0  0  0  0  0  0  0
  138.8681   79.1184  219.2894 H   0  0  0  0  0  0  0  0  0  0  0  0
  142.2195   74.7366  220.3076 H   0  0  0  0  0  0  0  0  0  0  0  0
  142.4592   74.8536  222.0035 H   0  0  0  0  0  0  0  0  0  0  0  0
  140.2349   72.6936  220.4888 H   0  0  0  0  0  0  0  0  0  0  0  0
  137.8106   72.3468  220.9932 H   0  0  0  0  0  0  0  0  0  0  0  0
  136.5826   74.1744  222.1896 H   0  0  0  0  0  0  0  0  0  0  0  0
  137.7597   76.2260  222.8445 H   0  0  0  0  0  0  0  0  0  0  0  0
  141.2811   76.4938  223.2140 H   0  0  0  0  0  0  0  0  0  0  0  0
  138.0808   78.0892  222.8509 H   0  0  0  0  0  0  0  0  0  0  0  0
  138.4350   80.5310  223.6570 H   0  0  0  0  0  0  0  0  0  0  0  0
  140.5792   82.1516  224.1521 H   0  0  0  0  0  0  0  0  0  0  0  0
  143.0378   82.2514  224.1305 H   0  0  0  0  0  0  0  0  0  0  0  0
  144.3545   80.2480  223.4411 H   0  0  0  0  0  0  0  0  0  0  0  0
  143.1501   78.1907  222.7866 H   0  0  0  0  0  0  0  0  0  0  0  0
  1  2  2  0
  2  3  2  0
  2  4  1  0
  4  5  1  0
  5  6  2  0
  6  7  1  0
  7  8  2  0
  8  9  1  0
  9 10  2  0
  2 11  1  0
 11 12  1  0
 12 13  1  0
 13 14  2  0
 14 15  1  0
 15 16  2  0
 16 17  1  0
 17 18  2  0
 18 19  1  0
 19 20  1  0
 20 21  2  0
 21 22  1  0
 22 23  1  0
 23 24  2  0
 24 25  1  0
 25 26  2  0
 26 27  1  0
 27 28  2  0
 10  5  1  0
 19 11  1  0
 28 20  1  0
 18 13  1  0
 28 23  1  0
  4 29  1  0
  4 30  1  0
  6 31  1  0
  7 32  1  0
  8 33  1  0
  9 34  1  0
 10 35  1  0
 12 36  1  0
 12 37  1  0
 14 38  1  0
 15 39  1  0
 16 40  1  0
 17 41  1  0
 19 42  1  1
 21 43  1  0
 22 44  1  0
 24 45  1  0
 25 46  1  0
 26 47  1  0
 27 48  1  0
M  END
>  <smiles>  (27) 
O=S(=O)(Cc1ccccc1)N1Cc2ccccc2C1c1c[nH]c2ccccc12

>  <score_type>  (27) 
oracle

>  <origin>  (27) 
autodockgpu

>  <m_score__min__energy>  (27) 
-7.54

>  <m_primary>  (27) 
energy

>  <rmsd>  (27) 
4.560119060687371

>  <m_score__min__rmsd>  (27) 
4.560119060687371

>  <meeko>  (27) 
{"free_energy": -6.28, "intermolecular_energy": -7.47, "internal_energy": -2.61, "cluster_size": 17, "cluster_id": 5, "rank_in_cluster": 2}

>  <energy>  (27) 
-7.32

>  <cluster_rmsd>  (27) 
1.2

>  <cluster>  (27) 
2

$$$$

     RDKit          3D

 48 52  0  0  1  0  0  0  0  0999 V2000
  137.6970   75.5590  222.0550 O   0  0  0  0  0  0  0  0  0  0  0  0
  139.0560   75.9920  221.5720 S   0  0  0  0  0  0  0  0  0  0  0  0
  139.9940   75.7260  222.7060 O   0  0  0  0  0  0  0  0  0  0  0  0
  138.9410   77.7650  221.2880 C   0  0  0  0  0  0  0  0  0  0  0  0
  140.1710   78.4340  221.8530 C   0  0  0  0  0  0  0  0  0  0  0  0
  141.0830   79.0270  221.0030 C   0  0  0  0  0  0  0  0  0  0  0  0
  142.2020   79.6340  221.5370 C   0  0  0  0  0  0  0  0  0  0  0  0
  142.4310   79.6620  222.9110 C   0  0  0  0  0  0  0  0  0  0  0  0
  141.5240   79.0710  223.7600 C   0  0  0  0  0  0  0  0  0  0  0  0
  140.4070   78.4660  223.2130 C   0  0  0  0  0  0  0  0  0  0  0  0
  139.4960   75.2640  220.0850 N   0  0  0  0  0  0  0  0  0  0  0  0
  138.4510   74.2200  219.8730 C   0  0  0  0  0  0  0  0  0  0  0  0
  138.8020   73.3420  221.0510 C   0  0  0  0  0  0  0  0  0  0  0  0
  138.0560   72.5360  221.8950 C   0  0  0  0  0  0  0  0  0  0  0  0
  138.6390   71.8280  222.9440 C   0  0  0  0  0  0  0  0  0  0  0  0
  140.0050   71.9630  223.1160 C   0  0  0  0  0  0  0  0  0  0  0  0
  140.7350   72.7760  222.2590 C   0  0  0  0  0  0  0  0  0  0  0  0
  140.1960   73.4740  221.2290 C   0  0  0  0  0  0  0  0  0  0  0  0
  140.6080   74.3650  220.1280 C   0  0  2  0  0  0  0  0  0  0  0  0
  141.9410   74.9100  220.1450 C   0  0  0  0  0  0  0  0  0  0  0  0
  142.4630   76.1710  219.9450 C   0  0  0  0  0  0  0  0  0  0  0  0
  143.8030   76.1650  220.0410 N   0  0  0  0  0  0  0  0  0  0  0  0
  144.1990   74.9120  220.3030 C   0  0  0  0  0  0  0  0  0  0  0  0
  145.4510   74.3980  220.4830 C   0  0  0  0  0  0  0  0  0  0  0  0
  145.6260   73.0680  220.7400 C   0  0  0  0  0  0  0  0  0  0  0  0
  144.5310   72.2320  220.8190 C   0  0  0  0  0  0  0  0  0  0  0  0
  143.2770   72.7770  220.6340 C   0  0  0  0  0  0  0  0  0  0  0  0
  143.0810   74.1150  220.3730 C   0  0  0  0  0  0  0  0  0  0  0  0
  138.8773   77.9621  220.2077 H   0  0  0  0  0  0  0  0  0  0  0  0
  138.0418   78.1629  221.7811 H   0  0  0  0  0  0  0  0  0  0  0  0
  140.9203   79.0160  219.9152 H   0  0  0  0  0  0  0  0  0  0  0  0
  142.9302   80.1068  220.8616 H   0  0  0  0  0  0  0  0  0  0  0  0
  143.3295   80.1525  223.3136 H   0  0  0  0  0  0  0  0  0  0  0  0
  141.6834   79.0794  224.8483 H   0  0  0  0  0  0  0  0  0  0  0  0
  139.6786   77.9921  223.8874 H   0  0  0  0  0  0  0  0  0  0  0  0
  137.4319   74.6279  219.9445 H   0  0  0  0  0  0  0  0  0  0  0  0
  138.4448   73.7315  218.8874 H   0  0  0  0  0  0  0  0  0  0  0  0
  136.9713   72.4524  221.7324 H   0  0  0  0  0  0  0  0  0  0  0  0
  138.0383   71.1886  223.6075 H   0  0  0  0  0  0  0  0  0  0  0  0
  140.5127   71.4266  223.9312 H   0  0  0  0  0  0  0  0  0  0  0  0
  141.8190   72.8590  222.4263 H   0  0  0  0  0  0  0  0  0  0  0  0
  140.7791   73.8390  219.1772 H   0  0  0  0  0  0  0  0  0  0  0  0
  141.8597   77.0663  219.7341 H   0  0  0  0  0  0  0  0  0  0  0  0
  144.4470   76.9840  219.9330 H   0  0  0  0  0  0  0  0  0  0  0  0
  146.3266   75.0609  220.4205 H   0  0  0  0  0  0  0  0  0  0  0  0
  146.6388   72.6637  220.8839 H   0  0  0  0  0  0  0  0  0  0  0  0
  144.6547   71.1584  221.0242 H   0  0  0  0  0  0  0  0  0  0  0  0
  142.3993   72.1169  220.6975 H   0  0  0  0  0  0  0  0  0  0  0  0
  1  2  2  0
  2  3  2  0
  2  4  1  0
  4  5  1  0
  5  6  2  0
  6  7  1  0
  7  8  2  0
  8  9  1  0
  9 10  2  0
  2 11  1  0
 11 12  1  0
 12 13  1  0
 13 14  2  0
 14 15  1  0
 15 16  2  0
 16 17  1  0
 17 18  2  0
 18 19  1  0
 19 20  1  0
 20 21  2  0
 21 22  1  0
 22 23  1  0
 23 24  2  0
 24 25  1  0
 25 26  2  0
 26 27  1  0
 27 28  2  0
 10  5  1  0
 19 11  1  0
 28 20  1  0
 18 13  1  0
 28 23  1  0
  4 29  1  0
  4 30  1  0
  6 31  1  0
  7 32  1  0
  8 33  1  0
  9 34  1  0
 10 35  1  0
 12 36  1  0
 12 37  1  0
 14 38  1  0
 15 39  1  0
 16 40  1  0
 17 41  1  0
 19 42  1  6
 21 43  1  0
 22 44  1  0
 24 45  1  0
 25 46  1  0
 26 47  1  0
 27 48  1  0
M  END
>  <smiles>  (28) 
O=S(=O)(Cc1ccccc1)N1Cc2ccccc2C1c1c[nH]c2ccccc12

>  <score_type>  (28) 
oracle

>  <origin>  (28) 
autodockgpu

>  <m_score__min__energy>  (28) 
-7.54

>  <m_primary>  (28) 
energy

>  <rmsd>  (28) 
7.706163557755085

>  <m_score__min__rmsd>  (28) 
7.706163557755085

>  <meeko>  (28) 
{"free_energy": -7.48, "intermolecular_energy": -8.67, "internal_energy": -1.66, "cluster_size": 25, "cluster_id": 1, "rank_in_cluster": 8}

>  <energy>  (28) 
-7.19

>  <cluster_rmsd>  (28) 
0.0

>  <cluster>  (28) 
3

$$$$

     RDKit          3D

 48 52  0  0  1  0  0  0  0  0999 V2000
  137.6710   75.4260  221.7830 O   0  0  0  0  0  0  0  0  0  0  0  0
  139.0630   75.8280  221.3760 S   0  0  0  0  0  0  0  0  0  0  0  0
  139.9210   75.6020  222.5800 O   0  0  0  0  0  0  0  0  0  0  0  0
  138.9860   77.5880  221.0110 C   0  0  0  0  0  0  0  0  0  0  0  0
  139.9650   78.3170  221.9000 C   0  0  0  0  0  0  0  0  0  0  0  0
  139.5430   78.8420  223.1050 C   0  0  0  0  0  0  0  0  0  0  0  0
  140.4520   79.5040  223.9040 C   0  0  0  0  0  0  0  0  0  0  0  0
  141.7840   79.6550  223.5230 C   0  0  0  0  0  0  0  0  0  0  0  0
  142.2070   79.1330  222.3230 C   0  0  0  0  0  0  0  0  0  0  0  0
  141.2880   78.4720  221.5310 C   0  0  0  0  0  0  0  0  0  0  0  0
  139.5950   75.0350  219.9530 N   0  0  0  0  0  0  0  0  0  0  0  0
  138.6120   73.9270  219.7710 C   0  0  0  0  0  0  0  0  0  0  0  0
  138.9620   73.1410  221.0130 C   0  0  0  0  0  0  0  0  0  0  0  0
  138.2270   72.3500  221.8790 C   0  0  0  0  0  0  0  0  0  0  0  0
  138.8060   71.7390  222.9900 C   0  0  0  0  0  0  0  0  0  0  0  0
  140.1560   71.9550  223.1990 C   0  0  0  0  0  0  0  0  0  0  0  0
  140.8750   72.7520  222.3190 C   0  0  0  0  0  0  0  0  0  0  0  0
  140.3410   73.3570  221.2290 C   0  0  0  0  0  0  0  0  0  0  0  0
  140.7480   74.2000  220.0890 C   0  0  2  0  0  0  0  0  0  0  0  0
  142.0510   74.8130  220.1180 C   0  0  0  0  0  0  0  0  0  0  0  0
  142.5080   76.1000  219.9210 C   0  0  0  0  0  0  0  0  0  0  0  0
  143.8440   76.1650  220.0300 N   0  0  0  0  0  0  0  0  0  0  0  0
  144.3030   74.9340  220.2960 C   0  0  0  0  0  0  0  0  0  0  0  0
  145.5790   74.4870  220.4890 C   0  0  0  0  0  0  0  0  0  0  0  0
  145.8210   73.1680  220.7500 C   0  0  0  0  0  0  0  0  0  0  0  0
  144.7710   72.2760  220.8200 C   0  0  0  0  0  0  0  0  0  0  0  0
  143.4920   72.7540  220.6220 C   0  0  0  0  0  0  0  0  0  0  0  0
  143.2280   74.0800  220.3580 C   0  0  0  0  0  0  0  0  0  0  0  0
  139.2482   77.7579  219.9563 H   0  0  0  0  0  0  0  0  0  0  0  0
  137.9677   77.9616  221.1942 H   0  0  0  0  0  0  0  0  0  0  0  0
  138.4958   78.7339  223.4238 H   0  0  0  0  0  0  0  0  0  0  0  0
  140.1175   79.9226  224.8647 H   0  0  0  0  0  0  0  0  0  0  0  0
  142.4910   80.1871  224.1765 H   0  0  0  0  0  0  0  0  0  0  0  0
  143.2534   79.2394  222.0010 H   0  0  0  0  0  0  0  0  0  0  0  0
  141.6219   78.0531  220.5702 H   0  0  0  0  0  0  0  0  0  0  0  0
  137.5719   74.2849  219.7820 H   0  0  0  0  0  0  0  0  0  0  0  0
  138.6671   73.3801  218.8182 H   0  0  0  0  0  0  0  0  0  0  0  0
  137.1548   72.1992  221.6848 H   0  0  0  0  0  0  0  0  0  0  0  0
  138.2139   71.1112  223.6721 H   0  0  0  0  0  0  0  0  0  0  0  0
  140.6597   71.4954  224.0622 H   0  0  0  0  0  0  0  0  0  0  0  0
  141.9463   72.9025  222.5184 H   0  0  0  0  0  0  0  0  0  0  0  0
  140.9796   73.6283  219.1782 H   0  0  0  0  0  0  0  0  0  0  0  0
  141.8604   76.9620  219.7027 H   0  0  0  0  0  0  0  0  0  0  0  0
  144.4460   77.0160  219.9260 H   0  0  0  0  0  0  0  0  0  0  0  0
  146.4190   75.1950  220.4338 H   0  0  0  0  0  0  0  0  0  0  0  0
  146.8522   72.8176  220.9042 H   0  0  0  0  0  0  0  0  0  0  0  0
  144.9490   71.2107  221.0284 H   0  0  0  0  0  0  0  0  0  0  0  0
  142.6499   72.0484  220.6771 H   0  0  0  0  0  0  0  0  0  0  0  0
  1  2  2  0
  2  3  2  0
  2  4  1  0
  4  5  1  0
  5  6  2  0
  6  7  1  0
  7  8  2  0
  8  9  1  0
  9 10  2  0
  2 11  1  0
 11 12  1  0
 12 13  1  0
 13 14  2  0
 14 15  1  0
 15 16  2  0
 16 17  1  0
 17 18  2  0
 18 19  1  0
 19 20  1  0
 20 21  2  0
 21 22  1  0
 22 23  1  0
 23 24  2  0
 24 25  1  0
 25 26  2  0
 26 27  1  0
 27 28  2  0
 10  5  1  0
 19 11  1  0
 28 20  1  0
 18 13  1  0
 28 23  1  0
  4 29  1  0
  4 30  1  0
  6 31  1  0
  7 32  1  0
  8 33  1  0
  9 34  1  0
 10 35  1  0
 12 36  1  0
 12 37  1  0
 14 38  1  0
 15 39  1  0
 16 40  1  0
 17 41  1  0
 19 42  1  6
 21 43  1  0
 22 44  1  0
 24 45  1  0
 25 46  1  0
 26 47  1  0
 27 48  1  0
M  END
>  <smiles>  (29) 
O=S(=O)(Cc1ccccc1)N1Cc2ccccc2C1c1c[nH]c2ccccc12

>  <score_type>  (29) 
oracle

>  <origin>  (29) 
autodockgpu

>  <m_score__min__energy>  (29) 
-7.54

>  <m_primary>  (29) 
energy

>  <rmsd>  (29) 
7.79304756826635

>  <m_score__min__rmsd>  (29) 
7.79304756826635

>  <meeko>  (29) 
{"free_energy": -7.47, "intermolecular_energy": -8.66, "internal_energy": -1.66, "cluster_size": 25, "cluster_id": 1, "rank_in_cluster": 9}

>  <energy>  (29) 
-6.56

>  <cluster_rmsd>  (29) 
0.0

>  <cluster>  (29) 
4

$$$$

     RDKit          3D

 48 52  0  0  1  0  0  0  0  0999 V2000
  140.6290   75.4700  218.7810 O   0  0  0  0  0  0  0  0  0  0  0  0
  140.5500   76.7140  219.6260 S   0  0  0  0  0  0  0  0  0  0  0  0
  139.0910   76.9900  219.8070 O   0  0  0  0  0  0  0  0  0  0  0  0
  141.2960   78.0270  218.6490 C   0  0  0  0  0  0  0  0  0  0  0  0
  141.0300   79.3520  219.3220 C   0  0  0  0  0  0  0  0  0  0  0  0
  142.0870   80.1610  219.6910 C   0  0  0  0  0  0  0  0  0  0  0  0
  141.8240   81.3690  220.3050 C   0  0  0  0  0  0  0  0  0  0  0  0
  140.5210   81.7890  220.5600 C   0  0  0  0  0  0  0  0  0  0  0  0
  139.4670   80.9850  220.1930 C   0  0  0  0  0  0  0  0  0  0  0  0
  139.7420   79.7780  219.5790 C   0  0  0  0  0  0  0  0  0  0  0  0
  141.4460   76.5870  221.0800 N   0  0  0  0  0  0  0  0  0  0  0  0
  141.7470   75.1290  221.1910 C   0  0  0  0  0  0  0  0  0  0  0  0
  140.3280   74.6430  221.3650 C   0  0  0  0  0  0  0  0  0  0  0  0
  139.6630   73.4880  220.9890 C   0  0  0  0  0  0  0  0  0  0  0  0
  138.3110   73.2940  221.2640 C   0  0  0  0  0  0  0  0  0  0  0  0
  137.6480   74.3080  221.9310 C   0  0  0  0  0  0  0  0  0  0  0  0
  138.3330   75.4590  222.2990 C   0  0  0  0  0  0  0  0  0  0  0  0
  139.6480   75.6750  222.0480 C   0  0  0  0  0  0  0  0  0  0  0  0
  140.6960   76.6830  222.2940 C   0  0  2  0  0  0  0  0  0  0  0  0
  140.3010   77.9860  222.7650 C   0  0  0  0  0  0  0  0  0  0  0  0
  139.0830   78.5900  222.9990 C   0  0  0  0  0  0  0  0  0  0  0  0
  139.2390   79.8560  223.4180 N   0  0  0  0  0  0  0  0  0  0  0  0
  140.5520   80.1220  223.4690 C   0  0  0  0  0  0  0  0  0  0  0  0
  141.2120   81.2620  223.8270 C   0  0  0  0  0  0  0  0  0  0  0  0
  142.5760   81.3130  223.8010 C   0  0  0  0  0  0  0  0  0  0  0  0
  143.2990   80.2040  223.4120 C   0  0  0  0  0  0  0  0  0  0  0  0
  142.6080   79.0640  223.0560 C   0  0  0  0  0  0  0  0  0  0  0  0
  141.2320   78.9940  223.0750 C   0  0  0  0  0  0  0  0  0  0  0  0
  142.3811   77.8616  218.5762 H   0  0  0  0  0  0  0  0  0  0  0  0
  140.8627   78.0300  217.6379 H   0  0  0  0  0  0  0  0  0  0  0  0
  143.1235   79.8471  219.4983 H   0  0  0  0  0  0  0  0  0  0  0  0
  142.6638   82.0154  220.5999 H   0  0  0  0  0  0  0  0  0  0  0  0
  140.3361   82.7559  221.0509 H   0  0  0  0  0  0  0  0  0  0  0  0
  138.4292   81.2957  220.3839 H   0  0  0  0  0  0  0  0  0  0  0  0
  138.9024   79.1316  219.2836 H   0  0  0  0  0  0  0  0  0  0  0  0
  142.2173   74.7288  220.2807 H   0  0  0  0  0  0  0  0  0  0  0  0
  142.4599   74.8384  221.9767 H   0  0  0  0  0  0  0  0  0  0  0  0
  140.2183   72.7009  220.4578 H   0  0  0  0  0  0  0  0  0  0  0  0
  137.7921   72.3720  220.9629 H   0  0  0  0  0  0  0  0  0  0  0  0
  136.5794   74.2031  222.1698 H   0  0  0  0  0  0  0  0  0  0  0  0
  137.7734   76.2449  222.8274 H   0  0  0  0  0  0  0  0  0  0  0  0
  141.2971   76.4822  223.1931 H   0  0  0  0  0  0  0  0  0  0  0  0
  138.1092   78.0977  222.8601 H   0  0  0  0  0  0  0  0  0  0  0  0
  138.4830   80.5380  223.6650 H   0  0  0  0  0  0  0  0  0  0  0  0
  140.6395   82.1478  224.1393 H   0  0  0  0  0  0  0  0  0  0  0  0
  143.0981   82.2371  224.0898 H   0  0  0  0  0  0  0  0  0  0  0  0
  144.3984   80.2281  223.3864 H   0  0  0  0  0  0  0  0  0  0  0  0
  143.1780   78.1762  222.7448 H   0  0  0  0  0  0  0  0  0  0  0  0
  1  2  2  0
  2  3  2  0
  2  4  1  0
  4  5  1  0
  5  6  2  0
  6  7  1  0
  7  8  2  0
  8  9  1  0
  9 10  2  0
  2 11  1  0
 11 12  1  0
 12 13  1  0
 13 14  2  0
 14 15  1  0
 15 16  2  0
 16 17  1  0
 17 18  2  0
 18 19  1  0
 19 20  1  0
 20 21  2  0
 21 22  1  0
 22 23  1  0
 23 24  2  0
 24 25  1  0
 25 26  2  0
 26 27  1  0
 27 28  2  0
 10  5  1  0
 19 11  1  0
 28 20  1  0
 18 13  1  0
 28 23  1  0
  4 29  1  0
  4 30  1  0
  6 31  1  0
  7 32  1  0
  8 33  1  0
  9 34  1  0
 10 35  1  0
 12 36  1  0
 12 37  1  0
 14 38  1  0
 15 39  1  0
 16 40  1  0
 17 41  1  0
 19 42  1  1
 21 43  1  0
 22 44  1  0
 24 45  1  0
 25 46  1  0
 26 47  1  0
 27 48  1  0
M  END
>  <smiles>  (30) 
O=S(=O)(Cc1ccccc1)N1Cc2ccccc2C1c1c[nH]c2ccccc12

>  <score_type>  (30) 
oracle

>  <origin>  (30) 
autodockgpu

>  <m_score__min__energy>  (30) 
-7.54

>  <m_primary>  (30) 
energy

>  <rmsd>  (30) 
4.555808531559946

>  <m_score__min__rmsd>  (30) 
4.555808531559946

>  <meeko>  (30) 
{"free_energy": -6.27, "intermolecular_energy": -7.46, "internal_energy": -2.62, "cluster_size": 17, "cluster_id": 5, "rank_in_cluster": 5}

>  <energy>  (30) 
-6.56

>  <cluster_rmsd>  (30) 
0.11

>  <cluster>  (30) 
4

$$$$

     RDKit          3D

 48 52  0  0  1  0  0  0  0  0999 V2000
  137.7190   75.5770  222.0490 O   0  0  0  0  0  0  0  0  0  0  0  0
  139.0760   76.0160  221.5650 S   0  0  0  0  0  0  0  0  0  0  0  0
  140.0130   75.7720  222.7050 O   0  0  0  0  0  0  0  0  0  0  0  0
  138.9460   77.7850  221.2600 C   0  0  0  0  0  0  0  0  0  0  0  0
  140.1400   78.4780  221.8710 C   0  0  0  0  0  0  0  0  0  0  0  0
  141.1220   79.0040  221.0560 C   0  0  0  0  0  0  0  0  0  0  0  0
  142.2060   79.6340  221.6320 C   0  0  0  0  0  0  0  0  0  0  0  0
  142.3310   79.7520  223.0140 C   0  0  0  0  0  0  0  0  0  0  0  0
  141.3540   79.2280  223.8290 C   0  0  0  0  0  0  0  0  0  0  0  0
  140.2730   78.5990  223.2410 C   0  0  0  0  0  0  0  0  0  0  0  0
  139.5270   75.2750  220.0890 N   0  0  0  0  0  0  0  0  0  0  0  0
  138.4900   74.2220  219.8840 C   0  0  0  0  0  0  0  0  0  0  0  0
  138.8420   73.3590  221.0730 C   0  0  0  0  0  0  0  0  0  0  0  0
  138.0980   72.5570  221.9220 C   0  0  0  0  0  0  0  0  0  0  0  0
  138.6830   71.8650  222.9810 C   0  0  0  0  0  0  0  0  0  0  0  0
  140.0470   72.0110  223.1570 C   0  0  0  0  0  0  0  0  0  0  0  0
  140.7750   72.8200  222.2940 C   0  0  0  0  0  0  0  0  0  0  0  0
  140.2350   73.5030  221.2550 C   0  0  0  0  0  0  0  0  0  0  0  0
  140.6450   74.3850  220.1450 C   0  0  2  0  0  0  0  0  0  0  0  0
  141.9740   74.9390  220.1620 C   0  0  0  0  0  0  0  0  0  0  0  0
  142.4860   76.2050  219.9700 C   0  0  0  0  0  0  0  0  0  0  0  0
  143.8260   76.2090  220.0610 N   0  0  0  0  0  0  0  0  0  0  0  0
  144.2320   74.9560  220.3110 C   0  0  0  0  0  0  0  0  0  0  0  0
  145.4890   74.4500  220.4830 C   0  0  0  0  0  0  0  0  0  0  0  0
  145.6740   73.1190  220.7280 C   0  0  0  0  0  0  0  0  0  0  0  0
  144.5860   72.2750  220.8050 C   0  0  0  0  0  0  0  0  0  0  0  0
  143.3270   72.8120  220.6280 C   0  0  0  0  0  0  0  0  0  0  0  0
  143.1200   74.1510  220.3790 C   0  0  0  0  0  0  0  0  0  0  0  0
  138.9258   77.9719  220.1762 H   0  0  0  0  0  0  0  0  0  0  0  0
  138.0204   78.1728  221.7104 H   0  0  0  0  0  0  0  0  0  0  0  0
  141.0415   78.9220  219.9620 H   0  0  0  0  0  0  0  0  0  0  0  0
  142.9901   80.0530  220.9842 H   0  0  0  0  0  0  0  0  0  0  0  0
  143.2036   80.2599  223.4505 H   0  0  0  0  0  0  0  0  0  0  0  0
  141.4316   79.3079  224.9233 H   0  0  0  0  0  0  0  0  0  0  0  0
  139.4889   78.1788  223.8880 H   0  0  0  0  0  0  0  0  0  0  0  0
  137.4680   74.6238  219.9469 H   0  0  0  0  0  0  0  0  0  0  0  0
  138.4911   73.7229  218.9037 H   0  0  0  0  0  0  0  0  0  0  0  0
  137.0147   72.4634  221.7559 H   0  0  0  0  0  0  0  0  0  0  0  0
  138.0843   71.2288  223.6495 H   0  0  0  0  0  0  0  0  0  0  0  0
  140.5550   71.4868  223.9799 H   0  0  0  0  0  0  0  0  0  0  0  0
  141.8578   72.9123  222.4644 H   0  0  0  0  0  0  0  0  0  0  0  0
  140.8232   73.8511  219.1999 H   0  0  0  0  0  0  0  0  0  0  0  0
  141.8752   77.0973  219.7682 H   0  0  0  0  0  0  0  0  0  0  0  0
  144.4640   77.0320  219.9570 H   0  0  0  0  0  0  0  0  0  0  0  0
  146.3595   75.1199  220.4237 H   0  0  0  0  0  0  0  0  0  0  0  0
  146.6902   72.7205  220.8638 H   0  0  0  0  0  0  0  0  0  0  0  0
  144.7183   71.2010  221.0025 H   0  0  0  0  0  0  0  0  0  0  0  0
  142.4546   72.1446  220.6881 H   0  0  0  0  0  0  0  0  0  0  0  0
  1  2  2  0
  2  3  2  0
  2  4  1  0
  4  5  1  0
  5  6  2  0
  6  7  1  0
  7  8  2  0
  8  9  1  0
  9 10  2  0
  2 11  1  0
 11 12  1  0
 12 13  1  0
 13 14  2  0
 14 15  1  0
 15 16  2  0
 16 17  1  0
 17 18  2  0
 18 19  1  0
 19 20  1  0
 20 21  2  0
 21 22  1  0
 22 23  1  0
 23 24  2  0
 24 25  1  0
 25 26  2  0
 26 27  1  0
 27 28  2  0
 10  5  1  0
 19 11  1  0
 28 20  1  0
 18 13  1  0
 28 23  1  0
  4 29  1  0
  4 30  1  0
  6 31  1  0
  7 32  1  0
  8 33  1  0
  9 34  1  0
 10 35  1  0
 12 36  1  0
 12 37  1  0
 14 38  1  0
 15 39  1  0
 16 40  1  0
 17 41  1  0
 19 42  1  6
 21 43  1  0
 22 44  1  0
 24 45  1  0
 25 46  1  0
 26 47  1  0
 27 48  1  0
M  END
>  <smiles>  (31) 
O=S(=O)(Cc1ccccc1)N1Cc2ccccc2C1c1c[nH]c2ccccc12

>  <score_type>  (31) 
oracle

>  <origin>  (31) 
autodockgpu

>  <m_score__min__energy>  (31) 
-7.54

>  <m_primary>  (31) 
energy

>  <rmsd>  (31) 
7.69254723101304

>  <m_score__min__rmsd>  (31) 
7.69254723101304

>  <meeko>  (31) 
{"free_energy": -7.49, "intermolecular_energy": -8.68, "internal_energy": -1.68, "cluster_size": 25, "cluster_id": 1, "rank_in_cluster": 7}

>  <energy>  (31) 
-6.56

>  <cluster_rmsd>  (31) 
0.04

>  <cluster>  (31) 
4

$$$$

     RDKit          3D

 48 52  0  0  1  0  0  0  0  0999 V2000
  138.0030   76.0610  222.9430 O   0  0  0  0  0  0  0  0  0  0  0  0
  139.1100   76.6890  222.1370 S   0  0  0  0  0  0  0  0  0  0  0  0
  140.3840   76.2330  222.7740 O   0  0  0  0  0  0  0  0  0  0  0  0
  138.9320   78.4670  222.3480 C   0  0  0  0  0  0  0  0  0  0  0  0
  140.3010   79.0820  222.5050 C   0  0  0  0  0  0  0  0  0  0  0  0
  140.9410   79.0350  223.7280 C   0  0  0  0  0  0  0  0  0  0  0  0
  142.1920   79.6020  223.8530 C   0  0  0  0  0  0  0  0  0  0  0  0
  142.8240   80.2200  222.7760 C   0  0  0  0  0  0  0  0  0  0  0  0
  142.1890   80.2690  221.5560 C   0  0  0  0  0  0  0  0  0  0  0  0
  140.9360   79.6970  221.4430 C   0  0  0  0  0  0  0  0  0  0  0  0
  138.9820   76.3580  220.4610 N   0  0  0  0  0  0  0  0  0  0  0  0
  137.9790   75.2550  220.3880 C   0  0  0  0  0  0  0  0  0  0  0  0
  138.7870   74.2000  221.1070 C   0  0  0  0  0  0  0  0  0  0  0  0
  138.4510   73.1430  221.9350 C   0  0  0  0  0  0  0  0  0  0  0  0
  139.4180   72.3110  222.4960 C   0  0  0  0  0  0  0  0  0  0  0  0
  140.7400   72.5830  222.1940 C   0  0  0  0  0  0  0  0  0  0  0  0
  141.0560   73.6480  221.3610 C   0  0  0  0  0  0  0  0  0  0  0  0
  140.1380   74.4730  220.7990 C   0  0  0  0  0  0  0  0  0  0  0  0
  140.0630   75.6240  219.8790 C   0  0  2  0  0  0  0  0  0  0  0  0
  141.2790   76.3220  219.5500 C   0  0  0  0  0  0  0  0  0  0  0  0
  142.6150   76.0920  219.8090 C   0  0  0  0  0  0  0  0  0  0  0  0
  143.3850   77.0680  219.3030 N   0  0  0  0  0  0  0  0  0  0  0  0
  142.5870   77.9630  218.7030 C   0  0  0  0  0  0  0  0  0  0  0  0
  142.8910   79.1230  218.0510 C   0  0  0  0  0  0  0  0  0  0  0  0
  141.9020   79.8950  217.5100 C   0  0  0  0  0  0  0  0  0  0  0  0
  140.5840   79.5030  217.6200 C   0  0  0  0  0  0  0  0  0  0  0  0
  140.3050   78.3260  218.2840 C   0  0  0  0  0  0  0  0  0  0  0  0
  141.2880   77.5350  218.8360 C   0  0  0  0  0  0  0  0  0  0  0  0
  138.4342   78.8952  221.4655 H   0  0  0  0  0  0  0  0  0  0  0  0
  138.3255   78.6766  223.2414 H   0  0  0  0  0  0  0  0  0  0  0  0
  140.4594   78.5518  224.5909 H   0  0  0  0  0  0  0  0  0  0  0  0
  142.7031   79.5654  224.8264 H   0  0  0  0  0  0  0  0  0  0  0  0
  143.8223   80.6651  222.8998 H   0  0  0  0  0  0  0  0  0  0  0  0
  142.6674   80.7520  220.6913 H   0  0  0  0  0  0  0  0  0  0  0  0
  140.4244   79.7327  220.4699 H   0  0  0  0  0  0  0  0  0  0  0  0
  137.0473   75.5014  220.9182 H   0  0  0  0  0  0  0  0  0  0  0  0
  137.6198   74.9906  219.3825 H   0  0  0  0  0  0  0  0  0  0  0  0
  137.3902   72.9543  222.1566 H   0  0  0  0  0  0  0  0  0  0  0  0
  139.1413   71.4725  223.1520 H   0  0  0  0  0  0  0  0  0  0  0  0
  141.5406   71.9560  222.6135 H   0  0  0  0  0  0  0  0  0  0  0  0
  142.1180   73.8343  221.1432 H   0  0  0  0  0  0  0  0  0  0  0  0
  139.8810   75.3398  218.8320 H   0  0  0  0  0  0  0  0  0  0  0  0
  142.9994   75.2207  220.3595 H   0  0  0  0  0  0  0  0  0  0  0  0
  144.4280   77.1410  219.3560 H   0  0  0  0  0  0  0  0  0  0  0  0
  143.9408   79.4389  217.9604 H   0  0  0  0  0  0  0  0  0  0  0  0
  142.1566   80.8286  216.9870 H   0  0  0  0  0  0  0  0  0  0  0  0
  139.7762   80.1130  217.1895 H   0  0  0  0  0  0  0  0  0  0  0  0
  139.2563   78.0070  218.3760 H   0  0  0  0  0  0  0  0  0  0  0  0
  1  2  2  0
  2  3  2  0
  2  4  1  0
  4  5  1  0
  5  6  2  0
  6  7  1  0
  7  8  2  0
  8  9  1  0
  9 10  2  0
  2 11  1  0
 11 12  1  0
 12 13  1  0
 13 14  2  0
 14 15  1  0
 15 16  2  0
 16 17  1  0
 17 18  2  0
 18 19  1  0
 19 20  1  0
 20 21  2  0
 21 22  1  0
 22 23  1  0
 23 24  2  0
 24 25  1  0
 25 26  2  0
 26 27  1  0
 27 28  2  0
 10  5  1  0
 19 11  1  0
 28 20  1  0
 18 13  1  0
 28 23  1  0
  4 29  1  0
  4 30  1  0
  6 31  1  0
  7 32  1  0
  8 33  1  0
  9 34  1  0
 10 35  1  0
 12 36  1  0
 12 37  1  0
 14 38  1  0
 15 39  1  0
 16 40  1  0
 17 41  1  0
 19 42  1  6
 21 43  1  0
 22 44  1  0
 24 45  1  0
 25 46  1  0
 26 47  1  0
 27 48  1  0
M  END
>  <smiles>  (32) 
O=S(=O)(Cc1ccccc1)N1Cc2ccccc2C1c1c[nH]c2ccccc12

>  <score_type>  (32) 
oracle

>  <origin>  (32) 
autodockgpu

>  <m_score__min__energy>  (32) 
-7.54

>  <m_primary>  (32) 
energy

>  <rmsd>  (32) 
5.2794621566615545

>  <m_score__min__rmsd>  (32) 
5.2794621566615545

>  <meeko>  (32) 
{"free_energy": -6.55, "intermolecular_energy": -7.75, "internal_energy": -2.28, "cluster_size": 5, "cluster_id": 4, "rank_in_cluster": 4}

>  <energy>  (32) 
-6.55

>  <cluster_rmsd>  (32) 
0.12

>  <cluster>  (32) 
4

$$$$

     RDKit          3D

 48 52  0  0  1  0  0  0  0  0999 V2000
  137.7010   75.4590  222.0310 O   0  0  0  0  0  0  0  0  0  0  0  0
  139.0620   75.9000  221.5630 S   0  0  0  0  0  0  0  0  0  0  0  0
  139.9850   75.6620  222.7160 O   0  0  0  0  0  0  0  0  0  0  0  0
  138.9320   77.6670  221.2490 C   0  0  0  0  0  0  0  0  0  0  0  0
  140.1700   78.3520  221.7750 C   0  0  0  0  0  0  0  0  0  0  0  0
  140.4350   78.3510  223.1290 C   0  0  0  0  0  0  0  0  0  0  0  0
  141.5720   78.9820  223.5920 C   0  0  0  0  0  0  0  0  0  0  0  0
  142.4570   79.6180  222.7240 C   0  0  0  0  0  0  0  0  0  0  0  0
  142.1950   79.6210  221.3730 C   0  0  0  0  0  0  0  0  0  0  0  0
  141.0540   78.9860  220.9220 C   0  0  0  0  0  0  0  0  0  0  0  0
  139.5350   75.1540  220.0960 N   0  0  0  0  0  0  0  0  0  0  0  0
  138.5230   74.0750  219.8990 C   0  0  0  0  0  0  0  0  0  0  0  0
  138.8900   73.2330  221.0970 C   0  0  0  0  0  0  0  0  0  0  0  0
  138.1620   72.4230  221.9530 C   0  0  0  0  0  0  0  0  0  0  0  0
  138.7590   71.7560  223.0210 C   0  0  0  0  0  0  0  0  0  0  0  0
  140.1190   71.9340  223.1990 C   0  0  0  0  0  0  0  0  0  0  0  0
  140.8310   72.7500  222.3300 C   0  0  0  0  0  0  0  0  0  0  0  0
  140.2790   73.4100  221.2820 C   0  0  0  0  0  0  0  0  0  0  0  0
  140.6720   74.2900  220.1650 C   0  0  2  0  0  0  0  0  0  0  0  0
  141.9890   74.8740  220.1790 C   0  0  0  0  0  0  0  0  0  0  0  0
  142.4710   76.1520  219.9910 C   0  0  0  0  0  0  0  0  0  0  0  0
  143.8110   76.1860  220.0780 N   0  0  0  0  0  0  0  0  0  0  0  0
  144.2460   74.9420  220.3220 C   0  0  0  0  0  0  0  0  0  0  0  0
  145.5140   74.4640  220.4880 C   0  0  0  0  0  0  0  0  0  0  0  0
  145.7310   73.1370  220.7280 C   0  0  0  0  0  0  0  0  0  0  0  0
  144.6620   72.2680  220.8040 C   0  0  0  0  0  0  0  0  0  0  0  0
  143.3910   72.7770  220.6330 C   0  0  0  0  0  0  0  0  0  0  0  0
  143.1530   74.1110  220.3900 C   0  0  0  0  0  0  0  0  0  0  0  0
  138.8443   77.8438  220.1668 H   0  0  0  0  0  0  0  0  0  0  0  0
  138.0415   78.0697  221.7539 H   0  0  0  0  0  0  0  0  0  0  0  0
  139.7490   77.8537  223.8305 H   0  0  0  0  0  0  0  0  0  0  0  0
  141.7843   78.9827  224.6713 H   0  0  0  0  0  0  0  0  0  0  0  0
  143.3577   80.1136  223.1153 H   0  0  0  0  0  0  0  0  0  0  0  0
  142.8784   80.1176  220.6684 H   0  0  0  0  0  0  0  0  0  0  0  0
  140.8407   78.9848  219.8429 H   0  0  0  0  0  0  0  0  0  0  0  0
  137.4918   74.4539  219.9545 H   0  0  0  0  0  0  0  0  0  0  0  0
  138.5392   73.5659  218.9240 H   0  0  0  0  0  0  0  0  0  0  0  0
  137.0816   72.3028  221.7849 H   0  0  0  0  0  0  0  0  0  0  0  0
  138.1726   71.1142  223.6949 H   0  0  0  0  0  0  0  0  0  0  0  0
  140.6362   71.4295  224.0284 H   0  0  0  0  0  0  0  0  0  0  0  0
  141.9109   72.8685  222.5026 H   0  0  0  0  0  0  0  0  0  0  0  0
  140.8648   73.7502  219.2262 H   0  0  0  0  0  0  0  0  0  0  0  0
  141.8393   77.0309  219.7949 H   0  0  0  0  0  0  0  0  0  0  0  0
  144.4300   77.0240  219.9750 H   0  0  0  0  0  0  0  0  0  0  0  0
  146.3687   75.1538  220.4279 H   0  0  0  0  0  0  0  0  0  0  0  0
  146.7565   72.7617  220.8605 H   0  0  0  0  0  0  0  0  0  0  0  0
  144.8191   71.1964  220.9961 H   0  0  0  0  0  0  0  0  0  0  0  0
  142.5342   72.0898  220.6932 H   0  0  0  0  0  0  0  0  0  0  0  0
  1  2  2  0
  2  3  2  0
  2  4  1  0
  4  5  1  0
  5  6  2  0
  6  7  1  0
  7  8  2  0
  8  9  1  0
  9 10  2  0
  2 11  1  0
 11 12  1  0
 12 13  1  0
 13 14  2  0
 14 15  1  0
 15 16  2  0
 16 17  1  0
 17 18  2  0
 18 19  1  0
 19 20  1  0
 20 21  2  0
 21 22  1  0
 22 23  1  0
 23 24  2  0
 24 25  1  0
 25 26  2  0
 26 27  1  0
 27 28  2  0
 10  5  1  0
 19 11  1  0
 28 20  1  0
 18 13  1  0
 28 23  1  0
  4 29  1  0
  4 30  1  0
  6 31  1  0
  7 32  1  0
  8 33  1  0
  9 34  1  0
 10 35  1  0
 12 36  1  0
 12 37  1  0
 14 38  1  0
 15 39  1  0
 16 40  1  0
 17 41  1  0
 19 42  1  6
 21 43  1  0
 22 44  1  0
 24 45  1  0
 25 46  1  0
 26 47  1  0
 27 48  1  0
M  END
>  <smiles>  (33) 
O=S(=O)(Cc1ccccc1)N1Cc2ccccc2C1c1c[nH]c2ccccc12

>  <score_type>  (33) 
oracle

>  <origin>  (33) 
autodockgpu

>  <m_score__min__energy>  (33) 
-7.54

>  <m_primary>  (33) 
energy

>  <rmsd>  (33) 
7.751031775855735

>  <m_score__min__rmsd>  (33) 
7.751031775855735

>  <meeko>  (33) 
{"free_energy": -7.42, "intermolecular_energy": -8.61, "internal_energy": -1.71, "cluster_size": 25, "cluster_id": 1, "rank_in_cluster": 16}

>  <energy>  (33) 
-6.55

>  <cluster_rmsd>  (33) 
0.11

>  <cluster>  (33) 
4

$$$$

     RDKit          3D

 48 52  0  0  1  0  0  0  0  0999 V2000
  140.5830   75.4490  218.7680 O   0  0  0  0  0  0  0  0  0  0  0  0
  140.5090   76.7010  219.6010 S   0  0  0  0  0  0  0  0  0  0  0  0
  139.0510   76.9640  219.8100 O   0  0  0  0  0  0  0  0  0  0  0  0
  141.2210   78.0110  218.5950 C   0  0  0  0  0  0  0  0  0  0  0  0
  140.9570   79.3400  219.2610 C   0  0  0  0  0  0  0  0  0  0  0  0
  139.6620   79.8040  219.3830 C   0  0  0  0  0  0  0  0  0  0  0  0
  139.4400   81.0200  219.9950 C   0  0  0  0  0  0  0  0  0  0  0  0
  140.4900   81.7890  220.4920 C   0  0  0  0  0  0  0  0  0  0  0  0
  141.7810   81.3300  220.3710 C   0  0  0  0  0  0  0  0  0  0  0  0
  141.9910   80.1100  219.7570 C   0  0  0  0  0  0  0  0  0  0  0  0
  141.4360   76.5990  221.0380 N   0  0  0  0  0  0  0  0  0  0  0  0
  141.7720   75.1490  221.1470 C   0  0  0  0  0  0  0  0  0  0  0  0
  140.3680   74.6310  221.3500 C   0  0  0  0  0  0  0  0  0  0  0  0
  139.7220   73.4600  220.9910 C   0  0  0  0  0  0  0  0  0  0  0  0
  138.3800   73.2370  221.2930 C   0  0  0  0  0  0  0  0  0  0  0  0
  137.7080   74.2380  221.9700 C   0  0  0  0  0  0  0  0  0  0  0  0
  138.3740   75.4050  222.3210 C   0  0  0  0  0  0  0  0  0  0  0  0
  139.6780   75.6500  222.0440 C   0  0  0  0  0  0  0  0  0  0  0  0
  140.7080   76.6830  222.2660 C   0  0  2  0  0  0  0  0  0  0  0  0
  140.2930   77.9770  222.7410 C   0  0  0  0  0  0  0  0  0  0  0  0
  139.0650   78.5670  222.9620 C   0  0  0  0  0  0  0  0  0  0  0  0
  139.2020   79.8320  223.3920 N   0  0  0  0  0  0  0  0  0  0  0  0
  140.5120   80.1110  223.4640 C   0  0  0  0  0  0  0  0  0  0  0  0
  141.1540   81.2550  223.8390 C   0  0  0  0  0  0  0  0  0  0  0  0
  142.5180   81.3200  223.8330 C   0  0  0  0  0  0  0  0  0  0  0  0
  143.2580   80.2220  223.4460 C   0  0  0  0  0  0  0  0  0  0  0  0
  142.5840   79.0780  223.0720 C   0  0  0  0  0  0  0  0  0  0  0  0
  141.2090   78.9930  223.0710 C   0  0  0  0  0  0  0  0  0  0  0  0
  142.3057   77.8550  218.5000 H   0  0  0  0  0  0  0  0  0  0  0  0
  140.7659   77.9999  217.5936 H   0  0  0  0  0  0  0  0  0  0  0  0
  138.8190   79.2119  218.9973 H   0  0  0  0  0  0  0  0  0  0  0  0
  138.4093   81.3915  220.0930 H   0  0  0  0  0  0  0  0  0  0  0  0
  140.2883   82.7554  220.9772 H   0  0  0  0  0  0  0  0  0  0  0  0
  142.6265   81.9203  220.7540 H   0  0  0  0  0  0  0  0  0  0  0  0
  143.0214   79.7376  219.6594 H   0  0  0  0  0  0  0  0  0  0  0  0
  142.2335   74.7567  220.2288 H   0  0  0  0  0  0  0  0  0  0  0  0
  142.5064   74.8773  221.9195 H   0  0  0  0  0  0  0  0  0  0  0  0
  140.2844   72.6834  220.4519 H   0  0  0  0  0  0  0  0  0  0  0  0
  137.8759   72.3028  221.0046 H   0  0  0  0  0  0  0  0  0  0  0  0
  136.6469   74.1101  222.2303 H   0  0  0  0  0  0  0  0  0  0  0  0
  137.8072   76.1798  222.8580 H   0  0  0  0  0  0  0  0  0  0  0  0
  141.3316   76.5000  223.1535 H   0  0  0  0  0  0  0  0  0  0  0  0
  138.0984   78.0657  222.8060 H   0  0  0  0  0  0  0  0  0  0  0  0
  138.4360   80.5040  223.6340 H   0  0  0  0  0  0  0  0  0  0  0  0
  140.5677   82.1326  224.1489 H   0  0  0  0  0  0  0  0  0  0  0  0
  143.0263   82.2471  224.1365 H   0  0  0  0  0  0  0  0  0  0  0  0
  144.3574   80.2578  223.4359 H   0  0  0  0  0  0  0  0  0  0  0  0
  143.1677   78.1986  222.7622 H   0  0  0  0  0  0  0  0  0  0  0  0
  1  2  2  0
  2  3  2  0
  2  4  1  0
  4  5  1  0
  5  6  2  0
  6  7  1  0
  7  8  2  0
  8  9  1  0
  9 10  2  0
  2 11  1  0
 11 12  1  0
 12 13  1  0
 13 14  2  0
 14 15  1  0
 15 16  2  0
 16 17  1  0
 17 18  2  0
 18 19  1  0
 19 20  1  0
 20 21  2  0
 21 22  1  0
 22 23  1  0
 23 24  2  0
 24 25  1  0
 25 26  2  0
 26 27  1  0
 27 28  2  0
 10  5  1  0
 19 11  1  0
 28 20  1  0
 18 13  1  0
 28 23  1  0
  4 29  1  0
  4 30  1  0
  6 31  1  0
  7 32  1  0
  8 33  1  0
  9 34  1  0
 10 35  1  0
 12 36  1  0
 12 37  1  0
 14 38  1  0
 15 39  1  0
 16 40  1  0
 17 41  1  0
 19 42  1  1
 21 43  1  0
 22 44  1  0
 24 45  1  0
 25 46  1  0
 26 47  1  0
 27 48  1  0
M  END
>  <smiles>  (34) 
O=S(=O)(Cc1ccccc1)N1Cc2ccccc2C1c1c[nH]c2ccccc12

>  <score_type>  (34) 
oracle

>  <origin>  (34) 
autodockgpu

>  <m_score__min__energy>  (34) 
-7.54

>  <m_primary>  (34) 
energy

>  <rmsd>  (34) 
4.557287249286958

>  <m_score__min__rmsd>  (34) 
4.557287249286958

>  <meeko>  (34) 
{"free_energy": -6.25, "intermolecular_energy": -7.44, "internal_energy": -2.62, "cluster_size": 17, "cluster_id": 5, "rank_in_cluster": 16}

>  <energy>  (34) 
-6.28

>  <cluster_rmsd>  (34) 
0.0

>  <cluster>  (34) 
5

$$$$

     RDKit          3D

 48 52  0  0  1  0  0  0  0  0999 V2000
  138.0060   76.0570  222.9440 O   0  0  0  0  0  0  0  0  0  0  0  0
  139.1100   76.6900  222.1390 S   0  0  0  0  0  0  0  0  0  0  0  0
  140.3870   76.2240  222.7630 O   0  0  0  0  0  0  0  0  0  0  0  0
  138.9390   78.4660  222.3710 C   0  0  0  0  0  0  0  0  0  0  0  0
  140.3110   79.0770  222.5180 C   0  0  0  0  0  0  0  0  0  0  0  0
  140.9600   79.0280  223.7360 C   0  0  0  0  0  0  0  0  0  0  0  0
  142.2140   79.5910  223.8520 C   0  0  0  0  0  0  0  0  0  0  0  0
  142.8400   80.2060  222.7700 C   0  0  0  0  0  0  0  0  0  0  0  0
  142.1960   80.2570  221.5550 C   0  0  0  0  0  0  0  0  0  0  0  0
  140.9400   79.6900  221.4520 C   0  0  0  0  0  0  0  0  0  0  0  0
  138.9720   76.3780  220.4610 N   0  0  0  0  0  0  0  0  0  0  0  0
  137.9620   75.2830  220.3810 C   0  0  0  0  0  0  0  0  0  0  0  0
  138.7670   74.2150  221.0830 C   0  0  0  0  0  0  0  0  0  0  0  0
  138.4290   73.1500  221.9020 C   0  0  0  0  0  0  0  0  0  0  0  0
  139.3940   72.3060  222.4480 C   0  0  0  0  0  0  0  0  0  0  0  0
  140.7160   72.5740  222.1420 C   0  0  0  0  0  0  0  0  0  0  0  0
  141.0340   73.6470  221.3190 C   0  0  0  0  0  0  0  0  0  0  0  0
  140.1170   74.4830  220.7710 C   0  0  0  0  0  0  0  0  0  0  0  0
  140.0450   75.6450  219.8650 C   0  0  2  0  0  0  0  0  0  0  0  0
  141.2630   76.3390  219.5370 C   0  0  0  0  0  0  0  0  0  0  0  0
  142.5980   76.1020  219.7930 C   0  0  0  0  0  0  0  0  0  0  0  0
  143.3720   77.0780  219.2890 N   0  0  0  0  0  0  0  0  0  0  0  0
  142.5760   77.9780  218.6950 C   0  0  0  0  0  0  0  0  0  0  0  0
  142.8840   79.1400  218.0470 C   0  0  0  0  0  0  0  0  0  0  0  0
  141.8980   79.9180  217.5110 C   0  0  0  0  0  0  0  0  0  0  0  0
  140.5780   79.5310  217.6210 C   0  0  0  0  0  0  0  0  0  0  0  0
  140.2950   78.3530  218.2810 C   0  0  0  0  0  0  0  0  0  0  0  0
  141.2760   77.5550  218.8280 C   0  0  0  0  0  0  0  0  0  0  0  0
  138.4315   78.9046  221.4992 H   0  0  0  0  0  0  0  0  0  0  0  0
  138.3441   78.6671  223.2741 H   0  0  0  0  0  0  0  0  0  0  0  0
  140.4832   78.5463  224.6024 H   0  0  0  0  0  0  0  0  0  0  0  0
  142.7319   79.5535  224.8217 H   0  0  0  0  0  0  0  0  0  0  0  0
  143.8409   80.6472  222.8860 H   0  0  0  0  0  0  0  0  0  0  0  0
  142.6697   80.7377  220.6864 H   0  0  0  0  0  0  0  0  0  0  0  0
  140.4208   79.7284  220.4830 H   0  0  0  0  0  0  0  0  0  0  0  0
  137.0348   75.5293  220.9193 H   0  0  0  0  0  0  0  0  0  0  0  0
  137.5954   75.0325  219.3746 H   0  0  0  0  0  0  0  0  0  0  0  0
  137.3684   72.9653  222.1278 H   0  0  0  0  0  0  0  0  0  0  0  0
  139.1159   71.4615  223.0956 H   0  0  0  0  0  0  0  0  0  0  0  0
  141.5152   71.9378  222.5501 H   0  0  0  0  0  0  0  0  0  0  0  0
  142.0959   73.8302  221.0979 H   0  0  0  0  0  0  0  0  0  0  0  0
  139.8565   75.3744  218.8156 H   0  0  0  0  0  0  0  0  0  0  0  0
  142.9795   75.2268  220.3393 H   0  0  0  0  0  0  0  0  0  0  0  0
  144.4150   77.1470  219.3410 H   0  0  0  0  0  0  0  0  0  0  0  0
  143.9350   79.4518  217.9561 H   0  0  0  0  0  0  0  0  0  0  0  0
  142.1559   80.8528  216.9918 H   0  0  0  0  0  0  0  0  0  0  0  0
  139.7723   80.1458  217.1935 H   0  0  0  0  0  0  0  0  0  0  0  0
  139.2450   78.0385  218.3742 H   0  0  0  0  0  0  0  0  0  0  0  0
  1  2  2  0
  2  3  2  0
  2  4  1  0
  4  5  1  0
  5  6  2  0
  6  7  1  0
  7  8  2  0
  8  9  1  0
  9 10  2  0
  2 11  1  0
 11 12  1  0
 12 13  1  0
 13 14  2  0
 14 15  1  0
 15 16  2  0
 16 17  1  0
 17 18  2  0
 18 19  1  0
 19 20  1  0
 20 21  2  0
 21 22  1  0
 22 23  1  0
 23 24  2  0
 24 25  1  0
 25 26  2  0
 26 27  1  0
 27 28  2  0
 10  5  1  0
 19 11  1  0
 28 20  1  0
 18 13  1  0
 28 23  1  0
  4 29  1  0
  4 30  1  0
  6 31  1  0
  7 32  1  0
  8 33  1  0
  9 34  1  0
 10 35  1  0
 12 36  1  0
 12 37  1  0
 14 38  1  0
 15 39  1  0
 16 40  1  0
 17 41  1  0
 19 42  1  6
 21 43  1  0
 22 44  1  0
 24 45  1  0
 25 46  1  0
 26 47  1  0
 27 48  1  0
M  END
>  <smiles>  (35) 
O=S(=O)(Cc1ccccc1)N1Cc2ccccc2C1c1c[nH]c2ccccc12

>  <score_type>  (35) 
oracle

>  <origin>  (35) 
autodockgpu

>  <m_score__min__energy>  (35) 
-7.54

>  <m_primary>  (35) 
energy

>  <rmsd>  (35) 
5.2614458386473775

>  <m_score__min__rmsd>  (35) 
5.2614458386473775

>  <meeko>  (35) 
{"free_energy": -6.56, "intermolecular_energy": -7.75, "internal_energy": -2.28, "cluster_size": 5, "cluster_id": 4, "rank_in_cluster": 2}

>  <energy>  (35) 
-6.28

>  <cluster_rmsd>  (35) 
0.03

>  <cluster>  (35) 
5

$$$$

     RDKit          3D

 48 52  0  0  1  0  0  0  0  0999 V2000
  140.6620   75.7000  218.5990 O   0  0  0  0  0  0  0  0  0  0  0  0
  140.5420   76.8770  219.5300 S   0  0  0  0  0  0  0  0  0  0  0  0
  139.0750   77.0800  219.7410 O   0  0  0  0  0  0  0  0  0  0  0  0
  141.2230   78.2860  218.6410 C   0  0  0  0  0  0  0  0  0  0  0  0
  140.8550   79.5530  219.3730 C   0  0  0  0  0  0  0  0  0  0  0  0
  141.8430   80.4370  219.7590 C   0  0  0  0  0  0  0  0  0  0  0  0
  141.4870   81.5910  220.4270 C   0  0  0  0  0  0  0  0  0  0  0  0
  140.1570   81.8840  220.7200 C   0  0  0  0  0  0  0  0  0  0  0  0
  139.1710   81.0050  220.3370 C   0  0  0  0  0  0  0  0  0  0  0  0
  139.5390   79.8530  219.6690 C   0  0  0  0  0  0  0  0  0  0  0  0
  141.4580   76.6870  220.9640 N   0  0  0  0  0  0  0  0  0  0  0  0
  141.7840   75.2310  220.9920 C   0  0  0  0  0  0  0  0  0  0  0  0
  140.3750   74.7120  221.1550 C   0  0  0  0  0  0  0  0  0  0  0  0
  139.7250   73.5670  220.7250 C   0  0  0  0  0  0  0  0  0  0  0  0
  138.3800   73.3350  221.0040 C   0  0  0  0  0  0  0  0  0  0  0  0
  137.7090   74.3010  221.7330 C   0  0  0  0  0  0  0  0  0  0  0  0
  138.3790   75.4410  222.1560 C   0  0  0  0  0  0  0  0  0  0  0  0
  139.6870   75.6930  221.9020 C   0  0  0  0  0  0  0  0  0  0  0  0
  140.7210   76.7050  222.1900 C   0  0  2  0  0  0  0  0  0  0  0  0
  140.3100   77.9730  222.7360 C   0  0  0  0  0  0  0  0  0  0  0  0
  139.0880   78.5250  223.0590 C   0  0  0  0  0  0  0  0  0  0  0  0
  139.2260   79.7770  223.5220 N   0  0  0  0  0  0  0  0  0  0  0  0
  140.5300   80.0860  223.5150 C   0  0  0  0  0  0  0  0  0  0  0  0
  141.1710   81.2330  223.8860 C   0  0  0  0  0  0  0  0  0  0  0  0
  142.5300   81.3310  223.7910 C   0  0  0  0  0  0  0  0  0  0  0  0
  143.2660   80.2650  223.3170 C   0  0  0  0  0  0  0  0  0  0  0  0
  142.5940   79.1170  222.9500 C   0  0  0  0  0  0  0  0  0  0  0  0
  141.2240   78.9990  223.0380 C   0  0  0  0  0  0  0  0  0  0  0  0
  142.3180   78.1950  218.5888 H   0  0  0  0  0  0  0  0  0  0  0  0
  140.8141   78.3144  217.6202 H   0  0  0  0  0  0  0  0  0  0  0  0
  142.8992   80.2244  219.5372 H   0  0  0  0  0  0  0  0  0  0  0  0
  142.2725   82.2965  220.7355 H   0  0  0  0  0  0  0  0  0  0  0  0
  139.8976   82.8105  221.2532 H   0  0  0  0  0  0  0  0  0  0  0  0
  138.1138   81.2143  220.5574 H   0  0  0  0  0  0  0  0  0  0  0  0
  138.7538   79.1470  219.3608 H   0  0  0  0  0  0  0  0  0  0  0  0
  142.2499   74.8889  220.0561 H   0  0  0  0  0  0  0  0  0  0  0  0
  142.5110   74.9104  221.7528 H   0  0  0  0  0  0  0  0  0  0  0  0
  140.2871   72.8192  220.1464 H   0  0  0  0  0  0  0  0  0  0  0  0
  137.8725   72.4220  220.6592 H   0  0  0  0  0  0  0  0  0  0  0  0
  136.6450   74.1657  221.9773 H   0  0  0  0  0  0  0  0  0  0  0  0
  137.8132   76.1868  222.7336 H   0  0  0  0  0  0  0  0  0  0  0  0
  141.3368   76.4675  223.0700 H   0  0  0  0  0  0  0  0  0  0  0  0
  138.1243   78.0058  222.9510 H   0  0  0  0  0  0  0  0  0  0  0  0
  138.4630   80.4220  223.8380 H   0  0  0  0  0  0  0  0  0  0  0  0
  140.5880   82.0855  224.2647 H   0  0  0  0  0  0  0  0  0  0  0  0
  143.0372   82.2594  224.0923 H   0  0  0  0  0  0  0  0  0  0  0  0
  144.3610   80.3284  223.2337 H   0  0  0  0  0  0  0  0  0  0  0  0
  143.1748   78.2626  222.5724 H   0  0  0  0  0  0  0  0  0  0  0  0
  1  2  2  0
  2  3  2  0
  2  4  1  0
  4  5  1  0
  5  6  2  0
  6  7  1  0
  7  8  2  0
  8  9  1  0
  9 10  2  0
  2 11  1  0
 11 12  1  0
 12 13  1  0
 13 14  2  0
 14 15  1  0
 15 16  2  0
 16 17  1  0
 17 18  2  0
 18 19  1  0
 19 20  1  0
 20 21  2  0
 21 22  1  0
 22 23  1  0
 23 24  2  0
 24 25  1  0
 25 26  2  0
 26 27  1  0
 27 28  2  0
 10  5  1  0
 19 11  1  0
 28 20  1  0
 18 13  1  0
 28 23  1  0
  4 29  1  0
  4 30  1  0
  6 31  1  0
  7 32  1  0
  8 33  1  0
  9 34  1  0
 10 35  1  0
 12 36  1  0
 12 37  1  0
 14 38  1  0
 15 39  1  0
 16 40  1  0
 17 41  1  0
 19 42  1  1
 21 43  1  0
 22 44  1  0
 24 45  1  0
 25 46  1  0
 26 47  1  0
 27 48  1  0
M  END
>  <smiles>  (36) 
O=S(=O)(Cc1ccccc1)N1Cc2ccccc2C1c1c[nH]c2ccccc12

>  <score_type>  (36) 
oracle

>  <origin>  (36) 
autodockgpu

>  <m_score__min__energy>  (36) 
-7.54

>  <m_primary>  (36) 
energy

>  <rmsd>  (36) 
4.4666458231651625

>  <m_score__min__rmsd>  (36) 
4.4666458231651625

>  <meeko>  (36) 
{"free_energy": -6.23, "intermolecular_energy": -7.43, "internal_energy": -2.6, "cluster_size": 17, "cluster_id": 5, "rank_in_cluster": 17}

>  <energy>  (36) 
-6.27

>  <cluster_rmsd>  (36) 
0.03

>  <cluster>  (36) 
5

$$$$

     RDKit          3D

 48 52  0  0  1  0  0  0  0  0999 V2000
  137.4760   75.2280  221.9410 O   0  0  0  0  0  0  0  0  0  0  0  0
  138.8520   75.6620  221.5100 S   0  0  0  0  0  0  0  0  0  0  0  0
  139.7360   75.4470  222.6980 O   0  0  0  0  0  0  0  0  0  0  0  0
  138.7320   77.4220  221.1590 C   0  0  0  0  0  0  0  0  0  0  0  0
  139.6310   78.1760  222.1090 C   0  0  0  0  0  0  0  0  0  0  0  0
  139.0840   79.0450  223.0310 C   0  0  0  0  0  0  0  0  0  0  0  0
  139.9210   79.7250  223.8920 C   0  0  0  0  0  0  0  0  0  0  0  0
  141.3030   79.5530  223.8520 C   0  0  0  0  0  0  0  0  0  0  0  0
  141.8510   78.6880  222.9340 C   0  0  0  0  0  0  0  0  0  0  0  0
  141.0030   78.0130  222.0780 C   0  0  0  0  0  0  0  0  0  0  0  0
  139.3740   74.8890  220.0740 N   0  0  0  0  0  0  0  0  0  0  0  0
  138.4200   73.7540  219.9090 C   0  0  0  0  0  0  0  0  0  0  0  0
  138.8190   72.9740  221.1400 C   0  0  0  0  0  0  0  0  0  0  0  0
  138.1260   72.1600  222.0200 C   0  0  0  0  0  0  0  0  0  0  0  0
  138.7460   71.5620  223.1150 C   0  0  0  0  0  0  0  0  0  0  0  0
  140.0940   71.8160  223.2950 C   0  0  0  0  0  0  0  0  0  0  0  0
  140.7710   72.6350  222.4020 C   0  0  0  0  0  0  0  0  0  0  0  0
  140.1950   73.2280  221.3270 C   0  0  0  0  0  0  0  0  0  0  0  0
  140.5530   74.0860  220.1810 C   0  0  2  0  0  0  0  0  0  0  0  0
  141.8390   74.7360  220.1840 C   0  0  0  0  0  0  0  0  0  0  0  0
  142.2550   76.0350  219.9780 C   0  0  0  0  0  0  0  0  0  0  0  0
  143.5910   76.1380  220.0590 N   0  0  0  0  0  0  0  0  0  0  0  0
  144.0900   74.9200  220.3150 C   0  0  0  0  0  0  0  0  0  0  0  0
  145.3820   74.5090  220.4810 C   0  0  0  0  0  0  0  0  0  0  0  0
  145.6660   73.1980  220.7350 C   0  0  0  0  0  0  0  0  0  0  0  0
  144.6430   72.2770  220.8260 C   0  0  0  0  0  0  0  0  0  0  0  0
  143.3470   72.7180  220.6550 C   0  0  0  0  0  0  0  0  0  0  0  0
  143.0410   74.0370  220.3980 C   0  0  0  0  0  0  0  0  0  0  0  0
  139.0473   77.6136  220.1227 H   0  0  0  0  0  0  0  0  0  0  0  0
  137.6920   77.7562  221.2880 H   0  0  0  0  0  0  0  0  0  0  0  0
  137.9951   79.1937  223.0790 H   0  0  0  0  0  0  0  0  0  0  0  0
  139.4870   80.4189  224.6269 H   0  0  0  0  0  0  0  0  0  0  0  0
  141.9507   80.1047  224.5492 H   0  0  0  0  0  0  0  0  0  0  0  0
  142.9394   78.5372  222.8827 H   0  0  0  0  0  0  0  0  0  0  0  0
  141.4365   77.3187  221.3431 H   0  0  0  0  0  0  0  0  0  0  0  0
  137.3705   74.0817  219.9438 H   0  0  0  0  0  0  0  0  0  0  0  0
  138.4705   73.2121  218.9531 H   0  0  0  0  0  0  0  0  0  0  0  0
  137.0543   71.9802  221.8495 H   0  0  0  0  0  0  0  0  0  0  0  0
  138.1872   70.9151  223.8073 H   0  0  0  0  0  0  0  0  0  0  0  0
  140.6292   71.3690  224.1457 H   0  0  0  0  0  0  0  0  0  0  0  0
  141.8420   72.8143  222.5773 H   0  0  0  0  0  0  0  0  0  0  0  0
  140.7803   73.5240  219.2631 H   0  0  0  0  0  0  0  0  0  0  0  0
  141.5788   76.8782  219.7736 H   0  0  0  0  0  0  0  0  0  0  0  0
  144.1660   77.0050  219.9440 H   0  0  0  0  0  0  0  0  0  0  0  0
  146.2005   75.2404  220.4094 H   0  0  0  0  0  0  0  0  0  0  0  0
  146.7096   72.8764  220.8670 H   0  0  0  0  0  0  0  0  0  0  0  0
  144.8554   71.2171  221.0299 H   0  0  0  0  0  0  0  0  0  0  0  0
  142.5264   71.9889  220.7265 H   0  0  0  0  0  0  0  0  0  0  0  0
  1  2  2  0
  2  3  2  0
  2  4  1  0
  4  5  1  0
  5  6  2  0
  6  7  1  0
  7  8  2  0
  8  9  1  0
  9 10  2  0
  2 11  1  0
 11 12  1  0
 12 13  1  0
 13 14  2  0
 14 15  1  0
 15 16  2  0
 16 17  1  0
 17 18  2  0
 18 19  1  0
 19 20  1  0
 20 21  2  0
 21 22  1  0
 22 23  1  0
 23 24  2  0
 24 25  1  0
 25 26  2  0
 26 27  1  0
 27 28  2  0
 10  5  1  0
 19 11  1  0
 28 20  1  0
 18 13  1  0
 28 23  1  0
  4 29  1  0
  4 30  1  0
  6 31  1  0
  7 32  1  0
  8 33  1  0
  9 34  1  0
 10 35  1  0
 12 36  1  0
 12 37  1  0
 14 38  1  0
 15 39  1  0
 16 40  1  0
 17 41  1  0
 19 42  1  6
 21 43  1  0
 22 44  1  0
 24 45  1  0
 25 46  1  0
 26 47  1  0
 27 48  1  0
M  END
>  <smiles>  (37) 
O=S(=O)(Cc1ccccc1)N1Cc2ccccc2C1c1c[nH]c2ccccc12

>  <score_type>  (37) 
oracle

>  <origin>  (37) 
autodockgpu

>  <m_score__min__energy>  (37) 
-7.54

>  <m_primary>  (37) 
energy

>  <rmsd>  (37) 
7.848228092816169

>  <m_score__min__rmsd>  (37) 
7.848228092816169

>  <meeko>  (37) 
{"free_energy": -7.53, "intermolecular_energy": -8.72, "internal_energy": -1.62, "cluster_size": 25, "cluster_id": 1, "rank_in_cluster": 4}

>  <energy>  (37) 
-6.27

>  <cluster_rmsd>  (37) 
0.03

>  <cluster>  (37) 
5

$$$$

     RDKit          3D

 48 52  0  0  1  0  0  0  0  0999 V2000
  137.9710   76.0580  222.8750 O   0  0  0  0  0  0  0  0  0  0  0  0
  139.0950   76.6630  222.0770 S   0  0  0  0  0  0  0  0  0  0  0  0
  140.3560   76.1990  222.7350 O   0  0  0  0  0  0  0  0  0  0  0  0
  138.9360   78.4450  222.2660 C   0  0  0  0  0  0  0  0  0  0  0  0
  140.3110   79.0460  222.4340 C   0  0  0  0  0  0  0  0  0  0  0  0
  140.9430   79.6320  221.3560 C   0  0  0  0  0  0  0  0  0  0  0  0
  142.1990   80.1770  221.5290 C   0  0  0  0  0  0  0  0  0  0  0  0
  142.8420   80.1480  222.7640 C   0  0  0  0  0  0  0  0  0  0  0  0
  142.2150   79.5640  223.8400 C   0  0  0  0  0  0  0  0  0  0  0  0
  140.9580   79.0230  223.6550 C   0  0  0  0  0  0  0  0  0  0  0  0
  138.9850   76.3150  220.4030 N   0  0  0  0  0  0  0  0  0  0  0  0
  137.9940   75.2020  220.3320 C   0  0  0  0  0  0  0  0  0  0  0  0
  138.8050   74.1620  221.0670 C   0  0  0  0  0  0  0  0  0  0  0  0
  138.4730   73.1090  221.9030 C   0  0  0  0  0  0  0  0  0  0  0  0
  139.4430   72.2920  222.4790 C   0  0  0  0  0  0  0  0  0  0  0  0
  140.7650   72.5740  222.1860 C   0  0  0  0  0  0  0  0  0  0  0  0
  141.0770   73.6340  221.3450 C   0  0  0  0  0  0  0  0  0  0  0  0
  140.1560   74.4450  220.7680 C   0  0  0  0  0  0  0  0  0  0  0  0
  140.0780   75.5860  219.8370 C   0  0  2  0  0  0  0  0  0  0  0  0
  141.2900   76.2930  219.5120 C   0  0  0  0  0  0  0  0  0  0  0  0
  142.6260   76.0760  219.7800 C   0  0  0  0  0  0  0  0  0  0  0  0
  143.3910   77.0560  219.2730 N   0  0  0  0  0  0  0  0  0  0  0  0
  142.5890   77.9400  218.6640 C   0  0  0  0  0  0  0  0  0  0  0  0
  142.8870   79.0990  218.0070 C   0  0  0  0  0  0  0  0  0  0  0  0
  141.8950   79.8600  217.4550 C   0  0  0  0  0  0  0  0  0  0  0  0
  140.5800   79.4570  217.5600 C   0  0  0  0  0  0  0  0  0  0  0  0
  140.3070   78.2810  218.2280 C   0  0  0  0  0  0  0  0  0  0  0  0
  141.2930   77.5020  218.7910 C   0  0  0  0  0  0  0  0  0  0  0  0
  138.4547   78.8692  221.3724 H   0  0  0  0  0  0  0  0  0  0  0  0
  138.3208   78.6717  223.1493 H   0  0  0  0  0  0  0  0  0  0  0  0
  140.4521   79.6642  220.3721 H   0  0  0  0  0  0  0  0  0  0  0  0
  142.7041   80.6453  220.6713 H   0  0  0  0  0  0  0  0  0  0  0  0
  143.8434   80.5887  222.8781 H   0  0  0  0  0  0  0  0  0  0  0  0
  142.7035   79.5287  224.8249 H   0  0  0  0  0  0  0  0  0  0  0  0
  140.4521   78.5557  224.5127 H   0  0  0  0  0  0  0  0  0  0  0  0
  137.0554   75.4443  220.8520 H   0  0  0  0  0  0  0  0  0  0  0  0
  137.6462   74.9248  219.3259 H   0  0  0  0  0  0  0  0  0  0  0  0
  137.4124   72.9121  222.1184 H   0  0  0  0  0  0  0  0  0  0  0  0
  139.1688   71.4566  223.1400 H   0  0  0  0  0  0  0  0  0  0  0  0
  141.5682   71.9594  222.6186 H   0  0  0  0  0  0  0  0  0  0  0  0
  142.1388   73.8282  221.1334 H   0  0  0  0  0  0  0  0  0  0  0  0
  139.9079   75.2901  218.7913 H   0  0  0  0  0  0  0  0  0  0  0  0
  143.0145   75.2110  220.3375 H   0  0  0  0  0  0  0  0  0  0  0  0
  144.4330   77.1380  219.3320 H   0  0  0  0  0  0  0  0  0  0  0  0
  143.9346   79.4232  217.9212 H   0  0  0  0  0  0  0  0  0  0  0  0
  142.1449   80.7925  216.9278 H   0  0  0  0  0  0  0  0  0  0  0  0
  139.7694   80.0580  217.1222 H   0  0  0  0  0  0  0  0  0  0  0  0
  139.2606   77.9529  218.3142 H   0  0  0  0  0  0  0  0  0  0  0  0
  1  2  2  0
  2  3  2  0
  2  4  1  0
  4  5  1  0
  5  6  2  0
  6  7  1  0
  7  8  2  0
  8  9  1  0
  9 10  2  0
  2 11  1  0
 11 12  1  0
 12 13  1  0
 13 14  2  0
 14 15  1  0
 15 16  2  0
 16 17  1  0
 17 18  2  0
 18 19  1  0
 19 20  1  0
 20 21  2  0
 21 22  1  0
 22 23  1  0
 23 24  2  0
 24 25  1  0
 25 26  2  0
 26 27  1  0
 27 28  2  0
 10  5  1  0
 19 11  1  0
 28 20  1  0
 18 13  1  0
 28 23  1  0
  4 29  1  0
  4 30  1  0
  6 31  1  0
  7 32  1  0
  8 33  1  0
  9 34  1  0
 10 35  1  0
 12 36  1  0
 12 37  1  0
 14 38  1  0
 15 39  1  0
 16 40  1  0
 17 41  1  0
 19 42  1  6
 21 43  1  0
 22 44  1  0
 24 45  1  0
 25 46  1  0
 26 47  1  0
 27 48  1  0
M  END
>  <smiles>  (38) 
O=S(=O)(Cc1ccccc1)N1Cc2ccccc2C1c1c[nH]c2ccccc12

>  <score_type>  (38) 
oracle

>  <origin>  (38) 
autodockgpu

>  <m_score__min__energy>  (38) 
-7.54

>  <m_primary>  (38) 
energy

>  <rmsd>  (38) 
5.309191320078576

>  <m_score__min__rmsd>  (38) 
5.309191320078576

>  <meeko>  (38) 
{"free_energy": -6.56, "intermolecular_energy": -7.75, "internal_energy": -2.28, "cluster_size": 25, "cluster_id": 1, "rank_in_cluster": 22}

>  <energy>  (38) 
-6.27

>  <cluster_rmsd>  (38) 
0.04

>  <cluster>  (38) 
5

$$$$

     RDKit          3D

 48 52  0  0  1  0  0  0  0  0999 V2000
  140.5900   75.5180  218.7470 O   0  0  0  0  0  0  0  0  0  0  0  0
  140.5100   76.7550  219.6030 S   0  0  0  0  0  0  0  0  0  0  0  0
  139.0510   77.0190  219.8010 O   0  0  0  0  0  0  0  0  0  0  0  0
  141.2360   78.0820  218.6280 C   0  0  0  0  0  0  0  0  0  0  0  0
  140.9810   79.3980  219.3220 C   0  0  0  0  0  0  0  0  0  0  0  0
  142.0430   80.1890  219.7110 C   0  0  0  0  0  0  0  0  0  0  0  0
  141.7900   81.3890  220.3440 C   0  0  0  0  0  0  0  0  0  0  0  0
  140.4900   81.8190  220.5980 C   0  0  0  0  0  0  0  0  0  0  0  0
  139.4290   81.0330  220.2120 C   0  0  0  0  0  0  0  0  0  0  0  0
  139.6950   79.8330  219.5790 C   0  0  0  0  0  0  0  0  0  0  0  0
  141.4230   76.6240  221.0470 N   0  0  0  0  0  0  0  0  0  0  0  0
  141.7420   75.1690  221.1390 C   0  0  0  0  0  0  0  0  0  0  0  0
  140.3310   74.6640  221.3220 C   0  0  0  0  0  0  0  0  0  0  0  0
  139.6760   73.5050  220.9410 C   0  0  0  0  0  0  0  0  0  0  0  0
  138.3290   73.2920  221.2270 C   0  0  0  0  0  0  0  0  0  0  0  0
  137.6610   74.2910  221.9110 C   0  0  0  0  0  0  0  0  0  0  0  0
  138.3350   75.4460  222.2850 C   0  0  0  0  0  0  0  0  0  0  0  0
  139.6450   75.6810  222.0230 C   0  0  0  0  0  0  0  0  0  0  0  0
  140.6840   76.6990  222.2690 C   0  0  2  0  0  0  0  0  0  0  0  0
  140.2770   77.9920  222.7570 C   0  0  0  0  0  0  0  0  0  0  0  0
  139.0550   78.5820  223.0020 C   0  0  0  0  0  0  0  0  0  0  0  0
  139.2000   79.8440  223.4360 N   0  0  0  0  0  0  0  0  0  0  0  0
  140.5100   80.1210  223.4870 C   0  0  0  0  0  0  0  0  0  0  0  0
  141.1600   81.2640  223.8570 C   0  0  0  0  0  0  0  0  0  0  0  0
  142.5240   81.3270  223.8290 C   0  0  0  0  0  0  0  0  0  0  0  0
  143.2560   80.2310  223.4230 C   0  0  0  0  0  0  0  0  0  0  0  0
  142.5750   79.0890  223.0550 C   0  0  0  0  0  0  0  0  0  0  0  0
  141.2000   79.0050  223.0770 C   0  0  0  0  0  0  0  0  0  0  0  0
  142.3197   77.9192  218.5327 H   0  0  0  0  0  0  0  0  0  0  0  0
  140.7836   78.0968  217.6254 H   0  0  0  0  0  0  0  0  0  0  0  0
  143.0772   79.8673  219.5191 H   0  0  0  0  0  0  0  0  0  0  0  0
  142.6351   82.0207  220.6552 H   0  0  0  0  0  0  0  0  0  0  0  0
  140.3129   82.7798  221.1034 H   0  0  0  0  0  0  0  0  0  0  0  0
  138.3936   81.3517  220.4025 H   0  0  0  0  0  0  0  0  0  0  0  0
  138.8505   79.2004  219.2681 H   0  0  0  0  0  0  0  0  0  0  0  0
  142.2077   74.7843  220.2197 H   0  0  0  0  0  0  0  0  0  0  0  0
  142.4662   74.8786  221.9144 H   0  0  0  0  0  0  0  0  0  0  0  0
  140.2354   72.7299  220.3967 H   0  0  0  0  0  0  0  0  0  0  0  0
  137.8180   72.3671  220.9212 H   0  0  0  0  0  0  0  0  0  0  0  0
  136.5960   74.1708  222.1588 H   0  0  0  0  0  0  0  0  0  0  0  0
  137.7712   76.2189  222.8279 H   0  0  0  0  0  0  0  0  0  0  0  0
  141.2973   76.4968  223.1595 H   0  0  0  0  0  0  0  0  0  0  0  0
  138.0853   78.0824  222.8600 H   0  0  0  0  0  0  0  0  0  0  0  0
  138.4380   80.5150  223.6940 H   0  0  0  0  0  0  0  0  0  0  0  0
  140.5800   82.1410  224.1802 H   0  0  0  0  0  0  0  0  0  0  0  0
  143.0385   82.2515  224.1301 H   0  0  0  0  0  0  0  0  0  0  0  0
  144.3550   80.2664  223.3933 H   0  0  0  0  0  0  0  0  0  0  0  0
  143.1527   78.2107  222.7312 H   0  0  0  0  0  0  0  0  0  0  0  0
  1  2  2  0
  2  3  2  0
  2  4  1  0
  4  5  1  0
  5  6  2  0
  6  7  1  0
  7  8  2  0
  8  9  1  0
  9 10  2  0
  2 11  1  0
 11 12  1  0
 12 13  1  0
 13 14  2  0
 14 15  1  0
 15 16  2  0
 16 17  1  0
 17 18  2  0
 18 19  1  0
 19 20  1  0
 20 21  2  0
 21 22  1  0
 22 23  1  0
 23 24  2  0
 24 25  1  0
 25 26  2  0
 26 27  1  0
 27 28  2  0
 10  5  1  0
 19 11  1  0
 28 20  1  0
 18 13  1  0
 28 23  1  0
  4 29  1  0
  4 30  1  0
  6 31  1  0
  7 32  1  0
  8 33  1  0
  9 34  1  0
 10 35  1  0
 12 36  1  0
 12 37  1  0
 14 38  1  0
 15 39  1  0
 16 40  1  0
 17 41  1  0
 19 42  1  1
 21 43  1  0
 22 44  1  0
 24 45  1  0
 25 46  1  0
 26 47  1  0
 27 48  1  0
M  END
>  <smiles>  (39) 
O=S(=O)(Cc1ccccc1)N1Cc2ccccc2C1c1c[nH]c2ccccc12

>  <score_type>  (39) 
oracle

>  <origin>  (39) 
autodockgpu

>  <m_score__min__energy>  (39) 
-7.54

>  <m_primary>  (39) 
energy

>  <rmsd>  (39) 
4.534925590629687

>  <m_score__min__rmsd>  (39) 
4.534925590629687

>  <meeko>  (39) 
{"free_energy": -6.27, "intermolecular_energy": -7.46, "internal_energy": -2.62, "cluster_size": 17, "cluster_id": 5, "rank_in_cluster": 6}

>  <energy>  (39) 
-6.27

>  <cluster_rmsd>  (39) 
0.05

>  <cluster>  (39) 
5

$$$$

     RDKit          3D

 48 52  0  0  1  0  0  0  0  0999 V2000
  137.6670   75.4380  221.9700 O   0  0  0  0  0  0  0  0  0  0  0  0
  139.0450   75.8240  221.5040 S   0  0  0  0  0  0  0  0  0  0  0  0
  139.9490   75.5960  222.6740 O   0  0  0  0  0  0  0  0  0  0  0  0
  138.9700   77.5840  221.1340 C   0  0  0  0  0  0  0  0  0  0  0  0
  139.9650   78.3120  222.0050 C   0  0  0  0  0  0  0  0  0  0  0  0
  139.5460   78.9130  223.1740 C   0  0  0  0  0  0  0  0  0  0  0  0
  140.4710   79.5740  223.9580 C   0  0  0  0  0  0  0  0  0  0  0  0
  141.8140   79.6470  223.5960 C   0  0  0  0  0  0  0  0  0  0  0  0
  142.2340   79.0490  222.4310 C   0  0  0  0  0  0  0  0  0  0  0  0
  141.3000   78.3900  221.6550 C   0  0  0  0  0  0  0  0  0  0  0  0
  139.5110   75.0190  220.0660 N   0  0  0  0  0  0  0  0  0  0  0  0
  138.4710   73.9640  219.8920 C   0  0  0  0  0  0  0  0  0  0  0  0
  138.8020   73.1500  221.1200 C   0  0  0  0  0  0  0  0  0  0  0  0
  138.0420   72.3880  221.9920 C   0  0  0  0  0  0  0  0  0  0  0  0
  138.6090   71.7380  223.0870 C   0  0  0  0  0  0  0  0  0  0  0  0
  139.9710   71.8840  223.2750 C   0  0  0  0  0  0  0  0  0  0  0  0
  140.7150   72.6520  222.3880 C   0  0  0  0  0  0  0  0  0  0  0  0
  140.1930   73.2930  221.3140 C   0  0  0  0  0  0  0  0  0  0  0  0
  140.6230   74.1260  220.1740 C   0  0  2  0  0  0  0  0  0  0  0  0
  141.9550   74.6720  220.1850 C   0  0  0  0  0  0  0  0  0  0  0  0
  142.4690   75.9450  220.0480 C   0  0  0  0  0  0  0  0  0  0  0  0
  143.8110   75.9380  220.1040 N   0  0  0  0  0  0  0  0  0  0  0  0
  144.2160   74.6720  220.2750 C   0  0  0  0  0  0  0  0  0  0  0  0
  145.4740   74.1530  220.3860 C   0  0  0  0  0  0  0  0  0  0  0  0
  145.6590   72.8100  220.5550 C   0  0  0  0  0  0  0  0  0  0  0  0
  144.5680   71.9670  220.6160 C   0  0  0  0  0  0  0  0  0  0  0  0
  143.3080   72.5180  220.5010 C   0  0  0  0  0  0  0  0  0  0  0  0
  143.1020   73.8700  220.3300 C   0  0  0  0  0  0  0  0  0  0  0  0
  139.2169   77.7491  220.0748 H   0  0  0  0  0  0  0  0  0  0  0  0
  137.9562   77.9625  221.3316 H   0  0  0  0  0  0  0  0  0  0  0  0
  138.4897   78.8663  223.4774 H   0  0  0  0  0  0  0  0  0  0  0  0
  140.1393   80.0542  224.8904 H   0  0  0  0  0  0  0  0  0  0  0  0
  142.5329   80.1787  224.2368 H   0  0  0  0  0  0  0  0  0  0  0  0
  143.2893   79.0943  222.1240 H   0  0  0  0  0  0  0  0  0  0  0  0
  141.6314   77.9090  220.7229 H   0  0  0  0  0  0  0  0  0  0  0  0
  137.4506   74.3735  219.9245 H   0  0  0  0  0  0  0  0  0  0  0  0
  138.4822   73.4241  218.9337 H   0  0  0  0  0  0  0  0  0  0  0  0
  136.9604   72.2931  221.8154 H   0  0  0  0  0  0  0  0  0  0  0  0
  137.9979   71.1336  223.7735 H   0  0  0  0  0  0  0  0  0  0  0  0
  140.4650   71.3925  224.1261 H   0  0  0  0  0  0  0  0  0  0  0  0
  141.7960   72.7457  222.5688 H   0  0  0  0  0  0  0  0  0  0  0  0
  140.8104   73.5525  219.2542 H   0  0  0  0  0  0  0  0  0  0  0  0
  141.8582   76.8495  219.9106 H   0  0  0  0  0  0  0  0  0  0  0  0
  144.4510   76.7640  220.0270 H   0  0  0  0  0  0  0  0  0  0  0  0
  146.3460   74.8219  220.3390 H   0  0  0  0  0  0  0  0  0  0  0  0
  146.6764   72.4010  220.6423 H   0  0  0  0  0  0  0  0  0  0  0  0
  144.6994   70.8835  220.7528 H   0  0  0  0  0  0  0  0  0  0  0  0
  142.4338   71.8520  220.5477 H   0  0  0  0  0  0  0  0  0  0  0  0
  1  2  2  0
  2  3  2  0
  2  4  1  0
  4  5  1  0
  5  6  2  0
  6  7  1  0
  7  8  2  0
  8  9  1  0
  9 10  2  0
  2 11  1  0
 11 12  1  0
 12 13  1  0
 13 14  2  0
 14 15  1  0
 15 16  2  0
 16 17  1  0
 17 18  2  0
 18 19  1  0
 19 20  1  0
 20 21  2  0
 21 22  1  0
 22 23  1  0
 23 24  2  0
 24 25  1  0
 25 26  2  0
 26 27  1  0
 27 28  2  0
 10  5  1  0
 19 11  1  0
 28 20  1  0
 18 13  1  0
 28 23  1  0
  4 29  1  0
  4 30  1  0
  6 31  1  0
  7 32  1  0
  8 33  1  0
  9 34  1  0
 10 35  1  0
 12 36  1  0
 12 37  1  0
 14 38  1  0
 15 39  1  0
 16 40  1  0
 17 41  1  0
 19 42  1  6
 21 43  1  0
 22 44  1  0
 24 45  1  0
 25 46  1  0
 26 47  1  0
 27 48  1  0
M  END
>  <smiles>  (40) 
O=S(=O)(Cc1ccccc1)N1Cc2ccccc2C1c1c[nH]c2ccccc12

>  <score_type>  (40) 
oracle

>  <origin>  (40) 
autodockgpu

>  <m_score__min__energy>  (40) 
-7.54

>  <m_primary>  (40) 
energy

>  <rmsd>  (40) 
7.901314716648648

>  <m_score__min__rmsd>  (40) 
7.901314716648648

>  <meeko>  (40) 
{"free_energy": -7.4, "intermolecular_energy": -8.59, "internal_energy": -1.68, "cluster_size": 25, "cluster_id": 1, "rank_in_cluster": 19}

>  <energy>  (40) 
-6.26

>  <cluster_rmsd>  (40) 
0.03

>  <cluster>  (40) 
5

$$$$

     RDKit          3D

 48 52  0  0  1  0  0  0  0  0999 V2000
  140.5970   75.4830  218.8050 O   0  0  0  0  0  0  0  0  0  0  0  0
  140.5140   76.7230  219.6550 S   0  0  0  0  0  0  0  0  0  0  0  0
  139.0540   76.9890  219.8430 O   0  0  0  0  0  0  0  0  0  0  0  0
  141.2470   78.0450  218.6780 C   0  0  0  0  0  0  0  0  0  0  0  0
  140.9760   79.3650  219.3570 C   0  0  0  0  0  0  0  0  0  0  0  0
  139.6750   79.7730  219.5750 C   0  0  0  0  0  0  0  0  0  0  0  0
  139.4470   80.9830  220.1980 C   0  0  0  0  0  0  0  0  0  0  0  0
  140.4960   81.8010  220.6110 C   0  0  0  0  0  0  0  0  0  0  0  0
  141.7940   81.3970  220.3960 C   0  0  0  0  0  0  0  0  0  0  0  0
  142.0100   80.1830  219.7720 C   0  0  0  0  0  0  0  0  0  0  0  0
  141.4180   76.5980  221.1050 N   0  0  0  0  0  0  0  0  0  0  0  0
  141.7250   75.1410  221.2110 C   0  0  0  0  0  0  0  0  0  0  0  0
  140.3080   74.6490  221.3910 C   0  0  0  0  0  0  0  0  0  0  0  0
  139.6470   73.4920  221.0170 C   0  0  0  0  0  0  0  0  0  0  0  0
  138.2970   73.2920  221.2980 C   0  0  0  0  0  0  0  0  0  0  0  0
  137.6330   74.3030  221.9700 C   0  0  0  0  0  0  0  0  0  0  0  0
  138.3150   75.4550  222.3360 C   0  0  0  0  0  0  0  0  0  0  0  0
  139.6280   75.6770  222.0790 C   0  0  0  0  0  0  0  0  0  0  0  0
  140.6730   76.6890  222.3220 C   0  0  2  0  0  0  0  0  0  0  0  0
  140.2740   77.9900  222.7970 C   0  0  0  0  0  0  0  0  0  0  0  0
  139.0550   78.5910  223.0310 C   0  0  0  0  0  0  0  0  0  0  0  0
  139.2080   79.8560  223.4540 N   0  0  0  0  0  0  0  0  0  0  0  0
  140.5210   80.1240  223.5080 C   0  0  0  0  0  0  0  0  0  0  0  0
  141.1770   81.2640  223.8710 C   0  0  0  0  0  0  0  0  0  0  0  0
  142.5420   81.3170  223.8470 C   0  0  0  0  0  0  0  0  0  0  0  0
  143.2680   80.2120  223.4550 C   0  0  0  0  0  0  0  0  0  0  0  0
  142.5790   79.0720  223.0940 C   0  0  0  0  0  0  0  0  0  0  0  0
  141.2040   78.9990  223.1110 C   0  0  0  0  0  0  0  0  0  0  0  0
  142.3327   77.8869  218.5989 H   0  0  0  0  0  0  0  0  0  0  0  0
  140.8086   78.0488  217.6691 H   0  0  0  0  0  0  0  0  0  0  0  0
  138.8320   79.1422  219.2565 H   0  0  0  0  0  0  0  0  0  0  0  0
  138.4113   81.3096  220.3728 H   0  0  0  0  0  0  0  0  0  0  0  0
  140.2888   82.7618  221.1048 H   0  0  0  0  0  0  0  0  0  0  0  0
  142.6393   82.0254  220.7133 H   0  0  0  0  0  0  0  0  0  0  0  0
  143.0455   79.8548  219.5988 H   0  0  0  0  0  0  0  0  0  0  0  0
  142.1923   74.7447  220.2974 H   0  0  0  0  0  0  0  0  0  0  0  0
  142.4430   74.8513  221.9924 H   0  0  0  0  0  0  0  0  0  0  0  0
  140.2033   72.7078  220.4826 H   0  0  0  0  0  0  0  0  0  0  0  0
  137.7804   72.3684  220.9980 H   0  0  0  0  0  0  0  0  0  0  0  0
  136.5659   74.1938  222.2138 H   0  0  0  0  0  0  0  0  0  0  0  0
  137.7549   76.2378  222.8684 H   0  0  0  0  0  0  0  0  0  0  0  0
  141.2791   76.4895  223.2180 H   0  0  0  0  0  0  0  0  0  0  0  0
  138.0823   78.0973  222.8893 H   0  0  0  0  0  0  0  0  0  0  0  0
  138.4510   80.5350  223.7030 H   0  0  0  0  0  0  0  0  0  0  0  0
  140.6022   82.1476  224.1855 H   0  0  0  0  0  0  0  0  0  0  0  0
  143.0619   82.2410  224.1403 H   0  0  0  0  0  0  0  0  0  0  0  0
  144.3674   80.2385  223.4307 H   0  0  0  0  0  0  0  0  0  0  0  0
  143.1510   78.1864  222.7802 H   0  0  0  0  0  0  0  0  0  0  0  0
  1  2  2  0
  2  3  2  0
  2  4  1  0
  4  5  1  0
  5  6  2  0
  6  7  1  0
  7  8  2  0
  8  9  1  0
  9 10  2  0
  2 11  1  0
 11 12  1  0
 12 13  1  0
 13 14  2  0
 14 15  1  0
 15 16  2  0
 16 17  1  0
 17 18  2  0
 18 19  1  0
 19 20  1  0
 20 21  2  0
 21 22  1  0
 22 23  1  0
 23 24  2  0
 24 25  1  0
 25 26  2  0
 26 27  1  0
 27 28  2  0
 10  5  1  0
 19 11  1  0
 28 20  1  0
 18 13  1  0
 28 23  1  0
  4 29  1  0
  4 30  1  0
  6 31  1  0
  7 32  1  0
  8 33  1  0
  9 34  1  0
 10 35  1  0
 12 36  1  0
 12 37  1  0
 14 38  1  0
 15 39  1  0
 16 40  1  0
 17 41  1  0
 19 42  1  1
 21 43  1  0
 22 44  1  0
 24 45  1  0
 25 46  1  0
 26 47  1  0
 27 48  1  0
M  END
>  <smiles>  (41) 
O=S(=O)(Cc1ccccc1)N1Cc2ccccc2C1c1c[nH]c2ccccc12

>  <score_type>  (41) 
oracle

>  <origin>  (41) 
autodockgpu

>  <m_score__min__energy>  (41) 
-7.54

>  <m_primary>  (41) 
energy

>  <rmsd>  (41) 
4.566218347420774

>  <m_score__min__rmsd>  (41) 
4.566218347420774

>  <meeko>  (41) 
{"free_energy": -6.26, "intermolecular_energy": -7.46, "internal_energy": -2.61, "cluster_size": 17, "cluster_id": 5, "rank_in_cluster": 7}

>  <energy>  (41) 
-6.26

>  <cluster_rmsd>  (41) 
0.09

>  <cluster>  (41) 
5

$$$$

     RDKit          3D

 48 52  0  0  1  0  0  0  0  0999 V2000
  137.9770   76.0450  222.8910 O   0  0  0  0  0  0  0  0  0  0  0  0
  139.1010   76.6570  222.0960 S   0  0  0  0  0  0  0  0  0  0  0  0
  140.3620   76.1930  222.7530 O   0  0  0  0  0  0  0  0  0  0  0  0
  138.9370   78.4380  222.2930 C   0  0  0  0  0  0  0  0  0  0  0  0
  140.3110   79.0420  222.4560 C   0  0  0  0  0  0  0  0  0  0  0  0
  140.9330   79.6390  221.3780 C   0  0  0  0  0  0  0  0  0  0  0  0
  142.1880   80.1870  221.5460 C   0  0  0  0  0  0  0  0  0  0  0  0
  142.8400   80.1520  222.7760 C   0  0  0  0  0  0  0  0  0  0  0  0
  142.2230   79.5570  223.8520 C   0  0  0  0  0  0  0  0  0  0  0  0
  140.9660   79.0120  223.6720 C   0  0  0  0  0  0  0  0  0  0  0  0
  138.9930   76.3160  220.4210 N   0  0  0  0  0  0  0  0  0  0  0  0
  138.0010   75.2040  220.3440 C   0  0  0  0  0  0  0  0  0  0  0  0
  138.8110   74.1600  221.0760 C   0  0  0  0  0  0  0  0  0  0  0  0
  138.4760   73.1040  221.9070 C   0  0  0  0  0  0  0  0  0  0  0  0
  139.4450   72.2830  222.4810 C   0  0  0  0  0  0  0  0  0  0  0  0
  140.7680   72.5660  222.1900 C   0  0  0  0  0  0  0  0  0  0  0  0
  141.0820   73.6300  221.3550 C   0  0  0  0  0  0  0  0  0  0  0  0
  140.1620   74.4430  220.7800 C   0  0  0  0  0  0  0  0  0  0  0  0
  140.0860   75.5890  219.8530 C   0  0  2  0  0  0  0  0  0  0  0  0
  141.2990   76.2960  219.5330 C   0  0  0  0  0  0  0  0  0  0  0  0
  142.6330   76.0810  219.8080 C   0  0  0  0  0  0  0  0  0  0  0  0
  143.4000   77.0610  219.3030 N   0  0  0  0  0  0  0  0  0  0  0  0
  142.6000   77.9430  218.6870 C   0  0  0  0  0  0  0  0  0  0  0  0
  142.9000   79.1010  218.0290 C   0  0  0  0  0  0  0  0  0  0  0  0
  141.9100   79.8590  217.4710 C   0  0  0  0  0  0  0  0  0  0  0  0
  140.5950   79.4550  217.5700 C   0  0  0  0  0  0  0  0  0  0  0  0
  140.3190   78.2810  218.2400 C   0  0  0  0  0  0  0  0  0  0  0  0
  141.3040   77.5030  218.8100 C   0  0  0  0  0  0  0  0  0  0  0  0
  138.4497   78.8643  221.4037 H   0  0  0  0  0  0  0  0  0  0  0  0
  138.3256   78.6595  223.1802 H   0  0  0  0  0  0  0  0  0  0  0  0
  140.4347   79.6773  220.3981 H   0  0  0  0  0  0  0  0  0  0  0  0
  142.6854   80.6628  220.6880 H   0  0  0  0  0  0  0  0  0  0  0  0
  143.8401   80.5965  222.8863 H   0  0  0  0  0  0  0  0  0  0  0  0
  142.7188   79.5160  224.8331 H   0  0  0  0  0  0  0  0  0  0  0  0
  140.4679   78.5361  224.5296 H   0  0  0  0  0  0  0  0  0  0  0  0
  137.0620   75.4448  220.8638 H   0  0  0  0  0  0  0  0  0  0  0  0
  137.6541   74.9313  219.3364 H   0  0  0  0  0  0  0  0  0  0  0  0
  137.4149   72.9076  222.1201 H   0  0  0  0  0  0  0  0  0  0  0  0
  139.1696   71.4449  223.1381 H   0  0  0  0  0  0  0  0  0  0  0  0
  141.5704   71.9484  222.6199 H   0  0  0  0  0  0  0  0  0  0  0  0
  142.1443   73.8256  221.1469 H   0  0  0  0  0  0  0  0  0  0  0  0
  139.9168   75.2984  218.8057 H   0  0  0  0  0  0  0  0  0  0  0  0
  143.0195   75.2174  220.3691 H   0  0  0  0  0  0  0  0  0  0  0  0
  144.4420   77.1450  219.3670 H   0  0  0  0  0  0  0  0  0  0  0  0
  143.9476   79.4263  217.9475 H   0  0  0  0  0  0  0  0  0  0  0  0
  142.1614   80.7908  216.9431 H   0  0  0  0  0  0  0  0  0  0  0  0
  139.7864   80.0540  217.1258 H   0  0  0  0  0  0  0  0  0  0  0  0
  139.2723   77.9530  218.3226 H   0  0  0  0  0  0  0  0  0  0  0  0
  1  2  2  0
  2  3  2  0
  2  4  1  0
  4  5  1  0
  5  6  2  0
  6  7  1  0
  7  8  2  0
  8  9  1  0
  9 10  2  0
  2 11  1  0
 11 12  1  0
 12 13  1  0
 13 14  2  0
 14 15  1  0
 15 16  2  0
 16 17  1  0
 17 18  2  0
 18 19  1  0
 19 20  1  0
 20 21  2  0
 21 22  1  0
 22 23  1  0
 23 24  2  0
 24 25  1  0
 25 26  2  0
 26 27  1  0
 27 28  2  0
 10  5  1  0
 19 11  1  0
 28 20  1  0
 18 13  1  0
 28 23  1  0
  4 29  1  0
  4 30  1  0
  6 31  1  0
  7 32  1  0
  8 33  1  0
  9 34  1  0
 10 35  1  0
 12 36  1  0
 12 37  1  0
 14 38  1  0
 15 39  1  0
 16 40  1  0
 17 41  1  0
 19 42  1  6
 21 43  1  0
 22 44  1  0
 24 45  1  0
 25 46  1  0
 26 47  1  0
 27 48  1  0
M  END
>  <smiles>  (42) 
O=S(=O)(Cc1ccccc1)N1Cc2ccccc2C1c1c[nH]c2ccccc12

>  <score_type>  (42) 
oracle

>  <origin>  (42) 
autodockgpu

>  <m_score__min__energy>  (42) 
-7.54

>  <m_primary>  (42) 
energy

>  <rmsd>  (42) 
5.306911528668606

>  <m_score__min__rmsd>  (42) 
5.306911528668606

>  <meeko>  (42) 
{"free_energy": -6.54, "intermolecular_energy": -7.74, "internal_energy": -2.29, "cluster_size": 25, "cluster_id": 1, "rank_in_cluster": 25}

>  <energy>  (42) 
-6.26

>  <cluster_rmsd>  (42) 
0.07

>  <cluster>  (42) 
5

$$$$

     RDKit          3D

 48 52  0  0  1  0  0  0  0  0999 V2000
  137.6730   75.3740  221.9170 O   0  0  0  0  0  0  0  0  0  0  0  0
  139.0410   75.8120  221.4650 S   0  0  0  0  0  0  0  0  0  0  0  0
  139.9420   75.6100  222.6420 O   0  0  0  0  0  0  0  0  0  0  0  0
  138.9070   77.5690  221.1020 C   0  0  0  0  0  0  0  0  0  0  0  0
  139.9140   78.3210  221.9390 C   0  0  0  0  0  0  0  0  0  0  0  0
  139.5170   78.9280  223.1140 C   0  0  0  0  0  0  0  0  0  0  0  0
  140.4510   79.6100  223.8660 C   0  0  0  0  0  0  0  0  0  0  0  0
  141.7830   79.7010  223.4670 C   0  0  0  0  0  0  0  0  0  0  0  0
  142.1810   79.0980  222.2970 C   0  0  0  0  0  0  0  0  0  0  0  0
  141.2370   78.4170  221.5520 C   0  0  0  0  0  0  0  0  0  0  0  0
  139.5470   75.0310  220.0270 N   0  0  0  0  0  0  0  0  0  0  0  0
  138.5590   73.9260  219.8510 C   0  0  0  0  0  0  0  0  0  0  0  0
  138.9280   73.1290  221.0800 C   0  0  0  0  0  0  0  0  0  0  0  0
  138.2050   72.3310  221.9510 C   0  0  0  0  0  0  0  0  0  0  0  0
  138.8010   71.7090  223.0460 C   0  0  0  0  0  0  0  0  0  0  0  0
  140.1550   71.9200  223.2350 C   0  0  0  0  0  0  0  0  0  0  0  0
  140.8620   72.7230  222.3500 C   0  0  0  0  0  0  0  0  0  0  0  0
  140.3110   73.3390  221.2750 C   0  0  0  0  0  0  0  0  0  0  0  0
  140.7000   74.1920  220.1360 C   0  0  2  0  0  0  0  0  0  0  0  0
  142.0050   74.8020  220.1490 C   0  0  0  0  0  0  0  0  0  0  0  0
  142.4630   76.0860  219.9370 C   0  0  0  0  0  0  0  0  0  0  0  0
  143.8010   76.1490  220.0340 N   0  0  0  0  0  0  0  0  0  0  0  0
  144.2600   74.9190  220.3060 C   0  0  0  0  0  0  0  0  0  0  0  0
  145.5350   74.4700  220.4910 C   0  0  0  0  0  0  0  0  0  0  0  0
  145.7770   73.1530  220.7600 C   0  0  0  0  0  0  0  0  0  0  0  0
  144.7250   72.2640  220.8460 C   0  0  0  0  0  0  0  0  0  0  0  0
  143.4450   72.7440  220.6560 C   0  0  0  0  0  0  0  0  0  0  0  0
  143.1820   74.0680  220.3830 C   0  0  0  0  0  0  0  0  0  0  0  0
  139.1113   77.7420  220.0351 H   0  0  0  0  0  0  0  0  0  0  0  0
  137.8915   77.9210  221.3363 H   0  0  0  0  0  0  0  0  0  0  0  0
  138.4700   78.8685  223.4459 H   0  0  0  0  0  0  0  0  0  0  0  0
  140.1368   80.0934  224.8028 H   0  0  0  0  0  0  0  0  0  0  0  0
  142.5101   80.2506  224.0828 H   0  0  0  0  0  0  0  0  0  0  0  0
  143.2270   79.1564  221.9617 H   0  0  0  0  0  0  0  0  0  0  0  0
  141.5508   77.9330  220.6154 H   0  0  0  0  0  0  0  0  0  0  0  0
  137.5198   74.2853  219.8821 H   0  0  0  0  0  0  0  0  0  0  0  0
  138.5975   73.3875  218.8926 H   0  0  0  0  0  0  0  0  0  0  0  0
  137.1295   72.1841  221.7732 H   0  0  0  0  0  0  0  0  0  0  0  0
  138.2188   71.0762  223.7320 H   0  0  0  0  0  0  0  0  0  0  0  0
  140.6713   71.4518  224.0860 H   0  0  0  0  0  0  0  0  0  0  0  0
  141.9369   72.8686  222.5325 H   0  0  0  0  0  0  0  0  0  0  0  0
  140.9141   73.6283  219.2160 H   0  0  0  0  0  0  0  0  0  0  0  0
  141.8154   76.9475  219.7168 H   0  0  0  0  0  0  0  0  0  0  0  0
  144.4040   76.9970  219.9180 H   0  0  0  0  0  0  0  0  0  0  0  0
  146.3762   75.1755  220.4228 H   0  0  0  0  0  0  0  0  0  0  0  0
  146.8088   72.8015  220.9079 H   0  0  0  0  0  0  0  0  0  0  0  0
  144.9021   71.1998  221.0605 H   0  0  0  0  0  0  0  0  0  0  0  0
  142.6016   72.0413  220.7254 H   0  0  0  0  0  0  0  0  0  0  0  0
  1  2  2  0
  2  3  2  0
  2  4  1  0
  4  5  1  0
  5  6  2  0
  6  7  1  0
  7  8  2  0
  8  9  1  0
  9 10  2  0
  2 11  1  0
 11 12  1  0
 12 13  1  0
 13 14  2  0
 14 15  1  0
 15 16  2  0
 16 17  1  0
 17 18  2  0
 18 19  1  0
 19 20  1  0
 20 21  2  0
 21 22  1  0
 22 23  1  0
 23 24  2  0
 24 25  1  0
 25 26  2  0
 26 27  1  0
 27 28  2  0
 10  5  1  0
 19 11  1  0
 28 20  1  0
 18 13  1  0
 28 23  1  0
  4 29  1  0
  4 30  1  0
  6 31  1  0
  7 32  1  0
  8 33  1  0
  9 34  1  0
 10 35  1  0
 12 36  1  0
 12 37  1  0
 14 38  1  0
 15 39  1  0
 16 40  1  0
 17 41  1  0
 19 42  1  6
 21 43  1  0
 22 44  1  0
 24 45  1  0
 25 46  1  0
 26 47  1  0
 27 48  1  0
M  END
>  <smiles>  (43) 
O=S(=O)(Cc1ccccc1)N1Cc2ccccc2C1c1c[nH]c2ccccc12

>  <score_type>  (43) 
oracle

>  <origin>  (43) 
autodockgpu

>  <m_score__min__energy>  (43) 
-7.54

>  <m_primary>  (43) 
energy

>  <rmsd>  (43) 
7.802654610442116

>  <m_score__min__rmsd>  (43) 
7.802654610442116

>  <meeko>  (43) 
{"free_energy": -7.51, "intermolecular_energy": -8.71, "internal_energy": -1.65, "cluster_size": 25, "cluster_id": 1, "rank_in_cluster": 5}

>  <energy>  (43) 
-6.26

>  <cluster_rmsd>  (43) 
0.03

>  <cluster>  (43) 
5

$$$$

     RDKit          3D

 48 52  0  0  1  0  0  0  0  0999 V2000
  140.5820   75.4700  218.7920 O   0  0  0  0  0  0  0  0  0  0  0  0
  140.5080   76.7140  219.6380 S   0  0  0  0  0  0  0  0  0  0  0  0
  139.0500   76.9940  219.8210 O   0  0  0  0  0  0  0  0  0  0  0  0
  141.2570   78.0250  218.6610 C   0  0  0  0  0  0  0  0  0  0  0  0
  140.9910   79.3510  219.3320 C   0  0  0  0  0  0  0  0  0  0  0  0
  139.6920   79.7680  219.5420 C   0  0  0  0  0  0  0  0  0  0  0  0
  139.4680   80.9830  220.1580 C   0  0  0  0  0  0  0  0  0  0  0  0
  140.5210   81.7950  220.5720 C   0  0  0  0  0  0  0  0  0  0  0  0
  141.8170   81.3820  220.3650 C   0  0  0  0  0  0  0  0  0  0  0  0
  142.0290   80.1640  219.7470 C   0  0  0  0  0  0  0  0  0  0  0  0
  141.4050   76.5830  221.0910 N   0  0  0  0  0  0  0  0  0  0  0  0
  141.7040   75.1250  221.1990 C   0  0  0  0  0  0  0  0  0  0  0  0
  140.2850   74.6400  221.3730 C   0  0  0  0  0  0  0  0  0  0  0  0
  139.6190   73.4860  220.9960 C   0  0  0  0  0  0  0  0  0  0  0  0
  138.2670   73.2930  221.2710 C   0  0  0  0  0  0  0  0  0  0  0  0
  137.6050   74.3070  221.9410 C   0  0  0  0  0  0  0  0  0  0  0  0
  138.2910   75.4560  222.3100 C   0  0  0  0  0  0  0  0  0  0  0  0
  139.6060   75.6710  222.0590 C   0  0  0  0  0  0  0  0  0  0  0  0
  140.6560   76.6780  222.3060 C   0  0  2  0  0  0  0  0  0  0  0  0
  140.2620   77.9800  222.7790 C   0  0  0  0  0  0  0  0  0  0  0  0
  139.0440   78.5850  223.0160 C   0  0  0  0  0  0  0  0  0  0  0  0
  139.2020   79.8500  223.4360 N   0  0  0  0  0  0  0  0  0  0  0  0
  140.5150   80.1150  223.4870 C   0  0  0  0  0  0  0  0  0  0  0  0
  141.1760   81.2540  223.8460 C   0  0  0  0  0  0  0  0  0  0  0  0
  142.5400   81.3040  223.8190 C   0  0  0  0  0  0  0  0  0  0  0  0
  143.2620   80.1950  223.4270 C   0  0  0  0  0  0  0  0  0  0  0  0
  142.5700   79.0570  223.0700 C   0  0  0  0  0  0  0  0  0  0  0  0
  141.1940   78.9880  223.0900 C   0  0  0  0  0  0  0  0  0  0  0  0
  142.3420   77.8585  218.5904 H   0  0  0  0  0  0  0  0  0  0  0  0
  140.8256   78.0273  217.6491 H   0  0  0  0  0  0  0  0  0  0  0  0
  138.8467   79.1406  219.2228 H   0  0  0  0  0  0  0  0  0  0  0  0
  138.4336   81.3176  220.3258 H   0  0  0  0  0  0  0  0  0  0  0  0
  140.3181   82.7593  221.0608 H   0  0  0  0  0  0  0  0  0  0  0  0
  142.6645   82.0065  220.6839 H   0  0  0  0  0  0  0  0  0  0  0  0
  143.0632   79.8289  219.5790 H   0  0  0  0  0  0  0  0  0  0  0  0
  142.1733   74.7260  220.2876 H   0  0  0  0  0  0  0  0  0  0  0  0
  142.4170   74.8323  221.9838 H   0  0  0  0  0  0  0  0  0  0  0  0
  140.1735   72.6989  220.4640 H   0  0  0  0  0  0  0  0  0  0  0  0
  137.7469   72.3723  220.9680 H   0  0  0  0  0  0  0  0  0  0  0  0
  136.5365   74.2026  222.1808 H   0  0  0  0  0  0  0  0  0  0  0  0
  137.7324   76.2418  222.8396 H   0  0  0  0  0  0  0  0  0  0  0  0
  141.2581   76.4755  223.2040 H   0  0  0  0  0  0  0  0  0  0  0  0
  138.0695   78.0937  222.8784 H   0  0  0  0  0  0  0  0  0  0  0  0
  138.4470   80.5320  223.6860 H   0  0  0  0  0  0  0  0  0  0  0  0
  140.6043   82.1398  224.1600 H   0  0  0  0  0  0  0  0  0  0  0  0
  143.0630   82.2271  224.1093 H   0  0  0  0  0  0  0  0  0  0  0  0
  144.3614   80.2184  223.4001 H   0  0  0  0  0  0  0  0  0  0  0  0
  143.1390   78.1692  222.7569 H   0  0  0  0  0  0  0  0  0  0  0  0
  1  2  2  0
  2  3  2  0
  2  4  1  0
  4  5  1  0
  5  6  2  0
  6  7  1  0
  7  8  2  0
  8  9  1  0
  9 10  2  0
  2 11  1  0
 11 12  1  0
 12 13  1  0
 13 14  2  0
 14 15  1  0
 15 16  2  0
 16 17  1  0
 17 18  2  0
 18 19  1  0
 19 20  1  0
 20 21  2  0
 21 22  1  0
 22 23  1  0
 23 24  2  0
 24 25  1  0
 25 26  2  0
 26 27  1  0
 27 28  2  0
 10  5  1  0
 19 11  1  0
 28 20  1  0
 18 13  1  0
 28 23  1  0
  4 29  1  0
  4 30  1  0
  6 31  1  0
  7 32  1  0
  8 33  1  0
  9 34  1  0
 10 35  1  0
 12 36  1  0
 12 37  1  0
 14 38  1  0
 15 39  1  0
 16 40  1  0
 17 41  1  0
 19 42  1  1
 21 43  1  0
 22 44  1  0
 24 45  1  0
 25 46  1  0
 26 47  1  0
 27 48  1  0
M  END
>  <smiles>  (44) 
O=S(=O)(Cc1ccccc1)N1Cc2ccccc2C1c1c[nH]c2ccccc12

>  <score_type>  (44) 
oracle

>  <origin>  (44) 
autodockgpu

>  <m_score__min__energy>  (44) 
-7.54

>  <m_primary>  (44) 
energy

>  <rmsd>  (44) 
4.562951642872043

>  <m_score__min__rmsd>  (44) 
4.562951642872043

>  <meeko>  (44) 
{"free_energy": -6.27, "intermolecular_energy": -7.46, "internal_energy": -2.61, "cluster_size": 17, "cluster_id": 5, "rank_in_cluster": 4}

>  <energy>  (44) 
-6.26

>  <cluster_rmsd>  (44) 
0.05

>  <cluster>  (44) 
5

$$$$

     RDKit          3D

 48 52  0  0  1  0  0  0  0  0999 V2000
  137.6890   75.4440  222.0460 O   0  0  0  0  0  0  0  0  0  0  0  0
  139.0500   75.8530  221.5480 S   0  0  0  0  0  0  0  0  0  0  0  0
  139.9850   75.6310  222.6930 O   0  0  0  0  0  0  0  0  0  0  0  0
  138.9410   77.6130  221.1890 C   0  0  0  0  0  0  0  0  0  0  0  0
  139.9690   78.3470  222.0150 C   0  0  0  0  0  0  0  0  0  0  0  0
  141.2970   78.3270  221.6370 C   0  0  0  0  0  0  0  0  0  0  0  0
  142.2230   79.0040  222.4040 C   0  0  0  0  0  0  0  0  0  0  0  0
  141.8500   79.7060  223.5480 C   0  0  0  0  0  0  0  0  0  0  0  0
  140.5270   79.7270  223.9270 C   0  0  0  0  0  0  0  0  0  0  0  0
  139.6090   79.0460  223.1510 C   0  0  0  0  0  0  0  0  0  0  0  0
  139.4900   75.0620  220.0930 N   0  0  0  0  0  0  0  0  0  0  0  0
  138.4370   74.0190  219.9180 C   0  0  0  0  0  0  0  0  0  0  0  0
  138.7750   73.1860  221.1320 C   0  0  0  0  0  0  0  0  0  0  0  0
  138.0180   72.4210  222.0040 C   0  0  0  0  0  0  0  0  0  0  0  0
  138.5910   71.7510  223.0830 C   0  0  0  0  0  0  0  0  0  0  0  0
  139.9570   71.8810  223.2560 C   0  0  0  0  0  0  0  0  0  0  0  0
  140.6980   72.6530  222.3710 C   0  0  0  0  0  0  0  0  0  0  0  0
  140.1700   73.3140  221.3110 C   0  0  0  0  0  0  0  0  0  0  0  0
  140.5940   74.1560  220.1770 C   0  0  2  0  0  0  0  0  0  0  0  0
  141.9320   74.6900  220.1790 C   0  0  0  0  0  0  0  0  0  0  0  0
  142.4580   75.9550  220.0200 C   0  0  0  0  0  0  0  0  0  0  0  0
  143.8000   75.9350  220.0750 N   0  0  0  0  0  0  0  0  0  0  0  0
  144.1930   74.6680  220.2680 C   0  0  0  0  0  0  0  0  0  0  0  0
  145.4450   74.1380  220.3880 C   0  0  0  0  0  0  0  0  0  0  0  0
  145.6160   72.7960  220.5800 C   0  0  0  0  0  0  0  0  0  0  0  0
  144.5170   71.9660  220.6540 C   0  0  0  0  0  0  0  0  0  0  0  0
  143.2630   72.5280  220.5310 C   0  0  0  0  0  0  0  0  0  0  0  0
  143.0700   73.8780  220.3370 C   0  0  0  0  0  0  0  0  0  0  0  0
  139.1360   77.7842  220.1201 H   0  0  0  0  0  0  0  0  0  0  0  0
  137.9342   77.9811  221.4355 H   0  0  0  0  0  0  0  0  0  0  0  0
  141.6123   77.7790  220.7369 H   0  0  0  0  0  0  0  0  0  0  0  0
  143.2814   78.9890  222.1048 H   0  0  0  0  0  0  0  0  0  0  0  0
  142.6062   80.2389  224.1432 H   0  0  0  0  0  0  0  0  0  0  0  0
  140.2080   80.2733  224.8269 H   0  0  0  0  0  0  0  0  0  0  0  0
  138.5503   79.0609  223.4492 H   0  0  0  0  0  0  0  0  0  0  0  0
  137.4211   74.4380  219.9681 H   0  0  0  0  0  0  0  0  0  0  0  0
  138.4312   73.4914  218.9528 H   0  0  0  0  0  0  0  0  0  0  0  0
  136.9333   72.3401  221.8399 H   0  0  0  0  0  0  0  0  0  0  0  0
  137.9821   71.1438  223.7689 H   0  0  0  0  0  0  0  0  0  0  0  0
  140.4563   71.3731  224.0943 H   0  0  0  0  0  0  0  0  0  0  0  0
  141.7819   72.7335  222.5404 H   0  0  0  0  0  0  0  0  0  0  0  0
  140.7642   73.5911  219.2486 H   0  0  0  0  0  0  0  0  0  0  0  0
  141.8562   76.8631  219.8678 H   0  0  0  0  0  0  0  0  0  0  0  0
  144.4480   76.7530  219.9850 H   0  0  0  0  0  0  0  0  0  0  0  0
  146.3239   74.7968  220.3296 H   0  0  0  0  0  0  0  0  0  0  0  0
  146.6290   72.3781  220.6754 H   0  0  0  0  0  0  0  0  0  0  0  0
  144.6372   70.8834  220.8072 H   0  0  0  0  0  0  0  0  0  0  0  0
  142.3821   71.8718  220.5902 H   0  0  0  0  0  0  0  0  0  0  0  0
  1  2  2  0
  2  3  2  0
  2  4  1  0
  4  5  1  0
  5  6  2  0
  6  7  1  0
  7  8  2  0
  8  9  1  0
  9 10  2  0
  2 11  1  0
 11 12  1  0
 12 13  1  0
 13 14  2  0
 14 15  1  0
 15 16  2  0
 16 17  1  0
 17 18  2  0
 18 19  1  0
 19 20  1  0
 20 21  2  0
 21 22  1  0
 22 23  1  0
 23 24  2  0
 24 25  1  0
 25 26  2  0
 26 27  1  0
 27 28  2  0
 10  5  1  0
 19 11  1  0
 28 20  1  0
 18 13  1  0
 28 23  1  0
  4 29  1  0
  4 30  1  0
  6 31  1  0
  7 32  1  0
  8 33  1  0
  9 34  1  0
 10 35  1  0
 12 36  1  0
 12 37  1  0
 14 38  1  0
 15 39  1  0
 16 40  1  0
 17 41  1  0
 19 42  1  6
 21 43  1  0
 22 44  1  0
 24 45  1  0
 25 46  1  0
 26 47  1  0
 27 48  1  0
M  END
>  <smiles>  (45) 
O=S(=O)(Cc1ccccc1)N1Cc2ccccc2C1c1c[nH]c2ccccc12

>  <score_type>  (45) 
oracle

>  <origin>  (45) 
autodockgpu

>  <m_score__min__energy>  (45) 
-7.54

>  <m_primary>  (45) 
energy

>  <rmsd>  (45) 
7.883822899108578

>  <m_score__min__rmsd>  (45) 
7.883822899108578

>  <meeko>  (45) 
{"free_energy": -7.42, "intermolecular_energy": -8.61, "internal_energy": -1.64, "cluster_size": 25, "cluster_id": 1, "rank_in_cluster": 17}

>  <energy>  (45) 
-6.26

>  <cluster_rmsd>  (45) 
0.06

>  <cluster>  (45) 
5

$$$$

     RDKit          3D

 48 52  0  0  1  0  0  0  0  0999 V2000
  140.6700   75.5550  218.7470 O   0  0  0  0  0  0  0  0  0  0  0  0
  140.5800   76.7760  219.6240 S   0  0  0  0  0  0  0  0  0  0  0  0
  139.1190   77.0620  219.7730 O   0  0  0  0  0  0  0  0  0  0  0  0
  141.3650   78.1080  218.7040 C   0  0  0  0  0  0  0  0  0  0  0  0
  141.0480   79.4220  219.3760 C   0  0  0  0  0  0  0  0  0  0  0  0
  142.0730   80.2700  219.7470 C   0  0  0  0  0  0  0  0  0  0  0  0
  141.7650   81.4680  220.3600 C   0  0  0  0  0  0  0  0  0  0  0  0
  140.4460   81.8390  220.6130 C   0  0  0  0  0  0  0  0  0  0  0  0
  139.4230   80.9960  220.2450 C   0  0  0  0  0  0  0  0  0  0  0  0
  139.7440   79.8000  219.6320 C   0  0  0  0  0  0  0  0  0  0  0  0
  141.4340   76.6010  221.0980 N   0  0  0  0  0  0  0  0  0  0  0  0
  141.7100   75.1370  221.1810 C   0  0  0  0  0  0  0  0  0  0  0  0
  140.2800   74.6680  221.3050 C   0  0  0  0  0  0  0  0  0  0  0  0
  139.6090   73.5330  220.8840 C   0  0  0  0  0  0  0  0  0  0  0  0
  138.2470   73.3530  221.1180 C   0  0  0  0  0  0  0  0  0  0  0  0
  137.5810   74.3610  221.7920 C   0  0  0  0  0  0  0  0  0  0  0  0
  138.2730   75.4920  222.2060 C   0  0  0  0  0  0  0  0  0  0  0  0
  139.5970   75.6940  221.9950 C   0  0  0  0  0  0  0  0  0  0  0  0
  140.6530   76.6800  222.2930 C   0  0  2  0  0  0  0  0  0  0  0  0
  140.2650   77.9770  222.7850 C   0  0  0  0  0  0  0  0  0  0  0  0
  139.0510   78.5740  223.0540 C   0  0  0  0  0  0  0  0  0  0  0  0
  139.2120   79.8370  223.4800 N   0  0  0  0  0  0  0  0  0  0  0  0
  140.5250   80.1080  223.5010 C   0  0  0  0  0  0  0  0  0  0  0  0
  141.1880   81.2480  223.8530 C   0  0  0  0  0  0  0  0  0  0  0  0
  142.5520   81.3040  223.7950 C   0  0  0  0  0  0  0  0  0  0  0  0
  143.2690   80.2010  223.3790 C   0  0  0  0  0  0  0  0  0  0  0  0
  142.5740   79.0620  223.0300 C   0  0  0  0  0  0  0  0  0  0  0  0
  141.1990   78.9860  223.0810 C   0  0  0  0  0  0  0  0  0  0  0  0
  142.4541   77.9544  218.6895 H   0  0  0  0  0  0  0  0  0  0  0  0
  140.9884   78.1185  217.6705 H   0  0  0  0  0  0  0  0  0  0  0  0
  143.1208   79.9945  219.5566 H   0  0  0  0  0  0  0  0  0  0  0  0
  142.5798   82.1454  220.6555 H   0  0  0  0  0  0  0  0  0  0  0  0
  140.2244   82.7985  221.1032 H   0  0  0  0  0  0  0  0  0  0  0  0
  138.3740   81.2677  220.4343 H   0  0  0  0  0  0  0  0  0  0  0  0
  138.9295   79.1224  219.3363 H   0  0  0  0  0  0  0  0  0  0  0  0
  142.1989   74.7519  220.2740 H   0  0  0  0  0  0  0  0  0  0  0  0
  142.3969   74.8168  221.9783 H   0  0  0  0  0  0  0  0  0  0  0  0
  140.1670   72.7503  220.3492 H   0  0  0  0  0  0  0  0  0  0  0  0
  137.7230   72.4466  220.7806 H   0  0  0  0  0  0  0  0  0  0  0  0
  136.5049   74.2669  221.9998 H   0  0  0  0  0  0  0  0  0  0  0  0
  137.7112   76.2733  222.7388 H   0  0  0  0  0  0  0  0  0  0  0  0
  141.2266   76.4490  223.2028 H   0  0  0  0  0  0  0  0  0  0  0  0
  138.0760   78.0788  222.9348 H   0  0  0  0  0  0  0  0  0  0  0  0
  138.4600   80.5140  223.7510 H   0  0  0  0  0  0  0  0  0  0  0  0
  140.6196   82.1289  224.1861 H   0  0  0  0  0  0  0  0  0  0  0  0
  143.0778   82.2273  224.0796 H   0  0  0  0  0  0  0  0  0  0  0  0
  144.3674   80.2294  223.3270 H   0  0  0  0  0  0  0  0  0  0  0  0
  143.1398   78.1791  222.6977 H   0  0  0  0  0  0  0  0  0  0  0  0
  1  2  2  0
  2  3  2  0
  2  4  1  0
  4  5  1  0
  5  6  2  0
  6  7  1  0
  7  8  2  0
  8  9  1  0
  9 10  2  0
  2 11  1  0
 11 12  1  0
 12 13  1  0
 13 14  2  0
 14 15  1  0
 15 16  2  0
 16 17  1  0
 17 18  2  0
 18 19  1  0
 19 20  1  0
 20 21  2  0
 21 22  1  0
 22 23  1  0
 23 24  2  0
 24 25  1  0
 25 26  2  0
 26 27  1  0
 27 28  2  0
 10  5  1  0
 19 11  1  0
 28 20  1  0
 18 13  1  0
 28 23  1  0
  4 29  1  0
  4 30  1  0
  6 31  1  0
  7 32  1  0
  8 33  1  0
  9 34  1  0
 10 35  1  0
 12 36  1  0
 12 37  1  0
 14 38  1  0
 15 39  1  0
 16 40  1  0
 17 41  1  0
 19 42  1  1
 21 43  1  0
 22 44  1  0
 24 45  1  0
 25 46  1  0
 26 47  1  0
 27 48  1  0
M  END
>  <smiles>  (46) 
O=S(=O)(Cc1ccccc1)N1Cc2ccccc2C1c1c[nH]c2ccccc12

>  <score_type>  (46) 
oracle

>  <origin>  (46) 
autodockgpu

>  <m_score__min__energy>  (46) 
-7.54

>  <m_primary>  (46) 
energy

>  <rmsd>  (46) 
4.521664512032387

>  <m_score__min__rmsd>  (46) 
4.521664512032387

>  <meeko>  (46) 
{"free_energy": -6.26, "intermolecular_energy": -7.45, "internal_energy": -2.6, "cluster_size": 17, "cluster_id": 5, "rank_in_cluster": 8}

>  <energy>  (46) 
-6.26

>  <cluster_rmsd>  (46) 
0.06

>  <cluster>  (46) 
5

$$$$

     RDKit          3D

 48 52  0  0  1  0  0  0  0  0999 V2000
  137.9090   75.8110  222.0190 O   0  0  0  0  0  0  0  0  0  0  0  0
  139.2850   76.1970  221.5430 S   0  0  0  0  0  0  0  0  0  0  0  0
  140.2130   75.8580  222.6660 O   0  0  0  0  0  0  0  0  0  0  0  0
  139.2470   77.9810  221.3090 C   0  0  0  0  0  0  0  0  0  0  0  0
  140.4010   78.5990  222.0600 C   0  0  0  0  0  0  0  0  0  0  0  0
  141.4700   79.1300  221.3650 C   0  0  0  0  0  0  0  0  0  0  0  0
  142.5150   79.6920  222.0690 C   0  0  0  0  0  0  0  0  0  0  0  0
  142.5170   79.7360  223.4620 C   0  0  0  0  0  0  0  0  0  0  0  0
  141.4540   79.2070  224.1560 C   0  0  0  0  0  0  0  0  0  0  0  0
  140.4130   78.6470  223.4410 C   0  0  0  0  0  0  0  0  0  0  0  0
  139.6890   75.4930  220.0350 N   0  0  0  0  0  0  0  0  0  0  0  0
  138.5690   74.5430  219.7700 C   0  0  0  0  0  0  0  0  0  0  0  0
  138.8310   73.5970  220.9180 C   0  0  0  0  0  0  0  0  0  0  0  0
  138.0110   72.8210  221.7200 C   0  0  0  0  0  0  0  0  0  0  0  0
  138.5210   72.0310  222.7480 C   0  0  0  0  0  0  0  0  0  0  0  0
  139.8910   72.0510  222.9420 C   0  0  0  0  0  0  0  0  0  0  0  0
  140.6960   72.8350  222.1260 C   0  0  0  0  0  0  0  0  0  0  0  0
  140.2290   73.6110  221.1170 C   0  0  0  0  0  0  0  0  0  0  0  0
  140.7260   74.5080  220.0560 C   0  0  2  0  0  0  0  0  0  0  0  0
  142.0970   74.9440  220.1110 C   0  0  0  0  0  0  0  0  0  0  0  0
  142.7180   76.1700  219.9940 C   0  0  0  0  0  0  0  0  0  0  0  0
  144.0520   76.0540  220.0910 N   0  0  0  0  0  0  0  0  0  0  0  0
  144.3470   74.7590  220.2710 C   0  0  0  0  0  0  0  0  0  0  0  0
  145.5540   74.1380  220.4200 C   0  0  0  0  0  0  0  0  0  0  0  0
  145.6230   72.7850  220.5900 C   0  0  0  0  0  0  0  0  0  0  0  0
  144.4660   72.0340  220.6130 C   0  0  0  0  0  0  0  0  0  0  0  0
  143.2600   72.6860  220.4610 C   0  0  0  0  0  0  0  0  0  0  0  0
  143.1700   74.0500  220.2880 C   0  0  0  0  0  0  0  0  0  0  0  0
  139.3365   78.2146  220.2378 H   0  0  0  0  0  0  0  0  0  0  0  0
  138.2970   78.3857  221.6882 H   0  0  0  0  0  0  0  0  0  0  0  0
  141.4879   79.1051  220.2654 H   0  0  0  0  0  0  0  0  0  0  0  0
  143.3673   80.1156  221.5175 H   0  0  0  0  0  0  0  0  0  0  0  0
  143.3613   80.1898  224.0016 H   0  0  0  0  0  0  0  0  0  0  0  0
  141.4331   79.2293  225.2556 H   0  0  0  0  0  0  0  0  0  0  0  0
  139.5608   78.2230  223.9922 H   0  0  0  0  0  0  0  0  0  0  0  0
  137.5840   75.0271  219.8437 H   0  0  0  0  0  0  0  0  0  0  0  0
  138.5406   74.0932  218.7666 H   0  0  0  0  0  0  0  0  0  0  0  0
  136.9258   72.8286  221.5402 H   0  0  0  0  0  0  0  0  0  0  0  0
  137.8620   71.4168  223.3793 H   0  0  0  0  0  0  0  0  0  0  0  0
  140.3422   71.4461  223.7423 H   0  0  0  0  0  0  0  0  0  0  0  0
  141.7805   72.8259  222.3098 H   0  0  0  0  0  0  0  0  0  0  0  0
  140.8689   74.0075  219.0870 H   0  0  0  0  0  0  0  0  0  0  0  0
  142.1878   77.1215  219.8408 H   0  0  0  0  0  0  0  0  0  0  0  0
  144.7590   76.8240  220.0370 H   0  0  0  0  0  0  0  0  0  0  0  0
  146.4790   74.7331  220.4029 H   0  0  0  0  0  0  0  0  0  0  0  0
  146.6003   72.2942  220.7085 H   0  0  0  0  0  0  0  0  0  0  0  0
  144.5042   70.9431  220.7491 H   0  0  0  0  0  0  0  0  0  0  0  0
  142.3334   72.0935  220.4786 H   0  0  0  0  0  0  0  0  0  0  0  0
  1  2  2  0
  2  3  2  0
  2  4  1  0
  4  5  1  0
  5  6  2  0
  6  7  1  0
  7  8  2  0
  8  9  1  0
  9 10  2  0
  2 11  1  0
 11 12  1  0
 12 13  1  0
 13 14  2  0
 14 15  1  0
 15 16  2  0
 16 17  1  0
 17 18  2  0
 18 19  1  0
 19 20  1  0
 20 21  2  0
 21 22  1  0
 22 23  1  0
 23 24  2  0
 24 25  1  0
 25 26  2  0
 26 27  1  0
 27 28  2  0
 10  5  1  0
 19 11  1  0
 28 20  1  0
 18 13  1  0
 28 23  1  0
  4 29  1  0
  4 30  1  0
  6 31  1  0
  7 32  1  0
  8 33  1  0
  9 34  1  0
 10 35  1  0
 12 36  1  0
 12 37  1  0
 14 38  1  0
 15 39  1  0
 16 40  1  0
 17 41  1  0
 19 42  1  6
 21 43  1  0
 22 44  1  0
 24 45  1  0
 25 46  1  0
 26 47  1  0
 27 48  1  0
M  END
>  <smiles>  (47) 
O=S(=O)(Cc1ccccc1)N1Cc2ccccc2C1c1c[nH]c2ccccc12

>  <score_type>  (47) 
oracle

>  <origin>  (47) 
autodockgpu

>  <m_score__min__energy>  (47) 
-7.54

>  <m_primary>  (47) 
energy

>  <rmsd>  (47) 
7.673896653150453

>  <m_score__min__rmsd>  (47) 
7.673896653150453

>  <meeko>  (47) 
{"free_energy": -7.49, "intermolecular_energy": -8.68, "internal_energy": -1.61, "cluster_size": 25, "cluster_id": 1, "rank_in_cluster": 6}

>  <energy>  (47) 
-6.25

>  <cluster_rmsd>  (47) 
0.05

>  <cluster>  (47) 
5

$$$$

     RDKit          3D

 48 52  0  0  1  0  0  0  0  0999 V2000
  137.6780   75.4220  222.0380 O   0  0  0  0  0  0  0  0  0  0  0  0
  139.0390   75.8650  221.5690 S   0  0  0  0  0  0  0  0  0  0  0  0
  139.9620   75.6290  222.7220 O   0  0  0  0  0  0  0  0  0  0  0  0
  138.9070   77.6310  221.2530 C   0  0  0  0  0  0  0  0  0  0  0  0
  140.1460   78.3170  221.7750 C   0  0  0  0  0  0  0  0  0  0  0  0
  140.4130   78.3190  223.1300 C   0  0  0  0  0  0  0  0  0  0  0  0
  141.5500   78.9510  223.5890 C   0  0  0  0  0  0  0  0  0  0  0  0
  142.4340   79.5850  222.7180 C   0  0  0  0  0  0  0  0  0  0  0  0
  142.1710   79.5840  221.3680 C   0  0  0  0  0  0  0  0  0  0  0  0
  141.0280   78.9480  220.9200 C   0  0  0  0  0  0  0  0  0  0  0  0
  139.5110   75.1180  220.1020 N   0  0  0  0  0  0  0  0  0  0  0  0
  138.5010   74.0360  219.9080 C   0  0  0  0  0  0  0  0  0  0  0  0
  138.8720   73.1960  221.1070 C   0  0  0  0  0  0  0  0  0  0  0  0
  138.1470   72.3860  221.9650 C   0  0  0  0  0  0  0  0  0  0  0  0
  138.7470   71.7210  223.0330 C   0  0  0  0  0  0  0  0  0  0  0  0
  140.1060   71.9030  223.2090 C   0  0  0  0  0  0  0  0  0  0  0  0
  140.8150   72.7200  222.3380 C   0  0  0  0  0  0  0  0  0  0  0  0
  140.2610   73.3770  221.2890 C   0  0  0  0  0  0  0  0  0  0  0  0
  140.6510   74.2560  220.1710 C   0  0  2  0  0  0  0  0  0  0  0  0
  141.9660   74.8430  220.1830 C   0  0  0  0  0  0  0  0  0  0  0  0
  142.4450   76.1230  219.9970 C   0  0  0  0  0  0  0  0  0  0  0  0
  143.7850   76.1600  220.0800 N   0  0  0  0  0  0  0  0  0  0  0  0
  144.2240   74.9160  220.3180 C   0  0  0  0  0  0  0  0  0  0  0  0
  145.4940   74.4400  220.4770 C   0  0  0  0  0  0  0  0  0  0  0  0
  145.7140   73.1130  220.7110 C   0  0  0  0  0  0  0  0  0  0  0  0
  144.6480   72.2410  220.7890 C   0  0  0  0  0  0  0  0  0  0  0  0
  143.3750   72.7470  220.6240 C   0  0  0  0  0  0  0  0  0  0  0  0
  143.1330   74.0830  220.3870 C   0  0  0  0  0  0  0  0  0  0  0  0
  138.8164   77.8064  220.1709 H   0  0  0  0  0  0  0  0  0  0  0  0
  138.0175   78.0339  221.7595 H   0  0  0  0  0  0  0  0  0  0  0  0
  139.7282   77.8233  223.8338 H   0  0  0  0  0  0  0  0  0  0  0  0
  141.7639   78.9546  224.6680 H   0  0  0  0  0  0  0  0  0  0  0  0
  143.3348   80.0822  223.1070 H   0  0  0  0  0  0  0  0  0  0  0  0
  142.8541   80.0777  220.6612 H   0  0  0  0  0  0  0  0  0  0  0  0
  140.8130   78.9445  219.8412 H   0  0  0  0  0  0  0  0  0  0  0  0
  137.4690   74.4125  219.9647 H   0  0  0  0  0  0  0  0  0  0  0  0
  138.5169   73.5257  218.9337 H   0  0  0  0  0  0  0  0  0  0  0  0
  137.0665   72.2639  221.7989 H   0  0  0  0  0  0  0  0  0  0  0  0
  138.1632   71.0779  223.7080 H   0  0  0  0  0  0  0  0  0  0  0  0
  140.6256   71.4010  224.0385 H   0  0  0  0  0  0  0  0  0  0  0  0
  141.8946   72.8419  222.5100 H   0  0  0  0  0  0  0  0  0  0  0  0
  140.8444   73.7153  219.2328 H   0  0  0  0  0  0  0  0  0  0  0  0
  141.8108   77.0011  219.8052 H   0  0  0  0  0  0  0  0  0  0  0  0
  144.4010   77.0000  219.9780 H   0  0  0  0  0  0  0  0  0  0  0  0
  146.3472   75.1317  220.4160 H   0  0  0  0  0  0  0  0  0  0  0  0
  146.7409   72.7394  220.8373 H   0  0  0  0  0  0  0  0  0  0  0  0
  144.8087   71.1693  220.9780 H   0  0  0  0  0  0  0  0  0  0  0  0
  142.5201   72.0574  220.6839 H   0  0  0  0  0  0  0  0  0  0  0  0
  1  2  2  0
  2  3  2  0
  2  4  1  0
  4  5  1  0
  5  6  2  0
  6  7  1  0
  7  8  2  0
  8  9  1  0
  9 10  2  0
  2 11  1  0
 11 12  1  0
 12 13  1  0
 13 14  2  0
 14 15  1  0
 15 16  2  0
 16 17  1  0
 17 18  2  0
 18 19  1  0
 19 20  1  0
 20 21  2  0
 21 22  1  0
 22 23  1  0
 23 24  2  0
 24 25  1  0
 25 26  2  0
 26 27  1  0
 27 28  2  0
 10  5  1  0
 19 11  1  0
 28 20  1  0
 18 13  1  0
 28 23  1  0
  4 29  1  0
  4 30  1  0
  6 31  1  0
  7 32  1  0
  8 33  1  0
  9 34  1  0
 10 35  1  0
 12 36  1  0
 12 37  1  0
 14 38  1  0
 15 39  1  0
 16 40  1  0
 17 41  1  0
 19 42  1  6
 21 43  1  0
 22 44  1  0
 24 45  1  0
 25 46  1  0
 26 47  1  0
 27 48  1  0
M  END
>  <smiles>  (48) 
O=S(=O)(Cc1ccccc1)N1Cc2ccccc2C1c1c[nH]c2ccccc12

>  <score_type>  (48) 
oracle

>  <origin>  (48) 
autodockgpu

>  <m_score__min__energy>  (48) 
-7.54

>  <m_primary>  (48) 
energy

>  <rmsd>  (48) 
7.774150386822485

>  <m_score__min__rmsd>  (48) 
7.774150386822485

>  <meeko>  (48) 
{"free_energy": -7.41, "intermolecular_energy": -8.6, "internal_energy": -1.71, "cluster_size": 25, "cluster_id": 1, "rank_in_cluster": 18}

>  <energy>  (48) 
-6.25

>  <cluster_rmsd>  (48) 
0.07

>  <cluster>  (48) 
5

$$$$

     RDKit          3D

 48 52  0  0  1  0  0  0  0  0999 V2000
  140.5870   75.4700  218.7990 O   0  0  0  0  0  0  0  0  0  0  0  0
  140.5110   76.7140  219.6440 S   0  0  0  0  0  0  0  0  0  0  0  0
  139.0530   76.9900  219.8300 O   0  0  0  0  0  0  0  0  0  0  0  0
  141.2540   78.0280  218.6650 C   0  0  0  0  0  0  0  0  0  0  0  0
  140.9940   79.3520  219.3410 C   0  0  0  0  0  0  0  0  0  0  0  0
  142.0540   80.1610  219.7020 C   0  0  0  0  0  0  0  0  0  0  0  0
  141.7970   81.3680  220.3190 C   0  0  0  0  0  0  0  0  0  0  0  0
  140.4960   81.7880  220.5860 C   0  0  0  0  0  0  0  0  0  0  0  0
  139.4380   80.9850  220.2280 C   0  0  0  0  0  0  0  0  0  0  0  0
  139.7080   79.7780  219.6110 C   0  0  0  0  0  0  0  0  0  0  0  0
  141.4120   76.5880  221.0960 N   0  0  0  0  0  0  0  0  0  0  0  0
  141.7150   75.1300  221.2040 C   0  0  0  0  0  0  0  0  0  0  0  0
  140.2970   74.6420  221.3830 C   0  0  0  0  0  0  0  0  0  0  0  0
  139.6320   73.4870  221.0090 C   0  0  0  0  0  0  0  0  0  0  0  0
  138.2810   73.2910  221.2880 C   0  0  0  0  0  0  0  0  0  0  0  0
  137.6200   74.3040  221.9580 C   0  0  0  0  0  0  0  0  0  0  0  0
  138.3040   75.4550  222.3240 C   0  0  0  0  0  0  0  0  0  0  0  0
  139.6180   75.6730  222.0690 C   0  0  0  0  0  0  0  0  0  0  0  0
  140.6660   76.6830  222.3120 C   0  0  2  0  0  0  0  0  0  0  0  0
  140.2710   77.9840  222.7850 C   0  0  0  0  0  0  0  0  0  0  0  0
  139.0530   78.5870  223.0230 C   0  0  0  0  0  0  0  0  0  0  0  0
  139.2090   79.8530  223.4420 N   0  0  0  0  0  0  0  0  0  0  0  0
  140.5220   80.1200  223.4890 C   0  0  0  0  0  0  0  0  0  0  0  0
  141.1810   81.2610  223.8460 C   0  0  0  0  0  0  0  0  0  0  0  0
  142.5460   81.3130  223.8160 C   0  0  0  0  0  0  0  0  0  0  0  0
  143.2690   80.2060  223.4240 C   0  0  0  0  0  0  0  0  0  0  0  0
  142.5780   79.0650  223.0690 C   0  0  0  0  0  0  0  0  0  0  0  0
  141.2020   78.9940  223.0920 C   0  0  0  0  0  0  0  0  0  0  0  0
  142.3384   77.8609  218.5861 H   0  0  0  0  0  0  0  0  0  0  0  0
  140.8150   78.0334  217.6564 H   0  0  0  0  0  0  0  0  0  0  0  0
  143.0888   79.8472  219.5003 H   0  0  0  0  0  0  0  0  0  0  0  0
  142.6395   82.0140  220.6069 H   0  0  0  0  0  0  0  0  0  0  0  0
  140.3160   82.7545  221.0794 H   0  0  0  0  0  0  0  0  0  0  0  0
  138.4020   81.2960  220.4280 H   0  0  0  0  0  0  0  0  0  0  0  0
  138.8658   79.1313  219.3237 H   0  0  0  0  0  0  0  0  0  0  0  0
  142.1822   74.7314  220.2914 H   0  0  0  0  0  0  0  0  0  0  0  0
  142.4313   74.8393  221.9866 H   0  0  0  0  0  0  0  0  0  0  0  0
  140.1865   72.7007  220.4758 H   0  0  0  0  0  0  0  0  0  0  0  0
  137.7619   72.3688  220.9878 H   0  0  0  0  0  0  0  0  0  0  0  0
  136.5524   74.1977  222.2009 H   0  0  0  0  0  0  0  0  0  0  0  0
  137.7449   76.2399  222.8544 H   0  0  0  0  0  0  0  0  0  0  0  0
  141.2706   76.4833  223.2090 H   0  0  0  0  0  0  0  0  0  0  0  0
  138.0792   78.0938  222.8869 H   0  0  0  0  0  0  0  0  0  0  0  0
  138.4530   80.5340  223.6920 H   0  0  0  0  0  0  0  0  0  0  0  0
  140.6083   82.1459  224.1604 H   0  0  0  0  0  0  0  0  0  0  0  0
  143.0680   82.2373  224.1044 H   0  0  0  0  0  0  0  0  0  0  0  0
  144.3683   80.2316  223.3950 H   0  0  0  0  0  0  0  0  0  0  0  0
  143.1479   78.1779  222.7556 H   0  0  0  0  0  0  0  0  0  0  0  0
  1  2  2  0
  2  3  2  0
  2  4  1  0
  4  5  1  0
  5  6  2  0
  6  7  1  0
  7  8  2  0
  8  9  1  0
  9 10  2  0
  2 11  1  0
 11 12  1  0
 12 13  1  0
 13 14  2  0
 14 15  1  0
 15 16  2  0
 16 17  1  0
 17 18  2  0
 18 19  1  0
 19 20  1  0
 20 21  2  0
 21 22  1  0
 22 23  1  0
 23 24  2  0
 24 25  1  0
 25 26  2  0
 26 27  1  0
 27 28  2  0
 10  5  1  0
 19 11  1  0
 28 20  1  0
 18 13  1  0
 28 23  1  0
  4 29  1  0
  4 30  1  0
  6 31  1  0
  7 32  1  0
  8 33  1  0
  9 34  1  0
 10 35  1  0
 12 36  1  0
 12 37  1  0
 14 38  1  0
 15 39  1  0
 16 40  1  0
 17 41  1  0
 19 42  1  1
 21 43  1  0
 22 44  1  0
 24 45  1  0
 25 46  1  0
 26 47  1  0
 27 48  1  0
M  END
>  <smiles>  (49) 
O=S(=O)(Cc1ccccc1)N1Cc2ccccc2C1c1c[nH]c2ccccc12

>  <score_type>  (49) 
oracle

>  <origin>  (49) 
autodockgpu

>  <m_score__min__energy>  (49) 
-7.54

>  <m_primary>  (49) 
energy

>  <rmsd>  (49) 
4.563824305789862

>  <m_score__min__rmsd>  (49) 
4.563824305789862

>  <meeko>  (49) 
{"free_energy": -6.28, "intermolecular_energy": -7.47, "internal_energy": -2.62, "cluster_size": 17, "cluster_id": 5, "rank_in_cluster": 1}

>  <energy>  (49) 
-6.25

>  <cluster_rmsd>  (49) 
0.09

>  <cluster>  (49) 
5

$$$$

     RDKit          3D

 48 52  0  0  1  0  0  0  0  0999 V2000
  135.3890   70.3640  222.5040 O   0  0  0  0  0  0  0  0  0  0  0  0
  136.2210   69.9840  223.7000 S   0  0  0  0  0  0  0  0  0  0  0  0
  136.2720   68.4890  223.7000 O   0  0  0  0  0  0  0  0  0  0  0  0
  135.3100   70.5560  225.1420 C   0  0  0  0  0  0  0  0  0  0  0  0
  135.0200   72.0290  224.9860 C   0  0  0  0  0  0  0  0  0  0  0  0
  134.0630   72.6300  225.7800 C   0  0  0  0  0  0  0  0  0  0  0  0
  133.8110   73.9780  225.6250 C   0  0  0  0  0  0  0  0  0  0  0  0
  134.4990   74.7440  224.6870 C   0  0  0  0  0  0  0  0  0  0  0  0
  135.4530   74.1480  223.8940 C   0  0  0  0  0  0  0  0  0  0  0  0
  135.6960   72.7980  224.0590 C   0  0  0  0  0  0  0  0  0  0  0  0
  137.7490   70.7580  223.7200 N   0  0  0  0  0  0  0  0  0  0  0  0
  137.9660   71.1600  222.2990 C   0  0  0  0  0  0  0  0  0  0  0  0
  138.0510   69.7730  221.7080 C   0  0  0  0  0  0  0  0  0  0  0  0
  137.6880   69.2340  220.4850 C   0  0  0  0  0  0  0  0  0  0  0  0
  137.8620   67.8820  220.1950 C   0  0  0  0  0  0  0  0  0  0  0  0
  138.4130   67.0880  221.1840 C   0  0  0  0  0  0  0  0  0  0  0  0
  138.7700   67.6470  222.4030 C   0  0  0  0  0  0  0  0  0  0  0  0
  138.6160   68.9580  222.7140 C   0  0  0  0  0  0  0  0  0  0  0  0
  138.8890   69.9010  223.8160 C   0  0  2  0  0  0  0  0  0  0  0  0
  139.2510   69.3660  225.1030 C   0  0  0  0  0  0  0  0  0  0  0  0
  139.0740   68.1430  225.7170 C   0  0  0  0  0  0  0  0  0  0  0  0
  139.5770   68.1440  226.9610 N   0  0  0  0  0  0  0  0  0  0  0  0
  140.0930   69.3570  227.2040 C   0  0  0  0  0  0  0  0  0  0  0  0
  140.7090   69.8510  228.3180 C   0  0  0  0  0  0  0  0  0  0  0  0
  141.1620   71.1390  228.3470 C   0  0  0  0  0  0  0  0  0  0  0  0
  141.0000   71.9520  227.2450 C   0  0  0  0  0  0  0  0  0  0  0  0
  140.3750   71.4280  226.1320 C   0  0  0  0  0  0  0  0  0  0  0  0
  139.9100   70.1320  226.0830 C   0  0  0  0  0  0  0  0  0  0  0  0
  134.3642   70.0005  225.2252 H   0  0  0  0  0  0  0  0  0  0  0  0
  135.9075   70.3885  226.0502 H   0  0  0  0  0  0  0  0  0  0  0  0
  133.5088   72.0418  226.5263 H   0  0  0  0  0  0  0  0  0  0  0  0
  133.0494   74.4585  226.2567 H   0  0  0  0  0  0  0  0  0  0  0  0
  134.2815   75.8171  224.5808 H   0  0  0  0  0  0  0  0  0  0  0  0
  136.0090   74.7328  223.1464 H   0  0  0  0  0  0  0  0  0  0  0  0
  136.4575   72.3169  223.4276 H   0  0  0  0  0  0  0  0  0  0  0  0
  137.1210   71.7360  221.8938 H   0  0  0  0  0  0  0  0  0  0  0  0
  138.8222   71.8234  222.1070 H   0  0  0  0  0  0  0  0  0  0  0  0
  137.2496   69.8921  219.7203 H   0  0  0  0  0  0  0  0  0  0  0  0
  137.5729   67.4637  219.2196 H   0  0  0  0  0  0  0  0  0  0  0  0
  138.5682   66.0139  221.0046 H   0  0  0  0  0  0  0  0  0  0  0  0
  139.2056   66.9846  223.1655 H   0  0  0  0  0  0  0  0  0  0  0  0
  139.8436   70.4375  223.7117 H   0  0  0  0  0  0  0  0  0  0  0  0
  138.5834   67.2780  225.2469 H   0  0  0  0  0  0  0  0  0  0  0  0
  139.5760   67.3500  227.6440 H   0  0  0  0  0  0  0  0  0  0  0  0
  140.8414   69.2062  229.1993 H   0  0  0  0  0  0  0  0  0  0  0  0
  141.6562   71.5280  229.2495 H   0  0  0  0  0  0  0  0  0  0  0  0
  141.3598   72.9915  227.2530 H   0  0  0  0  0  0  0  0  0  0  0  0
  140.2428   72.0704  225.2489 H   0  0  0  0  0  0  0  0  0  0  0  0
  1  2  2  0
  2  3  2  0
  2  4  1  0
  4  5  1  0
  5  6  2  0
  6  7  1  0
  7  8  2  0
  8  9  1  0
  9 10  2  0
  2 11  1  0
 11 12  1  0
 12 13  1  0
 13 14  2  0
 14 15  1  0
 15 16  2  0
 16 17  1  0
 17 18  2  0
 18 19  1  0
 19 20  1  0
 20 21  2  0
 21 22  1  0
 22 23  1  0
 23 24  2  0
 24 25  1  0
 25 26  2  0
 26 27  1  0
 27 28  2  0
 10  5  1  0
 19 11  1  0
 28 20  1  0
 18 13  1  0
 28 23  1  0
  4 29  1  0
  4 30  1  0
  6 31  1  0
  7 32  1  0
  8 33  1  0
  9 34  1  0
 10 35  1  0
 12 36  1  0
 12 37  1  0
 14 38  1  0
 15 39  1  0
 16 40  1  0
 17 41  1  0
 19 42  1  6
 21 43  1  0
 22 44  1  0
 24 45  1  0
 25 46  1  0
 26 47  1  0
 27 48  1  0
M  END
>  <smiles>  (50) 
O=S(=O)(Cc1ccccc1)N1Cc2ccccc2C1c1c[nH]c2ccccc12

>  <score_type>  (50) 
oracle

>  <origin>  (50) 
autodockgpu

>  <m_score__min__energy>  (50) 
-7.54

>  <m_primary>  (50) 
energy

>  <rmsd>  (50) 
10.908981143788647

>  <m_score__min__rmsd>  (50) 
10.908981143788647

>  <meeko>  (50) 
{"free_energy": -7.37, "intermolecular_energy": -8.57, "internal_energy": -1.38, "cluster_size": 2, "cluster_id": 2, "rank_in_cluster": 1}

>  <energy>  (50) 
-6.23

>  <cluster_rmsd>  (50) 
0.22

>  <cluster>  (50) 
5

$$$$

     RDKit          3D

 48 52  0  0  1  0  0  0  0  0999 V2000
  137.7330   78.2160  221.1100 O   0  0  0  0  0  0  0  0  0  0  0  0
  138.3650   79.4670  221.6260 S   0  0  0  0  0  0  0  0  0  0  0  0
  137.4040   80.6110  221.3380 O   0  0  0  0  0  0  0  0  0  0  0  0
  138.5210   79.3000  223.3850 C   0  0  0  0  0  0  0  0  0  0  0  0
  137.5930   80.2230  224.0960 C   0  0  0  0  0  0  0  0  0  0  0  0
  138.0750   81.2420  224.9240 C   0  0  0  0  0  0  0  0  0  0  0  0
  137.1470   82.0370  225.5330 C   0  0  0  0  0  0  0  0  0  0  0  0
  135.7830   81.9020  225.3860 C   0  0  0  0  0  0  0  0  0  0  0  0
  135.3080   80.8910  224.5660 C   0  0  0  0  0  0  0  0  0  0  0  0
  136.2230   80.0870  223.9500 C   0  0  0  0  0  0  0  0  0  0  0  0
  139.8150   79.7780  220.8390 N   0  0  0  0  0  0  0  0  0  0  0  0
  140.3070   81.1140  220.9410 C   0  0  0  0  0  0  0  0  0  0  0  0
  141.2120   81.0410  222.1160 C   0  0  0  0  0  0  0  0  0  0  0  0
  141.6920   81.9870  223.0270 C   0  0  0  0  0  0  0  0  0  0  0  0
  142.5580   81.6050  224.0530 C   0  0  0  0  0  0  0  0  0  0  0  0
  142.9530   80.2710  224.1770 C   0  0  0  0  0  0  0  0  0  0  0  0
  142.4720   79.3350  223.2690 C   0  0  0  0  0  0  0  0  0  0  0  0
  141.6070   79.7270  222.2460 C   0  0  0  0  0  0  0  0  0  0  0  0
  140.9320   78.9660  221.1340 C   0  0  1  0  0  0  0  0  0  0  0  0
  140.7030   77.5730  221.4830 C   0  0  0  0  0  0  0  0  0  0  0  0
  139.8320   76.9590  222.3560 C   0  0  0  0  0  0  0  0  0  0  0  0
  140.0050   75.6250  222.3450 N   0  0  0  0  0  0  0  0  0  0  0  0
  140.9800   75.3260  221.4770 C   0  0  0  0  0  0  0  0  0  0  0  0
  141.4970   74.0940  221.1370 C   0  0  0  0  0  0  0  0  0  0  0  0
  142.5100   74.0350  220.2090 C   0  0  0  0  0  0  0  0  0  0  0  0
  142.9760   75.2120  219.6490 C   0  0  0  0  0  0  0  0  0  0  0  0
  142.4490   76.4360  219.9980 C   0  0  0  0  0  0  0  0  0  0  0  0
  141.4310   76.5110  220.9290 C   0  0  0  0  0  0  0  0  0  0  0  0
  138.2853   78.2640  223.6698 H   0  0  0  0  0  0  0  0  0  0  0  0
  139.5526   79.5542  223.6698 H   0  0  0  0  0  0  0  0  0  0  0  0
  139.1533   81.3960  225.0776 H   0  0  0  0  0  0  0  0  0  0  0  0
  137.5136   82.8419  226.1870 H   0  0  0  0  0  0  0  0  0  0  0  0
  135.0896   82.5793  225.9062 H   0  0  0  0  0  0  0  0  0  0  0  0
  134.2286   80.7412  224.4163 H   0  0  0  0  0  0  0  0  0  0  0  0
  135.8496   79.2830  223.2987 H   0  0  0  0  0  0  0  0  0  0  0  0
  140.8576   81.4041  220.0339 H   0  0  0  0  0  0  0  0  0  0  0  0
  139.5106   81.8648  221.0500 H   0  0  0  0  0  0  0  0  0  0  0  0
  141.3851   83.0393  222.9345 H   0  0  0  0  0  0  0  0  0  0  0  0
  142.9301   82.3561  224.7653 H   0  0  0  0  0  0  0  0  0  0  0  0
  143.6361   79.9651  224.9831 H   0  0  0  0  0  0  0  0  0  0  0  0
  142.7742   78.2810  223.3569 H   0  0  0  0  0  0  0  0  0  0  0  0
  141.5269   78.8210  220.2202 H   0  0  0  0  0  0  0  0  0  0  0  0
  139.0948   77.4880  222.9779 H   0  0  0  0  0  0  0  0  0  0  0  0
  139.4600   74.9320  222.9240 H   0  0  0  0  0  0  0  0  0  0  0  0
  141.1065   73.1755  221.5994 H   0  0  0  0  0  0  0  0  0  0  0  0
  142.9434   73.0673  219.9161 H   0  0  0  0  0  0  0  0  0  0  0  0
  143.7870   75.1689  218.9071 H   0  0  0  0  0  0  0  0  0  0  0  0
  142.8391   77.3544  219.5350 H   0  0  0  0  0  0  0  0  0  0  0  0
  1  2  2  0
  2  3  2  0
  2  4  1  0
  4  5  1  0
  5  6  2  0
  6  7  1  0
  7  8  2  0
  8  9  1  0
  9 10  2  0
  2 11  1  0
 11 12  1  0
 12 13  1  0
 13 14  2  0
 14 15  1  0
 15 16  2  0
 16 17  1  0
 17 18  2  0
 18 19  1  0
 19 20  1  0
 20 21  2  0
 21 22  1  0
 22 23  1  0
 23 24  2  0
 24 25  1  0
 25 26  2  0
 26 27  1  0
 27 28  2  0
 10  5  1  0
 19 11  1  0
 28 20  1  0
 18 13  1  0
 28 23  1  0
  4 29  1  0
  4 30  1  0
  6 31  1  0
  7 32  1  0
  8 33  1  0
  9 34  1  0
 10 35  1  0
 12 36  1  0
 12 37  1  0
 14 38  1  0
 15 39  1  0
 16 40  1  0
 17 41  1  0
 19 42  1  6
 21 43  1  0
 22 44  1  0
 24 45  1  0
 25 46  1  0
 26 47  1  0
 27 48  1  0
M  END
>  <smiles>  (51) 
O=S(=O)(Cc1ccccc1)N1Cc2ccccc2C1c1c[nH]c2ccccc12

>  <score_type>  (51) 
oracle

>  <origin>  (51) 
autodockgpu

>  <m_score__min__energy>  (51) 
-7.54

>  <m_primary>  (51) 
energy

>  <rmsd>  (51) 
6.777855624209006

>  <m_score__min__rmsd>  (51) 
6.777855624209006

>  <meeko>  (51) 
{"free_energy": -7.26, "intermolecular_energy": -8.45, "internal_energy": -1.4, "cluster_size": 11, "cluster_id": 1, "rank_in_cluster": 4}

>  <energy>  (51) 
-7.54

>  <cluster_rmsd>  (51) 
0.0

>  <cluster>  (51) 
1

$$$$

     RDKit          3D

 48 52  0  0  1  0  0  0  0  0999 V2000
  139.2000   67.7740  225.3340 O   0  0  0  0  0  0  0  0  0  0  0  0
  139.1400   68.9600  224.4290 S   0  0  0  0  0  0  0  0  0  0  0  0
  137.9170   69.7740  224.8290 O   0  0  0  0  0  0  0  0  0  0  0  0
  140.5860   69.9410  224.7360 C   0  0  0  0  0  0  0  0  0  0  0  0
  140.5250   70.5810  226.0800 C   0  0  0  0  0  0  0  0  0  0  0  0
  139.8730   69.9620  227.1500 C   0  0  0  0  0  0  0  0  0  0  0  0
  139.8700   70.6270  228.3430 C   0  0  0  0  0  0  0  0  0  0  0  0
  140.4620   71.8540  228.5560 C   0  0  0  0  0  0  0  0  0  0  0  0
  141.1060   72.4660  227.4930 C   0  0  0  0  0  0  0  0  0  0  0  0
  141.1180   71.8140  226.2940 C   0  0  0  0  0  0  0  0  0  0  0  0
  138.9650   68.4880  222.8270 N   0  0  0  0  0  0  0  0  0  0  0  0
  138.0640   67.4060  222.5890 C   0  0  0  0  0  0  0  0  0  0  0  0
  136.7860   68.1030  222.2950 C   0  0  0  0  0  0  0  0  0  0  0  0
  135.4410   67.7330  222.3800 C   0  0  0  0  0  0  0  0  0  0  0  0
  134.4350   68.6310  222.0200 C   0  0  0  0  0  0  0  0  0  0  0  0
  134.7670   69.9100  221.5690 C   0  0  0  0  0  0  0  0  0  0  0  0
  136.1060   70.2730  221.4860 C   0  0  0  0  0  0  0  0  0  0  0  0
  137.1040   69.3670  221.8490 C   0  0  0  0  0  0  0  0  0  0  0  0
  138.6080   69.4620  221.8700 C   0  0  1  0  0  0  0  0  0  0  0  0
  139.0690   70.8280  222.0660 C   0  0  0  0  0  0  0  0  0  0  0  0
  138.5660   71.8890  222.7850 C   0  0  0  0  0  0  0  0  0  0  0  0
  139.3500   72.9740  222.6470 N   0  0  0  0  0  0  0  0  0  0  0  0
  140.3770   72.6630  221.8460 C   0  0  0  0  0  0  0  0  0  0  0  0
  141.4260   73.4520  221.4250 C   0  0  0  0  0  0  0  0  0  0  0  0
  142.3730   72.9040  220.5930 C   0  0  0  0  0  0  0  0  0  0  0  0
  142.2430   71.5820  220.2060 C   0  0  0  0  0  0  0  0  0  0  0  0
  141.1900   70.8050  220.6340 C   0  0  0  0  0  0  0  0  0  0  0  0
  140.2290   71.3410  221.4710 C   0  0  0  0  0  0  0  0  0  0  0  0
  141.4753   69.2955  224.6855 H   0  0  0  0  0  0  0  0  0  0  0  0
  140.6390   70.7328  223.9742 H   0  0  0  0  0  0  0  0  0  0  0  0
  139.3842   68.9831  227.0365 H   0  0  0  0  0  0  0  0  0  0  0  0
  139.3598   70.1506  229.1931 H   0  0  0  0  0  0  0  0  0  0  0  0
  140.4239   72.3346  229.5447 H   0  0  0  0  0  0  0  0  0  0  0  0
  141.5919   73.4457  227.6115 H   0  0  0  0  0  0  0  0  0  0  0  0
  141.6289   72.2964  225.4477 H   0  0  0  0  0  0  0  0  0  0  0  0
  138.3909   66.7990  221.7319 H   0  0  0  0  0  0  0  0  0  0  0  0
  137.9937   66.7034  223.4324 H   0  0  0  0  0  0  0  0  0  0  0  0
  135.1732   66.7263  222.7334 H   0  0  0  0  0  0  0  0  0  0  0  0
  133.3792   68.3307  222.0917 H   0  0  0  0  0  0  0  0  0  0  0  0
  133.9785   70.6216  221.2829 H   0  0  0  0  0  0  0  0  0  0  0  0
  136.3804   71.2780  221.1329 H   0  0  0  0  0  0  0  0  0  0  0  0
  139.1170   69.2412  220.9202 H   0  0  0  0  0  0  0  0  0  0  0  0
  137.6480   71.8545  223.3900 H   0  0  0  0  0  0  0  0  0  0  0  0
  139.1810   73.9130  223.0980 H   0  0  0  0  0  0  0  0  0  0  0  0
  141.5038   74.5004  221.7488 H   0  0  0  0  0  0  0  0  0  0  0  0
  143.2220   73.5078  220.2399 H   0  0  0  0  0  0  0  0  0  0  0  0
  142.9994   71.1410  219.5401 H   0  0  0  0  0  0  0  0  0  0  0  0
  141.1133   69.7567  220.3097 H   0  0  0  0  0  0  0  0  0  0  0  0
  1  2  2  0
  2  3  2  0
  2  4  1  0
  4  5  1  0
  5  6  2  0
  6  7  1  0
  7  8  2  0
  8  9  1  0
  9 10  2  0
  2 11  1  0
 11 12  1  0
 12 13  1  0
 13 14  2  0
 14 15  1  0
 15 16  2  0
 16 17  1  0
 17 18  2  0
 18 19  1  0
 19 20  1  0
 20 21  2  0
 21 22  1  0
 22 23  1  0
 23 24  2  0
 24 25  1  0
 25 26  2  0
 26 27  1  0
 27 28  2  0
 10  5  1  0
 19 11  1  0
 28 20  1  0
 18 13  1  0
 28 23  1  0
  4 29  1  0
  4 30  1  0
  6 31  1  0
  7 32  1  0
  8 33  1  0
  9 34  1  0
 10 35  1  0
 12 36  1  0
 12 37  1  0
 14 38  1  0
 15 39  1  0
 16 40  1  0
 17 41  1  0
 19 42  1  6
 21 43  1  0
 22 44  1  0
 24 45  1  0
 25 46  1  0
 26 47  1  0
 27 48  1  0
M  END
>  <smiles>  (52) 
O=S(=O)(Cc1ccccc1)N1Cc2ccccc2C1c1c[nH]c2ccccc12

>  <score_type>  (52) 
oracle

>  <origin>  (52) 
autodockgpu

>  <m_score__min__energy>  (52) 
-7.54

>  <m_primary>  (52) 
energy

>  <rmsd>  (52) 
10.573353659569008

>  <m_score__min__rmsd>  (52) 
10.573353659569008

>  <meeko>  (52) 
{"free_energy": -7.17, "intermolecular_energy": -8.36, "internal_energy": -1.85, "cluster_size": 13, "cluster_id": 3, "rank_in_cluster": 4}

>  <energy>  (52) 
-7.49

>  <cluster_rmsd>  (52) 
0.05

>  <cluster>  (52) 
1

$$$$

     RDKit          3D

 48 52  0  0  1  0  0  0  0  0999 V2000
  141.4510   76.5660  222.0860 O   0  0  0  0  0  0  0  0  0  0  0  0
  139.9860   76.5790  221.7960 S   0  0  0  0  0  0  0  0  0  0  0  0
  139.4130   75.2620  222.3010 O   0  0  0  0  0  0  0  0  0  0  0  0
  139.2660   77.8970  222.7380 C   0  0  0  0  0  0  0  0  0  0  0  0
  140.2470   78.9960  222.9610 C   0  0  0  0  0  0  0  0  0  0  0  0
  141.4530   78.7680  223.6310 C   0  0  0  0  0  0  0  0  0  0  0  0
  142.2880   79.8380  223.7870 C   0  0  0  0  0  0  0  0  0  0  0  0
  142.0210   81.1110  223.3310 C   0  0  0  0  0  0  0  0  0  0  0  0
  140.8250   81.3350  222.6680 C   0  0  0  0  0  0  0  0  0  0  0  0
  139.9800   80.2760  222.5050 C   0  0  0  0  0  0  0  0  0  0  0  0
  139.6990   76.6860  220.1450 N   0  0  0  0  0  0  0  0  0  0  0  0
  138.8830   77.7790  219.7220 C   0  0  0  0  0  0  0  0  0  0  0  0
  139.8830   78.8270  219.3950 C   0  0  0  0  0  0  0  0  0  0  0  0
  139.8350   80.2220  219.3280 C   0  0  0  0  0  0  0  0  0  0  0  0
  140.9710   80.9540  218.9790 C   0  0  0  0  0  0  0  0  0  0  0  0
  142.1690   80.2950  218.6910 C   0  0  0  0  0  0  0  0  0  0  0  0
  142.2100   78.9070  218.7600 C   0  0  0  0  0  0  0  0  0  0  0  0
  141.0690   78.1850  219.1100 C   0  0  0  0  0  0  0  0  0  0  0  0
  140.8050   76.7100  219.2660 C   0  0  1  0  0  0  0  0  0  0  0  0
  142.0020   75.9740  219.6400 C   0  0  0  0  0  0  0  0  0  0  0  0
  143.3340   76.3210  219.6900 C   0  0  0  0  0  0  0  0  0  0  0  0
  144.0850   75.2790  220.0910 N   0  0  0  0  0  0  0  0  0  0  0  0
  143.2810   74.2310  220.3140 C   0  0  0  0  0  0  0  0  0  0  0  0
  143.6020   72.9580  220.7350 C   0  0  0  0  0  0  0  0  0  0  0  0
  142.5920   72.0390  220.8950 C   0  0  0  0  0  0  0  0  0  0  0  0
  141.2890   72.4220  220.6280 C   0  0  0  0  0  0  0  0  0  0  0  0
  140.9820   73.6970  220.2080 C   0  0  0  0  0  0  0  0  0  0  0  0
  141.9860   74.6320  220.0430 C   0  0  0  0  0  0  0  0  0  0  0  0
  138.3979   78.2957  222.1926 H   0  0  0  0  0  0  0  0  0  0  0  0
  138.9589   77.4994  223.7166 H   0  0  0  0  0  0  0  0  0  0  0  0
  141.7175   77.7718  224.0152 H   0  0  0  0  0  0  0  0  0  0  0  0
  143.2396   79.6720  224.3132 H   0  0  0  0  0  0  0  0  0  0  0  0
  142.7394   81.9288  223.4894 H   0  0  0  0  0  0  0  0  0  0  0  0
  140.5654   82.3333  222.2858 H   0  0  0  0  0  0  0  0  0  0  0  0
  139.0293   80.4496  221.9796 H   0  0  0  0  0  0  0  0  0  0  0  0
  138.2871   77.5098  218.8374 H   0  0  0  0  0  0  0  0  0  0  0  0
  138.1513   78.0957  220.4798 H   0  0  0  0  0  0  0  0  0  0  0  0
  138.8948   80.7472  219.5520 H   0  0  0  0  0  0  0  0  0  0  0  0
  140.9231   82.0519  218.9306 H   0  0  0  0  0  0  0  0  0  0  0  0
  143.0671   80.8664  218.4136 H   0  0  0  0  0  0  0  0  0  0  0  0
  143.1470   78.3755  218.5374 H   0  0  0  0  0  0  0  0  0  0  0  0
  140.5486   76.1680  218.3438 H   0  0  0  0  0  0  0  0  0  0  0  0
  143.7302   77.3154  219.4364 H   0  0  0  0  0  0  0  0  0  0  0  0
  145.1330   75.2880  220.2100 H   0  0  0  0  0  0  0  0  0  0  0  0
  144.6472   72.6826  220.9392 H   0  0  0  0  0  0  0  0  0  0  0  0
  142.8159   71.0154  221.2299 H   0  0  0  0  0  0  0  0  0  0  0  0
  140.4782   71.6894  220.7545 H   0  0  0  0  0  0  0  0  0  0  0  0
  139.9366   73.9714  220.0036 H   0  0  0  0  0  0  0  0  0  0  0  0
  1  2  2  0
  2  3  2  0
  2  4  1  0
  4  5  1  0
  5  6  2  0
  6  7  1  0
  7  8  2  0
  8  9  1  0
  9 10  2  0
  2 11  1  0
 11 12  1  0
 12 13  1  0
 13 14  2  0
 14 15  1  0
 15 16  2  0
 16 17  1  0
 17 18  2  0
 18 19  1  0
 19 20  1  0
 20 21  2  0
 21 22  1  0
 22 23  1  0
 23 24  2  0
 24 25  1  0
 25 26  2  0
 26 27  1  0
 27 28  2  0
 10  5  1  0
 19 11  1  0
 28 20  1  0
 18 13  1  0
 28 23  1  0
  4 29  1  0
  4 30  1  0
  6 31  1  0
  7 32  1  0
  8 33  1  0
  9 34  1  0
 10 35  1  0
 12 36  1  0
 12 37  1  0
 14 38  1  0
 15 39  1  0
 16 40  1  0
 17 41  1  0
 19 42  1  6
 21 43  1  0
 22 44  1  0
 24 45  1  0
 25 46  1  0
 26 47  1  0
 27 48  1  0
M  END
>  <smiles>  (53) 
O=S(=O)(Cc1ccccc1)N1Cc2ccccc2C1c1c[nH]c2ccccc12

>  <score_type>  (53) 
oracle

>  <origin>  (53) 
autodockgpu

>  <m_score__min__energy>  (53) 
-7.54

>  <m_primary>  (53) 
energy

>  <rmsd>  (53) 
6.713035664789146

>  <m_score__min__rmsd>  (53) 
6.713035664789146

>  <meeko>  (53) 
{"free_energy": -6.87, "intermolecular_energy": -8.06, "internal_energy": -1.95, "cluster_size": 5, "cluster_id": 5, "rank_in_cluster": 3}

>  <energy>  (53) 
-7.48

>  <cluster_rmsd>  (53) 
0.06

>  <cluster>  (53) 
1

$$$$

     RDKit          3D

 48 52  0  0  1  0  0  0  0  0999 V2000
  139.1780   67.7500  225.0160 O   0  0  0  0  0  0  0  0  0  0  0  0
  138.9760   68.9510  224.1510 S   0  0  0  0  0  0  0  0  0  0  0  0
  137.7390   69.6750  224.6630 O   0  0  0  0  0  0  0  0  0  0  0  0
  140.3780   70.0150  224.3770 C   0  0  0  0  0  0  0  0  0  0  0  0
  140.4370   70.5350  225.7710 C   0  0  0  0  0  0  0  0  0  0  0  0
  139.9100   69.8060  226.8410 C   0  0  0  0  0  0  0  0  0  0  0  0
  140.0110   70.3650  228.0830 C   0  0  0  0  0  0  0  0  0  0  0  0
  140.5950   71.5870  228.3450 C   0  0  0  0  0  0  0  0  0  0  0  0
  141.1160   72.3080  227.2830 C   0  0  0  0  0  0  0  0  0  0  0  0
  141.0220   71.7620  226.0360 C   0  0  0  0  0  0  0  0  0  0  0  0
  138.7100   68.5050  222.5540 N   0  0  0  0  0  0  0  0  0  0  0  0
  137.8230   67.4040  222.3520 C   0  0  0  0  0  0  0  0  0  0  0  0
  136.5110   68.0730  222.1550 C   0  0  0  0  0  0  0  0  0  0  0  0
  135.1840   67.6650  222.3180 C   0  0  0  0  0  0  0  0  0  0  0  0
  134.1350   68.5440  222.0420 C   0  0  0  0  0  0  0  0  0  0  0  0
  134.4050   69.8400  221.5970 C   0  0  0  0  0  0  0  0  0  0  0  0
  135.7260   70.2390  221.4370 C   0  0  0  0  0  0  0  0  0  0  0  0
  136.7680   69.3530  221.7160 C   0  0  0  0  0  0  0  0  0  0  0  0
  138.2670   69.4880  221.6420 C   0  0  1  0  0  0  0  0  0  0  0  0
  138.7050   70.8610  221.8370 C   0  0  0  0  0  0  0  0  0  0  0  0
  138.1090   71.9590  222.4160 C   0  0  0  0  0  0  0  0  0  0  0  0
  138.9150   73.0340  222.3450 N   0  0  0  0  0  0  0  0  0  0  0  0
  140.0490   72.6800  221.7260 C   0  0  0  0  0  0  0  0  0  0  0  0
  141.1560   73.4450  221.4300 C   0  0  0  0  0  0  0  0  0  0  0  0
  142.2140   72.8550  220.7800 C   0  0  0  0  0  0  0  0  0  0  0  0
  142.1310   71.5150  220.4450 C   0  0  0  0  0  0  0  0  0  0  0  0
  141.0190   70.7620  220.7470 C   0  0  0  0  0  0  0  0  0  0  0  0
  139.9470   71.3410  221.4000 C   0  0  0  0  0  0  0  0  0  0  0  0
  141.2968   69.4483  224.1657 H   0  0  0  0  0  0  0  0  0  0  0  0
  140.2834   70.8684  223.6894 H   0  0  0  0  0  0  0  0  0  0  0  0
  139.4350   68.8255  226.6894 H   0  0  0  0  0  0  0  0  0  0  0  0
  139.5982   69.8020  228.9330 H   0  0  0  0  0  0  0  0  0  0  0  0
  140.6457   71.9791  229.3715 H   0  0  0  0  0  0  0  0  0  0  0  0
  141.5898   73.2883  227.4398 H   0  0  0  0  0  0  0  0  0  0  0  0
  141.4358   72.3307  225.1902 H   0  0  0  0  0  0  0  0  0  0  0  0
  138.1089   66.8222  221.4633 H   0  0  0  0  0  0  0  0  0  0  0  0
  137.8251   66.6837  223.1834 H   0  0  0  0  0  0  0  0  0  0  0  0
  134.9648   66.6448  222.6660 H   0  0  0  0  0  0  0  0  0  0  0  0
  133.0938   68.2152  222.1753 H   0  0  0  0  0  0  0  0  0  0  0  0
  133.5822   70.5359  221.3760 H   0  0  0  0  0  0  0  0  0  0  0  0
  135.9519   71.2577  221.0889 H   0  0  0  0  0  0  0  0  0  0  0  0
  138.7185   69.2997  220.6568 H   0  0  0  0  0  0  0  0  0  0  0  0
  137.1091   71.9575  222.8746 H   0  0  0  0  0  0  0  0  0  0  0  0
  138.6880   73.9950  222.7170 H   0  0  0  0  0  0  0  0  0  0  0  0
  141.1926   74.5085  221.7087 H   0  0  0  0  0  0  0  0  0  0  0  0
  143.1122   73.4388  220.5302 H   0  0  0  0  0  0  0  0  0  0  0  0
  142.9751   71.0394  219.9241 H   0  0  0  0  0  0  0  0  0  0  0  0
  140.9834   69.6985  220.4684 H   0  0  0  0  0  0  0  0  0  0  0  0
  1  2  2  0
  2  3  2  0
  2  4  1  0
  4  5  1  0
  5  6  2  0
  6  7  1  0
  7  8  2  0
  8  9  1  0
  9 10  2  0
  2 11  1  0
 11 12  1  0
 12 13  1  0
 13 14  2  0
 14 15  1  0
 15 16  2  0
 16 17  1  0
 17 18  2  0
 18 19  1  0
 19 20  1  0
 20 21  2  0
 21 22  1  0
 22 23  1  0
 23 24  2  0
 24 25  1  0
 25 26  2  0
 26 27  1  0
 27 28  2  0
 10  5  1  0
 19 11  1  0
 28 20  1  0
 18 13  1  0
 28 23  1  0
  4 29  1  0
  4 30  1  0
  6 31  1  0
  7 32  1  0
  8 33  1  0
  9 34  1  0
 10 35  1  0
 12 36  1  0
 12 37  1  0
 14 38  1  0
 15 39  1  0
 16 40  1  0
 17 41  1  0
 19 42  1  6
 21 43  1  0
 22 44  1  0
 24 45  1  0
 25 46  1  0
 26 47  1  0
 27 48  1  0
M  END
>  <smiles>  (54) 
O=S(=O)(Cc1ccccc1)N1Cc2ccccc2C1c1c[nH]c2ccccc12

>  <score_type>  (54) 
oracle

>  <origin>  (54) 
autodockgpu

>  <m_score__min__energy>  (54) 
-7.54

>  <m_primary>  (54) 
energy

>  <rmsd>  (54) 
10.663860149941849

>  <m_score__min__rmsd>  (54) 
10.663860149941849

>  <meeko>  (54) 
{"free_energy": -7.17, "intermolecular_energy": -8.36, "internal_energy": -1.84, "cluster_size": 13, "cluster_id": 3, "rank_in_cluster": 5}

>  <energy>  (54) 
-7.26

>  <cluster_rmsd>  (54) 
0.93

>  <cluster>  (54) 
1

$$$$

     RDKit          3D

 48 52  0  0  1  0  0  0  0  0999 V2000
  136.9880   69.6420  225.7080 O   0  0  0  0  0  0  0  0  0  0  0  0
  136.6620   69.3850  224.2730 S   0  0  0  0  0  0  0  0  0  0  0  0
  135.3870   68.5550  224.2410 O   0  0  0  0  0  0  0  0  0  0  0  0
  136.3250   70.9520  223.5130 C   0  0  0  0  0  0  0  0  0  0  0  0
  135.4770   71.8050  224.3930 C   0  0  0  0  0  0  0  0  0  0  0  0
  135.4850   73.1980  224.2790 C   0  0  0  0  0  0  0  0  0  0  0  0
  134.6750   73.8950  225.1290 C   0  0  0  0  0  0  0  0  0  0  0  0
  133.8600   73.3190  226.0800 C   0  0  0  0  0  0  0  0  0  0  0  0
  133.8540   71.9380  226.1920 C   0  0  0  0  0  0  0  0  0  0  0  0
  134.6590   71.2280  225.3490 C   0  0  0  0  0  0  0  0  0  0  0  0
  137.8850   68.5130  223.5240 N   0  0  0  0  0  0  0  0  0  0  0  0
  137.6440   68.1370  222.1680 C   0  0  0  0  0  0  0  0  0  0  0  0
  138.2660   69.2480  221.4030 C   0  0  0  0  0  0  0  0  0  0  0  0
  138.0730   69.7660  220.1200 C   0  0  0  0  0  0  0  0  0  0  0  0
  138.8360   70.8450  219.6700 C   0  0  0  0  0  0  0  0  0  0  0  0
  139.8020   71.4160  220.5020 C   0  0  0  0  0  0  0  0  0  0  0  0
  139.9890   70.8970  221.7770 C   0  0  0  0  0  0  0  0  0  0  0  0
  139.2210   69.8180  222.2170 C   0  0  0  0  0  0  0  0  0  0  0  0
  139.1910   69.0510  223.5140 C   0  0  1  0  0  0  0  0  0  0  0  0
  139.6120   69.8650  224.6430 C   0  0  0  0  0  0  0  0  0  0  0  0
  139.6940   71.2260  224.8350 C   0  0  0  0  0  0  0  0  0  0  0  0
  140.1640   71.5090  226.0640 N   0  0  0  0  0  0  0  0  0  0  0  0
  140.4020   70.3590  226.7070 C   0  0  0  0  0  0  0  0  0  0  0  0
  140.8860   70.1560  227.9820 C   0  0  0  0  0  0  0  0  0  0  0  0
  141.0500   68.8670  228.4300 C   0  0  0  0  0  0  0  0  0  0  0  0
  140.7230   67.8180  227.5900 C   0  0  0  0  0  0  0  0  0  0  0  0
  140.2400   68.0350  226.3190 C   0  0  0  0  0  0  0  0  0  0  0  0
  140.0700   69.3250  225.8530 C   0  0  0  0  0  0  0  0  0  0  0  0
  137.2763   71.4695  223.3200 H   0  0  0  0  0  0  0  0  0  0  0  0
  135.7832   70.7742  222.5723 H   0  0  0  0  0  0  0  0  0  0  0  0
  136.1158   73.7101  223.5375 H   0  0  0  0  0  0  0  0  0  0  0  0
  134.6726   74.9921  225.0494 H   0  0  0  0  0  0  0  0  0  0  0  0
  133.2301   73.9403  226.7336 H   0  0  0  0  0  0  0  0  0  0  0  0
  133.2216   71.4308  226.9355 H   0  0  0  0  0  0  0  0  0  0  0  0
  134.6576   70.1313  225.4344 H   0  0  0  0  0  0  0  0  0  0  0  0
  138.1242   67.1759  221.9320 H   0  0  0  0  0  0  0  0  0  0  0  0
  136.5777   67.9938  221.9387 H   0  0  0  0  0  0  0  0  0  0  0  0
  137.3144   69.3205  219.4596 H   0  0  0  0  0  0  0  0  0  0  0  0
  138.6762   71.2463  218.6584 H   0  0  0  0  0  0  0  0  0  0  0  0
  140.4068   72.2656  220.1521 H   0  0  0  0  0  0  0  0  0  0  0  0
  140.7455   71.3383  222.4425 H   0  0  0  0  0  0  0  0  0  0  0  0
  139.9218   68.2339  223.6056 H   0  0  0  0  0  0  0  0  0  0  0  0
  139.4133   71.9802  224.0851 H   0  0  0  0  0  0  0  0  0  0  0  0
  140.3180   72.4770  226.4530 H   0  0  0  0  0  0  0  0  0  0  0  0
  141.1363   71.0099  228.6287 H   0  0  0  0  0  0  0  0  0  0  0  0
  141.4356   68.6726  229.4417 H   0  0  0  0  0  0  0  0  0  0  0  0
  140.8519   66.7852  227.9460 H   0  0  0  0  0  0  0  0  0  0  0  0
  139.9891   67.1804  225.6735 H   0  0  0  0  0  0  0  0  0  0  0  0
  1  2  2  0
  2  3  2  0
  2  4  1  0
  4  5  1  0
  5  6  2  0
  6  7  1  0
  7  8  2  0
  8  9  1  0
  9 10  2  0
  2 11  1  0
 11 12  1  0
 12 13  1  0
 13 14  2  0
 14 15  1  0
 15 16  2  0
 16 17  1  0
 17 18  2  0
 18 19  1  0
 19 20  1  0
 20 21  2  0
 21 22  1  0
 22 23  1  0
 23 24  2  0
 24 25  1  0
 25 26  2  0
 26 27  1  0
 27 28  2  0
 10  5  1  0
 19 11  1  0
 28 20  1  0
 18 13  1  0
 28 23  1  0
  4 29  1  0
  4 30  1  0
  6 31  1  0
  7 32  1  0
  8 33  1  0
  9 34  1  0
 10 35  1  0
 12 36  1  0
 12 37  1  0
 14 38  1  0
 15 39  1  0
 16 40  1  0
 17 41  1  0
 19 42  1  6
 21 43  1  0
 22 44  1  0
 24 45  1  0
 25 46  1  0
 26 47  1  0
 27 48  1  0
M  END
>  <smiles>  (55) 
O=S(=O)(Cc1ccccc1)N1Cc2ccccc2C1c1c[nH]c2ccccc12

>  <score_type>  (55) 
oracle

>  <origin>  (55) 
autodockgpu

>  <m_score__min__energy>  (55) 
-7.54

>  <m_primary>  (55) 
energy

>  <rmsd>  (55) 
11.261852477165085

>  <m_score__min__rmsd>  (55) 
11.261852477165085

>  <meeko>  (55) 
{"free_energy": -6.99, "intermolecular_energy": -8.19, "internal_energy": -1.74, "cluster_size": 2, "cluster_id": 2, "rank_in_cluster": 2}

>  <energy>  (55) 
-6.9

>  <cluster_rmsd>  (55) 
1.34

>  <cluster>  (55) 
1

$$$$

     RDKit          3D

 48 52  0  0  1  0  0  0  0  0999 V2000
  140.7130   75.0250  219.4730 O   0  0  0  0  0  0  0  0  0  0  0  0
  141.2490   75.8880  220.5680 S   0  0  0  0  0  0  0  0  0  0  0  0
  141.3730   75.0170  221.8100 O   0  0  0  0  0  0  0  0  0  0  0  0
  142.8750   76.4110  220.0900 C   0  0  0  0  0  0  0  0  0  0  0  0
  143.6880   75.2610  219.6050 C   0  0  0  0  0  0  0  0  0  0  0  0
  143.6620   74.8670  218.2630 C   0  0  0  0  0  0  0  0  0  0  0  0
  144.4410   73.8010  217.9140 C   0  0  0  0  0  0  0  0  0  0  0  0
  145.2420   73.0980  218.7880 C   0  0  0  0  0  0  0  0  0  0  0  0
  145.2660   73.4900  220.1170 C   0  0  0  0  0  0  0  0  0  0  0  0
  144.4920   74.5530  220.4820 C   0  0  0  0  0  0  0  0  0  0  0  0
  140.1980   77.1530  220.9070 N   0  0  0  0  0  0  0  0  0  0  0  0
  139.9280   77.3880  222.2890 C   0  0  0  0  0  0  0  0  0  0  0  0
  140.9360   78.4180  222.6490 C   0  0  0  0  0  0  0  0  0  0  0  0
  141.5330   78.8080  223.8510 C   0  0  0  0  0  0  0  0  0  0  0  0
  142.4720   79.8410  223.8730 C   0  0  0  0  0  0  0  0  0  0  0  0
  142.8210   80.4960  222.6900 C   0  0  0  0  0  0  0  0  0  0  0  0
  142.2240   80.1030  221.4980 C   0  0  0  0  0  0  0  0  0  0  0  0
  141.2880   79.0690  221.4870 C   0  0  0  0  0  0  0  0  0  0  0  0
  140.4870   78.4310  220.3810 C   0  0  1  0  0  0  0  0  0  0  0  0
  141.1630   78.5150  219.0950 C   0  0  0  0  0  0  0  0  0  0  0  0
  142.2840   79.1930  218.6720 C   0  0  0  0  0  0  0  0  0  0  0  0
  142.5150   78.9670  217.3660 N   0  0  0  0  0  0  0  0  0  0  0  0
  141.5660   78.1440  216.8980 C   0  0  0  0  0  0  0  0  0  0  0  0
  141.3980   77.6400  215.6270 C   0  0  0  0  0  0  0  0  0  0  0  0
  140.3350   76.8040  215.3820 C   0  0  0  0  0  0  0  0  0  0  0  0
  139.4720   76.4950  216.4190 C   0  0  0  0  0  0  0  0  0  0  0  0
  139.6520   77.0050  217.6850 C   0  0  0  0  0  0  0  0  0  0  0  0
  140.7160   77.8480  217.9470 C   0  0  0  0  0  0  0  0  0  0  0  0
  142.7905   77.1559  219.2850 H   0  0  0  0  0  0  0  0  0  0  0  0
  143.3743   76.8456  220.9686 H   0  0  0  0  0  0  0  0  0  0  0  0
  143.0417   75.3924  217.5219 H   0  0  0  0  0  0  0  0  0  0  0  0
  144.4283   73.4810  216.8617 H   0  0  0  0  0  0  0  0  0  0  0  0
  145.8467   72.2477  218.4396 H   0  0  0  0  0  0  0  0  0  0  0  0
  145.8887   72.9615  220.8538 H   0  0  0  0  0  0  0  0  0  0  0  0
  144.5079   74.8662  221.5364 H   0  0  0  0  0  0  0  0  0  0  0  0
  138.9053   77.7661  222.4345 H   0  0  0  0  0  0  0  0  0  0  0  0
  139.9925   76.4800  222.9066 H   0  0  0  0  0  0  0  0  0  0  0  0
  141.2611   78.2973  224.7866 H   0  0  0  0  0  0  0  0  0  0  0  0
  142.9377   80.1395  224.8238 H   0  0  0  0  0  0  0  0  0  0  0  0
  143.5585   81.3120  222.7014 H   0  0  0  0  0  0  0  0  0  0  0  0
  142.4909   80.6098  220.5589 H   0  0  0  0  0  0  0  0  0  0  0  0
  139.5460   78.9354  220.1162 H   0  0  0  0  0  0  0  0  0  0  0  0
  142.9065   79.8328  219.3147 H   0  0  0  0  0  0  0  0  0  0  0  0
  143.3120   79.3700  216.8060 H   0  0  0  0  0  0  0  0  0  0  0  0
  142.1016   77.9018  214.8230 H   0  0  0  0  0  0  0  0  0  0  0  0
  140.1726   76.3869  214.3772 H   0  0  0  0  0  0  0  0  0  0  0  0
  138.6209   75.8251  216.2268 H   0  0  0  0  0  0  0  0  0  0  0  0
  138.9487   76.7416  218.4887 H   0  0  0  0  0  0  0  0  0  0  0  0
  1  2  2  0
  2  3  2  0
  2  4  1  0
  4  5  1  0
  5  6  2  0
  6  7  1  0
  7  8  2  0
  8  9  1  0
  9 10  2  0
  2 11  1  0
 11 12  1  0
 12 13  1  0
 13 14  2  0
 14 15  1  0
 15 16  2  0
 16 17  1  0
 17 18  2  0
 18 19  1  0
 19 20  1  0
 20 21  2  0
 21 22  1  0
 22 23  1  0
 23 24  2  0
 24 25  1  0
 25 26  2  0
 26 27  1  0
 27 28  2  0
 10  5  1  0
 19 11  1  0
 28 20  1  0
 18 13  1  0
 28 23  1  0
  4 29  1  0
  4 30  1  0
  6 31  1  0
  7 32  1  0
  8 33  1  0
  9 34  1  0
 10 35  1  0
 12 36  1  0
 12 37  1  0
 14 38  1  0
 15 39  1  0
 16 40  1  0
 17 41  1  0
 19 42  1  6
 21 43  1  0
 22 44  1  0
 24 45  1  0
 25 46  1  0
 26 47  1  0
 27 48  1  0
M  END
>  <smiles>  (56) 
O=S(=O)(Cc1ccccc1)N1Cc2ccccc2C1c1c[nH]c2ccccc12

>  <score_type>  (56) 
oracle

>  <origin>  (56) 
autodockgpu

>  <m_score__min__energy>  (56) 
-7.54

>  <m_primary>  (56) 
energy

>  <rmsd>  (56) 
5.928669453735085

>  <m_score__min__rmsd>  (56) 
5.928669453735085

>  <meeko>  (56) 
{"free_energy": -7.05, "intermolecular_energy": -8.25, "internal_energy": -1.78, "cluster_size": 19, "cluster_id": 4, "rank_in_cluster": 5}

>  <energy>  (56) 
-6.9

>  <cluster_rmsd>  (56) 
1.33

>  <cluster>  (56) 
1

$$$$

     RDKit          3D

 48 52  0  0  1  0  0  0  0  0999 V2000
  141.4510   76.6170  222.0690 O   0  0  0  0  0  0  0  0  0  0  0  0
  139.9850   76.5970  221.7850 S   0  0  0  0  0  0  0  0  0  0  0  0
  139.4430   75.2700  222.2980 O   0  0  0  0  0  0  0  0  0  0  0  0
  139.2410   77.9040  222.7260 C   0  0  0  0  0  0  0  0  0  0  0  0
  140.1880   79.0400  222.9090 C   0  0  0  0  0  0  0  0  0  0  0  0
  139.8810   80.3220  222.4460 C   0  0  0  0  0  0  0  0  0  0  0  0
  140.8110   81.2990  222.6610 C   0  0  0  0  0  0  0  0  0  0  0  0
  142.0180   81.1020  223.2970 C   0  0  0  0  0  0  0  0  0  0  0  0
  142.3210   79.8300  223.7550 C   0  0  0  0  0  0  0  0  0  0  0  0
  141.4010   78.8430  223.5480 C   0  0  0  0  0  0  0  0  0  0  0  0
  139.6890   76.6920  220.1350 N   0  0  0  0  0  0  0  0  0  0  0  0
  138.8760   77.7850  219.7080 C   0  0  0  0  0  0  0  0  0  0  0  0
  139.8790   78.8250  219.3660 C   0  0  0  0  0  0  0  0  0  0  0  0
  139.8370   80.2200  219.2880 C   0  0  0  0  0  0  0  0  0  0  0  0
  140.9750   80.9430  218.9250 C   0  0  0  0  0  0  0  0  0  0  0  0
  142.1670   80.2750  218.6360 C   0  0  0  0  0  0  0  0  0  0  0  0
  142.2030   78.8880  218.7160 C   0  0  0  0  0  0  0  0  0  0  0  0
  141.0600   78.1750  219.0800 C   0  0  0  0  0  0  0  0  0  0  0  0
  140.7890   76.7020  219.2500 C   0  0  1  0  0  0  0  0  0  0  0  0
  141.9850   75.9640  219.6230 C   0  0  0  0  0  0  0  0  0  0  0  0
  143.3180   76.3050  219.6660 C   0  0  0  0  0  0  0  0  0  0  0  0
  144.0670   75.2630  220.0690 N   0  0  0  0  0  0  0  0  0  0  0  0
  143.2590   74.2190  220.3010 C   0  0  0  0  0  0  0  0  0  0  0  0
  143.5770   72.9480  220.7280 C   0  0  0  0  0  0  0  0  0  0  0  0
  142.5640   72.0340  220.8970 C   0  0  0  0  0  0  0  0  0  0  0  0
  141.2620   72.4200  220.6330 C   0  0  0  0  0  0  0  0  0  0  0  0
  140.9580   73.6940  220.2080 C   0  0  0  0  0  0  0  0  0  0  0  0
  141.9650   74.6240  220.0340 C   0  0  0  0  0  0  0  0  0  0  0  0
  138.3466   78.2638  222.1963 H   0  0  0  0  0  0  0  0  0  0  0  0
  138.9715   77.5109  223.7174 H   0  0  0  0  0  0  0  0  0  0  0  0
  138.9325   80.5350  221.9312 H   0  0  0  0  0  0  0  0  0  0  0  0
  140.5809   82.3129  222.3018 H   0  0  0  0  0  0  0  0  0  0  0  0
  142.7234   81.9343  223.4374 H   0  0  0  0  0  0  0  0  0  0  0  0
  143.2714   79.6223  224.2684 H   0  0  0  0  0  0  0  0  0  0  0  0
  141.6369   77.8314  223.9101 H   0  0  0  0  0  0  0  0  0  0  0  0
  138.2733   77.5113  218.8295 H   0  0  0  0  0  0  0  0  0  0  0  0
  138.1506   78.1118  220.4676 H   0  0  0  0  0  0  0  0  0  0  0  0
  138.9010   80.7518  219.5141 H   0  0  0  0  0  0  0  0  0  0  0  0
  140.9326   82.0406  218.8665 H   0  0  0  0  0  0  0  0  0  0  0  0
  143.0662   80.8397  218.3486 H   0  0  0  0  0  0  0  0  0  0  0  0
  143.1360   78.3502  218.4916 H   0  0  0  0  0  0  0  0  0  0  0  0
  140.5239   76.1525  218.3347 H   0  0  0  0  0  0  0  0  0  0  0  0
  143.7170   77.2965  219.4057 H   0  0  0  0  0  0  0  0  0  0  0  0
  145.1150   75.2690  220.1840 H   0  0  0  0  0  0  0  0  0  0  0  0
  144.6219   72.6699  220.9299 H   0  0  0  0  0  0  0  0  0  0  0  0
  142.7853   71.0115  221.2369 H   0  0  0  0  0  0  0  0  0  0  0  0
  140.4492   71.6909  220.7659 H   0  0  0  0  0  0  0  0  0  0  0  0
  139.9128   73.9715  220.0069 H   0  0  0  0  0  0  0  0  0  0  0  0
  1  2  2  0
  2  3  2  0
  2  4  1  0
  4  5  1  0
  5  6  2  0
  6  7  1  0
  7  8  2  0
  8  9  1  0
  9 10  2  0
  2 11  1  0
 11 12  1  0
 12 13  1  0
 13 14  2  0
 14 15  1  0
 15 16  2  0
 16 17  1  0
 17 18  2  0
 18 19  1  0
 19 20  1  0
 20 21  2  0
 21 22  1  0
 22 23  1  0
 23 24  2  0
 24 25  1  0
 25 26  2  0
 26 27  1  0
 27 28  2  0
 10  5  1  0
 19 11  1  0
 28 20  1  0
 18 13  1  0
 28 23  1  0
  4 29  1  0
  4 30  1  0
  6 31  1  0
  7 32  1  0
  8 33  1  0
  9 34  1  0
 10 35  1  0
 12 36  1  0
 12 37  1  0
 14 38  1  0
 15 39  1  0
 16 40  1  0
 17 41  1  0
 19 42  1  6
 21 43  1  0
 22 44  1  0
 24 45  1  0
 25 46  1  0
 26 47  1  0
 27 48  1  0
M  END
>  <smiles>  (57) 
O=S(=O)(Cc1ccccc1)N1Cc2ccccc2C1c1c[nH]c2ccccc12

>  <score_type>  (57) 
oracle

>  <origin>  (57) 
autodockgpu

>  <m_score__min__energy>  (57) 
-7.54

>  <m_primary>  (57) 
energy

>  <rmsd>  (57) 
6.710881804552252

>  <m_score__min__rmsd>  (57) 
6.710881804552252

>  <meeko>  (57) 
{"free_energy": -6.82, "intermolecular_energy": -8.02, "internal_energy": -1.95, "cluster_size": 5, "cluster_id": 5, "rank_in_cluster": 4}

>  <energy>  (57) 
-6.89

>  <cluster_rmsd>  (57) 
1.34

>  <cluster>  (57) 
1

$$$$

     RDKit          3D

 48 52  0  0  1  0  0  0  0  0999 V2000
  141.4540   75.0580  221.9700 O   0  0  0  0  0  0  0  0  0  0  0  0
  140.0580   74.9510  221.4520 S   0  0  0  0  0  0  0  0  0  0  0  0
  139.3080   73.9910  222.3640 O   0  0  0  0  0  0  0  0  0  0  0  0
  139.3110   76.5540  221.5970 C   0  0  0  0  0  0  0  0  0  0  0  0
  140.3400   77.6080  221.8200 C   0  0  0  0  0  0  0  0  0  0  0  0
  140.9790   77.7480  223.0560 C   0  0  0  0  0  0  0  0  0  0  0  0
  141.9080   78.7430  223.1640 C   0  0  0  0  0  0  0  0  0  0  0  0
  142.2510   79.6070  222.1460 C   0  0  0  0  0  0  0  0  0  0  0  0
  141.6160   79.4670  220.9230 C   0  0  0  0  0  0  0  0  0  0  0  0
  140.6840   78.4770  220.7990 C   0  0  0  0  0  0  0  0  0  0  0  0
  140.0390   74.3290  219.8930 N   0  0  0  0  0  0  0  0  0  0  0  0
  138.7910   74.4080  219.2040 C   0  0  0  0  0  0  0  0  0  0  0  0
  138.9080   75.6870  218.4570 C   0  0  0  0  0  0  0  0  0  0  0  0
  137.9780   76.5890  217.9330 C   0  0  0  0  0  0  0  0  0  0  0  0
  138.4060   77.7350  217.2600 C   0  0  0  0  0  0  0  0  0  0  0  0
  139.7710   77.9880  217.1040 C   0  0  0  0  0  0  0  0  0  0  0  0
  140.6900   77.0870  217.6280 C   0  0  0  0  0  0  0  0  0  0  0  0
  140.2520   75.9450  218.2990 C   0  0  0  0  0  0  0  0  0  0  0  0
  140.9870   74.8080  218.9620 C   0  0  1  0  0  0  0  0  0  0  0  0
  142.2950   75.2120  219.4520 C   0  0  0  0  0  0  0  0  0  0  0  0
  142.9090   76.4380  219.5750 C   0  0  0  0  0  0  0  0  0  0  0  0
  144.1510   76.3030  220.0760 N   0  0  0  0  0  0  0  0  0  0  0  0
  144.3860   75.0030  220.2960 C   0  0  0  0  0  0  0  0  0  0  0  0
  145.5150   74.3940  220.8000 C   0  0  0  0  0  0  0  0  0  0  0  0
  145.5240   73.0260  220.9370 C   0  0  0  0  0  0  0  0  0  0  0  0
  144.4010   72.3070  220.5640 C   0  0  0  0  0  0  0  0  0  0  0  0
  143.2800   72.9290  220.0620 C   0  0  0  0  0  0  0  0  0  0  0  0
  143.2550   74.3040  219.9190 C   0  0  0  0  0  0  0  0  0  0  0  0
  138.7612   76.7790  220.6712 H   0  0  0  0  0  0  0  0  0  0  0  0
  138.6287   76.5443  222.4597 H   0  0  0  0  0  0  0  0  0  0  0  0
  140.7439   77.0866  223.9029 H   0  0  0  0  0  0  0  0  0  0  0  0
  142.4184   78.8635  224.1310 H   0  0  0  0  0  0  0  0  0  0  0  0
  143.0100   80.3880  222.3011 H   0  0  0  0  0  0  0  0  0  0  0  0
  141.8547   80.1315  220.0795 H   0  0  0  0  0  0  0  0  0  0  0  0
  140.1762   78.3632  219.8299 H   0  0  0  0  0  0  0  0  0  0  0  0
  138.6630   73.5583  218.5172 H   0  0  0  0  0  0  0  0  0  0  0  0
  137.9201   74.3736  219.8750 H   0  0  0  0  0  0  0  0  0  0  0  0
  136.9018   76.3948  218.0515 H   0  0  0  0  0  0  0  0  0  0  0  0
  137.6669   78.4401  216.8518 H   0  0  0  0  0  0  0  0  0  0  0  0
  140.1138   78.8885  216.5734 H   0  0  0  0  0  0  0  0  0  0  0  0
  141.7677   77.2751  217.5132 H   0  0  0  0  0  0  0  0  0  0  0  0
  141.2950   73.9846  218.3009 H   0  0  0  0  0  0  0  0  0  0  0  0
  142.4471   77.3980  219.3009 H   0  0  0  0  0  0  0  0  0  0  0  0
  144.8240   77.0930  220.2650 H   0  0  0  0  0  0  0  0  0  0  0  0
  146.3928   74.9915  221.0874 H   0  0  0  0  0  0  0  0  0  0  0  0
  146.4097   72.5106  221.3368 H   0  0  0  0  0  0  0  0  0  0  0  0
  144.4046   71.2123  220.6714 H   0  0  0  0  0  0  0  0  0  0  0  0
  142.4027   72.3310  219.7742 H   0  0  0  0  0  0  0  0  0  0  0  0
  1  2  2  0
  2  3  2  0
  2  4  1  0
  4  5  1  0
  5  6  2  0
  6  7  1  0
  7  8  2  0
  8  9  1  0
  9 10  2  0
  2 11  1  0
 11 12  1  0
 12 13  1  0
 13 14  2  0
 14 15  1  0
 15 16  2  0
 16 17  1  0
 17 18  2  0
 18 19  1  0
 19 20  1  0
 20 21  2  0
 21 22  1  0
 22 23  1  0
 23 24  2  0
 24 25  1  0
 25 26  2  0
 26 27  1  0
 27 28  2  0
 10  5  1  0
 19 11  1  0
 28 20  1  0
 18 13  1  0
 28 23  1  0
  4 29  1  0
  4 30  1  0
  6 31  1  0
  7 32  1  0
  8 33  1  0
  9 34  1  0
 10 35  1  0
 12 36  1  0
 12 37  1  0
 14 38  1  0
 15 39  1  0
 16 40  1  0
 17 41  1  0
 19 42  1  6
 21 43  1  0
 22 44  1  0
 24 45  1  0
 25 46  1  0
 26 47  1  0
 27 48  1  0
M  END
>  <smiles>  (58) 
O=S(=O)(Cc1ccccc1)N1Cc2ccccc2C1c1c[nH]c2ccccc12

>  <score_type>  (58) 
oracle

>  <origin>  (58) 
autodockgpu

>  <m_score__min__energy>  (58) 
-7.54

>  <m_primary>  (58) 
energy

>  <rmsd>  (58) 
7.029658621301569

>  <m_score__min__rmsd>  (58) 
7.029658621301569

>  <meeko>  (58) 
{"free_energy": -6.53, "intermolecular_energy": -7.73, "internal_energy": -2.33, "cluster_size": 19, "cluster_id": 4, "rank_in_cluster": 19}

>  <energy>  (58) 
-6.89

>  <cluster_rmsd>  (58) 
1.34

>  <cluster>  (58) 
1

$$$$

     RDKit          3D

 48 52  0  0  1  0  0  0  0  0999 V2000
  138.5490   77.3920  220.2790 O   0  0  0  0  0  0  0  0  0  0  0  0
  138.8200   78.7050  220.9370 S   0  0  0  0  0  0  0  0  0  0  0  0
  137.6210   79.6030  220.6700 O   0  0  0  0  0  0  0  0  0  0  0  0
  138.9200   78.4150  222.6850 C   0  0  0  0  0  0  0  0  0  0  0  0
  138.1310   79.4270  223.4430 C   0  0  0  0  0  0  0  0  0  0  0  0
  138.7600   80.4180  224.2010 C   0  0  0  0  0  0  0  0  0  0  0  0
  137.9530   81.3010  224.8610 C   0  0  0  0  0  0  0  0  0  0  0  0
  136.5750   81.2760  224.8260 C   0  0  0  0  0  0  0  0  0  0  0  0
  135.9540   80.2920  224.0740 C   0  0  0  0  0  0  0  0  0  0  0  0
  136.7470   79.4030  223.4090 C   0  0  0  0  0  0  0  0  0  0  0  0
  140.1870   79.4330  220.2890 N   0  0  0  0  0  0  0  0  0  0  0  0
  140.3230   80.8340  220.5320 C   0  0  0  0  0  0  0  0  0  0  0  0
  141.1540   80.8730  221.7620 C   0  0  0  0  0  0  0  0  0  0  0  0
  141.3340   81.8170  222.7780 C   0  0  0  0  0  0  0  0  0  0  0  0
  142.2110   81.5620  223.8330 C   0  0  0  0  0  0  0  0  0  0  0  0
  142.9200   80.3600  223.8820 C   0  0  0  0  0  0  0  0  0  0  0  0
  142.7360   79.4250  222.8690 C   0  0  0  0  0  0  0  0  0  0  0  0
  141.8570   79.6890  221.8190 C   0  0  0  0  0  0  0  0  0  0  0  0
  141.4540   78.8950  220.6030 C   0  0  1  0  0  0  0  0  0  0  0  0
  141.5620   77.4610  220.8230 C   0  0  0  0  0  0  0  0  0  0  0  0
  141.0660   76.6260  221.7990 C   0  0  0  0  0  0  0  0  0  0  0  0
  141.4510   75.3560  221.5830 N   0  0  0  0  0  0  0  0  0  0  0  0
  142.2020   75.3180  220.4740 C   0  0  0  0  0  0  0  0  0  0  0  0
  142.8110   74.2390  219.8690 C   0  0  0  0  0  0  0  0  0  0  0  0
  143.5400   74.4480  218.7230 C   0  0  0  0  0  0  0  0  0  0  0  0
  143.6380   75.7320  218.2150 C   0  0  0  0  0  0  0  0  0  0  0  0
  143.0240   76.8000  218.8290 C   0  0  0  0  0  0  0  0  0  0  0  0
  142.2870   76.6060  219.9820 C   0  0  0  0  0  0  0  0  0  0  0  0
  138.5249   77.4125  222.9060 H   0  0  0  0  0  0  0  0  0  0  0  0
  139.9735   78.4919  222.9921 H   0  0  0  0  0  0  0  0  0  0  0  0
  139.8562   80.4843  224.2636 H   0  0  0  0  0  0  0  0  0  0  0  0
  138.4359   82.0859  225.4616 H   0  0  0  0  0  0  0  0  0  0  0  0
  135.9834   82.0188  225.3813 H   0  0  0  0  0  0  0  0  0  0  0  0
  134.8574   80.2295  224.0150 H   0  0  0  0  0  0  0  0  0  0  0  0
  136.2578   78.6206  222.8102 H   0  0  0  0  0  0  0  0  0  0  0  0
  140.8307   81.3344  219.6943 H   0  0  0  0  0  0  0  0  0  0  0  0
  139.3596   81.3538  220.6395 H   0  0  0  0  0  0  0  0  0  0  0  0
  140.7805   82.7670  222.7453 H   0  0  0  0  0  0  0  0  0  0  0  0
  142.3442   82.3101  224.6284 H   0  0  0  0  0  0  0  0  0  0  0  0
  143.6144   80.1555  224.7103 H   0  0  0  0  0  0  0  0  0  0  0  0
  143.2863   78.4729  222.8961 H   0  0  0  0  0  0  0  0  0  0  0  0
  142.1147   78.9875  219.7284 H   0  0  0  0  0  0  0  0  0  0  0  0
  140.4394   76.9537  222.6416 H   0  0  0  0  0  0  0  0  0  0  0  0
  141.2020   74.5280  222.1880 H   0  0  0  0  0  0  0  0  0  0  0  0
  142.7151   73.2297  220.2957 H   0  0  0  0  0  0  0  0  0  0  0  0
  144.0381   73.6078  218.2170 H   0  0  0  0  0  0  0  0  0  0  0  0
  144.2210   75.9030  217.2980 H   0  0  0  0  0  0  0  0  0  0  0  0
  143.1200   77.8090  218.4016 H   0  0  0  0  0  0  0  0  0  0  0  0
  1  2  2  0
  2  3  2  0
  2  4  1  0
  4  5  1  0
  5  6  2  0
  6  7  1  0
  7  8  2  0
  8  9  1  0
  9 10  2  0
  2 11  1  0
 11 12  1  0
 12 13  1  0
 13 14  2  0
 14 15  1  0
 15 16  2  0
 16 17  1  0
 17 18  2  0
 18 19  1  0
 19 20  1  0
 20 21  2  0
 21 22  1  0
 22 23  1  0
 23 24  2  0
 24 25  1  0
 25 26  2  0
 26 27  1  0
 27 28  2  0
 10  5  1  0
 19 11  1  0
 28 20  1  0
 18 13  1  0
 28 23  1  0
  4 29  1  0
  4 30  1  0
  6 31  1  0
  7 32  1  0
  8 33  1  0
  9 34  1  0
 10 35  1  0
 12 36  1  0
 12 37  1  0
 14 38  1  0
 15 39  1  0
 16 40  1  0
 17 41  1  0
 19 42  1  6
 21 43  1  0
 22 44  1  0
 24 45  1  0
 25 46  1  0
 26 47  1  0
 27 48  1  0
M  END
>  <smiles>  (59) 
O=S(=O)(Cc1ccccc1)N1Cc2ccccc2C1c1c[nH]c2ccccc12

>  <score_type>  (59) 
oracle

>  <origin>  (59) 
autodockgpu

>  <m_score__min__energy>  (59) 
-7.54

>  <m_primary>  (59) 
energy

>  <rmsd>  (59) 
6.757179587321147

>  <m_score__min__rmsd>  (59) 
6.757179587321147

>  <meeko>  (59) 
{"free_energy": -6.89, "intermolecular_energy": -8.08, "internal_energy": -1.85, "cluster_size": 11, "cluster_id": 1, "rank_in_cluster": 8}

>  <energy>  (59) 
-6.89

>  <cluster_rmsd>  (59) 
1.33

>  <cluster>  (59) 
1

$$$$

     RDKit          3D

 48 52  0  0  1  0  0  0  0  0999 V2000
  138.3740   78.5860  223.4580 O   0  0  0  0  0  0  0  0  0  0  0  0
  137.8810   78.9520  222.0960 S   0  0  0  0  0  0  0  0  0  0  0  0
  137.1830   77.7270  221.5230 O   0  0  0  0  0  0  0  0  0  0  0  0
  136.6770   80.2390  222.2910 C   0  0  0  0  0  0  0  0  0  0  0  0
  136.5980   80.6910  223.7090 C   0  0  0  0  0  0  0  0  0  0  0  0
  135.4240   80.5440  224.4530 C   0  0  0  0  0  0  0  0  0  0  0  0
  135.4490   80.9890  225.7450 C   0  0  0  0  0  0  0  0  0  0  0  0
  136.5440   81.5650  226.3520 C   0  0  0  0  0  0  0  0  0  0  0  0
  137.7060   81.7100  225.6120 C   0  0  0  0  0  0  0  0  0  0  0  0
  137.6970   81.2710  224.3200 C   0  0  0  0  0  0  0  0  0  0  0  0
  139.1570   79.3600  221.0830 N   0  0  0  0  0  0  0  0  0  0  0  0
  139.5870   80.7210  221.1370 C   0  0  0  0  0  0  0  0  0  0  0  0
  140.6830   80.6790  222.1390 C   0  0  0  0  0  0  0  0  0  0  0  0
  141.2600   81.6330  222.9810 C   0  0  0  0  0  0  0  0  0  0  0  0
  142.3080   81.2830  223.8340 C   0  0  0  0  0  0  0  0  0  0  0  0
  142.7890   79.9720  223.8520 C   0  0  0  0  0  0  0  0  0  0  0  0
  142.2100   79.0270  223.0120 C   0  0  0  0  0  0  0  0  0  0  0  0
  141.1630   79.3880  222.1640 C   0  0  0  0  0  0  0  0  0  0  0  0
  140.3500   78.6090  221.1620 C   0  0  1  0  0  0  0  0  0  0  0  0
  140.2590   77.1990  221.5060 C   0  0  0  0  0  0  0  0  0  0  0  0
  139.4130   76.4910  222.3300 C   0  0  0  0  0  0  0  0  0  0  0  0
  139.7350   75.1840  222.3380 N   0  0  0  0  0  0  0  0  0  0  0  0
  140.7870   74.9970  221.5300 C   0  0  0  0  0  0  0  0  0  0  0  0
  141.4580   73.8320  221.2270 C   0  0  0  0  0  0  0  0  0  0  0  0
  142.5230   73.8880  220.3600 C   0  0  0  0  0  0  0  0  0  0  0  0
  142.8860   75.1090  219.8200 C   0  0  0  0  0  0  0  0  0  0  0  0
  142.2060   76.2660  220.1310 C   0  0  0  0  0  0  0  0  0  0  0  0
  141.1330   76.2260  221.0010 C   0  0  0  0  0  0  0  0  0  0  0  0
  136.9583   81.0929  221.6571 H   0  0  0  0  0  0  0  0  0  0  0  0
  135.6937   79.8446  221.9953 H   0  0  0  0  0  0  0  0  0  0  0  0
  134.5209   80.0907  224.0184 H   0  0  0  0  0  0  0  0  0  0  0  0
  134.5314   80.8798  226.3418 H   0  0  0  0  0  0  0  0  0  0  0  0
  136.4965   81.9013  227.3983 H   0  0  0  0  0  0  0  0  0  0  0  0
  138.6064   82.1641  226.0514 H   0  0  0  0  0  0  0  0  0  0  0  0
  138.6176   81.3846  223.7287 H   0  0  0  0  0  0  0  0  0  0  0  0
  139.9577   81.0588  220.1580 H   0  0  0  0  0  0  0  0  0  0  0  0
  138.7818   81.4225  221.4007 H   0  0  0  0  0  0  0  0  0  0  0  0
  140.8857   82.6673  222.9717 H   0  0  0  0  0  0  0  0  0  0  0  0
  142.7558   82.0412  224.4932 H   0  0  0  0  0  0  0  0  0  0  0  0
  143.6150   79.6906  224.5218 H   0  0  0  0  0  0  0  0  0  0  0  0
  142.5791   77.9908  223.0163 H   0  0  0  0  0  0  0  0  0  0  0  0
  140.7876   78.5149  220.1572 H   0  0  0  0  0  0  0  0  0  0  0  0
  138.5857   76.9337  222.9042 H   0  0  0  0  0  0  0  0  0  0  0  0
  139.2390   74.4340  222.8890 H   0  0  0  0  0  0  0  0  0  0  0  0
  141.1469   72.8748  221.6709 H   0  0  0  0  0  0  0  0  0  0  0  0
  143.0787   72.9752  220.0992 H   0  0  0  0  0  0  0  0  0  0  0  0
  143.7379   75.1571  219.1258 H   0  0  0  0  0  0  0  0  0  0  0  0
  142.5174   77.2227  219.6863 H   0  0  0  0  0  0  0  0  0  0  0  0
  1  2  2  0
  2  3  2  0
  2  4  1  0
  4  5  1  0
  5  6  2  0
  6  7  1  0
  7  8  2  0
  8  9  1  0
  9 10  2  0
  2 11  1  0
 11 12  1  0
 12 13  1  0
 13 14  2  0
 14 15  1  0
 15 16  2  0
 16 17  1  0
 17 18  2  0
 18 19  1  0
 19 20  1  0
 20 21  2  0
 21 22  1  0
 22 23  1  0
 23 24  2  0
 24 25  1  0
 25 26  2  0
 26 27  1  0
 27 28  2  0
 10  5  1  0
 19 11  1  0
 28 20  1  0
 18 13  1  0
 28 23  1  0
  4 29  1  0
  4 30  1  0
  6 31  1  0
  7 32  1  0
  8 33  1  0
  9 34  1  0
 10 35  1  0
 12 36  1  0
 12 37  1  0
 14 38  1  0
 15 39  1  0
 16 40  1  0
 17 41  1  0
 19 42  1  6
 21 43  1  0
 22 44  1  0
 24 45  1  0
 25 46  1  0
 26 47  1  0
 27 48  1  0
M  END
>  <smiles>  (60) 
O=S(=O)(Cc1ccccc1)N1Cc2ccccc2C1c1c[nH]c2ccccc12

>  <score_type>  (60) 
oracle

>  <origin>  (60) 
autodockgpu

>  <m_score__min__energy>  (60) 
-7.54

>  <m_primary>  (60) 
energy

>  <rmsd>  (60) 
6.686049613830528

>  <m_score__min__rmsd>  (60) 
6.686049613830528

>  <meeko>  (60) 
{"free_energy": -7.49, "intermolecular_energy": -8.69, "internal_energy": -1.29, "cluster_size": 11, "cluster_id": 1, "rank_in_cluster": 2}

>  <energy>  (60) 
-6.88

>  <cluster_rmsd>  (60) 
1.33

>  <cluster>  (60) 
1

$$$$

     RDKit          3D

 48 52  0  0  1  0  0  0  0  0999 V2000
  139.2020   67.7720  225.2210 O   0  0  0  0  0  0  0  0  0  0  0  0
  139.0670   68.9410  224.3010 S   0  0  0  0  0  0  0  0  0  0  0  0
  137.7940   69.6790  224.6890 O   0  0  0  0  0  0  0  0  0  0  0  0
  140.4470   70.0160  224.5980 C   0  0  0  0  0  0  0  0  0  0  0  0
  140.4310   70.5360  225.9940 C   0  0  0  0  0  0  0  0  0  0  0  0
  139.7990   69.8330  227.0240 C   0  0  0  0  0  0  0  0  0  0  0  0
  139.8380   70.3900  228.2700 C   0  0  0  0  0  0  0  0  0  0  0  0
  140.4530   71.5860  228.5740 C   0  0  0  0  0  0  0  0  0  0  0  0
  141.0790   72.2810  227.5510 C   0  0  0  0  0  0  0  0  0  0  0  0
  141.0480   71.7380  226.3000 C   0  0  0  0  0  0  0  0  0  0  0  0
  138.9270   68.4380  222.7050 N   0  0  0  0  0  0  0  0  0  0  0  0
  138.1240   67.2780  222.4840 C   0  0  0  0  0  0  0  0  0  0  0  0
  136.7870   67.8560  222.1900 C   0  0  0  0  0  0  0  0  0  0  0  0
  135.4810   67.3680  222.2870 C   0  0  0  0  0  0  0  0  0  0  0  0
  134.3980   68.1700  221.9240 C   0  0  0  0  0  0  0  0  0  0  0  0
  134.6120   69.4690  221.4580 C   0  0  0  0  0  0  0  0  0  0  0  0
  135.9140   69.9480  221.3640 C   0  0  0  0  0  0  0  0  0  0  0  0
  136.9900   69.1390  221.7300 C   0  0  0  0  0  0  0  0  0  0  0  0
  138.4790   69.3670  221.7410 C   0  0  1  0  0  0  0  0  0  0  0  0
  138.8180   70.7700  221.9210 C   0  0  0  0  0  0  0  0  0  0  0  0
  138.1450   71.8280  222.4880 C   0  0  0  0  0  0  0  0  0  0  0  0
  138.8720   72.9580  222.4050 N   0  0  0  0  0  0  0  0  0  0  0  0
  140.0280   72.6790  221.7890 C   0  0  0  0  0  0  0  0  0  0  0  0
  141.0790   73.5180  221.4850 C   0  0  0  0  0  0  0  0  0  0  0  0
  142.1760   72.9980  220.8410 C   0  0  0  0  0  0  0  0  0  0  0  0
  142.1900   71.6520  220.5210 C   0  0  0  0  0  0  0  0  0  0  0  0
  141.1340   70.8250  220.8310 C   0  0  0  0  0  0  0  0  0  0  0  0
  140.0230   71.3330  221.4780 C   0  0  0  0  0  0  0  0  0  0  0  0
  141.3799   69.4568  224.4336 H   0  0  0  0  0  0  0  0  0  0  0  0
  140.3806   70.8690  223.9066 H   0  0  0  0  0  0  0  0  0  0  0  0
  139.2929   68.8740  226.8389 H   0  0  0  0  0  0  0  0  0  0  0  0
  139.3441   69.8464  229.0888 H   0  0  0  0  0  0  0  0  0  0  0  0
  140.4470   71.9784  229.6016 H   0  0  0  0  0  0  0  0  0  0  0  0
  141.5843   73.2393  227.7418 H   0  0  0  0  0  0  0  0  0  0  0  0
  141.5425   72.2875  225.4854 H   0  0  0  0  0  0  0  0  0  0  0  0
  138.4991   66.6927  221.6315 H   0  0  0  0  0  0  0  0  0  0  0  0
  138.1203   66.5815  223.3354 H   0  0  0  0  0  0  0  0  0  0  0  0
  135.3055   66.3452  222.6518 H   0  0  0  0  0  0  0  0  0  0  0  0
  133.3734   67.7780  222.0051 H   0  0  0  0  0  0  0  0  0  0  0  0
  133.7620   70.1047  221.1692 H   0  0  0  0  0  0  0  0  0  0  0  0
  136.0964   70.9696  220.9993 H   0  0  0  0  0  0  0  0  0  0  0  0
  139.0002   69.1824  220.7901 H   0  0  0  0  0  0  0  0  0  0  0  0
  137.1477   71.7596  222.9471 H   0  0  0  0  0  0  0  0  0  0  0  0
  138.5770   73.9040  222.7660 H   0  0  0  0  0  0  0  0  0  0  0  0
  141.0401   74.5841  221.7530 H   0  0  0  0  0  0  0  0  0  0  0  0
  143.0299   73.6420  220.5839 H   0  0  0  0  0  0  0  0  0  0  0  0
  143.0667   71.2323  220.0061 H   0  0  0  0  0  0  0  0  0  0  0  0
  141.1743   69.7588  220.5636 H   0  0  0  0  0  0  0  0  0  0  0  0
  1  2  2  0
  2  3  2  0
  2  4  1  0
  4  5  1  0
  5  6  2  0
  6  7  1  0
  7  8  2  0
  8  9  1  0
  9 10  2  0
  2 11  1  0
 11 12  1  0
 12 13  1  0
 13 14  2  0
 14 15  1  0
 15 16  2  0
 16 17  1  0
 17 18  2  0
 18 19  1  0
 19 20  1  0
 20 21  2  0
 21 22  1  0
 22 23  1  0
 23 24  2  0
 24 25  1  0
 25 26  2  0
 26 27  1  0
 27 28  2  0
 10  5  1  0
 19 11  1  0
 28 20  1  0
 18 13  1  0
 28 23  1  0
  4 29  1  0
  4 30  1  0
  6 31  1  0
  7 32  1  0
  8 33  1  0
  9 34  1  0
 10 35  1  0
 12 36  1  0
 12 37  1  0
 14 38  1  0
 15 39  1  0
 16 40  1  0
 17 41  1  0
 19 42  1  6
 21 43  1  0
 22 44  1  0
 24 45  1  0
 25 46  1  0
 26 47  1  0
 27 48  1  0
M  END
>  <smiles>  (61) 
O=S(=O)(Cc1ccccc1)N1Cc2ccccc2C1c1c[nH]c2ccccc12

>  <score_type>  (61) 
oracle

>  <origin>  (61) 
autodockgpu

>  <m_score__min__energy>  (61) 
-7.54

>  <m_primary>  (61) 
energy

>  <rmsd>  (61) 
10.694495778369538

>  <m_score__min__rmsd>  (61) 
10.694495778369538

>  <meeko>  (61) 
{"free_energy": -7.22, "intermolecular_energy": -8.41, "internal_energy": -1.79, "cluster_size": 13, "cluster_id": 3, "rank_in_cluster": 1}

>  <energy>  (61) 
-6.88

>  <cluster_rmsd>  (61) 
1.34

>  <cluster>  (61) 
1

$$$$

     RDKit          3D

 48 52  0  0  1  0  0  0  0  0999 V2000
  138.5770   77.3730  220.3090 O   0  0  0  0  0  0  0  0  0  0  0  0
  138.8450   78.6890  220.9620 S   0  0  0  0  0  0  0  0  0  0  0  0
  137.6460   79.5850  220.6840 O   0  0  0  0  0  0  0  0  0  0  0  0
  138.9360   78.4080  222.7110 C   0  0  0  0  0  0  0  0  0  0  0  0
  138.1300   79.4130  223.4590 C   0  0  0  0  0  0  0  0  0  0  0  0
  138.7420   80.4170  224.2170 C   0  0  0  0  0  0  0  0  0  0  0  0
  137.9190   81.2910  224.8680 C   0  0  0  0  0  0  0  0  0  0  0  0
  136.5420   81.2490  224.8250 C   0  0  0  0  0  0  0  0  0  0  0  0
  135.9380   80.2540  224.0740 C   0  0  0  0  0  0  0  0  0  0  0  0
  136.7470   79.3710  223.4180 C   0  0  0  0  0  0  0  0  0  0  0  0
  140.2140   79.4160  220.3160 N   0  0  0  0  0  0  0  0  0  0  0  0
  140.3530   80.8150  220.5620 C   0  0  0  0  0  0  0  0  0  0  0  0
  141.1830   80.8510  221.7940 C   0  0  0  0  0  0  0  0  0  0  0  0
  141.3630   81.7920  222.8110 C   0  0  0  0  0  0  0  0  0  0  0  0
  142.2390   81.5330  223.8670 C   0  0  0  0  0  0  0  0  0  0  0  0
  142.9440   80.3290  223.9140 C   0  0  0  0  0  0  0  0  0  0  0  0
  142.7600   79.3970  222.8990 C   0  0  0  0  0  0  0  0  0  0  0  0
  141.8820   79.6650  221.8480 C   0  0  0  0  0  0  0  0  0  0  0  0
  141.4790   78.8740  220.6310 C   0  0  1  0  0  0  0  0  0  0  0  0
  141.5830   77.4400  220.8490 C   0  0  0  0  0  0  0  0  0  0  0  0
  141.0720   76.6020  221.8140 C   0  0  0  0  0  0  0  0  0  0  0  0
  141.4610   75.3320  221.6000 N   0  0  0  0  0  0  0  0  0  0  0  0
  142.2280   75.2970  220.5030 C   0  0  0  0  0  0  0  0  0  0  0  0
  142.8460   74.2200  219.9040 C   0  0  0  0  0  0  0  0  0  0  0  0
  143.5930   74.4330  218.7690 C   0  0  0  0  0  0  0  0  0  0  0  0
  143.6990   75.7170  218.2670 C   0  0  0  0  0  0  0  0  0  0  0  0
  143.0750   76.7840  218.8750 C   0  0  0  0  0  0  0  0  0  0  0  0
  142.3210   76.5870  220.0160 C   0  0  0  0  0  0  0  0  0  0  0  0
  138.5515   77.4017  222.9335 H   0  0  0  0  0  0  0  0  0  0  0  0
  139.9863   78.4992  223.0250 H   0  0  0  0  0  0  0  0  0  0  0  0
  139.8368   80.4988  224.2855 H   0  0  0  0  0  0  0  0  0  0  0  0
  138.3880   82.0841  225.4688 H   0  0  0  0  0  0  0  0  0  0  0  0
  135.9380   81.9870  225.3732 H   0  0  0  0  0  0  0  0  0  0  0  0
  134.8426   80.1777  224.0083 H   0  0  0  0  0  0  0  0  0  0  0  0
  136.2712   78.5789  222.8212 H   0  0  0  0  0  0  0  0  0  0  0  0
  140.8629   81.3157  219.7258 H   0  0  0  0  0  0  0  0  0  0  0  0
  139.3904   81.3363  220.6697 H   0  0  0  0  0  0  0  0  0  0  0  0
  140.8111   82.7430  222.7795 H   0  0  0  0  0  0  0  0  0  0  0  0
  142.3739   82.2794  224.6637 H   0  0  0  0  0  0  0  0  0  0  0  0
  143.6360   80.1205  224.7432 H   0  0  0  0  0  0  0  0  0  0  0  0
  143.3089   78.4441  222.9245 H   0  0  0  0  0  0  0  0  0  0  0  0
  142.1412   78.9657  219.7575 H   0  0  0  0  0  0  0  0  0  0  0  0
  140.4320   76.9268  222.6476 H   0  0  0  0  0  0  0  0  0  0  0  0
  141.2020   74.5030  222.1990 H   0  0  0  0  0  0  0  0  0  0  0  0
  142.7436   73.2093  220.3259 H   0  0  0  0  0  0  0  0  0  0  0  0
  144.0986   73.5943  218.2680 H   0  0  0  0  0  0  0  0  0  0  0  0
  144.2963   75.8907  217.3598 H   0  0  0  0  0  0  0  0  0  0  0  0
  143.1771   77.7941  218.4516 H   0  0  0  0  0  0  0  0  0  0  0  0
  1  2  2  0
  2  3  2  0
  2  4  1  0
  4  5  1  0
  5  6  2  0
  6  7  1  0
  7  8  2  0
  8  9  1  0
  9 10  2  0
  2 11  1  0
 11 12  1  0
 12 13  1  0
 13 14  2  0
 14 15  1  0
 15 16  2  0
 16 17  1  0
 17 18  2  0
 18 19  1  0
 19 20  1  0
 20 21  2  0
 21 22  1  0
 22 23  1  0
 23 24  2  0
 24 25  1  0
 25 26  2  0
 26 27  1  0
 27 28  2  0
 10  5  1  0
 19 11  1  0
 28 20  1  0
 18 13  1  0
 28 23  1  0
  4 29  1  0
  4 30  1  0
  6 31  1  0
  7 32  1  0
  8 33  1  0
  9 34  1  0
 10 35  1  0
 12 36  1  0
 12 37  1  0
 14 38  1  0
 15 39  1  0
 16 40  1  0
 17 41  1  0
 19 42  1  6
 21 43  1  0
 22 44  1  0
 24 45  1  0
 25 46  1  0
 26 47  1  0
 27 48  1  0
M  END
>  <smiles>  (62) 
O=S(=O)(Cc1ccccc1)N1Cc2ccccc2C1c1c[nH]c2ccccc12

>  <score_type>  (62) 
oracle

>  <origin>  (62) 
autodockgpu

>  <m_score__min__energy>  (62) 
-7.54

>  <m_primary>  (62) 
energy

>  <rmsd>  (62) 
6.770321723709661

>  <m_score__min__rmsd>  (62) 
6.770321723709661

>  <meeko>  (62) 
{"free_energy": -6.88, "intermolecular_energy": -8.08, "internal_energy": -1.85, "cluster_size": 11, "cluster_id": 1, "rank_in_cluster": 10}

>  <energy>  (62) 
-7.27

>  <cluster_rmsd>  (62) 
0.0

>  <cluster>  (62) 
2

$$$$

     RDKit          3D

 48 52  0  0  1  0  0  0  0  0999 V2000
  139.0660   67.7450  225.0790 O   0  0  0  0  0  0  0  0  0  0  0  0
  138.9190   68.9350  224.1890 S   0  0  0  0  0  0  0  0  0  0  0  0
  137.6770   69.6890  224.6430 O   0  0  0  0  0  0  0  0  0  0  0  0
  140.3300   69.9770  224.4520 C   0  0  0  0  0  0  0  0  0  0  0  0
  140.3510   70.5110  225.8430 C   0  0  0  0  0  0  0  0  0  0  0  0
  139.7140   69.8380  226.8890 C   0  0  0  0  0  0  0  0  0  0  0  0
  139.7880   70.4060  228.1290 C   0  0  0  0  0  0  0  0  0  0  0  0
  140.4440   71.5850  228.4100 C   0  0  0  0  0  0  0  0  0  0  0  0
  141.0750   72.2510  227.3720 C   0  0  0  0  0  0  0  0  0  0  0  0
  141.0090   71.6960  226.1270 C   0  0  0  0  0  0  0  0  0  0  0  0
  138.7040   68.4690  222.5900 N   0  0  0  0  0  0  0  0  0  0  0  0
  137.8550   67.3420  222.3760 C   0  0  0  0  0  0  0  0  0  0  0  0
  136.5290   67.9710  222.1410 C   0  0  0  0  0  0  0  0  0  0  0  0
  135.2110   67.5270  222.2760 C   0  0  0  0  0  0  0  0  0  0  0  0
  134.1440   68.3720  221.9670 C   0  0  0  0  0  0  0  0  0  0  0  0
  134.3870   69.6720  221.5180 C   0  0  0  0  0  0  0  0  0  0  0  0
  135.7010   70.1080  221.3860 C   0  0  0  0  0  0  0  0  0  0  0  0
  136.7600   69.2550  221.6980 C   0  0  0  0  0  0  0  0  0  0  0  0
  138.2560   69.4320  221.6590 C   0  0  1  0  0  0  0  0  0  0  0  0
  138.6500   70.8190  221.8530 C   0  0  0  0  0  0  0  0  0  0  0  0
  138.0130   71.9000  222.4190 C   0  0  0  0  0  0  0  0  0  0  0  0
  138.7860   72.9990  222.3530 N   0  0  0  0  0  0  0  0  0  0  0  0
  139.9390   72.6780  221.7510 C   0  0  0  0  0  0  0  0  0  0  0  0
  141.0270   73.4740  221.4660 C   0  0  0  0  0  0  0  0  0  0  0  0
  142.1100   72.9140  220.8320 C   0  0  0  0  0  0  0  0  0  0  0  0
  142.0730   71.5700  220.5030 C   0  0  0  0  0  0  0  0  0  0  0  0
  140.9790   70.7850  220.7940 C   0  0  0  0  0  0  0  0  0  0  0  0
  139.8830   71.3340  221.4300 C   0  0  0  0  0  0  0  0  0  0  0  0
  141.2455   69.3927  224.2777 H   0  0  0  0  0  0  0  0  0  0  0  0
  140.2733   70.8247  223.7533 H   0  0  0  0  0  0  0  0  0  0  0  0
  139.1769   68.8928  226.7212 H   0  0  0  0  0  0  0  0  0  0  0  0
  139.2896   69.8865  228.9607 H   0  0  0  0  0  0  0  0  0  0  0  0
  140.4660   71.9874  229.4335 H   0  0  0  0  0  0  0  0  0  0  0  0
  141.6113   73.1956  227.5455 H   0  0  0  0  0  0  0  0  0  0  0  0
  141.5083   72.2213  225.2995 H   0  0  0  0  0  0  0  0  0  0  0  0
  138.1795   66.7617  221.4997 H   0  0  0  0  0  0  0  0  0  0  0  0
  137.8573   66.6288  223.2135 H   0  0  0  0  0  0  0  0  0  0  0  0
  135.0129   66.5040  222.6284 H   0  0  0  0  0  0  0  0  0  0  0  0
  133.1099   68.0135  222.0773 H   0  0  0  0  0  0  0  0  0  0  0  0
  133.5501   70.3422  221.2720 H   0  0  0  0  0  0  0  0  0  0  0  0
  135.9062   71.1298  221.0341 H   0  0  0  0  0  0  0  0  0  0  0  0
  138.7368   69.2490  220.6867 H   0  0  0  0  0  0  0  0  0  0  0  0
  137.0079   71.8694  222.8649 H   0  0  0  0  0  0  0  0  0  0  0  0
  138.5260   73.9550  222.7170 H   0  0  0  0  0  0  0  0  0  0  0  0
  141.0286   74.5390  221.7411 H   0  0  0  0  0  0  0  0  0  0  0  0
  142.9925   73.5243  220.5897 H   0  0  0  0  0  0  0  0  0  0  0  0
  142.9385   71.1176  219.9967 H   0  0  0  0  0  0  0  0  0  0  0  0
  140.9785   69.7198  220.5195 H   0  0  0  0  0  0  0  0  0  0  0  0
  1  2  2  0
  2  3  2  0
  2  4  1  0
  4  5  1  0
  5  6  2  0
  6  7  1  0
  7  8  2  0
  8  9  1  0
  9 10  2  0
  2 11  1  0
 11 12  1  0
 12 13  1  0
 13 14  2  0
 14 15  1  0
 15 16  2  0
 16 17  1  0
 17 18  2  0
 18 19  1  0
 19 20  1  0
 20 21  2  0
 21 22  1  0
 22 23  1  0
 23 24  2  0
 24 25  1  0
 25 26  2  0
 26 27  1  0
 27 28  2  0
 10  5  1  0
 19 11  1  0
 28 20  1  0
 18 13  1  0
 28 23  1  0
  4 29  1  0
  4 30  1  0
  6 31  1  0
  7 32  1  0
  8 33  1  0
  9 34  1  0
 10 35  1  0
 12 36  1  0
 12 37  1  0
 14 38  1  0
 15 39  1  0
 16 40  1  0
 17 41  1  0
 19 42  1  6
 21 43  1  0
 22 44  1  0
 24 45  1  0
 25 46  1  0
 26 47  1  0
 27 48  1  0
M  END
>  <smiles>  (63) 
O=S(=O)(Cc1ccccc1)N1Cc2ccccc2C1c1c[nH]c2ccccc12

>  <score_type>  (63) 
oracle

>  <origin>  (63) 
autodockgpu

>  <m_score__min__energy>  (63) 
-7.54

>  <m_primary>  (63) 
energy

>  <rmsd>  (63) 
10.70136503198734

>  <m_score__min__rmsd>  (63) 
10.70136503198734

>  <meeko>  (63) 
{"free_energy": -7.15, "intermolecular_energy": -8.34, "internal_energy": -1.83, "cluster_size": 13, "cluster_id": 3, "rank_in_cluster": 7}

>  <energy>  (63) 
-6.99

>  <cluster_rmsd>  (63) 
0.91

>  <cluster>  (63) 
2

$$$$

     RDKit          3D

 48 52  0  0  1  0  0  0  0  0999 V2000
  138.3460   78.5810  223.4660 O   0  0  0  0  0  0  0  0  0  0  0  0
  137.8600   78.9420  222.1000 S   0  0  0  0  0  0  0  0  0  0  0  0
  137.1730   77.7130  221.5240 O   0  0  0  0  0  0  0  0  0  0  0  0
  136.6470   80.2230  222.2860 C   0  0  0  0  0  0  0  0  0  0  0  0
  136.5680   80.6870  223.6990 C   0  0  0  0  0  0  0  0  0  0  0  0
  135.3920   80.5500  224.4440 C   0  0  0  0  0  0  0  0  0  0  0  0
  135.4160   81.0050  225.7310 C   0  0  0  0  0  0  0  0  0  0  0  0
  136.5120   81.5830  226.3360 C   0  0  0  0  0  0  0  0  0  0  0  0
  137.6760   81.7180  225.5960 C   0  0  0  0  0  0  0  0  0  0  0  0
  137.6670   81.2680  224.3070 C   0  0  0  0  0  0  0  0  0  0  0  0
  139.1400   79.3570  221.0950 N   0  0  0  0  0  0  0  0  0  0  0  0
  139.5640   80.7190  221.1540 C   0  0  0  0  0  0  0  0  0  0  0  0
  140.6550   80.6800  222.1620 C   0  0  0  0  0  0  0  0  0  0  0  0
  141.2240   81.6350  223.0080 C   0  0  0  0  0  0  0  0  0  0  0  0
  142.2680   81.2870  223.8670 C   0  0  0  0  0  0  0  0  0  0  0  0
  142.7540   79.9780  223.8850 C   0  0  0  0  0  0  0  0  0  0  0  0
  142.1840   79.0320  223.0410 C   0  0  0  0  0  0  0  0  0  0  0  0
  141.1400   79.3900  222.1870 C   0  0  0  0  0  0  0  0  0  0  0  0
  140.3350   78.6110  221.1790 C   0  0  1  0  0  0  0  0  0  0  0  0
  140.2480   77.1990  221.5200 C   0  0  0  0  0  0  0  0  0  0  0  0
  139.3970   76.4860  222.3340 C   0  0  0  0  0  0  0  0  0  0  0  0
  139.7250   75.1810  222.3440 N   0  0  0  0  0  0  0  0  0  0  0  0
  140.7860   75.0000  221.5460 C   0  0  0  0  0  0  0  0  0  0  0  0
  141.4660   73.8390  221.2490 C   0  0  0  0  0  0  0  0  0  0  0  0
  142.5400   73.9010  220.3930 C   0  0  0  0  0  0  0  0  0  0  0  0
  142.9010   75.1250  219.8590 C   0  0  0  0  0  0  0  0  0  0  0  0
  142.2130   76.2780  220.1640 C   0  0  0  0  0  0  0  0  0  0  0  0
  141.1310   76.2320  221.0230 C   0  0  0  0  0  0  0  0  0  0  0  0
  136.9210   81.0730  221.6438 H   0  0  0  0  0  0  0  0  0  0  0  0
  135.6658   79.8192  221.9960 H   0  0  0  0  0  0  0  0  0  0  0  0
  134.4880   80.0958  224.0121 H   0  0  0  0  0  0  0  0  0  0  0  0
  134.4969   80.9034  226.3268 H   0  0  0  0  0  0  0  0  0  0  0  0
  136.4637   81.9281  227.3793 H   0  0  0  0  0  0  0  0  0  0  0  0
  138.5774   82.1727  226.0327 H   0  0  0  0  0  0  0  0  0  0  0  0
  138.5889   81.3736  223.7162 H   0  0  0  0  0  0  0  0  0  0  0  0
  139.9385   81.0602  220.1776 H   0  0  0  0  0  0  0  0  0  0  0  0
  138.7544   81.4165  221.4149 H   0  0  0  0  0  0  0  0  0  0  0  0
  140.8468   82.6683  222.9972 H   0  0  0  0  0  0  0  0  0  0  0  0
  142.7086   82.0453  224.5309 H   0  0  0  0  0  0  0  0  0  0  0  0
  143.5776   79.6990  224.5587 H   0  0  0  0  0  0  0  0  0  0  0  0
  142.5573   77.9973  223.0463 H   0  0  0  0  0  0  0  0  0  0  0  0
  140.7777   78.5216  220.1760 H   0  0  0  0  0  0  0  0  0  0  0  0
  138.5616   76.9240  222.8999 H   0  0  0  0  0  0  0  0  0  0  0  0
  139.2270   74.4280  222.8890 H   0  0  0  0  0  0  0  0  0  0  0  0
  141.1552   72.8799  221.6888 H   0  0  0  0  0  0  0  0  0  0  0  0
  143.1034   72.9916  220.1368 H   0  0  0  0  0  0  0  0  0  0  0  0
  143.7595   75.1785  219.1733 H   0  0  0  0  0  0  0  0  0  0  0  0
  142.5247   77.2366  219.7237 H   0  0  0  0  0  0  0  0  0  0  0  0
  1  2  2  0
  2  3  2  0
  2  4  1  0
  4  5  1  0
  5  6  2  0
  6  7  1  0
  7  8  2  0
  8  9  1  0
  9 10  2  0
  2 11  1  0
 11 12  1  0
 12 13  1  0
 13 14  2  0
 14 15  1  0
 15 16  2  0
 16 17  1  0
 17 18  2  0
 18 19  1  0
 19 20  1  0
 20 21  2  0
 21 22  1  0
 22 23  1  0
 23 24  2  0
 24 25  1  0
 25 26  2  0
 26 27  1  0
 27 28  2  0
 10  5  1  0
 19 11  1  0
 28 20  1  0
 18 13  1  0
 28 23  1  0
  4 29  1  0
  4 30  1  0
  6 31  1  0
  7 32  1  0
  8 33  1  0
  9 34  1  0
 10 35  1  0
 12 36  1  0
 12 37  1  0
 14 38  1  0
 15 39  1  0
 16 40  1  0
 17 41  1  0
 19 42  1  6
 21 43  1  0
 22 44  1  0
 24 45  1  0
 25 46  1  0
 26 47  1  0
 27 48  1  0
M  END
>  <smiles>  (64) 
O=S(=O)(Cc1ccccc1)N1Cc2ccccc2C1c1c[nH]c2ccccc12

>  <score_type>  (64) 
oracle

>  <origin>  (64) 
autodockgpu

>  <m_score__min__energy>  (64) 
-7.54

>  <m_primary>  (64) 
energy

>  <rmsd>  (64) 
6.6892250970967835

>  <m_score__min__rmsd>  (64) 
6.6892250970967835

>  <meeko>  (64) 
{"free_energy": -7.48, "intermolecular_energy": -8.67, "internal_energy": -1.3, "cluster_size": 11, "cluster_id": 1, "rank_in_cluster": 3}

>  <energy>  (64) 
-7.22

>  <cluster_rmsd>  (64) 
0.0

>  <cluster>  (64) 
3

$$$$

     RDKit          3D

 48 52  0  0  1  0  0  0  0  0999 V2000
  141.4130   75.1020  221.9730 O   0  0  0  0  0  0  0  0  0  0  0  0
  140.0330   75.0280  221.4050 S   0  0  0  0  0  0  0  0  0  0  0  0
  139.2040   74.1600  222.3420 O   0  0  0  0  0  0  0  0  0  0  0  0
  139.3590   76.6690  221.4240 C   0  0  0  0  0  0  0  0  0  0  0  0
  140.4000   77.6730  221.7800 C   0  0  0  0  0  0  0  0  0  0  0  0
  140.9270   77.7450  223.0730 C   0  0  0  0  0  0  0  0  0  0  0  0
  141.8770   78.6990  223.3040 C   0  0  0  0  0  0  0  0  0  0  0  0
  142.3430   79.5830  222.3550 C   0  0  0  0  0  0  0  0  0  0  0  0
  141.8190   79.5110  221.0750 C   0  0  0  0  0  0  0  0  0  0  0  0
  140.8690   78.5630  220.8290 C   0  0  0  0  0  0  0  0  0  0  0  0
  140.0440   74.3130  219.8860 N   0  0  0  0  0  0  0  0  0  0  0  0
  138.8130   74.3600  219.1650 C   0  0  0  0  0  0  0  0  0  0  0  0
  138.9590   75.5900  218.3460 C   0  0  0  0  0  0  0  0  0  0  0  0
  138.0500   76.4670  217.7470 C   0  0  0  0  0  0  0  0  0  0  0  0
  138.5040   77.5660  217.0160 C   0  0  0  0  0  0  0  0  0  0  0  0
  139.8740   77.7980  216.8770 C   0  0  0  0  0  0  0  0  0  0  0  0
  140.7730   76.9230  217.4750 C   0  0  0  0  0  0  0  0  0  0  0  0
  140.3090   75.8270  218.2040 C   0  0  0  0  0  0  0  0  0  0  0  0
  141.0170   74.7270  218.9510 C   0  0  1  0  0  0  0  0  0  0  0  0
  142.3180   75.1490  219.4460 C   0  0  0  0  0  0  0  0  0  0  0  0
  142.9150   76.3830  219.5700 C   0  0  0  0  0  0  0  0  0  0  0  0
  144.1560   76.2660  220.0770 N   0  0  0  0  0  0  0  0  0  0  0  0
  144.4080   74.9690  220.3000 C   0  0  0  0  0  0  0  0  0  0  0  0
  145.5420   74.3760  220.8100 C   0  0  0  0  0  0  0  0  0  0  0  0
  145.5690   73.0090  220.9490 C   0  0  0  0  0  0  0  0  0  0  0  0
  144.4580   72.2750  220.5720 C   0  0  0  0  0  0  0  0  0  0  0  0
  143.3310   72.8810  220.0640 C   0  0  0  0  0  0  0  0  0  0  0  0
  143.2880   74.2540  219.9190 C   0  0  0  0  0  0  0  0  0  0  0  0
  138.9591   76.9045  220.4267 H   0  0  0  0  0  0  0  0  0  0  0  0
  138.5614   76.7100  222.1804 H   0  0  0  0  0  0  0  0  0  0  0  0
  140.5916   77.0638  223.8688 H   0  0  0  0  0  0  0  0  0  0  0  0
  142.2992   78.7663  224.3175 H   0  0  0  0  0  0  0  0  0  0  0  0
  143.1123   80.3275  222.6079 H   0  0  0  0  0  0  0  0  0  0  0  0
  142.1574   80.1953  220.2830 H   0  0  0  0  0  0  0  0  0  0  0  0
  140.4505   78.5022  219.8136 H   0  0  0  0  0  0  0  0  0  0  0  0
  138.6928   73.4715  218.5278 H   0  0  0  0  0  0  0  0  0  0  0  0
  137.9267   74.3728  219.8164 H   0  0  0  0  0  0  0  0  0  0  0  0
  136.9695   76.2898  217.8525 H   0  0  0  0  0  0  0  0  0  0  0  0
  137.7811   78.2508  216.5485 H   0  0  0  0  0  0  0  0  0  0  0  0
  140.2370   78.6623  216.3015 H   0  0  0  0  0  0  0  0  0  0  0  0
  141.8547   77.0949  217.3734 H   0  0  0  0  0  0  0  0  0  0  0  0
  141.3320   73.8624  218.3483 H   0  0  0  0  0  0  0  0  0  0  0  0
  142.4415   77.3362  219.2922 H   0  0  0  0  0  0  0  0  0  0  0  0
  144.8180   77.0650  220.2680 H   0  0  0  0  0  0  0  0  0  0  0  0
  146.4102   74.9856  221.1007 H   0  0  0  0  0  0  0  0  0  0  0  0
  146.4598   72.5061  221.3536 H   0  0  0  0  0  0  0  0  0  0  0  0
  144.4758   71.1806  220.6809 H   0  0  0  0  0  0  0  0  0  0  0  0
  142.4633   72.2707  219.7731 H   0  0  0  0  0  0  0  0  0  0  0  0
  1  2  2  0
  2  3  2  0
  2  4  1  0
  4  5  1  0
  5  6  2  0
  6  7  1  0
  7  8  2  0
  8  9  1  0
  9 10  2  0
  2 11  1  0
 11 12  1  0
 12 13  1  0
 13 14  2  0
 14 15  1  0
 15 16  2  0
 16 17  1  0
 17 18  2  0
 18 19  1  0
 19 20  1  0
 20 21  2  0
 21 22  1  0
 22 23  1  0
 23 24  2  0
 24 25  1  0
 25 26  2  0
 26 27  1  0
 27 28  2  0
 10  5  1  0
 19 11  1  0
 28 20  1  0
 18 13  1  0
 28 23  1  0
  4 29  1  0
  4 30  1  0
  6 31  1  0
  7 32  1  0
  8 33  1  0
  9 34  1  0
 10 35  1  0
 12 36  1  0
 12 37  1  0
 14 38  1  0
 15 39  1  0
 16 40  1  0
 17 41  1  0
 19 42  1  6
 21 43  1  0
 22 44  1  0
 24 45  1  0
 25 46  1  0
 26 47  1  0
 27 48  1  0
M  END
>  <smiles>  (65) 
O=S(=O)(Cc1ccccc1)N1Cc2ccccc2C1c1c[nH]c2ccccc12

>  <score_type>  (65) 
oracle

>  <origin>  (65) 
autodockgpu

>  <m_score__min__energy>  (65) 
-7.54

>  <m_primary>  (65) 
energy

>  <rmsd>  (65) 
7.061969641059255

>  <m_score__min__rmsd>  (65) 
7.061969641059255

>  <meeko>  (65) 
{"free_energy": -6.63, "intermolecular_energy": -7.82, "internal_energy": -2.27, "cluster_size": 5, "cluster_id": 5, "rank_in_cluster": 5}

>  <energy>  (65) 
-7.2

>  <cluster_rmsd>  (65) 
0.23

>  <cluster>  (65) 
3

$$$$

     RDKit          3D

 48 52  0  0  1  0  0  0  0  0999 V2000
  138.5610   77.3740  220.2790 O   0  0  0  0  0  0  0  0  0  0  0  0
  138.8350   78.6870  220.9370 S   0  0  0  0  0  0  0  0  0  0  0  0
  137.6400   79.5890  220.6640 O   0  0  0  0  0  0  0  0  0  0  0  0
  138.9280   78.3990  222.6850 C   0  0  0  0  0  0  0  0  0  0  0  0
  138.1400   79.4140  223.4390 C   0  0  0  0  0  0  0  0  0  0  0  0
  138.7700   80.4060  224.1960 C   0  0  0  0  0  0  0  0  0  0  0  0
  137.9630   81.2920  224.8520 C   0  0  0  0  0  0  0  0  0  0  0  0
  136.5860   81.2700  224.8150 C   0  0  0  0  0  0  0  0  0  0  0  0
  135.9630   80.2860  224.0640 C   0  0  0  0  0  0  0  0  0  0  0  0
  136.7560   79.3930  223.4030 C   0  0  0  0  0  0  0  0  0  0  0  0
  140.2060   79.4090  220.2910 N   0  0  0  0  0  0  0  0  0  0  0  0
  140.3470   80.8100  220.5320 C   0  0  0  0  0  0  0  0  0  0  0  0
  141.1740   80.8490  221.7650 C   0  0  0  0  0  0  0  0  0  0  0  0
  141.3530   81.7930  222.7800 C   0  0  0  0  0  0  0  0  0  0  0  0
  142.2260   81.5370  223.8390 C   0  0  0  0  0  0  0  0  0  0  0  0
  142.9310   80.3320  223.8910 C   0  0  0  0  0  0  0  0  0  0  0  0
  142.7470   79.3970  222.8790 C   0  0  0  0  0  0  0  0  0  0  0  0
  141.8720   79.6620  221.8260 C   0  0  0  0  0  0  0  0  0  0  0  0
  141.4700   78.8670  220.6100 C   0  0  1  0  0  0  0  0  0  0  0  0
  141.5730   77.4340  220.8330 C   0  0  0  0  0  0  0  0  0  0  0  0
  141.0640   76.6010  221.8050 C   0  0  0  0  0  0  0  0  0  0  0  0
  141.4490   75.3290  221.5940 N   0  0  0  0  0  0  0  0  0  0  0  0
  142.2110   75.2880  220.4930 C   0  0  0  0  0  0  0  0  0  0  0  0
  142.8240   74.2080  219.8960 C   0  0  0  0  0  0  0  0  0  0  0  0
  143.5660   74.4140  218.7580 C   0  0  0  0  0  0  0  0  0  0  0  0
  143.6730   75.6960  218.2500 C   0  0  0  0  0  0  0  0  0  0  0  0
  143.0540   76.7670  218.8560 C   0  0  0  0  0  0  0  0  0  0  0  0
  142.3050   76.5760  220.0010 C   0  0  0  0  0  0  0  0  0  0  0  0
  138.5290   77.3980  222.9058 H   0  0  0  0  0  0  0  0  0  0  0  0
  139.9806   78.4730  222.9955 H   0  0  0  0  0  0  0  0  0  0  0  0
  139.8662   80.4704  224.2606 H   0  0  0  0  0  0  0  0  0  0  0  0
  138.4463   82.0776  225.4514 H   0  0  0  0  0  0  0  0  0  0  0  0
  135.9955   82.0153  225.3681 H   0  0  0  0  0  0  0  0  0  0  0  0
  134.8663   80.2266  224.0026 H   0  0  0  0  0  0  0  0  0  0  0  0
  136.2662   78.6097  222.8059 H   0  0  0  0  0  0  0  0  0  0  0  0
  140.8596   81.3066  219.6950 H   0  0  0  0  0  0  0  0  0  0  0  0
  139.3851   81.3335  220.6355 H   0  0  0  0  0  0  0  0  0  0  0  0
  140.8021   82.7444  222.7442 H   0  0  0  0  0  0  0  0  0  0  0  0
  142.3590   82.2855  224.6340 H   0  0  0  0  0  0  0  0  0  0  0  0
  143.6223   80.1259  224.7215 H   0  0  0  0  0  0  0  0  0  0  0  0
  143.2943   78.4433  222.9089 H   0  0  0  0  0  0  0  0  0  0  0  0
  142.1333   78.9554  219.7370 H   0  0  0  0  0  0  0  0  0  0  0  0
  140.4289   76.9309  222.6404 H   0  0  0  0  0  0  0  0  0  0  0  0
  141.1910   74.5030  222.1970 H   0  0  0  0  0  0  0  0  0  0  0  0
  142.7213   73.1993  220.3226 H   0  0  0  0  0  0  0  0  0  0  0  0
  144.0674   73.5719  218.2585 H   0  0  0  0  0  0  0  0  0  0  0  0
  144.2670   75.8645  217.3397 H   0  0  0  0  0  0  0  0  0  0  0  0
  143.1562   77.7751  218.4279 H   0  0  0  0  0  0  0  0  0  0  0  0
  1  2  2  0
  2  3  2  0
  2  4  1  0
  4  5  1  0
  5  6  2  0
  6  7  1  0
  7  8  2  0
  8  9  1  0
  9 10  2  0
  2 11  1  0
 11 12  1  0
 12 13  1  0
 13 14  2  0
 14 15  1  0
 15 16  2  0
 16 17  1  0
 17 18  2  0
 18 19  1  0
 19 20  1  0
 20 21  2  0
 21 22  1  0
 22 23  1  0
 23 24  2  0
 24 25  1  0
 25 26  2  0
 26 27  1  0
 27 28  2  0
 10  5  1  0
 19 11  1  0
 28 20  1  0
 18 13  1  0
 28 23  1  0
  4 29  1  0
  4 30  1  0
  6 31  1  0
  7 32  1  0
  8 33  1  0
  9 34  1  0
 10 35  1  0
 12 36  1  0
 12 37  1  0
 14 38  1  0
 15 39  1  0
 16 40  1  0
 17 41  1  0
 19 42  1  6
 21 43  1  0
 22 44  1  0
 24 45  1  0
 25 46  1  0
 26 47  1  0
 27 48  1  0
M  END
>  <smiles>  (66) 
O=S(=O)(Cc1ccccc1)N1Cc2ccccc2C1c1c[nH]c2ccccc12

>  <score_type>  (66) 
oracle

>  <origin>  (66) 
autodockgpu

>  <m_score__min__energy>  (66) 
-7.54

>  <m_primary>  (66) 
energy

>  <rmsd>  (66) 
6.7663636584612155

>  <m_score__min__rmsd>  (66) 
6.7663636584612155

>  <meeko>  (66) 
{"free_energy": -6.9, "intermolecular_energy": -8.09, "internal_energy": -1.85, "cluster_size": 11, "cluster_id": 1, "rank_in_cluster": 6}

>  <energy>  (66) 
-7.17

>  <cluster_rmsd>  (66) 
0.19

>  <cluster>  (66) 
3

$$$$

     RDKit          3D

 48 52  0  0  1  0  0  0  0  0999 V2000
  141.4430   75.1110  221.9600 O   0  0  0  0  0  0  0  0  0  0  0  0
  140.0510   75.0380  221.4240 S   0  0  0  0  0  0  0  0  0  0  0  0
  139.2590   74.1190  222.3420 O   0  0  0  0  0  0  0  0  0  0  0  0
  139.3530   76.6660  221.5280 C   0  0  0  0  0  0  0  0  0  0  0  0
  140.4030   77.6840  221.8090 C   0  0  0  0  0  0  0  0  0  0  0  0
  140.8520   78.5570  220.8130 C   0  0  0  0  0  0  0  0  0  0  0  0
  141.8180   79.4560  221.1660 C   0  0  0  0  0  0  0  0  0  0  0  0
  142.3710   79.5560  222.4240 C   0  0  0  0  0  0  0  0  0  0  0  0
  141.9260   78.6890  223.4090 C   0  0  0  0  0  0  0  0  0  0  0  0
  140.9610   77.7840  223.0720 C   0  0  0  0  0  0  0  0  0  0  0  0
  140.0340   74.3880  219.8760 N   0  0  0  0  0  0  0  0  0  0  0  0
  138.7930   74.4730  219.1760 C   0  0  0  0  0  0  0  0  0  0  0  0
  138.9350   75.7360  218.4070 C   0  0  0  0  0  0  0  0  0  0  0  0
  138.0230   76.6420  217.8600 C   0  0  0  0  0  0  0  0  0  0  0  0
  138.4720   77.7690  217.1690 C   0  0  0  0  0  0  0  0  0  0  0  0
  139.8420   77.9980  217.0190 C   0  0  0  0  0  0  0  0  0  0  0  0
  140.7440   77.0940  217.5660 C   0  0  0  0  0  0  0  0  0  0  0  0
  140.2840   75.9710  218.2550 C   0  0  0  0  0  0  0  0  0  0  0  0
  140.9960   74.8360  218.9440 C   0  0  1  0  0  0  0  0  0  0  0  0
  142.3070   75.2290  219.4370 C   0  0  0  0  0  0  0  0  0  0  0  0
  142.9250   76.4510  219.5740 C   0  0  0  0  0  0  0  0  0  0  0  0
  144.1670   76.3070  220.0720 N   0  0  0  0  0  0  0  0  0  0  0  0
  144.3990   75.0030  220.2740 C   0  0  0  0  0  0  0  0  0  0  0  0
  145.5270   74.3840  220.7690 C   0  0  0  0  0  0  0  0  0  0  0  0
  145.5310   73.0140  220.8870 C   0  0  0  0  0  0  0  0  0  0  0  0
  144.4060   72.3040  220.5070 C   0  0  0  0  0  0  0  0  0  0  0  0
  143.2860   72.9360  220.0160 C   0  0  0  0  0  0  0  0  0  0  0  0
  143.2650   74.3120  219.8900 C   0  0  0  0  0  0  0  0  0  0  0  0
  138.8641   76.9087  220.5730 H   0  0  0  0  0  0  0  0  0  0  0  0
  138.6236   76.6808  222.3512 H   0  0  0  0  0  0  0  0  0  0  0  0
  140.4456   78.5213  219.7914 H   0  0  0  0  0  0  0  0  0  0  0  0
  142.1797   80.1486  220.3917 H   0  0  0  0  0  0  0  0  0  0  0  0
  143.1464   80.3054  222.6410 H   0  0  0  0  0  0  0  0  0  0  0  0
  142.3366   78.7286  224.4287 H   0  0  0  0  0  0  0  0  0  0  0  0
  140.6056   77.0930  223.8506 H   0  0  0  0  0  0  0  0  0  0  0  0
  138.6575   73.6129  218.5038 H   0  0  0  0  0  0  0  0  0  0  0  0
  137.9165   74.4639  219.8406 H   0  0  0  0  0  0  0  0  0  0  0  0
  136.9432   76.4661  217.9746 H   0  0  0  0  0  0  0  0  0  0  0  0
  137.7465   78.4772  216.7423 H   0  0  0  0  0  0  0  0  0  0  0  0
  140.2021   78.8833  216.4744 H   0  0  0  0  0  0  0  0  0  0  0  0
  141.8251   77.2641  217.4556 H   0  0  0  0  0  0  0  0  0  0  0  0
  141.2963   73.9962  218.3002 H   0  0  0  0  0  0  0  0  0  0  0  0
  142.4657   77.4155  219.3118 H   0  0  0  0  0  0  0  0  0  0  0  0
  144.8430   77.0920  220.2700 H   0  0  0  0  0  0  0  0  0  0  0  0
  146.4069   74.9747  221.0639 H   0  0  0  0  0  0  0  0  0  0  0  0
  146.4158   72.4902  221.2778 H   0  0  0  0  0  0  0  0  0  0  0  0
  144.4066   71.2079  220.5995 H   0  0  0  0  0  0  0  0  0  0  0  0
  142.4059   72.3445  219.7234 H   0  0  0  0  0  0  0  0  0  0  0  0
  1  2  2  0
  2  3  2  0
  2  4  1  0
  4  5  1  0
  5  6  2  0
  6  7  1  0
  7  8  2  0
  8  9  1  0
  9 10  2  0
  2 11  1  0
 11 12  1  0
 12 13  1  0
 13 14  2  0
 14 15  1  0
 15 16  2  0
 16 17  1  0
 17 18  2  0
 18 19  1  0
 19 20  1  0
 20 21  2  0
 21 22  1  0
 22 23  1  0
 23 24  2  0
 24 25  1  0
 25 26  2  0
 26 27  1  0
 27 28  2  0
 10  5  1  0
 19 11  1  0
 28 20  1  0
 18 13  1  0
 28 23  1  0
  4 29  1  0
  4 30  1  0
  6 31  1  0
  7 32  1  0
  8 33  1  0
  9 34  1  0
 10 35  1  0
 12 36  1  0
 12 37  1  0
 14 38  1  0
 15 39  1  0
 16 40  1  0
 17 41  1  0
 19 42  1  6
 21 43  1  0
 22 44  1  0
 24 45  1  0
 25 46  1  0
 26 47  1  0
 27 48  1  0
M  END
>  <smiles>  (67) 
O=S(=O)(Cc1ccccc1)N1Cc2ccccc2C1c1c[nH]c2ccccc12

>  <score_type>  (67) 
oracle

>  <origin>  (67) 
autodockgpu

>  <m_score__min__energy>  (67) 
-7.54

>  <m_primary>  (67) 
energy

>  <rmsd>  (67) 
7.027993138184143

>  <m_score__min__rmsd>  (67) 
7.027993138184143

>  <meeko>  (67) 
{"free_energy": -6.64, "intermolecular_energy": -7.84, "internal_energy": -2.29, "cluster_size": 19, "cluster_id": 4, "rank_in_cluster": 15}

>  <energy>  (67) 
-7.17

>  <cluster_rmsd>  (67) 
0.32

>  <cluster>  (67) 
3

$$$$

     RDKit          3D

 48 52  0  0  1  0  0  0  0  0999 V2000
  141.4510   76.5620  222.0930 O   0  0  0  0  0  0  0  0  0  0  0  0
  139.9840   76.5800  221.8100 S   0  0  0  0  0  0  0  0  0  0  0  0
  139.4090   75.2680  222.3230 O   0  0  0  0  0  0  0  0  0  0  0  0
  139.2740   77.9050  222.7520 C   0  0  0  0  0  0  0  0  0  0  0  0
  140.2630   78.9980  222.9710 C   0  0  0  0  0  0  0  0  0  0  0  0
  141.4660   78.7640  223.6460 C   0  0  0  0  0  0  0  0  0  0  0  0
  142.3080   79.8280  223.7980 C   0  0  0  0  0  0  0  0  0  0  0  0
  142.0520   81.1010  223.3350 C   0  0  0  0  0  0  0  0  0  0  0  0
  140.8600   81.3310  222.6680 C   0  0  0  0  0  0  0  0  0  0  0  0
  140.0070   80.2770  222.5080 C   0  0  0  0  0  0  0  0  0  0  0  0
  139.6900   76.6830  220.1610 N   0  0  0  0  0  0  0  0  0  0  0  0
  138.8730   77.7750  219.7390 C   0  0  0  0  0  0  0  0  0  0  0  0
  139.8720   78.8210  219.4030 C   0  0  0  0  0  0  0  0  0  0  0  0
  139.8250   80.2160  219.3320 C   0  0  0  0  0  0  0  0  0  0  0  0
  140.9610   80.9450  218.9750 C   0  0  0  0  0  0  0  0  0  0  0  0
  142.1560   80.2840  218.6840 C   0  0  0  0  0  0  0  0  0  0  0  0
  142.1960   78.8960  218.7560 C   0  0  0  0  0  0  0  0  0  0  0  0
  141.0560   78.1770  219.1140 C   0  0  0  0  0  0  0  0  0  0  0  0
  140.7900   76.7020  219.2770 C   0  0  1  0  0  0  0  0  0  0  0  0
  141.9890   75.9660  219.6470 C   0  0  0  0  0  0  0  0  0  0  0  0
  143.3220   76.3100  219.6870 C   0  0  0  0  0  0  0  0  0  0  0  0
  144.0730   75.2690  220.0880 N   0  0  0  0  0  0  0  0  0  0  0  0
  143.2680   74.2240  220.3220 C   0  0  0  0  0  0  0  0  0  0  0  0
  143.5900   72.9540  220.7480 C   0  0  0  0  0  0  0  0  0  0  0  0
  142.5790   72.0370  220.9190 C   0  0  0  0  0  0  0  0  0  0  0  0
  141.2750   72.4210  220.6590 C   0  0  0  0  0  0  0  0  0  0  0  0
  140.9680   73.6940  220.2340 C   0  0  0  0  0  0  0  0  0  0  0  0
  141.9730   74.6260  220.0580 C   0  0  0  0  0  0  0  0  0  0  0  0
  138.4074   78.3085  222.2078 H   0  0  0  0  0  0  0  0  0  0  0  0
  138.9662   77.5110  223.7318 H   0  0  0  0  0  0  0  0  0  0  0  0
  141.7218   77.7680  224.0365 H   0  0  0  0  0  0  0  0  0  0  0  0
  143.2572   79.6575  224.3270 H   0  0  0  0  0  0  0  0  0  0  0  0
  142.7764   81.9139  223.4914 H   0  0  0  0  0  0  0  0  0  0  0  0
  140.6090   82.3293  222.2802 H   0  0  0  0  0  0  0  0  0  0  0  0
  139.0590   80.4551  221.9792 H   0  0  0  0  0  0  0  0  0  0  0  0
  138.2720   77.5034  218.8586 H   0  0  0  0  0  0  0  0  0  0  0  0
  138.1458   78.0949  220.4998 H   0  0  0  0  0  0  0  0  0  0  0  0
  138.8866   80.7432  219.5589 H   0  0  0  0  0  0  0  0  0  0  0  0
  140.9145   82.0428  218.9229 H   0  0  0  0  0  0  0  0  0  0  0  0
  143.0537   80.8536  218.4016 H   0  0  0  0  0  0  0  0  0  0  0  0
  143.1310   78.3627  218.5295 H   0  0  0  0  0  0  0  0  0  0  0  0
  140.5270   76.1565  218.3587 H   0  0  0  0  0  0  0  0  0  0  0  0
  143.7188   77.3022  219.4262 H   0  0  0  0  0  0  0  0  0  0  0  0
  145.1220   75.2780  220.2010 H   0  0  0  0  0  0  0  0  0  0  0  0
  144.6360   72.6784  220.9477 H   0  0  0  0  0  0  0  0  0  0  0  0
  142.8034   71.0146  221.2571 H   0  0  0  0  0  0  0  0  0  0  0  0
  140.4636   71.6909  220.7953 H   0  0  0  0  0  0  0  0  0  0  0  0
  139.9219   73.9694  220.0344 H   0  0  0  0  0  0  0  0  0  0  0  0
  1  2  2  0
  2  3  2  0
  2  4  1  0
  4  5  1  0
  5  6  2  0
  6  7  1  0
  7  8  2  0
  8  9  1  0
  9 10  2  0
  2 11  1  0
 11 12  1  0
 12 13  1  0
 13 14  2  0
 14 15  1  0
 15 16  2  0
 16 17  1  0
 17 18  2  0
 18 19  1  0
 19 20  1  0
 20 21  2  0
 21 22  1  0
 22 23  1  0
 23 24  2  0
 24 25  1  0
 25 26  2  0
 26 27  1  0
 27 28  2  0
 10  5  1  0
 19 11  1  0
 28 20  1  0
 18 13  1  0
 28 23  1  0
  4 29  1  0
  4 30  1  0
  6 31  1  0
  7 32  1  0
  8 33  1  0
  9 34  1  0
 10 35  1  0
 12 36  1  0
 12 37  1  0
 14 38  1  0
 15 39  1  0
 16 40  1  0
 17 41  1  0
 19 42  1  6
 21 43  1  0
 22 44  1  0
 24 45  1  0
 25 46  1  0
 26 47  1  0
 27 48  1  0
M  END
>  <smiles>  (68) 
O=S(=O)(Cc1ccccc1)N1Cc2ccccc2C1c1c[nH]c2ccccc12

>  <score_type>  (68) 
oracle

>  <origin>  (68) 
autodockgpu

>  <m_score__min__energy>  (68) 
-7.54

>  <m_primary>  (68) 
energy

>  <rmsd>  (68) 
6.709654156359294

>  <m_score__min__rmsd>  (68) 
6.709654156359294

>  <meeko>  (68) 
{"free_energy": -6.87, "intermolecular_energy": -8.07, "internal_energy": -1.93, "cluster_size": 5, "cluster_id": 5, "rank_in_cluster": 2}

>  <energy>  (68) 
-7.17

>  <cluster_rmsd>  (68) 
0.26

>  <cluster>  (68) 
3

$$$$

     RDKit          3D

 48 52  0  0  1  0  0  0  0  0999 V2000
  139.1560   67.7720  225.0010 O   0  0  0  0  0  0  0  0  0  0  0  0
  138.9290   68.9750  224.1450 S   0  0  0  0  0  0  0  0  0  0  0  0
  137.6910   69.6830  224.6770 O   0  0  0  0  0  0  0  0  0  0  0  0
  140.3210   70.0520  224.3570 C   0  0  0  0  0  0  0  0  0  0  0  0
  140.3750   70.5940  225.7440 C   0  0  0  0  0  0  0  0  0  0  0  0
  140.9860   71.8200  226.0220 C   0  0  0  0  0  0  0  0  0  0  0  0
  140.9860   72.2330  227.3230 C   0  0  0  0  0  0  0  0  0  0  0  0
  140.4290   71.5260  228.3680 C   0  0  0  0  0  0  0  0  0  0  0  0
  139.8250   70.3100  228.0910 C   0  0  0  0  0  0  0  0  0  0  0  0
  139.8170   69.8840  226.7940 C   0  0  0  0  0  0  0  0  0  0  0  0
  138.6450   68.5340  222.5500 N   0  0  0  0  0  0  0  0  0  0  0  0
  137.7670   67.4250  222.3540 C   0  0  0  0  0  0  0  0  0  0  0  0
  136.4460   68.0800  222.1780 C   0  0  0  0  0  0  0  0  0  0  0  0
  135.1260   67.6580  222.3580 C   0  0  0  0  0  0  0  0  0  0  0  0
  134.0640   68.5260  222.1000 C   0  0  0  0  0  0  0  0  0  0  0  0
  134.3130   69.8270  221.6580 C   0  0  0  0  0  0  0  0  0  0  0  0
  135.6290   70.2410  221.4820 C   0  0  0  0  0  0  0  0  0  0  0  0
  136.6830   69.3650  221.7430 C   0  0  0  0  0  0  0  0  0  0  0  0
  138.1800   69.5160  221.6490 C   0  0  1  0  0  0  0  0  0  0  0  0
  138.6060   70.8930  221.8450 C   0  0  0  0  0  0  0  0  0  0  0  0
  137.9970   71.9870  222.4160 C   0  0  0  0  0  0  0  0  0  0  0  0
  138.7940   73.0690  222.3490 N   0  0  0  0  0  0  0  0  0  0  0  0
  139.9370   72.7220  221.7410 C   0  0  0  0  0  0  0  0  0  0  0  0
  141.0410   73.4950  221.4540 C   0  0  0  0  0  0  0  0  0  0  0  0
  142.1090   72.9110  220.8140 C   0  0  0  0  0  0  0  0  0  0  0  0
  142.0390   71.5690  220.4810 C   0  0  0  0  0  0  0  0  0  0  0  0
  140.9300   70.8090  220.7750 C   0  0  0  0  0  0  0  0  0  0  0  0
  139.8480   71.3810  221.4180 C   0  0  0  0  0  0  0  0  0  0  0  0
  141.2444   69.4893  224.1552 H   0  0  0  0  0  0  0  0  0  0  0  0
  140.2201   70.8944  223.6569 H   0  0  0  0  0  0  0  0  0  0  0  0
  141.4465   72.4253  225.2274 H   0  0  0  0  0  0  0  0  0  0  0  0
  141.4634   73.1967  227.5540 H   0  0  0  0  0  0  0  0  0  0  0  0
  140.4634   71.9175  229.3954 H   0  0  0  0  0  0  0  0  0  0  0  0
  139.3672   69.7079  228.8897 H   0  0  0  0  0  0  0  0  0  0  0  0
  139.3388   68.9192  226.5695 H   0  0  0  0  0  0  0  0  0  0  0  0
  138.0473   66.8509  221.4586 H   0  0  0  0  0  0  0  0  0  0  0  0
  137.7878   66.7009  223.1818 H   0  0  0  0  0  0  0  0  0  0  0  0
  134.9226   66.6344  222.7055 H   0  0  0  0  0  0  0  0  0  0  0  0
  133.0285   68.1845  222.2452 H   0  0  0  0  0  0  0  0  0  0  0  0
  133.4798   70.5149  221.4519 H   0  0  0  0  0  0  0  0  0  0  0  0
  135.8397   71.2635  221.1355 H   0  0  0  0  0  0  0  0  0  0  0  0
  138.6202   69.3370  220.6570 H   0  0  0  0  0  0  0  0  0  0  0  0
  136.9936   71.9781  222.8666 H   0  0  0  0  0  0  0  0  0  0  0  0
  138.5580   74.0280  222.7170 H   0  0  0  0  0  0  0  0  0  0  0  0
  141.0676   74.5591  221.7315 H   0  0  0  0  0  0  0  0  0  0  0  0
  143.0049   73.5010  220.5704 H   0  0  0  0  0  0  0  0  0  0  0  0
  142.8911   71.0985  219.9686 H   0  0  0  0  0  0  0  0  0  0  0  0
  140.9044   69.7448  220.4979 H   0  0  0  0  0  0  0  0  0  0  0  0
  1  2  2  0
  2  3  2  0
  2  4  1  0
  4  5  1  0
  5  6  2  0
  6  7  1  0
  7  8  2  0
  8  9  1  0
  9 10  2  0
  2 11  1  0
 11 12  1  0
 12 13  1  0
 13 14  2  0
 14 15  1  0
 15 16  2  0
 16 17  1  0
 17 18  2  0
 18 19  1  0
 19 20  1  0
 20 21  2  0
 21 22  1  0
 22 23  1  0
 23 24  2  0
 24 25  1  0
 25 26  2  0
 26 27  1  0
 27 28  2  0
 10  5  1  0
 19 11  1  0
 28 20  1  0
 18 13  1  0
 28 23  1  0
  4 29  1  0
  4 30  1  0
  6 31  1  0
  7 32  1  0
  8 33  1  0
  9 34  1  0
 10 35  1  0
 12 36  1  0
 12 37  1  0
 14 38  1  0
 15 39  1  0
 16 40  1  0
 17 41  1  0
 19 42  1  6
 21 43  1  0
 22 44  1  0
 24 45  1  0
 25 46  1  0
 26 47  1  0
 27 48  1  0
M  END
>  <smiles>  (69) 
O=S(=O)(Cc1ccccc1)N1Cc2ccccc2C1c1c[nH]c2ccccc12

>  <score_type>  (69) 
oracle

>  <origin>  (69) 
autodockgpu

>  <m_score__min__energy>  (69) 
-7.54

>  <m_primary>  (69) 
energy

>  <rmsd>  (69) 
10.666070977476284

>  <m_score__min__rmsd>  (69) 
10.666070977476284

>  <meeko>  (69) 
{"free_energy": -7.11, "intermolecular_energy": -8.3, "internal_energy": -1.85, "cluster_size": 13, "cluster_id": 3, "rank_in_cluster": 10}

>  <energy>  (69) 
-7.16

>  <cluster_rmsd>  (69) 
0.35

>  <cluster>  (69) 
3

$$$$

     RDKit          3D

 48 52  0  0  1  0  0  0  0  0999 V2000
  139.2030   67.7700  225.0590 O   0  0  0  0  0  0  0  0  0  0  0  0
  139.0090   68.9560  224.1720 S   0  0  0  0  0  0  0  0  0  0  0  0
  137.7390   69.6600  224.6290 O   0  0  0  0  0  0  0  0  0  0  0  0
  140.3790   70.0510  224.4360 C   0  0  0  0  0  0  0  0  0  0  0  0
  140.3910   70.5690  225.8330 C   0  0  0  0  0  0  0  0  0  0  0  0
  139.7700   69.8690  226.8720 C   0  0  0  0  0  0  0  0  0  0  0  0
  139.8350   70.4230  228.1190 C   0  0  0  0  0  0  0  0  0  0  0  0
  140.4660   71.6130  228.4140 C   0  0  0  0  0  0  0  0  0  0  0  0
  141.0800   72.3050  227.3830 C   0  0  0  0  0  0  0  0  0  0  0  0
  141.0240   71.7640  226.1310 C   0  0  0  0  0  0  0  0  0  0  0  0
  138.8110   68.4850  222.5720 N   0  0  0  0  0  0  0  0  0  0  0  0
  138.0220   67.3150  222.3580 C   0  0  0  0  0  0  0  0  0  0  0  0
  136.6640   67.8720  222.1330 C   0  0  0  0  0  0  0  0  0  0  0  0
  135.3720   67.3560  222.2730 C   0  0  0  0  0  0  0  0  0  0  0  0
  134.2590   68.1440  221.9730 C   0  0  0  0  0  0  0  0  0  0  0  0
  134.4290   69.4570  221.5280 C   0  0  0  0  0  0  0  0  0  0  0  0
  135.7170   69.9640  221.3920 C   0  0  0  0  0  0  0  0  0  0  0  0
  136.8220   69.1680  221.6940 C   0  0  0  0  0  0  0  0  0  0  0  0
  138.3060   69.4260  221.6480 C   0  0  1  0  0  0  0  0  0  0  0  0
  138.6260   70.8310  221.8460 C   0  0  0  0  0  0  0  0  0  0  0  0
  137.9250   71.8800  222.3990 C   0  0  0  0  0  0  0  0  0  0  0  0
  138.6420   73.0170  222.3430 N   0  0  0  0  0  0  0  0  0  0  0  0
  139.8200   72.7530  221.7610 C   0  0  0  0  0  0  0  0  0  0  0  0
  140.8700   73.6040  221.4930 C   0  0  0  0  0  0  0  0  0  0  0  0
  141.9920   73.0980  220.8790 C   0  0  0  0  0  0  0  0  0  0  0  0
  142.0280   71.7540  220.5520 C   0  0  0  0  0  0  0  0  0  0  0  0
  140.9720   70.9150  220.8260 C   0  0  0  0  0  0  0  0  0  0  0  0
  139.8380   71.4080  221.4430 C   0  0  0  0  0  0  0  0  0  0  0  0
  141.3158   69.5063  224.2469 H   0  0  0  0  0  0  0  0  0  0  0  0
  140.2817   70.9039  223.7482 H   0  0  0  0  0  0  0  0  0  0  0  0
  139.2523   68.9150  226.6933 H   0  0  0  0  0  0  0  0  0  0  0  0
  139.3503   69.8822  228.9452 H   0  0  0  0  0  0  0  0  0  0  0  0
  140.4814   72.0031  229.4424 H   0  0  0  0  0  0  0  0  0  0  0  0
  141.5957   73.2590  227.5671 H   0  0  0  0  0  0  0  0  0  0  0  0
  141.5109   72.3101  225.3096 H   0  0  0  0  0  0  0  0  0  0  0  0
  138.3722   66.7563  221.4775 H   0  0  0  0  0  0  0  0  0  0  0  0
  138.0671   66.6001  223.1928 H   0  0  0  0  0  0  0  0  0  0  0  0
  135.2314   66.3223  222.6218 H   0  0  0  0  0  0  0  0  0  0  0  0
  133.2464   67.7299  222.0874 H   0  0  0  0  0  0  0  0  0  0  0  0
  133.5559   70.0817  221.2883 H   0  0  0  0  0  0  0  0  0  0  0  0
  135.8649   70.9972  221.0448 H   0  0  0  0  0  0  0  0  0  0  0  0
  138.7900   69.2734  220.6721 H   0  0  0  0  0  0  0  0  0  0  0  0
  136.9155   71.7990  222.8283 H   0  0  0  0  0  0  0  0  0  0  0  0
  138.3280   73.9580  222.7010 H   0  0  0  0  0  0  0  0  0  0  0  0
  140.8120   74.6683  221.7650 H   0  0  0  0  0  0  0  0  0  0  0  0
  142.8471   73.7515  220.6515 H   0  0  0  0  0  0  0  0  0  0  0  0
  142.9234   71.3457  220.0605 H   0  0  0  0  0  0  0  0  0  0  0  0
  141.0307   69.8509  220.5536 H   0  0  0  0  0  0  0  0  0  0  0  0
  1  2  2  0
  2  3  2  0
  2  4  1  0
  4  5  1  0
  5  6  2  0
  6  7  1  0
  7  8  2  0
  8  9  1  0
  9 10  2  0
  2 11  1  0
 11 12  1  0
 12 13  1  0
 13 14  2  0
 14 15  1  0
 15 16  2  0
 16 17  1  0
 17 18  2  0
 18 19  1  0
 19 20  1  0
 20 21  2  0
 21 22  1  0
 22 23  1  0
 23 24  2  0
 24 25  1  0
 25 26  2  0
 26 27  1  0
 27 28  2  0
 10  5  1  0
 19 11  1  0
 28 20  1  0
 18 13  1  0
 28 23  1  0
  4 29  1  0
  4 30  1  0
  6 31  1  0
  7 32  1  0
  8 33  1  0
  9 34  1  0
 10 35  1  0
 12 36  1  0
 12 37  1  0
 14 38  1  0
 15 39  1  0
 16 40  1  0
 17 41  1  0
 19 42  1  6
 21 43  1  0
 22 44  1  0
 24 45  1  0
 25 46  1  0
 26 47  1  0
 27 48  1  0
M  END
>  <smiles>  (70) 
O=S(=O)(Cc1ccccc1)N1Cc2ccccc2C1c1c[nH]c2ccccc12

>  <score_type>  (70) 
oracle

>  <origin>  (70) 
autodockgpu

>  <m_score__min__energy>  (70) 
-7.54

>  <m_primary>  (70) 
energy

>  <rmsd>  (70) 
10.688637391755625

>  <m_score__min__rmsd>  (70) 
10.688637391755625

>  <meeko>  (70) 
{"free_energy": -7.17, "intermolecular_energy": -8.37, "internal_energy": -1.82, "cluster_size": 13, "cluster_id": 3, "rank_in_cluster": 3}

>  <energy>  (70) 
-7.15

>  <cluster_rmsd>  (70) 
0.2

>  <cluster>  (70) 
3

$$$$

     RDKit          3D

 48 52  0  0  1  0  0  0  0  0999 V2000
  141.4400   75.1210  221.9660 O   0  0  0  0  0  0  0  0  0  0  0  0
  140.0490   75.0530  221.4240 S   0  0  0  0  0  0  0  0  0  0  0  0
  139.2490   74.1430  222.3440 O   0  0  0  0  0  0  0  0  0  0  0  0
  139.3600   76.6850  221.5190 C   0  0  0  0  0  0  0  0  0  0  0  0
  140.4110   77.6960  221.8240 C   0  0  0  0  0  0  0  0  0  0  0  0
  140.8770   78.5770  220.8440 C   0  0  0  0  0  0  0  0  0  0  0  0
  141.8420   79.4680  221.2190 C   0  0  0  0  0  0  0  0  0  0  0  0
  142.3780   79.5520  222.4860 C   0  0  0  0  0  0  0  0  0  0  0  0
  141.9160   78.6770  223.4550 C   0  0  0  0  0  0  0  0  0  0  0  0
  140.9510   77.7810  223.0960 C   0  0  0  0  0  0  0  0  0  0  0  0
  140.0350   74.3960  219.8790 N   0  0  0  0  0  0  0  0  0  0  0  0
  138.7960   74.4800  219.1760 C   0  0  0  0  0  0  0  0  0  0  0  0
  138.9420   75.7390  218.4020 C   0  0  0  0  0  0  0  0  0  0  0  0
  138.0340   76.6450  217.8480 C   0  0  0  0  0  0  0  0  0  0  0  0
  138.4870   77.7670  217.1530 C   0  0  0  0  0  0  0  0  0  0  0  0
  139.8580   77.9940  217.0050 C   0  0  0  0  0  0  0  0  0  0  0  0
  140.7570   77.0890  217.5590 C   0  0  0  0  0  0  0  0  0  0  0  0
  140.2920   75.9710  218.2520 C   0  0  0  0  0  0  0  0  0  0  0  0
  141.0000   74.8370  218.9480 C   0  0  1  0  0  0  0  0  0  0  0  0
  142.3110   75.2300  219.4420 C   0  0  0  0  0  0  0  0  0  0  0  0
  142.9320   76.4510  219.5760 C   0  0  0  0  0  0  0  0  0  0  0  0
  144.1720   76.3060  220.0770 N   0  0  0  0  0  0  0  0  0  0  0  0
  144.4000   75.0030  220.2860 C   0  0  0  0  0  0  0  0  0  0  0  0
  145.5250   74.3830  220.7860 C   0  0  0  0  0  0  0  0  0  0  0  0
  145.5260   73.0140  220.9110 C   0  0  0  0  0  0  0  0  0  0  0  0
  144.4000   72.3050  220.5320 C   0  0  0  0  0  0  0  0  0  0  0  0
  143.2830   72.9370  220.0340 C   0  0  0  0  0  0  0  0  0  0  0  0
  143.2660   74.3130  219.9020 C   0  0  0  0  0  0  0  0  0  0  0  0
  138.8918   76.9336  220.5552 H   0  0  0  0  0  0  0  0  0  0  0  0
  138.6147   76.7021  222.3278 H   0  0  0  0  0  0  0  0  0  0  0  0
  140.4842   78.5538  219.8168 H   0  0  0  0  0  0  0  0  0  0  0  0
  142.2173   80.1669  220.4570 H   0  0  0  0  0  0  0  0  0  0  0  0
  143.1536   80.2956  222.7217 H   0  0  0  0  0  0  0  0  0  0  0  0
  142.3137   78.7033  224.4803 H   0  0  0  0  0  0  0  0  0  0  0  0
  140.5803   77.0850  223.8629 H   0  0  0  0  0  0  0  0  0  0  0  0
  138.6605   73.6172  218.5073 H   0  0  0  0  0  0  0  0  0  0  0  0
  137.9180   74.4753  219.8386 H   0  0  0  0  0  0  0  0  0  0  0  0
  136.9535   76.4724  217.9606 H   0  0  0  0  0  0  0  0  0  0  0  0
  137.7637   78.4741  216.7208 H   0  0  0  0  0  0  0  0  0  0  0  0
  140.2211   78.8765  216.4578 H   0  0  0  0  0  0  0  0  0  0  0  0
  141.8389   77.2553  217.4504 H   0  0  0  0  0  0  0  0  0  0  0  0
  141.3000   73.9931  218.3094 H   0  0  0  0  0  0  0  0  0  0  0  0
  142.4757   77.4157  219.3093 H   0  0  0  0  0  0  0  0  0  0  0  0
  144.8490   77.0910  220.2730 H   0  0  0  0  0  0  0  0  0  0  0  0
  146.4058   74.9729  221.0796 H   0  0  0  0  0  0  0  0  0  0  0  0
  146.4087   72.4901  221.3064 H   0  0  0  0  0  0  0  0  0  0  0  0
  144.3972   71.2095  220.6310 H   0  0  0  0  0  0  0  0  0  0  0  0
  142.4027   72.3462  219.7407 H   0  0  0  0  0  0  0  0  0  0  0  0
  1  2  2  0
  2  3  2  0
  2  4  1  0
  4  5  1  0
  5  6  2  0
  6  7  1  0
  7  8  2  0
  8  9  1  0
  9 10  2  0
  2 11  1  0
 11 12  1  0
 12 13  1  0
 13 14  2  0
 14 15  1  0
 15 16  2  0
 16 17  1  0
 17 18  2  0
 18 19  1  0
 19 20  1  0
 20 21  2  0
 21 22  1  0
 22 23  1  0
 23 24  2  0
 24 25  1  0
 25 26  2  0
 26 27  1  0
 27 28  2  0
 10  5  1  0
 19 11  1  0
 28 20  1  0
 18 13  1  0
 28 23  1  0
  4 29  1  0
  4 30  1  0
  6 31  1  0
  7 32  1  0
  8 33  1  0
  9 34  1  0
 10 35  1  0
 12 36  1  0
 12 37  1  0
 14 38  1  0
 15 39  1  0
 16 40  1  0
 17 41  1  0
 19 42  1  6
 21 43  1  0
 22 44  1  0
 24 45  1  0
 25 46  1  0
 26 47  1  0
 27 48  1  0
M  END
>  <smiles>  (71) 
O=S(=O)(Cc1ccccc1)N1Cc2ccccc2C1c1c[nH]c2ccccc12

>  <score_type>  (71) 
oracle

>  <origin>  (71) 
autodockgpu

>  <m_score__min__energy>  (71) 
-7.54

>  <m_primary>  (71) 
energy

>  <rmsd>  (71) 
7.025330134677383

>  <m_score__min__rmsd>  (71) 
7.025330134677383

>  <meeko>  (71) 
{"free_energy": -6.66, "intermolecular_energy": -7.86, "internal_energy": -2.28, "cluster_size": 19, "cluster_id": 4, "rank_in_cluster": 13}

>  <energy>  (71) 
-7.15

>  <cluster_rmsd>  (71) 
0.07

>  <cluster>  (71) 
3

$$$$

     RDKit          3D

 48 52  0  0  1  0  0  0  0  0999 V2000
  138.3610   78.5610  223.4690 O   0  0  0  0  0  0  0  0  0  0  0  0
  137.8570   78.9520  222.1180 S   0  0  0  0  0  0  0  0  0  0  0  0
  137.1360   77.7450  221.5370 O   0  0  0  0  0  0  0  0  0  0  0  0
  136.6710   80.2520  222.3460 C   0  0  0  0  0  0  0  0  0  0  0  0
  136.6590   80.7260  223.7590 C   0  0  0  0  0  0  0  0  0  0  0  0
  137.8040   81.2660  224.3530 C   0  0  0  0  0  0  0  0  0  0  0  0
  137.6960   81.6730  225.6520 C   0  0  0  0  0  0  0  0  0  0  0  0
  136.5440   81.5870  226.4050 C   0  0  0  0  0  0  0  0  0  0  0  0
  135.4110   81.0510  225.8140 C   0  0  0  0  0  0  0  0  0  0  0  0
  135.5040   80.6390  224.5160 C   0  0  0  0  0  0  0  0  0  0  0  0
  139.1250   79.3590  221.0960 N   0  0  0  0  0  0  0  0  0  0  0  0
  139.5600   80.7180  221.1500 C   0  0  0  0  0  0  0  0  0  0  0  0
  140.6650   80.6690  222.1420 C   0  0  0  0  0  0  0  0  0  0  0  0
  141.2530   81.6180  222.9820 C   0  0  0  0  0  0  0  0  0  0  0  0
  142.3070   81.2620  223.8250 C   0  0  0  0  0  0  0  0  0  0  0  0
  142.7840   79.9490  223.8350 C   0  0  0  0  0  0  0  0  0  0  0  0
  142.1940   79.0090  222.9980 C   0  0  0  0  0  0  0  0  0  0  0  0
  141.1410   79.3760  222.1590 C   0  0  0  0  0  0  0  0  0  0  0  0
  140.3160   78.6040  221.1620 C   0  0  1  0  0  0  0  0  0  0  0  0
  140.2230   77.1920  221.5020 C   0  0  0  0  0  0  0  0  0  0  0  0
  139.3680   76.4820  222.3140 C   0  0  0  0  0  0  0  0  0  0  0  0
  139.6920   75.1760  222.3240 N   0  0  0  0  0  0  0  0  0  0  0  0
  140.7540   74.9910  221.5290 C   0  0  0  0  0  0  0  0  0  0  0  0
  141.4300   73.8280  221.2320 C   0  0  0  0  0  0  0  0  0  0  0  0
  142.5060   73.8870  220.3780 C   0  0  0  0  0  0  0  0  0  0  0  0
  142.8730   75.1100  219.8450 C   0  0  0  0  0  0  0  0  0  0  0  0
  142.1880   76.2650  220.1490 C   0  0  0  0  0  0  0  0  0  0  0  0
  141.1040   76.2220  221.0060 C   0  0  0  0  0  0  0  0  0  0  0  0
  136.9296   81.0938  221.6869 H   0  0  0  0  0  0  0  0  0  0  0  0
  135.6726   79.8610  222.1003 H   0  0  0  0  0  0  0  0  0  0  0  0
  138.7495   81.3588  223.7986 H   0  0  0  0  0  0  0  0  0  0  0  0
  138.5900   82.0990  226.1309 H   0  0  0  0  0  0  0  0  0  0  0  0
  136.5249   81.9350  227.4483 H   0  0  0  0  0  0  0  0  0  0  0  0
  134.4677   80.9605  226.3725 H   0  0  0  0  0  0  0  0  0  0  0  0
  134.6070   80.2122  224.0435 H   0  0  0  0  0  0  0  0  0  0  0  0
  139.9229   81.0574  220.1686 H   0  0  0  0  0  0  0  0  0  0  0  0
  138.7597   81.4216  221.4229 H   0  0  0  0  0  0  0  0  0  0  0  0
  140.8825   82.6537  222.9790 H   0  0  0  0  0  0  0  0  0  0  0  0
  142.7629   82.0167  224.4827 H   0  0  0  0  0  0  0  0  0  0  0  0
  143.6152   79.6629  224.4963 H   0  0  0  0  0  0  0  0  0  0  0  0
  142.5588   77.9712  222.9970 H   0  0  0  0  0  0  0  0  0  0  0  0
  140.7442   78.5125  220.1529 H   0  0  0  0  0  0  0  0  0  0  0  0
  138.5329   76.9225  222.8783 H   0  0  0  0  0  0  0  0  0  0  0  0
  139.1900   74.4240  222.8670 H   0  0  0  0  0  0  0  0  0  0  0  0
  141.1147   72.8695  221.6701 H   0  0  0  0  0  0  0  0  0  0  0  0
  143.0666   72.9757  220.1224 H   0  0  0  0  0  0  0  0  0  0  0  0
  143.7333   75.1608  219.1615 H   0  0  0  0  0  0  0  0  0  0  0  0
  142.5035   77.2228  219.7096 H   0  0  0  0  0  0  0  0  0  0  0  0
  1  2  2  0
  2  3  2  0
  2  4  1  0
  4  5  1  0
  5  6  2  0
  6  7  1  0
  7  8  2  0
  8  9  1  0
  9 10  2  0
  2 11  1  0
 11 12  1  0
 12 13  1  0
 13 14  2  0
 14 15  1  0
 15 16  2  0
 16 17  1  0
 17 18  2  0
 18 19  1  0
 19 20  1  0
 20 21  2  0
 21 22  1  0
 22 23  1  0
 23 24  2  0
 24 25  1  0
 25 26  2  0
 26 27  1  0
 27 28  2  0
 10  5  1  0
 19 11  1  0
 28 20  1  0
 18 13  1  0
 28 23  1  0
  4 29  1  0
  4 30  1  0
  6 31  1  0
  7 32  1  0
  8 33  1  0
  9 34  1  0
 10 35  1  0
 12 36  1  0
 12 37  1  0
 14 38  1  0
 15 39  1  0
 16 40  1  0
 17 41  1  0
 19 42  1  6
 21 43  1  0
 22 44  1  0
 24 45  1  0
 25 46  1  0
 26 47  1  0
 27 48  1  0
M  END
>  <smiles>  (72) 
O=S(=O)(Cc1ccccc1)N1Cc2ccccc2C1c1c[nH]c2ccccc12

>  <score_type>  (72) 
oracle

>  <origin>  (72) 
autodockgpu

>  <m_score__min__energy>  (72) 
-7.54

>  <m_primary>  (72) 
energy

>  <rmsd>  (72) 
6.678886067130874

>  <m_score__min__rmsd>  (72) 
6.678886067130874

>  <meeko>  (72) 
{"free_energy": -7.54, "intermolecular_energy": -8.73, "internal_energy": -1.26, "cluster_size": 11, "cluster_id": 1, "rank_in_cluster": 1}

>  <energy>  (72) 
-7.12

>  <cluster_rmsd>  (72) 
0.13

>  <cluster>  (72) 
3

$$$$

     RDKit          3D

 48 52  0  0  1  0  0  0  0  0999 V2000
  141.3910   75.4210  221.9570 O   0  0  0  0  0  0  0  0  0  0  0  0
  139.9570   75.4710  221.5450 S   0  0  0  0  0  0  0  0  0  0  0  0
  139.2060   74.4520  222.3900 O   0  0  0  0  0  0  0  0  0  0  0  0
  139.3420   77.0870  221.9440 C   0  0  0  0  0  0  0  0  0  0  0  0
  140.4590   78.0560  222.1290 C   0  0  0  0  0  0  0  0  0  0  0  0
  141.1810   78.1130  223.3250 C   0  0  0  0  0  0  0  0  0  0  0  0
  142.1860   79.0340  223.4000 C   0  0  0  0  0  0  0  0  0  0  0  0
  142.5310   79.8990  222.3840 C   0  0  0  0  0  0  0  0  0  0  0  0
  141.8140   79.8420  221.1990 C   0  0  0  0  0  0  0  0  0  0  0  0
  140.8060   78.9260  221.1090 C   0  0  0  0  0  0  0  0  0  0  0  0
  139.7800   75.0560  219.9270 N   0  0  0  0  0  0  0  0  0  0  0  0
  138.5320   75.4030  219.3260 C   0  0  0  0  0  0  0  0  0  0  0  0
  138.8150   76.7320  218.7270 C   0  0  0  0  0  0  0  0  0  0  0  0
  138.0150   77.8200  218.3660 C   0  0  0  0  0  0  0  0  0  0  0  0
  138.5870   78.9640  217.8060 C   0  0  0  0  0  0  0  0  0  0  0  0
  139.9670   79.0290  217.6010 C   0  0  0  0  0  0  0  0  0  0  0  0
  140.7570   77.9440  217.9630 C   0  0  0  0  0  0  0  0  0  0  0  0
  140.1750   76.8060  218.5220 C   0  0  0  0  0  0  0  0  0  0  0  0
  140.7520   75.5000  219.0050 C   0  0  1  0  0  0  0  0  0  0  0  0
  142.1260   75.6410  219.4610 C   0  0  0  0  0  0  0  0  0  0  0  0
  142.9330   76.7380  219.6700 C   0  0  0  0  0  0  0  0  0  0  0  0
  144.1540   76.3600  220.0880 N   0  0  0  0  0  0  0  0  0  0  0  0
  144.1870   75.0230  220.1670 C   0  0  0  0  0  0  0  0  0  0  0  0
  145.2210   74.1970  220.5490 C   0  0  0  0  0  0  0  0  0  0  0  0
  145.0160   72.8370  220.5500 C   0  0  0  0  0  0  0  0  0  0  0  0
  143.7800   72.3450  220.1700 C   0  0  0  0  0  0  0  0  0  0  0  0
  142.7540   73.1830  219.7920 C   0  0  0  0  0  0  0  0  0  0  0  0
  142.9450   74.5510  219.7850 C   0  0  0  0  0  0  0  0  0  0  0  0
  138.6946   77.4369  221.1264 H   0  0  0  0  0  0  0  0  0  0  0  0
  138.7760   77.0227  222.8850 H   0  0  0  0  0  0  0  0  0  0  0  0
  140.9495   77.4454  224.1681 H   0  0  0  0  0  0  0  0  0  0  0  0
  142.7604   79.0895  224.3365 H   0  0  0  0  0  0  0  0  0  0  0  0
  143.3549   80.6168  222.5103 H   0  0  0  0  0  0  0  0  0  0  0  0
  142.0494   80.5125  220.3593 H   0  0  0  0  0  0  0  0  0  0  0  0
  140.2352   78.8759  220.1700 H   0  0  0  0  0  0  0  0  0  0  0  0
  138.2471   74.6729  218.5542 H   0  0  0  0  0  0  0  0  0  0  0  0
  137.6936   75.4153  220.0380 H   0  0  0  0  0  0  0  0  0  0  0  0
  136.9274   77.7746  218.5242 H   0  0  0  0  0  0  0  0  0  0  0  0
  137.9496   79.8156  217.5258 H   0  0  0  0  0  0  0  0  0  0  0  0
  140.4228   79.9271  217.1588 H   0  0  0  0  0  0  0  0  0  0  0  0
  141.8453   77.9829  217.8081 H   0  0  0  0  0  0  0  0  0  0  0  0
  140.9029   74.7280  218.2360 H   0  0  0  0  0  0  0  0  0  0  0  0
  142.6209   77.7815  219.5159 H   0  0  0  0  0  0  0  0  0  0  0  0
  144.9520   77.0110  220.3170 H   0  0  0  0  0  0  0  0  0  0  0  0
  146.1927   74.6173  220.8477 H   0  0  0  0  0  0  0  0  0  0  0  0
  145.8224   72.1509  220.8484 H   0  0  0  0  0  0  0  0  0  0  0  0
  143.6124   71.2578  220.1697 H   0  0  0  0  0  0  0  0  0  0  0  0
  141.7818   72.7624  219.4955 H   0  0  0  0  0  0  0  0  0  0  0  0
  1  2  2  0
  2  3  2  0
  2  4  1  0
  4  5  1  0
  5  6  2  0
  6  7  1  0
  7  8  2  0
  8  9  1  0
  9 10  2  0
  2 11  1  0
 11 12  1  0
 12 13  1  0
 13 14  2  0
 14 15  1  0
 15 16  2  0
 16 17  1  0
 17 18  2  0
 18 19  1  0
 19 20  1  0
 20 21  2  0
 21 22  1  0
 22 23  1  0
 23 24  2  0
 24 25  1  0
 25 26  2  0
 26 27  1  0
 27 28  2  0
 10  5  1  0
 19 11  1  0
 28 20  1  0
 18 13  1  0
 28 23  1  0
  4 29  1  0
  4 30  1  0
  6 31  1  0
  7 32  1  0
  8 33  1  0
  9 34  1  0
 10 35  1  0
 12 36  1  0
 12 37  1  0
 14 38  1  0
 15 39  1  0
 16 40  1  0
 17 41  1  0
 19 42  1  6
 21 43  1  0
 22 44  1  0
 24 45  1  0
 25 46  1  0
 26 47  1  0
 27 48  1  0
M  END
>  <smiles>  (73) 
O=S(=O)(Cc1ccccc1)N1Cc2ccccc2C1c1c[nH]c2ccccc12

>  <score_type>  (73) 
oracle

>  <origin>  (73) 
autodockgpu

>  <m_score__min__energy>  (73) 
-7.54

>  <m_primary>  (73) 
energy

>  <rmsd>  (73) 
6.855988311864444

>  <m_score__min__rmsd>  (73) 
6.855988311864444

>  <meeko>  (73) 
{"free_energy": -6.56, "intermolecular_energy": -7.75, "internal_energy": -2.27, "cluster_size": 19, "cluster_id": 4, "rank_in_cluster": 18}

>  <energy>  (73) 
-7.11

>  <cluster_rmsd>  (73) 
0.29

>  <cluster>  (73) 
3

$$$$

     RDKit          3D

 48 52  0  0  1  0  0  0  0  0999 V2000
  139.1580   67.7630  225.2770 O   0  0  0  0  0  0  0  0  0  0  0  0
  139.1190   68.9500  224.3720 S   0  0  0  0  0  0  0  0  0  0  0  0
  137.9010   69.7750  224.7600 O   0  0  0  0  0  0  0  0  0  0  0  0
  140.5720   69.9150  224.6940 C   0  0  0  0  0  0  0  0  0  0  0  0
  140.5050   70.5540  226.0380 C   0  0  0  0  0  0  0  0  0  0  0  0
  141.0760   71.8080  226.2750 C   0  0  0  0  0  0  0  0  0  0  0  0
  140.9640   72.3120  227.5390 C   0  0  0  0  0  0  0  0  0  0  0  0
  140.3310   71.6720  228.5830 C   0  0  0  0  0  0  0  0  0  0  0  0
  139.7670   70.4280  228.3460 C   0  0  0  0  0  0  0  0  0  0  0  0
  139.8710   69.9110  227.0870 C   0  0  0  0  0  0  0  0  0  0  0  0
  138.9560   68.4790  222.7680 N   0  0  0  0  0  0  0  0  0  0  0  0
  138.1110   67.3530  222.5300 C   0  0  0  0  0  0  0  0  0  0  0  0
  136.7950   67.9840  222.2510 C   0  0  0  0  0  0  0  0  0  0  0  0
  135.4720   67.5430  222.3450 C   0  0  0  0  0  0  0  0  0  0  0  0
  134.4180   68.3890  221.9990 C   0  0  0  0  0  0  0  0  0  0  0  0
  134.6780   69.6870  221.5540 C   0  0  0  0  0  0  0  0  0  0  0  0
  135.9960   70.1200  221.4640 C   0  0  0  0  0  0  0  0  0  0  0  0
  137.0420   69.2660  221.8120 C   0  0  0  0  0  0  0  0  0  0  0  0
  138.5390   69.4400  221.8210 C   0  0  1  0  0  0  0  0  0  0  0  0
  138.9300   70.8260  222.0230 C   0  0  0  0  0  0  0  0  0  0  0  0
  138.3150   71.8880  222.6470 C   0  0  0  0  0  0  0  0  0  0  0  0
  139.0720   72.9970  222.5620 N   0  0  0  0  0  0  0  0  0  0  0  0
  140.1930   72.7010  221.8900 C   0  0  0  0  0  0  0  0  0  0  0  0
  141.2550   73.5160  221.5620 C   0  0  0  0  0  0  0  0  0  0  0  0
  142.3070   72.9810  220.8570 C   0  0  0  0  0  0  0  0  0  0  0  0
  142.2640   71.6450  220.5010 C   0  0  0  0  0  0  0  0  0  0  0  0
  141.1970   70.8410  220.8350 C   0  0  0  0  0  0  0  0  0  0  0  0
  140.1320   71.3650  221.5440 C   0  0  0  0  0  0  0  0  0  0  0  0
  141.4548   69.2602  224.6512 H   0  0  0  0  0  0  0  0  0  0  0  0
  140.6407   70.7071  223.9338 H   0  0  0  0  0  0  0  0  0  0  0  0
  141.5925   72.3638  225.4786 H   0  0  0  0  0  0  0  0  0  0  0  0
  141.4101   73.2976  227.7382 H   0  0  0  0  0  0  0  0  0  0  0  0
  140.2748   72.1365  229.5785 H   0  0  0  0  0  0  0  0  0  0  0  0
  139.2526   69.8757  229.1462 H   0  0  0  0  0  0  0  0  0  0  0  0
  139.4243   68.9244  226.8946 H   0  0  0  0  0  0  0  0  0  0  0  0
  138.4620   66.7695  221.6661 H   0  0  0  0  0  0  0  0  0  0  0  0
  138.0847   66.6424  223.3692 H   0  0  0  0  0  0  0  0  0  0  0  0
  135.2603   66.5216  222.6943 H   0  0  0  0  0  0  0  0  0  0  0  0
  133.3801   68.0330  222.0768 H   0  0  0  0  0  0  0  0  0  0  0  0
  133.8509   70.3578  221.2784 H   0  0  0  0  0  0  0  0  0  0  0  0
  136.2147   71.1406  221.1168 H   0  0  0  0  0  0  0  0  0  0  0  0
  139.0497   69.2530  220.8648 H   0  0  0  0  0  0  0  0  0  0  0  0
  137.3368   71.8367  223.1475 H   0  0  0  0  0  0  0  0  0  0  0  0
  138.8240   73.9410  222.9610 H   0  0  0  0  0  0  0  0  0  0  0  0
  141.2607   74.5752  221.8589 H   0  0  0  0  0  0  0  0  0  0  0  0
  143.1693   73.6054  220.5804 H   0  0  0  0  0  0  0  0  0  0  0  0
  143.1038   71.2136  219.9365 H   0  0  0  0  0  0  0  0  0  0  0  0
  141.1921   69.7820  220.5377 H   0  0  0  0  0  0  0  0  0  0  0  0
  1  2  2  0
  2  3  2  0
  2  4  1  0
  4  5  1  0
  5  6  2  0
  6  7  1  0
  7  8  2  0
  8  9  1  0
  9 10  2  0
  2 11  1  0
 11 12  1  0
 12 13  1  0
 13 14  2  0
 14 15  1  0
 15 16  2  0
 16 17  1  0
 17 18  2  0
 18 19  1  0
 19 20  1  0
 20 21  2  0
 21 22  1  0
 22 23  1  0
 23 24  2  0
 24 25  1  0
 25 26  2  0
 26 27  1  0
 27 28  2  0
 10  5  1  0
 19 11  1  0
 28 20  1  0
 18 13  1  0
 28 23  1  0
  4 29  1  0
  4 30  1  0
  6 31  1  0
  7 32  1  0
  8 33  1  0
  9 34  1  0
 10 35  1  0
 12 36  1  0
 12 37  1  0
 14 38  1  0
 15 39  1  0
 16 40  1  0
 17 41  1  0
 19 42  1  6
 21 43  1  0
 22 44  1  0
 24 45  1  0
 25 46  1  0
 26 47  1  0
 27 48  1  0
M  END
>  <smiles>  (74) 
O=S(=O)(Cc1ccccc1)N1Cc2ccccc2C1c1c[nH]c2ccccc12

>  <score_type>  (74) 
oracle

>  <origin>  (74) 
autodockgpu

>  <m_score__min__energy>  (74) 
-7.54

>  <m_primary>  (74) 
energy

>  <rmsd>  (74) 
10.62475793727834

>  <m_score__min__rmsd>  (74) 
10.62475793727834

>  <meeko>  (74) 
{"free_energy": -7.07, "intermolecular_energy": -8.26, "internal_energy": -1.88, "cluster_size": 13, "cluster_id": 3, "rank_in_cluster": 13}

>  <energy>  (74) 
-7.11

>  <cluster_rmsd>  (74) 
0.22

>  <cluster>  (74) 
3

$$$$

     RDKit          3D

 48 52  0  0  1  0  0  0  0  0999 V2000
  138.5580   77.3880  220.3040 O   0  0  0  0  0  0  0  0  0  0  0  0
  138.8190   78.7070  220.9540 S   0  0  0  0  0  0  0  0  0  0  0  0
  137.6150   79.5960  220.6740 O   0  0  0  0  0  0  0  0  0  0  0  0
  138.9130   78.4320  222.7030 C   0  0  0  0  0  0  0  0  0  0  0  0
  138.1130   79.4430  223.4500 C   0  0  0  0  0  0  0  0  0  0  0  0
  138.7310   80.4430  224.2060 C   0  0  0  0  0  0  0  0  0  0  0  0
  137.9130   81.3240  224.8550 C   0  0  0  0  0  0  0  0  0  0  0  0
  136.5360   81.2900  224.8130 C   0  0  0  0  0  0  0  0  0  0  0  0
  135.9260   80.2970  224.0630 C   0  0  0  0  0  0  0  0  0  0  0  0
  136.7290   79.4090  223.4090 C   0  0  0  0  0  0  0  0  0  0  0  0
  140.1840   79.4390  220.3050 N   0  0  0  0  0  0  0  0  0  0  0  0
  140.3180   80.8390  220.5490 C   0  0  0  0  0  0  0  0  0  0  0  0
  141.1490   80.8800  221.7800 C   0  0  0  0  0  0  0  0  0  0  0  0
  141.3270   81.8220  222.7960 C   0  0  0  0  0  0  0  0  0  0  0  0
  142.2050   81.5690  223.8510 C   0  0  0  0  0  0  0  0  0  0  0  0
  142.9160   80.3670  223.8980 C   0  0  0  0  0  0  0  0  0  0  0  0
  142.7340   79.4330  222.8850 C   0  0  0  0  0  0  0  0  0  0  0  0
  141.8540   79.6970  221.8350 C   0  0  0  0  0  0  0  0  0  0  0  0
  141.4520   78.9030  220.6180 C   0  0  1  0  0  0  0  0  0  0  0  0
  141.5630   77.4690  220.8380 C   0  0  0  0  0  0  0  0  0  0  0  0
  141.0570   76.6300  221.8050 C   0  0  0  0  0  0  0  0  0  0  0  0
  141.4510   75.3610  221.5920 N   0  0  0  0  0  0  0  0  0  0  0  0
  142.2160   75.3290  220.4930 C   0  0  0  0  0  0  0  0  0  0  0  0
  142.8370   74.2540  219.8940 C   0  0  0  0  0  0  0  0  0  0  0  0
  143.5800   74.4680  218.7580 C   0  0  0  0  0  0  0  0  0  0  0  0
  143.6800   75.7530  218.2540 C   0  0  0  0  0  0  0  0  0  0  0  0
  143.0530   76.8180  218.8620 C   0  0  0  0  0  0  0  0  0  0  0  0
  142.3020   76.6190  220.0050 C   0  0  0  0  0  0  0  0  0  0  0  0
  138.5249   77.4281  222.9300 H   0  0  0  0  0  0  0  0  0  0  0  0
  139.9644   78.5201  223.0140 H   0  0  0  0  0  0  0  0  0  0  0  0
  139.8263   80.5173  224.2753 H   0  0  0  0  0  0  0  0  0  0  0  0
  138.3869   82.1162  225.4532 H   0  0  0  0  0  0  0  0  0  0  0  0
  135.9364   82.0320  225.3607 H   0  0  0  0  0  0  0  0  0  0  0  0
  134.8302   80.2271  223.9972 H   0  0  0  0  0  0  0  0  0  0  0  0
  136.2486   78.6187  222.8135 H   0  0  0  0  0  0  0  0  0  0  0  0
  140.8252   81.3405  219.7116 H   0  0  0  0  0  0  0  0  0  0  0  0
  139.3535   81.3567  220.6570 H   0  0  0  0  0  0  0  0  0  0  0  0
  140.7709   82.7705  222.7643 H   0  0  0  0  0  0  0  0  0  0  0  0
  142.3375   82.3169  224.6466 H   0  0  0  0  0  0  0  0  0  0  0  0
  143.6107   80.1626  224.7260 H   0  0  0  0  0  0  0  0  0  0  0  0
  143.2859   78.4819  222.9112 H   0  0  0  0  0  0  0  0  0  0  0  0
  142.1116   78.9972  219.7428 H   0  0  0  0  0  0  0  0  0  0  0  0
  140.4170   76.9532  222.6392 H   0  0  0  0  0  0  0  0  0  0  0  0
  141.1960   74.5320  222.1920 H   0  0  0  0  0  0  0  0  0  0  0  0
  142.7396   73.2435  220.3175 H   0  0  0  0  0  0  0  0  0  0  0  0
  144.0876   73.6306  218.2568 H   0  0  0  0  0  0  0  0  0  0  0  0
  144.2749   75.9281  217.3455 H   0  0  0  0  0  0  0  0  0  0  0  0
  143.1501   77.8281  218.4374 H   0  0  0  0  0  0  0  0  0  0  0  0
  1  2  2  0
  2  3  2  0
  2  4  1  0
  4  5  1  0
  5  6  2  0
  6  7  1  0
  7  8  2  0
  8  9  1  0
  9 10  2  0
  2 11  1  0
 11 12  1  0
 12 13  1  0
 13 14  2  0
 14 15  1  0
 15 16  2  0
 16 17  1  0
 17 18  2  0
 18 19  1  0
 19 20  1  0
 20 21  2  0
 21 22  1  0
 22 23  1  0
 23 24  2  0
 24 25  1  0
 25 26  2  0
 26 27  1  0
 27 28  2  0
 10  5  1  0
 19 11  1  0
 28 20  1  0
 18 13  1  0
 28 23  1  0
  4 29  1  0
  4 30  1  0
  6 31  1  0
  7 32  1  0
  8 33  1  0
  9 34  1  0
 10 35  1  0
 12 36  1  0
 12 37  1  0
 14 38  1  0
 15 39  1  0
 16 40  1  0
 17 41  1  0
 19 42  1  6
 21 43  1  0
 22 44  1  0
 24 45  1  0
 25 46  1  0
 26 47  1  0
 27 48  1  0
M  END
>  <smiles>  (75) 
O=S(=O)(Cc1ccccc1)N1Cc2ccccc2C1c1c[nH]c2ccccc12

>  <score_type>  (75) 
oracle

>  <origin>  (75) 
autodockgpu

>  <m_score__min__energy>  (75) 
-7.54

>  <m_primary>  (75) 
energy

>  <rmsd>  (75) 
6.759363455783385

>  <m_score__min__rmsd>  (75) 
6.759363455783385

>  <meeko>  (75) 
{"free_energy": -6.89, "intermolecular_energy": -8.08, "internal_energy": -1.85, "cluster_size": 11, "cluster_id": 1, "rank_in_cluster": 9}

>  <energy>  (75) 
-7.09

>  <cluster_rmsd>  (75) 
0.17

>  <cluster>  (75) 
3

$$$$

     RDKit          3D

 48 52  0  0  1  0  0  0  0  0999 V2000
  141.4560   75.1030  221.9740 O   0  0  0  0  0  0  0  0  0  0  0  0
  140.0720   75.0350  221.4160 S   0  0  0  0  0  0  0  0  0  0  0  0
  139.2540   74.1460  222.3420 O   0  0  0  0  0  0  0  0  0  0  0  0
  139.3920   76.6720  221.4710 C   0  0  0  0  0  0  0  0  0  0  0  0
  140.4400   77.6780  221.8020 C   0  0  0  0  0  0  0  0  0  0  0  0
  140.9250   78.5650  220.8370 C   0  0  0  0  0  0  0  0  0  0  0  0
  141.8850   79.4510  221.2350 C   0  0  0  0  0  0  0  0  0  0  0  0
  142.3990   79.5250  222.5120 C   0  0  0  0  0  0  0  0  0  0  0  0
  141.9180   78.6450  223.4670 C   0  0  0  0  0  0  0  0  0  0  0  0
  140.9580   77.7530  223.0840 C   0  0  0  0  0  0  0  0  0  0  0  0
  140.0740   74.3490  219.8830 N   0  0  0  0  0  0  0  0  0  0  0  0
  138.8390   74.4140  219.1690 C   0  0  0  0  0  0  0  0  0  0  0  0
  138.9860   75.6590  218.3730 C   0  0  0  0  0  0  0  0  0  0  0  0
  138.0780   76.5500  217.7950 C   0  0  0  0  0  0  0  0  0  0  0  0
  138.5330   77.6620  217.0830 C   0  0  0  0  0  0  0  0  0  0  0  0
  139.9030   77.8920  216.9420 C   0  0  0  0  0  0  0  0  0  0  0  0
  140.8010   77.0020  217.5190 C   0  0  0  0  0  0  0  0  0  0  0  0
  140.3370   75.8940  218.2290 C   0  0  0  0  0  0  0  0  0  0  0  0
  141.0440   74.7770  218.9520 C   0  0  1  0  0  0  0  0  0  0  0  0
  142.3490   75.1850  219.4490 C   0  0  0  0  0  0  0  0  0  0  0  0
  142.9550   76.4140  219.5850 C   0  0  0  0  0  0  0  0  0  0  0  0
  144.1950   76.2830  220.0880 N   0  0  0  0  0  0  0  0  0  0  0  0
  144.4390   74.9820  220.2960 C   0  0  0  0  0  0  0  0  0  0  0  0
  145.5700   74.3750  220.7980 C   0  0  0  0  0  0  0  0  0  0  0  0
  145.5880   73.0060  220.9210 C   0  0  0  0  0  0  0  0  0  0  0  0
  144.4710   72.2840  220.5390 C   0  0  0  0  0  0  0  0  0  0  0  0
  143.3470   72.9030  220.0400 C   0  0  0  0  0  0  0  0  0  0  0  0
  143.3140   74.2790  219.9100 C   0  0  0  0  0  0  0  0  0  0  0  0
  138.9590   76.9142  220.4892 H   0  0  0  0  0  0  0  0  0  0  0  0
  138.6191   76.7029  222.2530 H   0  0  0  0  0  0  0  0  0  0  0  0
  140.5502   78.5501  219.8029 H   0  0  0  0  0  0  0  0  0  0  0  0
  142.2751   80.1543  220.4846 H   0  0  0  0  0  0  0  0  0  0  0  0
  143.1723   80.2649  222.7662 H   0  0  0  0  0  0  0  0  0  0  0  0
  142.2967   78.6640  224.4996 H   0  0  0  0  0  0  0  0  0  0  0  0
  140.5729   77.0519  223.8391 H   0  0  0  0  0  0  0  0  0  0  0  0
  138.7123   73.5383  218.5155 H   0  0  0  0  0  0  0  0  0  0  0  0
  137.9558   74.4174  219.8248 H   0  0  0  0  0  0  0  0  0  0  0  0
  136.9973   76.3744  217.9015 H   0  0  0  0  0  0  0  0  0  0  0  0
  137.8105   78.3582  216.6322 H   0  0  0  0  0  0  0  0  0  0  0  0
  140.2667   78.7660  216.3817 H   0  0  0  0  0  0  0  0  0  0  0  0
  141.8829   77.1719  217.4155 H   0  0  0  0  0  0  0  0  0  0  0  0
  141.3528   73.9227  218.3317 H   0  0  0  0  0  0  0  0  0  0  0  0
  142.4877   77.3734  219.3182 H   0  0  0  0  0  0  0  0  0  0  0  0
  144.8630   77.0750  220.2870 H   0  0  0  0  0  0  0  0  0  0  0  0
  146.4426   74.9753  221.0949 H   0  0  0  0  0  0  0  0  0  0  0  0
  146.4765   72.4924  221.3169 H   0  0  0  0  0  0  0  0  0  0  0  0
  144.4814   71.1884  220.6364 H   0  0  0  0  0  0  0  0  0  0  0  0
  142.4743   72.3021  219.7444 H   0  0  0  0  0  0  0  0  0  0  0  0
  1  2  2  0
  2  3  2  0
  2  4  1  0
  4  5  1  0
  5  6  2  0
  6  7  1  0
  7  8  2  0
  8  9  1  0
  9 10  2  0
  2 11  1  0
 11 12  1  0
 12 13  1  0
 13 14  2  0
 14 15  1  0
 15 16  2  0
 16 17  1  0
 17 18  2  0
 18 19  1  0
 19 20  1  0
 20 21  2  0
 21 22  1  0
 22 23  1  0
 23 24  2  0
 24 25  1  0
 25 26  2  0
 26 27  1  0
 27 28  2  0
 10  5  1  0
 19 11  1  0
 28 20  1  0
 18 13  1  0
 28 23  1  0
  4 29  1  0
  4 30  1  0
  6 31  1  0
  7 32  1  0
  8 33  1  0
  9 34  1  0
 10 35  1  0
 12 36  1  0
 12 37  1  0
 14 38  1  0
 15 39  1  0
 16 40  1  0
 17 41  1  0
 19 42  1  6
 21 43  1  0
 22 44  1  0
 24 45  1  0
 25 46  1  0
 26 47  1  0
 27 48  1  0
M  END
>  <smiles>  (76) 
O=S(=O)(Cc1ccccc1)N1Cc2ccccc2C1c1c[nH]c2ccccc12

>  <score_type>  (76) 
oracle

>  <origin>  (76) 
autodockgpu

>  <m_score__min__energy>  (76) 
-7.54

>  <m_primary>  (76) 
energy

>  <rmsd>  (76) 
7.051825870552151

>  <m_score__min__rmsd>  (76) 
7.051825870552151

>  <meeko>  (76) 
{"free_energy": -6.66, "intermolecular_energy": -7.86, "internal_energy": -2.27, "cluster_size": 19, "cluster_id": 4, "rank_in_cluster": 12}

>  <energy>  (76) 
-7.07

>  <cluster_rmsd>  (76) 
0.17

>  <cluster>  (76) 
3

$$$$

     RDKit          3D

 48 52  0  0  1  0  0  0  0  0999 V2000
  141.3730   75.2510  221.9300 O   0  0  0  0  0  0  0  0  0  0  0  0
  139.9560   75.2350  221.4560 S   0  0  0  0  0  0  0  0  0  0  0  0
  139.1910   74.2670  222.3480 O   0  0  0  0  0  0  0  0  0  0  0  0
  139.2920   76.8620  221.7010 C   0  0  0  0  0  0  0  0  0  0  0  0
  140.3800   77.8630  221.8890 C   0  0  0  0  0  0  0  0  0  0  0  0
  140.7510   78.7330  220.8600 C   0  0  0  0  0  0  0  0  0  0  0  0
  141.7590   79.6150  221.1270 C   0  0  0  0  0  0  0  0  0  0  0  0
  142.4240   79.7020  222.3320 C   0  0  0  0  0  0  0  0  0  0  0  0
  142.0540   78.8380  223.3500 C   0  0  0  0  0  0  0  0  0  0  0  0
  141.0490   77.9500  223.0980 C   0  0  0  0  0  0  0  0  0  0  0  0
  139.8570   74.6910  219.8710 N   0  0  0  0  0  0  0  0  0  0  0  0
  138.6010   74.8850  219.2210 C   0  0  0  0  0  0  0  0  0  0  0  0
  138.7860   76.1870  218.5310 C   0  0  0  0  0  0  0  0  0  0  0  0
  137.9070   77.1730  218.0750 C   0  0  0  0  0  0  0  0  0  0  0  0
  138.3940   78.3190  217.4440 C   0  0  0  0  0  0  0  0  0  0  0  0
  139.7690   78.4880  217.2610 C   0  0  0  0  0  0  0  0  0  0  0  0
  140.6380   77.5040  217.7180 C   0  0  0  0  0  0  0  0  0  0  0  0
  140.1400   76.3620  218.3480 C   0  0  0  0  0  0  0  0  0  0  0  0
  140.8120   75.1490  218.9370 C   0  0  1  0  0  0  0  0  0  0  0  0
  142.1570   75.4410  219.4090 C   0  0  0  0  0  0  0  0  0  0  0  0
  142.8620   76.6150  219.5540 C   0  0  0  0  0  0  0  0  0  0  0  0
  144.1000   76.3750  220.0220 N   0  0  0  0  0  0  0  0  0  0  0  0
  144.2440   75.0550  220.1980 C   0  0  0  0  0  0  0  0  0  0  0  0
  145.3350   74.3500  220.6580 C   0  0  0  0  0  0  0  0  0  0  0  0
  145.2460   72.9810  220.7530 C   0  0  0  0  0  0  0  0  0  0  0  0
  144.0670   72.3580  220.3850 C   0  0  0  0  0  0  0  0  0  0  0  0
  142.9840   73.0750  219.9270 C   0  0  0  0  0  0  0  0  0  0  0  0
  143.0570   74.4510  219.8260 C   0  0  0  0  0  0  0  0  0  0  0  0
  138.6941   77.1422  220.8212 H   0  0  0  0  0  0  0  0  0  0  0  0
  138.6668   76.8515  222.6060 H   0  0  0  0  0  0  0  0  0  0  0  0
  140.2535   78.7085  219.8792 H   0  0  0  0  0  0  0  0  0  0  0  0
  142.0616   80.3042  220.3248 H   0  0  0  0  0  0  0  0  0  0  0  0
  143.2275   80.4384  222.4811 H   0  0  0  0  0  0  0  0  0  0  0  0
  142.5541   78.8669  224.3293 H   0  0  0  0  0  0  0  0  0  0  0  0
  140.7527   77.2621  223.9036 H   0  0  0  0  0  0  0  0  0  0  0  0
  138.3994   74.0793  218.4997 H   0  0  0  0  0  0  0  0  0  0  0  0
  137.7462   74.8763  219.9132 H   0  0  0  0  0  0  0  0  0  0  0  0
  136.8234   77.0452  218.2143 H   0  0  0  0  0  0  0  0  0  0  0  0
  137.6941   79.0904  217.0902 H   0  0  0  0  0  0  0  0  0  0  0  0
  140.1585   79.3876  216.7620 H   0  0  0  0  0  0  0  0  0  0  0  0
  141.7228   77.6257  217.5827 H   0  0  0  0  0  0  0  0  0  0  0  0
  141.0471   74.3395  218.2303 H   0  0  0  0  0  0  0  0  0  0  0  0
  142.4662   77.6140  219.3189 H   0  0  0  0  0  0  0  0  0  0  0  0
  144.8330   77.1070  220.2190 H   0  0  0  0  0  0  0  0  0  0  0  0
  146.2598   74.8725  220.9439 H   0  0  0  0  0  0  0  0  0  0  0  0
  146.0997   72.3901  221.1163 H   0  0  0  0  0  0  0  0  0  0  0  0
  143.9927   71.2631  220.4600 H   0  0  0  0  0  0  0  0  0  0  0  0
  142.0597   72.5515  219.6413 H   0  0  0  0  0  0  0  0  0  0  0  0
  1  2  2  0
  2  3  2  0
  2  4  1  0
  4  5  1  0
  5  6  2  0
  6  7  1  0
  7  8  2  0
  8  9  1  0
  9 10  2  0
  2 11  1  0
 11 12  1  0
 12 13  1  0
 13 14  2  0
 14 15  1  0
 15 16  2  0
 16 17  1  0
 17 18  2  0
 18 19  1  0
 19 20  1  0
 20 21  2  0
 21 22  1  0
 22 23  1  0
 23 24  2  0
 24 25  1  0
 25 26  2  0
 26 27  1  0
 27 28  2  0
 10  5  1  0
 19 11  1  0
 28 20  1  0
 18 13  1  0
 28 23  1  0
  4 29  1  0
  4 30  1  0
  6 31  1  0
  7 32  1  0
  8 33  1  0
  9 34  1  0
 10 35  1  0
 12 36  1  0
 12 37  1  0
 14 38  1  0
 15 39  1  0
 16 40  1  0
 17 41  1  0
 19 42  1  6
 21 43  1  0
 22 44  1  0
 24 45  1  0
 25 46  1  0
 26 47  1  0
 27 48  1  0
M  END
>  <smiles>  (77) 
O=S(=O)(Cc1ccccc1)N1Cc2ccccc2C1c1c[nH]c2ccccc12

>  <score_type>  (77) 
oracle

>  <origin>  (77) 
autodockgpu

>  <m_score__min__energy>  (77) 
-7.54

>  <m_primary>  (77) 
energy

>  <rmsd>  (77) 
6.923481767210893

>  <m_score__min__rmsd>  (77) 
6.923481767210893

>  <meeko>  (77) 
{"free_energy": -6.58, "intermolecular_energy": -7.78, "internal_energy": -2.31, "cluster_size": 19, "cluster_id": 4, "rank_in_cluster": 17}

>  <energy>  (77) 
-7.07

>  <cluster_rmsd>  (77) 
0.0

>  <cluster>  (77) 
4

$$$$

     RDKit          3D

 48 52  0  0  1  0  0  0  0  0999 V2000
  138.5680   77.3700  220.2870 O   0  0  0  0  0  0  0  0  0  0  0  0
  138.8370   78.6840  220.9420 S   0  0  0  0  0  0  0  0  0  0  0  0
  137.6380   79.5810  220.6710 O   0  0  0  0  0  0  0  0  0  0  0  0
  138.9350   78.3990  222.6910 C   0  0  0  0  0  0  0  0  0  0  0  0
  138.1450   79.4120  223.4450 C   0  0  0  0  0  0  0  0  0  0  0  0
  138.7730   80.4020  224.2070 C   0  0  0  0  0  0  0  0  0  0  0  0
  137.9650   81.2860  224.8630 C   0  0  0  0  0  0  0  0  0  0  0  0
  136.5870   81.2650  224.8220 C   0  0  0  0  0  0  0  0  0  0  0  0
  135.9670   80.2830  224.0660 C   0  0  0  0  0  0  0  0  0  0  0  0
  136.7610   79.3920  223.4050 C   0  0  0  0  0  0  0  0  0  0  0  0
  140.2040   79.4120  220.2940 N   0  0  0  0  0  0  0  0  0  0  0  0
  140.3400   80.8130  220.5350 C   0  0  0  0  0  0  0  0  0  0  0  0
  141.1700   80.8540  221.7660 C   0  0  0  0  0  0  0  0  0  0  0  0
  141.3490   81.7990  222.7800 C   0  0  0  0  0  0  0  0  0  0  0  0
  142.2260   81.5460  223.8370 C   0  0  0  0  0  0  0  0  0  0  0  0
  142.9350   80.3430  223.8870 C   0  0  0  0  0  0  0  0  0  0  0  0
  142.7520   79.4080  222.8750 C   0  0  0  0  0  0  0  0  0  0  0  0
  141.8730   79.6700  221.8240 C   0  0  0  0  0  0  0  0  0  0  0  0
  141.4710   78.8750  220.6090 C   0  0  1  0  0  0  0  0  0  0  0  0
  141.5790   77.4410  220.8310 C   0  0  0  0  0  0  0  0  0  0  0  0
  141.0750   76.6060  221.8020 C   0  0  0  0  0  0  0  0  0  0  0  0
  141.4650   75.3360  221.5910 N   0  0  0  0  0  0  0  0  0  0  0  0
  142.2260   75.2980  220.4890 C   0  0  0  0  0  0  0  0  0  0  0  0
  142.8430   74.2210  219.8910 C   0  0  0  0  0  0  0  0  0  0  0  0
  143.5830   74.4300  218.7520 C   0  0  0  0  0  0  0  0  0  0  0  0
  143.6840   75.7140  218.2440 C   0  0  0  0  0  0  0  0  0  0  0  0
  143.0620   76.7810  218.8520 C   0  0  0  0  0  0  0  0  0  0  0  0
  142.3140   76.5870  219.9980 C   0  0  0  0  0  0  0  0  0  0  0  0
  138.5402   77.3968  222.9143 H   0  0  0  0  0  0  0  0  0  0  0  0
  139.9881   78.4775  222.9991 H   0  0  0  0  0  0  0  0  0  0  0  0
  139.8690   80.4659  224.2750 H   0  0  0  0  0  0  0  0  0  0  0  0
  138.4471   82.0694  225.4662 H   0  0  0  0  0  0  0  0  0  0  0  0
  135.9949   82.0088  225.3753 H   0  0  0  0  0  0  0  0  0  0  0  0
  134.8705   80.2238  224.0010 H   0  0  0  0  0  0  0  0  0  0  0  0
  136.2724   78.6108  222.8042 H   0  0  0  0  0  0  0  0  0  0  0  0
  140.8486   81.3120  219.6970 H   0  0  0  0  0  0  0  0  0  0  0  0
  139.3765   81.3331  220.6409 H   0  0  0  0  0  0  0  0  0  0  0  0
  140.7952   82.7488  222.7453 H   0  0  0  0  0  0  0  0  0  0  0  0
  142.3588   82.2950  224.6315 H   0  0  0  0  0  0  0  0  0  0  0  0
  143.6286   80.1387  224.7160 H   0  0  0  0  0  0  0  0  0  0  0  0
  143.3032   78.4565  222.9030 H   0  0  0  0  0  0  0  0  0  0  0  0
  142.1321   78.9670  219.7347 H   0  0  0  0  0  0  0  0  0  0  0  0
  140.4391   76.9330  222.6379 H   0  0  0  0  0  0  0  0  0  0  0  0
  141.2100   74.5080  222.1940 H   0  0  0  0  0  0  0  0  0  0  0  0
  142.7451   73.2119  220.3176 H   0  0  0  0  0  0  0  0  0  0  0  0
  144.0873   73.5901  218.2516 H   0  0  0  0  0  0  0  0  0  0  0  0
  144.2755   75.8857  217.3326 H   0  0  0  0  0  0  0  0  0  0  0  0
  143.1604   77.7899  218.4250 H   0  0  0  0  0  0  0  0  0  0  0  0
  1  2  2  0
  2  3  2  0
  2  4  1  0
  4  5  1  0
  5  6  2  0
  6  7  1  0
  7  8  2  0
  8  9  1  0
  9 10  2  0
  2 11  1  0
 11 12  1  0
 12 13  1  0
 13 14  2  0
 14 15  1  0
 15 16  2  0
 16 17  1  0
 17 18  2  0
 18 19  1  0
 19 20  1  0
 20 21  2  0
 21 22  1  0
 22 23  1  0
 23 24  2  0
 24 25  1  0
 25 26  2  0
 26 27  1  0
 27 28  2  0
 10  5  1  0
 19 11  1  0
 28 20  1  0
 18 13  1  0
 28 23  1  0
  4 29  1  0
  4 30  1  0
  6 31  1  0
  7 32  1  0
  8 33  1  0
  9 34  1  0
 10 35  1  0
 12 36  1  0
 12 37  1  0
 14 38  1  0
 15 39  1  0
 16 40  1  0
 17 41  1  0
 19 42  1  6
 21 43  1  0
 22 44  1  0
 24 45  1  0
 25 46  1  0
 26 47  1  0
 27 48  1  0
M  END
>  <smiles>  (78) 
O=S(=O)(Cc1ccccc1)N1Cc2ccccc2C1c1c[nH]c2ccccc12

>  <score_type>  (78) 
oracle

>  <origin>  (78) 
autodockgpu

>  <m_score__min__energy>  (78) 
-7.54

>  <m_primary>  (78) 
energy

>  <rmsd>  (78) 
6.765781044068166

>  <m_score__min__rmsd>  (78) 
6.765781044068166

>  <meeko>  (78) 
{"free_energy": -6.89, "intermolecular_energy": -8.09, "internal_energy": -1.85, "cluster_size": 11, "cluster_id": 1, "rank_in_cluster": 7}

>  <energy>  (78) 
-7.07

>  <cluster_rmsd>  (78) 
0.05

>  <cluster>  (78) 
4

$$$$

     RDKit          3D

 48 52  0  0  1  0  0  0  0  0999 V2000
  141.4510   76.5370  222.0930 O   0  0  0  0  0  0  0  0  0  0  0  0
  139.9860   76.5620  221.8060 S   0  0  0  0  0  0  0  0  0  0  0  0
  139.4020   75.2510  222.3130 O   0  0  0  0  0  0  0  0  0  0  0  0
  139.2800   77.8880  222.7500 C   0  0  0  0  0  0  0  0  0  0  0  0
  140.2700   78.9790  222.9690 C   0  0  0  0  0  0  0  0  0  0  0  0
  141.4780   78.7400  223.6320 C   0  0  0  0  0  0  0  0  0  0  0  0
  142.3220   79.8030  223.7850 C   0  0  0  0  0  0  0  0  0  0  0  0
  142.0630   81.0790  223.3320 C   0  0  0  0  0  0  0  0  0  0  0  0
  140.8650   81.3130  222.6760 C   0  0  0  0  0  0  0  0  0  0  0  0
  140.0110   80.2610  222.5160 C   0  0  0  0  0  0  0  0  0  0  0  0
  139.6960   76.6720  220.1560 N   0  0  0  0  0  0  0  0  0  0  0  0
  138.8860   77.7690  219.7350 C   0  0  0  0  0  0  0  0  0  0  0  0
  139.8900   78.8120  219.4060 C   0  0  0  0  0  0  0  0  0  0  0  0
  139.8490   80.2070  219.3400 C   0  0  0  0  0  0  0  0  0  0  0  0
  140.9890   80.9330  218.9880 C   0  0  0  0  0  0  0  0  0  0  0  0
  142.1820   80.2670  218.6980 C   0  0  0  0  0  0  0  0  0  0  0  0
  142.2170   78.8790  218.7660 C   0  0  0  0  0  0  0  0  0  0  0  0
  141.0720   78.1640  219.1190 C   0  0  0  0  0  0  0  0  0  0  0  0
  140.8000   76.6900  219.2750 C   0  0  1  0  0  0  0  0  0  0  0  0
  141.9940   75.9470  219.6460 C   0  0  0  0  0  0  0  0  0  0  0  0
  143.3280   76.2860  219.6930 C   0  0  0  0  0  0  0  0  0  0  0  0
  144.0740   75.2400  220.0920 N   0  0  0  0  0  0  0  0  0  0  0  0
  143.2640   74.1970  220.3180 C   0  0  0  0  0  0  0  0  0  0  0  0
  143.5800   72.9230  220.7400 C   0  0  0  0  0  0  0  0  0  0  0  0
  142.5650   72.0100  220.9030 C   0  0  0  0  0  0  0  0  0  0  0  0
  141.2630   72.4000  220.6390 C   0  0  0  0  0  0  0  0  0  0  0  0
  140.9630   73.6760  220.2190 C   0  0  0  0  0  0  0  0  0  0  0  0
  141.9720   74.6060  220.0510 C   0  0  0  0  0  0  0  0  0  0  0  0
  138.4134   78.2933  222.2071 H   0  0  0  0  0  0  0  0  0  0  0  0
  138.9735   77.4935  223.7300 H   0  0  0  0  0  0  0  0  0  0  0  0
  141.7367   77.7411  224.0131 H   0  0  0  0  0  0  0  0  0  0  0  0
  143.2749   79.6287  224.3061 H   0  0  0  0  0  0  0  0  0  0  0  0
  142.7889   81.8908  223.4873 H   0  0  0  0  0  0  0  0  0  0  0  0
  140.6109   82.3138  222.2968 H   0  0  0  0  0  0  0  0  0  0  0  0
  139.0591   80.4427  221.9956 H   0  0  0  0  0  0  0  0  0  0  0  0
  138.2869   77.5031  218.8516 H   0  0  0  0  0  0  0  0  0  0  0  0
  138.1580   78.0896  220.4948 H   0  0  0  0  0  0  0  0  0  0  0  0
  138.9123   80.7372  219.5668 H   0  0  0  0  0  0  0  0  0  0  0  0
  140.9473   82.0311  218.9391 H   0  0  0  0  0  0  0  0  0  0  0  0
  143.0826   80.8338  218.4193 H   0  0  0  0  0  0  0  0  0  0  0  0
  143.1505   78.3425  218.5408 H   0  0  0  0  0  0  0  0  0  0  0  0
  140.5386   76.1496  218.3532 H   0  0  0  0  0  0  0  0  0  0  0  0
  143.7293   77.2781  219.4386 H   0  0  0  0  0  0  0  0  0  0  0  0
  145.1220   75.2440  220.2080 H   0  0  0  0  0  0  0  0  0  0  0  0
  144.6242   72.6424  220.9424 H   0  0  0  0  0  0  0  0  0  0  0  0
  142.7840   70.9854  221.2380 H   0  0  0  0  0  0  0  0  0  0  0  0
  140.4483   71.6722  220.7681 H   0  0  0  0  0  0  0  0  0  0  0  0
  139.9187   73.9562  220.0167 H   0  0  0  0  0  0  0  0  0  0  0  0
  1  2  2  0
  2  3  2  0
  2  4  1  0
  4  5  1  0
  5  6  2  0
  6  7  1  0
  7  8  2  0
  8  9  1  0
  9 10  2  0
  2 11  1  0
 11 12  1  0
 12 13  1  0
 13 14  2  0
 14 15  1  0
 15 16  2  0
 16 17  1  0
 17 18  2  0
 18 19  1  0
 19 20  1  0
 20 21  2  0
 21 22  1  0
 22 23  1  0
 23 24  2  0
 24 25  1  0
 25 26  2  0
 26 27  1  0
 27 28  2  0
 10  5  1  0
 19 11  1  0
 28 20  1  0
 18 13  1  0
 28 23  1  0
  4 29  1  0
  4 30  1  0
  6 31  1  0
  7 32  1  0
  8 33  1  0
  9 34  1  0
 10 35  1  0
 12 36  1  0
 12 37  1  0
 14 38  1  0
 15 39  1  0
 16 40  1  0
 17 41  1  0
 19 42  1  6
 21 43  1  0
 22 44  1  0
 24 45  1  0
 25 46  1  0
 26 47  1  0
 27 48  1  0
M  END
>  <smiles>  (79) 
O=S(=O)(Cc1ccccc1)N1Cc2ccccc2C1c1c[nH]c2ccccc12

>  <score_type>  (79) 
oracle

>  <origin>  (79) 
autodockgpu

>  <m_score__min__energy>  (79) 
-7.54

>  <m_primary>  (79) 
energy

>  <rmsd>  (79) 
6.719088387376041

>  <m_score__min__rmsd>  (79) 
6.719088387376041

>  <meeko>  (79) 
{"free_energy": -6.88, "intermolecular_energy": -8.07, "internal_energy": -1.94, "cluster_size": 5, "cluster_id": 5, "rank_in_cluster": 1}

>  <energy>  (79) 
-7.06

>  <cluster_rmsd>  (79) 
0.05

>  <cluster>  (79) 
4

$$$$

     RDKit          3D

 48 52  0  0  1  0  0  0  0  0999 V2000
  140.7090   75.0210  219.4270 O   0  0  0  0  0  0  0  0  0  0  0  0
  141.2330   75.8680  220.5400 S   0  0  0  0  0  0  0  0  0  0  0  0
  141.3410   74.9810  221.7720 O   0  0  0  0  0  0  0  0  0  0  0  0
  142.8660   76.3940  220.0880 C   0  0  0  0  0  0  0  0  0  0  0  0
  143.6860   75.2470  219.6060 C   0  0  0  0  0  0  0  0  0  0  0  0
  143.6670   74.8530  218.2650 C   0  0  0  0  0  0  0  0  0  0  0  0
  144.4520   73.7910  217.9190 C   0  0  0  0  0  0  0  0  0  0  0  0
  145.2510   73.0910  218.7970 C   0  0  0  0  0  0  0  0  0  0  0  0
  145.2690   73.4820  220.1260 C   0  0  0  0  0  0  0  0  0  0  0  0
  144.4890   74.5430  220.4870 C   0  0  0  0  0  0  0  0  0  0  0  0
  140.1820   77.1310  220.8830 N   0  0  0  0  0  0  0  0  0  0  0  0
  139.9060   77.3570  222.2660 C   0  0  0  0  0  0  0  0  0  0  0  0
  140.9120   78.3840  222.6370 C   0  0  0  0  0  0  0  0  0  0  0  0
  141.5040   78.7650  223.8450 C   0  0  0  0  0  0  0  0  0  0  0  0
  142.4420   79.7980  223.8780 C   0  0  0  0  0  0  0  0  0  0  0  0
  142.7970   80.4610  222.7010 C   0  0  0  0  0  0  0  0  0  0  0  0
  142.2050   80.0770  221.5030 C   0  0  0  0  0  0  0  0  0  0  0  0
  141.2690   79.0430  221.4810 C   0  0  0  0  0  0  0  0  0  0  0  0
  140.4730   78.4130  220.3670 C   0  0  1  0  0  0  0  0  0  0  0  0
  141.1540   78.5050  219.0850 C   0  0  0  0  0  0  0  0  0  0  0  0
  142.2820   79.1790  218.6730 C   0  0  0  0  0  0  0  0  0  0  0  0
  142.5160   78.9660  217.3660 N   0  0  0  0  0  0  0  0  0  0  0  0
  141.5630   78.1560  216.8860 C   0  0  0  0  0  0  0  0  0  0  0  0
  141.3950   77.6680  215.6080 C   0  0  0  0  0  0  0  0  0  0  0  0
  140.3260   76.8420  215.3500 C   0  0  0  0  0  0  0  0  0  0  0  0
  139.4570   76.5290  216.3800 C   0  0  0  0  0  0  0  0  0  0  0  0
  139.6370   77.0240  217.6530 C   0  0  0  0  0  0  0  0  0  0  0  0
  140.7060   77.8550  217.9280 C   0  0  0  0  0  0  0  0  0  0  0  0
  142.7927   77.1446  219.2872 H   0  0  0  0  0  0  0  0  0  0  0  0
  143.3531   76.8221  220.9765 H   0  0  0  0  0  0  0  0  0  0  0  0
  143.0471   75.3754  217.5215 H   0  0  0  0  0  0  0  0  0  0  0  0
  144.4464   73.4719  216.8663 H   0  0  0  0  0  0  0  0  0  0  0  0
  145.8596   72.2425  218.4510 H   0  0  0  0  0  0  0  0  0  0  0  0
  145.8906   72.9556  220.8653 H   0  0  0  0  0  0  0  0  0  0  0  0
  144.4993   74.8572  221.5411 H   0  0  0  0  0  0  0  0  0  0  0  0
  138.8827   77.7343  222.4096 H   0  0  0  0  0  0  0  0  0  0  0  0
  139.9678   76.4449  222.8778 H   0  0  0  0  0  0  0  0  0  0  0  0
  141.2286   78.2472  224.7756 H   0  0  0  0  0  0  0  0  0  0  0  0
  142.9027   80.0906  224.8331 H   0  0  0  0  0  0  0  0  0  0  0  0
  143.5352   81.2762  222.7216 H   0  0  0  0  0  0  0  0  0  0  0  0
  142.4759   80.5907  220.5688 H   0  0  0  0  0  0  0  0  0  0  0  0
  139.5336   78.9200  220.1017 H   0  0  0  0  0  0  0  0  0  0  0  0
  142.9072   79.8068  219.3250 H   0  0  0  0  0  0  0  0  0  0  0  0
  143.3190   79.3690  216.8130 H   0  0  0  0  0  0  0  0  0  0  0  0
  142.1028   77.9342  214.8092 H   0  0  0  0  0  0  0  0  0  0  0  0
  140.1645   76.4365  214.3403 H   0  0  0  0  0  0  0  0  0  0  0  0
  138.6010   75.8685  216.1775 H   0  0  0  0  0  0  0  0  0  0  0  0
  138.9288   76.7573  218.4514 H   0  0  0  0  0  0  0  0  0  0  0  0
  1  2  2  0
  2  3  2  0
  2  4  1  0
  4  5  1  0
  5  6  2  0
  6  7  1  0
  7  8  2  0
  8  9  1  0
  9 10  2  0
  2 11  1  0
 11 12  1  0
 12 13  1  0
 13 14  2  0
 14 15  1  0
 15 16  2  0
 16 17  1  0
 17 18  2  0
 18 19  1  0
 19 20  1  0
 20 21  2  0
 21 22  1  0
 22 23  1  0
 23 24  2  0
 24 25  1  0
 25 26  2  0
 26 27  1  0
 27 28  2  0
 10  5  1  0
 19 11  1  0
 28 20  1  0
 18 13  1  0
 28 23  1  0
  4 29  1  0
  4 30  1  0
  6 31  1  0
  7 32  1  0
  8 33  1  0
  9 34  1  0
 10 35  1  0
 12 36  1  0
 12 37  1  0
 14 38  1  0
 15 39  1  0
 16 40  1  0
 17 41  1  0
 19 42  1  6
 21 43  1  0
 22 44  1  0
 24 45  1  0
 25 46  1  0
 26 47  1  0
 27 48  1  0
M  END
>  <smiles>  (80) 
O=S(=O)(Cc1ccccc1)N1Cc2ccccc2C1c1c[nH]c2ccccc12

>  <score_type>  (80) 
oracle

>  <origin>  (80) 
autodockgpu

>  <m_score__min__energy>  (80) 
-7.54

>  <m_primary>  (80) 
energy

>  <rmsd>  (80) 
5.919122526804623

>  <m_score__min__rmsd>  (80) 
5.919122526804623

>  <meeko>  (80) 
{"free_energy": -7.05, "intermolecular_energy": -8.24, "internal_energy": -1.79, "cluster_size": 19, "cluster_id": 4, "rank_in_cluster": 6}

>  <energy>  (80) 
-7.05

>  <cluster_rmsd>  (80) 
0.05

>  <cluster>  (80) 
4

$$$$

     RDKit          3D

 48 52  0  0  1  0  0  0  0  0999 V2000
  139.2220   67.7100  225.0030 O   0  0  0  0  0  0  0  0  0  0  0  0
  138.9760   68.9100  224.1490 S   0  0  0  0  0  0  0  0  0  0  0  0
  137.7180   69.5880  224.6710 O   0  0  0  0  0  0  0  0  0  0  0  0
  140.3420   70.0180  224.3790 C   0  0  0  0  0  0  0  0  0  0  0  0
  140.4040   70.5100  225.7840 C   0  0  0  0  0  0  0  0  0  0  0  0
  139.7980   69.8040  226.8280 C   0  0  0  0  0  0  0  0  0  0  0  0
  139.9080   70.3340  228.0820 C   0  0  0  0  0  0  0  0  0  0  0  0
  140.5700   71.5050  228.3800 C   0  0  0  0  0  0  0  0  0  0  0  0
  141.1700   72.2040  227.3450 C   0  0  0  0  0  0  0  0  0  0  0  0
  141.0680   71.6870  226.0850 C   0  0  0  0  0  0  0  0  0  0  0  0
  138.7190   68.4700  222.5490 N   0  0  0  0  0  0  0  0  0  0  0  0
  137.8520   67.3550  222.3400 C   0  0  0  0  0  0  0  0  0  0  0  0
  136.5290   68.0000  222.1460 C   0  0  0  0  0  0  0  0  0  0  0  0
  135.2100   67.5680  222.3060 C   0  0  0  0  0  0  0  0  0  0  0  0
  134.1450   68.4280  222.0340 C   0  0  0  0  0  0  0  0  0  0  0  0
  134.3910   69.7320  221.5980 C   0  0  0  0  0  0  0  0  0  0  0  0
  135.7050   70.1560  221.4410 C   0  0  0  0  0  0  0  0  0  0  0  0
  136.7620   69.2880  221.7150 C   0  0  0  0  0  0  0  0  0  0  0  0
  138.2590   69.4500  221.6430 C   0  0  1  0  0  0  0  0  0  0  0  0
  138.6720   70.8300  221.8470 C   0  0  0  0  0  0  0  0  0  0  0  0
  138.0530   71.9150  222.4250 C   0  0  0  0  0  0  0  0  0  0  0  0
  138.8400   73.0040  222.3650 N   0  0  0  0  0  0  0  0  0  0  0  0
  139.9860   72.6720  221.7540 C   0  0  0  0  0  0  0  0  0  0  0  0
  141.0830   73.4570  221.4710 C   0  0  0  0  0  0  0  0  0  0  0  0
  142.1560   72.8870  220.8280 C   0  0  0  0  0  0  0  0  0  0  0  0
  142.0990   71.5470  220.4880 C   0  0  0  0  0  0  0  0  0  0  0  0
  140.9970   70.7740  220.7770 C   0  0  0  0  0  0  0  0  0  0  0  0
  139.9100   71.3320  221.4230 C   0  0  0  0  0  0  0  0  0  0  0  0
  141.2770   69.4893  224.1421 H   0  0  0  0  0  0  0  0  0  0  0  0
  140.2064   70.8823  223.7122 H   0  0  0  0  0  0  0  0  0  0  0  0
  139.2568   68.8636  226.6473 H   0  0  0  0  0  0  0  0  0  0  0  0
  139.4352   69.7880  228.9117 H   0  0  0  0  0  0  0  0  0  0  0  0
  140.6210   71.8759  229.4143 H   0  0  0  0  0  0  0  0  0  0  0  0
  141.7103   73.1438  227.5319 H   0  0  0  0  0  0  0  0  0  0  0  0
  141.5418   72.2389  225.2598 H   0  0  0  0  0  0  0  0  0  0  0  0
  138.1490   66.7837  221.4482 H   0  0  0  0  0  0  0  0  0  0  0  0
  137.8665   66.6305  223.1676 H   0  0  0  0  0  0  0  0  0  0  0  0
  135.0094   66.5423  222.6490 H   0  0  0  0  0  0  0  0  0  0  0  0
  133.1101   68.0783  222.1632 H   0  0  0  0  0  0  0  0  0  0  0  0
  133.5557   70.4143  221.3818 H   0  0  0  0  0  0  0  0  0  0  0  0
  135.9125   71.1807  221.0991 H   0  0  0  0  0  0  0  0  0  0  0  0
  138.7145   69.2755  220.6571 H   0  0  0  0  0  0  0  0  0  0  0  0
  137.0496   71.8942  222.8754 H   0  0  0  0  0  0  0  0  0  0  0  0
  138.5940   73.9590  222.7380 H   0  0  0  0  0  0  0  0  0  0  0  0
  141.0996   74.5197  221.7544 H   0  0  0  0  0  0  0  0  0  0  0  0
  143.0461   73.4869  220.5875 H   0  0  0  0  0  0  0  0  0  0  0  0
  142.9560   71.0876  219.9737 H   0  0  0  0  0  0  0  0  0  0  0  0
  140.9816   69.7113  220.4935 H   0  0  0  0  0  0  0  0  0  0  0  0
  1  2  2  0
  2  3  2  0
  2  4  1  0
  4  5  1  0
  5  6  2  0
  6  7  1  0
  7  8  2  0
  8  9  1  0
  9 10  2  0
  2 11  1  0
 11 12  1  0
 12 13  1  0
 13 14  2  0
 14 15  1  0
 15 16  2  0
 16 17  1  0
 17 18  2  0
 18 19  1  0
 19 20  1  0
 20 21  2  0
 21 22  1  0
 22 23  1  0
 23 24  2  0
 24 25  1  0
 25 26  2  0
 26 27  1  0
 27 28  2  0
 10  5  1  0
 19 11  1  0
 28 20  1  0
 18 13  1  0
 28 23  1  0
  4 29  1  0
  4 30  1  0
  6 31  1  0
  7 32  1  0
  8 33  1  0
  9 34  1  0
 10 35  1  0
 12 36  1  0
 12 37  1  0
 14 38  1  0
 15 39  1  0
 16 40  1  0
 17 41  1  0
 19 42  1  6
 21 43  1  0
 22 44  1  0
 24 45  1  0
 25 46  1  0
 26 47  1  0
 27 48  1  0
M  END
>  <smiles>  (81) 
O=S(=O)(Cc1ccccc1)N1Cc2ccccc2C1c1c[nH]c2ccccc12

>  <score_type>  (81) 
oracle

>  <origin>  (81) 
autodockgpu

>  <m_score__min__energy>  (81) 
-7.54

>  <m_primary>  (81) 
energy

>  <rmsd>  (81) 
10.69558543507818

>  <m_score__min__rmsd>  (81) 
10.69558543507818

>  <meeko>  (81) 
{"free_energy": -7.2, "intermolecular_energy": -8.4, "internal_energy": -1.8, "cluster_size": 13, "cluster_id": 3, "rank_in_cluster": 2}

>  <energy>  (81) 
-7.05

>  <cluster_rmsd>  (81) 
0.04

>  <cluster>  (81) 
4

$$$$

     RDKit          3D

 48 52  0  0  1  0  0  0  0  0999 V2000
  139.2030   67.7320  225.3260 O   0  0  0  0  0  0  0  0  0  0  0  0
  139.1950   68.9050  224.4020 S   0  0  0  0  0  0  0  0  0  0  0  0
  137.9530   69.7250  224.7210 O   0  0  0  0  0  0  0  0  0  0  0  0
  140.6230   69.8890  224.7750 C   0  0  0  0  0  0  0  0  0  0  0  0
  140.4960   70.5330  226.1130 C   0  0  0  0  0  0  0  0  0  0  0  0
  141.1050   71.7620  226.3870 C   0  0  0  0  0  0  0  0  0  0  0  0
  140.9330   72.2730  227.6420 C   0  0  0  0  0  0  0  0  0  0  0  0
  140.2050   71.6630  228.6410 C   0  0  0  0  0  0  0  0  0  0  0  0
  139.6030   70.4460  228.3670 C   0  0  0  0  0  0  0  0  0  0  0  0
  139.7670   69.9210  227.1180 C   0  0  0  0  0  0  0  0  0  0  0  0
  139.1100   68.4100  222.8000 N   0  0  0  0  0  0  0  0  0  0  0  0
  138.2450   67.3060  222.5320 C   0  0  0  0  0  0  0  0  0  0  0  0
  136.9680   67.9710  222.1660 C   0  0  0  0  0  0  0  0  0  0  0  0
  135.6290   67.5720  222.1900 C   0  0  0  0  0  0  0  0  0  0  0  0
  134.6230   68.4440  221.7690 C   0  0  0  0  0  0  0  0  0  0  0  0
  134.9490   69.7250  221.3170 C   0  0  0  0  0  0  0  0  0  0  0  0
  136.2830   70.1160  221.2960 C   0  0  0  0  0  0  0  0  0  0  0  0
  137.2810   69.2360  221.7200 C   0  0  0  0  0  0  0  0  0  0  0  0
  138.7790   69.3640  221.8130 C   0  0  1  0  0  0  0  0  0  0  0  0
  139.2010   70.7420  222.0140 C   0  0  0  0  0  0  0  0  0  0  0  0
  138.6760   71.7820  222.7470 C   0  0  0  0  0  0  0  0  0  0  0  0
  139.4240   72.8920  222.6080 N   0  0  0  0  0  0  0  0  0  0  0  0
  140.4500   72.6180  221.7910 C   0  0  0  0  0  0  0  0  0  0  0  0
  141.4690   73.4410  221.3630 C   0  0  0  0  0  0  0  0  0  0  0  0
  142.4210   72.9290  220.5140 C   0  0  0  0  0  0  0  0  0  0  0  0
  142.3260   71.6070  220.1180 C   0  0  0  0  0  0  0  0  0  0  0  0
  141.3030   70.7950  220.5540 C   0  0  0  0  0  0  0  0  0  0  0  0
  140.3380   71.2940  221.4080 C   0  0  0  0  0  0  0  0  0  0  0  0
  141.5146   69.2448  224.7695 H   0  0  0  0  0  0  0  0  0  0  0  0
  140.7118   70.6785  224.0142 H   0  0  0  0  0  0  0  0  0  0  0  0
  141.6958   72.2931  225.6261 H   0  0  0  0  0  0  0  0  0  0  0  0
  141.4083   73.2381  227.8713 H   0  0  0  0  0  0  0  0  0  0  0  0
  140.1046   72.1311  229.6313 H   0  0  0  0  0  0  0  0  0  0  0  0
  139.0120   69.9199  229.1312 H   0  0  0  0  0  0  0  0  0  0  0  0
  139.2916   68.9540  226.8968 H   0  0  0  0  0  0  0  0  0  0  0  0
  138.6269   66.6960  221.7001 H   0  0  0  0  0  0  0  0  0  0  0  0
  138.1478   66.6125  223.3803 H   0  0  0  0  0  0  0  0  0  0  0  0
  135.3657   66.5640  222.5430 H   0  0  0  0  0  0  0  0  0  0  0  0
  133.5716   68.1216  221.7933 H   0  0  0  0  0  0  0  0  0  0  0  0
  134.1607   70.4152  220.9821 H   0  0  0  0  0  0  0  0  0  0  0  0
  136.5534   71.1225  220.9440 H   0  0  0  0  0  0  0  0  0  0  0  0
  139.3376   69.1425  220.8916 H   0  0  0  0  0  0  0  0  0  0  0  0
  137.7674   71.7149  223.3634 H   0  0  0  0  0  0  0  0  0  0  0  0
  139.2330   73.8220  223.0670 H   0  0  0  0  0  0  0  0  0  0  0  0
  141.5196   74.4886  221.6947 H   0  0  0  0  0  0  0  0  0  0  0  0
  143.2463   73.5612  220.1547 H   0  0  0  0  0  0  0  0  0  0  0  0
  143.0861   71.1944  219.4383 H   0  0  0  0  0  0  0  0  0  0  0  0
  141.2538   69.7475  220.2220 H   0  0  0  0  0  0  0  0  0  0  0  0
  1  2  2  0
  2  3  2  0
  2  4  1  0
  4  5  1  0
  5  6  2  0
  6  7  1  0
  7  8  2  0
  8  9  1  0
  9 10  2  0
  2 11  1  0
 11 12  1  0
 12 13  1  0
 13 14  2  0
 14 15  1  0
 15 16  2  0
 16 17  1  0
 17 18  2  0
 18 19  1  0
 19 20  1  0
 20 21  2  0
 21 22  1  0
 22 23  1  0
 23 24  2  0
 24 25  1  0
 25 26  2  0
 26 27  1  0
 27 28  2  0
 10  5  1  0
 19 11  1  0
 28 20  1  0
 18 13  1  0
 28 23  1  0
  4 29  1  0
  4 30  1  0
  6 31  1  0
  7 32  1  0
  8 33  1  0
  9 34  1  0
 10 35  1  0
 12 36  1  0
 12 37  1  0
 14 38  1  0
 15 39  1  0
 16 40  1  0
 17 41  1  0
 19 42  1  6
 21 43  1  0
 22 44  1  0
 24 45  1  0
 25 46  1  0
 26 47  1  0
 27 48  1  0
M  END
>  <smiles>  (82) 
O=S(=O)(Cc1ccccc1)N1Cc2ccccc2C1c1c[nH]c2ccccc12

>  <score_type>  (82) 
oracle

>  <origin>  (82) 
autodockgpu

>  <m_score__min__energy>  (82) 
-7.54

>  <m_primary>  (82) 
energy

>  <rmsd>  (82) 
10.584567290067001

>  <m_score__min__rmsd>  (82) 
10.584567290067001

>  <meeko>  (82) 
{"free_energy": -7.16, "intermolecular_energy": -8.35, "internal_energy": -1.8, "cluster_size": 13, "cluster_id": 3, "rank_in_cluster": 6}

>  <energy>  (82) 
-7.05

>  <cluster_rmsd>  (82) 
0.07

>  <cluster>  (82) 
4

$$$$

     RDKit          3D

 48 52  0  0  1  0  0  0  0  0999 V2000
  140.7080   75.0260  219.4700 O   0  0  0  0  0  0  0  0  0  0  0  0
  141.2410   75.8890  220.5660 S   0  0  0  0  0  0  0  0  0  0  0  0
  141.3610   75.0200  221.8100 O   0  0  0  0  0  0  0  0  0  0  0  0
  142.8690   76.4110  220.0920 C   0  0  0  0  0  0  0  0  0  0  0  0
  143.6920   75.2550  219.6380 C   0  0  0  0  0  0  0  0  0  0  0  0
  144.4870   74.5340  220.5340 C   0  0  0  0  0  0  0  0  0  0  0  0
  145.2060   73.4900  220.0250 C   0  0  0  0  0  0  0  0  0  0  0  0
  145.1980   73.1080  218.7000 C   0  0  0  0  0  0  0  0  0  0  0  0
  144.4100   73.8250  217.8140 C   0  0  0  0  0  0  0  0  0  0  0  0
  143.6860   74.8700  218.3080 C   0  0  0  0  0  0  0  0  0  0  0  0
  140.1900   77.1560  220.9000 N   0  0  0  0  0  0  0  0  0  0  0  0
  139.9170   77.3930  222.2810 C   0  0  0  0  0  0  0  0  0  0  0  0
  140.9250   78.4230  222.6420 C   0  0  0  0  0  0  0  0  0  0  0  0
  141.5180   78.8140  223.8450 C   0  0  0  0  0  0  0  0  0  0  0  0
  142.4570   79.8470  223.8680 C   0  0  0  0  0  0  0  0  0  0  0  0
  142.8100   80.5000  222.6850 C   0  0  0  0  0  0  0  0  0  0  0  0
  142.2160   80.1060  221.4910 C   0  0  0  0  0  0  0  0  0  0  0  0
  141.2790   79.0720  221.4800 C   0  0  0  0  0  0  0  0  0  0  0  0
  140.4810   78.4330  220.3720 C   0  0  1  0  0  0  0  0  0  0  0  0
  141.1600   78.5140  219.0890 C   0  0  0  0  0  0  0  0  0  0  0  0
  142.2820   79.1920  218.6660 C   0  0  0  0  0  0  0  0  0  0  0  0
  142.5170   78.9630  217.3620 N   0  0  0  0  0  0  0  0  0  0  0  0
  141.5700   78.1380  216.8940 C   0  0  0  0  0  0  0  0  0  0  0  0
  141.4050   77.6310  215.6230 C   0  0  0  0  0  0  0  0  0  0  0  0
  140.3430   76.7930  215.3770 C   0  0  0  0  0  0  0  0  0  0  0  0
  139.4780   76.4870  216.4120 C   0  0  0  0  0  0  0  0  0  0  0  0
  139.6550   77.0000  217.6780 C   0  0  0  0  0  0  0  0  0  0  0  0
  140.7170   77.8440  217.9400 C   0  0  0  0  0  0  0  0  0  0  0  0
  142.7882   77.1388  219.2712 H   0  0  0  0  0  0  0  0  0  0  0  0
  143.3581   76.8664  220.9657 H   0  0  0  0  0  0  0  0  0  0  0  0
  144.5315   74.7958  221.6015 H   0  0  0  0  0  0  0  0  0  0  0  0
  145.8348   72.9142  220.7201 H   0  0  0  0  0  0  0  0  0  0  0  0
  145.8019   72.2557  218.3552 H   0  0  0  0  0  0  0  0  0  0  0  0
  144.3697   73.5601  216.7471 H   0  0  0  0  0  0  0  0  0  0  0  0
  143.0594   75.4415  217.6074 H   0  0  0  0  0  0  0  0  0  0  0  0
  138.8943   77.7720  222.4237 H   0  0  0  0  0  0  0  0  0  0  0  0
  139.9795   76.4858  222.8999 H   0  0  0  0  0  0  0  0  0  0  0  0
  141.2433   78.3046  224.7804 H   0  0  0  0  0  0  0  0  0  0  0  0
  142.9197   80.1471  224.8198 H   0  0  0  0  0  0  0  0  0  0  0  0
  143.5483   81.3154  222.6976 H   0  0  0  0  0  0  0  0  0  0  0  0
  142.4857   80.6112  220.5518 H   0  0  0  0  0  0  0  0  0  0  0  0
  139.5415   78.9379  220.1029 H   0  0  0  0  0  0  0  0  0  0  0  0
  142.9022   79.8343  219.3085 H   0  0  0  0  0  0  0  0  0  0  0  0
  143.3150   79.3660  216.8030 H   0  0  0  0  0  0  0  0  0  0  0  0
  142.1101   77.8920  214.8201 H   0  0  0  0  0  0  0  0  0  0  0  0
  140.1839   76.3726  214.3730 H   0  0  0  0  0  0  0  0  0  0  0  0
  138.6272   75.8170  216.2192 H   0  0  0  0  0  0  0  0  0  0  0  0
  138.9504   76.7376  218.4809 H   0  0  0  0  0  0  0  0  0  0  0  0
  1  2  2  0
  2  3  2  0
  2  4  1  0
  4  5  1  0
  5  6  2  0
  6  7  1  0
  7  8  2  0
  8  9  1  0
  9 10  2  0
  2 11  1  0
 11 12  1  0
 12 13  1  0
 13 14  2  0
 14 15  1  0
 15 16  2  0
 16 17  1  0
 17 18  2  0
 18 19  1  0
 19 20  1  0
 20 21  2  0
 21 22  1  0
 22 23  1  0
 23 24  2  0
 24 25  1  0
 25 26  2  0
 26 27  1  0
 27 28  2  0
 10  5  1  0
 19 11  1  0
 28 20  1  0
 18 13  1  0
 28 23  1  0
  4 29  1  0
  4 30  1  0
  6 31  1  0
  7 32  1  0
  8 33  1  0
  9 34  1  0
 10 35  1  0
 12 36  1  0
 12 37  1  0
 14 38  1  0
 15 39  1  0
 16 40  1  0
 17 41  1  0
 19 42  1  6
 21 43  1  0
 22 44  1  0
 24 45  1  0
 25 46  1  0
 26 47  1  0
 27 48  1  0
M  END
>  <smiles>  (83) 
O=S(=O)(Cc1ccccc1)N1Cc2ccccc2C1c1c[nH]c2ccccc12

>  <score_type>  (83) 
oracle

>  <origin>  (83) 
autodockgpu

>  <m_score__min__energy>  (83) 
-7.54

>  <m_primary>  (83) 
energy

>  <rmsd>  (83) 
5.9308275296318635

>  <m_score__min__rmsd>  (83) 
5.9308275296318635

>  <meeko>  (83) 
{"free_energy": -7.0, "intermolecular_energy": -8.19, "internal_energy": -1.78, "cluster_size": 19, "cluster_id": 4, "rank_in_cluster": 9}

>  <energy>  (83) 
-7.04

>  <cluster_rmsd>  (83) 
1.14

>  <cluster>  (83) 
4

$$$$

     RDKit          3D

 48 52  0  0  1  0  0  0  0  0999 V2000
  143.3350   76.7510  220.0570 O   0  0  0  0  0  0  0  0  0  0  0  0
  142.0880   75.9360  219.9440 S   0  0  0  0  0  0  0  0  0  0  0  0
  141.9310   75.5500  218.4800 O   0  0  0  0  0  0  0  0  0  0  0  0
  142.3300   74.4540  220.8890 C   0  0  0  0  0  0  0  0  0  0  0  0
  143.5750   73.7490  220.4720 C   0  0  0  0  0  0  0  0  0  0  0  0
  143.5250   72.5790  219.7080 C   0  0  0  0  0  0  0  0  0  0  0  0
  144.7180   72.0040  219.3750 C   0  0  0  0  0  0  0  0  0  0  0  0
  145.9530   72.4990  219.7380 C   0  0  0  0  0  0  0  0  0  0  0  0
  146.0000   73.6580  220.4950 C   0  0  0  0  0  0  0  0  0  0  0  0
  144.8150   74.2440  220.8370 C   0  0  0  0  0  0  0  0  0  0  0  0
  140.7430   76.8270  220.4080 N   0  0  0  0  0  0  0  0  0  0  0  0
  140.4210   76.7960  221.7980 C   0  0  0  0  0  0  0  0  0  0  0  0
  141.1230   77.9940  222.3240 C   0  0  0  0  0  0  0  0  0  0  0  0
  141.5970   78.3610  223.5870 C   0  0  0  0  0  0  0  0  0  0  0  0
  142.2310   79.5900  223.7760 C   0  0  0  0  0  0  0  0  0  0  0  0
  142.3960   80.4660  222.7000 C   0  0  0  0  0  0  0  0  0  0  0  0
  141.9220   80.0960  221.4470 C   0  0  0  0  0  0  0  0  0  0  0  0
  141.2900   78.8640  221.2690 C   0  0  0  0  0  0  0  0  0  0  0  0
  140.6850   78.1950  220.0620 C   0  0  1  0  0  0  0  0  0  0  0  0
  141.3150   78.6230  218.8230 C   0  0  0  0  0  0  0  0  0  0  0  0
  142.3660   79.4700  218.5540 C   0  0  0  0  0  0  0  0  0  0  0  0
  142.5760   79.5670  217.2280 N   0  0  0  0  0  0  0  0  0  0  0  0
  141.6820   78.7960  216.5950 C   0  0  0  0  0  0  0  0  0  0  0  0
  141.5170   78.5810  215.2440 C   0  0  0  0  0  0  0  0  0  0  0  0
  140.5160   77.7360  214.8260 C   0  0  0  0  0  0  0  0  0  0  0  0
  139.7100   77.1300  215.7730 C   0  0  0  0  0  0  0  0  0  0  0  0
  139.8870   77.3530  217.1210 C   0  0  0  0  0  0  0  0  0  0  0  0
  140.8880   78.2000  217.5570 C   0  0  0  0  0  0  0  0  0  0  0  0
  142.4052   74.7158  221.9548 H   0  0  0  0  0  0  0  0  0  0  0  0
  141.4745   73.7849  220.7146 H   0  0  0  0  0  0  0  0  0  0  0  0
  142.5674   72.1413  219.3894 H   0  0  0  0  0  0  0  0  0  0  0  0
  144.6922   71.0820  218.7756 H   0  0  0  0  0  0  0  0  0  0  0  0
  146.8775   71.9863  219.4340 H   0  0  0  0  0  0  0  0  0  0  0  0
  146.9603   74.0921  220.8103 H   0  0  0  0  0  0  0  0  0  0  0  0
  144.8478   75.1644  221.4385 H   0  0  0  0  0  0  0  0  0  0  0  0
  139.3349   76.8721  221.9551 H   0  0  0  0  0  0  0  0  0  0  0  0
  140.7217   75.8616  222.2944 H   0  0  0  0  0  0  0  0  0  0  0  0
  141.4693   77.6760  224.4382 H   0  0  0  0  0  0  0  0  0  0  0  0
  142.6013   79.8693  224.7734 H   0  0  0  0  0  0  0  0  0  0  0  0
  142.8946   81.4360  222.8428 H   0  0  0  0  0  0  0  0  0  0  0  0
  142.0453   80.7768  220.5919 H   0  0  0  0  0  0  0  0  0  0  0  0
  139.6448   78.4686  219.8314 H   0  0  0  0  0  0  0  0  0  0  0  0
  142.9549   79.9966  219.3194 H   0  0  0  0  0  0  0  0  0  0  0  0
  143.3230   80.1520  216.7670 H   0  0  0  0  0  0  0  0  0  0  0  0
  142.1738   79.0761  214.5135 H   0  0  0  0  0  0  0  0  0  0  0  0
  140.3584   77.5447  213.7543 H   0  0  0  0  0  0  0  0  0  0  0  0
  138.9083   76.4536  215.4417 H   0  0  0  0  0  0  0  0  0  0  0  0
  139.2308   76.8563  217.8509 H   0  0  0  0  0  0  0  0  0  0  0  0
  1  2  2  0
  2  3  2  0
  2  4  1  0
  4  5  1  0
  5  6  2  0
  6  7  1  0
  7  8  2  0
  8  9  1  0
  9 10  2  0
  2 11  1  0
 11 12  1  0
 12 13  1  0
 13 14  2  0
 14 15  1  0
 15 16  2  0
 16 17  1  0
 17 18  2  0
 18 19  1  0
 19 20  1  0
 20 21  2  0
 21 22  1  0
 22 23  1  0
 23 24  2  0
 24 25  1  0
 25 26  2  0
 26 27  1  0
 27 28  2  0
 10  5  1  0
 19 11  1  0
 28 20  1  0
 18 13  1  0
 28 23  1  0
  4 29  1  0
  4 30  1  0
  6 31  1  0
  7 32  1  0
  8 33  1  0
  9 34  1  0
 10 35  1  0
 12 36  1  0
 12 37  1  0
 14 38  1  0
 15 39  1  0
 16 40  1  0
 17 41  1  0
 19 42  1  6
 21 43  1  0
 22 44  1  0
 24 45  1  0
 25 46  1  0
 26 47  1  0
 27 48  1  0
M  END
>  <smiles>  (84) 
O=S(=O)(Cc1ccccc1)N1Cc2ccccc2C1c1c[nH]c2ccccc12

>  <score_type>  (84) 
oracle

>  <origin>  (84) 
autodockgpu

>  <m_score__min__energy>  (84) 
-7.54

>  <m_primary>  (84) 
energy

>  <rmsd>  (84) 
5.830813474954831

>  <m_score__min__rmsd>  (84) 
5.830813474954831

>  <meeko>  (84) 
{"free_energy": -7.04, "intermolecular_energy": -8.23, "internal_energy": -1.66, "cluster_size": 19, "cluster_id": 4, "rank_in_cluster": 7}

>  <energy>  (84) 
-7.02

>  <cluster_rmsd>  (84) 
0.04

>  <cluster>  (84) 
4

$$$$

     RDKit          3D

 48 52  0  0  1  0  0  0  0  0999 V2000
  138.5500   77.3660  220.2700 O   0  0  0  0  0  0  0  0  0  0  0  0
  138.8240   78.6780  220.9290 S   0  0  0  0  0  0  0  0  0  0  0  0
  137.6250   79.5770  220.6630 O   0  0  0  0  0  0  0  0  0  0  0  0
  138.9240   78.3870  222.6760 C   0  0  0  0  0  0  0  0  0  0  0  0
  138.1310   79.3950  223.4350 C   0  0  0  0  0  0  0  0  0  0  0  0
  138.7570   80.3830  224.2010 C   0  0  0  0  0  0  0  0  0  0  0  0
  137.9470   81.2630  224.8610 C   0  0  0  0  0  0  0  0  0  0  0  0
  136.5690   81.2380  224.8200 C   0  0  0  0  0  0  0  0  0  0  0  0
  135.9510   80.2570  224.0620 C   0  0  0  0  0  0  0  0  0  0  0  0
  136.7480   79.3700  223.3960 C   0  0  0  0  0  0  0  0  0  0  0  0
  140.1910   79.4060  220.2810 N   0  0  0  0  0  0  0  0  0  0  0  0
  140.3270   80.8060  220.5230 C   0  0  0  0  0  0  0  0  0  0  0  0
  141.1580   80.8460  221.7540 C   0  0  0  0  0  0  0  0  0  0  0  0
  141.3370   81.7900  222.7690 C   0  0  0  0  0  0  0  0  0  0  0  0
  142.2140   81.5360  223.8250 C   0  0  0  0  0  0  0  0  0  0  0  0
  142.9220   80.3330  223.8740 C   0  0  0  0  0  0  0  0  0  0  0  0
  142.7390   79.3980  222.8620 C   0  0  0  0  0  0  0  0  0  0  0  0
  141.8600   79.6620  221.8110 C   0  0  0  0  0  0  0  0  0  0  0  0
  141.4570   78.8670  220.5950 C   0  0  1  0  0  0  0  0  0  0  0  0
  141.5650   77.4340  220.8170 C   0  0  0  0  0  0  0  0  0  0  0  0
  141.0580   76.5970  221.7860 C   0  0  0  0  0  0  0  0  0  0  0  0
  141.4480   75.3270  221.5740 N   0  0  0  0  0  0  0  0  0  0  0  0
  142.2120   75.2910  220.4740 C   0  0  0  0  0  0  0  0  0  0  0  0
  142.8290   74.2140  219.8760 C   0  0  0  0  0  0  0  0  0  0  0  0
  143.5720   74.4240  218.7380 C   0  0  0  0  0  0  0  0  0  0  0  0
  143.6740   75.7080  218.2320 C   0  0  0  0  0  0  0  0  0  0  0  0
  143.0510   76.7750  218.8400 C   0  0  0  0  0  0  0  0  0  0  0  0
  142.3010   76.5800  219.9840 C   0  0  0  0  0  0  0  0  0  0  0  0
  138.5326   77.3827  222.8957 H   0  0  0  0  0  0  0  0  0  0  0  0
  139.9770   78.4679  222.9835 H   0  0  0  0  0  0  0  0  0  0  0  0
  139.8529   80.4488  224.2692 H   0  0  0  0  0  0  0  0  0  0  0  0
  138.4272   82.0455  225.4669 H   0  0  0  0  0  0  0  0  0  0  0  0
  135.9751   81.9787  225.3755 H   0  0  0  0  0  0  0  0  0  0  0  0
  134.8546   80.1944  223.9985 H   0  0  0  0  0  0  0  0  0  0  0  0
  136.2616   78.5893  222.7927 H   0  0  0  0  0  0  0  0  0  0  0  0
  140.8351   81.3058  219.6851 H   0  0  0  0  0  0  0  0  0  0  0  0
  139.3635   81.3259  220.6299 H   0  0  0  0  0  0  0  0  0  0  0  0
  140.7830   82.7397  222.7355 H   0  0  0  0  0  0  0  0  0  0  0  0
  142.3477   82.2846  224.6199 H   0  0  0  0  0  0  0  0  0  0  0  0
  143.6155   80.1282  224.7029 H   0  0  0  0  0  0  0  0  0  0  0  0
  143.2894   78.4460  222.8898 H   0  0  0  0  0  0  0  0  0  0  0  0
  142.1170   78.9576  219.7197 H   0  0  0  0  0  0  0  0  0  0  0  0
  140.4201   76.9229  222.6208 H   0  0  0  0  0  0  0  0  0  0  0  0
  141.1930   74.4990  222.1760 H   0  0  0  0  0  0  0  0  0  0  0  0
  142.7291   73.2044  220.3011 H   0  0  0  0  0  0  0  0  0  0  0  0
  144.0773   73.5846  218.2379 H   0  0  0  0  0  0  0  0  0  0  0  0
  144.2672   75.8805  217.3219 H   0  0  0  0  0  0  0  0  0  0  0  0
  143.1506   77.7843  218.4142 H   0  0  0  0  0  0  0  0  0  0  0  0
  1  2  2  0
  2  3  2  0
  2  4  1  0
  4  5  1  0
  5  6  2  0
  6  7  1  0
  7  8  2  0
  8  9  1  0
  9 10  2  0
  2 11  1  0
 11 12  1  0
 12 13  1  0
 13 14  2  0
 14 15  1  0
 15 16  2  0
 16 17  1  0
 17 18  2  0
 18 19  1  0
 19 20  1  0
 20 21  2  0
 21 22  1  0
 22 23  1  0
 23 24  2  0
 24 25  1  0
 25 26  2  0
 26 27  1  0
 27 28  2  0
 10  5  1  0
 19 11  1  0
 28 20  1  0
 18 13  1  0
 28 23  1  0
  4 29  1  0
  4 30  1  0
  6 31  1  0
  7 32  1  0
  8 33  1  0
  9 34  1  0
 10 35  1  0
 12 36  1  0
 12 37  1  0
 14 38  1  0
 15 39  1  0
 16 40  1  0
 17 41  1  0
 19 42  1  6
 21 43  1  0
 22 44  1  0
 24 45  1  0
 25 46  1  0
 26 47  1  0
 27 48  1  0
M  END
>  <smiles>  (85) 
O=S(=O)(Cc1ccccc1)N1Cc2ccccc2C1c1c[nH]c2ccccc12

>  <score_type>  (85) 
oracle

>  <origin>  (85) 
autodockgpu

>  <m_score__min__energy>  (85) 
-7.54

>  <m_primary>  (85) 
energy

>  <rmsd>  (85) 
6.760900979229167

>  <m_score__min__rmsd>  (85) 
6.760900979229167

>  <meeko>  (85) 
{"free_energy": -6.9, "intermolecular_energy": -8.09, "internal_energy": -1.84, "cluster_size": 11, "cluster_id": 1, "rank_in_cluster": 5}

>  <energy>  (85) 
-7.0

>  <cluster_rmsd>  (85) 
0.06

>  <cluster>  (85) 
4

$$$$

     RDKit          3D

 48 52  0  0  1  0  0  0  0  0999 V2000
  140.7240   74.9830  219.5060 O   0  0  0  0  0  0  0  0  0  0  0  0
  141.2650   75.8630  220.5840 S   0  0  0  0  0  0  0  0  0  0  0  0
  141.4050   75.0110  221.8380 O   0  0  0  0  0  0  0  0  0  0  0  0
  142.8840   76.3870  220.0840 C   0  0  0  0  0  0  0  0  0  0  0  0
  143.6940   75.2360  219.5960 C   0  0  0  0  0  0  0  0  0  0  0  0
  143.6690   74.8480  218.2530 C   0  0  0  0  0  0  0  0  0  0  0  0
  144.4450   73.7810  217.9010 C   0  0  0  0  0  0  0  0  0  0  0  0
  145.2420   73.0710  218.7740 C   0  0  0  0  0  0  0  0  0  0  0  0
  145.2650   73.4570  220.1050 C   0  0  0  0  0  0  0  0  0  0  0  0
  144.4940   74.5220  220.4720 C   0  0  0  0  0  0  0  0  0  0  0  0
  140.2110   77.1280  220.9150 N   0  0  0  0  0  0  0  0  0  0  0  0
  139.9390   77.3700  222.2950 C   0  0  0  0  0  0  0  0  0  0  0  0
  140.9440   78.4040  222.6520 C   0  0  0  0  0  0  0  0  0  0  0  0
  141.5380   78.8010  223.8530 C   0  0  0  0  0  0  0  0  0  0  0  0
  142.4750   79.8360  223.8710 C   0  0  0  0  0  0  0  0  0  0  0  0
  142.8250   80.4850  222.6850 C   0  0  0  0  0  0  0  0  0  0  0  0
  142.2310   80.0850  221.4930 C   0  0  0  0  0  0  0  0  0  0  0  0
  141.2960   79.0490  221.4860 C   0  0  0  0  0  0  0  0  0  0  0  0
  140.4990   78.4040  220.3820 C   0  0  1  0  0  0  0  0  0  0  0  0
  141.1770   78.4820  219.0980 C   0  0  0  0  0  0  0  0  0  0  0  0
  142.2900   79.1680  218.6700 C   0  0  0  0  0  0  0  0  0  0  0  0
  142.5270   78.9320  217.3660 N   0  0  0  0  0  0  0  0  0  0  0  0
  141.5890   78.0930  216.9060 C   0  0  0  0  0  0  0  0  0  0  0  0
  141.4290   77.5740  215.6390 C   0  0  0  0  0  0  0  0  0  0  0  0
  140.3770   76.7230  215.4010 C   0  0  0  0  0  0  0  0  0  0  0  0
  139.5150   76.4150  216.4390 C   0  0  0  0  0  0  0  0  0  0  0  0
  139.6870   76.9400  217.7000 C   0  0  0  0  0  0  0  0  0  0  0  0
  140.7400   77.7980  217.9550 C   0  0  0  0  0  0  0  0  0  0  0  0
  142.7883   77.1271  219.2759 H   0  0  0  0  0  0  0  0  0  0  0  0
  143.3925   76.8278  220.9541 H   0  0  0  0  0  0  0  0  0  0  0  0
  143.0518   75.3786  217.5130 H   0  0  0  0  0  0  0  0  0  0  0  0
  144.4335   73.4658  216.8472 H   0  0  0  0  0  0  0  0  0  0  0  0
  145.8442   72.2200  218.4230 H   0  0  0  0  0  0  0  0  0  0  0  0
  145.8839   72.9229  220.8410 H   0  0  0  0  0  0  0  0  0  0  0  0
  144.5092   74.8317  221.5274 H   0  0  0  0  0  0  0  0  0  0  0  0
  138.9153   77.7467  222.4370 H   0  0  0  0  0  0  0  0  0  0  0  0
  140.0051   76.4652  222.9171 H   0  0  0  0  0  0  0  0  0  0  0  0
  141.2655   78.2946  224.7907 H   0  0  0  0  0  0  0  0  0  0  0  0
  142.9383   80.1407  224.8210 H   0  0  0  0  0  0  0  0  0  0  0  0
  143.5612   81.3023  222.6936 H   0  0  0  0  0  0  0  0  0  0  0  0
  142.4992   80.5872  220.5518 H   0  0  0  0  0  0  0  0  0  0  0  0
  139.5579   78.9054  220.1120 H   0  0  0  0  0  0  0  0  0  0  0  0
  142.9037   79.8214  219.3075 H   0  0  0  0  0  0  0  0  0  0  0  0
  143.3210   79.3390  216.8040 H   0  0  0  0  0  0  0  0  0  0  0  0
  142.1306   77.8363  214.8335 H   0  0  0  0  0  0  0  0  0  0  0  0
  140.2222   76.2929  214.4005 H   0  0  0  0  0  0  0  0  0  0  0  0
  138.6717   75.7340  216.2519 H   0  0  0  0  0  0  0  0  0  0  0  0
  138.9856   76.6763  218.5053 H   0  0  0  0  0  0  0  0  0  0  0  0
  1  2  2  0
  2  3  2  0
  2  4  1  0
  4  5  1  0
  5  6  2  0
  6  7  1  0
  7  8  2  0
  8  9  1  0
  9 10  2  0
  2 11  1  0
 11 12  1  0
 12 13  1  0
 13 14  2  0
 14 15  1  0
 15 16  2  0
 16 17  1  0
 17 18  2  0
 18 19  1  0
 19 20  1  0
 20 21  2  0
 21 22  1  0
 22 23  1  0
 23 24  2  0
 24 25  1  0
 25 26  2  0
 26 27  1  0
 27 28  2  0
 10  5  1  0
 19 11  1  0
 28 20  1  0
 18 13  1  0
 28 23  1  0
  4 29  1  0
  4 30  1  0
  6 31  1  0
  7 32  1  0
  8 33  1  0
  9 34  1  0
 10 35  1  0
 12 36  1  0
 12 37  1  0
 14 38  1  0
 15 39  1  0
 16 40  1  0
 17 41  1  0
 19 42  1  6
 21 43  1  0
 22 44  1  0
 24 45  1  0
 25 46  1  0
 26 47  1  0
 27 48  1  0
M  END
>  <smiles>  (86) 
O=S(=O)(Cc1ccccc1)N1Cc2ccccc2C1c1c[nH]c2ccccc12

>  <score_type>  (86) 
oracle

>  <origin>  (86) 
autodockgpu

>  <m_score__min__energy>  (86) 
-7.54

>  <m_primary>  (86) 
energy

>  <rmsd>  (86) 
5.946089642363651

>  <m_score__min__rmsd>  (86) 
5.946089642363651

>  <meeko>  (86) 
{"free_energy": -7.07, "intermolecular_energy": -8.26, "internal_energy": -1.77, "cluster_size": 19, "cluster_id": 4, "rank_in_cluster": 2}

>  <energy>  (86) 
-6.69

>  <cluster_rmsd>  (86) 
2.0

>  <cluster>  (86) 
4

$$$$

     RDKit          3D

 48 52  0  0  1  0  0  0  0  0999 V2000
  139.1990   67.7980  225.2440 O   0  0  0  0  0  0  0  0  0  0  0  0
  139.1270   68.9720  224.3240 S   0  0  0  0  0  0  0  0  0  0  0  0
  137.8970   69.7790  224.7140 O   0  0  0  0  0  0  0  0  0  0  0  0
  140.5640   69.9700  224.6180 C   0  0  0  0  0  0  0  0  0  0  0  0
  140.5210   70.5870  225.9740 C   0  0  0  0  0  0  0  0  0  0  0  0
  139.8860   69.9470  227.0430 C   0  0  0  0  0  0  0  0  0  0  0  0
  139.8990   70.5910  228.2470 C   0  0  0  0  0  0  0  0  0  0  0  0
  140.4900   71.8160  228.4730 C   0  0  0  0  0  0  0  0  0  0  0  0
  141.1170   72.4490  227.4120 C   0  0  0  0  0  0  0  0  0  0  0  0
  141.1130   71.8180  226.2010 C   0  0  0  0  0  0  0  0  0  0  0  0
  138.9560   68.4780  222.7280 N   0  0  0  0  0  0  0  0  0  0  0  0
  138.1250   67.3370  222.5130 C   0  0  0  0  0  0  0  0  0  0  0  0
  136.7990   67.9450  222.2370 C   0  0  0  0  0  0  0  0  0  0  0  0
  135.4830   67.4870  222.3480 C   0  0  0  0  0  0  0  0  0  0  0  0
  134.4140   68.3140  222.0000 C   0  0  0  0  0  0  0  0  0  0  0  0
  134.6520   69.6100  221.5360 C   0  0  0  0  0  0  0  0  0  0  0  0
  135.9620   70.0600  221.4280 C   0  0  0  0  0  0  0  0  0  0  0  0
  137.0240   69.2250  221.7790 C   0  0  0  0  0  0  0  0  0  0  0  0
  138.5180   69.4200  221.7720 C   0  0  1  0  0  0  0  0  0  0  0  0
  138.8910   70.8140  221.9520 C   0  0  0  0  0  0  0  0  0  0  0  0
  138.2540   71.8830  222.5420 C   0  0  0  0  0  0  0  0  0  0  0  0
  139.0010   72.9970  222.4480 N   0  0  0  0  0  0  0  0  0  0  0  0
  140.1370   72.6990  221.8030 C   0  0  0  0  0  0  0  0  0  0  0  0
  141.1970   73.5180  221.4780 C   0  0  0  0  0  0  0  0  0  0  0  0
  142.2670   72.9800  220.8040 C   0  0  0  0  0  0  0  0  0  0  0  0
  142.2450   71.6360  220.4750 C   0  0  0  0  0  0  0  0  0  0  0  0
  141.1790   70.8290  220.8060 C   0  0  0  0  0  0  0  0  0  0  0  0
  140.0960   71.3550  221.4840 C   0  0  0  0  0  0  0  0  0  0  0  0
  141.4617   69.3393  224.5387 H   0  0  0  0  0  0  0  0  0  0  0  0
  140.5894   70.7750  223.8687 H   0  0  0  0  0  0  0  0  0  0  0  0
  139.3981   68.9689  226.9195 H   0  0  0  0  0  0  0  0  0  0  0  0
  139.4032   70.0979  229.0961 H   0  0  0  0  0  0  0  0  0  0  0  0
  140.4644   72.2790  229.4705 H   0  0  0  0  0  0  0  0  0  0  0  0
  141.6021   73.4278  227.5409 H   0  0  0  0  0  0  0  0  0  0  0  0
  141.6095   72.3172  225.3558 H   0  0  0  0  0  0  0  0  0  0  0  0
  138.4768   66.7464  221.6543 H   0  0  0  0  0  0  0  0  0  0  0  0
  138.1159   66.6379  223.3622 H   0  0  0  0  0  0  0  0  0  0  0  0
  135.2886   66.4674  222.7123 H   0  0  0  0  0  0  0  0  0  0  0  0
  133.3819   67.9446  222.0913 H   0  0  0  0  0  0  0  0  0  0  0  0
  133.8131   70.2657  221.2597 H   0  0  0  0  0  0  0  0  0  0  0  0
  136.1631   71.0785  221.0644 H   0  0  0  0  0  0  0  0  0  0  0  0
  139.0232   69.2274  220.8140 H   0  0  0  0  0  0  0  0  0  0  0  0
  137.2671   71.8323  223.0251 H   0  0  0  0  0  0  0  0  0  0  0  0
  138.7360   73.9470  222.8230 H   0  0  0  0  0  0  0  0  0  0  0  0
  141.1867   74.5830  221.7532 H   0  0  0  0  0  0  0  0  0  0  0  0
  143.1276   73.6080  220.5303 H   0  0  0  0  0  0  0  0  0  0  0  0
  143.0998   71.2015  219.9359 H   0  0  0  0  0  0  0  0  0  0  0  0
  141.1899   69.7642  220.5302 H   0  0  0  0  0  0  0  0  0  0  0  0
  1  2  2  0
  2  3  2  0
  2  4  1  0
  4  5  1  0
  5  6  2  0
  6  7  1  0
  7  8  2  0
  8  9  1  0
  9 10  2  0
  2 11  1  0
 11 12  1  0
 12 13  1  0
 13 14  2  0
 14 15  1  0
 15 16  2  0
 16 17  1  0
 17 18  2  0
 18 19  1  0
 19 20  1  0
 20 21  2  0
 21 22  1  0
 22 23  1  0
 23 24  2  0
 24 25  1  0
 25 26  2  0
 26 27  1  0
 27 28  2  0
 10  5  1  0
 19 11  1  0
 28 20  1  0
 18 13  1  0
 28 23  1  0
  4 29  1  0
  4 30  1  0
  6 31  1  0
  7 32  1  0
  8 33  1  0
  9 34  1  0
 10 35  1  0
 12 36  1  0
 12 37  1  0
 14 38  1  0
 15 39  1  0
 16 40  1  0
 17 41  1  0
 19 42  1  6
 21 43  1  0
 22 44  1  0
 24 45  1  0
 25 46  1  0
 26 47  1  0
 27 48  1  0
M  END
>  <smiles>  (87) 
O=S(=O)(Cc1ccccc1)N1Cc2ccccc2C1c1c[nH]c2ccccc12

>  <score_type>  (87) 
oracle

>  <origin>  (87) 
autodockgpu

>  <m_score__min__energy>  (87) 
-7.54

>  <m_primary>  (87) 
energy

>  <rmsd>  (87) 
10.648518318623005

>  <m_score__min__rmsd>  (87) 
10.648518318623005

>  <meeko>  (87) 
{"free_energy": -7.12, "intermolecular_energy": -8.31, "internal_energy": -1.87, "cluster_size": 13, "cluster_id": 3, "rank_in_cluster": 9}

>  <energy>  (87) 
-6.67

>  <cluster_rmsd>  (87) 
1.99

>  <cluster>  (87) 
4

$$$$

     RDKit          3D

 48 52  0  0  1  0  0  0  0  0999 V2000
  140.7060   75.0220  219.4640 O   0  0  0  0  0  0  0  0  0  0  0  0
  141.2320   75.8850  220.5630 S   0  0  0  0  0  0  0  0  0  0  0  0
  141.3480   75.0150  221.8060 O   0  0  0  0  0  0  0  0  0  0  0  0
  142.8610   76.4100  220.0970 C   0  0  0  0  0  0  0  0  0  0  0  0
  143.6760   75.2630  219.6080 C   0  0  0  0  0  0  0  0  0  0  0  0
  143.6670   74.8870  218.2610 C   0  0  0  0  0  0  0  0  0  0  0  0
  144.4460   73.8220  217.9090 C   0  0  0  0  0  0  0  0  0  0  0  0
  145.2310   73.1040  218.7850 C   0  0  0  0  0  0  0  0  0  0  0  0
  145.2380   73.4770  220.1200 C   0  0  0  0  0  0  0  0  0  0  0  0
  144.4640   74.5400  220.4870 C   0  0  0  0  0  0  0  0  0  0  0  0
  140.1780   77.1500  220.8940 N   0  0  0  0  0  0  0  0  0  0  0  0
  139.8960   77.3830  222.2740 C   0  0  0  0  0  0  0  0  0  0  0  0
  140.9000   78.4130  222.6440 C   0  0  0  0  0  0  0  0  0  0  0  0
  141.4860   78.8020  223.8520 C   0  0  0  0  0  0  0  0  0  0  0  0
  142.4240   79.8360  223.8830 C   0  0  0  0  0  0  0  0  0  0  0  0
  142.7830   80.4920  222.7040 C   0  0  0  0  0  0  0  0  0  0  0  0
  142.1970   80.1000  221.5060 C   0  0  0  0  0  0  0  0  0  0  0  0
  141.2610   79.0660  221.4860 C   0  0  0  0  0  0  0  0  0  0  0  0
  140.4700   78.4280  220.3720 C   0  0  1  0  0  0  0  0  0  0  0  0
  141.1570   78.5140  219.0930 C   0  0  0  0  0  0  0  0  0  0  0  0
  142.2820   79.1910  218.6800 C   0  0  0  0  0  0  0  0  0  0  0  0
  142.5240   78.9680  217.3750 N   0  0  0  0  0  0  0  0  0  0  0  0
  141.5780   78.1470  216.8980 C   0  0  0  0  0  0  0  0  0  0  0  0
  141.4200   77.6460  215.6240 C   0  0  0  0  0  0  0  0  0  0  0  0
  140.3580   76.8110  215.3690 C   0  0  0  0  0  0  0  0  0  0  0  0
  139.4860   76.5010  216.3980 C   0  0  0  0  0  0  0  0  0  0  0  0
  139.6570   77.0090  217.6670 C   0  0  0  0  0  0  0  0  0  0  0  0
  140.7190   77.8500  217.9390 C   0  0  0  0  0  0  0  0  0  0  0  0
  142.7811   77.1607  219.2969 H   0  0  0  0  0  0  0  0  0  0  0  0
  143.3560   76.8378  220.9813 H   0  0  0  0  0  0  0  0  0  0  0  0
  143.0596   75.4250  217.5183 H   0  0  0  0  0  0  0  0  0  0  0  0
  144.4469   73.5159  216.8524 H   0  0  0  0  0  0  0  0  0  0  0  0
  145.8370   72.2559  218.4335 H   0  0  0  0  0  0  0  0  0  0  0  0
  145.8466   72.9348  220.8587 H   0  0  0  0  0  0  0  0  0  0  0  0
  144.4667   74.8402  221.5452 H   0  0  0  0  0  0  0  0  0  0  0  0
  138.8719   77.7603  222.4112 H   0  0  0  0  0  0  0  0  0  0  0  0
  139.9558   76.4742  222.8909 H   0  0  0  0  0  0  0  0  0  0  0  0
  141.2063   78.2901  224.7846 H   0  0  0  0  0  0  0  0  0  0  0  0
  142.8809   80.1342  224.8381 H   0  0  0  0  0  0  0  0  0  0  0  0
  143.5200   81.3084  222.7229 H   0  0  0  0  0  0  0  0  0  0  0  0
  142.4726   80.6074  220.5697 H   0  0  0  0  0  0  0  0  0  0  0  0
  139.5308   78.9315  220.0994 H   0  0  0  0  0  0  0  0  0  0  0  0
  142.9001   79.8285  219.3292 H   0  0  0  0  0  0  0  0  0  0  0  0
  143.3260   79.3720  216.8230 H   0  0  0  0  0  0  0  0  0  0  0  0
  142.1301   77.9092  214.8262 H   0  0  0  0  0  0  0  0  0  0  0  0
  140.2037   76.3955  214.3622 H   0  0  0  0  0  0  0  0  0  0  0  0
  138.6356   75.8327  216.1977 H   0  0  0  0  0  0  0  0  0  0  0  0
  138.9472   76.7448  218.4648 H   0  0  0  0  0  0  0  0  0  0  0  0
  1  2  2  0
  2  3  2  0
  2  4  1  0
  4  5  1  0
  5  6  2  0
  6  7  1  0
  7  8  2  0
  8  9  1  0
  9 10  2  0
  2 11  1  0
 11 12  1  0
 12 13  1  0
 13 14  2  0
 14 15  1  0
 15 16  2  0
 16 17  1  0
 17 18  2  0
 18 19  1  0
 19 20  1  0
 20 21  2  0
 21 22  1  0
 22 23  1  0
 23 24  2  0
 24 25  1  0
 25 26  2  0
 26 27  1  0
 27 28  2  0
 10  5  1  0
 19 11  1  0
 28 20  1  0
 18 13  1  0
 28 23  1  0
  4 29  1  0
  4 30  1  0
  6 31  1  0
  7 32  1  0
  8 33  1  0
  9 34  1  0
 10 35  1  0
 12 36  1  0
 12 37  1  0
 14 38  1  0
 15 39  1  0
 16 40  1  0
 17 41  1  0
 19 42  1  6
 21 43  1  0
 22 44  1  0
 24 45  1  0
 25 46  1  0
 26 47  1  0
 27 48  1  0
M  END
>  <smiles>  (88) 
O=S(=O)(Cc1ccccc1)N1Cc2ccccc2C1c1c[nH]c2ccccc12

>  <score_type>  (88) 
oracle

>  <origin>  (88) 
autodockgpu

>  <m_score__min__energy>  (88) 
-7.54

>  <m_primary>  (88) 
energy

>  <rmsd>  (88) 
5.927874146451058

>  <m_score__min__rmsd>  (88) 
5.927874146451058

>  <meeko>  (88) 
{"free_energy": -7.05, "intermolecular_energy": -8.25, "internal_energy": -1.78, "cluster_size": 19, "cluster_id": 4, "rank_in_cluster": 4}

>  <energy>  (88) 
-6.66

>  <cluster_rmsd>  (88) 
1.99

>  <cluster>  (88) 
4

$$$$

     RDKit          3D

 48 52  0  0  1  0  0  0  0  0999 V2000
  138.5660   77.3650  220.2740 O   0  0  0  0  0  0  0  0  0  0  0  0
  138.8340   78.6780  220.9340 S   0  0  0  0  0  0  0  0  0  0  0  0
  137.6350   79.5750  220.6600 O   0  0  0  0  0  0  0  0  0  0  0  0
  138.9250   78.3890  222.6810 C   0  0  0  0  0  0  0  0  0  0  0  0
  138.1070   79.3820  223.4330 C   0  0  0  0  0  0  0  0  0  0  0  0
  136.7100   79.3640  223.3750 C   0  0  0  0  0  0  0  0  0  0  0  0
  136.0470   80.3150  224.0980 C   0  0  0  0  0  0  0  0  0  0  0  0
  136.6600   81.2770  224.8720 C   0  0  0  0  0  0  0  0  0  0  0  0
  138.0440   81.2930  224.9280 C   0  0  0  0  0  0  0  0  0  0  0  0
  138.7210   80.3490  224.2100 C   0  0  0  0  0  0  0  0  0  0  0  0
  140.2030   79.4060  220.2910 N   0  0  0  0  0  0  0  0  0  0  0  0
  140.3390   80.8060  220.5360 C   0  0  0  0  0  0  0  0  0  0  0  0
  141.1650   80.8450  221.7700 C   0  0  0  0  0  0  0  0  0  0  0  0
  141.3400   81.7880  222.7870 C   0  0  0  0  0  0  0  0  0  0  0  0
  142.2130   81.5320  223.8460 C   0  0  0  0  0  0  0  0  0  0  0  0
  142.9210   80.3290  223.8960 C   0  0  0  0  0  0  0  0  0  0  0  0
  142.7420   79.3960  222.8820 C   0  0  0  0  0  0  0  0  0  0  0  0
  141.8670   79.6610  221.8280 C   0  0  0  0  0  0  0  0  0  0  0  0
  141.4690   78.8670  220.6100 C   0  0  1  0  0  0  0  0  0  0  0  0
  141.5750   77.4340  220.8300 C   0  0  0  0  0  0  0  0  0  0  0  0
  141.0740   76.5980  221.8020 C   0  0  0  0  0  0  0  0  0  0  0  0
  141.4610   75.3270  221.5880 N   0  0  0  0  0  0  0  0  0  0  0  0
  142.2170   75.2900  220.4830 C   0  0  0  0  0  0  0  0  0  0  0  0
  142.8290   74.2120  219.8810 C   0  0  0  0  0  0  0  0  0  0  0  0
  143.5650   74.4220  218.7390 C   0  0  0  0  0  0  0  0  0  0  0  0
  143.6660   75.7060  218.2320 C   0  0  0  0  0  0  0  0  0  0  0  0
  143.0480   76.7740  218.8440 C   0  0  0  0  0  0  0  0  0  0  0  0
  142.3050   76.5790  219.9930 C   0  0  0  0  0  0  0  0  0  0  0  0
  138.5507   77.3776  222.8977 H   0  0  0  0  0  0  0  0  0  0  0  0
  139.9737   78.4895  222.9973 H   0  0  0  0  0  0  0  0  0  0  0  0
  136.1692   78.6178  222.7744 H   0  0  0  0  0  0  0  0  0  0  0  0
  134.9477   80.3129  224.0598 H   0  0  0  0  0  0  0  0  0  0  0  0
  136.0648   82.0138  225.4314 H   0  0  0  0  0  0  0  0  0  0  0  0
  138.5798   82.0411  225.5307 H   0  0  0  0  0  0  0  0  0  0  0  0
  139.8202   80.3576  224.2517 H   0  0  0  0  0  0  0  0  0  0  0  0
  140.8506   81.3066  219.7007 H   0  0  0  0  0  0  0  0  0  0  0  0
  139.3751   81.3257  220.6403 H   0  0  0  0  0  0  0  0  0  0  0  0
  140.7863   82.7379  222.7527 H   0  0  0  0  0  0  0  0  0  0  0  0
  142.3435   82.2792  224.6426 H   0  0  0  0  0  0  0  0  0  0  0  0
  143.6113   80.1229  224.7273 H   0  0  0  0  0  0  0  0  0  0  0  0
  143.2926   78.4442  222.9104 H   0  0  0  0  0  0  0  0  0  0  0  0
  142.1337   78.9590  219.7384 H   0  0  0  0  0  0  0  0  0  0  0  0
  140.4422   76.9249  222.6410 H   0  0  0  0  0  0  0  0  0  0  0  0
  141.2070   74.4990  222.1900 H   0  0  0  0  0  0  0  0  0  0  0  0
  142.7304   73.2023  220.3063 H   0  0  0  0  0  0  0  0  0  0  0  0
  144.0662   73.5821  218.2356 H   0  0  0  0  0  0  0  0  0  0  0  0
  144.2540   75.8776  217.3183 H   0  0  0  0  0  0  0  0  0  0  0  0
  143.1459   77.7833  218.4178 H   0  0  0  0  0  0  0  0  0  0  0  0
  1  2  2  0
  2  3  2  0
  2  4  1  0
  4  5  1  0
  5  6  2  0
  6  7  1  0
  7  8  2  0
  8  9  1  0
  9 10  2  0
  2 11  1  0
 11 12  1  0
 12 13  1  0
 13 14  2  0
 14 15  1  0
 15 16  2  0
 16 17  1  0
 17 18  2  0
 18 19  1  0
 19 20  1  0
 20 21  2  0
 21 22  1  0
 22 23  1  0
 23 24  2  0
 24 25  1  0
 25 26  2  0
 26 27  1  0
 27 28  2  0
 10  5  1  0
 19 11  1  0
 28 20  1  0
 18 13  1  0
 28 23  1  0
  4 29  1  0
  4 30  1  0
  6 31  1  0
  7 32  1  0
  8 33  1  0
  9 34  1  0
 10 35  1  0
 12 36  1  0
 12 37  1  0
 14 38  1  0
 15 39  1  0
 16 40  1  0
 17 41  1  0
 19 42  1  6
 21 43  1  0
 22 44  1  0
 24 45  1  0
 25 46  1  0
 26 47  1  0
 27 48  1  0
M  END
>  <smiles>  (89) 
O=S(=O)(Cc1ccccc1)N1Cc2ccccc2C1c1c[nH]c2ccccc12

>  <score_type>  (89) 
oracle

>  <origin>  (89) 
autodockgpu

>  <m_score__min__energy>  (89) 
-7.54

>  <m_primary>  (89) 
energy

>  <rmsd>  (89) 
6.763883911736911

>  <m_score__min__rmsd>  (89) 
6.763883911736911

>  <meeko>  (89) 
{"free_energy": -6.88, "intermolecular_energy": -8.07, "internal_energy": -1.86, "cluster_size": 11, "cluster_id": 1, "rank_in_cluster": 11}

>  <energy>  (89) 
-6.66

>  <cluster_rmsd>  (89) 
1.98

>  <cluster>  (89) 
4

$$$$

     RDKit          3D

 48 52  0  0  1  0  0  0  0  0999 V2000
  137.3620   69.4890  225.7190 O   0  0  0  0  0  0  0  0  0  0  0  0
  137.0280   69.5750  224.2660 S   0  0  0  0  0  0  0  0  0  0  0  0
  135.9260   68.5600  223.9940 O   0  0  0  0  0  0  0  0  0  0  0  0
  136.3770   71.1970  223.9630 C   0  0  0  0  0  0  0  0  0  0  0  0
  135.2620   71.5120  224.8990 C   0  0  0  0  0  0  0  0  0  0  0  0
  134.7530   72.8100  225.0120 C   0  0  0  0  0  0  0  0  0  0  0  0
  133.7310   73.0010  225.8980 C   0  0  0  0  0  0  0  0  0  0  0  0
  133.1750   72.0080  226.6760 C   0  0  0  0  0  0  0  0  0  0  0  0
  133.6810   70.7230  226.5630 C   0  0  0  0  0  0  0  0  0  0  0  0
  134.7030   70.5160  225.6820 C   0  0  0  0  0  0  0  0  0  0  0  0
  138.3570   69.1860  223.3170 N   0  0  0  0  0  0  0  0  0  0  0  0
  138.1630   69.2720  221.9050 C   0  0  0  0  0  0  0  0  0  0  0  0
  138.6200   70.6500  221.5950 C   0  0  0  0  0  0  0  0  0  0  0  0
  138.3500   71.5490  220.5590 C   0  0  0  0  0  0  0  0  0  0  0  0
  138.9510   72.8080  220.5390 C   0  0  0  0  0  0  0  0  0  0  0  0
  139.8330   73.1800  221.5560 C   0  0  0  0  0  0  0  0  0  0  0  0
  140.0980   72.2820  222.5840 C   0  0  0  0  0  0  0  0  0  0  0  0
  139.4900   71.0260  222.5950 C   0  0  0  0  0  0  0  0  0  0  0  0
  139.5740   69.8620  223.5480 C   0  0  1  0  0  0  0  0  0  0  0  0
  139.8840   70.2850  224.9050 C   0  0  0  0  0  0  0  0  0  0  0  0
  139.9560   71.5230  225.5040 C   0  0  0  0  0  0  0  0  0  0  0  0
  140.3000   71.4080  226.8000 N   0  0  0  0  0  0  0  0  0  0  0  0
  140.4630   70.1100  227.0870 C   0  0  0  0  0  0  0  0  0  0  0  0
  140.8130   69.5180  228.2820 C   0  0  0  0  0  0  0  0  0  0  0  0
  140.9200   68.1480  228.3350 C   0  0  0  0  0  0  0  0  0  0  0  0
  140.6730   67.4110  227.1900 C   0  0  0  0  0  0  0  0  0  0  0  0
  140.3240   68.0160  226.0030 C   0  0  0  0  0  0  0  0  0  0  0  0
  140.2120   69.3910  225.9340 C   0  0  0  0  0  0  0  0  0  0  0  0
  137.1795   71.9370  224.0985 H   0  0  0  0  0  0  0  0  0  0  0  0
  135.9890   71.2306  222.9343 H   0  0  0  0  0  0  0  0  0  0  0  0
  135.1577   73.6399  224.4141 H   0  0  0  0  0  0  0  0  0  0  0  0
  133.3233   74.0178  225.9976 H   0  0  0  0  0  0  0  0  0  0  0  0
  132.3503   72.2302  227.3692 H   0  0  0  0  0  0  0  0  0  0  0  0
  133.2726   69.8968  227.1635 H   0  0  0  0  0  0  0  0  0  0  0  0
  135.1067   69.4970  225.5885 H   0  0  0  0  0  0  0  0  0  0  0  0
  138.7710   68.5240  221.3750 H   0  0  0  0  0  0  0  0  0  0  0  0
  137.1260   69.0763  221.5946 H   0  0  0  0  0  0  0  0  0  0  0  0
  137.6584   71.2616  219.7534 H   0  0  0  0  0  0  0  0  0  0  0  0
  138.7297   73.5090  219.7206 H   0  0  0  0  0  0  0  0  0  0  0  0
  140.3117   74.1703  221.5439 H   0  0  0  0  0  0  0  0  0  0  0  0
  140.7897   72.5628  223.3919 H   0  0  0  0  0  0  0  0  0  0  0  0
  140.4117   69.1678  223.3857 H   0  0  0  0  0  0  0  0  0  0  0  0
  139.7590   72.4767  224.9924 H   0  0  0  0  0  0  0  0  0  0  0  0
  140.4210   72.2090  227.4750 H   0  0  0  0  0  0  0  0  0  0  0  0
  141.0031   70.1300  229.1761 H   0  0  0  0  0  0  0  0  0  0  0  0
  141.1977   67.6456  229.2733 H   0  0  0  0  0  0  0  0  0  0  0  0
  140.7575   66.3149  227.2289 H   0  0  0  0  0  0  0  0  0  0  0  0
  140.1343   67.4037  225.1091 H   0  0  0  0  0  0  0  0  0  0  0  0
  1  2  2  0
  2  3  2  0
  2  4  1  0
  4  5  1  0
  5  6  2  0
  6  7  1  0
  7  8  2  0
  8  9  1  0
  9 10  2  0
  2 11  1  0
 11 12  1  0
 12 13  1  0
 13 14  2  0
 14 15  1  0
 15 16  2  0
 16 17  1  0
 17 18  2  0
 18 19  1  0
 19 20  1  0
 20 21  2  0
 21 22  1  0
 22 23  1  0
 23 24  2  0
 24 25  1  0
 25 26  2  0
 26 27  1  0
 27 28  2  0
 10  5  1  0
 19 11  1  0
 28 20  1  0
 18 13  1  0
 28 23  1  0
  4 29  1  0
  4 30  1  0
  6 31  1  0
  7 32  1  0
  8 33  1  0
  9 34  1  0
 10 35  1  0
 12 36  1  0
 12 37  1  0
 14 38  1  0
 15 39  1  0
 16 40  1  0
 17 41  1  0
 19 42  1  6
 21 43  1  0
 22 44  1  0
 24 45  1  0
 25 46  1  0
 26 47  1  0
 27 48  1  0
M  END
>  <smiles>  (90) 
O=S(=O)(Cc1ccccc1)N1Cc2ccccc2C1c1c[nH]c2ccccc12

>  <score_type>  (90) 
oracle

>  <origin>  (90) 
autodockgpu

>  <m_score__min__energy>  (90) 
-7.54

>  <m_primary>  (90) 
energy

>  <rmsd>  (90) 
10.89734240240571

>  <m_score__min__rmsd>  (90) 
10.89734240240571

>  <meeko>  (90) 
{"free_energy": -7.27, "intermolecular_energy": -8.46, "internal_energy": -1.58, "cluster_size": 2, "cluster_id": 2, "rank_in_cluster": 1}

>  <energy>  (90) 
-6.66

>  <cluster_rmsd>  (90) 
1.98

>  <cluster>  (90) 
4

$$$$

     RDKit          3D

 48 52  0  0  1  0  0  0  0  0999 V2000
  139.1850   67.7380  225.2910 O   0  0  0  0  0  0  0  0  0  0  0  0
  139.1130   68.9310  224.3950 S   0  0  0  0  0  0  0  0  0  0  0  0
  137.8800   69.7270  224.7990 O   0  0  0  0  0  0  0  0  0  0  0  0
  140.5470   69.9260  224.7140 C   0  0  0  0  0  0  0  0  0  0  0  0
  140.4670   70.5680  226.0570 C   0  0  0  0  0  0  0  0  0  0  0  0
  141.0800   71.7980  226.3110 C   0  0  0  0  0  0  0  0  0  0  0  0
  140.9520   72.3060  227.5720 C   0  0  0  0  0  0  0  0  0  0  0  0
  140.2660   71.6910  228.5970 C   0  0  0  0  0  0  0  0  0  0  0  0
  139.6600   70.4710  228.3430 C   0  0  0  0  0  0  0  0  0  0  0  0
  139.7790   69.9500  227.0870 C   0  0  0  0  0  0  0  0  0  0  0  0
  138.9480   68.4700  222.7890 N   0  0  0  0  0  0  0  0  0  0  0  0
  138.0780   67.3640  222.5430 C   0  0  0  0  0  0  0  0  0  0  0  0
  136.7790   68.0260  222.2590 C   0  0  0  0  0  0  0  0  0  0  0  0
  135.4460   67.6160  222.3430 C   0  0  0  0  0  0  0  0  0  0  0  0
  134.4130   68.4880  221.9940 C   0  0  0  0  0  0  0  0  0  0  0  0
  134.7060   69.7810  221.5550 C   0  0  0  0  0  0  0  0  0  0  0  0
  136.0340   70.1830  221.4730 C   0  0  0  0  0  0  0  0  0  0  0  0
  137.0590   69.3040  221.8250 C   0  0  0  0  0  0  0  0  0  0  0  0
  138.5600   69.4420  221.8430 C   0  0  1  0  0  0  0  0  0  0  0  0
  138.9810   70.8190  222.0520 C   0  0  0  0  0  0  0  0  0  0  0  0
  138.4110   71.8790  222.7200 C   0  0  0  0  0  0  0  0  0  0  0  0
  139.1820   72.9770  222.6210 N   0  0  0  0  0  0  0  0  0  0  0  0
  140.2670   72.6760  221.8960 C   0  0  0  0  0  0  0  0  0  0  0  0
  141.3280   73.4800  221.5370 C   0  0  0  0  0  0  0  0  0  0  0  0
  142.3390   72.9410  220.7780 C   0  0  0  0  0  0  0  0  0  0  0  0
  142.2600   71.6120  220.4010 C   0  0  0  0  0  0  0  0  0  0  0  0
  141.1950   70.8200  220.7670 C   0  0  0  0  0  0  0  0  0  0  0  0
  140.1700   71.3470  221.5300 C   0  0  0  0  0  0  0  0  0  0  0  0
  141.4427   69.2888  224.6732 H   0  0  0  0  0  0  0  0  0  0  0  0
  140.6001   70.7169  223.9514 H   0  0  0  0  0  0  0  0  0  0  0  0
  141.6405   72.3329  225.5301 H   0  0  0  0  0  0  0  0  0  0  0  0
  141.4298   73.2737  227.7846 H   0  0  0  0  0  0  0  0  0  0  0  0
  140.2012   72.1568  229.5914 H   0  0  0  0  0  0  0  0  0  0  0  0
  139.1014   69.9399  229.1278 H   0  0  0  0  0  0  0  0  0  0  0  0
  139.2997   68.9815  226.8811 H   0  0  0  0  0  0  0  0  0  0  0  0
  138.4200   66.7750  221.6793 H   0  0  0  0  0  0  0  0  0  0  0  0
  138.0307   66.6517  223.3799 H   0  0  0  0  0  0  0  0  0  0  0  0
  135.2086   66.5984  222.6867 H   0  0  0  0  0  0  0  0  0  0  0  0
  133.3667   68.1561  222.0649 H   0  0  0  0  0  0  0  0  0  0  0  0
  133.8964   70.4722  221.2777 H   0  0  0  0  0  0  0  0  0  0  0  0
  136.2781   71.1989  221.1290 H   0  0  0  0  0  0  0  0  0  0  0  0
  139.0725   69.2450  220.8898 H   0  0  0  0  0  0  0  0  0  0  0  0
  137.4545   71.8343  223.2615 H   0  0  0  0  0  0  0  0  0  0  0  0
  138.9660   73.9180  223.0470 H   0  0  0  0  0  0  0  0  0  0  0  0
  141.3646   74.5332  221.8522 H   0  0  0  0  0  0  0  0  0  0  0  0
  143.1984   73.5570  220.4747 H   0  0  0  0  0  0  0  0  0  0  0  0
  143.0680   71.1776  219.7940 H   0  0  0  0  0  0  0  0  0  0  0  0
  141.1598   69.7667  220.4519 H   0  0  0  0  0  0  0  0  0  0  0  0
  1  2  2  0
  2  3  2  0
  2  4  1  0
  4  5  1  0
  5  6  2  0
  6  7  1  0
  7  8  2  0
  8  9  1  0
  9 10  2  0
  2 11  1  0
 11 12  1  0
 12 13  1  0
 13 14  2  0
 14 15  1  0
 15 16  2  0
 16 17  1  0
 17 18  2  0
 18 19  1  0
 19 20  1  0
 20 21  2  0
 21 22  1  0
 22 23  1  0
 23 24  2  0
 24 25  1  0
 25 26  2  0
 26 27  1  0
 27 28  2  0
 10  5  1  0
 19 11  1  0
 28 20  1  0
 18 13  1  0
 28 23  1  0
  4 29  1  0
  4 30  1  0
  6 31  1  0
  7 32  1  0
  8 33  1  0
  9 34  1  0
 10 35  1  0
 12 36  1  0
 12 37  1  0
 14 38  1  0
 15 39  1  0
 16 40  1  0
 17 41  1  0
 19 42  1  6
 21 43  1  0
 22 44  1  0
 24 45  1  0
 25 46  1  0
 26 47  1  0
 27 48  1  0
M  END
>  <smiles>  (91) 
O=S(=O)(Cc1ccccc1)N1Cc2ccccc2C1c1c[nH]c2ccccc12

>  <score_type>  (91) 
oracle

>  <origin>  (91) 
autodockgpu

>  <m_score__min__energy>  (91) 
-7.54

>  <m_primary>  (91) 
energy

>  <rmsd>  (91) 
10.610311856629558

>  <m_score__min__rmsd>  (91) 
10.610311856629558

>  <meeko>  (91) 
{"free_energy": -7.11, "intermolecular_energy": -8.3, "internal_energy": -1.87, "cluster_size": 13, "cluster_id": 3, "rank_in_cluster": 11}

>  <energy>  (91) 
-6.64

>  <cluster_rmsd>  (91) 
1.98

>  <cluster>  (91) 
4

$$$$

     RDKit          3D

 48 52  0  0  1  0  0  0  0  0999 V2000
  139.2230   67.8220  225.2200 O   0  0  0  0  0  0  0  0  0  0  0  0
  139.0980   68.9900  224.2980 S   0  0  0  0  0  0  0  0  0  0  0  0
  137.8350   69.7430  224.6890 O   0  0  0  0  0  0  0  0  0  0  0  0
  140.4900   70.0510  224.5870 C   0  0  0  0  0  0  0  0  0  0  0  0
  140.4560   70.6190  225.9640 C   0  0  0  0  0  0  0  0  0  0  0  0
  141.0750   71.8360  226.2630 C   0  0  0  0  0  0  0  0  0  0  0  0
  140.9900   72.2750  227.5530 C   0  0  0  0  0  0  0  0  0  0  0  0
  140.3410   71.6030  228.5670 C   0  0  0  0  0  0  0  0  0  0  0  0
  139.7290   70.3960  228.2690 C   0  0  0  0  0  0  0  0  0  0  0  0
  139.8060   69.9440  226.9830 C   0  0  0  0  0  0  0  0  0  0  0  0
  138.9460   68.4860  222.7040 N   0  0  0  0  0  0  0  0  0  0  0  0
  138.1420   67.3260  222.4900 C   0  0  0  0  0  0  0  0  0  0  0  0
  136.8030   67.9020  222.2060 C   0  0  0  0  0  0  0  0  0  0  0  0
  135.4970   67.4150  222.3130 C   0  0  0  0  0  0  0  0  0  0  0  0
  134.4110   68.2160  221.9570 C   0  0  0  0  0  0  0  0  0  0  0  0
  134.6220   69.5150  221.4880 C   0  0  0  0  0  0  0  0  0  0  0  0
  135.9220   69.9940  221.3840 C   0  0  0  0  0  0  0  0  0  0  0  0
  137.0010   69.1850  221.7420 C   0  0  0  0  0  0  0  0  0  0  0  0
  138.4910   69.4130  221.7410 C   0  0  1  0  0  0  0  0  0  0  0  0
  138.8310   70.8170  221.9170 C   0  0  0  0  0  0  0  0  0  0  0  0
  138.1580   71.8780  222.4800 C   0  0  0  0  0  0  0  0  0  0  0  0
  138.8850   73.0060  222.3940 N   0  0  0  0  0  0  0  0  0  0  0  0
  140.0430   72.7240  221.7820 C   0  0  0  0  0  0  0  0  0  0  0  0
  141.0950   73.5610  221.4770 C   0  0  0  0  0  0  0  0  0  0  0  0
  142.1930   73.0370  220.8370 C   0  0  0  0  0  0  0  0  0  0  0  0
  142.2060   71.6900  220.5200 C   0  0  0  0  0  0  0  0  0  0  0  0
  141.1480   70.8650  220.8320 C   0  0  0  0  0  0  0  0  0  0  0  0
  140.0370   71.3770  221.4750 C   0  0  0  0  0  0  0  0  0  0  0  0
  141.4160   69.4709  224.4606 H   0  0  0  0  0  0  0  0  0  0  0  0
  140.4517   70.8810  223.8661 H   0  0  0  0  0  0  0  0  0  0  0  0
  141.6070   72.4143  225.4932 H   0  0  0  0  0  0  0  0  0  0  0  0
  141.4731   73.2317  227.8006 H   0  0  0  0  0  0  0  0  0  0  0  0
  140.3098   72.0145  229.5866 H   0  0  0  0  0  0  0  0  0  0  0  0
  139.1989   69.8212  229.0427 H   0  0  0  0  0  0  0  0  0  0  0  0
  139.3225   68.9858  226.7421 H   0  0  0  0  0  0  0  0  0  0  0  0
  138.5109   66.7404  221.6351 H   0  0  0  0  0  0  0  0  0  0  0  0
  138.1452   66.6305  223.3422 H   0  0  0  0  0  0  0  0  0  0  0  0
  135.3240   66.3928  222.6806 H   0  0  0  0  0  0  0  0  0  0  0  0
  133.3871   67.8239  222.0458 H   0  0  0  0  0  0  0  0  0  0  0  0
  133.7699   70.1503  221.2047 H   0  0  0  0  0  0  0  0  0  0  0  0
  136.1014   71.0156  221.0178 H   0  0  0  0  0  0  0  0  0  0  0  0
  139.0049   69.2265  220.7864 H   0  0  0  0  0  0  0  0  0  0  0  0
  137.1602   71.8119  222.9383 H   0  0  0  0  0  0  0  0  0  0  0  0
  138.5910   73.9540  222.7520 H   0  0  0  0  0  0  0  0  0  0  0  0
  141.0566   74.6282  221.7408 H   0  0  0  0  0  0  0  0  0  0  0  0
  143.0487   73.6790  220.5806 H   0  0  0  0  0  0  0  0  0  0  0  0
  143.0824   71.2679  220.0065 H   0  0  0  0  0  0  0  0  0  0  0  0
  141.1874   69.7976  220.5691 H   0  0  0  0  0  0  0  0  0  0  0  0
  1  2  2  0
  2  3  2  0
  2  4  1  0
  4  5  1  0
  5  6  2  0
  6  7  1  0
  7  8  2  0
  8  9  1  0
  9 10  2  0
  2 11  1  0
 11 12  1  0
 12 13  1  0
 13 14  2  0
 14 15  1  0
 15 16  2  0
 16 17  1  0
 17 18  2  0
 18 19  1  0
 19 20  1  0
 20 21  2  0
 21 22  1  0
 22 23  1  0
 23 24  2  0
 24 25  1  0
 25 26  2  0
 26 27  1  0
 27 28  2  0
 10  5  1  0
 19 11  1  0
 28 20  1  0
 18 13  1  0
 28 23  1  0
  4 29  1  0
  4 30  1  0
  6 31  1  0
  7 32  1  0
  8 33  1  0
  9 34  1  0
 10 35  1  0
 12 36  1  0
 12 37  1  0
 14 38  1  0
 15 39  1  0
 16 40  1  0
 17 41  1  0
 19 42  1  6
 21 43  1  0
 22 44  1  0
 24 45  1  0
 25 46  1  0
 26 47  1  0
 27 48  1  0
M  END
>  <smiles>  (92) 
O=S(=O)(Cc1ccccc1)N1Cc2ccccc2C1c1c[nH]c2ccccc12

>  <score_type>  (92) 
oracle

>  <origin>  (92) 
autodockgpu

>  <m_score__min__energy>  (92) 
-7.54

>  <m_primary>  (92) 
energy

>  <rmsd>  (92) 
10.655946239794728

>  <m_score__min__rmsd>  (92) 
10.655946239794728

>  <meeko>  (92) 
{"free_energy": -7.15, "intermolecular_energy": -8.34, "internal_energy": -1.82, "cluster_size": 13, "cluster_id": 3, "rank_in_cluster": 8}

>  <energy>  (92) 
-6.64

>  <cluster_rmsd>  (92) 
1.97

>  <cluster>  (92) 
4

$$$$

     RDKit          3D

 48 52  0  0  1  0  0  0  0  0999 V2000
  141.4490   75.1280  221.9780 O   0  0  0  0  0  0  0  0  0  0  0  0
  140.0660   75.0490  221.4210 S   0  0  0  0  0  0  0  0  0  0  0  0
  139.2510   74.1660  222.3550 O   0  0  0  0  0  0  0  0  0  0  0  0
  139.3800   76.6850  221.4610 C   0  0  0  0  0  0  0  0  0  0  0  0
  140.4230   77.6960  221.7930 C   0  0  0  0  0  0  0  0  0  0  0  0
  140.9010   78.5890  220.8280 C   0  0  0  0  0  0  0  0  0  0  0  0
  141.8560   79.4790  221.2270 C   0  0  0  0  0  0  0  0  0  0  0  0
  142.3720   79.5540  222.5030 C   0  0  0  0  0  0  0  0  0  0  0  0
  141.8980   78.6670  223.4570 C   0  0  0  0  0  0  0  0  0  0  0  0
  140.9430   77.7710  223.0740 C   0  0  0  0  0  0  0  0  0  0  0  0
  140.0700   74.3500  219.8950 N   0  0  0  0  0  0  0  0  0  0  0  0
  138.8370   74.4070  219.1780 C   0  0  0  0  0  0  0  0  0  0  0  0
  138.9840   75.6450  218.3710 C   0  0  0  0  0  0  0  0  0  0  0  0
  138.0750   76.5300  217.7830 C   0  0  0  0  0  0  0  0  0  0  0  0
  138.5300   77.6350  217.0620 C   0  0  0  0  0  0  0  0  0  0  0  0
  139.9000   77.8650  216.9210 C   0  0  0  0  0  0  0  0  0  0  0  0
  140.7980   76.9820  217.5080 C   0  0  0  0  0  0  0  0  0  0  0  0
  140.3340   75.8800  218.2270 C   0  0  0  0  0  0  0  0  0  0  0  0
  141.0420   74.7700  218.9600 C   0  0  1  0  0  0  0  0  0  0  0  0
  142.3450   75.1840  219.4560 C   0  0  0  0  0  0  0  0  0  0  0  0
  142.9460   76.4150  219.5910 C   0  0  0  0  0  0  0  0  0  0  0  0
  144.1880   76.2900  220.0920 N   0  0  0  0  0  0  0  0  0  0  0  0
  144.4370   74.9900  220.3000 C   0  0  0  0  0  0  0  0  0  0  0  0
  145.5720   74.3890  220.8000 C   0  0  0  0  0  0  0  0  0  0  0  0
  145.5960   73.0200  220.9240 C   0  0  0  0  0  0  0  0  0  0  0  0
  144.4820   72.2930  220.5430 C   0  0  0  0  0  0  0  0  0  0  0  0
  143.3540   72.9070  220.0450 C   0  0  0  0  0  0  0  0  0  0  0  0
  143.3150   74.2820  219.9150 C   0  0  0  0  0  0  0  0  0  0  0  0
  138.9531   76.9198  220.4748 H   0  0  0  0  0  0  0  0  0  0  0  0
  138.6013   76.7185  222.2372 H   0  0  0  0  0  0  0  0  0  0  0  0
  140.5244   78.5746  219.7946 H   0  0  0  0  0  0  0  0  0  0  0  0
  142.2409   80.1861  220.4775 H   0  0  0  0  0  0  0  0  0  0  0  0
  143.1404   80.2988  222.7578 H   0  0  0  0  0  0  0  0  0  0  0  0
  142.2792   78.6849  224.4887 H   0  0  0  0  0  0  0  0  0  0  0  0
  140.5634   77.0659  223.8282 H   0  0  0  0  0  0  0  0  0  0  0  0
  138.7128   73.5252  218.5322 H   0  0  0  0  0  0  0  0  0  0  0  0
  137.9524   74.4152  219.8318 H   0  0  0  0  0  0  0  0  0  0  0  0
  136.9944   76.3542  217.8894 H   0  0  0  0  0  0  0  0  0  0  0  0
  137.8076   78.3264  216.6037 H   0  0  0  0  0  0  0  0  0  0  0  0
  140.2636   78.7338  216.3527 H   0  0  0  0  0  0  0  0  0  0  0  0
  141.8798   77.1526  217.4053 H   0  0  0  0  0  0  0  0  0  0  0  0
  141.3529   73.9110  218.3472 H   0  0  0  0  0  0  0  0  0  0  0  0
  142.4740   77.3723  219.3249 H   0  0  0  0  0  0  0  0  0  0  0  0
  144.8520   77.0850  220.2890 H   0  0  0  0  0  0  0  0  0  0  0  0
  146.4426   74.9935  221.0944 H   0  0  0  0  0  0  0  0  0  0  0  0
  146.4869   72.5105  221.3199 H   0  0  0  0  0  0  0  0  0  0  0  0
  144.4976   71.1974  220.6402 H   0  0  0  0  0  0  0  0  0  0  0  0
  142.4836   72.3022  219.7506 H   0  0  0  0  0  0  0  0  0  0  0  0
  1  2  2  0
  2  3  2  0
  2  4  1  0
  4  5  1  0
  5  6  2  0
  6  7  1  0
  7  8  2  0
  8  9  1  0
  9 10  2  0
  2 11  1  0
 11 12  1  0
 12 13  1  0
 13 14  2  0
 14 15  1  0
 15 16  2  0
 16 17  1  0
 17 18  2  0
 18 19  1  0
 19 20  1  0
 20 21  2  0
 21 22  1  0
 22 23  1  0
 23 24  2  0
 24 25  1  0
 25 26  2  0
 26 27  1  0
 27 28  2  0
 10  5  1  0
 19 11  1  0
 28 20  1  0
 18 13  1  0
 28 23  1  0
  4 29  1  0
  4 30  1  0
  6 31  1  0
  7 32  1  0
  8 33  1  0
  9 34  1  0
 10 35  1  0
 12 36  1  0
 12 37  1  0
 14 38  1  0
 15 39  1  0
 16 40  1  0
 17 41  1  0
 19 42  1  6
 21 43  1  0
 22 44  1  0
 24 45  1  0
 25 46  1  0
 26 47  1  0
 27 48  1  0
M  END
>  <smiles>  (93) 
O=S(=O)(Cc1ccccc1)N1Cc2ccccc2C1c1c[nH]c2ccccc12

>  <score_type>  (93) 
oracle

>  <origin>  (93) 
autodockgpu

>  <m_score__min__energy>  (93) 
-7.54

>  <m_primary>  (93) 
energy

>  <rmsd>  (93) 
7.049110284328624

>  <m_score__min__rmsd>  (93) 
7.049110284328624

>  <meeko>  (93) 
{"free_energy": -6.67, "intermolecular_energy": -7.86, "internal_energy": -2.27, "cluster_size": 19, "cluster_id": 4, "rank_in_cluster": 11}

>  <energy>  (93) 
-6.58

>  <cluster_rmsd>  (93) 
1.94

>  <cluster>  (93) 
4

$$$$

     RDKit          3D

 48 52  0  0  1  0  0  0  0  0999 V2000
  140.7270   74.9960  219.4880 O   0  0  0  0  0  0  0  0  0  0  0  0
  141.2640   75.8670  220.5750 S   0  0  0  0  0  0  0  0  0  0  0  0
  141.3940   75.0060  221.8230 O   0  0  0  0  0  0  0  0  0  0  0  0
  142.8880   76.3900  220.0880 C   0  0  0  0  0  0  0  0  0  0  0  0
  143.6990   75.2390  219.6000 C   0  0  0  0  0  0  0  0  0  0  0  0
  143.6740   74.8510  218.2570 C   0  0  0  0  0  0  0  0  0  0  0  0
  144.4510   73.7850  217.9050 C   0  0  0  0  0  0  0  0  0  0  0  0
  145.2470   73.0750  218.7780 C   0  0  0  0  0  0  0  0  0  0  0  0
  145.2690   73.4600  220.1090 C   0  0  0  0  0  0  0  0  0  0  0  0
  144.4980   74.5250  220.4760 C   0  0  0  0  0  0  0  0  0  0  0  0
  140.2130   77.1330  220.9080 N   0  0  0  0  0  0  0  0  0  0  0  0
  139.9390   77.3710  222.2890 C   0  0  0  0  0  0  0  0  0  0  0  0
  140.9460   78.4010  222.6500 C   0  0  0  0  0  0  0  0  0  0  0  0
  141.5390   78.7940  223.8530 C   0  0  0  0  0  0  0  0  0  0  0  0
  142.4770   79.8270  223.8760 C   0  0  0  0  0  0  0  0  0  0  0  0
  142.8300   80.4800  222.6930 C   0  0  0  0  0  0  0  0  0  0  0  0
  142.2370   80.0850  221.4990 C   0  0  0  0  0  0  0  0  0  0  0  0
  141.3000   79.0500  221.4880 C   0  0  0  0  0  0  0  0  0  0  0  0
  140.5030   78.4100  220.3800 C   0  0  1  0  0  0  0  0  0  0  0  0
  141.1830   78.4910  219.0970 C   0  0  0  0  0  0  0  0  0  0  0  0
  142.3000   79.1750  218.6730 C   0  0  0  0  0  0  0  0  0  0  0  0
  142.5370   78.9430  217.3690 N   0  0  0  0  0  0  0  0  0  0  0  0
  141.5970   78.1100  216.9040 C   0  0  0  0  0  0  0  0  0  0  0  0
  141.4370   77.5970  215.6350 C   0  0  0  0  0  0  0  0  0  0  0  0
  140.3820   76.7500  215.3920 C   0  0  0  0  0  0  0  0  0  0  0  0
  139.5170   76.4420  216.4270 C   0  0  0  0  0  0  0  0  0  0  0  0
  139.6890   76.9610  217.6910 C   0  0  0  0  0  0  0  0  0  0  0  0
  140.7450   77.8140  217.9510 C   0  0  0  0  0  0  0  0  0  0  0  0
  142.7993   77.1340  219.2826 H   0  0  0  0  0  0  0  0  0  0  0  0
  143.3917   76.8258  220.9635 H   0  0  0  0  0  0  0  0  0  0  0  0
  143.0560   75.3808  217.5172 H   0  0  0  0  0  0  0  0  0  0  0  0
  144.4411   73.4708  216.8509 H   0  0  0  0  0  0  0  0  0  0  0  0
  145.8495   72.2243  218.4270 H   0  0  0  0  0  0  0  0  0  0  0  0
  145.8871   72.9253  220.8452 H   0  0  0  0  0  0  0  0  0  0  0  0
  144.5126   74.8344  221.5315 H   0  0  0  0  0  0  0  0  0  0  0  0
  138.9161   77.7498  222.4307 H   0  0  0  0  0  0  0  0  0  0  0  0
  140.0014   76.4642  222.9085 H   0  0  0  0  0  0  0  0  0  0  0  0
  141.2643   78.2852  224.7888 H   0  0  0  0  0  0  0  0  0  0  0  0
  142.9393   80.1275  224.8278 H   0  0  0  0  0  0  0  0  0  0  0  0
  143.5675   81.2961  222.7057 H   0  0  0  0  0  0  0  0  0  0  0  0
  142.5071   80.5898  220.5597 H   0  0  0  0  0  0  0  0  0  0  0  0
  139.5632   78.9141  220.1105 H   0  0  0  0  0  0  0  0  0  0  0  0
  142.9156   79.8235  219.3137 H   0  0  0  0  0  0  0  0  0  0  0  0
  143.3330   79.3500  216.8100 H   0  0  0  0  0  0  0  0  0  0  0  0
  142.1405   77.8604  214.8314 H   0  0  0  0  0  0  0  0  0  0  0  0
  140.2278   76.3235  214.3898 H   0  0  0  0  0  0  0  0  0  0  0  0
  138.6708   75.7657  216.2355 H   0  0  0  0  0  0  0  0  0  0  0  0
  138.9855   76.6965  218.4942 H   0  0  0  0  0  0  0  0  0  0  0  0
  1  2  2  0
  2  3  2  0
  2  4  1  0
  4  5  1  0
  5  6  2  0
  6  7  1  0
  7  8  2  0
  8  9  1  0
  9 10  2  0
  2 11  1  0
 11 12  1  0
 12 13  1  0
 13 14  2  0
 14 15  1  0
 15 16  2  0
 16 17  1  0
 17 18  2  0
 18 19  1  0
 19 20  1  0
 20 21  2  0
 21 22  1  0
 22 23  1  0
 23 24  2  0
 24 25  1  0
 25 26  2  0
 26 27  1  0
 27 28  2  0
 10  5  1  0
 19 11  1  0
 28 20  1  0
 18 13  1  0
 28 23  1  0
  4 29  1  0
  4 30  1  0
  6 31  1  0
  7 32  1  0
  8 33  1  0
  9 34  1  0
 10 35  1  0
 12 36  1  0
 12 37  1  0
 14 38  1  0
 15 39  1  0
 16 40  1  0
 17 41  1  0
 19 42  1  6
 21 43  1  0
 22 44  1  0
 24 45  1  0
 25 46  1  0
 26 47  1  0
 27 48  1  0
M  END
>  <smiles>  (94) 
O=S(=O)(Cc1ccccc1)N1Cc2ccccc2C1c1c[nH]c2ccccc12

>  <score_type>  (94) 
oracle

>  <origin>  (94) 
autodockgpu

>  <m_score__min__energy>  (94) 
-7.54

>  <m_primary>  (94) 
energy

>  <rmsd>  (94) 
5.941419082261691

>  <m_score__min__rmsd>  (94) 
5.941419082261691

>  <meeko>  (94) 
{"free_energy": -7.06, "intermolecular_energy": -8.25, "internal_energy": -1.76, "cluster_size": 19, "cluster_id": 4, "rank_in_cluster": 3}

>  <energy>  (94) 
-6.56

>  <cluster_rmsd>  (94) 
1.92

>  <cluster>  (94) 
4

$$$$

     RDKit          3D

 48 52  0  0  1  0  0  0  0  0999 V2000
  141.4170   75.1270  221.9740 O   0  0  0  0  0  0  0  0  0  0  0  0
  140.0350   75.0490  221.4120 S   0  0  0  0  0  0  0  0  0  0  0  0
  139.2140   74.1770  222.3510 O   0  0  0  0  0  0  0  0  0  0  0  0
  139.3550   76.6880  221.4360 C   0  0  0  0  0  0  0  0  0  0  0  0
  140.3950   77.6950  221.7880 C   0  0  0  0  0  0  0  0  0  0  0  0
  140.8810   78.5990  220.8390 C   0  0  0  0  0  0  0  0  0  0  0  0
  141.8330   79.4850  221.2560 C   0  0  0  0  0  0  0  0  0  0  0  0
  142.3380   79.5450  222.5370 C   0  0  0  0  0  0  0  0  0  0  0  0
  141.8550   78.6480  223.4760 C   0  0  0  0  0  0  0  0  0  0  0  0
  140.9030   77.7560  223.0750 C   0  0  0  0  0  0  0  0  0  0  0  0
  140.0420   74.3370  219.8920 N   0  0  0  0  0  0  0  0  0  0  0  0
  138.8110   74.3920  219.1710 C   0  0  0  0  0  0  0  0  0  0  0  0
  138.9630   75.6230  218.3540 C   0  0  0  0  0  0  0  0  0  0  0  0
  138.0590   76.5050  217.7570 C   0  0  0  0  0  0  0  0  0  0  0  0
  138.5180   77.6030  217.0280 C   0  0  0  0  0  0  0  0  0  0  0  0
  139.8900   77.8280  216.8880 C   0  0  0  0  0  0  0  0  0  0  0  0
  140.7840   76.9470  217.4850 C   0  0  0  0  0  0  0  0  0  0  0  0
  140.3150   75.8530  218.2120 C   0  0  0  0  0  0  0  0  0  0  0  0
  141.0170   74.7470  218.9570 C   0  0  1  0  0  0  0  0  0  0  0  0
  142.3200   75.1610  219.4530 C   0  0  0  0  0  0  0  0  0  0  0  0
  142.9210   76.3930  219.5850 C   0  0  0  0  0  0  0  0  0  0  0  0
  144.1630   76.2680  220.0880 N   0  0  0  0  0  0  0  0  0  0  0  0
  144.4120   74.9690  220.3000 C   0  0  0  0  0  0  0  0  0  0  0  0
  145.5450   74.3690  220.8030 C   0  0  0  0  0  0  0  0  0  0  0  0
  145.5680   73.0000  220.9300 C   0  0  0  0  0  0  0  0  0  0  0  0
  144.4550   72.2720  220.5500 C   0  0  0  0  0  0  0  0  0  0  0  0
  143.3280   72.8860  220.0500 C   0  0  0  0  0  0  0  0  0  0  0  0
  143.2890   74.2600  219.9160 C   0  0  0  0  0  0  0  0  0  0  0  0
  138.9493   76.9233  220.4410 H   0  0  0  0  0  0  0  0  0  0  0  0
  138.5607   76.7257  222.1961 H   0  0  0  0  0  0  0  0  0  0  0  0
  140.5130   78.5969  219.8024 H   0  0  0  0  0  0  0  0  0  0  0  0
  142.2240   80.2008  220.5179 H   0  0  0  0  0  0  0  0  0  0  0  0
  143.1048   80.2860  222.8069 H   0  0  0  0  0  0  0  0  0  0  0  0
  142.2268   78.6546  224.5112 H   0  0  0  0  0  0  0  0  0  0  0  0
  140.5162   77.0432  223.8181 H   0  0  0  0  0  0  0  0  0  0  0  0
  138.6861   73.5053  218.5321 H   0  0  0  0  0  0  0  0  0  0  0  0
  137.9250   74.4084  219.8227 H   0  0  0  0  0  0  0  0  0  0  0  0
  136.9777   76.3328  217.8623 H   0  0  0  0  0  0  0  0  0  0  0  0
  137.7983   78.2926  216.5627 H   0  0  0  0  0  0  0  0  0  0  0  0
  140.2576   78.6908  216.3131 H   0  0  0  0  0  0  0  0  0  0  0  0
  141.8666   77.1134  217.3836 H   0  0  0  0  0  0  0  0  0  0  0  0
  141.3266   73.8819  218.3522 H   0  0  0  0  0  0  0  0  0  0  0  0
  142.4497   77.3498  219.3158 H   0  0  0  0  0  0  0  0  0  0  0  0
  144.8270   77.0640  220.2840 H   0  0  0  0  0  0  0  0  0  0  0  0
  146.4154   74.9737  221.0977 H   0  0  0  0  0  0  0  0  0  0  0  0
  146.4584   72.4913  221.3279 H   0  0  0  0  0  0  0  0  0  0  0  0
  144.4703   71.1766  220.6495 H   0  0  0  0  0  0  0  0  0  0  0  0
  142.4574   72.2809  219.7569 H   0  0  0  0  0  0  0  0  0  0  0  0
  1  2  2  0
  2  3  2  0
  2  4  1  0
  4  5  1  0
  5  6  2  0
  6  7  1  0
  7  8  2  0
  8  9  1  0
  9 10  2  0
  2 11  1  0
 11 12  1  0
 12 13  1  0
 13 14  2  0
 14 15  1  0
 15 16  2  0
 16 17  1  0
 17 18  2  0
 18 19  1  0
 19 20  1  0
 20 21  2  0
 21 22  1  0
 22 23  1  0
 23 24  2  0
 24 25  1  0
 25 26  2  0
 26 27  1  0
 27 28  2  0
 10  5  1  0
 19 11  1  0
 28 20  1  0
 18 13  1  0
 28 23  1  0
  4 29  1  0
  4 30  1  0
  6 31  1  0
  7 32  1  0
  8 33  1  0
  9 34  1  0
 10 35  1  0
 12 36  1  0
 12 37  1  0
 14 38  1  0
 15 39  1  0
 16 40  1  0
 17 41  1  0
 19 42  1  6
 21 43  1  0
 22 44  1  0
 24 45  1  0
 25 46  1  0
 26 47  1  0
 27 48  1  0
M  END
>  <smiles>  (95) 
O=S(=O)(Cc1ccccc1)N1Cc2ccccc2C1c1c[nH]c2ccccc12

>  <score_type>  (95) 
oracle

>  <origin>  (95) 
autodockgpu

>  <m_score__min__energy>  (95) 
-7.54

>  <m_primary>  (95) 
energy

>  <rmsd>  (95) 
7.057190173757346

>  <m_score__min__rmsd>  (95) 
7.057190173757346

>  <meeko>  (95) 
{"free_energy": -6.69, "intermolecular_energy": -7.88, "internal_energy": -2.26, "cluster_size": 19, "cluster_id": 4, "rank_in_cluster": 10}

>  <energy>  (95) 
-6.53

>  <cluster_rmsd>  (95) 
2.0

>  <cluster>  (95) 
4

$$$$

     RDKit          3D

 48 52  0  0  1  0  0  0  0  0999 V2000
  140.7080   75.0070  219.5080 O   0  0  0  0  0  0  0  0  0  0  0  0
  141.2450   75.8890  220.5870 S   0  0  0  0  0  0  0  0  0  0  0  0
  141.3800   75.0390  221.8420 O   0  0  0  0  0  0  0  0  0  0  0  0
  142.8660   76.4130  220.0920 C   0  0  0  0  0  0  0  0  0  0  0  0
  143.6920   75.2550  219.6480 C   0  0  0  0  0  0  0  0  0  0  0  0
  144.4810   74.5380  220.5520 C   0  0  0  0  0  0  0  0  0  0  0  0
  145.2040   73.4930  220.0510 C   0  0  0  0  0  0  0  0  0  0  0  0
  145.2040   73.1050  218.7290 C   0  0  0  0  0  0  0  0  0  0  0  0
  144.4210   73.8180  217.8340 C   0  0  0  0  0  0  0  0  0  0  0  0
  143.6930   74.8650  218.3200 C   0  0  0  0  0  0  0  0  0  0  0  0
  140.1900   77.1550  220.9120 N   0  0  0  0  0  0  0  0  0  0  0  0
  139.9090   77.3960  222.2910 C   0  0  0  0  0  0  0  0  0  0  0  0
  140.9130   78.4290  222.6540 C   0  0  0  0  0  0  0  0  0  0  0  0
  141.5000   78.8250  223.8580 C   0  0  0  0  0  0  0  0  0  0  0  0
  142.4360   79.8600  223.8830 C   0  0  0  0  0  0  0  0  0  0  0  0
  142.7940   80.5100  222.6990 C   0  0  0  0  0  0  0  0  0  0  0  0
  142.2070   80.1110  221.5040 C   0  0  0  0  0  0  0  0  0  0  0  0
  141.2720   79.0750  221.4910 C   0  0  0  0  0  0  0  0  0  0  0  0
  140.4810   78.4310  220.3820 C   0  0  1  0  0  0  0  0  0  0  0  0
  141.1660   78.5090  219.1010 C   0  0  0  0  0  0  0  0  0  0  0  0
  142.2850   79.1930  218.6810 C   0  0  0  0  0  0  0  0  0  0  0  0
  142.5280   78.9580  217.3790 N   0  0  0  0  0  0  0  0  0  0  0  0
  141.5900   78.1240  216.9110 C   0  0  0  0  0  0  0  0  0  0  0  0
  141.4360   77.6080  215.6420 C   0  0  0  0  0  0  0  0  0  0  0  0
  140.3820   76.7600  215.3960 C   0  0  0  0  0  0  0  0  0  0  0  0
  139.5130   76.4530  216.4280 C   0  0  0  0  0  0  0  0  0  0  0  0
  139.6790   76.9750  217.6920 C   0  0  0  0  0  0  0  0  0  0  0  0
  140.7340   77.8290  217.9550 C   0  0  0  0  0  0  0  0  0  0  0  0
  142.7743   77.1283  219.2614 H   0  0  0  0  0  0  0  0  0  0  0  0
  143.3597   76.8837  220.9550 H   0  0  0  0  0  0  0  0  0  0  0  0
  144.5180   74.8034  221.6189 H   0  0  0  0  0  0  0  0  0  0  0  0
  145.8299   72.9213  220.7520 H   0  0  0  0  0  0  0  0  0  0  0  0
  145.8100   72.2510  218.3920 H   0  0  0  0  0  0  0  0  0  0  0  0
  144.3877   73.5488  216.7680 H   0  0  0  0  0  0  0  0  0  0  0  0
  143.0695   75.4331  217.6139 H   0  0  0  0  0  0  0  0  0  0  0  0
  138.8848   77.7735  222.4269 H   0  0  0  0  0  0  0  0  0  0  0  0
  139.9698   76.4909  222.9132 H   0  0  0  0  0  0  0  0  0  0  0  0
  141.2225   78.3173  224.7935 H   0  0  0  0  0  0  0  0  0  0  0  0
  142.8926   80.1645  224.8363 H   0  0  0  0  0  0  0  0  0  0  0  0
  143.5307   81.3267  222.7125 H   0  0  0  0  0  0  0  0  0  0  0  0
  142.4805   80.6138  220.5647 H   0  0  0  0  0  0  0  0  0  0  0  0
  139.5418   78.9336  220.1075 H   0  0  0  0  0  0  0  0  0  0  0  0
  142.8971   79.8433  219.3231 H   0  0  0  0  0  0  0  0  0  0  0  0
  143.3260   79.3640  216.8210 H   0  0  0  0  0  0  0  0  0  0  0  0
  142.1432   77.8698  214.8411 H   0  0  0  0  0  0  0  0  0  0  0  0
  140.2319   76.3321  214.3938 H   0  0  0  0  0  0  0  0  0  0  0  0
  138.6685   75.7752  216.2343 H   0  0  0  0  0  0  0  0  0  0  0  0
  138.9718   76.7122  218.4925 H   0  0  0  0  0  0  0  0  0  0  0  0
  1  2  2  0
  2  3  2  0
  2  4  1  0
  4  5  1  0
  5  6  2  0
  6  7  1  0
  7  8  2  0
  8  9  1  0
  9 10  2  0
  2 11  1  0
 11 12  1  0
 12 13  1  0
 13 14  2  0
 14 15  1  0
 15 16  2  0
 16 17  1  0
 17 18  2  0
 18 19  1  0
 19 20  1  0
 20 21  2  0
 21 22  1  0
 22 23  1  0
 23 24  2  0
 24 25  1  0
 25 26  2  0
 26 27  1  0
 27 28  2  0
 10  5  1  0
 19 11  1  0
 28 20  1  0
 18 13  1  0
 28 23  1  0
  4 29  1  0
  4 30  1  0
  6 31  1  0
  7 32  1  0
  8 33  1  0
  9 34  1  0
 10 35  1  0
 12 36  1  0
 12 37  1  0
 14 38  1  0
 15 39  1  0
 16 40  1  0
 17 41  1  0
 19 42  1  6
 21 43  1  0
 22 44  1  0
 24 45  1  0
 25 46  1  0
 26 47  1  0
 27 48  1  0
M  END
>  <smiles>  (96) 
O=S(=O)(Cc1ccccc1)N1Cc2ccccc2C1c1c[nH]c2ccccc12

>  <score_type>  (96) 
oracle

>  <origin>  (96) 
autodockgpu

>  <m_score__min__energy>  (96) 
-7.54

>  <m_primary>  (96) 
energy

>  <rmsd>  (96) 
5.9396943016071395

>  <m_score__min__rmsd>  (96) 
5.9396943016071395

>  <meeko>  (96) 
{"free_energy": -7.02, "intermolecular_energy": -8.21, "internal_energy": -1.75, "cluster_size": 19, "cluster_id": 4, "rank_in_cluster": 8}

>  <energy>  (96) 
-6.88

>  <cluster_rmsd>  (96) 
0.0

>  <cluster>  (96) 
5

$$$$

     RDKit          3D

 48 52  0  0  1  0  0  0  0  0999 V2000
  139.1910   67.8300  225.2350 O   0  0  0  0  0  0  0  0  0  0  0  0
  139.1420   69.0020  224.3110 S   0  0  0  0  0  0  0  0  0  0  0  0
  137.9210   69.8280  224.6920 O   0  0  0  0  0  0  0  0  0  0  0  0
  140.5910   69.9800  224.6120 C   0  0  0  0  0  0  0  0  0  0  0  0
  140.5640   70.5750  225.9780 C   0  0  0  0  0  0  0  0  0  0  0  0
  140.0250   69.8770  227.0620 C   0  0  0  0  0  0  0  0  0  0  0  0
  140.0450   70.5040  228.2760 C   0  0  0  0  0  0  0  0  0  0  0  0
  140.5560   71.7650  228.4960 C   0  0  0  0  0  0  0  0  0  0  0  0
  141.0900   72.4550  227.4190 C   0  0  0  0  0  0  0  0  0  0  0  0
  141.0770   71.8410  226.2000 C   0  0  0  0  0  0  0  0  0  0  0  0
  138.9740   68.5060  222.7160 N   0  0  0  0  0  0  0  0  0  0  0  0
  138.1350   67.3720  222.4990 C   0  0  0  0  0  0  0  0  0  0  0  0
  136.8140   67.9900  222.2170 C   0  0  0  0  0  0  0  0  0  0  0  0
  135.4940   67.5430  222.3230 C   0  0  0  0  0  0  0  0  0  0  0  0
  134.4330   68.3780  221.9690 C   0  0  0  0  0  0  0  0  0  0  0  0
  134.6840   69.6710  221.5030 C   0  0  0  0  0  0  0  0  0  0  0  0
  135.9990   70.1100  221.3990 C   0  0  0  0  0  0  0  0  0  0  0  0
  137.0520   69.2670  221.7560 C   0  0  0  0  0  0  0  0  0  0  0  0
  138.5480   69.4490  221.7560 C   0  0  1  0  0  0  0  0  0  0  0  0
  138.9310   70.8410  221.9340 C   0  0  0  0  0  0  0  0  0  0  0  0
  138.3000   71.9170  222.5180 C   0  0  0  0  0  0  0  0  0  0  0  0
  139.0570   73.0250  222.4250 N   0  0  0  0  0  0  0  0  0  0  0  0
  140.1940   72.7150  221.7880 C   0  0  0  0  0  0  0  0  0  0  0  0
  141.2630   73.5240  221.4680 C   0  0  0  0  0  0  0  0  0  0  0  0
  142.3330   72.9740  220.8030 C   0  0  0  0  0  0  0  0  0  0  0  0
  142.3020   71.6300  220.4770 C   0  0  0  0  0  0  0  0  0  0  0  0
  141.2270   70.8330  220.8040 C   0  0  0  0  0  0  0  0  0  0  0  0
  140.1440   71.3700  221.4730 C   0  0  0  0  0  0  0  0  0  0  0  0
  141.4815   69.3414  224.5161 H   0  0  0  0  0  0  0  0  0  0  0  0
  140.6194   70.7971  223.8761 H   0  0  0  0  0  0  0  0  0  0  0  0
  139.6034   68.8679  226.9433 H   0  0  0  0  0  0  0  0  0  0  0  0
  139.6240   69.9649  229.1375 H   0  0  0  0  0  0  0  0  0  0  0  0
  140.5404   72.2124  229.5008 H   0  0  0  0  0  0  0  0  0  0  0  0
  141.5103   73.4640  227.5426 H   0  0  0  0  0  0  0  0  0  0  0  0
  141.4997   72.3852  225.3426 H   0  0  0  0  0  0  0  0  0  0  0  0
  138.4856   66.7778  221.6423 H   0  0  0  0  0  0  0  0  0  0  0  0
  138.1170   66.6742  223.3491 H   0  0  0  0  0  0  0  0  0  0  0  0
  135.2898   66.5257  222.6881 H   0  0  0  0  0  0  0  0  0  0  0  0
  133.3975   68.0174  222.0570 H   0  0  0  0  0  0  0  0  0  0  0  0
  133.8518   70.3332  221.2220 H   0  0  0  0  0  0  0  0  0  0  0  0
  136.2101   71.1259  221.0338 H   0  0  0  0  0  0  0  0  0  0  0  0
  139.0566   69.2491  220.8014 H   0  0  0  0  0  0  0  0  0  0  0  0
  137.3102   71.8758  222.9961 H   0  0  0  0  0  0  0  0  0  0  0  0
  138.7970   73.9770  222.7960 H   0  0  0  0  0  0  0  0  0  0  0  0
  141.2600   74.5899  221.7397 H   0  0  0  0  0  0  0  0  0  0  0  0
  143.2012   73.5936  220.5340 H   0  0  0  0  0  0  0  0  0  0  0  0
  143.1562   71.1871  219.9439 H   0  0  0  0  0  0  0  0  0  0  0  0
  141.2309   69.7672  220.5320 H   0  0  0  0  0  0  0  0  0  0  0  0
  1  2  2  0
  2  3  2  0
  2  4  1  0
  4  5  1  0
  5  6  2  0
  6  7  1  0
  7  8  2  0
  8  9  1  0
  9 10  2  0
  2 11  1  0
 11 12  1  0
 12 13  1  0
 13 14  2  0
 14 15  1  0
 15 16  2  0
 16 17  1  0
 17 18  2  0
 18 19  1  0
 19 20  1  0
 20 21  2  0
 21 22  1  0
 22 23  1  0
 23 24  2  0
 24 25  1  0
 25 26  2  0
 26 27  1  0
 27 28  2  0
 10  5  1  0
 19 11  1  0
 28 20  1  0
 18 13  1  0
 28 23  1  0
  4 29  1  0
  4 30  1  0
  6 31  1  0
  7 32  1  0
  8 33  1  0
  9 34  1  0
 10 35  1  0
 12 36  1  0
 12 37  1  0
 14 38  1  0
 15 39  1  0
 16 40  1  0
 17 41  1  0
 19 42  1  6
 21 43  1  0
 22 44  1  0
 24 45  1  0
 25 46  1  0
 26 47  1  0
 27 48  1  0
M  END
>  <smiles>  (97) 
O=S(=O)(Cc1ccccc1)N1Cc2ccccc2C1c1c[nH]c2ccccc12

>  <score_type>  (97) 
oracle

>  <origin>  (97) 
autodockgpu

>  <m_score__min__energy>  (97) 
-7.54

>  <m_primary>  (97) 
energy

>  <rmsd>  (97) 
10.616176423635574

>  <m_score__min__rmsd>  (97) 
10.616176423635574

>  <meeko>  (97) 
{"free_energy": -7.09, "intermolecular_energy": -8.28, "internal_energy": -1.86, "cluster_size": 13, "cluster_id": 3, "rank_in_cluster": 12}

>  <energy>  (97) 
-6.87

>  <cluster_rmsd>  (97) 
0.03

>  <cluster>  (97) 
5

$$$$

     RDKit          3D

 48 52  0  0  1  0  0  0  0  0999 V2000
  140.7160   75.0210  219.5360 O   0  0  0  0  0  0  0  0  0  0  0  0
  141.2610   75.9110  220.6040 S   0  0  0  0  0  0  0  0  0  0  0  0
  141.4070   75.0700  221.8640 O   0  0  0  0  0  0  0  0  0  0  0  0
  142.8780   76.4320  220.0920 C   0  0  0  0  0  0  0  0  0  0  0  0
  143.6850   75.2780  219.6050 C   0  0  0  0  0  0  0  0  0  0  0  0
  143.6630   74.8920  218.2610 C   0  0  0  0  0  0  0  0  0  0  0  0
  144.4360   73.8220  217.9110 C   0  0  0  0  0  0  0  0  0  0  0  0
  145.2260   73.1080  218.7860 C   0  0  0  0  0  0  0  0  0  0  0  0
  145.2450   73.4920  220.1170 C   0  0  0  0  0  0  0  0  0  0  0  0
  144.4780   74.5590  220.4830 C   0  0  0  0  0  0  0  0  0  0  0  0
  140.2080   77.1780  220.9280 N   0  0  0  0  0  0  0  0  0  0  0  0
  139.9300   77.4230  222.3070 C   0  0  0  0  0  0  0  0  0  0  0  0
  140.9360   78.4560  222.6650 C   0  0  0  0  0  0  0  0  0  0  0  0
  141.5260   78.8540  223.8680 C   0  0  0  0  0  0  0  0  0  0  0  0
  142.4630   79.8880  223.8880 C   0  0  0  0  0  0  0  0  0  0  0  0
  142.8190   80.5350  222.7020 C   0  0  0  0  0  0  0  0  0  0  0  0
  142.2290   80.1340  221.5090 C   0  0  0  0  0  0  0  0  0  0  0  0
  141.2930   79.0990  221.5000 C   0  0  0  0  0  0  0  0  0  0  0  0
  140.4990   78.4530  220.3940 C   0  0  1  0  0  0  0  0  0  0  0  0
  141.1820   78.5270  219.1120 C   0  0  0  0  0  0  0  0  0  0  0  0
  142.2980   79.2130  218.6870 C   0  0  0  0  0  0  0  0  0  0  0  0
  142.5390   78.9730  217.3850 N   0  0  0  0  0  0  0  0  0  0  0  0
  141.6030   78.1330  216.9230 C   0  0  0  0  0  0  0  0  0  0  0  0
  141.4480   77.6110  215.6570 C   0  0  0  0  0  0  0  0  0  0  0  0
  140.3970   76.7590  215.4160 C   0  0  0  0  0  0  0  0  0  0  0  0
  139.5310   76.4540  216.4520 C   0  0  0  0  0  0  0  0  0  0  0  0
  139.6980   76.9830  217.7120 C   0  0  0  0  0  0  0  0  0  0  0  0
  140.7500   77.8410  217.9690 C   0  0  0  0  0  0  0  0  0  0  0  0
  142.7780   77.1681  219.2807 H   0  0  0  0  0  0  0  0  0  0  0  0
  143.3916   76.8768  220.9571 H   0  0  0  0  0  0  0  0  0  0  0  0
  143.0508   75.4261  217.5194 H   0  0  0  0  0  0  0  0  0  0  0  0
  144.4275   73.5080  216.8568 H   0  0  0  0  0  0  0  0  0  0  0  0
  145.8261   72.2550  218.4365 H   0  0  0  0  0  0  0  0  0  0  0  0
  145.8586   72.9540  220.8546 H   0  0  0  0  0  0  0  0  0  0  0  0
  144.4903   74.8666  221.5390 H   0  0  0  0  0  0  0  0  0  0  0  0
  138.9065   77.8020  222.4440 H   0  0  0  0  0  0  0  0  0  0  0  0
  139.9910   76.5196  222.9316 H   0  0  0  0  0  0  0  0  0  0  0  0
  141.2499   78.3488  224.8053 H   0  0  0  0  0  0  0  0  0  0  0  0
  142.9222   80.1943  224.8395 H   0  0  0  0  0  0  0  0  0  0  0  0
  143.5565   81.3511  222.7122 H   0  0  0  0  0  0  0  0  0  0  0  0
  142.5011   80.6346  220.5681 H   0  0  0  0  0  0  0  0  0  0  0  0
  139.5597   78.9557  220.1201 H   0  0  0  0  0  0  0  0  0  0  0  0
  142.9093   79.8681  219.3251 H   0  0  0  0  0  0  0  0  0  0  0  0
  143.3350   79.3790  216.8250 H   0  0  0  0  0  0  0  0  0  0  0  0
  142.1529   77.8717  214.8538 H   0  0  0  0  0  0  0  0  0  0  0  0
  140.2463   76.3264  214.4159 H   0  0  0  0  0  0  0  0  0  0  0  0
  138.6886   75.7721  216.2638 H   0  0  0  0  0  0  0  0  0  0  0  0
  138.9930   76.7223  218.5151 H   0  0  0  0  0  0  0  0  0  0  0  0
  1  2  2  0
  2  3  2  0
  2  4  1  0
  4  5  1  0
  5  6  2  0
  6  7  1  0
  7  8  2  0
  8  9  1  0
  9 10  2  0
  2 11  1  0
 11 12  1  0
 12 13  1  0
 13 14  2  0
 14 15  1  0
 15 16  2  0
 16 17  1  0
 17 18  2  0
 18 19  1  0
 19 20  1  0
 20 21  2  0
 21 22  1  0
 22 23  1  0
 23 24  2  0
 24 25  1  0
 25 26  2  0
 26 27  1  0
 27 28  2  0
 10  5  1  0
 19 11  1  0
 28 20  1  0
 18 13  1  0
 28 23  1  0
  4 29  1  0
  4 30  1  0
  6 31  1  0
  7 32  1  0
  8 33  1  0
  9 34  1  0
 10 35  1  0
 12 36  1  0
 12 37  1  0
 14 38  1  0
 15 39  1  0
 16 40  1  0
 17 41  1  0
 19 42  1  6
 21 43  1  0
 22 44  1  0
 24 45  1  0
 25 46  1  0
 26 47  1  0
 27 48  1  0
M  END
>  <smiles>  (98) 
O=S(=O)(Cc1ccccc1)N1Cc2ccccc2C1c1c[nH]c2ccccc12

>  <score_type>  (98) 
oracle

>  <origin>  (98) 
autodockgpu

>  <m_score__min__energy>  (98) 
-7.54

>  <m_primary>  (98) 
energy

>  <rmsd>  (98) 
5.943208402233812

>  <m_score__min__rmsd>  (98) 
5.943208402233812

>  <meeko>  (98) 
{"free_energy": -7.07, "intermolecular_energy": -8.26, "internal_energy": -1.75, "cluster_size": 19, "cluster_id": 4, "rank_in_cluster": 1}

>  <energy>  (98) 
-6.87

>  <cluster_rmsd>  (98) 
0.03

>  <cluster>  (98) 
5

$$$$

     RDKit          3D

 48 52  0  0  1  0  0  0  0  0999 V2000
  141.4500   75.1330  221.9680 O   0  0  0  0  0  0  0  0  0  0  0  0
  140.0540   75.0730  221.4410 S   0  0  0  0  0  0  0  0  0  0  0  0
  139.2640   74.1460  222.3540 O   0  0  0  0  0  0  0  0  0  0  0  0
  139.3640   76.7030  221.5710 C   0  0  0  0  0  0  0  0  0  0  0  0
  140.4240   77.7150  221.8390 C   0  0  0  0  0  0  0  0  0  0  0  0
  140.8640   78.5880  220.8390 C   0  0  0  0  0  0  0  0  0  0  0  0
  141.8390   79.4810  221.1800 C   0  0  0  0  0  0  0  0  0  0  0  0
  142.4100   79.5750  222.4310 C   0  0  0  0  0  0  0  0  0  0  0  0
  141.9730   78.7090  223.4200 C   0  0  0  0  0  0  0  0  0  0  0  0
  140.9990   77.8100  223.0950 C   0  0  0  0  0  0  0  0  0  0  0  0
  140.0230   74.4420  219.8850 N   0  0  0  0  0  0  0  0  0  0  0  0
  138.7790   74.5480  219.1920 C   0  0  0  0  0  0  0  0  0  0  0  0
  138.9310   75.8190  218.4390 C   0  0  0  0  0  0  0  0  0  0  0  0
  138.0260   76.7420  217.9060 C   0  0  0  0  0  0  0  0  0  0  0  0
  138.4850   77.8720  217.2270 C   0  0  0  0  0  0  0  0  0  0  0  0
  139.8560   78.0890  217.0740 C   0  0  0  0  0  0  0  0  0  0  0  0
  140.7510   77.1680  217.6060 C   0  0  0  0  0  0  0  0  0  0  0  0
  140.2820   76.0420  218.2830 C   0  0  0  0  0  0  0  0  0  0  0  0
  140.9860   74.8910  218.9550 C   0  0  1  0  0  0  0  0  0  0  0  0
  142.3030   75.2640  219.4460 C   0  0  0  0  0  0  0  0  0  0  0  0
  142.9390   76.4770  219.5850 C   0  0  0  0  0  0  0  0  0  0  0  0
  144.1790   76.3140  220.0800 N   0  0  0  0  0  0  0  0  0  0  0  0
  144.3930   75.0060  220.2790 C   0  0  0  0  0  0  0  0  0  0  0  0
  145.5120   74.3700  220.7710 C   0  0  0  0  0  0  0  0  0  0  0  0
  145.4970   73.0000  220.8870 C   0  0  0  0  0  0  0  0  0  0  0  0
  144.3610   72.3070  220.5080 C   0  0  0  0  0  0  0  0  0  0  0  0
  143.2490   72.9560  220.0190 C   0  0  0  0  0  0  0  0  0  0  0  0
  143.2480   74.3330  219.8960 C   0  0  0  0  0  0  0  0  0  0  0  0
  138.8573   76.9548  220.6277 H   0  0  0  0  0  0  0  0  0  0  0  0
  138.6507   76.7144  222.4083 H   0  0  0  0  0  0  0  0  0  0  0  0
  140.4434   78.5567  219.8231 H   0  0  0  0  0  0  0  0  0  0  0  0
  142.1934   80.1735  220.4023 H   0  0  0  0  0  0  0  0  0  0  0  0
  143.1931   80.3190  222.6388 H   0  0  0  0  0  0  0  0  0  0  0  0
  142.3973   78.7448  224.4343 H   0  0  0  0  0  0  0  0  0  0  0  0
  140.6500   77.1199  223.8773 H   0  0  0  0  0  0  0  0  0  0  0  0
  138.6316   73.6980  218.5095 H   0  0  0  0  0  0  0  0  0  0  0  0
  137.9053   74.5388  219.8603 H   0  0  0  0  0  0  0  0  0  0  0  0
  136.9448   76.5765  218.0226 H   0  0  0  0  0  0  0  0  0  0  0  0
  137.7654   78.5929  216.8117 H   0  0  0  0  0  0  0  0  0  0  0  0
  140.2230   78.9775  216.5393 H   0  0  0  0  0  0  0  0  0  0  0  0
  141.8334   77.3277  217.4927 H   0  0  0  0  0  0  0  0  0  0  0  0
  141.2755   74.0558  218.3003 H   0  0  0  0  0  0  0  0  0  0  0  0
  142.4931   77.4487  219.3261 H   0  0  0  0  0  0  0  0  0  0  0  0
  144.8670   77.0890  220.2780 H   0  0  0  0  0  0  0  0  0  0  0  0
  146.4007   74.9475  221.0655 H   0  0  0  0  0  0  0  0  0  0  0  0
  146.3750   72.4630  221.2753 H   0  0  0  0  0  0  0  0  0  0  0  0
  144.3456   71.2109  220.5995 H   0  0  0  0  0  0  0  0  0  0  0  0
  142.3603   72.3778  219.7259 H   0  0  0  0  0  0  0  0  0  0  0  0
  1  2  2  0
  2  3  2  0
  2  4  1  0
  4  5  1  0
  5  6  2  0
  6  7  1  0
  7  8  2  0
  8  9  1  0
  9 10  2  0
  2 11  1  0
 11 12  1  0
 12 13  1  0
 13 14  2  0
 14 15  1  0
 15 16  2  0
 16 17  1  0
 17 18  2  0
 18 19  1  0
 19 20  1  0
 20 21  2  0
 21 22  1  0
 22 23  1  0
 23 24  2  0
 24 25  1  0
 25 26  2  0
 26 27  1  0
 27 28  2  0
 10  5  1  0
 19 11  1  0
 28 20  1  0
 18 13  1  0
 28 23  1  0
  4 29  1  0
  4 30  1  0
  6 31  1  0
  7 32  1  0
  8 33  1  0
  9 34  1  0
 10 35  1  0
 12 36  1  0
 12 37  1  0
 14 38  1  0
 15 39  1  0
 16 40  1  0
 17 41  1  0
 19 42  1  6
 21 43  1  0
 22 44  1  0
 24 45  1  0
 25 46  1  0
 26 47  1  0
 27 48  1  0
M  END
>  <smiles>  (99) 
O=S(=O)(Cc1ccccc1)N1Cc2ccccc2C1c1c[nH]c2ccccc12

>  <score_type>  (99) 
oracle

>  <origin>  (99) 
autodockgpu

>  <m_score__min__energy>  (99) 
-7.54

>  <m_primary>  (99) 
energy

>  <rmsd>  (99) 
7.009764071592969

>  <m_score__min__rmsd>  (99) 
7.009764071592969

>  <meeko>  (99) 
{"free_energy": -6.64, "intermolecular_energy": -7.84, "internal_energy": -2.3, "cluster_size": 19, "cluster_id": 4, "rank_in_cluster": 16}

>  <energy>  (99) 
-6.82

>  <cluster_rmsd>  (99) 
0.06

>  <cluster>  (99) 
5

$$$$

     RDKit          3D

 48 52  0  0  1  0  0  0  0  0999 V2000
  141.4390   75.1250  221.9750 O   0  0  0  0  0  0  0  0  0  0  0  0
  140.0520   75.0600  221.4260 S   0  0  0  0  0  0  0  0  0  0  0  0
  139.2410   74.1590  222.3480 O   0  0  0  0  0  0  0  0  0  0  0  0
  139.3680   76.6950  221.5030 C   0  0  0  0  0  0  0  0  0  0  0  0
  140.4210   77.7030  221.8090 C   0  0  0  0  0  0  0  0  0  0  0  0
  140.8930   78.5810  220.8290 C   0  0  0  0  0  0  0  0  0  0  0  0
  141.8590   79.4700  221.2050 C   0  0  0  0  0  0  0  0  0  0  0  0
  142.3920   79.5560  222.4740 C   0  0  0  0  0  0  0  0  0  0  0  0
  141.9230   78.6840  223.4440 C   0  0  0  0  0  0  0  0  0  0  0  0
  140.9570   77.7900  223.0830 C   0  0  0  0  0  0  0  0  0  0  0  0
  140.0440   74.3900  219.8860 N   0  0  0  0  0  0  0  0  0  0  0  0
  138.8070   74.4660  219.1770 C   0  0  0  0  0  0  0  0  0  0  0  0
  138.9540   75.7200  218.3940 C   0  0  0  0  0  0  0  0  0  0  0  0
  138.0460   76.6200  217.8300 C   0  0  0  0  0  0  0  0  0  0  0  0
  138.5000   77.7380  217.1280 C   0  0  0  0  0  0  0  0  0  0  0  0
  139.8710   77.9650  216.9830 C   0  0  0  0  0  0  0  0  0  0  0  0
  140.7690   77.0670  217.5470 C   0  0  0  0  0  0  0  0  0  0  0  0
  140.3040   75.9530  218.2470 C   0  0  0  0  0  0  0  0  0  0  0  0
  141.0120   74.8260  218.9550 C   0  0  1  0  0  0  0  0  0  0  0  0
  142.3200   75.2240  219.4510 C   0  0  0  0  0  0  0  0  0  0  0  0
  142.9350   76.4490  219.5840 C   0  0  0  0  0  0  0  0  0  0  0  0
  144.1750   76.3100  220.0870 N   0  0  0  0  0  0  0  0  0  0  0  0
  144.4090   75.0080  220.2970 C   0  0  0  0  0  0  0  0  0  0  0  0
  145.5360   74.3940  220.7990 C   0  0  0  0  0  0  0  0  0  0  0  0
  145.5440   73.0250  220.9250 C   0  0  0  0  0  0  0  0  0  0  0  0
  144.4210   72.3100  220.5440 C   0  0  0  0  0  0  0  0  0  0  0  0
  143.3010   72.9370  220.0450 C   0  0  0  0  0  0  0  0  0  0  0  0
  143.2790   74.3120  219.9120 C   0  0  0  0  0  0  0  0  0  0  0  0
  138.9087   76.9383  220.5336 H   0  0  0  0  0  0  0  0  0  0  0  0
  138.6155   76.7215  222.3049 H   0  0  0  0  0  0  0  0  0  0  0  0
  140.5036   78.5569  219.8005 H   0  0  0  0  0  0  0  0  0  0  0  0
  142.2384   80.1661  220.4425 H   0  0  0  0  0  0  0  0  0  0  0  0
  143.1693   80.2975  222.7103 H   0  0  0  0  0  0  0  0  0  0  0  0
  142.3164   78.7116  224.4709 H   0  0  0  0  0  0  0  0  0  0  0  0
  140.5816   77.0968  223.8502 H   0  0  0  0  0  0  0  0  0  0  0  0
  138.6760   73.5979  218.5142 H   0  0  0  0  0  0  0  0  0  0  0  0
  137.9262   74.4643  219.8359 H   0  0  0  0  0  0  0  0  0  0  0  0
  136.9654   76.4463  217.9400 H   0  0  0  0  0  0  0  0  0  0  0  0
  137.7773   78.4412  216.6884 H   0  0  0  0  0  0  0  0  0  0  0  0
  140.2348   78.8432  216.4295 H   0  0  0  0  0  0  0  0  0  0  0  0
  141.8509   77.2350  217.4412 H   0  0  0  0  0  0  0  0  0  0  0  0
  141.3164   73.9783  218.3235 H   0  0  0  0  0  0  0  0  0  0  0  0
  142.4745   77.4112  219.3153 H   0  0  0  0  0  0  0  0  0  0  0  0
  144.8490   77.0970  220.2840 H   0  0  0  0  0  0  0  0  0  0  0  0
  146.4134   74.9885  221.0936 H   0  0  0  0  0  0  0  0  0  0  0  0
  146.4286   72.5058  221.3223 H   0  0  0  0  0  0  0  0  0  0  0  0
  144.4236   71.2144  220.6423 H   0  0  0  0  0  0  0  0  0  0  0  0
  142.4231   72.3425  219.7520 H   0  0  0  0  0  0  0  0  0  0  0  0
  1  2  2  0
  2  3  2  0
  2  4  1  0
  4  5  1  0
  5  6  2  0
  6  7  1  0
  7  8  2  0
  8  9  1  0
  9 10  2  0
  2 11  1  0
 11 12  1  0
 12 13  1  0
 13 14  2  0
 14 15  1  0
 15 16  2  0
 16 17  1  0
 17 18  2  0
 18 19  1  0
 19 20  1  0
 20 21  2  0
 21 22  1  0
 22 23  1  0
 23 24  2  0
 24 25  1  0
 25 26  2  0
 26 27  1  0
 27 28  2  0
 10  5  1  0
 19 11  1  0
 28 20  1  0
 18 13  1  0
 28 23  1  0
  4 29  1  0
  4 30  1  0
  6 31  1  0
  7 32  1  0
  8 33  1  0
  9 34  1  0
 10 35  1  0
 12 36  1  0
 12 37  1  0
 14 38  1  0
 15 39  1  0
 16 40  1  0
 17 41  1  0
 19 42  1  6
 21 43  1  0
 22 44  1  0
 24 45  1  0
 25 46  1  0
 26 47  1  0
 27 48  1  0
M  END
>  <smiles>  (100) 
O=S(=O)(Cc1ccccc1)N1Cc2ccccc2C1c1c[nH]c2ccccc12

>  <score_type>  (100) 
oracle

>  <origin>  (100) 
autodockgpu

>  <m_score__min__energy>  (100) 
-7.54

>  <m_primary>  (100) 
energy

>  <rmsd>  (100) 
7.026255641896351

>  <m_score__min__rmsd>  (100) 
7.026255641896351

>  <meeko>  (100) 
{"free_energy": -6.66, "intermolecular_energy": -7.85, "internal_energy": -2.29, "cluster_size": 19, "cluster_id": 4, "rank_in_cluster": 14}

>  <energy>  (100) 
-6.63

>  <cluster_rmsd>  (100) 
1.95

>  <cluster>  (100) 
5

$$$$
