
     RDKit          3D

 58 61  0  0  0  0  0  0  0  0999 V2000
  140.6910   71.7760  223.3450 C   0  0  0  0  0  0  0  0  0  0  0  0
  139.7760   70.8190  224.0880 C   0  0  2  0  0  0  0  0  0  0  0  0
  138.4210   71.2310  223.7620 N   0  0  0  0  0  0  0  0  0  0  0  0
  137.3510   70.3060  223.5970 C   0  0  0  0  0  0  0  0  0  0  0  0
  137.4920   69.0710  223.7210 O   0  0  0  0  0  0  0  0  0  0  0  0
  136.0060   70.8890  223.2610 C   0  0  1  0  0  0  0  0  0  0  0  0
  135.0210   70.3370  224.2520 C   0  0  0  0  0  0  0  0  0  0  0  0
  134.2490   71.5660  224.6840 C   0  0  0  0  0  0  0  0  0  0  0  0
  135.3780   72.6040  224.6810 C   0  0  0  0  0  0  0  0  0  0  0  0
  136.0330   72.3240  223.4170 N   0  0  0  0  0  0  0  0  0  0  0  0
  136.6080   73.2170  222.4730 C   0  0  0  0  0  0  0  0  0  0  0  0
  137.5410   72.8750  221.7040 O   0  0  0  0  0  0  0  0  0  0  0  0
  136.0440   74.6000  222.4360 C   0  0  0  0  0  0  0  0  0  0  0  0
  137.0870   75.5570  222.7240 N   0  0  0  0  0  0  0  0  0  0  0  0
  136.7940   76.9450  222.5390 C   0  0  0  0  0  0  0  0  0  0  0  0
  135.6500   77.3180  222.1340 O   0  0  0  0  0  0  0  0  0  0  0  0
  137.8390   77.9340  222.8260 C   0  0  0  0  0  0  0  0  0  0  0  0
  137.4640   79.2370  223.1080 C   0  0  0  0  0  0  0  0  0  0  0  0
  138.3900   80.2270  223.3870 C   0  0  0  0  0  0  0  0  0  0  0  0
  139.7310   79.9120  223.3870 C   0  0  0  0  0  0  0  0  0  0  0  0
  140.6990   80.8650  223.6600 C   0  0  0  0  0  0  0  0  0  0  0  0
  142.0300   80.5290  223.6550 C   0  0  0  0  0  0  0  0  0  0  0  0
  142.9430   81.4940  223.9290 F   0  0  0  0  0  0  0  0  0  0  0  0
  142.3810   79.2370  223.3750 C   0  0  0  0  0  0  0  0  0  0  0  0
  141.4230   78.2760  223.1000 C   0  0  0  0  0  0  0  0  0  0  0  0
  140.0700   78.5860  223.0980 C   0  0  0  0  0  0  0  0  0  0  0  0
  139.1380   77.6550  222.8310 N   0  0  0  0  0  0  0  0  0  0  0  0
  140.0480   70.8460  225.5510 C   0  0  0  0  0  0  0  0  0  0  0  0
  139.5610   69.8310  226.3830 C   0  0  0  0  0  0  0  0  0  0  0  0
  139.8160   69.8600  227.7380 C   0  0  0  0  0  0  0  0  0  0  0  0
  140.5440   70.8650  228.3250 C   0  0  0  0  0  0  0  0  0  0  0  0
  141.0350   71.8820  227.5140 C   0  0  0  0  0  0  0  0  0  0  0  0
  140.7810   71.8570  226.1490 C   0  0  0  0  0  0  0  0  0  0  0  0
  141.2627   72.3740  224.0700 H   0  0  0  0  0  0  0  0  0  0  0  0
  141.3858   71.2030  222.7134 H   0  0  0  0  0  0  0  0  0  0  0  0
  140.0874   72.4444  222.7134 H   0  0  0  0  0  0  0  0  0  0  0  0
  139.9407   69.7742  223.7861 H   0  0  0  0  0  0  0  0  0  0  0  0
  138.2600   72.2550  223.6490 H   0  0  0  0  0  0  0  0  0  0  0  0
  135.7367   70.6391  222.2242 H   0  0  0  0  0  0  0  0  0  0  0  0
  134.3566   69.5983  223.7798 H   0  0  0  0  0  0  0  0  0  0  0  0
  135.4986   69.8079  225.0898 H   0  0  0  0  0  0  0  0  0  0  0  0
  133.4560   71.8232  223.9664 H   0  0  0  0  0  0  0  0  0  0  0  0
  133.7147   71.4652  225.6402 H   0  0  0  0  0  0  0  0  0  0  0  0
  134.9800   73.6291  224.7078 H   0  0  0  0  0  0  0  0  0  0  0  0
  136.0453   72.5398  225.5531 H   0  0  0  0  0  0  0  0  0  0  0  0
  135.6298   74.7997  221.4367 H   0  0  0  0  0  0  0  0  0  0  0  0
  135.2478   74.6899  223.1896 H   0  0  0  0  0  0  0  0  0  0  0  0
  138.0390   75.3080  223.0570 H   0  0  0  0  0  0  0  0  0  0  0  0
  136.3944   79.4937  223.1103 H   0  0  0  0  0  0  0  0  0  0  0  0
  138.0592   81.2529  223.6061 H   0  0  0  0  0  0  0  0  0  0  0  0
  140.3985   81.8995  223.8826 H   0  0  0  0  0  0  0  0  0  0  0  0
  143.4445   78.9562  223.3682 H   0  0  0  0  0  0  0  0  0  0  0  0
  141.7404   77.2463  222.8787 H   0  0  0  0  0  0  0  0  0  0  0  0
  138.9723   69.0067  225.9541 H   0  0  0  0  0  0  0  0  0  0  0  0
  139.4226   69.0502  228.3700 H   0  0  0  0  0  0  0  0  0  0  0  0
  140.7339   70.8656  229.4085 H   0  0  0  0  0  0  0  0  0  0  0  0
  141.6221   72.7028  227.9517 H   0  0  0  0  0  0  0  0  0  0  0  0
  141.1760   72.6689  225.5208 H   0  0  0  0  0  0  0  0  0  0  0  0
  1  2  1  0
  2  3  1  0
  3  4  1  0
  4  5  2  0
  4  6  1  0
  6  7  1  0
  7  8  1  0
  8  9  1  0
  9 10  1  0
 10 11  1  0
 11 12  2  0
 11 13  1  0
 13 14  1  0
 14 15  1  0
 15 16  2  0
 15 17  1  0
 17 18  2  0
 18 19  1  0
 19 20  2  0
 20 21  1  0
 21 22  2  0
 22 23  1  0
 22 24  1  0
 24 25  2  0
 25 26  1  0
 26 27  2  0
  2 28  1  0
 28 29  2  0
 29 30  1  0
 30 31  2  0
 31 32  1  0
 32 33  2  0
 10  6  1  0
 27 17  1  0
 33 28  1  0
 26 20  1  0
  1 34  1  0
  1 35  1  0
  1 36  1  0
  2 37  1  6
  3 38  1  0
  6 39  1  6
  7 40  1  0
  7 41  1  0
  8 42  1  0
  8 43  1  0
  9 44  1  0
  9 45  1  0
 13 46  1  0
 13 47  1  0
 14 48  1  0
 18 49  1  0
 19 50  1  0
 21 51  1  0
 24 52  1  0
 25 53  1  0
 29 54  1  0
 30 55  1  0
 31 56  1  0
 32 57  1  0
 33 58  1  0
M  END
>  <smiles>  (1) 
C[C@H](NC(=O)[C@H]1CCCN1C(=O)CNC(=O)c1ccc2cc(F)ccc2n1)c1ccccc1

>  <score_type>  (1) 
oracle

>  <origin>  (1) 
autodockgpu

>  <m_score__min__energy>  (1) 
-9.4700000000000006

>  <m_primary>  (1) 
energy

>  <rmsd>  (1) 
9.676000387657366

>  <m_score__min__rmsd>  (1) 
9.676000387657366

>  <meeko>  (1) 
{"free_energy": -8.42, "intermolecular_energy": -10.5, "internal_energy": -2.66, "cluster_size": 5, "cluster_id": 5, "rank_in_cluster": 1}

>  <energy>  (1) 
-9.47

>  <cluster_rmsd>  (1) 
0.0

>  <cluster>  (1) 
1

$$$$

     RDKit          3D

 58 61  0  0  0  0  0  0  0  0999 V2000
  142.7480   79.5360  223.0080 C   0  0  0  0  0  0  0  0  0  0  0  0
  141.4140   78.8610  223.2730 C   0  0  2  0  0  0  0  0  0  0  0  0
  141.3000   77.8040  222.2830 N   0  0  0  0  0  0  0  0  0  0  0  0
  141.5220   78.0180  220.8930 C   0  0  0  0  0  0  0  0  0  0  0  0
  141.8340   79.1300  220.4170 O   0  0  0  0  0  0  0  0  0  0  0  0
  141.3650   76.8220  219.9960 C   0  0  1  0  0  0  0  0  0  0  0  0
  142.6940   76.5820  219.3370 C   0  0  0  0  0  0  0  0  0  0  0  0
  142.8890   75.0890  219.5000 C   0  0  0  0  0  0  0  0  0  0  0  0
  142.2710   74.8910  220.8890 C   0  0  0  0  0  0  0  0  0  0  0  0
  141.0420   75.6530  220.7780 N   0  0  0  0  0  0  0  0  0  0  0  0
  139.7500   75.3760  221.3010 C   0  0  0  0  0  0  0  0  0  0  0  0
  139.0650   76.2440  221.8970 O   0  0  0  0  0  0  0  0  0  0  0  0
  139.2370   73.9860  221.1060 C   0  0  0  0  0  0  0  0  0  0  0  0
  139.4460   73.2180  222.3110 N   0  0  0  0  0  0  0  0  0  0  0  0
  139.4300   71.7920  222.2080 C   0  0  0  0  0  0  0  0  0  0  0  0
  139.2370   71.2230  221.0890 O   0  0  0  0  0  0  0  0  0  0  0  0
  139.6400   70.9910  223.4200 C   0  0  0  0  0  0  0  0  0  0  0  0
  139.3160   69.6450  223.3950 C   0  0  0  0  0  0  0  0  0  0  0  0
  139.4850   68.8250  224.4970 C   0  0  0  0  0  0  0  0  0  0  0  0
  139.9930   69.3600  225.6610 C   0  0  0  0  0  0  0  0  0  0  0  0
  140.1820   68.5830  226.7920 C   0  0  0  0  0  0  0  0  0  0  0  0
  140.6900   69.1360  227.9420 C   0  0  0  0  0  0  0  0  0  0  0  0
  140.8590   68.3390  229.0250 F   0  0  0  0  0  0  0  0  0  0  0  0
  141.0050   70.4680  227.9470 C   0  0  0  0  0  0  0  0  0  0  0  0
  140.8200   71.2530  226.8230 C   0  0  0  0  0  0  0  0  0  0  0  0
  140.3090   70.7220  225.6470 C   0  0  0  0  0  0  0  0  0  0  0  0
  140.1280   71.4830  224.5540 N   0  0  0  0  0  0  0  0  0  0  0  0
  140.2960   79.8400  223.2000 C   0  0  0  0  0  0  0  0  0  0  0  0
  140.4050   80.9840  222.4020 C   0  0  0  0  0  0  0  0  0  0  0  0
  139.3660   81.8900  222.3370 C   0  0  0  0  0  0  0  0  0  0  0  0
  138.1990   81.7160  223.0380 C   0  0  0  0  0  0  0  0  0  0  0  0
  138.0730   80.5840  223.8360 C   0  0  0  0  0  0  0  0  0  0  0  0
  139.1160   79.6710  223.9040 C   0  0  0  0  0  0  0  0  0  0  0  0
  143.2316   79.7807  223.9652 H   0  0  0  0  0  0  0  0  0  0  0  0
  143.3949   78.8568  222.4334 H   0  0  0  0  0  0  0  0  0  0  0  0
  142.5839   80.4595  222.4334 H   0  0  0  0  0  0  0  0  0  0  0  0
  141.3594   78.4405  224.2880 H   0  0  0  0  0  0  0  0  0  0  0  0
  141.0410   76.8580  222.6400 H   0  0  0  0  0  0  0  0  0  0  0  0
  140.5647   77.0042  219.2636 H   0  0  0  0  0  0  0  0  0  0  0  0
  142.6650   76.8634  218.2740 H   0  0  0  0  0  0  0  0  0  0  0  0
  143.5093   77.1765  219.7751 H   0  0  0  0  0  0  0  0  0  0  0  0
  142.3499   74.5200  218.7282 H   0  0  0  0  0  0  0  0  0  0  0  0
  143.9287   74.7437  219.4016 H   0  0  0  0  0  0  0  0  0  0  0  0
  142.0670   73.8287  221.0889 H   0  0  0  0  0  0  0  0  0  0  0  0
  142.9213   75.2123  221.7160 H   0  0  0  0  0  0  0  0  0  0  0  0
  138.1618   74.0216  220.8767 H   0  0  0  0  0  0  0  0  0  0  0  0
  139.7762   73.5116  220.2728 H   0  0  0  0  0  0  0  0  0  0  0  0
  139.6080   73.6300  223.2510 H   0  0  0  0  0  0  0  0  0  0  0  0
  138.9107   69.2130  222.4681 H   0  0  0  0  0  0  0  0  0  0  0  0
  139.2172   67.7594  224.4444 H   0  0  0  0  0  0  0  0  0  0  0  0
  139.9231   67.5142  226.7690 H   0  0  0  0  0  0  0  0  0  0  0  0
  141.4129   70.9228  228.8618 H   0  0  0  0  0  0  0  0  0  0  0  0
  141.0834   72.3203  226.8622 H   0  0  0  0  0  0  0  0  0  0  0  0
  141.3235   81.1622  221.8235 H   0  0  0  0  0  0  0  0  0  0  0  0
  139.4769   82.7814  221.7021 H   0  0  0  0  0  0  0  0  0  0  0  0
  137.3848   82.4525  222.9704 H   0  0  0  0  0  0  0  0  0  0  0  0
  137.1508   80.4131  224.4107 H   0  0  0  0  0  0  0  0  0  0  0  0
  139.0010   78.7810  224.5402 H   0  0  0  0  0  0  0  0  0  0  0  0
  1  2  1  0
  2  3  1  0
  3  4  1  0
  4  5  2  0
  4  6  1  0
  6  7  1  0
  7  8  1  0
  8  9  1  0
  9 10  1  0
 10 11  1  0
 11 12  2  0
 11 13  1  0
 13 14  1  0
 14 15  1  0
 15 16  2  0
 15 17  1  0
 17 18  2  0
 18 19  1  0
 19 20  2  0
 20 21  1  0
 21 22  2  0
 22 23  1  0
 22 24  1  0
 24 25  2  0
 25 26  1  0
 26 27  2  0
  2 28  1  0
 28 29  2  0
 29 30  1  0
 30 31  2  0
 31 32  1  0
 32 33  2  0
 10  6  1  0
 27 17  1  0
 33 28  1  0
 26 20  1  0
  1 34  1  0
  1 35  1  0
  1 36  1  0
  2 37  1  1
  3 38  1  0
  6 39  1  6
  7 40  1  0
  7 41  1  0
  8 42  1  0
  8 43  1  0
  9 44  1  0
  9 45  1  0
 13 46  1  0
 13 47  1  0
 14 48  1  0
 18 49  1  0
 19 50  1  0
 21 51  1  0
 24 52  1  0
 25 53  1  0
 29 54  1  0
 30 55  1  0
 31 56  1  0
 32 57  1  0
 33 58  1  0
M  END
>  <smiles>  (2) 
C[C@H](NC(=O)[C@H]1CCCN1C(=O)CNC(=O)c1ccc2cc(F)ccc2n1)c1ccccc1

>  <score_type>  (2) 
oracle

>  <origin>  (2) 
autodockgpu

>  <m_score__min__energy>  (2) 
-9.4700000000000006

>  <m_primary>  (2) 
energy

>  <rmsd>  (2) 
2.2687074775900826

>  <m_score__min__rmsd>  (2) 
2.2687074775900826

>  <meeko>  (2) 
{"free_energy": -8.64, "intermolecular_energy": -10.73, "internal_energy": -2.62, "cluster_size": 16, "cluster_id": 2, "rank_in_cluster": 12}

>  <energy>  (2) 
-9.41

>  <cluster_rmsd>  (2) 
0.24

>  <cluster>  (2) 
1

$$$$

     RDKit          3D

 58 61  0  0  0  0  0  0  0  0999 V2000
  142.9680   79.9640  222.5360 C   0  0  0  0  0  0  0  0  0  0  0  0
  141.7520   79.1810  222.9980 C   0  0  2  0  0  0  0  0  0  0  0  0
  141.6120   78.0750  222.0670 N   0  0  0  0  0  0  0  0  0  0  0  0
  141.3170   78.2600  220.6860 C   0  0  0  0  0  0  0  0  0  0  0  0
  141.1560   79.3860  220.1680 O   0  0  0  0  0  0  0  0  0  0  0  0
  141.2040   77.0150  219.8510 C   0  0  1  0  0  0  0  0  0  0  0  0
  142.3400   77.0340  218.8660 C   0  0  0  0  0  0  0  0  0  0  0  0
  142.8950   75.6290  218.9610 C   0  0  0  0  0  0  0  0  0  0  0  0
  142.7130   75.3720  220.4620 C   0  0  0  0  0  0  0  0  0  0  0  0
  141.3590   75.8440  220.6810 N   0  0  0  0  0  0  0  0  0  0  0  0
  140.3380   75.3210  221.5200 C   0  0  0  0  0  0  0  0  0  0  0  0
  139.9380   75.9230  222.5470 O   0  0  0  0  0  0  0  0  0  0  0  0
  139.7550   74.0060  221.1180 C   0  0  0  0  0  0  0  0  0  0  0  0
  139.5520   73.1870  222.2900 N   0  0  0  0  0  0  0  0  0  0  0  0
  140.4920   72.1410  222.5490 C   0  0  0  0  0  0  0  0  0  0  0  0
  141.4750   71.9440  221.7690 O   0  0  0  0  0  0  0  0  0  0  0  0
  140.3050   71.2970  223.7350 C   0  0  0  0  0  0  0  0  0  0  0  0
  139.6080   70.1080  223.6030 C   0  0  0  0  0  0  0  0  0  0  0  0
  139.3900   69.2580  224.6740 C   0  0  0  0  0  0  0  0  0  0  0  0
  139.8800   69.6020  225.9150 C   0  0  0  0  0  0  0  0  0  0  0  0
  139.6900   68.7880  227.0190 C   0  0  0  0  0  0  0  0  0  0  0  0
  140.1870   69.1490  228.2470 C   0  0  0  0  0  0  0  0  0  0  0  0
  139.9780   68.3220  229.3010 F   0  0  0  0  0  0  0  0  0  0  0  0
  140.8730   70.3280  228.3570 C   0  0  0  0  0  0  0  0  0  0  0  0
  141.0700   71.1490  227.2600 C   0  0  0  0  0  0  0  0  0  0  0  0
  140.5790   70.8100  226.0070 C   0  0  0  0  0  0  0  0  0  0  0  0
  140.7680   71.6060  224.9410 N   0  0  0  0  0  0  0  0  0  0  0  0
  140.5440   80.0480  223.0460 C   0  0  0  0  0  0  0  0  0  0  0  0
  139.4510   79.7010  223.8480 C   0  0  0  0  0  0  0  0  0  0  0  0
  138.3330   80.5080  223.8890 C   0  0  0  0  0  0  0  0  0  0  0  0
  138.2400   81.6670  223.1600 C   0  0  0  0  0  0  0  0  0  0  0  0
  139.3160   82.0280  222.3570 C   0  0  0  0  0  0  0  0  0  0  0  0
  140.4430   81.2190  222.3130 C   0  0  0  0  0  0  0  0  0  0  0  0
  143.5270   80.3239  223.4123 H   0  0  0  0  0  0  0  0  0  0  0  0
  143.6152   79.3125  221.9305 H   0  0  0  0  0  0  0  0  0  0  0  0
  142.6428   80.8228  221.9305 H   0  0  0  0  0  0  0  0  0  0  0  0
  141.8727   78.8024  224.0237 H   0  0  0  0  0  0  0  0  0  0  0  0
  141.7390   77.1170  222.4590 H   0  0  0  0  0  0  0  0  0  0  0  0
  140.2232   76.9840  219.3540 H   0  0  0  0  0  0  0  0  0  0  0  0
  141.9786   77.2486  217.8495 H   0  0  0  0  0  0  0  0  0  0  0  0
  143.0879   77.8115  219.0811 H   0  0  0  0  0  0  0  0  0  0  0  0
  142.3159   74.9192  218.3521 H   0  0  0  0  0  0  0  0  0  0  0  0
  143.9247   75.5116  218.5922 H   0  0  0  0  0  0  0  0  0  0  0  0
  142.8077   74.3022  220.6997 H   0  0  0  0  0  0  0  0  0  0  0  0
  143.4653   75.8672  221.0935 H   0  0  0  0  0  0  0  0  0  0  0  0
  138.7905   74.1715  220.6156 H   0  0  0  0  0  0  0  0  0  0  0  0
  140.4456   73.4952  220.4308 H   0  0  0  0  0  0  0  0  0  0  0  0
  138.7670   73.3040  222.9610 H   0  0  0  0  0  0  0  0  0  0  0  0
  139.2143   69.8294  222.6144 H   0  0  0  0  0  0  0  0  0  0  0  0
  138.8326   68.3198  224.5359 H   0  0  0  0  0  0  0  0  0  0  0  0
  139.1360   67.8438  226.9112 H   0  0  0  0  0  0  0  0  0  0  0  0
  141.2754   70.6290  229.3355 H   0  0  0  0  0  0  0  0  0  0  0  0
  141.6271   72.0893  227.3840 H   0  0  0  0  0  0  0  0  0  0  0  0
  139.4835   78.7801  224.4487 H   0  0  0  0  0  0  0  0  0  0  0  0
  137.4875   80.2126  224.5276 H   0  0  0  0  0  0  0  0  0  0  0  0
  137.3376   82.2941  223.2097 H   0  0  0  0  0  0  0  0  0  0  0  0
  139.2744   82.9505  221.7593 H   0  0  0  0  0  0  0  0  0  0  0  0
  141.2861   81.5185  221.6731 H   0  0  0  0  0  0  0  0  0  0  0  0
  1  2  1  0
  2  3  1  0
  3  4  1  0
  4  5  2  0
  4  6  1  0
  6  7  1  0
  7  8  1  0
  8  9  1  0
  9 10  1  0
 10 11  1  0
 11 12  2  0
 11 13  1  0
 13 14  1  0
 14 15  1  0
 15 16  2  0
 15 17  1  0
 17 18  2  0
 18 19  1  0
 19 20  2  0
 20 21  1  0
 21 22  2  0
 22 23  1  0
 22 24  1  0
 24 25  2  0
 25 26  1  0
 26 27  2  0
  2 28  1  0
 28 29  2  0
 29 30  1  0
 30 31  2  0
 31 32  1  0
 32 33  2  0
 10  6  1  0
 27 17  1  0
 33 28  1  0
 26 20  1  0
  1 34  1  0
  1 35  1  0
  1 36  1  0
  2 37  1  1
  3 38  1  0
  6 39  1  6
  7 40  1  0
  7 41  1  0
  8 42  1  0
  8 43  1  0
  9 44  1  0
  9 45  1  0
 13 46  1  0
 13 47  1  0
 14 48  1  0
 18 49  1  0
 19 50  1  0
 21 51  1  0
 24 52  1  0
 25 53  1  0
 29 54  1  0
 30 55  1  0
 31 56  1  0
 32 57  1  0
 33 58  1  0
M  END
>  <smiles>  (3) 
C[C@H](NC(=O)[C@H]1CCCN1C(=O)CNC(=O)c1ccc2cc(F)ccc2n1)c1ccccc1

>  <score_type>  (3) 
oracle

>  <origin>  (3) 
autodockgpu

>  <m_score__min__energy>  (3) 
-9.4700000000000006

>  <m_primary>  (3) 
energy

>  <rmsd>  (3) 
1.9951982180391243

>  <m_score__min__rmsd>  (3) 
1.9951982180391243

>  <meeko>  (3) 
{"free_energy": -9.31, "intermolecular_energy": -11.39, "internal_energy": -2.57, "cluster_size": 16, "cluster_id": 2, "rank_in_cluster": 2}

>  <energy>  (3) 
-9.16

>  <cluster_rmsd>  (3) 
0.79

>  <cluster>  (3) 
1

$$$$

     RDKit          3D

 58 61  0  0  0  0  0  0  0  0999 V2000
  141.8760   78.6850  223.9250 C   0  0  0  0  0  0  0  0  0  0  0  0
  140.7960   78.8460  222.8700 C   0  0  2  0  0  0  0  0  0  0  0  0
  141.0970   77.8660  221.8400 N   0  0  0  0  0  0  0  0  0  0  0  0
  140.4550   77.8580  220.5690 C   0  0  0  0  0  0  0  0  0  0  0  0
  139.5840   78.6920  220.2400 O   0  0  0  0  0  0  0  0  0  0  0  0
  140.8770   76.7790  219.6110 C   0  0  1  0  0  0  0  0  0  0  0  0
  141.5770   77.4520  218.4630 C   0  0  0  0  0  0  0  0  0  0  0  0
  142.8210   76.6080  218.2830 C   0  0  0  0  0  0  0  0  0  0  0  0
  143.1300   76.2730  219.7470 C   0  0  0  0  0  0  0  0  0  0  0  0
  141.8220   75.8920  220.2460 N   0  0  0  0  0  0  0  0  0  0  0  0
  141.4610   74.8720  221.1670 C   0  0  0  0  0  0  0  0  0  0  0  0
  141.0740   75.1260  222.3340 O   0  0  0  0  0  0  0  0  0  0  0  0
  141.5660   73.4650  220.6760 C   0  0  0  0  0  0  0  0  0  0  0  0
  141.5090   72.5550  221.7970 N   0  0  0  0  0  0  0  0  0  0  0  0
  140.3020   72.5080  222.5630 C   0  0  0  0  0  0  0  0  0  0  0  0
  139.3130   73.2460  222.2620 O   0  0  0  0  0  0  0  0  0  0  0  0
  140.2230   71.5910  223.7060 C   0  0  0  0  0  0  0  0  0  0  0  0
  139.6400   70.3480  223.5230 C   0  0  0  0  0  0  0  0  0  0  0  0
  139.5270   69.4290  224.5520 C   0  0  0  0  0  0  0  0  0  0  0  0
  140.0090   69.7550  225.8010 C   0  0  0  0  0  0  0  0  0  0  0  0
  139.9210   68.8730  226.8650 C   0  0  0  0  0  0  0  0  0  0  0  0
  140.4080   69.2180  228.1010 C   0  0  0  0  0  0  0  0  0  0  0  0
  140.3020   68.3220  229.1140 F   0  0  0  0  0  0  0  0  0  0  0  0
  140.9800   70.4500  228.2610 C   0  0  0  0  0  0  0  0  0  0  0  0
  141.0730   71.3410  227.2060 C   0  0  0  0  0  0  0  0  0  0  0  0
  140.5900   71.0190  225.9450 C   0  0  0  0  0  0  0  0  0  0  0  0
  140.6790   71.8830  224.9190 N   0  0  0  0  0  0  0  0  0  0  0  0
  140.7630   80.2380  222.3460 C   0  0  0  0  0  0  0  0  0  0  0  0
  139.6190   81.0290  222.5030 C   0  0  0  0  0  0  0  0  0  0  0  0
  139.5920   82.3190  222.0160 C   0  0  0  0  0  0  0  0  0  0  0  0
  140.6650   82.8790  221.3670 C   0  0  0  0  0  0  0  0  0  0  0  0
  141.8100   82.1080  221.2020 C   0  0  0  0  0  0  0  0  0  0  0  0
  141.8410   80.8090  221.6910 C   0  0  0  0  0  0  0  0  0  0  0  0
  141.4241   78.7524  224.9256 H   0  0  0  0  0  0  0  0  0  0  0  0
  142.3608   77.7047  223.8069 H   0  0  0  0  0  0  0  0  0  0  0  0
  142.6256   79.4813  223.8069 H   0  0  0  0  0  0  0  0  0  0  0  0
  139.7905   78.6718  223.2808 H   0  0  0  0  0  0  0  0  0  0  0  0
  141.8190   77.1510  222.0740 H   0  0  0  0  0  0  0  0  0  0  0  0
  139.9991   76.2031  219.2830 H   0  0  0  0  0  0  0  0  0  0  0  0
  140.9542   77.4372  217.5564 H   0  0  0  0  0  0  0  0  0  0  0  0
  141.7959   78.5136  218.6502 H   0  0  0  0  0  0  0  0  0  0  0  0
  142.6183   75.7032  217.6913 H   0  0  0  0  0  0  0  0  0  0  0  0
  143.6398   77.1002  217.7377 H   0  0  0  0  0  0  0  0  0  0  0  0
  143.8463   75.4419  219.8252 H   0  0  0  0  0  0  0  0  0  0  0  0
  143.5965   77.0987  220.3043 H   0  0  0  0  0  0  0  0  0  0  0  0
  140.7325   73.2535  219.9900 H   0  0  0  0  0  0  0  0  0  0  0  0
  142.5211   73.3331  220.1465 H   0  0  0  0  0  0  0  0  0  0  0  0
  142.2860   71.9300  222.0870 H   0  0  0  0  0  0  0  0  0  0  0  0
  139.2543   70.0825  222.5276 H   0  0  0  0  0  0  0  0  0  0  0  0
  139.0579   68.4500  224.3747 H   0  0  0  0  0  0  0  0  0  0  0  0
  139.4565   67.8868  226.7182 H   0  0  0  0  0  0  0  0  0  0  0  0
  141.3736   70.7382  229.2469 H   0  0  0  0  0  0  0  0  0  0  0  0
  141.5389   72.3239  227.3700 H   0  0  0  0  0  0  0  0  0  0  0  0
  138.7370   80.6197  223.0174 H   0  0  0  0  0  0  0  0  0  0  0  0
  138.6805   82.9195  222.1520 H   0  0  0  0  0  0  0  0  0  0  0  0
  140.6196   83.9105  220.9877 H   0  0  0  0  0  0  0  0  0  0  0  0
  142.6875   82.5253  220.6863 H   0  0  0  0  0  0  0  0  0  0  0  0
  142.7546   80.2121  221.5531 H   0  0  0  0  0  0  0  0  0  0  0  0
  1  2  1  0
  2  3  1  0
  3  4  1  0
  4  5  2  0
  4  6  1  0
  6  7  1  0
  7  8  1  0
  8  9  1  0
  9 10  1  0
 10 11  1  0
 11 12  2  0
 11 13  1  0
 13 14  1  0
 14 15  1  0
 15 16  2  0
 15 17  1  0
 17 18  2  0
 18 19  1  0
 19 20  2  0
 20 21  1  0
 21 22  2  0
 22 23  1  0
 22 24  1  0
 24 25  2  0
 25 26  1  0
 26 27  2  0
  2 28  1  0
 28 29  2  0
 29 30  1  0
 30 31  2  0
 31 32  1  0
 32 33  2  0
 10  6  1  0
 27 17  1  0
 33 28  1  0
 26 20  1  0
  1 34  1  0
  1 35  1  0
  1 36  1  0
  2 37  1  1
  3 38  1  0
  6 39  1  6
  7 40  1  0
  7 41  1  0
  8 42  1  0
  8 43  1  0
  9 44  1  0
  9 45  1  0
 13 46  1  0
 13 47  1  0
 14 48  1  0
 18 49  1  0
 19 50  1  0
 21 51  1  0
 24 52  1  0
 25 53  1  0
 29 54  1  0
 30 55  1  0
 31 56  1  0
 32 57  1  0
 33 58  1  0
M  END
>  <smiles>  (4) 
C[C@H](NC(=O)[C@H]1CCCN1C(=O)CNC(=O)c1ccc2cc(F)ccc2n1)c1ccccc1

>  <score_type>  (4) 
oracle

>  <origin>  (4) 
autodockgpu

>  <m_score__min__energy>  (4) 
-9.4700000000000006

>  <m_primary>  (4) 
energy

>  <rmsd>  (4) 
2.112032138154798

>  <m_score__min__rmsd>  (4) 
2.112032138154798

>  <meeko>  (4) 
{"free_energy": -8.74, "intermolecular_energy": -10.83, "internal_energy": -2.37, "cluster_size": 22, "cluster_id": 1, "rank_in_cluster": 16}

>  <energy>  (4) 
-9.02

>  <cluster_rmsd>  (4) 
0.36

>  <cluster>  (4) 
1

$$$$

     RDKit          3D

 58 61  0  0  0  0  0  0  0  0999 V2000
  142.5940   79.6730  223.4980 C   0  0  0  0  0  0  0  0  0  0  0  0
  141.2630   79.8880  222.7990 C   0  0  2  0  0  0  0  0  0  0  0  0
  140.5810   78.6060  222.8370 N   0  0  0  0  0  0  0  0  0  0  0  0
  139.1750   78.4720  222.6590 C   0  0  0  0  0  0  0  0  0  0  0  0
  138.4180   79.4450  222.4550 O   0  0  0  0  0  0  0  0  0  0  0  0
  138.6200   77.0760  222.7250 C   0  0  1  0  0  0  0  0  0  0  0  0
  137.1220   77.1940  222.7730 C   0  0  0  0  0  0  0  0  0  0  0  0
  136.6680   76.1730  221.7510 C   0  0  0  0  0  0  0  0  0  0  0  0
  137.7760   76.3370  220.7030 C   0  0  0  0  0  0  0  0  0  0  0  0
  138.9670   76.3460  221.5300 N   0  0  0  0  0  0  0  0  0  0  0  0
  140.2480   75.7780  221.2870 C   0  0  0  0  0  0  0  0  0  0  0  0
  141.3010   76.4620  221.3060 O   0  0  0  0  0  0  0  0  0  0  0  0
  140.2830   74.3110  221.0060 C   0  0  0  0  0  0  0  0  0  0  0  0
  140.0510   73.5770  222.2280 N   0  0  0  0  0  0  0  0  0  0  0  0
  140.5180   72.2280  222.3000 C   0  0  0  0  0  0  0  0  0  0  0  0
  141.1210   71.6960  221.3160 O   0  0  0  0  0  0  0  0  0  0  0  0
  140.2930   71.4630  223.5320 C   0  0  0  0  0  0  0  0  0  0  0  0
  139.6260   70.2530  223.4520 C   0  0  0  0  0  0  0  0  0  0  0  0
  139.3740   69.4750  224.5690 C   0  0  0  0  0  0  0  0  0  0  0  0
  139.8000   69.9140  225.8040 C   0  0  0  0  0  0  0  0  0  0  0  0
  139.5750   69.1750  226.9530 C   0  0  0  0  0  0  0  0  0  0  0  0
  140.0070   69.6310  228.1740 C   0  0  0  0  0  0  0  0  0  0  0  0
  139.7650   68.8740  229.2720 F   0  0  0  0  0  0  0  0  0  0  0  0
  140.6650   70.8290  228.2310 C   0  0  0  0  0  0  0  0  0  0  0  0
  140.8960   71.5770  227.0900 C   0  0  0  0  0  0  0  0  0  0  0  0
  140.4700   71.1410  225.8430 C   0  0  0  0  0  0  0  0  0  0  0  0
  140.6930   71.8660  224.7330 N   0  0  0  0  0  0  0  0  0  0  0  0
  141.4630   80.3920  221.4130 C   0  0  0  0  0  0  0  0  0  0  0  0
  141.2920   81.7490  221.1190 C   0  0  0  0  0  0  0  0  0  0  0  0
  141.4780   82.2120  219.8330 C   0  0  0  0  0  0  0  0  0  0  0  0
  141.8320   81.3800  218.8000 C   0  0  0  0  0  0  0  0  0  0  0  0
  142.0060   80.0280  219.0730 C   0  0  0  0  0  0  0  0  0  0  0  0
  141.8200   79.5580  220.3660 C   0  0  0  0  0  0  0  0  0  0  0  0
  142.4441   79.6972  224.5875 H   0  0  0  0  0  0  0  0  0  0  0  0
  143.0077   78.6964  223.2064 H   0  0  0  0  0  0  0  0  0  0  0  0
  143.2942   80.4697  223.2064 H   0  0  0  0  0  0  0  0  0  0  0  0
  140.6555   80.6573  223.2982 H   0  0  0  0  0  0  0  0  0  0  0  0
  141.1770   77.7660  223.0050 H   0  0  0  0  0  0  0  0  0  0  0  0
  139.0245   76.5523  223.6037 H   0  0  0  0  0  0  0  0  0  0  0  0
  136.7378   76.9492  223.7742 H   0  0  0  0  0  0  0  0  0  0  0  0
  136.7598   78.2108  222.5609 H   0  0  0  0  0  0  0  0  0  0  0  0
  136.6492   75.1561  222.1700 H   0  0  0  0  0  0  0  0  0  0  0  0
  135.6457   76.3187  221.3721 H   0  0  0  0  0  0  0  0  0  0  0  0
  137.7860   75.4948  219.9954 H   0  0  0  0  0  0  0  0  0  0  0  0
  137.6644   77.2316  220.0727 H   0  0  0  0  0  0  0  0  0  0  0  0
  139.5011   74.0599  220.2742 H   0  0  0  0  0  0  0  0  0  0  0  0
  141.2688   74.0407  220.5996 H   0  0  0  0  0  0  0  0  0  0  0  0
  139.5650   73.9620  223.0620 H   0  0  0  0  0  0  0  0  0  0  0  0
  139.2849   69.8977  222.4684 H   0  0  0  0  0  0  0  0  0  0  0  0
  138.8402   68.5181  224.4720 H   0  0  0  0  0  0  0  0  0  0  0  0
  139.0451   68.2133  226.8871 H   0  0  0  0  0  0  0  0  0  0  0  0
  141.0173   71.2050  229.2028 H   0  0  0  0  0  0  0  0  0  0  0  0
  141.4279   72.5363  227.1729 H   0  0  0  0  0  0  0  0  0  0  0  0
  141.0078   82.4503  221.9174 H   0  0  0  0  0  0  0  0  0  0  0  0
  141.3380   83.2837  219.6283 H   0  0  0  0  0  0  0  0  0  0  0  0
  141.9743   81.7730  217.7825 H   0  0  0  0  0  0  0  0  0  0  0  0
  142.2897   79.3339  218.2682 H   0  0  0  0  0  0  0  0  0  0  0  0
  141.9611   78.4856  220.5662 H   0  0  0  0  0  0  0  0  0  0  0  0
  1  2  1  0
  2  3  1  0
  3  4  1  0
  4  5  2  0
  4  6  1  0
  6  7  1  0
  7  8  1  0
  8  9  1  0
  9 10  1  0
 10 11  1  0
 11 12  2  0
 11 13  1  0
 13 14  1  0
 14 15  1  0
 15 16  2  0
 15 17  1  0
 17 18  2  0
 18 19  1  0
 19 20  2  0
 20 21  1  0
 21 22  2  0
 22 23  1  0
 22 24  1  0
 24 25  2  0
 25 26  1  0
 26 27  2  0
  2 28  1  0
 28 29  2  0
 29 30  1  0
 30 31  2  0
 31 32  1  0
 32 33  2  0
 10  6  1  0
 27 17  1  0
 33 28  1  0
 26 20  1  0
  1 34  1  0
  1 35  1  0
  1 36  1  0
  2 37  1  1
  3 38  1  0
  6 39  1  1
  7 40  1  0
  7 41  1  0
  8 42  1  0
  8 43  1  0
  9 44  1  0
  9 45  1  0
 13 46  1  0
 13 47  1  0
 14 48  1  0
 18 49  1  0
 19 50  1  0
 21 51  1  0
 24 52  1  0
 25 53  1  0
 29 54  1  0
 30 55  1  0
 31 56  1  0
 32 57  1  0
 33 58  1  0
M  END
>  <smiles>  (5) 
C[C@H](NC(=O)[C@H]1CCCN1C(=O)CNC(=O)c1ccc2cc(F)ccc2n1)c1ccccc1

>  <score_type>  (5) 
oracle

>  <origin>  (5) 
autodockgpu

>  <m_score__min__energy>  (5) 
-9.4700000000000006

>  <m_primary>  (5) 
energy

>  <rmsd>  (5) 
2.767564298675398

>  <m_score__min__rmsd>  (5) 
2.767564298675398

>  <meeko>  (5) 
{"free_energy": -8.21, "intermolecular_energy": -10.3, "internal_energy": -2.6, "cluster_size": 16, "cluster_id": 2, "rank_in_cluster": 14}

>  <energy>  (5) 
-9.01

>  <cluster_rmsd>  (5) 
0.36

>  <cluster>  (5) 
1

$$$$

     RDKit          3D

 58 61  0  0  0  0  0  0  0  0999 V2000
  142.1720   78.4460  219.2330 C   0  0  0  0  0  0  0  0  0  0  0  0
  141.9550   77.6920  220.5330 C   0  0  2  0  0  0  0  0  0  0  0  0
  140.7690   76.8790  220.3290 N   0  0  0  0  0  0  0  0  0  0  0  0
  139.4540   77.4230  220.2980 C   0  0  0  0  0  0  0  0  0  0  0  0
  139.2170   78.6410  220.4430 O   0  0  0  0  0  0  0  0  0  0  0  0
  138.3300   76.4490  220.0770 C   0  0  1  0  0  0  0  0  0  0  0  0
  137.7370   76.7520  218.7290 C   0  0  0  0  0  0  0  0  0  0  0  0
  137.6170   75.3820  218.0950 C   0  0  0  0  0  0  0  0  0  0  0  0
  138.8910   74.7250  218.6410 C   0  0  0  0  0  0  0  0  0  0  0  0
  138.8400   75.1000  220.0410 N   0  0  0  0  0  0  0  0  0  0  0  0
  139.2010   74.3540  221.1960 C   0  0  0  0  0  0  0  0  0  0  0  0
  140.2750   74.5520  221.8170 O   0  0  0  0  0  0  0  0  0  0  0  0
  138.2310   73.3090  221.6440 C   0  0  0  0  0  0  0  0  0  0  0  0
  138.8050   72.5470  222.7280 N   0  0  0  0  0  0  0  0  0  0  0  0
  138.2570   71.2550  223.0030 C   0  0  0  0  0  0  0  0  0  0  0  0
  137.2950   70.7970  222.3110 O   0  0  0  0  0  0  0  0  0  0  0  0
  138.8240   70.4630  224.1010 C   0  0  0  0  0  0  0  0  0  0  0  0
  138.7240   69.0830  224.0480 C   0  0  0  0  0  0  0  0  0  0  0  0
  139.2340   68.2690  225.0440 C   0  0  0  0  0  0  0  0  0  0  0  0
  139.8630   68.8440  226.1270 C   0  0  0  0  0  0  0  0  0  0  0  0
  140.3900   68.0750  227.1510 C   0  0  0  0  0  0  0  0  0  0  0  0
  141.0120   68.6680  228.2210 C   0  0  0  0  0  0  0  0  0  0  0  0
  141.5150   67.8760  229.2000 F   0  0  0  0  0  0  0  0  0  0  0  0
  141.1010   70.0330  228.2550 C   0  0  0  0  0  0  0  0  0  0  0  0
  140.5780   70.8120  227.2370 C   0  0  0  0  0  0  0  0  0  0  0  0
  139.9440   70.2400  226.1440 C   0  0  0  0  0  0  0  0  0  0  0  0
  139.4340   70.9940  225.1550 N   0  0  0  0  0  0  0  0  0  0  0  0
  141.8170   78.6320  221.6790 C   0  0  0  0  0  0  0  0  0  0  0  0
  141.4180   78.1660  222.9360 C   0  0  0  0  0  0  0  0  0  0  0  0
  141.2910   79.0410  223.9950 C   0  0  0  0  0  0  0  0  0  0  0  0
  141.5430   80.3840  223.8690 C   0  0  0  0  0  0  0  0  0  0  0  0
  141.9400   80.8660  222.6260 C   0  0  0  0  0  0  0  0  0  0  0  0
  142.0690   79.9880  221.5580 C   0  0  0  0  0  0  0  0  0  0  0  0
  142.4700   79.4813  219.4550 H   0  0  0  0  0  0  0  0  0  0  0  0
  142.9647   77.9530  218.6511 H   0  0  0  0  0  0  0  0  0  0  0  0
  141.2385   78.4498  218.6511 H   0  0  0  0  0  0  0  0  0  0  0  0
  142.8147   77.0546  220.7874 H   0  0  0  0  0  0  0  0  0  0  0  0
  140.9230   75.8540  220.2040 H   0  0  0  0  0  0  0  0  0  0  0  0
  137.5911   76.5387  220.8869 H   0  0  0  0  0  0  0  0  0  0  0  0
  136.7510   77.2293  218.8289 H   0  0  0  0  0  0  0  0  0  0  0  0
  138.3429   77.4529  218.1361 H   0  0  0  0  0  0  0  0  0  0  0  0
  136.7107   74.8555  218.4287 H   0  0  0  0  0  0  0  0  0  0  0  0
  137.5297   75.3844  216.9985 H   0  0  0  0  0  0  0  0  0  0  0  0
  138.8629   73.6323  218.5175 H   0  0  0  0  0  0  0  0  0  0  0  0
  139.8111   75.0414  218.1278 H   0  0  0  0  0  0  0  0  0  0  0  0
  137.3046   73.7927  221.9871 H   0  0  0  0  0  0  0  0  0  0  0  0
  138.0060   72.6357  220.8037 H   0  0  0  0  0  0  0  0  0  0  0  0
  139.5900   72.8730  223.3250 H   0  0  0  0  0  0  0  0  0  0  0  0
  138.2228   68.6186  223.1860 H   0  0  0  0  0  0  0  0  0  0  0  0
  139.1384   67.1755  224.9722 H   0  0  0  0  0  0  0  0  0  0  0  0
  140.3093   66.9789  227.1064 H   0  0  0  0  0  0  0  0  0  0  0  0
  141.5973   70.5205  229.1071 H   0  0  0  0  0  0  0  0  0  0  0  0
  140.6671   71.9068  227.2962 H   0  0  0  0  0  0  0  0  0  0  0  0
  141.2044   77.0967  223.0809 H   0  0  0  0  0  0  0  0  0  0  0  0
  140.9771   78.6488  224.9736 H   0  0  0  0  0  0  0  0  0  0  0  0
  141.4339   81.0617  224.7285 H   0  0  0  0  0  0  0  0  0  0  0  0
  142.1506   81.9370  222.4898 H   0  0  0  0  0  0  0  0  0  0  0  0
  142.3826   80.3840  220.5808 H   0  0  0  0  0  0  0  0  0  0  0  0
  1  2  1  0
  2  3  1  0
  3  4  1  0
  4  5  2  0
  4  6  1  0
  6  7  1  0
  7  8  1  0
  8  9  1  0
  9 10  1  0
 10 11  1  0
 11 12  2  0
 11 13  1  0
 13 14  1  0
 14 15  1  0
 15 16  2  0
 15 17  1  0
 17 18  2  0
 18 19  1  0
 19 20  2  0
 20 21  1  0
 21 22  2  0
 22 23  1  0
 22 24  1  0
 24 25  2  0
 25 26  1  0
 26 27  2  0
  2 28  1  0
 28 29  2  0
 29 30  1  0
 30 31  2  0
 31 32  1  0
 32 33  2  0
 10  6  1  0
 27 17  1  0
 33 28  1  0
 26 20  1  0
  1 34  1  0
  1 35  1  0
  1 36  1  0
  2 37  1  1
  3 38  1  0
  6 39  1  1
  7 40  1  0
  7 41  1  0
  8 42  1  0
  8 43  1  0
  9 44  1  0
  9 45  1  0
 13 46  1  0
 13 47  1  0
 14 48  1  0
 18 49  1  0
 19 50  1  0
 21 51  1  0
 24 52  1  0
 25 53  1  0
 29 54  1  0
 30 55  1  0
 31 56  1  0
 32 57  1  0
 33 58  1  0
M  END
>  <smiles>  (6) 
C[C@H](NC(=O)[C@H]1CCCN1C(=O)CNC(=O)c1ccc2cc(F)ccc2n1)c1ccccc1

>  <score_type>  (6) 
oracle

>  <origin>  (6) 
autodockgpu

>  <m_score__min__energy>  (6) 
-9.4700000000000006

>  <m_primary>  (6) 
energy

>  <rmsd>  (6) 
2.5495707001100416

>  <m_score__min__rmsd>  (6) 
2.5495707001100416

>  <meeko>  (6) 
{"free_energy": -7.75, "intermolecular_energy": -9.84, "internal_energy": -3.02, "cluster_size": 16, "cluster_id": 2, "rank_in_cluster": 16}

>  <energy>  (6) 
-8.95

>  <cluster_rmsd>  (6) 
1.98

>  <cluster>  (6) 
1

$$$$

     RDKit          3D

 58 61  0  0  0  0  0  0  0  0999 V2000
  141.1380   78.5930  219.9390 C   0  0  0  0  0  0  0  0  0  0  0  0
  141.8200   78.2480  221.2510 C   0  0  2  0  0  0  0  0  0  0  0  0
  141.0240   77.1890  221.8470 N   0  0  0  0  0  0  0  0  0  0  0  0
  139.6270   77.3160  222.0930 C   0  0  0  0  0  0  0  0  0  0  0  0
  138.9780   78.3470  221.8160 O   0  0  0  0  0  0  0  0  0  0  0  0
  138.9450   76.1300  222.7150 C   0  0  1  0  0  0  0  0  0  0  0  0
  137.5200   76.5260  222.9840 C   0  0  0  0  0  0  0  0  0  0  0  0
  136.7340   75.3440  222.4550 C   0  0  0  0  0  0  0  0  0  0  0  0
  137.5900   74.9810  221.2350 C   0  0  0  0  0  0  0  0  0  0  0  0
  138.9290   75.0230  221.7890 N   0  0  0  0  0  0  0  0  0  0  0  0
  140.0480   74.1870  221.5280 C   0  0  0  0  0  0  0  0  0  0  0  0
  141.2310   74.6040  221.5990 O   0  0  0  0  0  0  0  0  0  0  0  0
  139.7500   72.7700  221.1600 C   0  0  0  0  0  0  0  0  0  0  0  0
  140.1250   71.8970  222.2470 N   0  0  0  0  0  0  0  0  0  0  0  0
  139.1070   71.4940  223.1670 C   0  0  0  0  0  0  0  0  0  0  0  0
  137.9090   71.8940  223.0250 O   0  0  0  0  0  0  0  0  0  0  0  0
  139.4660   70.6070  224.2790 C   0  0  0  0  0  0  0  0  0  0  0  0
  139.1260   69.2670  224.2000 C   0  0  0  0  0  0  0  0  0  0  0  0
  139.4290   68.3690  225.2080 C   0  0  0  0  0  0  0  0  0  0  0  0
  140.0920   68.8160  226.3310 C   0  0  0  0  0  0  0  0  0  0  0  0
  140.4190   67.9600  227.3680 C   0  0  0  0  0  0  0  0  0  0  0  0
  141.0790   68.4270  228.4780 C   0  0  0  0  0  0  0  0  0  0  0  0
  141.3810   67.5520  229.4690 F   0  0  0  0  0  0  0  0  0  0  0  0
  141.4070   69.7530  228.5370 C   0  0  0  0  0  0  0  0  0  0  0  0
  141.0850   70.6190  227.5070 C   0  0  0  0  0  0  0  0  0  0  0  0
  140.4180   70.1760  226.3730 C   0  0  0  0  0  0  0  0  0  0  0  0
  140.1030   71.0150  225.3710 N   0  0  0  0  0  0  0  0  0  0  0  0
  141.9300   79.4460  222.1270 C   0  0  0  0  0  0  0  0  0  0  0  0
  141.3820   80.6710  221.7280 C   0  0  0  0  0  0  0  0  0  0  0  0
  141.4870   81.7790  222.5430 C   0  0  0  0  0  0  0  0  0  0  0  0
  142.1200   81.7350  223.7600 C   0  0  0  0  0  0  0  0  0  0  0  0
  142.6710   80.5270  224.1730 C   0  0  0  0  0  0  0  0  0  0  0  0
  142.5680   79.4090  223.3550 C   0  0  0  0  0  0  0  0  0  0  0  0
  140.1737   79.0808  220.1442 H   0  0  0  0  0  0  0  0  0  0  0  0
  141.7785   79.2755  219.3611 H   0  0  0  0  0  0  0  0  0  0  0  0
  140.9677   77.6726  219.3611 H   0  0  0  0  0  0  0  0  0  0  0  0
  142.8552   77.9080  221.0998 H   0  0  0  0  0  0  0  0  0  0  0  0
  141.5290   76.3100  222.0930 H   0  0  0  0  0  0  0  0  0  0  0  0
  139.4737   75.8311  223.6322 H   0  0  0  0  0  0  0  0  0  0  0  0
  137.3452   76.6674  224.0608 H   0  0  0  0  0  0  0  0  0  0  0  0
  137.2384   77.4799  222.5142 H   0  0  0  0  0  0  0  0  0  0  0  0
  136.6928   74.5216  223.1843 H   0  0  0  0  0  0  0  0  0  0  0  0
  135.6765   75.5516  222.2344 H   0  0  0  0  0  0  0  0  0  0  0  0
  137.3441   73.9775  220.8575 H   0  0  0  0  0  0  0  0  0  0  0  0
  137.4433   75.6489  220.3733 H   0  0  0  0  0  0  0  0  0  0  0  0
  138.6738   72.6627  220.9592 H   0  0  0  0  0  0  0  0  0  0  0  0
  140.3219   72.4987  220.2604 H   0  0  0  0  0  0  0  0  0  0  0  0
  141.0870   71.5400  222.4100 H   0  0  0  0  0  0  0  0  0  0  0  0
  138.5974   68.9044  223.3061 H   0  0  0  0  0  0  0  0  0  0  0  0
  139.1442   67.3106  225.1144 H   0  0  0  0  0  0  0  0  0  0  0  0
  140.1478   66.8960  227.3026 H   0  0  0  0  0  0  0  0  0  0  0  0
  141.9371   70.1388  229.4203 H   0  0  0  0  0  0  0  0  0  0  0  0
  141.3632   71.6801  227.5884 H   0  0  0  0  0  0  0  0  0  0  0  0
  140.8653   80.7503  220.7601 H   0  0  0  0  0  0  0  0  0  0  0  0
  141.0486   82.7299  222.2061 H   0  0  0  0  0  0  0  0  0  0  0  0
  142.1896   82.6323  224.3924 H   0  0  0  0  0  0  0  0  0  0  0  0
  143.1859   80.4570  225.1426 H   0  0  0  0  0  0  0  0  0  0  0  0
  143.0091   78.4605  223.6951 H   0  0  0  0  0  0  0  0  0  0  0  0
  1  2  1  0
  2  3  1  0
  3  4  1  0
  4  5  2  0
  4  6  1  0
  6  7  1  0
  7  8  1  0
  8  9  1  0
  9 10  1  0
 10 11  1  0
 11 12  2  0
 11 13  1  0
 13 14  1  0
 14 15  1  0
 15 16  2  0
 15 17  1  0
 17 18  2  0
 18 19  1  0
 19 20  2  0
 20 21  1  0
 21 22  2  0
 22 23  1  0
 22 24  1  0
 24 25  2  0
 25 26  1  0
 26 27  2  0
  2 28  1  0
 28 29  2  0
 29 30  1  0
 30 31  2  0
 31 32  1  0
 32 33  2  0
 10  6  1  0
 27 17  1  0
 33 28  1  0
 26 20  1  0
  1 34  1  0
  1 35  1  0
  1 36  1  0
  2 37  1  6
  3 38  1  0
  6 39  1  1
  7 40  1  0
  7 41  1  0
  8 42  1  0
  8 43  1  0
  9 44  1  0
  9 45  1  0
 13 46  1  0
 13 47  1  0
 14 48  1  0
 18 49  1  0
 19 50  1  0
 21 51  1  0
 24 52  1  0
 25 53  1  0
 29 54  1  0
 30 55  1  0
 31 56  1  0
 32 57  1  0
 33 58  1  0
M  END
>  <smiles>  (7) 
C[C@H](NC(=O)[C@H]1CCCN1C(=O)CNC(=O)c1ccc2cc(F)ccc2n1)c1ccccc1

>  <score_type>  (7) 
oracle

>  <origin>  (7) 
autodockgpu

>  <m_score__min__energy>  (7) 
-9.4700000000000006

>  <m_primary>  (7) 
energy

>  <rmsd>  (7) 
3.2332185450924547

>  <m_score__min__rmsd>  (7) 
3.2332185450924547

>  <meeko>  (7) 
{"free_energy": -8.94, "intermolecular_energy": -11.03, "internal_energy": -2.54, "cluster_size": 22, "cluster_id": 1, "rank_in_cluster": 7}

>  <energy>  (7) 
-8.94

>  <cluster_rmsd>  (7) 
1.75

>  <cluster>  (7) 
1

$$$$

     RDKit          3D

 58 61  0  0  0  0  0  0  0  0999 V2000
  140.6730   77.1640  219.9910 C   0  0  0  0  0  0  0  0  0  0  0  0
  141.0610   76.9180  221.4390 C   0  0  2  0  0  0  0  0  0  0  0  0
  139.9110   76.2830  222.0580 N   0  0  0  0  0  0  0  0  0  0  0  0
  138.6430   76.9210  222.1700 C   0  0  0  0  0  0  0  0  0  0  0  0
  138.4210   78.0750  221.7460 O   0  0  0  0  0  0  0  0  0  0  0  0
  137.5510   76.1310  222.8370 C   0  0  1  0  0  0  0  0  0  0  0  0
  136.4000   77.0700  223.0700 C   0  0  0  0  0  0  0  0  0  0  0  0
  135.2080   76.2710  222.5850 C   0  0  0  0  0  0  0  0  0  0  0  0
  135.8430   75.5440  221.3930 C   0  0  0  0  0  0  0  0  0  0  0  0
  137.0930   75.0790  221.9620 N   0  0  0  0  0  0  0  0  0  0  0  0
  137.7900   73.8580  221.7520 C   0  0  0  0  0  0  0  0  0  0  0  0
  138.9720   73.8210  221.3290 O   0  0  0  0  0  0  0  0  0  0  0  0
  137.0410   72.6030  222.0640 C   0  0  0  0  0  0  0  0  0  0  0  0
  137.6540   71.9400  223.1910 N   0  0  0  0  0  0  0  0  0  0  0  0
  138.1630   70.6180  222.9970 C   0  0  0  0  0  0  0  0  0  0  0  0
  138.0780   70.0500  221.8640 O   0  0  0  0  0  0  0  0  0  0  0  0
  138.7900   69.9250  224.1280 C   0  0  0  0  0  0  0  0  0  0  0  0
  138.8260   68.5410  224.1250 C   0  0  0  0  0  0  0  0  0  0  0  0
  139.3990   67.8160  225.1560 C   0  0  0  0  0  0  0  0  0  0  0  0
  139.9530   68.4890  226.2240 C   0  0  0  0  0  0  0  0  0  0  0  0
  140.5380   67.8120  227.2810 C   0  0  0  0  0  0  0  0  0  0  0  0
  141.0830   68.5020  228.3360 C   0  0  0  0  0  0  0  0  0  0  0  0
  141.6470   67.7990  229.3490 F   0  0  0  0  0  0  0  0  0  0  0  0
  141.0380   69.8690  228.3200 C   0  0  0  0  0  0  0  0  0  0  0  0
  140.4550   70.5560  227.2690 C   0  0  0  0  0  0  0  0  0  0  0  0
  139.8960   69.8860  226.1900 C   0  0  0  0  0  0  0  0  0  0  0  0
  139.3290   70.5510  225.1690 N   0  0  0  0  0  0  0  0  0  0  0  0
  141.4470   78.1890  222.1110 C   0  0  0  0  0  0  0  0  0  0  0  0
  141.5070   78.2640  223.5070 C   0  0  0  0  0  0  0  0  0  0  0  0
  141.8650   79.4440  224.1260 C   0  0  0  0  0  0  0  0  0  0  0  0
  142.1730   80.5790  223.4170 C   0  0  0  0  0  0  0  0  0  0  0  0
  142.1190   80.5220  222.0290 C   0  0  0  0  0  0  0  0  0  0  0  0
  141.7590   79.3370  221.4020 C   0  0  0  0  0  0  0  0  0  0  0  0
  139.7445   77.7527  219.9551 H   0  0  0  0  0  0  0  0  0  0  0  0
  141.4777   77.7172  219.4847 H   0  0  0  0  0  0  0  0  0  0  0  0
  140.5159   76.2002  219.4847 H   0  0  0  0  0  0  0  0  0  0  0  0
  141.9451   76.2690  221.5237 H   0  0  0  0  0  0  0  0  0  0  0  0
  140.0540   75.3180  222.4260 H   0  0  0  0  0  0  0  0  0  0  0  0
  137.9243   75.6908  223.7734 H   0  0  0  0  0  0  0  0  0  0  0  0
  136.3020   77.3188  224.1370 H   0  0  0  0  0  0  0  0  0  0  0  0
  136.5152   78.0348  222.5543 H   0  0  0  0  0  0  0  0  0  0  0  0
  134.8504   75.5660  223.3499 H   0  0  0  0  0  0  0  0  0  0  0  0
  134.3169   76.8686  222.3424 H   0  0  0  0  0  0  0  0  0  0  0  0
  135.2182   74.7032  221.0574 H   0  0  0  0  0  0  0  0  0  0  0  0
  135.9668   76.1749  220.5005 H   0  0  0  0  0  0  0  0  0  0  0  0
  135.9975   72.8507  222.3083 H   0  0  0  0  0  0  0  0  0  0  0  0
  137.0663   71.9358  221.1898 H   0  0  0  0  0  0  0  0  0  0  0  0
  137.7500   72.3560  224.1380 H   0  0  0  0  0  0  0  0  0  0  0  0
  138.3847   67.9994  223.2753 H   0  0  0  0  0  0  0  0  0  0  0  0
  139.4120   66.7166  225.1234 H   0  0  0  0  0  0  0  0  0  0  0  0
  140.5664   66.7124  227.2756 H   0  0  0  0  0  0  0  0  0  0  0  0
  141.4733   70.4331  229.1581 H   0  0  0  0  0  0  0  0  0  0  0  0
  140.4345   71.6556  227.2896 H   0  0  0  0  0  0  0  0  0  0  0  0
  141.2677   77.3782  224.1137 H   0  0  0  0  0  0  0  0  0  0  0  0
  141.9051   79.4767  225.2248 H   0  0  0  0  0  0  0  0  0  0  0  0
  142.4549   81.5084  223.9335 H   0  0  0  0  0  0  0  0  0  0  0  0
  142.3606   81.4124  221.4300 H   0  0  0  0  0  0  0  0  0  0  0  0
  141.7202   79.3088  220.3030 H   0  0  0  0  0  0  0  0  0  0  0  0
  1  2  1  0
  2  3  1  0
  3  4  1  0
  4  5  2  0
  4  6  1  0
  6  7  1  0
  7  8  1  0
  8  9  1  0
  9 10  1  0
 10 11  1  0
 11 12  2  0
 11 13  1  0
 13 14  1  0
 14 15  1  0
 15 16  2  0
 15 17  1  0
 17 18  2  0
 18 19  1  0
 19 20  2  0
 20 21  1  0
 21 22  2  0
 22 23  1  0
 22 24  1  0
 24 25  2  0
 25 26  1  0
 26 27  2  0
  2 28  1  0
 28 29  2  0
 29 30  1  0
 30 31  2  0
 31 32  1  0
 32 33  2  0
 10  6  1  0
 27 17  1  0
 33 28  1  0
 26 20  1  0
  1 34  1  0
  1 35  1  0
  1 36  1  0
  2 37  1  6
  3 38  1  0
  6 39  1  1
  7 40  1  0
  7 41  1  0
  8 42  1  0
  8 43  1  0
  9 44  1  0
  9 45  1  0
 13 46  1  0
 13 47  1  0
 14 48  1  0
 18 49  1  0
 19 50  1  0
 21 51  1  0
 24 52  1  0
 25 53  1  0
 29 54  1  0
 30 55  1  0
 31 56  1  0
 32 57  1  0
 33 58  1  0
M  END
>  <smiles>  (8) 
C[C@H](NC(=O)[C@H]1CCCN1C(=O)CNC(=O)c1ccc2cc(F)ccc2n1)c1ccccc1

>  <score_type>  (8) 
oracle

>  <origin>  (8) 
autodockgpu

>  <m_score__min__energy>  (8) 
-9.4700000000000006

>  <m_primary>  (8) 
energy

>  <rmsd>  (8) 
3.6042444715555964

>  <m_score__min__rmsd>  (8) 
3.6042444715555964

>  <meeko>  (8) 
{"free_energy": -8.26, "intermolecular_energy": -10.35, "internal_energy": -2.56, "cluster_size": 5, "cluster_id": 4, "rank_in_cluster": 4}

>  <energy>  (8) 
-8.93

>  <cluster_rmsd>  (8) 
1.56

>  <cluster>  (8) 
1

$$$$

     RDKit          3D

 58 61  0  0  0  0  0  0  0  0999 V2000
  138.1710   79.3840  222.2060 C   0  0  0  0  0  0  0  0  0  0  0  0
  139.5000   79.4750  221.4770 C   0  0  2  0  0  0  0  0  0  0  0  0
  139.7320   78.1600  220.9060 N   0  0  0  0  0  0  0  0  0  0  0  0
  140.7550   77.9010  219.9490 C   0  0  0  0  0  0  0  0  0  0  0  0
  141.5320   78.7840  219.5280 O   0  0  0  0  0  0  0  0  0  0  0  0
  140.8680   76.4860  219.4540 C   0  0  1  0  0  0  0  0  0  0  0  0
  142.0980   76.4120  218.5930 C   0  0  0  0  0  0  0  0  0  0  0  0
  142.7840   75.1560  219.0890 C   0  0  0  0  0  0  0  0  0  0  0  0
  142.4630   75.2510  220.5850 C   0  0  0  0  0  0  0  0  0  0  0  0
  141.0510   75.5830  220.5650 N   0  0  0  0  0  0  0  0  0  0  0  0
  140.0030   75.1530  221.4220 C   0  0  0  0  0  0  0  0  0  0  0  0
  139.6170   75.8320  222.4060 O   0  0  0  0  0  0  0  0  0  0  0  0
  139.3720   73.8380  221.0960 C   0  0  0  0  0  0  0  0  0  0  0  0
  139.2890   73.0300  222.2900 N   0  0  0  0  0  0  0  0  0  0  0  0
  140.2320   71.9660  222.4460 C   0  0  0  0  0  0  0  0  0  0  0  0
  141.1140   71.7440  221.5600 O   0  0  0  0  0  0  0  0  0  0  0  0
  140.1660   71.1320  223.6520 C   0  0  0  0  0  0  0  0  0  0  0  0
  139.5640   69.8880  223.5690 C   0  0  0  0  0  0  0  0  0  0  0  0
  139.4620   69.0440  224.6620 C   0  0  0  0  0  0  0  0  0  0  0  0
  139.9760   69.4500  225.8750 C   0  0  0  0  0  0  0  0  0  0  0  0
  139.9000   68.6440  226.9990 C   0  0  0  0  0  0  0  0  0  0  0  0
  140.4180   69.0680  228.1980 C   0  0  0  0  0  0  0  0  0  0  0  0
  140.3230   68.2470  229.2720 F   0  0  0  0  0  0  0  0  0  0  0  0
  141.0100   70.3000  228.2590 C   0  0  0  0  0  0  0  0  0  0  0  0
  141.0910   71.1140  227.1420 C   0  0  0  0  0  0  0  0  0  0  0  0
  140.5760   70.7120  225.9180 C   0  0  0  0  0  0  0  0  0  0  0  0
  140.6530   71.5010  224.8320 N   0  0  0  0  0  0  0  0  0  0  0  0
  140.5880   79.9010  222.3980 C   0  0  0  0  0  0  0  0  0  0  0  0
  141.0610   81.2180  222.3770 C   0  0  0  0  0  0  0  0  0  0  0  0
  142.0700   81.6090  223.2330 C   0  0  0  0  0  0  0  0  0  0  0  0
  142.6470   80.7430  224.1290 C   0  0  0  0  0  0  0  0  0  0  0  0
  142.1890   79.4300  224.1630 C   0  0  0  0  0  0  0  0  0  0  0  0
  141.1740   79.0330  223.3040 C   0  0  0  0  0  0  0  0  0  0  0  0
  138.3468   79.3960  223.2918 H   0  0  0  0  0  0  0  0  0  0  0  0
  137.5404   80.2411  221.9271 H   0  0  0  0  0  0  0  0  0  0  0  0
  137.6631   78.4490  221.9271 H   0  0  0  0  0  0  0  0  0  0  0  0
  139.4822   80.2375  220.6844 H   0  0  0  0  0  0  0  0  0  0  0  0
  139.1040   77.3930  221.2310 H   0  0  0  0  0  0  0  0  0  0  0  0
  139.9576   76.2072  218.9032 H   0  0  0  0  0  0  0  0  0  0  0  0
  141.8317   76.3236  217.5294 H   0  0  0  0  0  0  0  0  0  0  0  0
  142.7312   77.3088  218.6625 H   0  0  0  0  0  0  0  0  0  0  0  0
  142.3546   74.2502  218.6360 H   0  0  0  0  0  0  0  0  0  0  0  0
  143.8551   75.0870  218.8483 H   0  0  0  0  0  0  0  0  0  0  0  0
  142.6420   74.2928  221.0947 H   0  0  0  0  0  0  0  0  0  0  0  0
  143.0840   75.9783  221.1286 H   0  0  0  0  0  0  0  0  0  0  0  0
  138.3608   74.0063  220.6971 H   0  0  0  0  0  0  0  0  0  0  0  0
  139.9829   73.3166  220.3444 H   0  0  0  0  0  0  0  0  0  0  0  0
  138.5900   73.1670  223.0460 H   0  0  0  0  0  0  0  0  0  0  0  0
  139.1532   69.5593  222.6030 H   0  0  0  0  0  0  0  0  0  0  0  0
  138.9768   68.0617  224.5636 H   0  0  0  0  0  0  0  0  0  0  0  0
  139.4208   67.6562  226.9306 H   0  0  0  0  0  0  0  0  0  0  0  0
  141.4295   70.6504  229.2136 H   0  0  0  0  0  0  0  0  0  0  0  0
  141.5733   72.0990  227.2266 H   0  0  0  0  0  0  0  0  0  0  0  0
  140.6264   81.9447  221.6749 H   0  0  0  0  0  0  0  0  0  0  0  0
  142.4243   82.6498  223.1965 H   0  0  0  0  0  0  0  0  0  0  0  0
  143.4499   81.0786  224.8018 H   0  0  0  0  0  0  0  0  0  0  0  0
  142.6295   78.7094  224.8678 H   0  0  0  0  0  0  0  0  0  0  0  0
  140.8223   77.9915  223.3442 H   0  0  0  0  0  0  0  0  0  0  0  0
  1  2  1  0
  2  3  1  0
  3  4  1  0
  4  5  2  0
  4  6  1  0
  6  7  1  0
  7  8  1  0
  8  9  1  0
  9 10  1  0
 10 11  1  0
 11 12  2  0
 11 13  1  0
 13 14  1  0
 14 15  1  0
 15 16  2  0
 15 17  1  0
 17 18  2  0
 18 19  1  0
 19 20  2  0
 20 21  1  0
 21 22  2  0
 22 23  1  0
 22 24  1  0
 24 25  2  0
 25 26  1  0
 26 27  2  0
  2 28  1  0
 28 29  2  0
 29 30  1  0
 30 31  2  0
 31 32  1  0
 32 33  2  0
 10  6  1  0
 27 17  1  0
 33 28  1  0
 26 20  1  0
  1 34  1  0
  1 35  1  0
  1 36  1  0
  2 37  1  6
  3 38  1  0
  6 39  1  6
  7 40  1  0
  7 41  1  0
  8 42  1  0
  8 43  1  0
  9 44  1  0
  9 45  1  0
 13 46  1  0
 13 47  1  0
 14 48  1  0
 18 49  1  0
 19 50  1  0
 21 51  1  0
 24 52  1  0
 25 53  1  0
 29 54  1  0
 30 55  1  0
 31 56  1  0
 32 57  1  0
 33 58  1  0
M  END
>  <smiles>  (9) 
C[C@H](NC(=O)[C@H]1CCCN1C(=O)CNC(=O)c1ccc2cc(F)ccc2n1)c1ccccc1

>  <score_type>  (9) 
oracle

>  <origin>  (9) 
autodockgpu

>  <m_score__min__energy>  (9) 
-9.4700000000000006

>  <m_primary>  (9) 
energy

>  <rmsd>  (9) 
2.8901492615959823

>  <m_score__min__rmsd>  (9) 
2.8901492615959823

>  <meeko>  (9) 
{"free_energy": -8.7, "intermolecular_energy": -10.79, "internal_energy": -2.69, "cluster_size": 22, "cluster_id": 1, "rank_in_cluster": 17}

>  <energy>  (9) 
-8.86

>  <cluster_rmsd>  (9) 
1.39

>  <cluster>  (9) 
1

$$$$

     RDKit          3D

 58 61  0  0  0  0  0  0  0  0999 V2000
  139.7420   76.4970  222.3050 C   0  0  0  0  0  0  0  0  0  0  0  0
  140.6710   77.2700  221.3850 C   0  0  2  0  0  0  0  0  0  0  0  0
  141.6100   76.2970  220.8570 N   0  0  0  0  0  0  0  0  0  0  0  0
  141.5000   75.7460  219.5490 C   0  0  0  0  0  0  0  0  0  0  0  0
  140.5880   76.0560  218.7530 O   0  0  0  0  0  0  0  0  0  0  0  0
  142.5530   74.7490  219.1500 C   0  0  1  0  0  0  0  0  0  0  0  0
  143.8490   75.2000  219.7630 C   0  0  0  0  0  0  0  0  0  0  0  0
  144.3990   73.9250  220.3670 C   0  0  0  0  0  0  0  0  0  0  0  0
  143.0960   73.2730  220.8450 C   0  0  0  0  0  0  0  0  0  0  0  0
  142.2370   73.4490  219.6900 N   0  0  0  0  0  0  0  0  0  0  0  0
  141.2620   72.5730  219.1400 C   0  0  0  0  0  0  0  0  0  0  0  0
  141.5100   71.8120  218.1720 O   0  0  0  0  0  0  0  0  0  0  0  0
  139.9090   72.6000  219.7750 C   0  0  0  0  0  0  0  0  0  0  0  0
  139.9020   71.7410  220.9360 N   0  0  0  0  0  0  0  0  0  0  0  0
  140.1190   72.3410  222.2160 C   0  0  0  0  0  0  0  0  0  0  0  0
  140.3110   73.5930  222.3220 O   0  0  0  0  0  0  0  0  0  0  0  0
  140.1150   71.4880  223.4090 C   0  0  0  0  0  0  0  0  0  0  0  0
  139.5770   70.2150  223.3170 C   0  0  0  0  0  0  0  0  0  0  0  0
  139.5360   69.3520  224.3980 C   0  0  0  0  0  0  0  0  0  0  0  0
  140.0470   69.7670  225.6090 C   0  0  0  0  0  0  0  0  0  0  0  0
  140.0320   68.9430  226.7220 C   0  0  0  0  0  0  0  0  0  0  0  0
  140.5460   69.3760  227.9190 C   0  0  0  0  0  0  0  0  0  0  0  0
  140.5110   68.5350  228.9830 F   0  0  0  0  0  0  0  0  0  0  0  0
  141.0740   70.6360  227.9900 C   0  0  0  0  0  0  0  0  0  0  0  0
  141.0950   71.4690  226.8850 C   0  0  0  0  0  0  0  0  0  0  0  0
  140.5820   71.0580  225.6620 C   0  0  0  0  0  0  0  0  0  0  0  0
  140.6010   71.8650  224.5870 N   0  0  0  0  0  0  0  0  0  0  0  0
  141.3420   78.3810  222.1140 C   0  0  0  0  0  0  0  0  0  0  0  0
  141.7850   79.5160  221.4260 C   0  0  0  0  0  0  0  0  0  0  0  0
  142.4070   80.5430  222.1050 C   0  0  0  0  0  0  0  0  0  0  0  0
  142.6170   80.5020  223.4610 C   0  0  0  0  0  0  0  0  0  0  0  0
  142.1830   79.3810  224.1610 C   0  0  0  0  0  0  0  0  0  0  0  0
  141.5570   78.3460  223.4810 C   0  0  0  0  0  0  0  0  0  0  0  0
  140.0006   76.7122  223.3523 H   0  0  0  0  0  0  0  0  0  0  0  0
  138.7018   76.7999  222.1145 H   0  0  0  0  0  0  0  0  0  0  0  0
  139.8508   75.4191  222.1145 H   0  0  0  0  0  0  0  0  0  0  0  0
  140.1251   77.7563  220.5631 H   0  0  0  0  0  0  0  0  0  0  0  0
  142.3880   76.0100  221.4900 H   0  0  0  0  0  0  0  0  0  0  0  0
  142.6125   74.6842  218.0535 H   0  0  0  0  0  0  0  0  0  0  0  0
  144.5300   75.6015  218.9982 H   0  0  0  0  0  0  0  0  0  0  0  0
  143.7239   76.0098  220.4969 H   0  0  0  0  0  0  0  0  0  0  0  0
  144.9135   73.3067  219.6167 H   0  0  0  0  0  0  0  0  0  0  0  0
  145.1574   74.0729  221.1499 H   0  0  0  0  0  0  0  0  0  0  0  0
  143.2424   72.2078  221.0770 H   0  0  0  0  0  0  0  0  0  0  0  0
  142.6929   73.7084  221.7712 H   0  0  0  0  0  0  0  0  0  0  0  0
  139.6679   73.6291  220.0795 H   0  0  0  0  0  0  0  0  0  0  0  0
  139.1592   72.2446  219.0529 H   0  0  0  0  0  0  0  0  0  0  0  0
  139.7500   70.7140  220.9070 H   0  0  0  0  0  0  0  0  0  0  0  0
  139.1687   69.8788  222.3525 H   0  0  0  0  0  0  0  0  0  0  0  0
  139.1010   68.3472  224.2921 H   0  0  0  0  0  0  0  0  0  0  0  0
  139.6043   67.9324  226.6462 H   0  0  0  0  0  0  0  0  0  0  0  0
  141.4898   70.9939  228.9435 H   0  0  0  0  0  0  0  0  0  0  0  0
  141.5266   72.4766  226.9775 H   0  0  0  0  0  0  0  0  0  0  0  0
  141.6366   79.5896  220.3385 H   0  0  0  0  0  0  0  0  0  0  0  0
  142.7461   81.4244  221.5410 H   0  0  0  0  0  0  0  0  0  0  0  0
  143.1154   81.3338  223.9804 H   0  0  0  0  0  0  0  0  0  0  0  0
  142.3353   79.3153  225.2484 H   0  0  0  0  0  0  0  0  0  0  0  0
  141.2195   77.4662  224.0486 H   0  0  0  0  0  0  0  0  0  0  0  0
  1  2  1  0
  2  3  1  0
  3  4  1  0
  4  5  2  0
  4  6  1  0
  6  7  1  0
  7  8  1  0
  8  9  1  0
  9 10  1  0
 10 11  1  0
 11 12  2  0
 11 13  1  0
 13 14  1  0
 14 15  1  0
 15 16  2  0
 15 17  1  0
 17 18  2  0
 18 19  1  0
 19 20  2  0
 20 21  1  0
 21 22  2  0
 22 23  1  0
 22 24  1  0
 24 25  2  0
 25 26  1  0
 26 27  2  0
  2 28  1  0
 28 29  2  0
 29 30  1  0
 30 31  2  0
 31 32  1  0
 32 33  2  0
 10  6  1  0
 27 17  1  0
 33 28  1  0
 26 20  1  0
  1 34  1  0
  1 35  1  0
  1 36  1  0
  2 37  1  6
  3 38  1  0
  6 39  1  6
  7 40  1  0
  7 41  1  0
  8 42  1  0
  8 43  1  0
  9 44  1  0
  9 45  1  0
 13 46  1  0
 13 47  1  0
 14 48  1  0
 18 49  1  0
 19 50  1  0
 21 51  1  0
 24 52  1  0
 25 53  1  0
 29 54  1  0
 30 55  1  0
 31 56  1  0
 32 57  1  0
 33 58  1  0
M  END
>  <smiles>  (10) 
C[C@H](NC(=O)[C@H]1CCCN1C(=O)CNC(=O)c1ccc2cc(F)ccc2n1)c1ccccc1

>  <score_type>  (10) 
oracle

>  <origin>  (10) 
autodockgpu

>  <m_score__min__energy>  (10) 
-9.4700000000000006

>  <m_primary>  (10) 
energy

>  <rmsd>  (10) 
3.509520293632275

>  <m_score__min__rmsd>  (10) 
3.509520293632275

>  <meeko>  (10) 
{"free_energy": -9.47, "intermolecular_energy": -11.56, "internal_energy": -2.19, "cluster_size": 22, "cluster_id": 1, "rank_in_cluster": 1}

>  <energy>  (10) 
-8.84

>  <cluster_rmsd>  (10) 
1.36

>  <cluster>  (10) 
1

$$$$

     RDKit          3D

 58 61  0  0  0  0  0  0  0  0999 V2000
  140.0580   78.8400  219.7610 C   0  0  0  0  0  0  0  0  0  0  0  0
  141.4790   78.5330  220.1990 C   0  0  2  0  0  0  0  0  0  0  0  0
  141.6240   77.0920  220.1000 N   0  0  0  0  0  0  0  0  0  0  0  0
  142.3650   76.4580  219.0630 C   0  0  0  0  0  0  0  0  0  0  0  0
  142.9490   77.0910  218.1580 O   0  0  0  0  0  0  0  0  0  0  0  0
  142.4220   74.9560  219.1000 C   0  0  1  0  0  0  0  0  0  0  0  0
  143.7520   74.5460  218.5320 C   0  0  0  0  0  0  0  0  0  0  0  0
  144.2440   73.5180  219.5300 C   0  0  0  0  0  0  0  0  0  0  0  0
  143.7190   74.1370  220.8310 C   0  0  0  0  0  0  0  0  0  0  0  0
  142.3600   74.4890  220.4640 N   0  0  0  0  0  0  0  0  0  0  0  0
  141.1650   74.4190  221.2290 C   0  0  0  0  0  0  0  0  0  0  0  0
  140.8000   75.3470  221.9930 O   0  0  0  0  0  0  0  0  0  0  0  0
  140.3500   73.1760  221.0800 C   0  0  0  0  0  0  0  0  0  0  0  0
  140.5410   72.3300  222.2350 N   0  0  0  0  0  0  0  0  0  0  0  0
  139.3960   71.6630  222.7740 C   0  0  0  0  0  0  0  0  0  0  0  0
  138.2500   71.8120  222.2470 O   0  0  0  0  0  0  0  0  0  0  0  0
  139.5660   70.7990  223.9470 C   0  0  0  0  0  0  0  0  0  0  0  0
  139.0630   69.5090  223.9040 C   0  0  0  0  0  0  0  0  0  0  0  0
  139.1830   68.6350  224.9700 C   0  0  0  0  0  0  0  0  0  0  0  0
  139.8240   69.0550  226.1160 C   0  0  0  0  0  0  0  0  0  0  0  0
  139.9710   68.2210  227.2110 C   0  0  0  0  0  0  0  0  0  0  0  0
  140.6130   68.6600  228.3430 C   0  0  0  0  0  0  0  0  0  0  0  0
  140.7350   67.8090  229.3910 F   0  0  0  0  0  0  0  0  0  0  0  0
  141.1030   69.9370  228.3660 C   0  0  0  0  0  0  0  0  0  0  0  0
  140.9620   70.7800  227.2780 C   0  0  0  0  0  0  0  0  0  0  0  0
  140.3180   70.3640  226.1210 C   0  0  0  0  0  0  0  0  0  0  0  0
  140.1790   71.1810  225.0620 N   0  0  0  0  0  0  0  0  0  0  0  0
  141.7370   79.0450  221.5720 C   0  0  0  0  0  0  0  0  0  0  0  0
  141.4290   78.2620  222.6910 C   0  0  0  0  0  0  0  0  0  0  0  0
  141.6700   78.7400  223.9620 C   0  0  0  0  0  0  0  0  0  0  0  0
  142.2110   79.9810  224.1880 C   0  0  0  0  0  0  0  0  0  0  0  0
  142.5220   80.7730  223.0880 C   0  0  0  0  0  0  0  0  0  0  0  0
  142.2820   80.2960  221.8070 C   0  0  0  0  0  0  0  0  0  0  0  0
  139.4224   78.9773  220.6482 H   0  0  0  0  0  0  0  0  0  0  0  0
  140.0507   79.7604  219.1587 H   0  0  0  0  0  0  0  0  0  0  0  0
  139.6714   78.0047  219.1587 H   0  0  0  0  0  0  0  0  0  0  0  0
  142.2234   79.0344  219.5630 H   0  0  0  0  0  0  0  0  0  0  0  0
  141.1510   76.5250  220.8370 H   0  0  0  0  0  0  0  0  0  0  0  0
  141.5800   74.5343  218.5315 H   0  0  0  0  0  0  0  0  0  0  0  0
  143.6355   74.1026  217.5321 H   0  0  0  0  0  0  0  0  0  0  0  0
  144.4460   75.3890  218.3990 H   0  0  0  0  0  0  0  0  0  0  0  0
  143.8060   72.5263  219.3440 H   0  0  0  0  0  0  0  0  0  0  0  0
  145.3283   73.3341  219.5091 H   0  0  0  0  0  0  0  0  0  0  0  0
  143.7356   73.4096  221.6560 H   0  0  0  0  0  0  0  0  0  0  0  0
  144.3169   74.9861  221.1937 H   0  0  0  0  0  0  0  0  0  0  0  0
  139.2865   73.4436  220.9941 H   0  0  0  0  0  0  0  0  0  0  0  0
  140.6682   72.6368  220.1756 H   0  0  0  0  0  0  0  0  0  0  0  0
  141.4540   72.1720  222.7050 H   0  0  0  0  0  0  0  0  0  0  0  0
  138.5511   69.1681  222.9920 H   0  0  0  0  0  0  0  0  0  0  0  0
  138.7717   67.6169  224.9038 H   0  0  0  0  0  0  0  0  0  0  0  0
  139.5700   67.1974  227.1742 H   0  0  0  0  0  0  0  0  0  0  0  0
  141.6190   70.3006  229.2668 H   0  0  0  0  0  0  0  0  0  0  0  0
  141.3686   71.8007  227.3310 H   0  0  0  0  0  0  0  0  0  0  0  0
  140.9929   77.2612  222.5558 H   0  0  0  0  0  0  0  0  0  0  0  0
  141.4200   78.1047  224.8245 H   0  0  0  0  0  0  0  0  0  0  0  0
  142.3937   80.3395  225.2118 H   0  0  0  0  0  0  0  0  0  0  0  0
  142.9564   81.7732  223.2326 H   0  0  0  0  0  0  0  0  0  0  0  0
  142.5338   80.9347  220.9475 H   0  0  0  0  0  0  0  0  0  0  0  0
  1  2  1  0
  2  3  1  0
  3  4  1  0
  4  5  2  0
  4  6  1  0
  6  7  1  0
  7  8  1  0
  8  9  1  0
  9 10  1  0
 10 11  1  0
 11 12  2  0
 11 13  1  0
 13 14  1  0
 14 15  1  0
 15 16  2  0
 15 17  1  0
 17 18  2  0
 18 19  1  0
 19 20  2  0
 20 21  1  0
 21 22  2  0
 22 23  1  0
 22 24  1  0
 24 25  2  0
 25 26  1  0
 26 27  2  0
  2 28  1  0
 28 29  2  0
 29 30  1  0
 30 31  2  0
 31 32  1  0
 32 33  2  0
 10  6  1  0
 27 17  1  0
 33 28  1  0
 26 20  1  0
  1 34  1  0
  1 35  1  0
  1 36  1  0
  2 37  1  6
  3 38  1  0
  6 39  1  6
  7 40  1  0
  7 41  1  0
  8 42  1  0
  8 43  1  0
  9 44  1  0
  9 45  1  0
 13 46  1  0
 13 47  1  0
 14 48  1  0
 18 49  1  0
 19 50  1  0
 21 51  1  0
 24 52  1  0
 25 53  1  0
 29 54  1  0
 30 55  1  0
 31 56  1  0
 32 57  1  0
 33 58  1  0
M  END
>  <smiles>  (11) 
C[C@H](NC(=O)[C@H]1CCCN1C(=O)CNC(=O)c1ccc2cc(F)ccc2n1)c1ccccc1

>  <score_type>  (11) 
oracle

>  <origin>  (11) 
autodockgpu

>  <m_score__min__energy>  (11) 
-9.4700000000000006

>  <m_primary>  (11) 
energy

>  <rmsd>  (11) 
3.286821313851459

>  <m_score__min__rmsd>  (11) 
3.286821313851459

>  <meeko>  (11) 
{"free_energy": -8.84, "intermolecular_energy": -10.92, "internal_energy": -2.44, "cluster_size": 22, "cluster_id": 1, "rank_in_cluster": 10}

>  <energy>  (11) 
-8.83

>  <cluster_rmsd>  (11) 
1.34

>  <cluster>  (11) 
1

$$$$

     RDKit          3D

 58 61  0  0  0  0  0  0  0  0999 V2000
  139.8020   79.4360  219.6390 C   0  0  0  0  0  0  0  0  0  0  0  0
  141.1690   78.8460  219.9370 C   0  0  2  0  0  0  0  0  0  0  0  0
  141.0470   77.4180  219.7000 N   0  0  0  0  0  0  0  0  0  0  0  0
  142.1570   76.5910  219.3640 C   0  0  0  0  0  0  0  0  0  0  0  0
  143.3220   77.0290  219.2490 O   0  0  0  0  0  0  0  0  0  0  0  0
  141.8670   75.1320  219.1500 C   0  0  1  0  0  0  0  0  0  0  0  0
  143.1360   74.4920  218.6610 C   0  0  0  0  0  0  0  0  0  0  0  0
  143.2380   73.2450  219.5140 C   0  0  0  0  0  0  0  0  0  0  0  0
  142.6890   73.7840  220.8410 C   0  0  0  0  0  0  0  0  0  0  0  0
  141.5110   74.5070  220.4020 N   0  0  0  0  0  0  0  0  0  0  0  0
  140.2350   74.6260  221.0170 C   0  0  0  0  0  0  0  0  0  0  0  0
  139.8120   75.7120  221.4840 O   0  0  0  0  0  0  0  0  0  0  0  0
  139.4100   73.3820  221.0830 C   0  0  0  0  0  0  0  0  0  0  0  0
  139.4710   72.8300  222.4160 N   0  0  0  0  0  0  0  0  0  0  0  0
  140.3070   71.6900  222.6320 C   0  0  0  0  0  0  0  0  0  0  0  0
  140.9740   71.1840  221.6770 O   0  0  0  0  0  0  0  0  0  0  0  0
  140.3840   71.1120  223.9790 C   0  0  0  0  0  0  0  0  0  0  0  0
  140.9230   71.8740  225.0010 C   0  0  0  0  0  0  0  0  0  0  0  0
  141.0310   71.3990  226.2970 C   0  0  0  0  0  0  0  0  0  0  0  0
  140.5880   70.1260  226.5850 C   0  0  0  0  0  0  0  0  0  0  0  0
  140.6720   69.6030  227.8650 C   0  0  0  0  0  0  0  0  0  0  0  0
  140.2250   68.3320  228.1300 C   0  0  0  0  0  0  0  0  0  0  0  0
  140.3260   67.8600  229.3970 F   0  0  0  0  0  0  0  0  0  0  0  0
  139.6940   67.5950  227.1070 C   0  0  0  0  0  0  0  0  0  0  0  0
  139.6050   68.1080  225.8240 C   0  0  0  0  0  0  0  0  0  0  0  0
  140.0490   69.3890  225.5260 C   0  0  0  0  0  0  0  0  0  0  0  0
  139.9640   69.8880  224.2810 N   0  0  0  0  0  0  0  0  0  0  0  0
  141.5980   79.1630  221.3260 C   0  0  0  0  0  0  0  0  0  0  0  0
  142.2210   80.3820  221.6160 C   0  0  0  0  0  0  0  0  0  0  0  0
  142.6160   80.6720  222.9060 C   0  0  0  0  0  0  0  0  0  0  0  0
  142.4220   79.7970  223.9450 C   0  0  0  0  0  0  0  0  0  0  0  0
  141.8050   78.5800  223.6750 C   0  0  0  0  0  0  0  0  0  0  0  0
  141.4050   78.2850  222.3790 C   0  0  0  0  0  0  0  0  0  0  0  0
  139.2850   79.6591  220.5840 H   0  0  0  0  0  0  0  0  0  0  0  0
  139.9212   80.3628  219.0586 H   0  0  0  0  0  0  0  0  0  0  0  0
  139.2094   78.7135  219.0586 H   0  0  0  0  0  0  0  0  0  0  0  0
  141.9506   79.2743  219.2922 H   0  0  0  0  0  0  0  0  0  0  0  0
  140.0900   77.0120  219.7860 H   0  0  0  0  0  0  0  0  0  0  0  0
  141.0399   75.0147  218.4344 H   0  0  0  0  0  0  0  0  0  0  0  0
  143.0642   74.2362  217.5936 H   0  0  0  0  0  0  0  0  0  0  0  0
  144.0141   75.1490  218.7462 H   0  0  0  0  0  0  0  0  0  0  0  0
  142.6179   72.4275  219.1177 H   0  0  0  0  0  0  0  0  0  0  0  0
  144.2447   72.8056  219.5736 H   0  0  0  0  0  0  0  0  0  0  0  0
  142.4244   72.9658  221.5270 H   0  0  0  0  0  0  0  0  0  0  0  0
  143.4065   74.4000  221.4029 H   0  0  0  0  0  0  0  0  0  0  0  0
  138.3658   73.6216  220.8335 H   0  0  0  0  0  0  0  0  0  0  0  0
  139.8008   72.6461  220.3648 H   0  0  0  0  0  0  0  0  0  0  0  0
  138.9470   73.2030  223.2320 H   0  0  0  0  0  0  0  0  0  0  0  0
  141.2773   72.8908  224.7761 H   0  0  0  0  0  0  0  0  0  0  0  0
  141.4649   72.0297  227.0869 H   0  0  0  0  0  0  0  0  0  0  0  0
  141.1002   70.2108  228.6757 H   0  0  0  0  0  0  0  0  0  0  0  0
  139.3311   66.5761  227.3074 H   0  0  0  0  0  0  0  0  0  0  0  0
  139.1736   67.4877  225.0245 H   0  0  0  0  0  0  0  0  0  0  0  0
  142.3966   81.1122  220.8122 H   0  0  0  0  0  0  0  0  0  0  0  0
  143.1029   81.6374  223.1083 H   0  0  0  0  0  0  0  0  0  0  0  0
  142.7460   80.0514  224.9650 H   0  0  0  0  0  0  0  0  0  0  0  0
  141.6349   77.8549  224.4845 H   0  0  0  0  0  0  0  0  0  0  0  0
  140.9172   77.3191  222.1815 H   0  0  0  0  0  0  0  0  0  0  0  0
  1  2  1  0
  2  3  1  0
  3  4  1  0
  4  5  2  0
  4  6  1  0
  6  7  1  0
  7  8  1  0
  8  9  1  0
  9 10  1  0
 10 11  1  0
 11 12  2  0
 11 13  1  0
 13 14  1  0
 14 15  1  0
 15 16  2  0
 15 17  1  0
 17 18  2  0
 18 19  1  0
 19 20  2  0
 20 21  1  0
 21 22  2  0
 22 23  1  0
 22 24  1  0
 24 25  2  0
 25 26  1  0
 26 27  2  0
  2 28  1  0
 28 29  2  0
 29 30  1  0
 30 31  2  0
 31 32  1  0
 32 33  2  0
 10  6  1  0
 27 17  1  0
 33 28  1  0
 26 20  1  0
  1 34  1  0
  1 35  1  0
  1 36  1  0
  2 37  1  6
  3 38  1  0
  6 39  1  6
  7 40  1  0
  7 41  1  0
  8 42  1  0
  8 43  1  0
  9 44  1  0
  9 45  1  0
 13 46  1  0
 13 47  1  0
 14 48  1  0
 18 49  1  0
 19 50  1  0
 21 51  1  0
 24 52  1  0
 25 53  1  0
 29 54  1  0
 30 55  1  0
 31 56  1  0
 32 57  1  0
 33 58  1  0
M  END
>  <smiles>  (12) 
C[C@H](NC(=O)[C@H]1CCCN1C(=O)CNC(=O)c1ccc2cc(F)ccc2n1)c1ccccc1

>  <score_type>  (12) 
oracle

>  <origin>  (12) 
autodockgpu

>  <m_score__min__energy>  (12) 
-9.4700000000000006

>  <m_primary>  (12) 
energy

>  <rmsd>  (12) 
3.716216779967453

>  <m_score__min__rmsd>  (12) 
3.716216779967453

>  <meeko>  (12) 
{"free_energy": -8.49, "intermolecular_energy": -10.58, "internal_energy": -2.72, "cluster_size": 22, "cluster_id": 1, "rank_in_cluster": 22}

>  <energy>  (12) 
-8.77

>  <cluster_rmsd>  (12) 
1.69

>  <cluster>  (12) 
1

$$$$

     RDKit          3D

 58 61  0  0  0  0  0  0  0  0999 V2000
  138.9840   77.7360  222.6580 C   0  0  0  0  0  0  0  0  0  0  0  0
  139.7870   78.5660  221.6720 C   0  0  2  0  0  0  0  0  0  0  0  0
  140.3620   77.6200  220.7320 N   0  0  0  0  0  0  0  0  0  0  0  0
  141.0040   76.4160  221.1400 C   0  0  0  0  0  0  0  0  0  0  0  0
  141.1230   76.0800  222.3380 O   0  0  0  0  0  0  0  0  0  0  0  0
  141.5480   75.5410  220.0460 C   0  0  1  0  0  0  0  0  0  0  0  0
  142.9880   75.9220  219.8440 C   0  0  0  0  0  0  0  0  0  0  0  0
  143.6900   74.5810  219.7960 C   0  0  0  0  0  0  0  0  0  0  0  0
  142.8650   73.8110  220.8350 C   0  0  0  0  0  0  0  0  0  0  0  0
  141.5090   74.1560  220.4500 N   0  0  0  0  0  0  0  0  0  0  0  0
  140.3340   73.3570  220.4460 C   0  0  0  0  0  0  0  0  0  0  0  0
  140.1580   72.4240  219.6240 O   0  0  0  0  0  0  0  0  0  0  0  0
  139.3040   73.6820  221.4780 C   0  0  0  0  0  0  0  0  0  0  0  0
  139.5570   72.9150  222.6750 N   0  0  0  0  0  0  0  0  0  0  0  0
  139.2680   71.5140  222.6470 C   0  0  0  0  0  0  0  0  0  0  0  0
  138.8030   70.9680  221.5980 O   0  0  0  0  0  0  0  0  0  0  0  0
  139.5170   70.7150  223.8520 C   0  0  0  0  0  0  0  0  0  0  0  0
  139.1620   69.3760  223.8490 C   0  0  0  0  0  0  0  0  0  0  0  0
  139.3650   68.5570  224.9460 C   0  0  0  0  0  0  0  0  0  0  0  0
  139.9380   69.0860  226.0830 C   0  0  0  0  0  0  0  0  0  0  0  0
  140.1630   68.3100  227.2080 C   0  0  0  0  0  0  0  0  0  0  0  0
  140.7350   68.8570  228.3300 C   0  0  0  0  0  0  0  0  0  0  0  0
  140.9370   68.0610  229.4090 F   0  0  0  0  0  0  0  0  0  0  0  0
  141.0790   70.1810  228.3130 C   0  0  0  0  0  0  0  0  0  0  0  0
  140.8590   70.9660  227.1950 C   0  0  0  0  0  0  0  0  0  0  0  0
  140.2820   70.4410  226.0470 C   0  0  0  0  0  0  0  0  0  0  0  0
  140.0670   71.2010  224.9590 N   0  0  0  0  0  0  0  0  0  0  0  0
  140.8180   79.3780  222.3730 C   0  0  0  0  0  0  0  0  0  0  0  0
  142.1790   79.0960  222.2060 C   0  0  0  0  0  0  0  0  0  0  0  0
  143.1320   79.8520  222.8580 C   0  0  0  0  0  0  0  0  0  0  0  0
  142.7980   80.8950  223.6850 C   0  0  0  0  0  0  0  0  0  0  0  0
  141.4510   81.1890  223.8630 C   0  0  0  0  0  0  0  0  0  0  0  0
  140.4890   80.4320  223.2090 C   0  0  0  0  0  0  0  0  0  0  0  0
  139.2583   78.0196  223.6848 H   0  0  0  0  0  0  0  0  0  0  0  0
  137.9105   77.9181  222.5017 H   0  0  0  0  0  0  0  0  0  0  0  0
  139.2015   76.6691  222.5017 H   0  0  0  0  0  0  0  0  0  0  0  0
  139.1592   79.2971  221.1416 H   0  0  0  0  0  0  0  0  0  0  0  0
  140.2840   77.8630  219.7200 H   0  0  0  0  0  0  0  0  0  0  0  0
  140.9518   75.6709  219.1307 H   0  0  0  0  0  0  0  0  0  0  0  0
  143.1230   76.4731  218.9016 H   0  0  0  0  0  0  0  0  0  0  0  0
  143.3755   76.5870  220.6299 H   0  0  0  0  0  0  0  0  0  0  0  0
  143.6232   74.1207  218.7992 H   0  0  0  0  0  0  0  0  0  0  0  0
  144.7710   74.6165  219.9967 H   0  0  0  0  0  0  0  0  0  0  0  0
  143.0390   72.7273  220.7618 H   0  0  0  0  0  0  0  0  0  0  0  0
  143.1111   74.0644  221.8768 H   0  0  0  0  0  0  0  0  0  0  0  0
  139.3493   74.7553  221.7148 H   0  0  0  0  0  0  0  0  0  0  0  0
  138.3060   73.4320  221.0887 H   0  0  0  0  0  0  0  0  0  0  0  0
  139.9350   73.3090  223.5580 H   0  0  0  0  0  0  0  0  0  0  0  0
  138.7035   68.9495  222.9446 H   0  0  0  0  0  0  0  0  0  0  0  0
  139.0728   67.4971  224.9112 H   0  0  0  0  0  0  0  0  0  0  0  0
  139.8811   67.2467  227.2025 H   0  0  0  0  0  0  0  0  0  0  0  0
  141.5394   70.6302  229.2054 H   0  0  0  0  0  0  0  0  0  0  0  0
  141.1471   72.0274  227.2165 H   0  0  0  0  0  0  0  0  0  0  0  0
  142.4903   78.2681  221.5521 H   0  0  0  0  0  0  0  0  0  0  0  0
  144.1949   79.6104  222.7098 H   0  0  0  0  0  0  0  0  0  0  0  0
  143.5760   81.4831  224.1938 H   0  0  0  0  0  0  0  0  0  0  0  0
  141.1488   82.0183  224.5195 H   0  0  0  0  0  0  0  0  0  0  0  0
  139.4275   80.6779  223.3600 H   0  0  0  0  0  0  0  0  0  0  0  0
  1  2  1  0
  2  3  1  0
  3  4  1  0
  4  5  2  0
  4  6  1  0
  6  7  1  0
  7  8  1  0
  8  9  1  0
  9 10  1  0
 10 11  1  0
 11 12  2  0
 11 13  1  0
 13 14  1  0
 14 15  1  0
 15 16  2  0
 15 17  1  0
 17 18  2  0
 18 19  1  0
 19 20  2  0
 20 21  1  0
 21 22  2  0
 22 23  1  0
 22 24  1  0
 24 25  2  0
 25 26  1  0
 26 27  2  0
  2 28  1  0
 28 29  2  0
 29 30  1  0
 30 31  2  0
 31 32  1  0
 32 33  2  0
 10  6  1  0
 27 17  1  0
 33 28  1  0
 26 20  1  0
  1 34  1  0
  1 35  1  0
  1 36  1  0
  2 37  1  6
  3 38  1  0
  6 39  1  6
  7 40  1  0
  7 41  1  0
  8 42  1  0
  8 43  1  0
  9 44  1  0
  9 45  1  0
 13 46  1  0
 13 47  1  0
 14 48  1  0
 18 49  1  0
 19 50  1  0
 21 51  1  0
 24 52  1  0
 25 53  1  0
 29 54  1  0
 30 55  1  0
 31 56  1  0
 32 57  1  0
 33 58  1  0
M  END
>  <smiles>  (13) 
C[C@H](NC(=O)[C@H]1CCCN1C(=O)CNC(=O)c1ccc2cc(F)ccc2n1)c1ccccc1

>  <score_type>  (13) 
oracle

>  <origin>  (13) 
autodockgpu

>  <m_score__min__energy>  (13) 
-9.4700000000000006

>  <m_primary>  (13) 
energy

>  <rmsd>  (13) 
3.0222164222845445

>  <m_score__min__rmsd>  (13) 
3.0222164222845445

>  <meeko>  (13) 
{"free_energy": -8.93, "intermolecular_energy": -11.01, "internal_energy": -1.95, "cluster_size": 22, "cluster_id": 1, "rank_in_cluster": 8}

>  <energy>  (13) 
-8.77

>  <cluster_rmsd>  (13) 
1.69

>  <cluster>  (13) 
1

$$$$

     RDKit          3D

 58 61  0  0  0  0  0  0  0  0999 V2000
  140.4420   71.9450  223.2290 C   0  0  0  0  0  0  0  0  0  0  0  0
  139.5720   70.9450  223.9690 C   0  0  2  0  0  0  0  0  0  0  0  0
  138.2010   71.3780  223.7600 N   0  0  0  0  0  0  0  0  0  0  0  0
  137.0820   70.5140  223.9290 C   0  0  0  0  0  0  0  0  0  0  0  0
  137.1920   69.3170  224.2700 O   0  0  0  0  0  0  0  0  0  0  0  0
  135.7270   71.1130  223.6760 C   0  0  1  0  0  0  0  0  0  0  0  0
  134.9890   71.1160  224.9850 C   0  0  0  0  0  0  0  0  0  0  0  0
  134.4090   72.5130  225.0450 C   0  0  0  0  0  0  0  0  0  0  0  0
  135.5530   73.3040  224.3960 C   0  0  0  0  0  0  0  0  0  0  0  0
  135.8620   72.4820  223.2420 N   0  0  0  0  0  0  0  0  0  0  0  0
  136.2300   72.8680  221.9240 C   0  0  0  0  0  0  0  0  0  0  0  0
  136.7590   72.0680  221.1120 O   0  0  0  0  0  0  0  0  0  0  0  0
  135.9550   74.2860  221.5440 C   0  0  0  0  0  0  0  0  0  0  0  0
  137.1800   75.0490  221.5970 N   0  0  0  0  0  0  0  0  0  0  0  0
  137.3080   76.0420  222.6180 C   0  0  0  0  0  0  0  0  0  0  0  0
  136.3700   76.2420  223.4510 O   0  0  0  0  0  0  0  0  0  0  0  0
  138.5450   76.8290  222.6910 C   0  0  0  0  0  0  0  0  0  0  0  0
  139.7410   76.2240  222.3470 C   0  0  0  0  0  0  0  0  0  0  0  0
  140.9490   76.8990  222.3910 C   0  0  0  0  0  0  0  0  0  0  0  0
  140.9670   78.2190  222.7890 C   0  0  0  0  0  0  0  0  0  0  0  0
  142.1470   78.9400  222.8510 C   0  0  0  0  0  0  0  0  0  0  0  0
  142.1430   80.2540  223.2510 C   0  0  0  0  0  0  0  0  0  0  0  0
  143.3220   80.9220  223.2960 F   0  0  0  0  0  0  0  0  0  0  0  0
  140.9500   80.8340  223.5870 C   0  0  0  0  0  0  0  0  0  0  0  0
  139.7640   80.1230  223.5290 C   0  0  0  0  0  0  0  0  0  0  0  0
  139.7380   78.7940  223.1290 C   0  0  0  0  0  0  0  0  0  0  0  0
  138.5880   78.1010  223.0730 N   0  0  0  0  0  0  0  0  0  0  0  0
  139.9410   70.8780  225.4090 C   0  0  0  0  0  0  0  0  0  0  0  0
  140.7310   71.8780  225.9870 C   0  0  0  0  0  0  0  0  0  0  0  0
  141.0710   71.8130  227.3220 C   0  0  0  0  0  0  0  0  0  0  0  0
  140.6590   70.7840  228.1330 C   0  0  0  0  0  0  0  0  0  0  0  0
  139.8730   69.7810  227.5750 C   0  0  0  0  0  0  0  0  0  0  0  0
  139.5290   69.8440  226.2320 C   0  0  0  0  0  0  0  0  0  0  0  0
  140.9840   72.5679  223.9558 H   0  0  0  0  0  0  0  0  0  0  0  0
  141.1638   71.4063  222.5975 H   0  0  0  0  0  0  0  0  0  0  0  0
  139.8086   72.5853  222.5975 H   0  0  0  0  0  0  0  0  0  0  0  0
  139.7097   69.9211  223.5912 H   0  0  0  0  0  0  0  0  0  0  0  0
  138.0650   72.3720  223.4740 H   0  0  0  0  0  0  0  0  0  0  0  0
  135.1995   70.5348  222.9031 H   0  0  0  0  0  0  0  0  0  0  0  0
  134.1931   70.3567  224.9920 H   0  0  0  0  0  0  0  0  0  0  0  0
  135.6309   70.8755  225.8453 H   0  0  0  0  0  0  0  0  0  0  0  0
  133.4771   72.5934  224.4661 H   0  0  0  0  0  0  0  0  0  0  0  0
  134.1227   72.8532  226.0511 H   0  0  0  0  0  0  0  0  0  0  0  0
  135.2247   74.3099  224.0953 H   0  0  0  0  0  0  0  0  0  0  0  0
  136.4104   73.4772  225.0630 H   0  0  0  0  0  0  0  0  0  0  0  0
  135.5474   74.3187  220.5228 H   0  0  0  0  0  0  0  0  0  0  0  0
  135.2260   74.7171  222.2459 H   0  0  0  0  0  0  0  0  0  0  0  0
  137.9780   74.9280  220.9430 H   0  0  0  0  0  0  0  0  0  0  0  0
  139.7317   75.1714  222.0278 H   0  0  0  0  0  0  0  0  0  0  0  0
  141.8826   76.3887  222.1120 H   0  0  0  0  0  0  0  0  0  0  0  0
  143.0964   78.4563  222.5775 H   0  0  0  0  0  0  0  0  0  0  0  0
  140.9333   81.8856  223.9094 H   0  0  0  0  0  0  0  0  0  0  0  0
  138.8230   80.6211  223.8055 H   0  0  0  0  0  0  0  0  0  0  0  0
  141.0827   72.7204  225.3733 H   0  0  0  0  0  0  0  0  0  0  0  0
  141.6930   72.6121  227.7517 H   0  0  0  0  0  0  0  0  0  0  0  0
  140.9429   70.7538  229.1953 H   0  0  0  0  0  0  0  0  0  0  0  0
  139.5257   68.9417  228.1955 H   0  0  0  0  0  0  0  0  0  0  0  0
  138.9065   69.0433  225.8061 H   0  0  0  0  0  0  0  0  0  0  0  0
  1  2  1  0
  2  3  1  0
  3  4  1  0
  4  5  2  0
  4  6  1  0
  6  7  1  0
  7  8  1  0
  8  9  1  0
  9 10  1  0
 10 11  1  0
 11 12  2  0
 11 13  1  0
 13 14  1  0
 14 15  1  0
 15 16  2  0
 15 17  1  0
 17 18  2  0
 18 19  1  0
 19 20  2  0
 20 21  1  0
 21 22  2  0
 22 23  1  0
 22 24  1  0
 24 25  2  0
 25 26  1  0
 26 27  2  0
  2 28  1  0
 28 29  2  0
 29 30  1  0
 30 31  2  0
 31 32  1  0
 32 33  2  0
 10  6  1  0
 27 17  1  0
 33 28  1  0
 26 20  1  0
  1 34  1  0
  1 35  1  0
  1 36  1  0
  2 37  1  6
  3 38  1  0
  6 39  1  6
  7 40  1  0
  7 41  1  0
  8 42  1  0
  8 43  1  0
  9 44  1  0
  9 45  1  0
 13 46  1  0
 13 47  1  0
 14 48  1  0
 18 49  1  0
 19 50  1  0
 21 51  1  0
 24 52  1  0
 25 53  1  0
 29 54  1  0
 30 55  1  0
 31 56  1  0
 32 57  1  0
 33 58  1  0
M  END
>  <smiles>  (14) 
C[C@H](NC(=O)[C@H]1CCCN1C(=O)CNC(=O)c1ccc2cc(F)ccc2n1)c1ccccc1

>  <score_type>  (14) 
oracle

>  <origin>  (14) 
autodockgpu

>  <m_score__min__energy>  (14) 
-9.4700000000000006

>  <m_primary>  (14) 
energy

>  <rmsd>  (14) 
9.44888010548912

>  <m_score__min__rmsd>  (14) 
9.44888010548912

>  <meeko>  (14) 
{"free_energy": -8.33, "intermolecular_energy": -10.42, "internal_energy": -2.32, "cluster_size": 5, "cluster_id": 5, "rank_in_cluster": 2}

>  <energy>  (14) 
-8.76

>  <cluster_rmsd>  (14) 
1.64

>  <cluster>  (14) 
1

$$$$

     RDKit          3D

 58 61  0  0  0  0  0  0  0  0999 V2000
  139.4190   76.8050  221.2890 C   0  0  0  0  0  0  0  0  0  0  0  0
  140.4820   77.6990  220.6750 C   0  0  2  0  0  0  0  0  0  0  0  0
  141.3830   76.8130  219.9590 N   0  0  0  0  0  0  0  0  0  0  0  0
  141.9230   75.6280  220.5360 C   0  0  0  0  0  0  0  0  0  0  0  0
  141.6640   75.2580  221.7010 O   0  0  0  0  0  0  0  0  0  0  0  0
  142.8410   74.8160  219.6650 C   0  0  1  0  0  0  0  0  0  0  0  0
  144.2490   75.1280  220.0900 C   0  0  0  0  0  0  0  0  0  0  0  0
  144.8840   73.7570  220.1900 C   0  0  0  0  0  0  0  0  0  0  0  0
  143.6970   72.9530  220.7360 C   0  0  0  0  0  0  0  0  0  0  0  0
  142.6150   73.4070  219.8830 N   0  0  0  0  0  0  0  0  0  0  0  0
  141.5240   72.6810  219.3340 C   0  0  0  0  0  0  0  0  0  0  0  0
  141.6320   71.9890  218.2910 O   0  0  0  0  0  0  0  0  0  0  0  0
  140.2240   72.7790  220.0640 C   0  0  0  0  0  0  0  0  0  0  0  0
  140.2310   71.8740  221.1900 N   0  0  0  0  0  0  0  0  0  0  0  0
  140.0730   72.4290  222.4980 C   0  0  0  0  0  0  0  0  0  0  0  0
  139.9310   73.6810  222.6590 O   0  0  0  0  0  0  0  0  0  0  0  0
  140.0770   71.5280  223.6560 C   0  0  0  0  0  0  0  0  0  0  0  0
  139.5460   70.2570  223.5130 C   0  0  0  0  0  0  0  0  0  0  0  0
  139.5130   69.3510  224.5590 C   0  0  0  0  0  0  0  0  0  0  0  0
  140.0240   69.7190  225.7850 C   0  0  0  0  0  0  0  0  0  0  0  0
  140.0150   68.8500  226.8630 C   0  0  0  0  0  0  0  0  0  0  0  0
  140.5290   69.2380  228.0760 C   0  0  0  0  0  0  0  0  0  0  0  0
  140.5000   68.3540  229.1050 F   0  0  0  0  0  0  0  0  0  0  0  0
  141.0490   70.4970  228.1970 C   0  0  0  0  0  0  0  0  0  0  0  0
  141.0630   71.3740  227.1260 C   0  0  0  0  0  0  0  0  0  0  0  0
  140.5510   71.0100  225.8890 C   0  0  0  0  0  0  0  0  0  0  0  0
  140.5630   71.8600  224.8470 N   0  0  0  0  0  0  0  0  0  0  0  0
  141.1740   78.5000  221.7200 C   0  0  0  0  0  0  0  0  0  0  0  0
  141.8630   79.6700  221.3790 C   0  0  0  0  0  0  0  0  0  0  0  0
  142.5030   80.4100  222.3510 C   0  0  0  0  0  0  0  0  0  0  0  0
  142.4970   80.0420  223.6740 C   0  0  0  0  0  0  0  0  0  0  0  0
  141.8180   78.8830  224.0320 C   0  0  0  0  0  0  0  0  0  0  0  0
  141.1720   78.1350  223.0560 C   0  0  0  0  0  0  0  0  0  0  0  0
  139.4833   76.8590  222.3858 H   0  0  0  0  0  0  0  0  0  0  0  0
  138.4238   77.1416  220.9630 H   0  0  0  0  0  0  0  0  0  0  0  0
  139.5800   75.7668  220.9630 H   0  0  0  0  0  0  0  0  0  0  0  0
  140.0494   78.4397  219.9863 H   0  0  0  0  0  0  0  0  0  0  0  0
  141.6250   77.0850  218.9820 H   0  0  0  0  0  0  0  0  0  0  0  0
  142.6639   75.0549  218.6059 H   0  0  0  0  0  0  0  0  0  0  0  0
  144.7610   75.7474  219.3389 H   0  0  0  0  0  0  0  0  0  0  0  0
  144.3028   75.7010  221.0274 H   0  0  0  0  0  0  0  0  0  0  0  0
  145.2111   73.3859  219.2075 H   0  0  0  0  0  0  0  0  0  0  0  0
  145.7956   73.7122  220.8040 H   0  0  0  0  0  0  0  0  0  0  0  0
  143.8635   71.8708  220.6303 H   0  0  0  0  0  0  0  0  0  0  0  0
  143.5120   73.1045  221.8097 H   0  0  0  0  0  0  0  0  0  0  0  0
  140.0826   73.8091  220.4231 H   0  0  0  0  0  0  0  0  0  0  0  0
  139.4021   72.5099  219.3842 H   0  0  0  0  0  0  0  0  0  0  0  0
  140.3440   70.8440  221.1160 H   0  0  0  0  0  0  0  0  0  0  0  0
  139.1372   69.9577  222.5366 H   0  0  0  0  0  0  0  0  0  0  0  0
  139.0838   68.3487  224.4134 H   0  0  0  0  0  0  0  0  0  0  0  0
  139.5928   67.8409  226.7469 H   0  0  0  0  0  0  0  0  0  0  0  0
  141.4639   70.8189  229.1635 H   0  0  0  0  0  0  0  0  0  0  0  0
  141.4886   72.3796  227.2584 H   0  0  0  0  0  0  0  0  0  0  0  0
  141.8941   80.0008  220.3304 H   0  0  0  0  0  0  0  0  0  0  0  0
  143.0363   81.3259  222.0566 H   0  0  0  0  0  0  0  0  0  0  0  0
  143.0160   80.6486  224.4308 H   0  0  0  0  0  0  0  0  0  0  0  0
  141.7924   78.5598  225.0831 H   0  0  0  0  0  0  0  0  0  0  0  0
  140.6397   77.2199  223.3549 H   0  0  0  0  0  0  0  0  0  0  0  0
  1  2  1  0
  2  3  1  0
  3  4  1  0
  4  5  2  0
  4  6  1  0
  6  7  1  0
  7  8  1  0
  8  9  1  0
  9 10  1  0
 10 11  1  0
 11 12  2  0
 11 13  1  0
 13 14  1  0
 14 15  1  0
 15 16  2  0
 15 17  1  0
 17 18  2  0
 18 19  1  0
 19 20  2  0
 20 21  1  0
 21 22  2  0
 22 23  1  0
 22 24  1  0
 24 25  2  0
 25 26  1  0
 26 27  2  0
  2 28  1  0
 28 29  2  0
 29 30  1  0
 30 31  2  0
 31 32  1  0
 32 33  2  0
 10  6  1  0
 27 17  1  0
 33 28  1  0
 26 20  1  0
  1 34  1  0
  1 35  1  0
  1 36  1  0
  2 37  1  6
  3 38  1  0
  6 39  1  6
  7 40  1  0
  7 41  1  0
  8 42  1  0
  8 43  1  0
  9 44  1  0
  9 45  1  0
 13 46  1  0
 13 47  1  0
 14 48  1  0
 18 49  1  0
 19 50  1  0
 21 51  1  0
 24 52  1  0
 25 53  1  0
 29 54  1  0
 30 55  1  0
 31 56  1  0
 32 57  1  0
 33 58  1  0
M  END
>  <smiles>  (15) 
C[C@H](NC(=O)[C@H]1CCCN1C(=O)CNC(=O)c1ccc2cc(F)ccc2n1)c1ccccc1

>  <score_type>  (15) 
oracle

>  <origin>  (15) 
autodockgpu

>  <m_score__min__energy>  (15) 
-9.4700000000000006

>  <m_primary>  (15) 
energy

>  <rmsd>  (15) 
3.6612617705221604

>  <m_score__min__rmsd>  (15) 
3.6612617705221604

>  <meeko>  (15) 
{"free_energy": -9.16, "intermolecular_energy": -11.25, "internal_energy": -1.99, "cluster_size": 22, "cluster_id": 1, "rank_in_cluster": 3}

>  <energy>  (15) 
-8.75

>  <cluster_rmsd>  (15) 
1.65

>  <cluster>  (15) 
1

$$$$

     RDKit          3D

 58 61  0  0  0  0  0  0  0  0999 V2000
  142.9930   80.0310  222.7570 C   0  0  0  0  0  0  0  0  0  0  0  0
  141.8340   79.1070  223.0870 C   0  0  2  0  0  0  0  0  0  0  0  0
  141.8210   78.0960  222.0450 N   0  0  0  0  0  0  0  0  0  0  0  0
  141.4550   78.3780  220.6980 C   0  0  0  0  0  0  0  0  0  0  0  0
  141.1180   79.5160  220.3080 O   0  0  0  0  0  0  0  0  0  0  0  0
  141.4930   77.2230  219.7360 C   0  0  1  0  0  0  0  0  0  0  0  0
  142.5380   77.5370  218.7030 C   0  0  0  0  0  0  0  0  0  0  0  0
  143.3230   76.2460  218.6120 C   0  0  0  0  0  0  0  0  0  0  0  0
  143.2910   75.8110  220.0820 C   0  0  0  0  0  0  0  0  0  0  0  0
  141.8960   76.0190  220.4210 N   0  0  0  0  0  0  0  0  0  0  0  0
  141.0370   75.2460  221.2480 C   0  0  0  0  0  0  0  0  0  0  0  0
  140.4960   75.7140  222.2810 O   0  0  0  0  0  0  0  0  0  0  0  0
  140.8010   73.8320  220.8260 C   0  0  0  0  0  0  0  0  0  0  0  0
  140.9250   72.9580  221.9690 N   0  0  0  0  0  0  0  0  0  0  0  0
  139.7310   72.3780  222.5030 C   0  0  0  0  0  0  0  0  0  0  0  0
  138.6000   72.6280  221.9830 O   0  0  0  0  0  0  0  0  0  0  0  0
  139.8340   71.4870  223.6640 C   0  0  0  0  0  0  0  0  0  0  0  0
  139.3530   70.1930  223.5550 C   0  0  0  0  0  0  0  0  0  0  0  0
  139.4130   69.2930  224.6050 C   0  0  0  0  0  0  0  0  0  0  0  0
  139.9680   69.6930  225.8020 C   0  0  0  0  0  0  0  0  0  0  0  0
  140.0530   68.8330  226.8840 C   0  0  0  0  0  0  0  0  0  0  0  0
  140.6100   69.2510  228.0670 C   0  0  0  0  0  0  0  0  0  0  0  0
  140.6730   68.3750  229.1000 F   0  0  0  0  0  0  0  0  0  0  0  0
  141.0790   70.5330  228.1550 C   0  0  0  0  0  0  0  0  0  0  0  0
  141.0000   71.4020  227.0800 C   0  0  0  0  0  0  0  0  0  0  0  0
  140.4420   71.0070  225.8720 C   0  0  0  0  0  0  0  0  0  0  0  0
  140.3640   71.8480  224.8270 N   0  0  0  0  0  0  0  0  0  0  0  0
  140.5540   79.8640  223.1700 C   0  0  0  0  0  0  0  0  0  0  0  0
  140.4330   81.1210  222.5690 C   0  0  0  0  0  0  0  0  0  0  0  0
  139.2460   81.8190  222.6480 C   0  0  0  0  0  0  0  0  0  0  0  0
  138.1480   81.3240  223.3070 C   0  0  0  0  0  0  0  0  0  0  0  0
  138.2510   80.0750  223.9110 C   0  0  0  0  0  0  0  0  0  0  0  0
  139.4440   79.3700  223.8340 C   0  0  0  0  0  0  0  0  0  0  0  0
  143.4491   80.3946  223.6896 H   0  0  0  0  0  0  0  0  0  0  0  0
  143.7446   79.4816  222.1712 H   0  0  0  0  0  0  0  0  0  0  0  0
  142.6249   80.8861  222.1712 H   0  0  0  0  0  0  0  0  0  0  0  0
  141.9520   78.6352  224.0737 H   0  0  0  0  0  0  0  0  0  0  0  0
  142.0960   77.1310  222.3290 H   0  0  0  0  0  0  0  0  0  0  0  0
  140.4991   77.0738  219.2889 H   0  0  0  0  0  0  0  0  0  0  0  0
  142.0762   77.7882  217.7367 H   0  0  0  0  0  0  0  0  0  0  0  0
  143.1599   78.4058  218.9647 H   0  0  0  0  0  0  0  0  0  0  0  0
  142.8282   75.5126  217.9583 H   0  0  0  0  0  0  0  0  0  0  0  0
  144.3297   76.3453  218.1799 H   0  0  0  0  0  0  0  0  0  0  0  0
  143.5775   74.7548  220.1938 H   0  0  0  0  0  0  0  0  0  0  0  0
  143.9933   76.3612  220.7255 H   0  0  0  0  0  0  0  0  0  0  0  0
  139.7897   73.7402  220.4030 H   0  0  0  0  0  0  0  0  0  0  0  0
  141.5449   73.5484  220.0670 H   0  0  0  0  0  0  0  0  0  0  0  0
  141.8230   72.7200  222.4340 H   0  0  0  0  0  0  0  0  0  0  0  0
  138.9084   69.8695  222.6022 H   0  0  0  0  0  0  0  0  0  0  0  0
  139.0228   68.2715  224.4859 H   0  0  0  0  0  0  0  0  0  0  0  0
  139.6707   67.8055  226.7947 H   0  0  0  0  0  0  0  0  0  0  0  0
  141.5274   70.8801  229.0976 H   0  0  0  0  0  0  0  0  0  0  0  0
  141.3873   72.4262  227.1854 H   0  0  0  0  0  0  0  0  0  0  0  0
  141.2885   81.5551  222.0308 H   0  0  0  0  0  0  0  0  0  0  0  0
  139.1767   82.8057  222.1667 H   0  0  0  0  0  0  0  0  0  0  0  0
  137.2119   81.8996  223.3561 H   0  0  0  0  0  0  0  0  0  0  0  0
  137.3907   79.6481  224.4472 H   0  0  0  0  0  0  0  0  0  0  0  0
  139.5100   78.3842  224.3175 H   0  0  0  0  0  0  0  0  0  0  0  0
  1  2  1  0
  2  3  1  0
  3  4  1  0
  4  5  2  0
  4  6  1  0
  6  7  1  0
  7  8  1  0
  8  9  1  0
  9 10  1  0
 10 11  1  0
 11 12  2  0
 11 13  1  0
 13 14  1  0
 14 15  1  0
 15 16  2  0
 15 17  1  0
 17 18  2  0
 18 19  1  0
 19 20  2  0
 20 21  1  0
 21 22  2  0
 22 23  1  0
 22 24  1  0
 24 25  2  0
 25 26  1  0
 26 27  2  0
  2 28  1  0
 28 29  2  0
 29 30  1  0
 30 31  2  0
 31 32  1  0
 32 33  2  0
 10  6  1  0
 27 17  1  0
 33 28  1  0
 26 20  1  0
  1 34  1  0
  1 35  1  0
  1 36  1  0
  2 37  1  1
  3 38  1  0
  6 39  1  6
  7 40  1  0
  7 41  1  0
  8 42  1  0
  8 43  1  0
  9 44  1  0
  9 45  1  0
 13 46  1  0
 13 47  1  0
 14 48  1  0
 18 49  1  0
 19 50  1  0
 21 51  1  0
 24 52  1  0
 25 53  1  0
 29 54  1  0
 30 55  1  0
 31 56  1  0
 32 57  1  0
 33 58  1  0
M  END
>  <smiles>  (16) 
C[C@H](NC(=O)[C@H]1CCCN1C(=O)CNC(=O)c1ccc2cc(F)ccc2n1)c1ccccc1

>  <score_type>  (16) 
oracle

>  <origin>  (16) 
autodockgpu

>  <m_score__min__energy>  (16) 
-9.4700000000000006

>  <m_primary>  (16) 
energy

>  <rmsd>  (16) 
2.479438708869611

>  <m_score__min__rmsd>  (16) 
2.479438708869611

>  <meeko>  (16) 
{"free_energy": -9.1, "intermolecular_energy": -11.19, "internal_energy": -2.46, "cluster_size": 16, "cluster_id": 2, "rank_in_cluster": 6}

>  <energy>  (16) 
-8.74

>  <cluster_rmsd>  (16) 
1.71

>  <cluster>  (16) 
1

$$$$

     RDKit          3D

 58 61  0  0  0  0  0  0  0  0999 V2000
  139.1220   79.8110  220.2670 C   0  0  0  0  0  0  0  0  0  0  0  0
  140.1200   78.8010  220.8040 C   0  0  2  0  0  0  0  0  0  0  0  0
  139.3320   77.6820  221.2900 N   0  0  0  0  0  0  0  0  0  0  0  0
  138.4360   77.7890  222.3920 C   0  0  0  0  0  0  0  0  0  0  0  0
  138.2580   78.8510  223.0250 O   0  0  0  0  0  0  0  0  0  0  0  0
  137.6910   76.5400  222.7750 C   0  0  1  0  0  0  0  0  0  0  0  0
  136.2240   76.8550  222.6970 C   0  0  0  0  0  0  0  0  0  0  0  0
  135.6620   75.6700  221.9400 C   0  0  0  0  0  0  0  0  0  0  0  0
  136.8110   75.4140  220.9570 C   0  0  0  0  0  0  0  0  0  0  0  0
  137.9680   75.4860  221.8280 N   0  0  0  0  0  0  0  0  0  0  0  0
  139.1630   74.7180  221.8180 C   0  0  0  0  0  0  0  0  0  0  0  0
  140.2920   75.2260  222.0340 O   0  0  0  0  0  0  0  0  0  0  0  0
  139.0140   73.2580  221.5350 C   0  0  0  0  0  0  0  0  0  0  0  0
  139.3450   72.4990  222.7180 N   0  0  0  0  0  0  0  0  0  0  0  0
  138.9390   71.1280  222.7700 C   0  0  0  0  0  0  0  0  0  0  0  0
  138.3090   70.6000  221.8020 O   0  0  0  0  0  0  0  0  0  0  0  0
  139.2650   70.3370  223.9630 C   0  0  0  0  0  0  0  0  0  0  0  0
  138.9370   68.9920  223.9800 C   0  0  0  0  0  0  0  0  0  0  0  0
  139.2110   68.1810  225.0680 C   0  0  0  0  0  0  0  0  0  0  0  0
  139.8300   68.7240  226.1730 C   0  0  0  0  0  0  0  0  0  0  0  0
  140.1260   67.9560  227.2870 C   0  0  0  0  0  0  0  0  0  0  0  0
  140.7430   68.5180  228.3780 C   0  0  0  0  0  0  0  0  0  0  0  0
  141.0150   67.7290  229.4460 F   0  0  0  0  0  0  0  0  0  0  0  0
  141.0590   69.8480  228.3410 C   0  0  0  0  0  0  0  0  0  0  0  0
  140.7680   70.6250  227.2330 C   0  0  0  0  0  0  0  0  0  0  0  0
  140.1450   70.0850  226.1170 C   0  0  0  0  0  0  0  0  0  0  0  0
  139.8600   70.8380  225.0400 N   0  0  0  0  0  0  0  0  0  0  0  0
  140.9760   79.4040  221.8620 C   0  0  0  0  0  0  0  0  0  0  0  0
  141.4180   78.6340  222.9430 C   0  0  0  0  0  0  0  0  0  0  0  0
  142.2100   79.1980  223.9220 C   0  0  0  0  0  0  0  0  0  0  0  0
  142.5960   80.5150  223.8830 C   0  0  0  0  0  0  0  0  0  0  0  0
  142.1650   81.2950  222.8150 C   0  0  0  0  0  0  0  0  0  0  0  0
  141.3680   80.7320  221.8290 C   0  0  0  0  0  0  0  0  0  0  0  0
  138.6231   80.3159  221.1073 H   0  0  0  0  0  0  0  0  0  0  0  0
  139.6487   80.5558  219.6523 H   0  0  0  0  0  0  0  0  0  0  0  0
  138.3710   79.2932  219.6523 H   0  0  0  0  0  0  0  0  0  0  0  0
  140.8220   78.4641  220.0270 H   0  0  0  0  0  0  0  0  0  0  0  0
  139.4510   76.7750  220.7890 H   0  0  0  0  0  0  0  0  0  0  0  0
  137.9934   76.2156  223.7816 H   0  0  0  0  0  0  0  0  0  0  0  0
  135.7814   76.9288  223.7013 H   0  0  0  0  0  0  0  0  0  0  0  0
  136.0125   77.8195  222.2122 H   0  0  0  0  0  0  0  0  0  0  0  0
  135.4901   74.8076  222.6008 H   0  0  0  0  0  0  0  0  0  0  0  0
  134.6812   75.8414  221.4724 H   0  0  0  0  0  0  0  0  0  0  0  0
  136.7237   74.4228  220.4882 H   0  0  0  0  0  0  0  0  0  0  0  0
  136.8427   76.1210  220.1149 H   0  0  0  0  0  0  0  0  0  0  0  0
  137.9749   73.0459  221.2428 H   0  0  0  0  0  0  0  0  0  0  0  0
  139.6920   72.9735  220.7169 H   0  0  0  0  0  0  0  0  0  0  0  0
  139.8580   72.8790  223.5370 H   0  0  0  0  0  0  0  0  0  0  0  0
  138.4427   68.5536  223.1005 H   0  0  0  0  0  0  0  0  0  0  0  0
  138.9378   67.1156  225.0506 H   0  0  0  0  0  0  0  0  0  0  0  0
  139.8649   66.8875  227.2981 H   0  0  0  0  0  0  0  0  0  0  0  0
  141.5539   70.3092  229.2084 H   0  0  0  0  0  0  0  0  0  0  0  0
  141.0360   71.6918  227.2373 H   0  0  0  0  0  0  0  0  0  0  0  0
  141.1328   77.5739  223.0129 H   0  0  0  0  0  0  0  0  0  0  0  0
  142.5435   78.5712  224.7622 H   0  0  0  0  0  0  0  0  0  0  0  0
  143.2290   80.9418  224.6749 H   0  0  0  0  0  0  0  0  0  0  0  0
  142.4550   82.3542  222.7525 H   0  0  0  0  0  0  0  0  0  0  0  0
  141.0356   81.3626  220.9912 H   0  0  0  0  0  0  0  0  0  0  0  0
  1  2  1  0
  2  3  1  0
  3  4  1  0
  4  5  2  0
  4  6  1  0
  6  7  1  0
  7  8  1  0
  8  9  1  0
  9 10  1  0
 10 11  1  0
 11 12  2  0
 11 13  1  0
 13 14  1  0
 14 15  1  0
 15 16  2  0
 15 17  1  0
 17 18  2  0
 18 19  1  0
 19 20  2  0
 20 21  1  0
 21 22  2  0
 22 23  1  0
 22 24  1  0
 24 25  2  0
 25 26  1  0
 26 27  2  0
  2 28  1  0
 28 29  2  0
 29 30  1  0
 30 31  2  0
 31 32  1  0
 32 33  2  0
 10  6  1  0
 27 17  1  0
 33 28  1  0
 26 20  1  0
  1 34  1  0
  1 35  1  0
  1 36  1  0
  2 37  1  6
  3 38  1  0
  6 39  1  1
  7 40  1  0
  7 41  1  0
  8 42  1  0
  8 43  1  0
  9 44  1  0
  9 45  1  0
 13 46  1  0
 13 47  1  0
 14 48  1  0
 18 49  1  0
 19 50  1  0
 21 51  1  0
 24 52  1  0
 25 53  1  0
 29 54  1  0
 30 55  1  0
 31 56  1  0
 32 57  1  0
 33 58  1  0
M  END
>  <smiles>  (17) 
C[C@H](NC(=O)[C@H]1CCCN1C(=O)CNC(=O)c1ccc2cc(F)ccc2n1)c1ccccc1

>  <score_type>  (17) 
oracle

>  <origin>  (17) 
autodockgpu

>  <m_score__min__energy>  (17) 
-9.4700000000000006

>  <m_primary>  (17) 
energy

>  <rmsd>  (17) 
3.388129291166863

>  <m_score__min__rmsd>  (17) 
3.388129291166863

>  <meeko>  (17) 
{"free_energy": -8.55, "intermolecular_energy": -10.64, "internal_energy": -2.72, "cluster_size": 5, "cluster_id": 4, "rank_in_cluster": 2}

>  <energy>  (17) 
-8.7

>  <cluster_rmsd>  (17) 
1.66

>  <cluster>  (17) 
1

$$$$

     RDKit          3D

 58 61  0  0  0  0  0  0  0  0999 V2000
  142.8890   79.7040  222.7940 C   0  0  0  0  0  0  0  0  0  0  0  0
  141.5900   79.5710  222.0200 C   0  0  2  0  0  0  0  0  0  0  0  0
  141.1110   78.2230  222.2740 N   0  0  0  0  0  0  0  0  0  0  0  0
  139.7280   77.8960  222.3540 C   0  0  0  0  0  0  0  0  0  0  0  0
  138.8180   78.7400  222.2120 O   0  0  0  0  0  0  0  0  0  0  0  0
  139.3940   76.4540  222.6220 C   0  0  1  0  0  0  0  0  0  0  0  0
  137.9360   76.3940  222.9810 C   0  0  0  0  0  0  0  0  0  0  0  0
  137.4280   75.2390  222.1430 C   0  0  0  0  0  0  0  0  0  0  0  0
  138.2670   75.4420  220.8750 C   0  0  0  0  0  0  0  0  0  0  0  0
  139.5890   75.6680  221.4280 N   0  0  0  0  0  0  0  0  0  0  0  0
  140.8580   75.2410  220.9540 C   0  0  0  0  0  0  0  0  0  0  0  0
  141.8270   76.0290  220.8190 O   0  0  0  0  0  0  0  0  0  0  0  0
  140.9900   73.7900  220.6190 C   0  0  0  0  0  0  0  0  0  0  0  0
  141.0000   73.0110  221.8340 N   0  0  0  0  0  0  0  0  0  0  0  0
  139.8030   72.3170  222.1960 C   0  0  0  0  0  0  0  0  0  0  0  0
  138.7660   72.3870  221.4660 O   0  0  0  0  0  0  0  0  0  0  0  0
  139.7910   71.5190  223.4270 C   0  0  0  0  0  0  0  0  0  0  0  0
  139.0830   70.3290  223.4430 C   0  0  0  0  0  0  0  0  0  0  0  0
  139.0230   69.5210  224.5650 C   0  0  0  0  0  0  0  0  0  0  0  0
  139.6880   69.9090  225.7090 C   0  0  0  0  0  0  0  0  0  0  0  0
  139.6600   69.1380  226.8590 C   0  0  0  0  0  0  0  0  0  0  0  0
  140.3300   69.5430  227.9870 C   0  0  0  0  0  0  0  0  0  0  0  0
  140.2760   68.7560  229.0900 F   0  0  0  0  0  0  0  0  0  0  0  0
  141.0240   70.7210  227.9510 C   0  0  0  0  0  0  0  0  0  0  0  0
  141.0580   71.5000  226.8080 C   0  0  0  0  0  0  0  0  0  0  0  0
  140.3910   71.1160  225.6530 C   0  0  0  0  0  0  0  0  0  0  0  0
  140.4230   71.8710  224.5410 N   0  0  0  0  0  0  0  0  0  0  0  0
  141.8000   79.8430  220.5720 C   0  0  0  0  0  0  0  0  0  0  0  0
  141.9850   78.7890  219.6710 C   0  0  0  0  0  0  0  0  0  0  0  0
  142.1800   79.0460  218.3300 C   0  0  0  0  0  0  0  0  0  0  0  0
  142.2010   80.3220  217.8240 C   0  0  0  0  0  0  0  0  0  0  0  0
  142.0190   81.3820  218.7060 C   0  0  0  0  0  0  0  0  0  0  0  0
  141.8220   81.1280  220.0560 C   0  0  0  0  0  0  0  0  0  0  0  0
  142.6767   79.6823  223.8731 H   0  0  0  0  0  0  0  0  0  0  0  0
  143.5573   78.8696  222.5349 H   0  0  0  0  0  0  0  0  0  0  0  0
  143.3743   80.6565  222.5349 H   0  0  0  0  0  0  0  0  0  0  0  0
  140.8411   80.3089  222.3436 H   0  0  0  0  0  0  0  0  0  0  0  0
  141.8390   77.4870  222.3990 H   0  0  0  0  0  0  0  0  0  0  0  0
  140.0359   76.0625  223.4249 H   0  0  0  0  0  0  0  0  0  0  0  0
  137.8007   76.1938  224.0541 H   0  0  0  0  0  0  0  0  0  0  0  0
  137.4026   77.3368  222.7898 H   0  0  0  0  0  0  0  0  0  0  0  0
  137.6338   74.2684  222.6179 H   0  0  0  0  0  0  0  0  0  0  0  0
  136.3399   75.2263  221.9820 H   0  0  0  0  0  0  0  0  0  0  0  0
  138.2481   74.5478  220.2346 H   0  0  0  0  0  0  0  0  0  0  0  0
  137.9086   76.2571  220.2290 H   0  0  0  0  0  0  0  0  0  0  0  0
  140.1405   73.4802  219.9926 H   0  0  0  0  0  0  0  0  0  0  0  0
  141.9302   73.6256  220.0722 H   0  0  0  0  0  0  0  0  0  0  0  0
  141.8180   72.9180  222.4670 H   0  0  0  0  0  0  0  0  0  0  0  0
  138.5503   70.0153  222.5331 H   0  0  0  0  0  0  0  0  0  0  0  0
  138.4520   68.5811  224.5445 H   0  0  0  0  0  0  0  0  0  0  0  0
  139.0964   68.1934  226.8689 H   0  0  0  0  0  0  0  0  0  0  0  0
  141.5656   71.0556  228.8481 H   0  0  0  0  0  0  0  0  0  0  0  0
  141.6250   72.4426  226.8148 H   0  0  0  0  0  0  0  0  0  0  0  0
  141.9749   77.7505  220.0337 H   0  0  0  0  0  0  0  0  0  0  0  0
  142.3236   78.1995  217.6424 H   0  0  0  0  0  0  0  0  0  0  0  0
  142.3576   80.5013  216.7501 H   0  0  0  0  0  0  0  0  0  0  0  0
  142.0312   82.4175  218.3349 H   0  0  0  0  0  0  0  0  0  0  0  0
  141.6783   81.9772  220.7403 H   0  0  0  0  0  0  0  0  0  0  0  0
  1  2  1  0
  2  3  1  0
  3  4  1  0
  4  5  2  0
  4  6  1  0
  6  7  1  0
  7  8  1  0
  8  9  1  0
  9 10  1  0
 10 11  1  0
 11 12  2  0
 11 13  1  0
 13 14  1  0
 14 15  1  0
 15 16  2  0
 15 17  1  0
 17 18  2  0
 18 19  1  0
 19 20  2  0
 20 21  1  0
 21 22  2  0
 22 23  1  0
 22 24  1  0
 24 25  2  0
 25 26  1  0
 26 27  2  0
  2 28  1  0
 28 29  2  0
 29 30  1  0
 30 31  2  0
 31 32  1  0
 32 33  2  0
 10  6  1  0
 27 17  1  0
 33 28  1  0
 26 20  1  0
  1 34  1  0
  1 35  1  0
  1 36  1  0
  2 37  1  1
  3 38  1  0
  6 39  1  1
  7 40  1  0
  7 41  1  0
  8 42  1  0
  8 43  1  0
  9 44  1  0
  9 45  1  0
 13 46  1  0
 13 47  1  0
 14 48  1  0
 18 49  1  0
 19 50  1  0
 21 51  1  0
 24 52  1  0
 25 53  1  0
 29 54  1  0
 30 55  1  0
 31 56  1  0
 32 57  1  0
 33 58  1  0
M  END
>  <smiles>  (18) 
C[C@H](NC(=O)[C@H]1CCCN1C(=O)CNC(=O)c1ccc2cc(F)ccc2n1)c1ccccc1

>  <score_type>  (18) 
oracle

>  <origin>  (18) 
autodockgpu

>  <m_score__min__energy>  (18) 
-9.4700000000000006

>  <m_primary>  (18) 
energy

>  <rmsd>  (18) 
2.916526432736015

>  <m_score__min__rmsd>  (18) 
2.916526432736015

>  <meeko>  (18) 
{"free_energy": -7.92, "intermolecular_energy": -10.0, "internal_energy": -2.96, "cluster_size": 5, "cluster_id": 4, "rank_in_cluster": 5}

>  <energy>  (18) 
-8.68

>  <cluster_rmsd>  (18) 
1.73

>  <cluster>  (18) 
1

$$$$

     RDKit          3D

 58 61  0  0  0  0  0  0  0  0999 V2000
  141.6520   78.2610  219.8030 C   0  0  0  0  0  0  0  0  0  0  0  0
  141.7000   77.9860  221.2950 C   0  0  2  0  0  0  0  0  0  0  0  0
  140.4780   77.2640  221.6070 N   0  0  0  0  0  0  0  0  0  0  0  0
  139.1920   77.6980  221.1760 C   0  0  0  0  0  0  0  0  0  0  0  0
  139.0140   78.7320  220.4960 O   0  0  0  0  0  0  0  0  0  0  0  0
  138.0250   76.8410  221.5790 C   0  0  1  0  0  0  0  0  0  0  0  0
  136.7980   77.4320  220.9440 C   0  0  0  0  0  0  0  0  0  0  0  0
  136.1040   76.2220  220.3550 C   0  0  0  0  0  0  0  0  0  0  0  0
  137.3250   75.4110  219.9020 C   0  0  0  0  0  0  0  0  0  0  0  0
  138.1880   75.5030  221.0640 N   0  0  0  0  0  0  0  0  0  0  0  0
  139.0470   74.5280  221.6380 C   0  0  0  0  0  0  0  0  0  0  0  0
  140.1230   74.8320  222.2110 O   0  0  0  0  0  0  0  0  0  0  0  0
  138.6050   73.1050  221.5300 C   0  0  0  0  0  0  0  0  0  0  0  0
  138.9860   72.3860  222.7230 N   0  0  0  0  0  0  0  0  0  0  0  0
  138.8020   70.9680  222.7400 C   0  0  0  0  0  0  0  0  0  0  0  0
  138.3190   70.3640  221.7320 O   0  0  0  0  0  0  0  0  0  0  0  0
  139.1830   70.2170  223.9420 C   0  0  0  0  0  0  0  0  0  0  0  0
  138.9170   68.8590  223.9920 C   0  0  0  0  0  0  0  0  0  0  0  0
  139.2450   68.0840  225.0910 C   0  0  0  0  0  0  0  0  0  0  0  0
  139.8570   68.6770  226.1740 C   0  0  0  0  0  0  0  0  0  0  0  0
  140.2060   67.9470  227.2980 C   0  0  0  0  0  0  0  0  0  0  0  0
  140.8140   68.5580  228.3660 C   0  0  0  0  0  0  0  0  0  0  0  0
  141.1400   67.8040  229.4460 F   0  0  0  0  0  0  0  0  0  0  0  0
  141.0690   69.9000  228.2980 C   0  0  0  0  0  0  0  0  0  0  0  0
  140.7240   70.6400  227.1800 C   0  0  0  0  0  0  0  0  0  0  0  0
  140.1080   70.0500  226.0850 C   0  0  0  0  0  0  0  0  0  0  0  0
  139.7730   70.7660  224.9990 N   0  0  0  0  0  0  0  0  0  0  0  0
  141.8320   79.2510  222.0670 C   0  0  0  0  0  0  0  0  0  0  0  0
  141.2980   80.4460  221.5710 C   0  0  0  0  0  0  0  0  0  0  0  0
  141.4240   81.6160  222.2900 C   0  0  0  0  0  0  0  0  0  0  0  0
  142.0660   81.6660  223.5020 C   0  0  0  0  0  0  0  0  0  0  0  0
  142.6040   80.4880  224.0110 C   0  0  0  0  0  0  0  0  0  0  0  0
  142.4790   79.3080  223.2900 C   0  0  0  0  0  0  0  0  0  0  0  0
  141.4651   79.3316  219.6333 H   0  0  0  0  0  0  0  0  0  0  0  0
  142.6128   77.9798  219.3472 H   0  0  0  0  0  0  0  0  0  0  0  0
  140.8433   77.6709  219.3472 H   0  0  0  0  0  0  0  0  0  0  0  0
  142.5789   77.3865  221.5746 H   0  0  0  0  0  0  0  0  0  0  0  0
  140.5830   76.3950  222.1730 H   0  0  0  0  0  0  0  0  0  0  0  0
  137.9487   76.8031  222.6757 H   0  0  0  0  0  0  0  0  0  0  0  0
  136.1631   77.9258  221.6944 H   0  0  0  0  0  0  0  0  0  0  0  0
  137.0263   78.2072  220.1977 H   0  0  0  0  0  0  0  0  0  0  0  0
  135.5125   75.6828  221.1095 H   0  0  0  0  0  0  0  0  0  0  0  0
  135.3752   76.4455  219.5619 H   0  0  0  0  0  0  0  0  0  0  0  0
  137.0547   74.3670  219.6851 H   0  0  0  0  0  0  0  0  0  0  0  0
  137.7859   75.7795  218.9737 H   0  0  0  0  0  0  0  0  0  0  0  0
  137.5116   73.0693  221.4149 H   0  0  0  0  0  0  0  0  0  0  0  0
  139.0835   72.6399  220.6555 H   0  0  0  0  0  0  0  0  0  0  0  0
  139.3860   72.8280  223.5750 H   0  0  0  0  0  0  0  0  0  0  0  0
  138.4291   68.3804  223.1301 H   0  0  0  0  0  0  0  0  0  0  0  0
  139.0198   67.0073  225.0998 H   0  0  0  0  0  0  0  0  0  0  0  0
  139.9941   66.8682  227.3351 H   0  0  0  0  0  0  0  0  0  0  0  0
  141.5572   70.4005  229.1472 H   0  0  0  0  0  0  0  0  0  0  0  0
  140.9426   71.7179  227.1590 H   0  0  0  0  0  0  0  0  0  0  0  0
  140.7754   80.4519  220.6031 H   0  0  0  0  0  0  0  0  0  0  0  0
  140.9951   82.5413  221.8778 H   0  0  0  0  0  0  0  0  0  0  0  0
  142.1529   82.6122  224.0563 H   0  0  0  0  0  0  0  0  0  0  0  0
  143.1256   80.4916  224.9795 H   0  0  0  0  0  0  0  0  0  0  0  0
  142.9096   78.3849  223.7054 H   0  0  0  0  0  0  0  0  0  0  0  0
  1  2  1  0
  2  3  1  0
  3  4  1  0
  4  5  2  0
  4  6  1  0
  6  7  1  0
  7  8  1  0
  8  9  1  0
  9 10  1  0
 10 11  1  0
 11 12  2  0
 11 13  1  0
 13 14  1  0
 14 15  1  0
 15 16  2  0
 15 17  1  0
 17 18  2  0
 18 19  1  0
 19 20  2  0
 20 21  1  0
 21 22  2  0
 22 23  1  0
 22 24  1  0
 24 25  2  0
 25 26  1  0
 26 27  2  0
  2 28  1  0
 28 29  2  0
 29 30  1  0
 30 31  2  0
 31 32  1  0
 32 33  2  0
 10  6  1  0
 27 17  1  0
 33 28  1  0
 26 20  1  0
  1 34  1  0
  1 35  1  0
  1 36  1  0
  2 37  1  6
  3 38  1  0
  6 39  1  1
  7 40  1  0
  7 41  1  0
  8 42  1  0
  8 43  1  0
  9 44  1  0
  9 45  1  0
 13 46  1  0
 13 47  1  0
 14 48  1  0
 18 49  1  0
 19 50  1  0
 21 51  1  0
 24 52  1  0
 25 53  1  0
 29 54  1  0
 30 55  1  0
 31 56  1  0
 32 57  1  0
 33 58  1  0
M  END
>  <smiles>  (19) 
C[C@H](NC(=O)[C@H]1CCCN1C(=O)CNC(=O)c1ccc2cc(F)ccc2n1)c1ccccc1

>  <score_type>  (19) 
oracle

>  <origin>  (19) 
autodockgpu

>  <m_score__min__energy>  (19) 
-9.4700000000000006

>  <m_primary>  (19) 
energy

>  <rmsd>  (19) 
2.9086044884945137

>  <m_score__min__rmsd>  (19) 
2.9086044884945137

>  <meeko>  (19) 
{"free_energy": -8.4, "intermolecular_energy": -10.49, "internal_energy": -2.62, "cluster_size": 16, "cluster_id": 2, "rank_in_cluster": 13}

>  <energy>  (19) 
-8.63

>  <cluster_rmsd>  (19) 
1.42

>  <cluster>  (19) 
1

$$$$

     RDKit          3D

 58 61  0  0  0  0  0  0  0  0999 V2000
  138.1850   79.5580  222.2490 C   0  0  0  0  0  0  0  0  0  0  0  0
  139.5210   79.5830  221.5270 C   0  0  2  0  0  0  0  0  0  0  0  0
  139.6960   78.2550  220.9670 N   0  0  0  0  0  0  0  0  0  0  0  0
  140.8070   77.9000  220.1500 C   0  0  0  0  0  0  0  0  0  0  0  0
  141.7170   78.7030  219.8520 O   0  0  0  0  0  0  0  0  0  0  0  0
  140.8440   76.4840  219.6460 C   0  0  1  0  0  0  0  0  0  0  0  0
  142.1070   76.3290  218.8460 C   0  0  0  0  0  0  0  0  0  0  0  0
  142.6780   75.0250  219.3620 C   0  0  0  0  0  0  0  0  0  0  0  0
  142.2900   75.1330  220.8420 C   0  0  0  0  0  0  0  0  0  0  0  0
  140.9080   75.5630  220.7560 N   0  0  0  0  0  0  0  0  0  0  0  0
  139.7910   75.2030  221.5570 C   0  0  0  0  0  0  0  0  0  0  0  0
  139.4000   75.9060  222.5210 O   0  0  0  0  0  0  0  0  0  0  0  0
  139.0940   73.9320  221.1940 C   0  0  0  0  0  0  0  0  0  0  0  0
  139.0410   73.0620  222.3450 N   0  0  0  0  0  0  0  0  0  0  0  0
  140.1620   72.2110  222.5950 C   0  0  0  0  0  0  0  0  0  0  0  0
  141.1730   72.2250  221.8250 O   0  0  0  0  0  0  0  0  0  0  0  0
  140.1300   71.3180  223.7590 C   0  0  0  0  0  0  0  0  0  0  0  0
  139.5680   70.0600  223.6190 C   0  0  0  0  0  0  0  0  0  0  0  0
  139.4990   69.1620  224.6700 C   0  0  0  0  0  0  0  0  0  0  0  0
  140.0060   69.5260  225.9000 C   0  0  0  0  0  0  0  0  0  0  0  0
  139.9620   68.6660  226.9840 C   0  0  0  0  0  0  0  0  0  0  0  0
  140.4720   69.0490  228.2000 C   0  0  0  0  0  0  0  0  0  0  0  0
  140.4090   68.1740  229.2340 F   0  0  0  0  0  0  0  0  0  0  0  0
  141.0230   70.2950  228.3180 C   0  0  0  0  0  0  0  0  0  0  0  0
  141.0720   71.1640  227.2410 C   0  0  0  0  0  0  0  0  0  0  0  0
  140.5640   70.8040  226.0010 C   0  0  0  0  0  0  0  0  0  0  0  0
  140.6100   71.6460  224.9540 N   0  0  0  0  0  0  0  0  0  0  0  0
  140.6210   79.9660  222.4530 C   0  0  0  0  0  0  0  0  0  0  0  0
  141.1440   81.2640  222.4360 C   0  0  0  0  0  0  0  0  0  0  0  0
  142.1650   81.6150  223.2960 C   0  0  0  0  0  0  0  0  0  0  0  0
  142.7060   80.7250  224.1910 C   0  0  0  0  0  0  0  0  0  0  0  0
  142.1980   79.4310  224.2210 C   0  0  0  0  0  0  0  0  0  0  0  0
  141.1720   79.0740  223.3580 C   0  0  0  0  0  0  0  0  0  0  0  0
  138.3554   79.5612  223.3357 H   0  0  0  0  0  0  0  0  0  0  0  0
  137.5992   80.4453  221.9671 H   0  0  0  0  0  0  0  0  0  0  0  0
  137.6328   78.6494  221.9671 H   0  0  0  0  0  0  0  0  0  0  0  0
  139.5433   80.3389  220.7282 H   0  0  0  0  0  0  0  0  0  0  0  0
  138.9570   77.5530  221.1920 H   0  0  0  0  0  0  0  0  0  0  0  0
  139.9448   76.2741  219.0482 H   0  0  0  0  0  0  0  0  0  0  0  0
  141.8883   76.2666  217.7698 H   0  0  0  0  0  0  0  0  0  0  0  0
  142.7972   77.1785  218.9558 H   0  0  0  0  0  0  0  0  0  0  0  0
  142.2095   74.1546  218.8794 H   0  0  0  0  0  0  0  0  0  0  0  0
  143.7523   74.8822  219.1734 H   0  0  0  0  0  0  0  0  0  0  0  0
  142.3762   74.1614  221.3505 H   0  0  0  0  0  0  0  0  0  0  0  0
  142.9323   75.8117  221.4224 H   0  0  0  0  0  0  0  0  0  0  0  0
  138.0710   74.1584  220.8590 H   0  0  0  0  0  0  0  0  0  0  0  0
  139.6450   73.4321  220.3837 H   0  0  0  0  0  0  0  0  0  0  0  0
  138.2410   73.0090  223.0060 H   0  0  0  0  0  0  0  0  0  0  0  0
  139.1629   69.7646  222.6399 H   0  0  0  0  0  0  0  0  0  0  0  0
  139.0454   68.1703  224.5261 H   0  0  0  0  0  0  0  0  0  0  0  0
  139.5148   67.6675  226.8702 H   0  0  0  0  0  0  0  0  0  0  0  0
  141.4352   70.6130  229.2870 H   0  0  0  0  0  0  0  0  0  0  0  0
  141.5224   72.1591  227.3710 H   0  0  0  0  0  0  0  0  0  0  0  0
  140.7395   82.0080  221.7340 H   0  0  0  0  0  0  0  0  0  0  0  0
  142.5584   82.6417  223.2634 H   0  0  0  0  0  0  0  0  0  0  0  0
  143.5198   81.0278  224.8664 H   0  0  0  0  0  0  0  0  0  0  0  0
  142.6080   78.6931  224.9263 H   0  0  0  0  0  0  0  0  0  0  0  0
  140.7823   78.0460  223.3938 H   0  0  0  0  0  0  0  0  0  0  0  0
  1  2  1  0
  2  3  1  0
  3  4  1  0
  4  5  2  0
  4  6  1  0
  6  7  1  0
  7  8  1  0
  8  9  1  0
  9 10  1  0
 10 11  1  0
 11 12  2  0
 11 13  1  0
 13 14  1  0
 14 15  1  0
 15 16  2  0
 15 17  1  0
 17 18  2  0
 18 19  1  0
 19 20  2  0
 20 21  1  0
 21 22  2  0
 22 23  1  0
 22 24  1  0
 24 25  2  0
 25 26  1  0
 26 27  2  0
  2 28  1  0
 28 29  2  0
 29 30  1  0
 30 31  2  0
 31 32  1  0
 32 33  2  0
 10  6  1  0
 27 17  1  0
 33 28  1  0
 26 20  1  0
  1 34  1  0
  1 35  1  0
  1 36  1  0
  2 37  1  6
  3 38  1  0
  6 39  1  6
  7 40  1  0
  7 41  1  0
  8 42  1  0
  8 43  1  0
  9 44  1  0
  9 45  1  0
 13 46  1  0
 13 47  1  0
 14 48  1  0
 18 49  1  0
 19 50  1  0
 21 51  1  0
 24 52  1  0
 25 53  1  0
 29 54  1  0
 30 55  1  0
 31 56  1  0
 32 57  1  0
 33 58  1  0
M  END
>  <smiles>  (20) 
C[C@H](NC(=O)[C@H]1CCCN1C(=O)CNC(=O)c1ccc2cc(F)ccc2n1)c1ccccc1

>  <score_type>  (20) 
oracle

>  <origin>  (20) 
autodockgpu

>  <m_score__min__energy>  (20) 
-9.4700000000000006

>  <m_primary>  (20) 
energy

>  <rmsd>  (20) 
2.915726602243377

>  <m_score__min__rmsd>  (20) 
2.915726602243377

>  <meeko>  (20) 
{"free_energy": -8.77, "intermolecular_energy": -10.86, "internal_energy": -2.72, "cluster_size": 22, "cluster_id": 1, "rank_in_cluster": 12}

>  <energy>  (20) 
-8.56

>  <cluster_rmsd>  (20) 
1.59

>  <cluster>  (20) 
1

$$$$

     RDKit          3D

 58 61  0  0  0  0  0  0  0  0999 V2000
  137.8330   80.2700  223.3090 C   0  0  0  0  0  0  0  0  0  0  0  0
  138.7510   79.3840  222.4860 C   0  0  2  0  0  0  0  0  0  0  0  0
  138.4480   78.0190  222.8820 N   0  0  0  0  0  0  0  0  0  0  0  0
  137.1470   77.4510  222.7660 C   0  0  0  0  0  0  0  0  0  0  0  0
  136.1670   78.0800  222.3140 O   0  0  0  0  0  0  0  0  0  0  0  0
  136.9960   76.0250  223.2180 C   0  0  1  0  0  0  0  0  0  0  0  0
  135.5260   75.7730  223.4090 C   0  0  0  0  0  0  0  0  0  0  0  0
  135.3170   74.4450  222.7120 C   0  0  0  0  0  0  0  0  0  0  0  0
  136.2860   74.6080  221.5340 C   0  0  0  0  0  0  0  0  0  0  0  0
  137.4690   75.1250  222.1940 N   0  0  0  0  0  0  0  0  0  0  0  0
  138.8420   74.8540  221.9450 C   0  0  0  0  0  0  0  0  0  0  0  0
  139.7320   75.7340  222.0500 O   0  0  0  0  0  0  0  0  0  0  0  0
  139.1820   73.4540  221.5470 C   0  0  0  0  0  0  0  0  0  0  0  0
  139.4720   72.6720  222.7260 N   0  0  0  0  0  0  0  0  0  0  0  0
  139.0710   71.2990  222.7350 C   0  0  0  0  0  0  0  0  0  0  0  0
  138.4790   70.7890  221.7340 O   0  0  0  0  0  0  0  0  0  0  0  0
  139.3560   70.4860  223.9230 C   0  0  0  0  0  0  0  0  0  0  0  0
  139.0070   69.1460  223.9120 C   0  0  0  0  0  0  0  0  0  0  0  0
  139.2420   68.3140  224.9930 C   0  0  0  0  0  0  0  0  0  0  0  0
  139.8440   68.8300  226.1200 C   0  0  0  0  0  0  0  0  0  0  0  0
  140.1020   68.0420  227.2290 C   0  0  0  0  0  0  0  0  0  0  0  0
  140.7010   68.5770  228.3430 C   0  0  0  0  0  0  0  0  0  0  0  0
  140.9360   67.7680  229.4050 F   0  0  0  0  0  0  0  0  0  0  0  0
  141.0390   69.9020  228.3340 C   0  0  0  0  0  0  0  0  0  0  0  0
  140.7860   70.7000  227.2310 C   0  0  0  0  0  0  0  0  0  0  0  0
  140.1810   70.1870  226.0930 C   0  0  0  0  0  0  0  0  0  0  0  0
  139.9340   70.9600  225.0210 N   0  0  0  0  0  0  0  0  0  0  0  0
  140.1780   79.7420  222.7050 C   0  0  0  0  0  0  0  0  0  0  0  0
  140.8580   80.5470  221.7850 C   0  0  0  0  0  0  0  0  0  0  0  0
  142.1810   80.8770  221.9920 C   0  0  0  0  0  0  0  0  0  0  0  0
  142.8810   80.4410  223.0900 C   0  0  0  0  0  0  0  0  0  0  0  0
  142.2220   79.6400  224.0150 C   0  0  0  0  0  0  0  0  0  0  0  0
  140.8900   79.3050  223.8100 C   0  0  0  0  0  0  0  0  0  0  0  0
  138.0158   80.0936  224.3793 H   0  0  0  0  0  0  0  0  0  0  0  0
  138.0327   81.3254  223.0720 H   0  0  0  0  0  0  0  0  0  0  0  0
  136.7853   80.0329  223.0720 H   0  0  0  0  0  0  0  0  0  0  0  0
  138.5868   79.5132  221.4060 H   0  0  0  0  0  0  0  0  0  0  0  0
  139.2400   77.4590  223.2650 H   0  0  0  0  0  0  0  0  0  0  0  0
  137.5705   75.8607  224.1415 H   0  0  0  0  0  0  0  0  0  0  0  0
  135.2719   75.7037  224.4770 H   0  0  0  0  0  0  0  0  0  0  0  0
  134.8918   76.5779  223.0092 H   0  0  0  0  0  0  0  0  0  0  0  0
  135.5956   73.5977  223.3557 H   0  0  0  0  0  0  0  0  0  0  0  0
  134.2762   74.2284  222.4296 H   0  0  0  0  0  0  0  0  0  0  0  0
  136.4888   73.6435  221.0456 H   0  0  0  0  0  0  0  0  0  0  0  0
  135.9054   75.2548  220.7297 H   0  0  0  0  0  0  0  0  0  0  0  0
  138.3302   73.0083  221.0124 H   0  0  0  0  0  0  0  0  0  0  0  0
  140.0641   73.4651  220.8899 H   0  0  0  0  0  0  0  0  0  0  0  0
  139.9530   73.0380  223.5710 H   0  0  0  0  0  0  0  0  0  0  0  0
  138.5271   68.7289  223.0144 H   0  0  0  0  0  0  0  0  0  0  0  0
  138.9517   67.2538  224.9529 H   0  0  0  0  0  0  0  0  0  0  0  0
  139.8246   66.9776  227.2176 H   0  0  0  0  0  0  0  0  0  0  0  0
  141.5209   70.3421  229.2195 H   0  0  0  0  0  0  0  0  0  0  0  0
  141.0705   71.7622  227.2577 H   0  0  0  0  0  0  0  0  0  0  0  0
  140.3347   80.9188  220.8917 H   0  0  0  0  0  0  0  0  0  0  0  0
  142.6927   81.5108  221.2527 H   0  0  0  0  0  0  0  0  0  0  0  0
  143.9357   80.7185  223.2337 H   0  0  0  0  0  0  0  0  0  0  0  0
  142.7532   79.2730  224.9056 H   0  0  0  0  0  0  0  0  0  0  0  0
  140.3824   78.6702  224.5512 H   0  0  0  0  0  0  0  0  0  0  0  0
  1  2  1  0
  2  3  1  0
  3  4  1  0
  4  5  2  0
  4  6  1  0
  6  7  1  0
  7  8  1  0
  8  9  1  0
  9 10  1  0
 10 11  1  0
 11 12  2  0
 11 13  1  0
 13 14  1  0
 14 15  1  0
 15 16  2  0
 15 17  1  0
 17 18  2  0
 18 19  1  0
 19 20  2  0
 20 21  1  0
 21 22  2  0
 22 23  1  0
 22 24  1  0
 24 25  2  0
 25 26  1  0
 26 27  2  0
  2 28  1  0
 28 29  2  0
 29 30  1  0
 30 31  2  0
 31 32  1  0
 32 33  2  0
 10  6  1  0
 27 17  1  0
 33 28  1  0
 26 20  1  0
  1 34  1  0
  1 35  1  0
  1 36  1  0
  2 37  1  6
  3 38  1  0
  6 39  1  1
  7 40  1  0
  7 41  1  0
  8 42  1  0
  8 43  1  0
  9 44  1  0
  9 45  1  0
 13 46  1  0
 13 47  1  0
 14 48  1  0
 18 49  1  0
 19 50  1  0
 21 51  1  0
 24 52  1  0
 25 53  1  0
 29 54  1  0
 30 55  1  0
 31 56  1  0
 32 57  1  0
 33 58  1  0
M  END
>  <smiles>  (21) 
C[C@H](NC(=O)[C@H]1CCCN1C(=O)CNC(=O)c1ccc2cc(F)ccc2n1)c1ccccc1

>  <score_type>  (21) 
oracle

>  <origin>  (21) 
autodockgpu

>  <m_score__min__energy>  (21) 
-9.4700000000000006

>  <m_primary>  (21) 
energy

>  <rmsd>  (21) 
3.876573625604503

>  <m_score__min__rmsd>  (21) 
3.876573625604503

>  <meeko>  (21) 
{"free_energy": -8.41, "intermolecular_energy": -10.5, "internal_energy": -2.58, "cluster_size": 5, "cluster_id": 4, "rank_in_cluster": 3}

>  <energy>  (21) 
-8.53

>  <cluster_rmsd>  (21) 
1.68

>  <cluster>  (21) 
1

$$$$

     RDKit          3D

 58 61  0  0  0  0  0  0  0  0999 V2000
  142.3850   79.8230  222.8700 C   0  0  0  0  0  0  0  0  0  0  0  0
  141.3790   78.7760  223.3160 C   0  0  2  0  0  0  0  0  0  0  0  0
  141.4470   77.7130  222.3280 N   0  0  0  0  0  0  0  0  0  0  0  0
  141.0880   77.9010  220.9630 C   0  0  0  0  0  0  0  0  0  0  0  0
  140.6890   78.9940  220.5080 O   0  0  0  0  0  0  0  0  0  0  0  0
  141.2140   76.7020  220.0650 C   0  0  1  0  0  0  0  0  0  0  0  0
  142.6800   76.4780  219.8230 C   0  0  0  0  0  0  0  0  0  0  0  0
  142.8360   74.9880  220.0430 C   0  0  0  0  0  0  0  0  0  0  0  0
  141.8420   74.7830  221.1920 C   0  0  0  0  0  0  0  0  0  0  0  0
  140.6900   75.5300  220.7240 N   0  0  0  0  0  0  0  0  0  0  0  0
  139.3050   75.2370  220.8480 C   0  0  0  0  0  0  0  0  0  0  0  0
  138.4530   76.1190  221.1190 O   0  0  0  0  0  0  0  0  0  0  0  0
  138.9040   73.8140  220.6370 C   0  0  0  0  0  0  0  0  0  0  0  0
  138.9380   73.1080  221.8970 N   0  0  0  0  0  0  0  0  0  0  0  0
  139.8340   72.0010  222.0210 C   0  0  0  0  0  0  0  0  0  0  0  0
  140.5760   71.6530  221.0500 O   0  0  0  0  0  0  0  0  0  0  0  0
  139.8850   71.2700  223.2920 C   0  0  0  0  0  0  0  0  0  0  0  0
  139.3460   69.9960  223.3510 C   0  0  0  0  0  0  0  0  0  0  0  0
  139.3550   69.2440  224.5130 C   0  0  0  0  0  0  0  0  0  0  0  0
  139.9190   69.7750  225.6530 C   0  0  0  0  0  0  0  0  0  0  0  0
  139.9550   69.0650  226.8420 C   0  0  0  0  0  0  0  0  0  0  0  0
  140.5210   69.6130  227.9660 C   0  0  0  0  0  0  0  0  0  0  0  0
  140.5350   68.8820  229.1080 F   0  0  0  0  0  0  0  0  0  0  0  0
  141.0490   70.8720  227.8880 C   0  0  0  0  0  0  0  0  0  0  0  0
  141.0190   71.5920  226.7050 C   0  0  0  0  0  0  0  0  0  0  0  0
  140.4530   71.0630  225.5540 C   0  0  0  0  0  0  0  0  0  0  0  0
  140.4230   71.7600  224.4040 N   0  0  0  0  0  0  0  0  0  0  0  0
  140.0170   79.3610  223.4370 C   0  0  0  0  0  0  0  0  0  0  0  0
  139.8470   80.6850  223.8580 C   0  0  0  0  0  0  0  0  0  0  0  0
  138.5820   81.2240  223.9690 C   0  0  0  0  0  0  0  0  0  0  0  0
  137.4510   80.5020  223.6780 C   0  0  0  0  0  0  0  0  0  0  0  0
  137.6000   79.1850  223.2590 C   0  0  0  0  0  0  0  0  0  0  0  0
  138.8720   78.6390  223.1460 C   0  0  0  0  0  0  0  0  0  0  0  0
  142.8388   80.2953  223.7537 H   0  0  0  0  0  0  0  0  0  0  0  0
  143.1700   79.3437  222.2666 H   0  0  0  0  0  0  0  0  0  0  0  0
  141.8747   80.5882  222.2666 H   0  0  0  0  0  0  0  0  0  0  0  0
  141.6108   78.3824  224.3167 H   0  0  0  0  0  0  0  0  0  0  0  0
  141.7760   76.7820  222.6670 H   0  0  0  0  0  0  0  0  0  0  0  0
  140.6604   76.8734  219.1300 H   0  0  0  0  0  0  0  0  0  0  0  0
  142.9588   76.7577  218.7963 H   0  0  0  0  0  0  0  0  0  0  0  0
  143.3254   77.0833  220.4765 H   0  0  0  0  0  0  0  0  0  0  0  0
  142.5523   74.4116  219.1501 H   0  0  0  0  0  0  0  0  0  0  0  0
  143.8632   74.6559  220.2542 H   0  0  0  0  0  0  0  0  0  0  0  0
  141.6009   73.7184  221.3279 H   0  0  0  0  0  0  0  0  0  0  0  0
  142.2189   75.1125  222.1715 H   0  0  0  0  0  0  0  0  0  0  0  0
  137.8847   73.7783  220.2250 H   0  0  0  0  0  0  0  0  0  0  0  0
  139.6030   73.3384  219.9333 H   0  0  0  0  0  0  0  0  0  0  0  0
  138.3550   73.3490  222.7220 H   0  0  0  0  0  0  0  0  0  0  0  0
  138.8954   69.5670  222.4438 H   0  0  0  0  0  0  0  0  0  0  0  0
  138.9174   68.2349  224.5265 H   0  0  0  0  0  0  0  0  0  0  0  0
  139.5261   68.0530  226.8857 H   0  0  0  0  0  0  0  0  0  0  0  0
  141.5063   71.3216  228.7817 H   0  0  0  0  0  0  0  0  0  0  0  0
  141.4523   72.6027  226.6776 H   0  0  0  0  0  0  0  0  0  0  0  0
  140.7266   81.2989  224.1016 H   0  0  0  0  0  0  0  0  0  0  0  0
  138.4759   82.2671  224.3018 H   0  0  0  0  0  0  0  0  0  0  0  0
  136.4528   80.9541  223.7739 H   0  0  0  0  0  0  0  0  0  0  0  0
  136.7147   78.5782  223.0181 H   0  0  0  0  0  0  0  0  0  0  0  0
  138.9734   77.5954  222.8133 H   0  0  0  0  0  0  0  0  0  0  0  0
  1  2  1  0
  2  3  1  0
  3  4  1  0
  4  5  2  0
  4  6  1  0
  6  7  1  0
  7  8  1  0
  8  9  1  0
  9 10  1  0
 10 11  1  0
 11 12  2  0
 11 13  1  0
 13 14  1  0
 14 15  1  0
 15 16  2  0
 15 17  1  0
 17 18  2  0
 18 19  1  0
 19 20  2  0
 20 21  1  0
 21 22  2  0
 22 23  1  0
 22 24  1  0
 24 25  2  0
 25 26  1  0
 26 27  2  0
  2 28  1  0
 28 29  2  0
 29 30  1  0
 30 31  2  0
 31 32  1  0
 32 33  2  0
 10  6  1  0
 27 17  1  0
 33 28  1  0
 26 20  1  0
  1 34  1  0
  1 35  1  0
  1 36  1  0
  2 37  1  1
  3 38  1  0
  6 39  1  6
  7 40  1  0
  7 41  1  0
  8 42  1  0
  8 43  1  0
  9 44  1  0
  9 45  1  0
 13 46  1  0
 13 47  1  0
 14 48  1  0
 18 49  1  0
 19 50  1  0
 21 51  1  0
 24 52  1  0
 25 53  1  0
 29 54  1  0
 30 55  1  0
 31 56  1  0
 32 57  1  0
 33 58  1  0
M  END
>  <smiles>  (22) 
C[C@H](NC(=O)[C@H]1CCCN1C(=O)CNC(=O)c1ccc2cc(F)ccc2n1)c1ccccc1

>  <score_type>  (22) 
oracle

>  <origin>  (22) 
autodockgpu

>  <m_score__min__energy>  (22) 
-9.4700000000000006

>  <m_primary>  (22) 
energy

>  <rmsd>  (22) 
2.3824530863591975

>  <m_score__min__rmsd>  (22) 
2.3824530863591975

>  <meeko>  (22) 
{"free_energy": -8.8, "intermolecular_energy": -10.88, "internal_energy": -2.13, "cluster_size": 16, "cluster_id": 2, "rank_in_cluster": 10}

>  <energy>  (22) 
-8.49

>  <cluster_rmsd>  (22) 
1.62

>  <cluster>  (22) 
1

$$$$

     RDKit          3D

 58 61  0  0  0  0  0  0  0  0999 V2000
  138.7830   80.8700  221.3480 C   0  0  0  0  0  0  0  0  0  0  0  0
  139.9190   79.8700  221.2210 C   0  0  2  0  0  0  0  0  0  0  0  0
  139.3380   78.5690  221.5020 N   0  0  0  0  0  0  0  0  0  0  0  0
  138.6830   78.2630  222.7290 C   0  0  0  0  0  0  0  0  0  0  0  0
  138.5570   79.0890  223.6580 O   0  0  0  0  0  0  0  0  0  0  0  0
  138.1330   76.8710  222.8660 C   0  0  1  0  0  0  0  0  0  0  0  0
  136.6440   76.9940  223.0290 C   0  0  0  0  0  0  0  0  0  0  0  0
  136.1110   75.9540  222.0670 C   0  0  0  0  0  0  0  0  0  0  0  0
  137.1330   76.0930  220.9320 C   0  0  0  0  0  0  0  0  0  0  0  0
  138.3850   76.1150  221.6630 N   0  0  0  0  0  0  0  0  0  0  0  0
  139.6420   75.5390  221.3320 C   0  0  0  0  0  0  0  0  0  0  0  0
  140.7090   76.2020  221.3380 O   0  0  0  0  0  0  0  0  0  0  0  0
  139.6360   74.0890  220.9740 C   0  0  0  0  0  0  0  0  0  0  0  0
  139.4550   73.2950  222.1670 N   0  0  0  0  0  0  0  0  0  0  0  0
  140.4050   72.2590  222.4330 C   0  0  0  0  0  0  0  0  0  0  0  0
  141.3770   72.0490  221.6420 O   0  0  0  0  0  0  0  0  0  0  0  0
  140.2410   71.4400  223.6390 C   0  0  0  0  0  0  0  0  0  0  0  0
  139.5900   70.2220  223.5350 C   0  0  0  0  0  0  0  0  0  0  0  0
  139.3960   69.3940  224.6270 C   0  0  0  0  0  0  0  0  0  0  0  0
  139.8640   69.7880  225.8620 C   0  0  0  0  0  0  0  0  0  0  0  0
  139.6970   68.9980  226.9860 C   0  0  0  0  0  0  0  0  0  0  0  0
  140.1710   69.4100  228.2070 C   0  0  0  0  0  0  0  0  0  0  0  0
  139.9850   68.6030  229.2810 F   0  0  0  0  0  0  0  0  0  0  0  0
  140.8120   70.6160  228.2890 C   0  0  0  0  0  0  0  0  0  0  0  0
  140.9850   71.4150  227.1730 C   0  0  0  0  0  0  0  0  0  0  0  0
  140.5160   71.0240  225.9260 C   0  0  0  0  0  0  0  0  0  0  0  0
  140.6830   71.7980  224.8400 N   0  0  0  0  0  0  0  0  0  0  0  0
  141.0370   80.2120  222.1430 C   0  0  0  0  0  0  0  0  0  0  0  0
  140.9230   81.2890  223.0280 C   0  0  0  0  0  0  0  0  0  0  0  0
  141.9610   81.6030  223.8810 C   0  0  0  0  0  0  0  0  0  0  0  0
  143.1330   80.8870  223.9020 C   0  0  0  0  0  0  0  0  0  0  0  0
  143.2630   79.8120  223.0280 C   0  0  0  0  0  0  0  0  0  0  0  0
  142.2210   79.4940  222.1690 C   0  0  0  0  0  0  0  0  0  0  0  0
  138.5739   81.0541  222.4121 H   0  0  0  0  0  0  0  0  0  0  0  0
  139.0696   81.8142  220.8619 H   0  0  0  0  0  0  0  0  0  0  0  0
  137.8827   80.4659  220.8619 H   0  0  0  0  0  0  0  0  0  0  0  0
  140.3646   79.8787  220.2153 H   0  0  0  0  0  0  0  0  0  0  0  0
  139.4220   77.8500  220.7510 H   0  0  0  0  0  0  0  0  0  0  0  0
  138.6044   76.3641  223.7209 H   0  0  0  0  0  0  0  0  0  0  0  0
  136.3393   76.7705  224.0620 H   0  0  0  0  0  0  0  0  0  0  0  0
  136.2672   78.0072  222.8256 H   0  0  0  0  0  0  0  0  0  0  0  0
  136.1242   74.9460  222.5071 H   0  0  0  0  0  0  0  0  0  0  0  0
  135.0624   76.0951  221.7662 H   0  0  0  0  0  0  0  0  0  0  0  0
  137.0860   75.2365  220.2433 H   0  0  0  0  0  0  0  0  0  0  0  0
  136.9736   76.9747  220.2939 H   0  0  0  0  0  0  0  0  0  0  0  0
  138.8125   73.8887  220.2727 H   0  0  0  0  0  0  0  0  0  0  0  0
  140.5943   73.8257  220.5024 H   0  0  0  0  0  0  0  0  0  0  0  0
  138.6810   73.4220  222.8470 H   0  0  0  0  0  0  0  0  0  0  0  0
  139.2146   69.9020  222.5518 H   0  0  0  0  0  0  0  0  0  0  0  0
  138.8743   68.4326  224.5105 H   0  0  0  0  0  0  0  0  0  0  0  0
  139.1797   68.0310  226.9004 H   0  0  0  0  0  0  0  0  0  0  0  0
  141.1973   70.9569  229.2613 H   0  0  0  0  0  0  0  0  0  0  0  0
  141.5044   72.3792  227.2756 H   0  0  0  0  0  0  0  0  0  0  0  0
  140.0011   81.8888  223.0441 H   0  0  0  0  0  0  0  0  0  0  0  0
  141.8461   82.4551  224.5671 H   0  0  0  0  0  0  0  0  0  0  0  0
  143.9470   81.1562  224.5912 H   0  0  0  0  0  0  0  0  0  0  0  0
  144.1880   79.2169  223.0182 H   0  0  0  0  0  0  0  0  0  0  0  0
  142.3394   78.6413  221.4843 H   0  0  0  0  0  0  0  0  0  0  0  0
  1  2  1  0
  2  3  1  0
  3  4  1  0
  4  5  2  0
  4  6  1  0
  6  7  1  0
  7  8  1  0
  8  9  1  0
  9 10  1  0
 10 11  1  0
 11 12  2  0
 11 13  1  0
 13 14  1  0
 14 15  1  0
 15 16  2  0
 15 17  1  0
 17 18  2  0
 18 19  1  0
 19 20  2  0
 20 21  1  0
 21 22  2  0
 22 23  1  0
 22 24  1  0
 24 25  2  0
 25 26  1  0
 26 27  2  0
  2 28  1  0
 28 29  2  0
 29 30  1  0
 30 31  2  0
 31 32  1  0
 32 33  2  0
 10  6  1  0
 27 17  1  0
 33 28  1  0
 26 20  1  0
  1 34  1  0
  1 35  1  0
  1 36  1  0
  2 37  1  6
  3 38  1  0
  6 39  1  1
  7 40  1  0
  7 41  1  0
  8 42  1  0
  8 43  1  0
  9 44  1  0
  9 45  1  0
 13 46  1  0
 13 47  1  0
 14 48  1  0
 18 49  1  0
 19 50  1  0
 21 51  1  0
 24 52  1  0
 25 53  1  0
 29 54  1  0
 30 55  1  0
 31 56  1  0
 32 57  1  0
 33 58  1  0
M  END
>  <smiles>  (23) 
C[C@H](NC(=O)[C@H]1CCCN1C(=O)CNC(=O)c1ccc2cc(F)ccc2n1)c1ccccc1

>  <score_type>  (23) 
oracle

>  <origin>  (23) 
autodockgpu

>  <m_score__min__energy>  (23) 
-9.4700000000000006

>  <m_primary>  (23) 
energy

>  <rmsd>  (23) 
3.3932799438949446

>  <m_score__min__rmsd>  (23) 
3.3932799438949446

>  <meeko>  (23) 
{"free_energy": -8.59, "intermolecular_energy": -10.68, "internal_energy": -2.51, "cluster_size": 5, "cluster_id": 4, "rank_in_cluster": 1}

>  <energy>  (23) 
-9.31

>  <cluster_rmsd>  (23) 
0.0

>  <cluster>  (23) 
2

$$$$

     RDKit          3D

 58 61  0  0  0  0  0  0  0  0999 V2000
  140.9200   79.0270  219.8460 C   0  0  0  0  0  0  0  0  0  0  0  0
  141.8090   78.5870  220.9950 C   0  0  2  0  0  0  0  0  0  0  0  0
  141.2300   77.3530  221.4970 N   0  0  0  0  0  0  0  0  0  0  0  0
  139.8610   77.2380  221.8730 C   0  0  0  0  0  0  0  0  0  0  0  0
  139.0530   78.1870  221.7990 O   0  0  0  0  0  0  0  0  0  0  0  0
  139.4140   75.8930  222.3730 C   0  0  1  0  0  0  0  0  0  0  0  0
  137.9390   75.9870  222.6460 C   0  0  0  0  0  0  0  0  0  0  0  0
  137.3930   74.7310  221.9990 C   0  0  0  0  0  0  0  0  0  0  0  0
  138.3060   74.6480  220.7690 C   0  0  0  0  0  0  0  0  0  0  0  0
  139.6120   74.8910  221.3530 N   0  0  0  0  0  0  0  0  0  0  0  0
  140.8700   74.3080  221.0420 C   0  0  0  0  0  0  0  0  0  0  0  0
  141.9340   74.9750  221.0250 O   0  0  0  0  0  0  0  0  0  0  0  0
  140.8680   72.8460  220.7340 C   0  0  0  0  0  0  0  0  0  0  0  0
  140.9120   72.0910  221.9650 N   0  0  0  0  0  0  0  0  0  0  0  0
  139.6780   71.5970  222.4920 C   0  0  0  0  0  0  0  0  0  0  0  0
  138.5800   71.8170  221.8920 O   0  0  0  0  0  0  0  0  0  0  0  0
  139.6980   70.8270  223.7410 C   0  0  0  0  0  0  0  0  0  0  0  0
  138.9730   69.6490  223.8100 C   0  0  0  0  0  0  0  0  0  0  0  0
  138.9420   68.8680  224.9530 C   0  0  0  0  0  0  0  0  0  0  0  0
  139.6540   69.2710  226.0620 C   0  0  0  0  0  0  0  0  0  0  0  0
  139.6570   68.5270  227.2300 C   0  0  0  0  0  0  0  0  0  0  0  0
  140.3740   68.9470  228.3230 C   0  0  0  0  0  0  0  0  0  0  0  0
  140.3480   68.1870  229.4460 F   0  0  0  0  0  0  0  0  0  0  0  0
  141.0840   70.1130  228.2350 C   0  0  0  0  0  0  0  0  0  0  0  0
  141.0880   70.8650  227.0730 C   0  0  0  0  0  0  0  0  0  0  0  0
  140.3730   70.4660  225.9530 C   0  0  0  0  0  0  0  0  0  0  0  0
  140.3760   71.1940  224.8230 N   0  0  0  0  0  0  0  0  0  0  0  0
  141.8990   79.6450  222.0370 C   0  0  0  0  0  0  0  0  0  0  0  0
  142.9510   79.6460  222.9600 C   0  0  0  0  0  0  0  0  0  0  0  0
  143.0300   80.6290  223.9240 C   0  0  0  0  0  0  0  0  0  0  0  0
  142.1000   81.6340  224.0240 C   0  0  0  0  0  0  0  0  0  0  0  0
  141.0470   81.6480  223.1150 C   0  0  0  0  0  0  0  0  0  0  0  0
  140.9640   80.6610  222.1430 C   0  0  0  0  0  0  0  0  0  0  0  0
  140.0017   79.4815  220.2462 H   0  0  0  0  0  0  0  0  0  0  0  0
  141.4554   79.7641  219.2296 H   0  0  0  0  0  0  0  0  0  0  0  0
  140.6586   78.1542  219.2296 H   0  0  0  0  0  0  0  0  0  0  0  0
  142.8462   78.4169  220.6705 H   0  0  0  0  0  0  0  0  0  0  0  0
  141.8720   76.5340  221.5740 H   0  0  0  0  0  0  0  0  0  0  0  0
  139.9865   75.6173  223.2709 H   0  0  0  0  0  0  0  0  0  0  0  0
  137.7366   75.9950  223.7272 H   0  0  0  0  0  0  0  0  0  0  0  0
  137.4835   76.9092  222.2560 H   0  0  0  0  0  0  0  0  0  0  0  0
  137.5063   73.8529  222.6518 H   0  0  0  0  0  0  0  0  0  0  0  0
  136.3160   74.7546  221.7764 H   0  0  0  0  0  0  0  0  0  0  0  0
  138.2558   73.6547  220.2990 H   0  0  0  0  0  0  0  0  0  0  0  0
  138.0384   75.3515  219.9668 H   0  0  0  0  0  0  0  0  0  0  0  0
  139.9528   72.5899  220.1800 H   0  0  0  0  0  0  0  0  0  0  0  0
  141.7492   72.6003  220.1232 H   0  0  0  0  0  0  0  0  0  0  0  0
  141.7790   71.8820  222.4960 H   0  0  0  0  0  0  0  0  0  0  0  0
  138.4029   69.3230  222.9276 H   0  0  0  0  0  0  0  0  0  0  0  0
  138.3562   67.9372  224.9755 H   0  0  0  0  0  0  0  0  0  0  0  0
  139.0802   67.5918  227.2825 H   0  0  0  0  0  0  0  0  0  0  0  0
  141.6626   70.4594  229.1040 H   0  0  0  0  0  0  0  0  0  0  0  0
  141.6698   71.7978  227.0368 H   0  0  0  0  0  0  0  0  0  0  0  0
  143.7184   78.8591  222.9164 H   0  0  0  0  0  0  0  0  0  0  0  0
  143.8670   80.6071  224.6374 H   0  0  0  0  0  0  0  0  0  0  0  0
  142.1852   82.4072  224.8018 H   0  0  0  0  0  0  0  0  0  0  0  0
  140.2834   82.4381  223.1665 H   0  0  0  0  0  0  0  0  0  0  0  0
  140.1256   80.6866  221.4314 H   0  0  0  0  0  0  0  0  0  0  0  0
  1  2  1  0
  2  3  1  0
  3  4  1  0
  4  5  2  0
  4  6  1  0
  6  7  1  0
  7  8  1  0
  8  9  1  0
  9 10  1  0
 10 11  1  0
 11 12  2  0
 11 13  1  0
 13 14  1  0
 14 15  1  0
 15 16  2  0
 15 17  1  0
 17 18  2  0
 18 19  1  0
 19 20  2  0
 20 21  1  0
 21 22  2  0
 22 23  1  0
 22 24  1  0
 24 25  2  0
 25 26  1  0
 26 27  2  0
  2 28  1  0
 28 29  2  0
 29 30  1  0
 30 31  2  0
 31 32  1  0
 32 33  2  0
 10  6  1  0
 27 17  1  0
 33 28  1  0
 26 20  1  0
  1 34  1  0
  1 35  1  0
  1 36  1  0
  2 37  1  6
  3 38  1  0
  6 39  1  1
  7 40  1  0
  7 41  1  0
  8 42  1  0
  8 43  1  0
  9 44  1  0
  9 45  1  0
 13 46  1  0
 13 47  1  0
 14 48  1  0
 18 49  1  0
 19 50  1  0
 21 51  1  0
 24 52  1  0
 25 53  1  0
 29 54  1  0
 30 55  1  0
 31 56  1  0
 32 57  1  0
 33 58  1  0
M  END
>  <smiles>  (24) 
C[C@H](NC(=O)[C@H]1CCCN1C(=O)CNC(=O)c1ccc2cc(F)ccc2n1)c1ccccc1

>  <score_type>  (24) 
oracle

>  <origin>  (24) 
autodockgpu

>  <m_score__min__energy>  (24) 
-9.4700000000000006

>  <m_primary>  (24) 
energy

>  <rmsd>  (24) 
3.0966589379535114

>  <m_score__min__rmsd>  (24) 
3.0966589379535114

>  <meeko>  (24) 
{"free_energy": -8.77, "intermolecular_energy": -10.86, "internal_energy": -2.65, "cluster_size": 22, "cluster_id": 1, "rank_in_cluster": 13}

>  <energy>  (24) 
-9.31

>  <cluster_rmsd>  (24) 
0.3

>  <cluster>  (24) 
2

$$$$

     RDKit          3D

 58 61  0  0  0  0  0  0  0  0999 V2000
  140.5460   71.9580  223.3650 C   0  0  0  0  0  0  0  0  0  0  0  0
  139.8560   70.8110  224.0840 C   0  0  2  0  0  0  0  0  0  0  0  0
  138.4400   70.9550  223.7940 N   0  0  0  0  0  0  0  0  0  0  0  0
  137.6670   69.9260  223.1850 C   0  0  0  0  0  0  0  0  0  0  0  0
  138.1450   68.8200  222.8530 O   0  0  0  0  0  0  0  0  0  0  0  0
  136.2130   70.2280  222.9520 C   0  0  1  0  0  0  0  0  0  0  0  0
  135.4320   69.0130  223.3700 C   0  0  0  0  0  0  0  0  0  0  0  0
  134.3140   69.6000  224.2060 C   0  0  0  0  0  0  0  0  0  0  0  0
  135.0680   70.7440  224.8940 C   0  0  0  0  0  0  0  0  0  0  0  0
  135.7940   71.3300  223.7840 N   0  0  0  0  0  0  0  0  0  0  0  0
  136.0780   72.6940  223.5010 C   0  0  0  0  0  0  0  0  0  0  0  0
  135.7610   73.6230  224.2850 O   0  0  0  0  0  0  0  0  0  0  0  0
  136.7800   72.9750  222.2130 C   0  0  0  0  0  0  0  0  0  0  0  0
  137.5720   74.1760  222.3440 N   0  0  0  0  0  0  0  0  0  0  0  0
  138.6710   74.3560  221.4480 C   0  0  0  0  0  0  0  0  0  0  0  0
  138.9380   73.4830  220.5640 O   0  0  0  0  0  0  0  0  0  0  0  0
  139.4900   75.5680  221.5630 C   0  0  0  0  0  0  0  0  0  0  0  0
  140.6280   75.6810  220.7830 C   0  0  0  0  0  0  0  0  0  0  0  0
  141.4510   76.7930  220.8350 C   0  0  0  0  0  0  0  0  0  0  0  0
  141.1320   77.8260  221.6900 C   0  0  0  0  0  0  0  0  0  0  0  0
  141.9210   78.9600  221.7820 C   0  0  0  0  0  0  0  0  0  0  0  0
  141.5840   79.9770  222.6410 C   0  0  0  0  0  0  0  0  0  0  0  0
  142.3850   81.0700  222.6970 F   0  0  0  0  0  0  0  0  0  0  0  0
  140.4560   79.8470  223.4030 C   0  0  0  0  0  0  0  0  0  0  0  0
  139.6600   78.7180  223.3200 C   0  0  0  0  0  0  0  0  0  0  0  0
  139.9750   77.6740  222.4610 C   0  0  0  0  0  0  0  0  0  0  0  0
  139.2030   76.5760  222.3800 N   0  0  0  0  0  0  0  0  0  0  0  0
  140.1510   70.8400  225.5420 C   0  0  0  0  0  0  0  0  0  0  0  0
  139.7390   69.7900  226.3710 C   0  0  0  0  0  0  0  0  0  0  0  0
  140.0140   69.8210  227.7220 C   0  0  0  0  0  0  0  0  0  0  0  0
  140.6910   70.8630  228.3080 C   0  0  0  0  0  0  0  0  0  0  0  0
  141.1070   71.9150  227.5000 C   0  0  0  0  0  0  0  0  0  0  0  0
  140.8320   71.8870  226.1390 C   0  0  0  0  0  0  0  0  0  0  0  0
  140.9655   72.6553  224.1051 H   0  0  0  0  0  0  0  0  0  0  0  0
  141.3556   71.5616  222.7347 H   0  0  0  0  0  0  0  0  0  0  0  0
  139.8164   72.4875  222.7347 H   0  0  0  0  0  0  0  0  0  0  0  0
  140.2178   69.8310  223.7395 H   0  0  0  0  0  0  0  0  0  0  0  0
  138.0010   71.8640  224.0560 H   0  0  0  0  0  0  0  0  0  0  0  0
  136.0481   70.4847  221.8952 H   0  0  0  0  0  0  0  0  0  0  0  0
  135.0332   68.4787  222.4951 H   0  0  0  0  0  0  0  0  0  0  0  0
  136.0380   68.2731  223.9134 H   0  0  0  0  0  0  0  0  0  0  0  0
  133.4892   69.9726  223.5808 H   0  0  0  0  0  0  0  0  0  0  0  0
  133.8252   68.8903  224.8896 H   0  0  0  0  0  0  0  0  0  0  0  0
  134.3731   71.4677  225.3449 H   0  0  0  0  0  0  0  0  0  0  0  0
  135.7112   70.4178  225.7246 H   0  0  0  0  0  0  0  0  0  0  0  0
  137.4368   72.1290  221.9621 H   0  0  0  0  0  0  0  0  0  0  0  0
  136.0362   73.1136  221.4146 H   0  0  0  0  0  0  0  0  0  0  0  0
  137.3990   74.9210  223.0470 H   0  0  0  0  0  0  0  0  0  0  0  0
  140.8871   74.8596  220.0988 H   0  0  0  0  0  0  0  0  0  0  0  0
  142.3485   76.8515  220.2017 H   0  0  0  0  0  0  0  0  0  0  0  0
  142.8253   79.0470  221.1618 H   0  0  0  0  0  0  0  0  0  0  0  0
  140.1761   80.6550  224.0949 H   0  0  0  0  0  0  0  0  0  0  0  0
  138.7594   78.6464  223.9475 H   0  0  0  0  0  0  0  0  0  0  0  0
  139.1934   68.9362  225.9428 H   0  0  0  0  0  0  0  0  0  0  0  0
  139.6801   68.9832  228.3517 H   0  0  0  0  0  0  0  0  0  0  0  0
  140.8984   70.8648  229.3883 H   0  0  0  0  0  0  0  0  0  0  0  0
  141.6513   72.7654  227.9365 H   0  0  0  0  0  0  0  0  0  0  0  0
  141.1674   72.7270  225.5129 H   0  0  0  0  0  0  0  0  0  0  0  0
  1  2  1  0
  2  3  1  0
  3  4  1  0
  4  5  2  0
  4  6  1  0
  6  7  1  0
  7  8  1  0
  8  9  1  0
  9 10  1  0
 10 11  1  0
 11 12  2  0
 11 13  1  0
 13 14  1  0
 14 15  1  0
 15 16  2  0
 15 17  1  0
 17 18  2  0
 18 19  1  0
 19 20  2  0
 20 21  1  0
 21 22  2  0
 22 23  1  0
 22 24  1  0
 24 25  2  0
 25 26  1  0
 26 27  2  0
  2 28  1  0
 28 29  2  0
 29 30  1  0
 30 31  2  0
 31 32  1  0
 32 33  2  0
 10  6  1  0
 27 17  1  0
 33 28  1  0
 26 20  1  0
  1 34  1  0
  1 35  1  0
  1 36  1  0
  2 37  1  6
  3 38  1  0
  6 39  1  6
  7 40  1  0
  7 41  1  0
  8 42  1  0
  8 43  1  0
  9 44  1  0
  9 45  1  0
 13 46  1  0
 13 47  1  0
 14 48  1  0
 18 49  1  0
 19 50  1  0
 21 51  1  0
 24 52  1  0
 25 53  1  0
 29 54  1  0
 30 55  1  0
 31 56  1  0
 32 57  1  0
 33 58  1  0
M  END
>  <smiles>  (25) 
C[C@H](NC(=O)[C@H]1CCCN1C(=O)CNC(=O)c1ccc2cc(F)ccc2n1)c1ccccc1

>  <score_type>  (25) 
oracle

>  <origin>  (25) 
autodockgpu

>  <m_score__min__energy>  (25) 
-9.4700000000000006

>  <m_primary>  (25) 
energy

>  <rmsd>  (25) 
9.373318867887797

>  <m_score__min__rmsd>  (25) 
9.373318867887797

>  <meeko>  (25) 
{"free_energy": -7.94, "intermolecular_energy": -10.03, "internal_energy": -2.72, "cluster_size": 5, "cluster_id": 5, "rank_in_cluster": 4}

>  <energy>  (25) 
-9.3

>  <cluster_rmsd>  (25) 
0.16

>  <cluster>  (25) 
2

$$$$

     RDKit          3D

 58 61  0  0  0  0  0  0  0  0999 V2000
  138.1900   79.0340  222.7130 C   0  0  0  0  0  0  0  0  0  0  0  0
  139.3480   79.2930  221.7660 C   0  0  2  0  0  0  0  0  0  0  0  0
  139.6200   78.0250  221.1120 N   0  0  0  0  0  0  0  0  0  0  0  0
  140.6350   77.8650  220.1260 C   0  0  0  0  0  0  0  0  0  0  0  0
  141.3690   78.8010  219.7460 O   0  0  0  0  0  0  0  0  0  0  0  0
  140.7930   76.4880  219.5440 C   0  0  1  0  0  0  0  0  0  0  0  0
  141.9040   76.5560  218.5340 C   0  0  0  0  0  0  0  0  0  0  0  0
  142.7440   75.3410  218.8710 C   0  0  0  0  0  0  0  0  0  0  0  0
  142.6110   75.3430  220.3990 C   0  0  0  0  0  0  0  0  0  0  0  0
  141.1870   75.5550  220.5720 N   0  0  0  0  0  0  0  0  0  0  0  0
  140.2940   75.0010  221.5290 C   0  0  0  0  0  0  0  0  0  0  0  0
  139.8990   75.6440  222.5330 O   0  0  0  0  0  0  0  0  0  0  0  0
  139.8420   73.5980  221.2830 C   0  0  0  0  0  0  0  0  0  0  0  0
  139.8390   72.8640  222.5260 N   0  0  0  0  0  0  0  0  0  0  0  0
  139.8880   71.4360  222.4630 C   0  0  0  0  0  0  0  0  0  0  0  0
  139.9330   70.8370  221.3430 O   0  0  0  0  0  0  0  0  0  0  0  0
  139.8860   70.6700  223.7140 C   0  0  0  0  0  0  0  0  0  0  0  0
  139.2760   69.4270  223.7330 C   0  0  0  0  0  0  0  0  0  0  0  0
  139.2320   68.6450  224.8750 C   0  0  0  0  0  0  0  0  0  0  0  0
  139.8140   69.1130  226.0330 C   0  0  0  0  0  0  0  0  0  0  0  0
  139.7980   68.3710  227.2020 C   0  0  0  0  0  0  0  0  0  0  0  0
  140.3840   68.8560  228.3450 C   0  0  0  0  0  0  0  0  0  0  0  0
  140.3460   68.0950  229.4670 F   0  0  0  0  0  0  0  0  0  0  0  0
  140.9810   70.0860  228.3060 C   0  0  0  0  0  0  0  0  0  0  0  0
  141.0030   70.8370  227.1430 C   0  0  0  0  0  0  0  0  0  0  0  0
  140.4190   70.3720  225.9730 C   0  0  0  0  0  0  0  0  0  0  0  0
  140.4390   71.0990  224.8430 N   0  0  0  0  0  0  0  0  0  0  0  0
  140.5290   79.8270  222.4980 C   0  0  0  0  0  0  0  0  0  0  0  0
  140.7480   81.2060  222.5830 C   0  0  0  0  0  0  0  0  0  0  0  0
  141.8430   81.6970  223.2640 C   0  0  0  0  0  0  0  0  0  0  0  0
  142.7530   80.8720  223.8770 C   0  0  0  0  0  0  0  0  0  0  0  0
  142.5510   79.4980  223.8030 C   0  0  0  0  0  0  0  0  0  0  0  0
  141.4500   79.0010  223.1190 C   0  0  0  0  0  0  0  0  0  0  0  0
  138.5416   79.1126  223.7523 H   0  0  0  0  0  0  0  0  0  0  0  0
  137.3986   79.7773  222.5364 H   0  0  0  0  0  0  0  0  0  0  0  0
  137.7907   78.0244  222.5364 H   0  0  0  0  0  0  0  0  0  0  0  0
  139.1033   80.0623  221.0188 H   0  0  0  0  0  0  0  0  0  0  0  0
  139.0280   77.2160  221.4010 H   0  0  0  0  0  0  0  0  0  0  0  0
  139.8436   76.1586  219.0966 H   0  0  0  0  0  0  0  0  0  0  0  0
  141.5108   76.4930  217.5086 H   0  0  0  0  0  0  0  0  0  0  0  0
  142.4692   77.4989  218.5734 H   0  0  0  0  0  0  0  0  0  0  0  0
  142.3318   74.4232  218.4263 H   0  0  0  0  0  0  0  0  0  0  0  0
  143.7773   75.3726  218.4952 H   0  0  0  0  0  0  0  0  0  0  0  0
  142.9282   74.3820  220.8300 H   0  0  0  0  0  0  0  0  0  0  0  0
  143.2377   76.0955  220.8999 H   0  0  0  0  0  0  0  0  0  0  0  0
  138.8256   73.6095  220.8625 H   0  0  0  0  0  0  0  0  0  0  0  0
  140.5289   73.1124  220.5743 H   0  0  0  0  0  0  0  0  0  0  0  0
  139.8030   73.3010  223.4680 H   0  0  0  0  0  0  0  0  0  0  0  0
  138.8112   69.0484  222.8107 H   0  0  0  0  0  0  0  0  0  0  0  0
  138.7384   67.6621  224.8579 H   0  0  0  0  0  0  0  0  0  0  0  0
  139.3116   67.3845  227.2150 H   0  0  0  0  0  0  0  0  0  0  0  0
  141.4525   70.4861  229.2157 H   0  0  0  0  0  0  0  0  0  0  0  0
  141.4931   71.8218  227.1464 H   0  0  0  0  0  0  0  0  0  0  0  0
  140.0437   81.9025  222.1045 H   0  0  0  0  0  0  0  0  0  0  0  0
  141.9917   82.7856  223.3175 H   0  0  0  0  0  0  0  0  0  0  0  0
  143.6195   81.2869  224.4128 H   0  0  0  0  0  0  0  0  0  0  0  0
  143.2602   78.8084  224.2841 H   0  0  0  0  0  0  0  0  0  0  0  0
  141.3042   77.9119  223.0687 H   0  0  0  0  0  0  0  0  0  0  0  0
  1  2  1  0
  2  3  1  0
  3  4  1  0
  4  5  2  0
  4  6  1  0
  6  7  1  0
  7  8  1  0
  8  9  1  0
  9 10  1  0
 10 11  1  0
 11 12  2  0
 11 13  1  0
 13 14  1  0
 14 15  1  0
 15 16  2  0
 15 17  1  0
 17 18  2  0
 18 19  1  0
 19 20  2  0
 20 21  1  0
 21 22  2  0
 22 23  1  0
 22 24  1  0
 24 25  2  0
 25 26  1  0
 26 27  2  0
  2 28  1  0
 28 29  2  0
 29 30  1  0
 30 31  2  0
 31 32  1  0
 32 33  2  0
 10  6  1  0
 27 17  1  0
 33 28  1  0
 26 20  1  0
  1 34  1  0
  1 35  1  0
  1 36  1  0
  2 37  1  6
  3 38  1  0
  6 39  1  6
  7 40  1  0
  7 41  1  0
  8 42  1  0
  8 43  1  0
  9 44  1  0
  9 45  1  0
 13 46  1  0
 13 47  1  0
 14 48  1  0
 18 49  1  0
 19 50  1  0
 21 51  1  0
 24 52  1  0
 25 53  1  0
 29 54  1  0
 30 55  1  0
 31 56  1  0
 32 57  1  0
 33 58  1  0
M  END
>  <smiles>  (26) 
C[C@H](NC(=O)[C@H]1CCCN1C(=O)CNC(=O)c1ccc2cc(F)ccc2n1)c1ccccc1

>  <score_type>  (26) 
oracle

>  <origin>  (26) 
autodockgpu

>  <m_score__min__energy>  (26) 
-9.4700000000000006

>  <m_primary>  (26) 
energy

>  <rmsd>  (26) 
2.8195384909555132

>  <m_score__min__rmsd>  (26) 
2.8195384909555132

>  <meeko>  (26) 
{"free_energy": -8.68, "intermolecular_energy": -10.77, "internal_energy": -2.89, "cluster_size": 22, "cluster_id": 1, "rank_in_cluster": 18}

>  <energy>  (26) 
-9.28

>  <cluster_rmsd>  (26) 
0.42

>  <cluster>  (26) 
2

$$$$

     RDKit          3D

 58 61  0  0  0  0  0  0  0  0999 V2000
  143.3960   75.9410  219.5590 C   0  0  0  0  0  0  0  0  0  0  0  0
  142.1470   76.0310  220.4190 C   0  0  2  0  0  0  0  0  0  0  0  0
  141.4500   74.7690  220.2430 N   0  0  0  0  0  0  0  0  0  0  0  0
  140.5900   74.2160  221.2340 C   0  0  0  0  0  0  0  0  0  0  0  0
  140.3680   74.7720  222.3310 O   0  0  0  0  0  0  0  0  0  0  0  0
  139.9410   72.9010  220.9010 C   0  0  1  0  0  0  0  0  0  0  0  0
  140.8500   71.8150  221.4040 C   0  0  0  0  0  0  0  0  0  0  0  0
  139.8970   70.8800  222.1190 C   0  0  0  0  0  0  0  0  0  0  0  0
  138.9250   71.9020  222.7220 C   0  0  0  0  0  0  0  0  0  0  0  0
  138.6810   72.7790  221.5930 N   0  0  0  0  0  0  0  0  0  0  0  0
  137.4820   73.4250  221.1850 C   0  0  0  0  0  0  0  0  0  0  0  0
  136.9940   73.2750  220.0380 O   0  0  0  0  0  0  0  0  0  0  0  0
  136.8200   74.3010  222.1980 C   0  0  0  0  0  0  0  0  0  0  0  0
  137.7180   75.3680  222.5770 N   0  0  0  0  0  0  0  0  0  0  0  0
  137.3660   76.7040  222.2080 C   0  0  0  0  0  0  0  0  0  0  0  0
  136.2940   76.9400  221.5680 O   0  0  0  0  0  0  0  0  0  0  0  0
  138.2630   77.8030  222.5830 C   0  0  0  0  0  0  0  0  0  0  0  0
  137.7300   79.0690  222.7550 C   0  0  0  0  0  0  0  0  0  0  0  0
  138.5110   80.1560  223.1070 C   0  0  0  0  0  0  0  0  0  0  0  0
  139.8650   79.9790  223.2950 C   0  0  0  0  0  0  0  0  0  0  0  0
  140.6910   81.0330  223.6470 C   0  0  0  0  0  0  0  0  0  0  0  0
  142.0380   80.8340  223.8290 C   0  0  0  0  0  0  0  0  0  0  0  0
  142.8090   81.8940  224.1750 F   0  0  0  0  0  0  0  0  0  0  0  0
  142.5450   79.5750  223.6550 C   0  0  0  0  0  0  0  0  0  0  0  0
  141.7290   78.5150  223.3020 C   0  0  0  0  0  0  0  0  0  0  0  0
  140.3650   78.6860  223.1120 C   0  0  0  0  0  0  0  0  0  0  0  0
  139.5700   77.6570  222.7690 N   0  0  0  0  0  0  0  0  0  0  0  0
  141.3170   77.2050  220.0330 C   0  0  0  0  0  0  0  0  0  0  0  0
  139.9780   77.0370  219.6620 C   0  0  0  0  0  0  0  0  0  0  0  0
  139.2130   78.1280  219.3060 C   0  0  0  0  0  0  0  0  0  0  0  0
  139.7170   79.4050  219.2970 C   0  0  0  0  0  0  0  0  0  0  0  0
  141.0460   79.5900  219.6620 C   0  0  0  0  0  0  0  0  0  0  0  0
  141.8200   78.4950  220.0220 C   0  0  0  0  0  0  0  0  0  0  0  0
  144.2831   75.8771  220.2063 H   0  0  0  0  0  0  0  0  0  0  0  0
  143.3401   75.0446  218.9240 H   0  0  0  0  0  0  0  0  0  0  0  0
  143.4692   76.8362  218.9240 H   0  0  0  0  0  0  0  0  0  0  0  0
  142.3884   76.1875  221.4807 H   0  0  0  0  0  0  0  0  0  0  0  0
  141.6080   74.2720  219.3390 H   0  0  0  0  0  0  0  0  0  0  0  0
  139.7703   72.8305  219.8166 H   0  0  0  0  0  0  0  0  0  0  0  0
  141.3550   71.3042  220.5709 H   0  0  0  0  0  0  0  0  0  0  0  0
  141.6577   72.1893  222.0501 H   0  0  0  0  0  0  0  0  0  0  0  0
  139.3910   70.1989  221.4189 H   0  0  0  0  0  0  0  0  0  0  0  0
  140.3695   70.2040  222.8469 H   0  0  0  0  0  0  0  0  0  0  0  0
  137.9969   71.4198  223.0628 H   0  0  0  0  0  0  0  0  0  0  0  0
  139.3155   72.4181  223.6115 H   0  0  0  0  0  0  0  0  0  0  0  0
  135.9029   74.7298  221.7678 H   0  0  0  0  0  0  0  0  0  0  0  0
  136.5659   73.7045  223.0866 H   0  0  0  0  0  0  0  0  0  0  0  0
  138.6050   75.2320  223.1000 H   0  0  0  0  0  0  0  0  0  0  0  0
  136.6499   79.2159  222.6070 H   0  0  0  0  0  0  0  0  0  0  0  0
  138.0566   81.1495  223.2352 H   0  0  0  0  0  0  0  0  0  0  0  0
  140.2650   82.0381  223.7821 H   0  0  0  0  0  0  0  0  0  0  0  0
  143.6219   79.4024  223.7985 H   0  0  0  0  0  0  0  0  0  0  0  0
  142.1704   77.5162  223.1692 H   0  0  0  0  0  0  0  0  0  0  0  0
  139.5339   76.0307  219.6543 H   0  0  0  0  0  0  0  0  0  0  0  0
  138.1629   77.9695  219.0194 H   0  0  0  0  0  0  0  0  0  0  0  0
  139.0864   80.2590  219.0088 H   0  0  0  0  0  0  0  0  0  0  0  0
  141.4823   80.5998  219.6655 H   0  0  0  0  0  0  0  0  0  0  0  0
  142.8695   78.6580  220.3085 H   0  0  0  0  0  0  0  0  0  0  0  0
  1  2  1  0
  2  3  1  0
  3  4  1  0
  4  5  2  0
  4  6  1  0
  6  7  1  0
  7  8  1  0
  8  9  1  0
  9 10  1  0
 10 11  1  0
 11 12  2  0
 11 13  1  0
 13 14  1  0
 14 15  1  0
 15 16  2  0
 15 17  1  0
 17 18  2  0
 18 19  1  0
 19 20  2  0
 20 21  1  0
 21 22  2  0
 22 23  1  0
 22 24  1  0
 24 25  2  0
 25 26  1  0
 26 27  2  0
  2 28  1  0
 28 29  2  0
 29 30  1  0
 30 31  2  0
 31 32  1  0
 32 33  2  0
 10  6  1  0
 27 17  1  0
 33 28  1  0
 26 20  1  0
  1 34  1  0
  1 35  1  0
  1 36  1  0
  2 37  1  1
  3 38  1  0
  6 39  1  6
  7 40  1  0
  7 41  1  0
  8 42  1  0
  8 43  1  0
  9 44  1  0
  9 45  1  0
 13 46  1  0
 13 47  1  0
 14 48  1  0
 18 49  1  0
 19 50  1  0
 21 51  1  0
 24 52  1  0
 25 53  1  0
 29 54  1  0
 30 55  1  0
 31 56  1  0
 32 57  1  0
 33 58  1  0
M  END
>  <smiles>  (27) 
C[C@H](NC(=O)[C@H]1CCCN1C(=O)CNC(=O)c1ccc2cc(F)ccc2n1)c1ccccc1

>  <score_type>  (27) 
oracle

>  <origin>  (27) 
autodockgpu

>  <m_score__min__energy>  (27) 
-9.4700000000000006

>  <m_primary>  (27) 
energy

>  <rmsd>  (27) 
7.047776511471997

>  <m_score__min__rmsd>  (27) 
7.047776511471997

>  <meeko>  (27) 
{"free_energy": -6.09, "intermolecular_energy": -8.17, "internal_energy": -4.56, "cluster_size": 1, "cluster_id": 6, "rank_in_cluster": 1}

>  <energy>  (27) 
-9.17

>  <cluster_rmsd>  (27) 
0.25

>  <cluster>  (27) 
2

$$$$

     RDKit          3D

 58 61  0  0  0  0  0  0  0  0999 V2000
  138.6380   78.0830  222.1490 C   0  0  0  0  0  0  0  0  0  0  0  0
  139.8730   78.4010  221.3250 C   0  0  2  0  0  0  0  0  0  0  0  0
  140.3210   77.1330  220.7750 N   0  0  0  0  0  0  0  0  0  0  0  0
  141.4530   77.0190  219.9180 C   0  0  0  0  0  0  0  0  0  0  0  0
  142.1500   77.9980  219.5750 O   0  0  0  0  0  0  0  0  0  0  0  0
  141.7890   75.6370  219.4310 C   0  0  1  0  0  0  0  0  0  0  0  0
  143.1420   75.7100  218.7800 C   0  0  0  0  0  0  0  0  0  0  0  0
  143.8650   74.5150  219.3660 C   0  0  0  0  0  0  0  0  0  0  0  0
  143.3010   74.5360  220.7920 C   0  0  0  0  0  0  0  0  0  0  0  0
  141.8840   74.7250  220.5470 N   0  0  0  0  0  0  0  0  0  0  0  0
  140.7620   74.1690  221.2180 C   0  0  0  0  0  0  0  0  0  0  0  0
  140.0400   74.8430  221.9950 O   0  0  0  0  0  0  0  0  0  0  0  0
  140.4760   72.7260  220.9540 C   0  0  0  0  0  0  0  0  0  0  0  0
  140.6430   71.9680  222.1720 N   0  0  0  0  0  0  0  0  0  0  0  0
  139.5450   71.1690  222.6210 C   0  0  0  0  0  0  0  0  0  0  0  0
  138.4580   71.1310  221.9630 O   0  0  0  0  0  0  0  0  0  0  0  0
  139.6920   70.3900  223.8550 C   0  0  0  0  0  0  0  0  0  0  0  0
  139.1430   69.1200  223.9120 C   0  0  0  0  0  0  0  0  0  0  0  0
  139.2390   68.3250  225.0410 C   0  0  0  0  0  0  0  0  0  0  0  0
  139.9030   68.8070  226.1480 C   0  0  0  0  0  0  0  0  0  0  0  0
  140.0280   68.0530  227.3030 C   0  0  0  0  0  0  0  0  0  0  0  0
  140.6930   68.5530  228.3950 C   0  0  0  0  0  0  0  0  0  0  0  0
  140.7920   67.7790  229.5040 F   0  0  0  0  0  0  0  0  0  0  0  0
  141.2290   69.8090  228.3190 C   0  0  0  0  0  0  0  0  0  0  0  0
  141.1100   70.5730  227.1710 C   0  0  0  0  0  0  0  0  0  0  0  0
  140.4430   70.0940  226.0520 C   0  0  0  0  0  0  0  0  0  0  0  0
  140.3260   70.8330  224.9360 N   0  0  0  0  0  0  0  0  0  0  0  0
  140.9130   79.0660  222.1560 C   0  0  0  0  0  0  0  0  0  0  0  0
  141.6280   80.1600  221.6560 C   0  0  0  0  0  0  0  0  0  0  0  0
  142.5920   80.7740  222.4300 C   0  0  0  0  0  0  0  0  0  0  0  0
  142.8900   80.3490  223.7010 C   0  0  0  0  0  0  0  0  0  0  0  0
  142.1900   79.2630  224.2130 C   0  0  0  0  0  0  0  0  0  0  0  0
  141.2190   78.6430  223.4380 C   0  0  0  0  0  0  0  0  0  0  0  0
  138.8848   78.1466  223.2191 H   0  0  0  0  0  0  0  0  0  0  0  0
  137.8433   78.8058  221.9125 H   0  0  0  0  0  0  0  0  0  0  0  0
  138.2912   77.0663  221.9125 H   0  0  0  0  0  0  0  0  0  0  0  0
  139.6558   79.1130  220.5151 H   0  0  0  0  0  0  0  0  0  0  0  0
  139.7660   76.2900  221.0370 H   0  0  0  0  0  0  0  0  0  0  0  0
  141.0120   75.2849  218.7365 H   0  0  0  0  0  0  0  0  0  0  0  0
  143.0599   75.6255  217.6863 H   0  0  0  0  0  0  0  0  0  0  0  0
  143.6604   76.6630  218.9617 H   0  0  0  0  0  0  0  0  0  0  0  0
  143.6086   73.5840  218.8392 H   0  0  0  0  0  0  0  0  0  0  0  0
  144.9622   74.5595  219.3009 H   0  0  0  0  0  0  0  0  0  0  0  0
  143.4944   73.5869  221.3134 H   0  0  0  0  0  0  0  0  0  0  0  0
  143.7485   75.3065  221.4371 H   0  0  0  0  0  0  0  0  0  0  0  0
  139.4422   72.6176  220.5942 H   0  0  0  0  0  0  0  0  0  0  0  0
  141.1729   72.3492  220.1909 H   0  0  0  0  0  0  0  0  0  0  0  0
  141.5070   71.9620  222.7480 H   0  0  0  0  0  0  0  0  0  0  0  0
  138.6129   68.7299  223.0306 H   0  0  0  0  0  0  0  0  0  0  0  0
  138.7907   67.3206  225.0543 H   0  0  0  0  0  0  0  0  0  0  0  0
  139.5906   67.0446  227.3457 H   0  0  0  0  0  0  0  0  0  0  0  0
  141.7651   70.2200  229.1871 H   0  0  0  0  0  0  0  0  0  0  0  0
  141.5528   71.5796  227.1450 H   0  0  0  0  0  0  0  0  0  0  0  0
  141.4210   80.5323  220.6418 H   0  0  0  0  0  0  0  0  0  0  0  0
  143.1398   81.6326  222.0145 H   0  0  0  0  0  0  0  0  0  0  0  0
  143.6627   80.8549  224.2986 H   0  0  0  0  0  0  0  0  0  0  0  0
  142.4043   78.8963  225.2277 H   0  0  0  0  0  0  0  0  0  0  0  0
  140.6734   77.7850  223.8578 H   0  0  0  0  0  0  0  0  0  0  0  0
  1  2  1  0
  2  3  1  0
  3  4  1  0
  4  5  2  0
  4  6  1  0
  6  7  1  0
  7  8  1  0
  8  9  1  0
  9 10  1  0
 10 11  1  0
 11 12  2  0
 11 13  1  0
 13 14  1  0
 14 15  1  0
 15 16  2  0
 15 17  1  0
 17 18  2  0
 18 19  1  0
 19 20  2  0
 20 21  1  0
 21 22  2  0
 22 23  1  0
 22 24  1  0
 24 25  2  0
 25 26  1  0
 26 27  2  0
  2 28  1  0
 28 29  2  0
 29 30  1  0
 30 31  2  0
 31 32  1  0
 32 33  2  0
 10  6  1  0
 27 17  1  0
 33 28  1  0
 26 20  1  0
  1 34  1  0
  1 35  1  0
  1 36  1  0
  2 37  1  6
  3 38  1  0
  6 39  1  6
  7 40  1  0
  7 41  1  0
  8 42  1  0
  8 43  1  0
  9 44  1  0
  9 45  1  0
 13 46  1  0
 13 47  1  0
 14 48  1  0
 18 49  1  0
 19 50  1  0
 21 51  1  0
 24 52  1  0
 25 53  1  0
 29 54  1  0
 30 55  1  0
 31 56  1  0
 32 57  1  0
 33 58  1  0
M  END
>  <smiles>  (28) 
C[C@H](NC(=O)[C@H]1CCCN1C(=O)CNC(=O)c1ccc2cc(F)ccc2n1)c1ccccc1

>  <score_type>  (28) 
oracle

>  <origin>  (28) 
autodockgpu

>  <m_score__min__energy>  (28) 
-9.4700000000000006

>  <m_primary>  (28) 
energy

>  <rmsd>  (28) 
3.235360375746276

>  <m_score__min__rmsd>  (28) 
3.235360375746276

>  <meeko>  (28) 
{"free_energy": -8.63, "intermolecular_energy": -10.72, "internal_energy": -2.55, "cluster_size": 22, "cluster_id": 1, "rank_in_cluster": 19}

>  <energy>  (28) 
-9.1

>  <cluster_rmsd>  (28) 
0.99

>  <cluster>  (28) 
2

$$$$

     RDKit          3D

 58 61  0  0  0  0  0  0  0  0999 V2000
  142.8930   79.7590  222.6430 C   0  0  0  0  0  0  0  0  0  0  0  0
  141.6440   79.0120  223.0760 C   0  0  2  0  0  0  0  0  0  0  0  0
  141.4970   77.9070  222.1450 N   0  0  0  0  0  0  0  0  0  0  0  0
  141.2860   78.0960  220.7490 C   0  0  0  0  0  0  0  0  0  0  0  0
  141.2110   79.2240  220.2170 O   0  0  0  0  0  0  0  0  0  0  0  0
  141.1540   76.8510  219.9170 C   0  0  1  0  0  0  0  0  0  0  0  0
  142.3340   76.8100  218.9860 C   0  0  0  0  0  0  0  0  0  0  0  0
  142.8170   75.3800  219.1150 C   0  0  0  0  0  0  0  0  0  0  0  0
  142.5530   75.1430  220.6070 C   0  0  0  0  0  0  0  0  0  0  0  0
  141.2150   75.6800  220.7590 N   0  0  0  0  0  0  0  0  0  0  0  0
  140.1320   75.2120  221.5520 C   0  0  0  0  0  0  0  0  0  0  0  0
  139.6860   75.8600  222.5320 O   0  0  0  0  0  0  0  0  0  0  0  0
  139.5390   73.8980  221.1600 C   0  0  0  0  0  0  0  0  0  0  0  0
  139.4040   73.0600  222.3280 N   0  0  0  0  0  0  0  0  0  0  0  0
  140.3770   72.0320  222.5330 C   0  0  0  0  0  0  0  0  0  0  0  0
  141.3300   71.8670  221.7090 O   0  0  0  0  0  0  0  0  0  0  0  0
  140.2590   71.1680  223.7130 C   0  0  0  0  0  0  0  0  0  0  0  0
  139.6360   69.9390  223.5800 C   0  0  0  0  0  0  0  0  0  0  0  0
  139.4860   69.0690  224.6460 C   0  0  0  0  0  0  0  0  0  0  0  0
  139.9700   69.4330  225.8840 C   0  0  0  0  0  0  0  0  0  0  0  0
  139.8460   68.6000  226.9830 C   0  0  0  0  0  0  0  0  0  0  0  0
  140.3350   68.9820  228.2080 C   0  0  0  0  0  0  0  0  0  0  0  0
  140.1920   68.1350  229.2570 F   0  0  0  0  0  0  0  0  0  0  0  0
  140.9470   70.2000  228.3190 C   0  0  0  0  0  0  0  0  0  0  0  0
  141.0770   71.0410  227.2280 C   0  0  0  0  0  0  0  0  0  0  0  0
  140.5920   70.6820  225.9780 C   0  0  0  0  0  0  0  0  0  0  0  0
  140.7170   71.4970  224.9160 N   0  0  0  0  0  0  0  0  0  0  0  0
  140.4600   79.9140  223.0890 C   0  0  0  0  0  0  0  0  0  0  0  0
  140.4570   81.0930  222.3350 C   0  0  0  0  0  0  0  0  0  0  0  0
  139.3580   81.9260  222.3500 C   0  0  0  0  0  0  0  0  0  0  0  0
  138.2360   81.6450  223.0910 C   0  0  0  0  0  0  0  0  0  0  0  0
  138.2220   80.4780  223.8470 C   0  0  0  0  0  0  0  0  0  0  0  0
  139.3260   79.6370  223.8340 C   0  0  0  0  0  0  0  0  0  0  0  0
  143.4484   80.0912  223.5325 H   0  0  0  0  0  0  0  0  0  0  0  0
  143.5287   79.0927  222.0414 H   0  0  0  0  0  0  0  0  0  0  0  0
  142.6067   80.6343  222.0414 H   0  0  0  0  0  0  0  0  0  0  0  0
  141.7271   78.6337  224.1056 H   0  0  0  0  0  0  0  0  0  0  0  0
  141.5530   76.9470  222.5480 H   0  0  0  0  0  0  0  0  0  0  0  0
  140.1966   76.8617  219.3754 H   0  0  0  0  0  0  0  0  0  0  0  0
  142.0307   77.0336  217.9525 H   0  0  0  0  0  0  0  0  0  0  0  0
  143.1068   77.5534  219.2310 H   0  0  0  0  0  0  0  0  0  0  0  0
  142.2340   74.6937  218.4833 H   0  0  0  0  0  0  0  0  0  0  0  0
  143.8562   75.2115  218.7960 H   0  0  0  0  0  0  0  0  0  0  0  0
  142.5854   74.0717  220.8545 H   0  0  0  0  0  0  0  0  0  0  0  0
  143.2977   75.6065  221.2708 H   0  0  0  0  0  0  0  0  0  0  0  0
  138.5484   74.0627  220.7111 H   0  0  0  0  0  0  0  0  0  0  0  0
  140.1965   73.4037  220.4297 H   0  0  0  0  0  0  0  0  0  0  0  0
  138.6460   73.1500  223.0330 H   0  0  0  0  0  0  0  0  0  0  0  0
  139.2472   69.6440  222.5942 H   0  0  0  0  0  0  0  0  0  0  0  0
  138.9865   68.0989  224.5068 H   0  0  0  0  0  0  0  0  0  0  0  0
  139.3514   67.6236  226.8739 H   0  0  0  0  0  0  0  0  0  0  0  0
  141.3437   70.5173  229.2947 H   0  0  0  0  0  0  0  0  0  0  0  0
  141.5748   72.0138  227.3538 H   0  0  0  0  0  0  0  0  0  0  0  0
  141.3354   81.3565  221.7275 H   0  0  0  0  0  0  0  0  0  0  0  0
  139.3807   82.8465  221.7483 H   0  0  0  0  0  0  0  0  0  0  0  0
  137.3715   82.3251  223.0865 H   0  0  0  0  0  0  0  0  0  0  0  0
  137.3400   80.2225  224.4526 H   0  0  0  0  0  0  0  0  0  0  0  0
  139.2993   78.7175  224.4371 H   0  0  0  0  0  0  0  0  0  0  0  0
  1  2  1  0
  2  3  1  0
  3  4  1  0
  4  5  2  0
  4  6  1  0
  6  7  1  0
  7  8  1  0
  8  9  1  0
  9 10  1  0
 10 11  1  0
 11 12  2  0
 11 13  1  0
 13 14  1  0
 14 15  1  0
 15 16  2  0
 15 17  1  0
 17 18  2  0
 18 19  1  0
 19 20  2  0
 20 21  1  0
 21 22  2  0
 22 23  1  0
 22 24  1  0
 24 25  2  0
 25 26  1  0
 26 27  2  0
  2 28  1  0
 28 29  2  0
 29 30  1  0
 30 31  2  0
 31 32  1  0
 32 33  2  0
 10  6  1  0
 27 17  1  0
 33 28  1  0
 26 20  1  0
  1 34  1  0
  1 35  1  0
  1 36  1  0
  2 37  1  1
  3 38  1  0
  6 39  1  6
  7 40  1  0
  7 41  1  0
  8 42  1  0
  8 43  1  0
  9 44  1  0
  9 45  1  0
 13 46  1  0
 13 47  1  0
 14 48  1  0
 18 49  1  0
 19 50  1  0
 21 51  1  0
 24 52  1  0
 25 53  1  0
 29 54  1  0
 30 55  1  0
 31 56  1  0
 32 57  1  0
 33 58  1  0
M  END
>  <smiles>  (29) 
C[C@H](NC(=O)[C@H]1CCCN1C(=O)CNC(=O)c1ccc2cc(F)ccc2n1)c1ccccc1

>  <score_type>  (29) 
oracle

>  <origin>  (29) 
autodockgpu

>  <m_score__min__energy>  (29) 
-9.4700000000000006

>  <m_primary>  (29) 
energy

>  <rmsd>  (29) 
2.2742133124960264

>  <m_score__min__rmsd>  (29) 
2.2742133124960264

>  <meeko>  (29) 
{"free_energy": -9.3, "intermolecular_energy": -11.39, "internal_energy": -2.58, "cluster_size": 16, "cluster_id": 2, "rank_in_cluster": 3}

>  <energy>  (29) 
-8.94

>  <cluster_rmsd>  (29) 
0.76

>  <cluster>  (29) 
2

$$$$

     RDKit          3D

 58 61  0  0  0  0  0  0  0  0999 V2000
  139.6470   76.4440  222.3520 C   0  0  0  0  0  0  0  0  0  0  0  0
  140.5710   77.1610  221.3840 C   0  0  2  0  0  0  0  0  0  0  0  0
  141.4750   76.1460  220.8720 N   0  0  0  0  0  0  0  0  0  0  0  0
  141.7640   75.9950  219.4860 C   0  0  0  0  0  0  0  0  0  0  0  0
  141.2640   76.7240  218.6030 O   0  0  0  0  0  0  0  0  0  0  0  0
  142.7210   74.8970  219.1150 C   0  0  1  0  0  0  0  0  0  0  0  0
  144.0520   75.2420  219.7210 C   0  0  0  0  0  0  0  0  0  0  0  0
  144.4830   73.9380  220.3590 C   0  0  0  0  0  0  0  0  0  0  0  0
  143.1250   73.4200  220.8480 C   0  0  0  0  0  0  0  0  0  0  0  0
  142.2870   73.6450  219.6860 N   0  0  0  0  0  0  0  0  0  0  0  0
  141.2360   72.8490  219.1540 C   0  0  0  0  0  0  0  0  0  0  0  0
  141.4180   72.0330  218.2170 O   0  0  0  0  0  0  0  0  0  0  0  0
  139.8870   73.0290  219.7710 C   0  0  0  0  0  0  0  0  0  0  0  0
  139.7540   72.1520  220.9110 N   0  0  0  0  0  0  0  0  0  0  0  0
  140.1980   72.6330  222.1830 C   0  0  0  0  0  0  0  0  0  0  0  0
  140.6920   73.7970  222.3000 O   0  0  0  0  0  0  0  0  0  0  0  0
  140.0720   71.7590  223.3550 C   0  0  0  0  0  0  0  0  0  0  0  0
  139.3080   70.6090  223.2500 C   0  0  0  0  0  0  0  0  0  0  0  0
  139.1410   69.7350  224.3110 C   0  0  0  0  0  0  0  0  0  0  0  0
  139.7540   70.0130  225.5130 C   0  0  0  0  0  0  0  0  0  0  0  0
  139.6200   69.1730  226.6060 C   0  0  0  0  0  0  0  0  0  0  0  0
  140.2390   69.4690  227.7950 C   0  0  0  0  0  0  0  0  0  0  0  0
  140.0810   68.6170  228.8380 F   0  0  0  0  0  0  0  0  0  0  0  0
  140.9900   70.6090  227.8780 C   0  0  0  0  0  0  0  0  0  0  0  0
  141.1310   71.4570  226.7940 C   0  0  0  0  0  0  0  0  0  0  0  0
  140.5170   71.1830  225.5790 C   0  0  0  0  0  0  0  0  0  0  0  0
  140.6530   72.0050  224.5240 N   0  0  0  0  0  0  0  0  0  0  0  0
  141.2850   78.2800  222.0560 C   0  0  0  0  0  0  0  0  0  0  0  0
  141.4490   78.2860  223.4460 C   0  0  0  0  0  0  0  0  0  0  0  0
  142.1120   79.3250  224.0650 C   0  0  0  0  0  0  0  0  0  0  0  0
  142.6320   80.3840  223.3620 C   0  0  0  0  0  0  0  0  0  0  0  0
  142.4780   80.3950  221.9790 C   0  0  0  0  0  0  0  0  0  0  0  0
  141.8120   79.3510  221.3530 C   0  0  0  0  0  0  0  0  0  0  0  0
  139.9463   76.6762  223.3847 H   0  0  0  0  0  0  0  0  0  0  0  0
  138.6120   76.7777  222.1863 H   0  0  0  0  0  0  0  0  0  0  0  0
  139.7132   75.3586  222.1863 H   0  0  0  0  0  0  0  0  0  0  0  0
  140.0173   77.6309  220.5578 H   0  0  0  0  0  0  0  0  0  0  0  0
  141.9150   75.5150  221.5770 H   0  0  0  0  0  0  0  0  0  0  0  0
  142.7751   74.8003  218.0206 H   0  0  0  0  0  0  0  0  0  0  0  0
  144.7677   75.5600  218.9486 H   0  0  0  0  0  0  0  0  0  0  0  0
  144.0004   76.0778  220.4343 H   0  0  0  0  0  0  0  0  0  0  0  0
  144.9403   73.2566  219.6265 H   0  0  0  0  0  0  0  0  0  0  0  0
  145.2507   74.0359  221.1407 H   0  0  0  0  0  0  0  0  0  0  0  0
  143.1731   72.3519  221.1066 H   0  0  0  0  0  0  0  0  0  0  0  0
  142.7622   73.9135  221.7617 H   0  0  0  0  0  0  0  0  0  0  0  0
  139.7700   74.0731  220.0969 H   0  0  0  0  0  0  0  0  0  0  0  0
  139.1113   72.7850  219.0302 H   0  0  0  0  0  0  0  0  0  0  0  0
  139.3590   71.1920  220.8730 H   0  0  0  0  0  0  0  0  0  0  0  0
  138.8174   70.3822  222.2919 H   0  0  0  0  0  0  0  0  0  0  0  0
  138.5265   68.8300  224.1955 H   0  0  0  0  0  0  0  0  0  0  0  0
  139.0120   68.2603  226.5206 H   0  0  0  0  0  0  0  0  0  0  0  0
  141.4917   70.8565  228.8251 H   0  0  0  0  0  0  0  0  0  0  0  0
  141.7415   72.3662  226.8966 H   0  0  0  0  0  0  0  0  0  0  0  0
  141.0470   77.4577  224.0479 H   0  0  0  0  0  0  0  0  0  0  0  0
  142.2282   79.3048  225.1587 H   0  0  0  0  0  0  0  0  0  0  0  0
  143.1562   81.2017  223.8783 H   0  0  0  0  0  0  0  0  0  0  0  0
  142.8824   81.2276  221.3847 H   0  0  0  0  0  0  0  0  0  0  0  0
  141.6984   79.3747  220.2591 H   0  0  0  0  0  0  0  0  0  0  0  0
  1  2  1  0
  2  3  1  0
  3  4  1  0
  4  5  2  0
  4  6  1  0
  6  7  1  0
  7  8  1  0
  8  9  1  0
  9 10  1  0
 10 11  1  0
 11 12  2  0
 11 13  1  0
 13 14  1  0
 14 15  1  0
 15 16  2  0
 15 17  1  0
 17 18  2  0
 18 19  1  0
 19 20  2  0
 20 21  1  0
 21 22  2  0
 22 23  1  0
 22 24  1  0
 24 25  2  0
 25 26  1  0
 26 27  2  0
  2 28  1  0
 28 29  2  0
 29 30  1  0
 30 31  2  0
 31 32  1  0
 32 33  2  0
 10  6  1  0
 27 17  1  0
 33 28  1  0
 26 20  1  0
  1 34  1  0
  1 35  1  0
  1 36  1  0
  2 37  1  6
  3 38  1  0
  6 39  1  6
  7 40  1  0
  7 41  1  0
  8 42  1  0
  8 43  1  0
  9 44  1  0
  9 45  1  0
 13 46  1  0
 13 47  1  0
 14 48  1  0
 18 49  1  0
 19 50  1  0
 21 51  1  0
 24 52  1  0
 25 53  1  0
 29 54  1  0
 30 55  1  0
 31 56  1  0
 32 57  1  0
 33 58  1  0
M  END
>  <smiles>  (30) 
C[C@H](NC(=O)[C@H]1CCCN1C(=O)CNC(=O)c1ccc2cc(F)ccc2n1)c1ccccc1

>  <score_type>  (30) 
oracle

>  <origin>  (30) 
autodockgpu

>  <m_score__min__energy>  (30) 
-9.4700000000000006

>  <m_primary>  (30) 
energy

>  <rmsd>  (30) 
3.365911967349282

>  <m_score__min__rmsd>  (30) 
3.365911967349282

>  <meeko>  (30) 
{"free_energy": -9.02, "intermolecular_energy": -11.11, "internal_energy": -2.8, "cluster_size": 22, "cluster_id": 1, "rank_in_cluster": 4}

>  <energy>  (30) 
-8.91

>  <cluster_rmsd>  (30) 
1.1

>  <cluster>  (30) 
2

$$$$

     RDKit          3D

 58 61  0  0  0  0  0  0  0  0999 V2000
  139.2670   68.4080  224.5740 C   0  0  0  0  0  0  0  0  0  0  0  0
  138.6450   69.6600  225.1660 C   0  0  2  0  0  0  0  0  0  0  0  0
  138.3000   70.5050  224.0370 N   0  0  0  0  0  0  0  0  0  0  0  0
  137.6300   70.0140  222.8800 C   0  0  0  0  0  0  0  0  0  0  0  0
  137.2870   68.8200  222.7460 O   0  0  0  0  0  0  0  0  0  0  0  0
  137.3420   71.0160  221.7960 C   0  0  1  0  0  0  0  0  0  0  0  0
  135.8510   71.0520  221.6070 C   0  0  0  0  0  0  0  0  0  0  0  0
  135.5490   72.5350  221.5730 C   0  0  0  0  0  0  0  0  0  0  0  0
  136.5640   73.0360  222.6090 C   0  0  0  0  0  0  0  0  0  0  0  0
  137.7670   72.3320  222.2090 N   0  0  0  0  0  0  0  0  0  0  0  0
  139.1180   72.7730  222.1970 C   0  0  0  0  0  0  0  0  0  0  0  0
  139.9360   72.4580  223.0960 O   0  0  0  0  0  0  0  0  0  0  0  0
  139.5250   73.6390  221.0500 C   0  0  0  0  0  0  0  0  0  0  0  0
  140.0420   74.8920  221.5480 N   0  0  0  0  0  0  0  0  0  0  0  0
  139.1040   75.9140  221.8970 C   0  0  0  0  0  0  0  0  0  0  0  0
  137.8540   75.7180  221.7710 O   0  0  0  0  0  0  0  0  0  0  0  0
  139.6060   77.1950  222.4050 C   0  0  0  0  0  0  0  0  0  0  0  0
  138.7010   78.1130  222.9100 C   0  0  0  0  0  0  0  0  0  0  0  0
  139.0970   79.3430  223.4070 C   0  0  0  0  0  0  0  0  0  0  0  0
  140.4360   79.6700  223.4010 C   0  0  0  0  0  0  0  0  0  0  0  0
  140.8860   80.8870  223.8860 C   0  0  0  0  0  0  0  0  0  0  0  0
  142.2240   81.1930  223.8700 C   0  0  0  0  0  0  0  0  0  0  0  0
  142.6200   82.3960  224.3560 F   0  0  0  0  0  0  0  0  0  0  0  0
  143.1030   80.2730  223.3670 C   0  0  0  0  0  0  0  0  0  0  0  0
  142.6650   79.0540  222.8800 C   0  0  0  0  0  0  0  0  0  0  0  0
  141.3190   78.7170  222.8830 C   0  0  0  0  0  0  0  0  0  0  0  0
  140.8910   77.5340  222.4090 N   0  0  0  0  0  0  0  0  0  0  0  0
  139.5800   70.3230  226.1150 C   0  0  0  0  0  0  0  0  0  0  0  0
  139.5970   69.9590  227.4660 C   0  0  0  0  0  0  0  0  0  0  0  0
  140.4650   70.5770  228.3430 C   0  0  0  0  0  0  0  0  0  0  0  0
  141.3360   71.5590  227.9410 C   0  0  0  0  0  0  0  0  0  0  0  0
  141.3330   71.9330  226.6020 C   0  0  0  0  0  0  0  0  0  0  0  0
  140.4610   71.3140  225.7160 C   0  0  0  0  0  0  0  0  0  0  0  0
  139.5971   67.7434  225.3860 H   0  0  0  0  0  0  0  0  0  0  0  0
  138.5229   67.8871  223.9535 H   0  0  0  0  0  0  0  0  0  0  0  0
  140.1316   68.6863  223.9535 H   0  0  0  0  0  0  0  0  0  0  0  0
  137.7476   69.4325  225.7601 H   0  0  0  0  0  0  0  0  0  0  0  0
  138.5690   71.5110  224.1080 H   0  0  0  0  0  0  0  0  0  0  0  0
  137.8713   70.7339  220.8739 H   0  0  0  0  0  0  0  0  0  0  0  0
  135.5601   70.5673  220.6633 H   0  0  0  0  0  0  0  0  0  0  0  0
  135.3007   70.5150  222.3937 H   0  0  0  0  0  0  0  0  0  0  0  0
  135.7337   72.9668  220.5783 H   0  0  0  0  0  0  0  0  0  0  0  0
  134.5023   72.8001  221.7832 H   0  0  0  0  0  0  0  0  0  0  0  0
  136.6975   74.1260  222.5445 H   0  0  0  0  0  0  0  0  0  0  0  0
  136.2651   72.8513  223.6514 H   0  0  0  0  0  0  0  0  0  0  0  0
  140.3038   73.1286  220.4644 H   0  0  0  0  0  0  0  0  0  0  0  0
  138.6510   73.8329  220.4108 H   0  0  0  0  0  0  0  0  0  0  0  0
  141.0510   75.1060  221.6700 H   0  0  0  0  0  0  0  0  0  0  0  0
  137.6314   77.8565  222.9166 H   0  0  0  0  0  0  0  0  0  0  0  0
  138.3526   80.0502  223.8016 H   0  0  0  0  0  0  0  0  0  0  0  0
  140.1650   81.6144  224.2874 H   0  0  0  0  0  0  0  0  0  0  0  0
  144.1777   80.5067  223.3494 H   0  0  0  0  0  0  0  0  0  0  0  0
  143.3989   78.3375  222.4824 H   0  0  0  0  0  0  0  0  0  0  0  0
  138.9153   69.1766  227.8307 H   0  0  0  0  0  0  0  0  0  0  0  0
  140.4587   70.2724  229.4000 H   0  0  0  0  0  0  0  0  0  0  0  0
  142.0182   72.0372  228.6593 H   0  0  0  0  0  0  0  0  0  0  0  0
  142.0185   72.7160  226.2458 H   0  0  0  0  0  0  0  0  0  0  0  0
  140.4705   71.6218  224.6600 H   0  0  0  0  0  0  0  0  0  0  0  0
  1  2  1  0
  2  3  1  0
  3  4  1  0
  4  5  2  0
  4  6  1  0
  6  7  1  0
  7  8  1  0
  8  9  1  0
  9 10  1  0
 10 11  1  0
 11 12  2  0
 11 13  1  0
 13 14  1  0
 14 15  1  0
 15 16  2  0
 15 17  1  0
 17 18  2  0
 18 19  1  0
 19 20  2  0
 20 21  1  0
 21 22  2  0
 22 23  1  0
 22 24  1  0
 24 25  2  0
 25 26  1  0
 26 27  2  0
  2 28  1  0
 28 29  2  0
 29 30  1  0
 30 31  2  0
 31 32  1  0
 32 33  2  0
 10  6  1  0
 27 17  1  0
 33 28  1  0
 26 20  1  0
  1 34  1  0
  1 35  1  0
  1 36  1  0
  2 37  1  1
  3 38  1  0
  6 39  1  6
  7 40  1  0
  7 41  1  0
  8 42  1  0
  8 43  1  0
  9 44  1  0
  9 45  1  0
 13 46  1  0
 13 47  1  0
 14 48  1  0
 18 49  1  0
 19 50  1  0
 21 51  1  0
 24 52  1  0
 25 53  1  0
 29 54  1  0
 30 55  1  0
 31 56  1  0
 32 57  1  0
 33 58  1  0
M  END
>  <smiles>  (31) 
C[C@H](NC(=O)[C@H]1CCCN1C(=O)CNC(=O)c1ccc2cc(F)ccc2n1)c1ccccc1

>  <score_type>  (31) 
oracle

>  <origin>  (31) 
autodockgpu

>  <m_score__min__energy>  (31) 
-9.4700000000000006

>  <m_primary>  (31) 
energy

>  <rmsd>  (31) 
9.557335587224406

>  <m_score__min__rmsd>  (31) 
9.557335587224406

>  <meeko>  (31) 
{"free_energy": -8.13, "intermolecular_energy": -10.22, "internal_energy": -2.73, "cluster_size": 5, "cluster_id": 5, "rank_in_cluster": 3}

>  <energy>  (31) 
-8.88

>  <cluster_rmsd>  (31) 
0.74

>  <cluster>  (31) 
2

$$$$

     RDKit          3D

 58 61  0  0  0  0  0  0  0  0999 V2000
  142.6950   79.6920  223.1090 C   0  0  0  0  0  0  0  0  0  0  0  0
  141.1910   79.6100  222.9140 C   0  0  2  0  0  0  0  0  0  0  0  0
  140.9690   78.5170  221.9830 N   0  0  0  0  0  0  0  0  0  0  0  0
  141.4660   78.5260  220.6490 C   0  0  0  0  0  0  0  0  0  0  0  0
  142.1310   79.4720  220.1750 O   0  0  0  0  0  0  0  0  0  0  0  0
  141.1530   77.3190  219.8080 C   0  0  1  0  0  0  0  0  0  0  0  0
  142.1030   77.3270  218.6440 C   0  0  0  0  0  0  0  0  0  0  0  0
  142.5980   75.8970  218.6000 C   0  0  0  0  0  0  0  0  0  0  0  0
  142.6610   75.5910  220.1010 C   0  0  0  0  0  0  0  0  0  0  0  0
  141.3890   76.1120  220.5630 N   0  0  0  0  0  0  0  0  0  0  0  0
  140.5020   75.6020  221.5490 C   0  0  0  0  0  0  0  0  0  0  0  0
  140.4070   76.1070  222.6950 O   0  0  0  0  0  0  0  0  0  0  0  0
  139.6750   74.4220  221.1540 C   0  0  0  0  0  0  0  0  0  0  0  0
  139.4900   73.5550  222.2940 N   0  0  0  0  0  0  0  0  0  0  0  0
  140.4440   72.5110  222.5050 C   0  0  0  0  0  0  0  0  0  0  0  0
  141.4230   72.3550  221.7100 O   0  0  0  0  0  0  0  0  0  0  0  0
  140.2750   71.6180  223.6570 C   0  0  0  0  0  0  0  0  0  0  0  0
  139.6010   70.4210  223.4810 C   0  0  0  0  0  0  0  0  0  0  0  0
  139.4020   69.5280  224.5190 C   0  0  0  0  0  0  0  0  0  0  0  0
  139.8870   69.8330  225.7720 C   0  0  0  0  0  0  0  0  0  0  0  0
  139.7150   68.9750  226.8450 C   0  0  0  0  0  0  0  0  0  0  0  0
  140.2070   69.2990  228.0850 C   0  0  0  0  0  0  0  0  0  0  0  0
  140.0160   68.4280  229.1060 F   0  0  0  0  0  0  0  0  0  0  0  0
  140.8700   70.4850  228.2390 C   0  0  0  0  0  0  0  0  0  0  0  0
  141.0480   71.3520  227.1740 C   0  0  0  0  0  0  0  0  0  0  0  0
  140.5620   71.0510  225.9100 C   0  0  0  0  0  0  0  0  0  0  0  0
  140.7330   71.8910  224.8740 N   0  0  0  0  0  0  0  0  0  0  0  0
  140.6440   80.9040  222.4230 C   0  0  0  0  0  0  0  0  0  0  0  0
  141.5000   81.8980  221.9370 C   0  0  0  0  0  0  0  0  0  0  0  0
  140.9890   83.0960  221.4820 C   0  0  0  0  0  0  0  0  0  0  0  0
  139.6430   83.3660  221.4850 C   0  0  0  0  0  0  0  0  0  0  0  0
  138.7770   82.3890  221.9640 C   0  0  0  0  0  0  0  0  0  0  0  0
  139.2880   81.1820  222.4230 C   0  0  0  0  0  0  0  0  0  0  0  0
  142.9251   79.7045  224.1846 H   0  0  0  0  0  0  0  0  0  0  0  0
  143.1735   78.8186  222.6418 H   0  0  0  0  0  0  0  0  0  0  0  0
  143.0757   80.6122  222.6418 H   0  0  0  0  0  0  0  0  0  0  0  0
  140.6634   79.4178  223.8599 H   0  0  0  0  0  0  0  0  0  0  0  0
  140.4180   77.7060  222.3390 H   0  0  0  0  0  0  0  0  0  0  0  0
  140.1017   77.3489  219.4858 H   0  0  0  0  0  0  0  0  0  0  0  0
  141.5841   77.5948  217.7118 H   0  0  0  0  0  0  0  0  0  0  0  0
  142.9131   78.0635  218.7501 H   0  0  0  0  0  0  0  0  0  0  0  0
  141.8906   75.2360  218.0779 H   0  0  0  0  0  0  0  0  0  0  0  0
  143.5434   75.7504  218.0571 H   0  0  0  0  0  0  0  0  0  0  0  0
  142.7422   74.5098  220.2864 H   0  0  0  0  0  0  0  0  0  0  0  0
  143.5329   76.0289  220.6089 H   0  0  0  0  0  0  0  0  0  0  0  0
  138.6945   74.7666  220.7935 H   0  0  0  0  0  0  0  0  0  0  0  0
  140.1883   73.8682  220.3541 H   0  0  0  0  0  0  0  0  0  0  0  0
  138.7090   73.6370  222.9750 H   0  0  0  0  0  0  0  0  0  0  0  0
  139.2110   70.1720  222.4831 H   0  0  0  0  0  0  0  0  0  0  0  0
  138.8626   68.5851  224.3458 H   0  0  0  0  0  0  0  0  0  0  0  0
  139.1792   68.0249  226.7026 H   0  0  0  0  0  0  0  0  0  0  0  0
  141.2695   70.7555  229.2276 H   0  0  0  0  0  0  0  0  0  0  0  0
  141.5856   72.2984  227.3335 H   0  0  0  0  0  0  0  0  0  0  0  0
  142.5859   81.7236  221.9175 H   0  0  0  0  0  0  0  0  0  0  0  0
  141.6835   83.8607  221.1040 H   0  0  0  0  0  0  0  0  0  0  0  0
  139.2597   84.3296  221.1182 H   0  0  0  0  0  0  0  0  0  0  0  0
  137.6923   82.5714  221.9793 H   0  0  0  0  0  0  0  0  0  0  0  0
  138.5903   80.4197  222.8000 H   0  0  0  0  0  0  0  0  0  0  0  0
  1  2  1  0
  2  3  1  0
  3  4  1  0
  4  5  2  0
  4  6  1  0
  6  7  1  0
  7  8  1  0
  8  9  1  0
  9 10  1  0
 10 11  1  0
 11 12  2  0
 11 13  1  0
 13 14  1  0
 14 15  1  0
 15 16  2  0
 15 17  1  0
 17 18  2  0
 18 19  1  0
 19 20  2  0
 20 21  1  0
 21 22  2  0
 22 23  1  0
 22 24  1  0
 24 25  2  0
 25 26  1  0
 26 27  2  0
  2 28  1  0
 28 29  2  0
 29 30  1  0
 30 31  2  0
 31 32  1  0
 32 33  2  0
 10  6  1  0
 27 17  1  0
 33 28  1  0
 26 20  1  0
  1 34  1  0
  1 35  1  0
  1 36  1  0
  2 37  1  1
  3 38  1  0
  6 39  1  6
  7 40  1  0
  7 41  1  0
  8 42  1  0
  8 43  1  0
  9 44  1  0
  9 45  1  0
 13 46  1  0
 13 47  1  0
 14 48  1  0
 18 49  1  0
 19 50  1  0
 21 51  1  0
 24 52  1  0
 25 53  1  0
 29 54  1  0
 30 55  1  0
 31 56  1  0
 32 57  1  0
 33 58  1  0
M  END
>  <smiles>  (32) 
C[C@H](NC(=O)[C@H]1CCCN1C(=O)CNC(=O)c1ccc2cc(F)ccc2n1)c1ccccc1

>  <score_type>  (32) 
oracle

>  <origin>  (32) 
autodockgpu

>  <m_score__min__energy>  (32) 
-9.4700000000000006

>  <m_primary>  (32) 
energy

>  <rmsd>  (32) 
2.090020581295166

>  <m_score__min__rmsd>  (32) 
2.090020581295166

>  <meeko>  (32) 
{"free_energy": -8.73, "intermolecular_energy": -10.82, "internal_energy": -2.44, "cluster_size": 16, "cluster_id": 2, "rank_in_cluster": 11}

>  <energy>  (32) 
-8.8

>  <cluster_rmsd>  (32) 
0.78

>  <cluster>  (32) 
2

$$$$

     RDKit          3D

 58 61  0  0  0  0  0  0  0  0999 V2000
  140.6350   79.7620  219.3690 C   0  0  0  0  0  0  0  0  0  0  0  0
  141.7510   78.9520  220.0050 C   0  0  2  0  0  0  0  0  0  0  0  0
  141.4250   77.5590  219.7550 N   0  0  0  0  0  0  0  0  0  0  0  0
  142.4150   76.5440  219.6200 C   0  0  0  0  0  0  0  0  0  0  0  0
  143.6400   76.7730  219.7070 O   0  0  0  0  0  0  0  0  0  0  0  0
  141.9160   75.1500  219.3620 C   0  0  1  0  0  0  0  0  0  0  0  0
  143.1170   74.2930  219.0720 C   0  0  0  0  0  0  0  0  0  0  0  0
  142.8750   73.0680  219.9290 C   0  0  0  0  0  0  0  0  0  0  0  0
  142.2330   73.7260  221.1570 C   0  0  0  0  0  0  0  0  0  0  0  0
  141.2750   74.6250  220.5440 N   0  0  0  0  0  0  0  0  0  0  0  0
  139.9600   74.9720  220.9580 C   0  0  0  0  0  0  0  0  0  0  0  0
  139.6520   76.1360  221.3140 O   0  0  0  0  0  0  0  0  0  0  0  0
  138.9470   73.8740  220.9470 C   0  0  0  0  0  0  0  0  0  0  0  0
  139.0230   73.1320  222.1840 N   0  0  0  0  0  0  0  0  0  0  0  0
  139.6420   71.8430  222.1570 C   0  0  0  0  0  0  0  0  0  0  0  0
  140.1100   71.3710  221.0740 O   0  0  0  0  0  0  0  0  0  0  0  0
  139.7300   71.0720  223.4020 C   0  0  0  0  0  0  0  0  0  0  0  0
  139.2220   69.7840  223.4260 C   0  0  0  0  0  0  0  0  0  0  0  0
  139.2670   68.9950  224.5620 C   0  0  0  0  0  0  0  0  0  0  0  0
  139.8360   69.5010  225.7100 C   0  0  0  0  0  0  0  0  0  0  0  0
  139.9070   68.7540  226.8740 C   0  0  0  0  0  0  0  0  0  0  0  0
  140.4770   69.2780  228.0070 C   0  0  0  0  0  0  0  0  0  0  0  0
  140.5260   68.5100  229.1240 F   0  0  0  0  0  0  0  0  0  0  0  0
  140.9740   70.5520  227.9630 C   0  0  0  0  0  0  0  0  0  0  0  0
  140.9090   71.3090  226.8070 C   0  0  0  0  0  0  0  0  0  0  0  0
  140.3380   70.8050  225.6460 C   0  0  0  0  0  0  0  0  0  0  0  0
  140.2730   71.5380  224.5210 N   0  0  0  0  0  0  0  0  0  0  0  0
  141.8760   79.2610  221.4560 C   0  0  0  0  0  0  0  0  0  0  0  0
  142.4400   80.4690  221.8790 C   0  0  0  0  0  0  0  0  0  0  0  0
  142.5540   80.7520  223.2240 C   0  0  0  0  0  0  0  0  0  0  0  0
  142.1280   79.8790  224.1940 C   0  0  0  0  0  0  0  0  0  0  0  0
  141.5640   78.6720  223.7920 C   0  0  0  0  0  0  0  0  0  0  0  0
  141.4480   78.3840  222.4390 C   0  0  0  0  0  0  0  0  0  0  0  0
  140.0140   80.2127  220.1572 H   0  0  0  0  0  0  0  0  0  0  0  0
  141.0688   80.5569  218.7446 H   0  0  0  0  0  0  0  0  0  0  0  0
  140.0137   79.1031  218.7446 H   0  0  0  0  0  0  0  0  0  0  0  0
  142.7332   79.1968  219.5745 H   0  0  0  0  0  0  0  0  0  0  0  0
  140.4110   77.3250  219.6750 H   0  0  0  0  0  0  0  0  0  0  0  0
  141.1984   75.1564  218.5284 H   0  0  0  0  0  0  0  0  0  0  0  0
  143.1647   74.0267  218.0058 H   0  0  0  0  0  0  0  0  0  0  0  0
  144.0711   74.7945  219.2915 H   0  0  0  0  0  0  0  0  0  0  0  0
  142.1910   72.3575  219.4419 H   0  0  0  0  0  0  0  0  0  0  0  0
  143.7709   72.4659  220.1407 H   0  0  0  0  0  0  0  0  0  0  0  0
  141.7331   72.9821  221.7947 H   0  0  0  0  0  0  0  0  0  0  0  0
  142.9524   74.2269  221.8215 H   0  0  0  0  0  0  0  0  0  0  0  0
  137.9408   74.3054  220.8401 H   0  0  0  0  0  0  0  0  0  0  0  0
  139.1497   73.1985  220.1029 H   0  0  0  0  0  0  0  0  0  0  0  0
  138.6580   73.4690  223.0960 H   0  0  0  0  0  0  0  0  0  0  0  0
  138.7676   69.3744  222.5118 H   0  0  0  0  0  0  0  0  0  0  0  0
  138.8533   67.9758  224.5485 H   0  0  0  0  0  0  0  0  0  0  0  0
  139.5027   67.7311  226.8905 H   0  0  0  0  0  0  0  0  0  0  0  0
  141.4343   70.9827  228.8645 H   0  0  0  0  0  0  0  0  0  0  0  0
  141.3177   72.3303  226.8076 H   0  0  0  0  0  0  0  0  0  0  0  0
  142.7946   81.1973  221.1348 H   0  0  0  0  0  0  0  0  0  0  0  0
  143.0013   81.7093  223.5297 H   0  0  0  0  0  0  0  0  0  0  0  0
  142.2298   80.1270  225.2608 H   0  0  0  0  0  0  0  0  0  0  0  0
  141.2117   77.9495  224.5429 H   0  0  0  0  0  0  0  0  0  0  0  0
  141.0005   77.4257  222.1369 H   0  0  0  0  0  0  0  0  0  0  0  0
  1  2  1  0
  2  3  1  0
  3  4  1  0
  4  5  2  0
  4  6  1  0
  6  7  1  0
  7  8  1  0
  8  9  1  0
  9 10  1  0
 10 11  1  0
 11 12  2  0
 11 13  1  0
 13 14  1  0
 14 15  1  0
 15 16  2  0
 15 17  1  0
 17 18  2  0
 18 19  1  0
 19 20  2  0
 20 21  1  0
 21 22  2  0
 22 23  1  0
 22 24  1  0
 24 25  2  0
 25 26  1  0
 26 27  2  0
  2 28  1  0
 28 29  2  0
 29 30  1  0
 30 31  2  0
 31 32  1  0
 32 33  2  0
 10  6  1  0
 27 17  1  0
 33 28  1  0
 26 20  1  0
  1 34  1  0
  1 35  1  0
  1 36  1  0
  2 37  1  6
  3 38  1  0
  6 39  1  6
  7 40  1  0
  7 41  1  0
  8 42  1  0
  8 43  1  0
  9 44  1  0
  9 45  1  0
 13 46  1  0
 13 47  1  0
 14 48  1  0
 18 49  1  0
 19 50  1  0
 21 51  1  0
 24 52  1  0
 25 53  1  0
 29 54  1  0
 30 55  1  0
 31 56  1  0
 32 57  1  0
 33 58  1  0
M  END
>  <smiles>  (33) 
C[C@H](NC(=O)[C@H]1CCCN1C(=O)CNC(=O)c1ccc2cc(F)ccc2n1)c1ccccc1

>  <score_type>  (33) 
oracle

>  <origin>  (33) 
autodockgpu

>  <m_score__min__energy>  (33) 
-9.4700000000000006

>  <m_primary>  (33) 
energy

>  <rmsd>  (33) 
3.160875717538509

>  <m_score__min__rmsd>  (33) 
3.160875717538509

>  <meeko>  (33) 
{"free_energy": -8.56, "intermolecular_energy": -10.65, "internal_energy": -2.82, "cluster_size": 22, "cluster_id": 1, "rank_in_cluster": 20}

>  <energy>  (33) 
-8.73

>  <cluster_rmsd>  (33) 
0.79

>  <cluster>  (33) 
2

$$$$

     RDKit          3D

 58 61  0  0  0  0  0  0  0  0999 V2000
  140.4270   78.8650  219.6680 C   0  0  0  0  0  0  0  0  0  0  0  0
  141.8250   78.6320  220.2130 C   0  0  2  0  0  0  0  0  0  0  0  0
  142.0510   77.1990  220.1290 N   0  0  0  0  0  0  0  0  0  0  0  0
  142.0560   76.4880  218.8960 C   0  0  0  0  0  0  0  0  0  0  0  0
  141.8680   77.0390  217.7900 O   0  0  0  0  0  0  0  0  0  0  0  0
  142.3050   75.0070  218.9760 C   0  0  1  0  0  0  0  0  0  0  0  0
  143.6260   74.7410  218.3110 C   0  0  0  0  0  0  0  0  0  0  0  0
  144.3230   73.8250  219.2950 C   0  0  0  0  0  0  0  0  0  0  0  0
  143.8300   74.4300  220.6160 C   0  0  0  0  0  0  0  0  0  0  0  0
  142.4130   74.5950  220.3550 N   0  0  0  0  0  0  0  0  0  0  0  0
  141.3010   74.4110  221.2210 C   0  0  0  0  0  0  0  0  0  0  0  0
  140.9530   75.2770  222.0610 O   0  0  0  0  0  0  0  0  0  0  0  0
  140.5560   73.1240  221.0830 C   0  0  0  0  0  0  0  0  0  0  0  0
  140.5990   72.4030  222.3340 N   0  0  0  0  0  0  0  0  0  0  0  0
  139.8250   71.2050  222.4450 C   0  0  0  0  0  0  0  0  0  0  0  0
  139.1240   70.7930  221.4690 O   0  0  0  0  0  0  0  0  0  0  0  0
  139.8530   70.4570  223.7060 C   0  0  0  0  0  0  0  0  0  0  0  0
  139.2620   69.2050  223.7520 C   0  0  0  0  0  0  0  0  0  0  0  0
  139.2470   68.4390  224.9040 C   0  0  0  0  0  0  0  0  0  0  0  0
  139.8380   68.9310  226.0480 C   0  0  0  0  0  0  0  0  0  0  0  0
  139.8510   68.2060  227.2270 C   0  0  0  0  0  0  0  0  0  0  0  0
  140.4460   68.7160  228.3540 C   0  0  0  0  0  0  0  0  0  0  0  0
  140.4360   67.9700  229.4870 F   0  0  0  0  0  0  0  0  0  0  0  0
  141.0250   69.9540  228.2890 C   0  0  0  0  0  0  0  0  0  0  0  0
  141.0180   70.6880  227.1160 C   0  0  0  0  0  0  0  0  0  0  0  0
  140.4240   70.1980  225.9610 C   0  0  0  0  0  0  0  0  0  0  0  0
  140.4160   70.9100  224.8210 N   0  0  0  0  0  0  0  0  0  0  0  0
  141.9520   79.1540  221.6010 C   0  0  0  0  0  0  0  0  0  0  0  0
  142.5200   80.4100  221.8380 C   0  0  0  0  0  0  0  0  0  0  0  0
  142.6360   80.8900  223.1260 C   0  0  0  0  0  0  0  0  0  0  0  0
  142.2080   80.1720  224.2160 C   0  0  0  0  0  0  0  0  0  0  0  0
  141.6420   78.9210  223.9990 C   0  0  0  0  0  0  0  0  0  0  0  0
  141.5230   78.4350  222.7040 C   0  0  0  0  0  0  0  0  0  0  0  0
  139.7223   78.9825  220.5044 H   0  0  0  0  0  0  0  0  0  0  0  0
  140.4207   79.7766  219.0524 H   0  0  0  0  0  0  0  0  0  0  0  0
  140.1254   78.0047  219.0524 H   0  0  0  0  0  0  0  0  0  0  0  0
  142.5880   79.1729  219.6340 H   0  0  0  0  0  0  0  0  0  0  0  0
  142.2120   76.7000  221.0310 H   0  0  0  0  0  0  0  0  0  0  0  0
  141.4803   74.4606  218.4951 H   0  0  0  0  0  0  0  0  0  0  0  0
  143.4868   74.2450  217.3391 H   0  0  0  0  0  0  0  0  0  0  0  0
  144.1946   75.6572  218.0933 H   0  0  0  0  0  0  0  0  0  0  0  0
  144.0004   72.7798  219.1790 H   0  0  0  0  0  0  0  0  0  0  0  0
  145.4166   73.7751  219.1875 H   0  0  0  0  0  0  0  0  0  0  0  0
  144.0051   73.7464  221.4598 H   0  0  0  0  0  0  0  0  0  0  0  0
  144.3427   75.3612  220.8987 H   0  0  0  0  0  0  0  0  0  0  0  0
  139.5094   73.3335  220.8169 H   0  0  0  0  0  0  0  0  0  0  0  0
  141.0216   72.5150  220.2941 H   0  0  0  0  0  0  0  0  0  0  0  0
  141.1530   72.6940  223.1630 H   0  0  0  0  0  0  0  0  0  0  0  0
  138.7889   68.8066  222.8424 H   0  0  0  0  0  0  0  0  0  0  0  0
  138.7688   67.4484  224.9070 H   0  0  0  0  0  0  0  0  0  0  0  0
  139.3804   67.2124  227.2612 H   0  0  0  0  0  0  0  0  0  0  0  0
  141.5048   70.3735  229.1856 H   0  0  0  0  0  0  0  0  0  0  0  0
  141.4929   71.6801  227.0984 H   0  0  0  0  0  0  0  0  0  0  0  0
  142.8759   81.0180  220.9932 H   0  0  0  0  0  0  0  0  0  0  0  0
  143.0863   81.8808  223.2856 H   0  0  0  0  0  0  0  0  0  0  0  0
  142.3104   80.5763  225.2339 H   0  0  0  0  0  0  0  0  0  0  0  0
  141.2900   78.3188  224.8496 H   0  0  0  0  0  0  0  0  0  0  0  0
  141.0720   77.4438  222.5486 H   0  0  0  0  0  0  0  0  0  0  0  0
  1  2  1  0
  2  3  1  0
  3  4  1  0
  4  5  2  0
  4  6  1  0
  6  7  1  0
  7  8  1  0
  8  9  1  0
  9 10  1  0
 10 11  1  0
 11 12  2  0
 11 13  1  0
 13 14  1  0
 14 15  1  0
 15 16  2  0
 15 17  1  0
 17 18  2  0
 18 19  1  0
 19 20  2  0
 20 21  1  0
 21 22  2  0
 22 23  1  0
 22 24  1  0
 24 25  2  0
 25 26  1  0
 26 27  2  0
  2 28  1  0
 28 29  2  0
 29 30  1  0
 30 31  2  0
 31 32  1  0
 32 33  2  0
 10  6  1  0
 27 17  1  0
 33 28  1  0
 26 20  1  0
  1 34  1  0
  1 35  1  0
  1 36  1  0
  2 37  1  6
  3 38  1  0
  6 39  1  6
  7 40  1  0
  7 41  1  0
  8 42  1  0
  8 43  1  0
  9 44  1  0
  9 45  1  0
 13 46  1  0
 13 47  1  0
 14 48  1  0
 18 49  1  0
 19 50  1  0
 21 51  1  0
 24 52  1  0
 25 53  1  0
 29 54  1  0
 30 55  1  0
 31 56  1  0
 32 57  1  0
 33 58  1  0
M  END
>  <smiles>  (34) 
C[C@H](NC(=O)[C@H]1CCCN1C(=O)CNC(=O)c1ccc2cc(F)ccc2n1)c1ccccc1

>  <score_type>  (34) 
oracle

>  <origin>  (34) 
autodockgpu

>  <m_score__min__energy>  (34) 
-9.4700000000000006

>  <m_primary>  (34) 
energy

>  <rmsd>  (34) 
3.3585697724196955

>  <m_score__min__rmsd>  (34) 
3.3585697724196955

>  <meeko>  (34) 
{"free_energy": -8.86, "intermolecular_energy": -10.95, "internal_energy": -2.74, "cluster_size": 22, "cluster_id": 1, "rank_in_cluster": 9}

>  <energy>  (34) 
-8.64

>  <cluster_rmsd>  (34) 
0.6

>  <cluster>  (34) 
2

$$$$

     RDKit          3D

 58 61  0  0  0  0  0  0  0  0999 V2000
  139.8260   76.4370  222.3420 C   0  0  0  0  0  0  0  0  0  0  0  0
  140.6590   77.2710  221.3830 C   0  0  2  0  0  0  0  0  0  0  0  0
  141.6260   76.3580  220.7990 N   0  0  0  0  0  0  0  0  0  0  0  0
  141.3880   75.6520  219.5860 C   0  0  0  0  0  0  0  0  0  0  0  0
  140.3310   75.7630  218.9290 O   0  0  0  0  0  0  0  0  0  0  0  0
  142.4890   74.7440  219.1110 C   0  0  1  0  0  0  0  0  0  0  0  0
  143.7880   75.3340  219.5830 C   0  0  0  0  0  0  0  0  0  0  0  0
  144.5130   74.1380  220.1630 C   0  0  0  0  0  0  0  0  0  0  0  0
  143.3300   73.3840  220.7820 C   0  0  0  0  0  0  0  0  0  0  0  0
  142.3520   73.4400  219.7120 N   0  0  0  0  0  0  0  0  0  0  0  0
  141.4170   72.4590  219.2830 C   0  0  0  0  0  0  0  0  0  0  0  0
  141.7280   71.5330  218.4930 O   0  0  0  0  0  0  0  0  0  0  0  0
  140.0290   72.5810  219.8220 C   0  0  0  0  0  0  0  0  0  0  0  0
  139.8940   71.7630  221.0040 N   0  0  0  0  0  0  0  0  0  0  0  0
  140.2570   72.3380  222.2630 C   0  0  0  0  0  0  0  0  0  0  0  0
  140.6830   73.5330  222.3320 O   0  0  0  0  0  0  0  0  0  0  0  0
  140.1270   71.5250  223.4770 C   0  0  0  0  0  0  0  0  0  0  0  0
  139.4120   70.3410  223.4140 C   0  0  0  0  0  0  0  0  0  0  0  0
  139.2450   69.5210  224.5160 C   0  0  0  0  0  0  0  0  0  0  0  0
  139.8070   69.8890  225.7200 C   0  0  0  0  0  0  0  0  0  0  0  0
  139.6710   69.1050  226.8530 C   0  0  0  0  0  0  0  0  0  0  0  0
  140.2390   69.4900  228.0420 C   0  0  0  0  0  0  0  0  0  0  0  0
  140.0800   68.6910  229.1260 F   0  0  0  0  0  0  0  0  0  0  0  0
  140.9420   70.6630  228.0840 C   0  0  0  0  0  0  0  0  0  0  0  0
  141.0850   71.4550  226.9580 C   0  0  0  0  0  0  0  0  0  0  0  0
  140.5220   71.0910  225.7430 C   0  0  0  0  0  0  0  0  0  0  0  0
  140.6590   71.8580  224.6480 N   0  0  0  0  0  0  0  0  0  0  0  0
  141.3000   78.4140  222.0880 C   0  0  0  0  0  0  0  0  0  0  0  0
  141.4580   78.3930  223.4780 C   0  0  0  0  0  0  0  0  0  0  0  0
  142.0530   79.4550  224.1270 C   0  0  0  0  0  0  0  0  0  0  0  0
  142.5090   80.5620  223.4550 C   0  0  0  0  0  0  0  0  0  0  0  0
  142.3590   80.6000  222.0730 C   0  0  0  0  0  0  0  0  0  0  0  0
  141.7610   79.5330  221.4160 C   0  0  0  0  0  0  0  0  0  0  0  0
  140.0875   76.6988  223.3779 H   0  0  0  0  0  0  0  0  0  0  0  0
  138.7583   76.6389  222.1712 H   0  0  0  0  0  0  0  0  0  0  0  0
  140.0292   75.3695  222.1712 H   0  0  0  0  0  0  0  0  0  0  0  0
  140.0441   77.7300  220.5949 H   0  0  0  0  0  0  0  0  0  0  0  0
  142.5230   76.2360  221.3170 H   0  0  0  0  0  0  0  0  0  0  0  0
  142.4498   74.6475  218.0159 H   0  0  0  0  0  0  0  0  0  0  0  0
  144.3518   75.7703  218.7453 H   0  0  0  0  0  0  0  0  0  0  0  0
  143.6556   76.1533  220.3050 H   0  0  0  0  0  0  0  0  0  0  0  0
  145.0117   73.5449  219.3823 H   0  0  0  0  0  0  0  0  0  0  0  0
  145.3241   74.3833  220.8643 H   0  0  0  0  0  0  0  0  0  0  0  0
  143.5994   72.3455  221.0248 H   0  0  0  0  0  0  0  0  0  0  0  0
  142.9767   73.8111  221.7322 H   0  0  0  0  0  0  0  0  0  0  0  0
  139.8272   73.6314  220.0789 H   0  0  0  0  0  0  0  0  0  0  0  0
  139.3107   72.2432  219.0604 H   0  0  0  0  0  0  0  0  0  0  0  0
  139.5510   70.7820  221.0060 H   0  0  0  0  0  0  0  0  0  0  0  0
  138.9617   70.0422  222.4559 H   0  0  0  0  0  0  0  0  0  0  0  0
  138.6706   68.5866  224.4324 H   0  0  0  0  0  0  0  0  0  0  0  0
  139.1025   68.1648  226.7999 H   0  0  0  0  0  0  0  0  0  0  0  0
  141.4023   70.9827  229.0306 H   0  0  0  0  0  0  0  0  0  0  0  0
  141.6567   72.3922  227.0276 H   0  0  0  0  0  0  0  0  0  0  0  0
  141.1062   77.5257  224.0560 H   0  0  0  0  0  0  0  0  0  0  0  0
  142.1660   79.4135  225.2204 H   0  0  0  0  0  0  0  0  0  0  0  0
  142.9803   81.3963  223.9952 H   0  0  0  0  0  0  0  0  0  0  0  0
  142.7126   81.4717  221.5028 H   0  0  0  0  0  0  0  0  0  0  0  0
  141.6496   79.5785  220.3226 H   0  0  0  0  0  0  0  0  0  0  0  0
  1  2  1  0
  2  3  1  0
  3  4  1  0
  4  5  2  0
  4  6  1  0
  6  7  1  0
  7  8  1  0
  8  9  1  0
  9 10  1  0
 10 11  1  0
 11 12  2  0
 11 13  1  0
 13 14  1  0
 14 15  1  0
 15 16  2  0
 15 17  1  0
 17 18  2  0
 18 19  1  0
 19 20  2  0
 20 21  1  0
 21 22  2  0
 22 23  1  0
 22 24  1  0
 24 25  2  0
 25 26  1  0
 26 27  2  0
  2 28  1  0
 28 29  2  0
 29 30  1  0
 30 31  2  0
 31 32  1  0
 32 33  2  0
 10  6  1  0
 27 17  1  0
 33 28  1  0
 26 20  1  0
  1 34  1  0
  1 35  1  0
  1 36  1  0
  2 37  1  6
  3 38  1  0
  6 39  1  6
  7 40  1  0
  7 41  1  0
  8 42  1  0
  8 43  1  0
  9 44  1  0
  9 45  1  0
 13 46  1  0
 13 47  1  0
 14 48  1  0
 18 49  1  0
 19 50  1  0
 21 51  1  0
 24 52  1  0
 25 53  1  0
 29 54  1  0
 30 55  1  0
 31 56  1  0
 32 57  1  0
 33 58  1  0
M  END
>  <smiles>  (35) 
C[C@H](NC(=O)[C@H]1CCCN1C(=O)CNC(=O)c1ccc2cc(F)ccc2n1)c1ccccc1

>  <score_type>  (35) 
oracle

>  <origin>  (35) 
autodockgpu

>  <m_score__min__energy>  (35) 
-9.4700000000000006

>  <m_primary>  (35) 
energy

>  <rmsd>  (35) 
3.3094405464405283

>  <m_score__min__rmsd>  (35) 
3.3094405464405283

>  <meeko>  (35) 
{"free_energy": -9.41, "intermolecular_energy": -11.5, "internal_energy": -2.16, "cluster_size": 22, "cluster_id": 1, "rank_in_cluster": 2}

>  <energy>  (35) 
-8.4

>  <cluster_rmsd>  (35) 
1.86

>  <cluster>  (35) 
2

$$$$

     RDKit          3D

 58 61  0  0  0  0  0  0  0  0999 V2000
  138.6680   79.0410  223.3890 C   0  0  0  0  0  0  0  0  0  0  0  0
  139.6960   79.2630  222.2940 C   0  0  2  0  0  0  0  0  0  0  0  0
  139.8920   77.9680  221.6640 N   0  0  0  0  0  0  0  0  0  0  0  0
  140.2430   77.8210  220.2920 C   0  0  0  0  0  0  0  0  0  0  0  0
  140.4100   78.7910  219.5240 O   0  0  0  0  0  0  0  0  0  0  0  0
  140.4100   76.4140  219.7900 C   0  0  1  0  0  0  0  0  0  0  0  0
  141.7440   76.3420  219.1010 C   0  0  0  0  0  0  0  0  0  0  0  0
  142.3470   75.0710  219.6610 C   0  0  0  0  0  0  0  0  0  0  0  0
  141.8280   75.1430  221.1030 C   0  0  0  0  0  0  0  0  0  0  0  0
  140.4350   75.4900  220.8980 N   0  0  0  0  0  0  0  0  0  0  0  0
  139.2770   75.0550  221.5990 C   0  0  0  0  0  0  0  0  0  0  0  0
  138.7210   75.7570  222.4800 O   0  0  0  0  0  0  0  0  0  0  0  0
  138.7450   73.7070  221.2350 C   0  0  0  0  0  0  0  0  0  0  0  0
  138.7610   72.8490  222.3970 N   0  0  0  0  0  0  0  0  0  0  0  0
  139.9240   72.0490  222.6240 C   0  0  0  0  0  0  0  0  0  0  0  0
  140.9110   72.0960  221.8250 O   0  0  0  0  0  0  0  0  0  0  0  0
  139.9620   71.1700  223.7980 C   0  0  0  0  0  0  0  0  0  0  0  0
  139.4250   69.8980  223.6960 C   0  0  0  0  0  0  0  0  0  0  0  0
  139.4220   69.0110  224.7580 C   0  0  0  0  0  0  0  0  0  0  0  0
  139.9710   69.4010  225.9610 C   0  0  0  0  0  0  0  0  0  0  0  0
  139.9940   68.5530  227.0550 C   0  0  0  0  0  0  0  0  0  0  0  0
  140.5460   68.9620  228.2440 C   0  0  0  0  0  0  0  0  0  0  0  0
  140.5480   68.0980  229.2890 F   0  0  0  0  0  0  0  0  0  0  0  0
  141.0720   70.2220  228.3250 C   0  0  0  0  0  0  0  0  0  0  0  0
  141.0550   71.0780  227.2380 C   0  0  0  0  0  0  0  0  0  0  0  0
  140.5040   70.6930  226.0240 C   0  0  0  0  0  0  0  0  0  0  0  0
  140.4850   71.5230  224.9670 N   0  0  0  0  0  0  0  0  0  0  0  0
  140.9560   79.8280  222.8500 C   0  0  0  0  0  0  0  0  0  0  0  0
  142.1890   79.2330  222.5620 C   0  0  0  0  0  0  0  0  0  0  0  0
  143.3540   79.7600  223.0790 C   0  0  0  0  0  0  0  0  0  0  0  0
  143.3600   80.8710  223.8850 C   0  0  0  0  0  0  0  0  0  0  0  0
  142.1440   81.4760  224.1820 C   0  0  0  0  0  0  0  0  0  0  0  0
  140.9690   80.9480  223.6630 C   0  0  0  0  0  0  0  0  0  0  0  0
  139.1509   79.1453  224.3718 H   0  0  0  0  0  0  0  0  0  0  0  0
  137.8646   79.7863  223.2943 H   0  0  0  0  0  0  0  0  0  0  0  0
  138.2438   78.0305  223.2943 H   0  0  0  0  0  0  0  0  0  0  0  0
  139.3549   80.0005  221.5525 H   0  0  0  0  0  0  0  0  0  0  0  0
  139.7620   77.1300  222.2720 H   0  0  0  0  0  0  0  0  0  0  0  0
  139.5796   76.1548  219.1168 H   0  0  0  0  0  0  0  0  0  0  0  0
  141.6225   76.2748  218.0098 H   0  0  0  0  0  0  0  0  0  0  0  0
  142.3692   77.2308  219.2718 H   0  0  0  0  0  0  0  0  0  0  0  0
  141.9755   74.1777  219.1375 H   0  0  0  0  0  0  0  0  0  0  0  0
  143.4402   74.9954  219.5652 H   0  0  0  0  0  0  0  0  0  0  0  0
  141.9287   74.1742  221.6141 H   0  0  0  0  0  0  0  0  0  0  0  0
  142.3758   75.8535  221.7394 H   0  0  0  0  0  0  0  0  0  0  0  0
  137.7127   73.8077  220.8686 H   0  0  0  0  0  0  0  0  0  0  0  0
  139.3743   73.2667  220.4475 H   0  0  0  0  0  0  0  0  0  0  0  0
  137.9840   72.7710  223.0820 H   0  0  0  0  0  0  0  0  0  0  0  0
  138.9859   69.5818  222.7383 H   0  0  0  0  0  0  0  0  0  0  0  0
  138.9870   68.0071  224.6438 H   0  0  0  0  0  0  0  0  0  0  0  0
  139.5665   67.5430  226.9711 H   0  0  0  0  0  0  0  0  0  0  0  0
  141.5169   70.5612  229.2721 H   0  0  0  0  0  0  0  0  0  0  0  0
  141.4872   72.0846  227.3383 H   0  0  0  0  0  0  0  0  0  0  0  0
  142.2295   78.3406  221.9201 H   0  0  0  0  0  0  0  0  0  0  0  0
  144.3105   79.2736  222.8373 H   0  0  0  0  0  0  0  0  0  0  0  0
  144.3026   81.2723  224.2856 H   0  0  0  0  0  0  0  0  0  0  0  0
  142.1127   82.3682  224.8247 H   0  0  0  0  0  0  0  0  0  0  0  0
  140.0145   81.4375  223.9068 H   0  0  0  0  0  0  0  0  0  0  0  0
  1  2  1  0
  2  3  1  0
  3  4  1  0
  4  5  2  0
  4  6  1  0
  6  7  1  0
  7  8  1  0
  8  9  1  0
  9 10  1  0
 10 11  1  0
 11 12  2  0
 11 13  1  0
 13 14  1  0
 14 15  1  0
 15 16  2  0
 15 17  1  0
 17 18  2  0
 18 19  1  0
 19 20  2  0
 20 21  1  0
 21 22  2  0
 22 23  1  0
 22 24  1  0
 24 25  2  0
 25 26  1  0
 26 27  2  0
  2 28  1  0
 28 29  2  0
 29 30  1  0
 30 31  2  0
 31 32  1  0
 32 33  2  0
 10  6  1  0
 27 17  1  0
 33 28  1  0
 26 20  1  0
  1 34  1  0
  1 35  1  0
  1 36  1  0
  2 37  1  6
  3 38  1  0
  6 39  1  6
  7 40  1  0
  7 41  1  0
  8 42  1  0
  8 43  1  0
  9 44  1  0
  9 45  1  0
 13 46  1  0
 13 47  1  0
 14 48  1  0
 18 49  1  0
 19 50  1  0
 21 51  1  0
 24 52  1  0
 25 53  1  0
 29 54  1  0
 30 55  1  0
 31 56  1  0
 32 57  1  0
 33 58  1  0
M  END
>  <smiles>  (36) 
C[C@H](NC(=O)[C@H]1CCCN1C(=O)CNC(=O)c1ccc2cc(F)ccc2n1)c1ccccc1

>  <score_type>  (36) 
oracle

>  <origin>  (36) 
autodockgpu

>  <m_score__min__energy>  (36) 
-9.4700000000000006

>  <m_primary>  (36) 
energy

>  <rmsd>  (36) 
2.8774853550692354

>  <m_score__min__rmsd>  (36) 
2.8774853550692354

>  <meeko>  (36) 
{"free_energy": -8.75, "intermolecular_energy": -10.84, "internal_energy": -2.61, "cluster_size": 22, "cluster_id": 1, "rank_in_cluster": 15}

>  <energy>  (36) 
-8.21

>  <cluster_rmsd>  (36) 
1.94

>  <cluster>  (36) 
2

$$$$

     RDKit          3D

 58 61  0  0  0  0  0  0  0  0999 V2000
  142.9840   79.8040  222.7280 C   0  0  0  0  0  0  0  0  0  0  0  0
  141.7420   79.0070  223.0870 C   0  0  2  0  0  0  0  0  0  0  0  0
  141.6560   77.9390  222.1070 N   0  0  0  0  0  0  0  0  0  0  0  0
  141.5220   78.1800  220.7100 C   0  0  0  0  0  0  0  0  0  0  0  0
  141.4680   79.3280  220.2190 O   0  0  0  0  0  0  0  0  0  0  0  0
  141.4460   76.9680  219.8230 C   0  0  1  0  0  0  0  0  0  0  0  0
  142.6400   77.0090  218.9100 C   0  0  0  0  0  0  0  0  0  0  0  0
  143.1730   75.5940  218.9850 C   0  0  0  0  0  0  0  0  0  0  0  0
  142.8970   75.2840  220.4620 C   0  0  0  0  0  0  0  0  0  0  0  0
  141.5380   75.7660  220.6160 N   0  0  0  0  0  0  0  0  0  0  0  0
  140.4620   75.2260  221.3720 C   0  0  0  0  0  0  0  0  0  0  0  0
  139.8400   75.8980  222.2320 O   0  0  0  0  0  0  0  0  0  0  0  0
  140.0990   73.8040  221.0920 C   0  0  0  0  0  0  0  0  0  0  0  0
  139.9290   73.0930  222.3380 N   0  0  0  0  0  0  0  0  0  0  0  0
  140.3590   71.7310  222.3970 C   0  0  0  0  0  0  0  0  0  0  0  0
  140.8770   71.1680  221.3820 O   0  0  0  0  0  0  0  0  0  0  0  0
  140.1960   70.9890  223.6520 C   0  0  0  0  0  0  0  0  0  0  0  0
  139.5150   69.7830  223.6300 C   0  0  0  0  0  0  0  0  0  0  0  0
  139.3190   69.0260  224.7720 C   0  0  0  0  0  0  0  0  0  0  0  0
  139.8160   69.4820  225.9740 C   0  0  0  0  0  0  0  0  0  0  0  0
  139.6480   68.7640  227.1470 C   0  0  0  0  0  0  0  0  0  0  0  0
  140.1510   69.2360  228.3330 C   0  0  0  0  0  0  0  0  0  0  0  0
  139.9630   68.4990  229.4560 F   0  0  0  0  0  0  0  0  0  0  0  0
  140.8200   70.4290  228.3340 C   0  0  0  0  0  0  0  0  0  0  0  0
  140.9940   71.1560  227.1700 C   0  0  0  0  0  0  0  0  0  0  0  0
  140.4970   70.7030  225.9550 C   0  0  0  0  0  0  0  0  0  0  0  0
  140.6640   71.4070  224.8230 N   0  0  0  0  0  0  0  0  0  0  0  0
  140.5340   79.8760  223.0980 C   0  0  0  0  0  0  0  0  0  0  0  0
  140.5110   81.0690  222.3660 C   0  0  0  0  0  0  0  0  0  0  0  0
  139.3890   81.8720  222.3790 C   0  0  0  0  0  0  0  0  0  0  0  0
  138.2630   81.5460  223.0950 C   0  0  0  0  0  0  0  0  0  0  0  0
  138.2690   80.3640  223.8280 C   0  0  0  0  0  0  0  0  0  0  0  0
  139.3960   79.5540  223.8180 C   0  0  0  0  0  0  0  0  0  0  0  0
  143.4902   80.1288  223.6490 H   0  0  0  0  0  0  0  0  0  0  0  0
  143.6657   79.1743  222.1375 H   0  0  0  0  0  0  0  0  0  0  0  0
  142.6956   80.6861  222.1375 H   0  0  0  0  0  0  0  0  0  0  0  0
  141.8018   78.5878  224.1023 H   0  0  0  0  0  0  0  0  0  0  0  0
  141.6970   76.9640  222.4750 H   0  0  0  0  0  0  0  0  0  0  0  0
  140.4969   76.9678  219.2669 H   0  0  0  0  0  0  0  0  0  0  0  0
  142.3436   77.2661  217.8824 H   0  0  0  0  0  0  0  0  0  0  0  0
  143.3817   77.7681  219.1993 H   0  0  0  0  0  0  0  0  0  0  0  0
  142.6243   74.9150  218.3158 H   0  0  0  0  0  0  0  0  0  0  0  0
  144.2218   75.4767  218.6749 H   0  0  0  0  0  0  0  0  0  0  0  0
  142.9648   74.2049  220.6645 H   0  0  0  0  0  0  0  0  0  0  0  0
  143.6151   75.7450  221.1562 H   0  0  0  0  0  0  0  0  0  0  0  0
  139.1594   73.7716  220.5209 H   0  0  0  0  0  0  0  0  0  0  0  0
  140.9016   73.3303  220.5076 H   0  0  0  0  0  0  0  0  0  0  0  0
  139.5130   73.5020  223.1970 H   0  0  0  0  0  0  0  0  0  0  0  0
  139.1167   69.4147  222.6731 H   0  0  0  0  0  0  0  0  0  0  0  0
  138.7733   68.0722  224.7210 H   0  0  0  0  0  0  0  0  0  0  0  0
  139.1064   67.8068  227.1272 H   0  0  0  0  0  0  0  0  0  0  0  0
  141.2276   70.8179  229.2788 H   0  0  0  0  0  0  0  0  0  0  0  0
  141.5369   72.1120  227.2076 H   0  0  0  0  0  0  0  0  0  0  0  0
  141.3913   81.3676  221.7778 H   0  0  0  0  0  0  0  0  0  0  0  0
  139.3965   82.8049  221.7962 H   0  0  0  0  0  0  0  0  0  0  0  0
  137.3802   82.2022  223.0888 H   0  0  0  0  0  0  0  0  0  0  0  0
  137.3844   80.0724  224.4131 H   0  0  0  0  0  0  0  0  0  0  0  0
  139.3847   78.6226  224.4032 H   0  0  0  0  0  0  0  0  0  0  0  0
  1  2  1  0
  2  3  1  0
  3  4  1  0
  4  5  2  0
  4  6  1  0
  6  7  1  0
  7  8  1  0
  8  9  1  0
  9 10  1  0
 10 11  1  0
 11 12  2  0
 11 13  1  0
 13 14  1  0
 14 15  1  0
 15 16  2  0
 15 17  1  0
 17 18  2  0
 18 19  1  0
 19 20  2  0
 20 21  1  0
 21 22  2  0
 22 23  1  0
 22 24  1  0
 24 25  2  0
 25 26  1  0
 26 27  2  0
  2 28  1  0
 28 29  2  0
 29 30  1  0
 30 31  2  0
 31 32  1  0
 32 33  2  0
 10  6  1  0
 27 17  1  0
 33 28  1  0
 26 20  1  0
  1 34  1  0
  1 35  1  0
  1 36  1  0
  2 37  1  1
  3 38  1  0
  6 39  1  6
  7 40  1  0
  7 41  1  0
  8 42  1  0
  8 43  1  0
  9 44  1  0
  9 45  1  0
 13 46  1  0
 13 47  1  0
 14 48  1  0
 18 49  1  0
 19 50  1  0
 21 51  1  0
 24 52  1  0
 25 53  1  0
 29 54  1  0
 30 55  1  0
 31 56  1  0
 32 57  1  0
 33 58  1  0
M  END
>  <smiles>  (37) 
C[C@H](NC(=O)[C@H]1CCCN1C(=O)CNC(=O)c1ccc2cc(F)ccc2n1)c1ccccc1

>  <score_type>  (37) 
oracle

>  <origin>  (37) 
autodockgpu

>  <m_score__min__energy>  (37) 
-9.4700000000000006

>  <m_primary>  (37) 
energy

>  <rmsd>  (37) 
2.344396411748838

>  <m_score__min__rmsd>  (37) 
2.344396411748838

>  <meeko>  (37) 
{"free_energy": -9.28, "intermolecular_energy": -11.37, "internal_energy": -2.64, "cluster_size": 16, "cluster_id": 2, "rank_in_cluster": 4}

>  <energy>  (37) 
-8.12

>  <cluster_rmsd>  (37) 
1.94

>  <cluster>  (37) 
2

$$$$

     RDKit          3D

 58 61  0  0  0  0  0  0  0  0999 V2000
  139.6830   76.4210  222.4040 C   0  0  0  0  0  0  0  0  0  0  0  0
  140.5820   77.1570  221.4260 C   0  0  2  0  0  0  0  0  0  0  0  0
  141.4990   76.1610  220.9000 N   0  0  0  0  0  0  0  0  0  0  0  0
  141.7630   76.0100  219.5090 C   0  0  0  0  0  0  0  0  0  0  0  0
  141.2280   76.7230  218.6330 O   0  0  0  0  0  0  0  0  0  0  0  0
  142.7380   74.9330  219.1240 C   0  0  1  0  0  0  0  0  0  0  0  0
  144.0690   75.3040  219.7140 C   0  0  0  0  0  0  0  0  0  0  0  0
  144.5350   74.0080  220.3430 C   0  0  0  0  0  0  0  0  0  0  0  0
  143.1940   73.4610  220.8490 C   0  0  0  0  0  0  0  0  0  0  0  0
  142.3360   73.6710  219.6980 N   0  0  0  0  0  0  0  0  0  0  0  0
  141.2950   72.8540  219.1790 C   0  0  0  0  0  0  0  0  0  0  0  0
  141.4900   72.0190  218.2620 O   0  0  0  0  0  0  0  0  0  0  0  0
  139.9410   73.0370  219.7830 C   0  0  0  0  0  0  0  0  0  0  0  0
  139.8010   72.1720  220.9310 N   0  0  0  0  0  0  0  0  0  0  0  0
  140.2620   72.6560  222.1960 C   0  0  0  0  0  0  0  0  0  0  0  0
  140.7760   73.8120  222.3010 O   0  0  0  0  0  0  0  0  0  0  0  0
  140.1290   71.7930  223.3760 C   0  0  0  0  0  0  0  0  0  0  0  0
  139.4190   70.6100  223.2600 C   0  0  0  0  0  0  0  0  0  0  0  0
  139.2500   69.7450  224.3270 C   0  0  0  0  0  0  0  0  0  0  0  0
  139.8040   70.0650  225.5480 C   0  0  0  0  0  0  0  0  0  0  0  0
  139.6640   69.2350  226.6470 C   0  0  0  0  0  0  0  0  0  0  0  0
  140.2250   69.5740  227.8540 C   0  0  0  0  0  0  0  0  0  0  0  0
  140.0640   68.7300  228.9030 F   0  0  0  0  0  0  0  0  0  0  0  0
  140.9230   70.7470  227.9480 C   0  0  0  0  0  0  0  0  0  0  0  0
  141.0690   71.5850  226.8560 C   0  0  0  0  0  0  0  0  0  0  0  0
  140.5130   71.2680  225.6240 C   0  0  0  0  0  0  0  0  0  0  0  0
  140.6530   72.0810  224.5620 N   0  0  0  0  0  0  0  0  0  0  0  0
  141.2830   78.2880  222.0920 C   0  0  0  0  0  0  0  0  0  0  0  0
  141.4340   78.3100  223.4830 C   0  0  0  0  0  0  0  0  0  0  0  0
  142.0840   79.3610  224.0960 C   0  0  0  0  0  0  0  0  0  0  0  0
  142.6040   80.4150  223.3860 C   0  0  0  0  0  0  0  0  0  0  0  0
  142.4620   80.4100  222.0030 C   0  0  0  0  0  0  0  0  0  0  0  0
  141.8080   79.3550  221.3820 C   0  0  0  0  0  0  0  0  0  0  0  0
  139.9827   76.6664  223.4335 H   0  0  0  0  0  0  0  0  0  0  0  0
  138.6386   76.7267  222.2434 H   0  0  0  0  0  0  0  0  0  0  0  0
  139.7765   75.3368  222.2434 H   0  0  0  0  0  0  0  0  0  0  0  0
  140.0092   77.6174  220.6075 H   0  0  0  0  0  0  0  0  0  0  0  0
  141.9670   75.5440  221.5990 H   0  0  0  0  0  0  0  0  0  0  0  0
  142.7813   74.8396  218.0288 H   0  0  0  0  0  0  0  0  0  0  0  0
  144.7682   75.6386  218.9335 H   0  0  0  0  0  0  0  0  0  0  0  0
  144.0091   76.1368  220.4301 H   0  0  0  0  0  0  0  0  0  0  0  0
  144.9963   73.3376  219.6029 H   0  0  0  0  0  0  0  0  0  0  0  0
  145.3108   74.1199  221.1147 H   0  0  0  0  0  0  0  0  0  0  0  0
  143.2674   72.3937  221.1047 H   0  0  0  0  0  0  0  0  0  0  0  0
  142.8332   73.9452  221.7685 H   0  0  0  0  0  0  0  0  0  0  0  0
  139.8187   74.0842  220.0968 H   0  0  0  0  0  0  0  0  0  0  0  0
  139.1719   72.7831  219.0387 H   0  0  0  0  0  0  0  0  0  0  0  0
  139.3890   71.2190  220.9030 H   0  0  0  0  0  0  0  0  0  0  0  0
  138.9748   70.3492  222.2881 H   0  0  0  0  0  0  0  0  0  0  0  0
  138.6800   68.8126  224.2021 H   0  0  0  0  0  0  0  0  0  0  0  0
  139.0987   68.2961  226.5528 H   0  0  0  0  0  0  0  0  0  0  0  0
  141.3767   71.0294  228.9095 H   0  0  0  0  0  0  0  0  0  0  0  0
  141.6368   72.5206  226.9665 H   0  0  0  0  0  0  0  0  0  0  0  0
  141.0326   77.4854  224.0904 H   0  0  0  0  0  0  0  0  0  0  0  0
  142.1893   79.3545  225.1909 H   0  0  0  0  0  0  0  0  0  0  0  0
  143.1192   81.2412  223.8978 H   0  0  0  0  0  0  0  0  0  0  0  0
  142.8663   81.2388  221.4034 H   0  0  0  0  0  0  0  0  0  0  0  0
  141.7029   79.3667  220.2871 H   0  0  0  0  0  0  0  0  0  0  0  0
  1  2  1  0
  2  3  1  0
  3  4  1  0
  4  5  2  0
  4  6  1  0
  6  7  1  0
  7  8  1  0
  8  9  1  0
  9 10  1  0
 10 11  1  0
 11 12  2  0
 11 13  1  0
 13 14  1  0
 14 15  1  0
 15 16  2  0
 15 17  1  0
 17 18  2  0
 18 19  1  0
 19 20  2  0
 20 21  1  0
 21 22  2  0
 22 23  1  0
 22 24  1  0
 24 25  2  0
 25 26  1  0
 26 27  2  0
  2 28  1  0
 28 29  2  0
 29 30  1  0
 30 31  2  0
 31 32  1  0
 32 33  2  0
 10  6  1  0
 27 17  1  0
 33 28  1  0
 26 20  1  0
  1 34  1  0
  1 35  1  0
  1 36  1  0
  2 37  1  6
  3 38  1  0
  6 39  1  6
  7 40  1  0
  7 41  1  0
  8 42  1  0
  8 43  1  0
  9 44  1  0
  9 45  1  0
 13 46  1  0
 13 47  1  0
 14 48  1  0
 18 49  1  0
 19 50  1  0
 21 51  1  0
 24 52  1  0
 25 53  1  0
 29 54  1  0
 30 55  1  0
 31 56  1  0
 32 57  1  0
 33 58  1  0
M  END
>  <smiles>  (38) 
C[C@H](NC(=O)[C@H]1CCCN1C(=O)CNC(=O)c1ccc2cc(F)ccc2n1)c1ccccc1

>  <score_type>  (38) 
oracle

>  <origin>  (38) 
autodockgpu

>  <m_score__min__energy>  (38) 
-9.4700000000000006

>  <m_primary>  (38) 
energy

>  <rmsd>  (38) 
3.366054571164404

>  <m_score__min__rmsd>  (38) 
3.366054571164404

>  <meeko>  (38) 
{"free_energy": -9.01, "intermolecular_energy": -11.1, "internal_energy": -2.8, "cluster_size": 22, "cluster_id": 1, "rank_in_cluster": 5}

>  <energy>  (38) 
-7.75

>  <cluster_rmsd>  (38) 
1.94

>  <cluster>  (38) 
2

$$$$

     RDKit          3D

 58 61  0  0  0  0  0  0  0  0999 V2000
  137.3640   68.9030  224.0070 C   0  0  0  0  0  0  0  0  0  0  0  0
  137.8970   69.9050  225.0160 C   0  0  2  0  0  0  0  0  0  0  0  0
  138.3150   71.0620  224.2430 N   0  0  0  0  0  0  0  0  0  0  0  0
  139.5000   71.0780  223.4540 C   0  0  0  0  0  0  0  0  0  0  0  0
  140.2710   70.0990  223.3630 O   0  0  0  0  0  0  0  0  0  0  0  0
  139.7960   72.3520  222.7120 C   0  0  1  0  0  0  0  0  0  0  0  0
  141.1410   72.1870  222.0620 C   0  0  0  0  0  0  0  0  0  0  0  0
  140.8990   72.6850  220.6530 C   0  0  0  0  0  0  0  0  0  0  0  0
  139.4720   72.1700  220.4290 C   0  0  0  0  0  0  0  0  0  0  0  0
  138.8220   72.5560  221.6670 N   0  0  0  0  0  0  0  0  0  0  0  0
  137.5050   73.0420  221.8900 C   0  0  0  0  0  0  0  0  0  0  0  0
  136.6590   72.4080  222.5680 O   0  0  0  0  0  0  0  0  0  0  0  0
  137.1690   74.3600  221.2710 C   0  0  0  0  0  0  0  0  0  0  0  0
  137.8730   75.4140  221.9630 N   0  0  0  0  0  0  0  0  0  0  0  0
  138.3520   76.5190  221.1920 C   0  0  0  0  0  0  0  0  0  0  0  0
  138.1600   76.5680  219.9370 O   0  0  0  0  0  0  0  0  0  0  0  0
  139.0710   77.6020  221.8740 C   0  0  0  0  0  0  0  0  0  0  0  0
  138.3620   78.4510  222.7080 C   0  0  0  0  0  0  0  0  0  0  0  0
  138.9690   79.4950  223.3850 C   0  0  0  0  0  0  0  0  0  0  0  0
  140.3230   79.7010  223.2290 C   0  0  0  0  0  0  0  0  0  0  0  0
  140.9780   80.7300  223.8830 C   0  0  0  0  0  0  0  0  0  0  0  0
  142.3280   80.9180  223.7130 C   0  0  0  0  0  0  0  0  0  0  0  0
  142.9290   81.9380  224.3740 F   0  0  0  0  0  0  0  0  0  0  0  0
  143.0100   80.0690  222.8860 C   0  0  0  0  0  0  0  0  0  0  0  0
  142.3660   79.0370  222.2260 C   0  0  0  0  0  0  0  0  0  0  0  0
  141.0030   78.8230  222.3790 C   0  0  0  0  0  0  0  0  0  0  0  0
  140.3740   77.8210  221.7390 N   0  0  0  0  0  0  0  0  0  0  0  0
  139.0040   69.3190  225.8180 C   0  0  0  0  0  0  0  0  0  0  0  0
  139.3410   67.9680  225.6840 C   0  0  0  0  0  0  0  0  0  0  0  0
  140.3680   67.4280  226.4300 C   0  0  0  0  0  0  0  0  0  0  0  0
  141.0950   68.1760  227.3230 C   0  0  0  0  0  0  0  0  0  0  0  0
  140.7740   69.5210  227.4700 C   0  0  0  0  0  0  0  0  0  0  0  0
  139.7410   70.0680  226.7210 C   0  0  0  0  0  0  0  0  0  0  0  0
  136.9117   68.0527  224.5385 H   0  0  0  0  0  0  0  0  0  0  0  0
  136.6042   69.3870  223.3758 H   0  0  0  0  0  0  0  0  0  0  0  0
  138.1900   68.5434  223.3758 H   0  0  0  0  0  0  0  0  0  0  0  0
  137.1332   70.1938  225.7531 H   0  0  0  0  0  0  0  0  0  0  0  0
  137.6990   71.9020  224.2920 H   0  0  0  0  0  0  0  0  0  0  0  0
  139.7718   73.2052  223.4058 H   0  0  0  0  0  0  0  0  0  0  0  0
  141.9037   72.7946  222.5710 H   0  0  0  0  0  0  0  0  0  0  0  0
  141.5176   71.1541  222.0990 H   0  0  0  0  0  0  0  0  0  0  0  0
  140.9509   73.7822  220.5934 H   0  0  0  0  0  0  0  0  0  0  0  0
  141.6355   72.3464  219.9094 H   0  0  0  0  0  0  0  0  0  0  0  0
  139.0021   72.6557  219.5611 H   0  0  0  0  0  0  0  0  0  0  0  0
  139.4150   71.0932  220.2118 H   0  0  0  0  0  0  0  0  0  0  0  0
  137.4678   74.3540  220.2124 H   0  0  0  0  0  0  0  0  0  0  0  0
  136.0854   74.5335  221.3470 H   0  0  0  0  0  0  0  0  0  0  0  0
  138.0580   75.4260  222.9850 H   0  0  0  0  0  0  0  0  0  0  0  0
  137.2814   78.2904  222.8365 H   0  0  0  0  0  0  0  0  0  0  0  0
  138.3778   80.1523  224.0396 H   0  0  0  0  0  0  0  0  0  0  0  0
  140.4127   81.4030  224.5445 H   0  0  0  0  0  0  0  0  0  0  0  0
  144.0916   80.2090  222.7425 H   0  0  0  0  0  0  0  0  0  0  0  0
  142.9455   78.3734  221.5673 H   0  0  0  0  0  0  0  0  0  0  0  0
  138.7839   67.3326  224.9798 H   0  0  0  0  0  0  0  0  0  0  0  0
  140.6127   66.3628  226.3054 H   0  0  0  0  0  0  0  0  0  0  0  0
  141.9099   67.7231  227.9068 H   0  0  0  0  0  0  0  0  0  0  0  0
  141.3362   70.1489  228.1768 H   0  0  0  0  0  0  0  0  0  0  0  0
  139.4992   71.1334  226.8489 H   0  0  0  0  0  0  0  0  0  0  0  0
  1  2  1  0
  2  3  1  0
  3  4  1  0
  4  5  2  0
  4  6  1  0
  6  7  1  0
  7  8  1  0
  8  9  1  0
  9 10  1  0
 10 11  1  0
 11 12  2  0
 11 13  1  0
 13 14  1  0
 14 15  1  0
 15 16  2  0
 15 17  1  0
 17 18  2  0
 18 19  1  0
 19 20  2  0
 20 21  1  0
 21 22  2  0
 22 23  1  0
 22 24  1  0
 24 25  2  0
 25 26  1  0
 26 27  2  0
  2 28  1  0
 28 29  2  0
 29 30  1  0
 30 31  2  0
 31 32  1  0
 32 33  2  0
 10  6  1  0
 27 17  1  0
 33 28  1  0
 26 20  1  0
  1 34  1  0
  1 35  1  0
  1 36  1  0
  2 37  1  1
  3 38  1  0
  6 39  1  1
  7 40  1  0
  7 41  1  0
  8 42  1  0
  8 43  1  0
  9 44  1  0
  9 45  1  0
 13 46  1  0
 13 47  1  0
 14 48  1  0
 18 49  1  0
 19 50  1  0
 21 51  1  0
 24 52  1  0
 25 53  1  0
 29 54  1  0
 30 55  1  0
 31 56  1  0
 32 57  1  0
 33 58  1  0
M  END
>  <smiles>  (39) 
C[C@H](NC(=O)[C@H]1CCCN1C(=O)CNC(=O)c1ccc2cc(F)ccc2n1)c1ccccc1

>  <score_type>  (39) 
oracle

>  <origin>  (39) 
autodockgpu

>  <m_score__min__energy>  (39) 
-9.4700000000000006

>  <m_primary>  (39) 
energy

>  <rmsd>  (39) 
9.787530303611986

>  <m_score__min__rmsd>  (39) 
9.787530303611986

>  <meeko>  (39) 
{"free_energy": -7.82, "intermolecular_energy": -9.91, "internal_energy": -2.54, "cluster_size": 5, "cluster_id": 5, "rank_in_cluster": 5}

>  <energy>  (39) 
-8.66

>  <cluster_rmsd>  (39) 
0.0

>  <cluster>  (39) 
3

$$$$

     RDKit          3D

 58 61  0  0  0  0  0  0  0  0999 V2000
  142.0560   78.3010  219.3180 C   0  0  0  0  0  0  0  0  0  0  0  0
  141.8400   77.6170  220.6560 C   0  0  2  0  0  0  0  0  0  0  0  0
  140.5950   76.8810  220.5300 N   0  0  0  0  0  0  0  0  0  0  0  0
  139.3160   77.4970  220.6470 C   0  0  0  0  0  0  0  0  0  0  0  0
  139.1660   78.7180  220.8650 O   0  0  0  0  0  0  0  0  0  0  0  0
  138.1210   76.5980  220.4910 C   0  0  1  0  0  0  0  0  0  0  0  0
  137.3890   77.0400  219.2550 C   0  0  0  0  0  0  0  0  0  0  0  0
  137.1180   75.7350  218.5360 C   0  0  0  0  0  0  0  0  0  0  0  0
  138.4090   74.9770  218.8670 C   0  0  0  0  0  0  0  0  0  0  0  0
  138.5480   75.2340  220.2880 N   0  0  0  0  0  0  0  0  0  0  0  0
  139.0020   74.3780  221.3270 C   0  0  0  0  0  0  0  0  0  0  0  0
  140.0150   74.6410  222.0210 O   0  0  0  0  0  0  0  0  0  0  0  0
  138.2070   73.1350  221.5600 C   0  0  0  0  0  0  0  0  0  0  0  0
  138.7150   72.4450  222.7230 N   0  0  0  0  0  0  0  0  0  0  0  0
  138.4380   71.0480  222.8490 C   0  0  0  0  0  0  0  0  0  0  0  0
  137.7670   70.4360  221.9600 O   0  0  0  0  0  0  0  0  0  0  0  0
  138.9450   70.3270  224.0220 C   0  0  0  0  0  0  0  0  0  0  0  0
  138.7720   68.9550  224.0870 C   0  0  0  0  0  0  0  0  0  0  0  0
  139.2210   68.2050  225.1610 C   0  0  0  0  0  0  0  0  0  0  0  0
  139.8620   68.8400  226.2030 C   0  0  0  0  0  0  0  0  0  0  0  0
  140.3310   68.1380  227.3010 C   0  0  0  0  0  0  0  0  0  0  0  0
  140.9660   68.7900  228.3280 C   0  0  0  0  0  0  0  0  0  0  0  0
  141.4100   68.0620  229.3820 F   0  0  0  0  0  0  0  0  0  0  0  0
  141.1280   70.1460  228.2450 C   0  0  0  0  0  0  0  0  0  0  0  0
  140.6630   70.8590  227.1530 C   0  0  0  0  0  0  0  0  0  0  0  0
  140.0170   70.2260  226.1000 C   0  0  0  0  0  0  0  0  0  0  0  0
  139.5650   70.9160  225.0390 N   0  0  0  0  0  0  0  0  0  0  0  0
  141.8110   78.6100  221.7650 C   0  0  0  0  0  0  0  0  0  0  0  0
  142.1100   79.9550  221.5220 C   0  0  0  0  0  0  0  0  0  0  0  0
  142.0820   80.8720  222.5530 C   0  0  0  0  0  0  0  0  0  0  0  0
  141.7660   80.5160  223.8410 C   0  0  0  0  0  0  0  0  0  0  0  0
  141.4670   79.1830  224.1000 C   0  0  0  0  0  0  0  0  0  0  0  0
  141.4940   78.2580  223.0660 C   0  0  0  0  0  0  0  0  0  0  0  0
  142.3834   79.3378  219.4848 H   0  0  0  0  0  0  0  0  0  0  0  0
  142.8270   77.7599  218.7498 H   0  0  0  0  0  0  0  0  0  0  0  0
  141.1141   78.3009  218.7498 H   0  0  0  0  0  0  0  0  0  0  0  0
  142.6638   76.9325  220.9064 H   0  0  0  0  0  0  0  0  0  0  0  0
  140.6760   75.8570  220.3480 H   0  0  0  0  0  0  0  0  0  0  0  0
  137.4895   76.6533  221.3900 H   0  0  0  0  0  0  0  0  0  0  0  0
  136.4502   77.5518  219.5131 H   0  0  0  0  0  0  0  0  0  0  0  0
  137.9576   77.7599  218.6480 H   0  0  0  0  0  0  0  0  0  0  0  0
  136.2302   75.2243  218.9373 H   0  0  0  0  0  0  0  0  0  0  0  0
  136.9004   75.8336  217.4622 H   0  0  0  0  0  0  0  0  0  0  0  0
  138.3053   73.9011  218.6628 H   0  0  0  0  0  0  0  0  0  0  0  0
  139.2770   75.2936  218.2701 H   0  0  0  0  0  0  0  0  0  0  0  0
  137.1522   73.4006  221.7237 H   0  0  0  0  0  0  0  0  0  0  0  0
  138.2897   72.4787  220.6811 H   0  0  0  0  0  0  0  0  0  0  0  0
  139.2680   72.8950  223.4790 H   0  0  0  0  0  0  0  0  0  0  0  0
  138.2609   68.4436  223.2580 H   0  0  0  0  0  0  0  0  0  0  0  0
  139.0680   67.1159  225.1823 H   0  0  0  0  0  0  0  0  0  0  0  0
  140.1932   67.0478  227.3502 H   0  0  0  0  0  0  0  0  0  0  0  0
  141.6372   70.6797  229.0610 H   0  0  0  0  0  0  0  0  0  0  0  0
  140.8084   71.9488  227.1192 H   0  0  0  0  0  0  0  0  0  0  0  0
  142.3686   80.2831  220.5044 H   0  0  0  0  0  0  0  0  0  0  0  0
  142.3209   81.9235  222.3356 H   0  0  0  0  0  0  0  0  0  0  0  0
  141.7499   81.2652  224.6462 H   0  0  0  0  0  0  0  0  0  0  0  0
  141.2100   78.8630  225.1206 H   0  0  0  0  0  0  0  0  0  0  0  0
  141.2550   77.2075  223.2879 H   0  0  0  0  0  0  0  0  0  0  0  0
  1  2  1  0
  2  3  1  0
  3  4  1  0
  4  5  2  0
  4  6  1  0
  6  7  1  0
  7  8  1  0
  8  9  1  0
  9 10  1  0
 10 11  1  0
 11 12  2  0
 11 13  1  0
 13 14  1  0
 14 15  1  0
 15 16  2  0
 15 17  1  0
 17 18  2  0
 18 19  1  0
 19 20  2  0
 20 21  1  0
 21 22  2  0
 22 23  1  0
 22 24  1  0
 24 25  2  0
 25 26  1  0
 26 27  2  0
  2 28  1  0
 28 29  2  0
 29 30  1  0
 30 31  2  0
 31 32  1  0
 32 33  2  0
 10  6  1  0
 27 17  1  0
 33 28  1  0
 26 20  1  0
  1 34  1  0
  1 35  1  0
  1 36  1  0
  2 37  1  1
  3 38  1  0
  6 39  1  1
  7 40  1  0
  7 41  1  0
  8 42  1  0
  8 43  1  0
  9 44  1  0
  9 45  1  0
 13 46  1  0
 13 47  1  0
 14 48  1  0
 18 49  1  0
 19 50  1  0
 21 51  1  0
 24 52  1  0
 25 53  1  0
 29 54  1  0
 30 55  1  0
 31 56  1  0
 32 57  1  0
 33 58  1  0
M  END
>  <smiles>  (40) 
C[C@H](NC(=O)[C@H]1CCCN1C(=O)CNC(=O)c1ccc2cc(F)ccc2n1)c1ccccc1

>  <score_type>  (40) 
oracle

>  <origin>  (40) 
autodockgpu

>  <m_score__min__energy>  (40) 
-9.4700000000000006

>  <m_primary>  (40) 
energy

>  <rmsd>  (40) 
2.827253914314891

>  <m_score__min__rmsd>  (40) 
2.827253914314891

>  <meeko>  (40) 
{"free_energy": -8.12, "intermolecular_energy": -10.21, "internal_energy": -2.99, "cluster_size": 16, "cluster_id": 2, "rank_in_cluster": 15}

>  <energy>  (40) 
-8.59

>  <cluster_rmsd>  (40) 
0.0

>  <cluster>  (40) 
4

$$$$

     RDKit          3D

 58 61  0  0  0  0  0  0  0  0999 V2000
  142.4180   80.1650  222.0600 C   0  0  0  0  0  0  0  0  0  0  0  0
  141.6220   79.0880  222.7770 C   0  0  2  0  0  0  0  0  0  0  0  0
  141.5680   77.9590  221.8660 N   0  0  0  0  0  0  0  0  0  0  0  0
  141.2140   78.0900  220.4930 C   0  0  0  0  0  0  0  0  0  0  0  0
  140.9230   79.1850  219.9650 O   0  0  0  0  0  0  0  0  0  0  0  0
  141.2040   76.8260  219.6790 C   0  0  1  0  0  0  0  0  0  0  0  0
  142.2860   76.9540  218.6430 C   0  0  0  0  0  0  0  0  0  0  0  0
  142.9980   75.6210  218.7290 C   0  0  0  0  0  0  0  0  0  0  0  0
  142.9120   75.3700  220.2400 C   0  0  0  0  0  0  0  0  0  0  0  0
  141.5250   75.6940  220.5150 N   0  0  0  0  0  0  0  0  0  0  0  0
  140.6060   75.0750  221.4060 C   0  0  0  0  0  0  0  0  0  0  0  0
  140.0850   75.6910  222.3690 O   0  0  0  0  0  0  0  0  0  0  0  0
  140.2840   73.6410  221.1400 C   0  0  0  0  0  0  0  0  0  0  0  0
  140.1300   72.9380  222.3920 N   0  0  0  0  0  0  0  0  0  0  0  0
  140.3240   71.5210  222.3940 C   0  0  0  0  0  0  0  0  0  0  0  0
  140.6240   70.9050  221.3240 O   0  0  0  0  0  0  0  0  0  0  0  0
  140.1730   70.7870  223.6550 C   0  0  0  0  0  0  0  0  0  0  0  0
  139.4640   69.5970  223.6530 C   0  0  0  0  0  0  0  0  0  0  0  0
  139.2770   68.8480  224.8020 C   0  0  0  0  0  0  0  0  0  0  0  0
  139.8140   69.2950  225.9900 C   0  0  0  0  0  0  0  0  0  0  0  0
  139.6570   68.5830  227.1680 C   0  0  0  0  0  0  0  0  0  0  0  0
  140.2000   69.0470  228.3410 C   0  0  0  0  0  0  0  0  0  0  0  0
  140.0230   68.3170  229.4700 F   0  0  0  0  0  0  0  0  0  0  0  0
  140.8980   70.2230  228.3220 C   0  0  0  0  0  0  0  0  0  0  0  0
  141.0610   70.9430  227.1510 C   0  0  0  0  0  0  0  0  0  0  0  0
  140.5240   70.4990  225.9510 C   0  0  0  0  0  0  0  0  0  0  0  0
  140.6800   71.1960  224.8130 N   0  0  0  0  0  0  0  0  0  0  0  0
  140.2720   79.5850  223.1570 C   0  0  0  0  0  0  0  0  0  0  0  0
  139.1300   78.8330  222.8640 C   0  0  0  0  0  0  0  0  0  0  0  0
  137.8800   79.2970  223.2180 C   0  0  0  0  0  0  0  0  0  0  0  0
  137.7000   80.4960  223.8620 C   0  0  0  0  0  0  0  0  0  0  0  0
  138.8240   81.2580  224.1610 C   0  0  0  0  0  0  0  0  0  0  0  0
  140.0840   80.7940  223.8060 C   0  0  0  0  0  0  0  0  0  0  0  0
  142.9011   80.8186  222.8012 H   0  0  0  0  0  0  0  0  0  0  0  0
  143.1869   79.6943  221.4298 H   0  0  0  0  0  0  0  0  0  0  0  0
  141.7424   80.7620  221.4298 H   0  0  0  0  0  0  0  0  0  0  0  0
  142.0941   78.7901  223.7248 H   0  0  0  0  0  0  0  0  0  0  0  0
  141.8040   77.0250  222.2660 H   0  0  0  0  0  0  0  0  0  0  0  0
  140.2118   76.6779  219.2277 H   0  0  0  0  0  0  0  0  0  0  0  0
  141.8583   77.1101  217.6416 H   0  0  0  0  0  0  0  0  0  0  0  0
  142.9513   77.8130  218.8145 H   0  0  0  0  0  0  0  0  0  0  0  0
  142.4755   74.8414  218.1553 H   0  0  0  0  0  0  0  0  0  0  0  0
  144.0172   75.6126  218.3152 H   0  0  0  0  0  0  0  0  0  0  0  0
  143.1347   74.3211  220.4853 H   0  0  0  0  0  0  0  0  0  0  0  0
  143.6322   75.9549  220.8309 H   0  0  0  0  0  0  0  0  0  0  0  0
  139.3475   73.5765  220.5665 H   0  0  0  0  0  0  0  0  0  0  0  0
  141.1017   73.1843  220.5631 H   0  0  0  0  0  0  0  0  0  0  0  0
  139.8870   73.3900  223.2950 H   0  0  0  0  0  0  0  0  0  0  0  0
  139.0353   69.2351  222.7068 H   0  0  0  0  0  0  0  0  0  0  0  0
  138.7070   67.9079  224.7673 H   0  0  0  0  0  0  0  0  0  0  0  0
  139.0930   67.6386  227.1638 H   0  0  0  0  0  0  0  0  0  0  0  0
  141.3383   70.6040  229.2552 H   0  0  0  0  0  0  0  0  0  0  0  0
  141.6274   71.8857  227.1722 H   0  0  0  0  0  0  0  0  0  0  0  0
  139.2289   77.8663  222.3485 H   0  0  0  0  0  0  0  0  0  0  0  0
  136.9980   78.6858  222.9762 H   0  0  0  0  0  0  0  0  0  0  0  0
  136.6929   80.8448  224.1343 H   0  0  0  0  0  0  0  0  0  0  0  0
  138.7158   82.2238  224.6763 H   0  0  0  0  0  0  0  0  0  0  0  0
  140.9636   81.4083  224.0488 H   0  0  0  0  0  0  0  0  0  0  0  0
  1  2  1  0
  2  3  1  0
  3  4  1  0
  4  5  2  0
  4  6  1  0
  6  7  1  0
  7  8  1  0
  8  9  1  0
  9 10  1  0
 10 11  1  0
 11 12  2  0
 11 13  1  0
 13 14  1  0
 14 15  1  0
 15 16  2  0
 15 17  1  0
 17 18  2  0
 18 19  1  0
 19 20  2  0
 20 21  1  0
 21 22  2  0
 22 23  1  0
 22 24  1  0
 24 25  2  0
 25 26  1  0
 26 27  2  0
  2 28  1  0
 28 29  2  0
 29 30  1  0
 30 31  2  0
 31 32  1  0
 32 33  2  0
 10  6  1  0
 27 17  1  0
 33 28  1  0
 26 20  1  0
  1 34  1  0
  1 35  1  0
  1 36  1  0
  2 37  1  1
  3 38  1  0
  6 39  1  6
  7 40  1  0
  7 41  1  0
  8 42  1  0
  8 43  1  0
  9 44  1  0
  9 45  1  0
 13 46  1  0
 13 47  1  0
 14 48  1  0
 18 49  1  0
 19 50  1  0
 21 51  1  0
 24 52  1  0
 25 53  1  0
 29 54  1  0
 30 55  1  0
 31 56  1  0
 32 57  1  0
 33 58  1  0
M  END
>  <smiles>  (41) 
C[C@H](NC(=O)[C@H]1CCCN1C(=O)CNC(=O)c1ccc2cc(F)ccc2n1)c1ccccc1

>  <score_type>  (41) 
oracle

>  <origin>  (41) 
autodockgpu

>  <m_score__min__energy>  (41) 
-9.4700000000000006

>  <m_primary>  (41) 
energy

>  <rmsd>  (41) 
2.344765681426702

>  <m_score__min__rmsd>  (41) 
2.344765681426702

>  <meeko>  (41) 
{"free_energy": -8.88, "intermolecular_energy": -10.96, "internal_energy": -2.71, "cluster_size": 16, "cluster_id": 2, "rank_in_cluster": 9}

>  <energy>  (41) 
-8.55

>  <cluster_rmsd>  (41) 
1.18

>  <cluster>  (41) 
4

$$$$

     RDKit          3D

 58 61  0  0  0  0  0  0  0  0999 V2000
  142.9220   79.6960  222.7620 C   0  0  0  0  0  0  0  0  0  0  0  0
  141.6490   78.9750  223.1670 C   0  0  2  0  0  0  0  0  0  0  0  0
  141.5100   77.8620  222.2440 N   0  0  0  0  0  0  0  0  0  0  0  0
  141.4500   78.0320  220.8310 C   0  0  0  0  0  0  0  0  0  0  0  0
  141.5130   79.1500  220.2760 O   0  0  0  0  0  0  0  0  0  0  0  0
  141.3050   76.7810  220.0100 C   0  0  1  0  0  0  0  0  0  0  0  0
  142.5590   76.6370  219.1930 C   0  0  0  0  0  0  0  0  0  0  0  0
  142.9250   75.1810  219.3880 C   0  0  0  0  0  0  0  0  0  0  0  0
  142.5110   74.9970  220.8530 C   0  0  0  0  0  0  0  0  0  0  0  0
  141.2060   75.6290  220.8730 N   0  0  0  0  0  0  0  0  0  0  0  0
  140.0250   75.2550  221.5700 C   0  0  0  0  0  0  0  0  0  0  0  0
  139.5160   75.9740  222.4660 O   0  0  0  0  0  0  0  0  0  0  0  0
  139.4080   73.9510  221.1840 C   0  0  0  0  0  0  0  0  0  0  0  0
  139.3000   73.1010  222.3470 N   0  0  0  0  0  0  0  0  0  0  0  0
  140.3320   72.1370  222.5710 C   0  0  0  0  0  0  0  0  0  0  0  0
  141.3130   72.0370  221.7690 O   0  0  0  0  0  0  0  0  0  0  0  0
  140.2430   71.2640  223.7470 C   0  0  0  0  0  0  0  0  0  0  0  0
  139.6460   70.0220  223.6100 C   0  0  0  0  0  0  0  0  0  0  0  0
  139.5240   69.1420  224.6720 C   0  0  0  0  0  0  0  0  0  0  0  0
  140.0110   69.5080  225.9080 C   0  0  0  0  0  0  0  0  0  0  0  0
  139.9140   68.6660  227.0030 C   0  0  0  0  0  0  0  0  0  0  0  0
  140.4060   69.0510  228.2260 C   0  0  0  0  0  0  0  0  0  0  0  0
  140.2900   68.1940  229.2700 F   0  0  0  0  0  0  0  0  0  0  0  0
  140.9920   70.2810  228.3400 C   0  0  0  0  0  0  0  0  0  0  0  0
  141.0950   71.1320  227.2530 C   0  0  0  0  0  0  0  0  0  0  0  0
  140.6070   70.7700  226.0050 C   0  0  0  0  0  0  0  0  0  0  0  0
  140.7040   71.5940  224.9480 N   0  0  0  0  0  0  0  0  0  0  0  0
  140.4810   79.8960  223.1370 C   0  0  0  0  0  0  0  0  0  0  0  0
  140.5150   81.0620  222.3650 C   0  0  0  0  0  0  0  0  0  0  0  0
  139.4300   81.9130  222.3400 C   0  0  0  0  0  0  0  0  0  0  0  0
  138.2860   81.6630  223.0580 C   0  0  0  0  0  0  0  0  0  0  0  0
  138.2350   80.5080  223.8320 C   0  0  0  0  0  0  0  0  0  0  0  0
  139.3250   79.6490  223.8590 C   0  0  0  0  0  0  0  0  0  0  0  0
  143.4702   80.0065  223.6637 H   0  0  0  0  0  0  0  0  0  0  0  0
  143.5517   79.0205  222.1644 H   0  0  0  0  0  0  0  0  0  0  0  0
  142.6665   80.5835  222.1644 H   0  0  0  0  0  0  0  0  0  0  0  0
  141.6964   78.6070  224.2025 H   0  0  0  0  0  0  0  0  0  0  0  0
  141.4530   76.9100  222.6670 H   0  0  0  0  0  0  0  0  0  0  0  0
  140.4042   76.8459  219.3820 H   0  0  0  0  0  0  0  0  0  0  0  0
  142.3679   76.8583  218.1326 H   0  0  0  0  0  0  0  0  0  0  0  0
  143.3574   77.3299  219.4972 H   0  0  0  0  0  0  0  0  0  0  0  0
  142.3539   74.5229  218.7166 H   0  0  0  0  0  0  0  0  0  0  0  0
  143.9739   74.9332  219.1681 H   0  0  0  0  0  0  0  0  0  0  0  0
  142.4446   73.9319  221.1199 H   0  0  0  0  0  0  0  0  0  0  0  0
  143.2237   75.4228  221.5746 H   0  0  0  0  0  0  0  0  0  0  0  0
  138.4058   74.1297  220.7672 H   0  0  0  0  0  0  0  0  0  0  0  0
  140.0390   73.4582  220.4296 H   0  0  0  0  0  0  0  0  0  0  0  0
  138.5220   73.1400  223.0340 H   0  0  0  0  0  0  0  0  0  0  0  0
  139.2560   69.7249  222.6253 H   0  0  0  0  0  0  0  0  0  0  0  0
  139.0440   68.1624  224.5307 H   0  0  0  0  0  0  0  0  0  0  0  0
  139.4387   67.6802  226.8923 H   0  0  0  0  0  0  0  0  0  0  0  0
  141.3894   70.6007  229.3146 H   0  0  0  0  0  0  0  0  0  0  0  0
  141.5730   72.1144  227.3808 H   0  0  0  0  0  0  0  0  0  0  0  0
  141.4118   81.3014  221.7748 H   0  0  0  0  0  0  0  0  0  0  0  0
  139.4825   82.8229  221.7241 H   0  0  0  0  0  0  0  0  0  0  0  0
  137.4334   82.3571  223.0220 H   0  0  0  0  0  0  0  0  0  0  0  0
  137.3347   80.2765  224.4201 H   0  0  0  0  0  0  0  0  0  0  0  0
  139.2688   78.7398  224.4756 H   0  0  0  0  0  0  0  0  0  0  0  0
  1  2  1  0
  2  3  1  0
  3  4  1  0
  4  5  2  0
  4  6  1  0
  6  7  1  0
  7  8  1  0
  8  9  1  0
  9 10  1  0
 10 11  1  0
 11 12  2  0
 11 13  1  0
 13 14  1  0
 14 15  1  0
 15 16  2  0
 15 17  1  0
 17 18  2  0
 18 19  1  0
 19 20  2  0
 20 21  1  0
 21 22  2  0
 22 23  1  0
 22 24  1  0
 24 25  2  0
 25 26  1  0
 26 27  2  0
  2 28  1  0
 28 29  2  0
 29 30  1  0
 30 31  2  0
 31 32  1  0
 32 33  2  0
 10  6  1  0
 27 17  1  0
 33 28  1  0
 26 20  1  0
  1 34  1  0
  1 35  1  0
  1 36  1  0
  2 37  1  1
  3 38  1  0
  6 39  1  6
  7 40  1  0
  7 41  1  0
  8 42  1  0
  8 43  1  0
  9 44  1  0
  9 45  1  0
 13 46  1  0
 13 47  1  0
 14 48  1  0
 18 49  1  0
 19 50  1  0
 21 51  1  0
 24 52  1  0
 25 53  1  0
 29 54  1  0
 30 55  1  0
 31 56  1  0
 32 57  1  0
 33 58  1  0
M  END
>  <smiles>  (42) 
C[C@H](NC(=O)[C@H]1CCCN1C(=O)CNC(=O)c1ccc2cc(F)ccc2n1)c1ccccc1

>  <score_type>  (42) 
oracle

>  <origin>  (42) 
autodockgpu

>  <m_score__min__energy>  (42) 
-9.4700000000000006

>  <m_primary>  (42) 
energy

>  <rmsd>  (42) 
2.3240024522448826

>  <m_score__min__rmsd>  (42) 
2.3240024522448826

>  <meeko>  (42) 
{"free_energy": -9.31, "intermolecular_energy": -11.4, "internal_energy": -2.59, "cluster_size": 16, "cluster_id": 2, "rank_in_cluster": 1}

>  <energy>  (42) 
-8.41

>  <cluster_rmsd>  (42) 
1.46

>  <cluster>  (42) 
4

$$$$

     RDKit          3D

 58 61  0  0  0  0  0  0  0  0999 V2000
  142.5800   80.5370  222.1180 C   0  0  0  0  0  0  0  0  0  0  0  0
  141.6230   79.5370  222.7440 C   0  0  2  0  0  0  0  0  0  0  0  0
  141.5190   78.4400  221.7980 N   0  0  0  0  0  0  0  0  0  0  0  0
  140.9920   78.5990  220.4850 C   0  0  0  0  0  0  0  0  0  0  0  0
  140.5790   79.6930  220.0440 O   0  0  0  0  0  0  0  0  0  0  0  0
  140.9510   77.3660  219.6250 C   0  0  1  0  0  0  0  0  0  0  0  0
  141.8600   77.6100  218.4530 C   0  0  0  0  0  0  0  0  0  0  0  0
  142.6670   76.3310  218.3770 C   0  0  0  0  0  0  0  0  0  0  0  0
  142.8170   76.0230  219.8720 C   0  0  0  0  0  0  0  0  0  0  0  0
  141.4650   76.2330  220.3550 N   0  0  0  0  0  0  0  0  0  0  0  0
  140.7290   75.5180  221.3380 C   0  0  0  0  0  0  0  0  0  0  0  0
  140.3220   76.0570  222.3970 O   0  0  0  0  0  0  0  0  0  0  0  0
  140.4580   74.0770  221.0510 C   0  0  0  0  0  0  0  0  0  0  0  0
  140.1830   73.3800  222.2850 N   0  0  0  0  0  0  0  0  0  0  0  0
  140.5680   72.0050  222.3790 C   0  0  0  0  0  0  0  0  0  0  0  0
  141.1360   71.4220  221.4030 O   0  0  0  0  0  0  0  0  0  0  0  0
  140.2970   71.2770  223.6230 C   0  0  0  0  0  0  0  0  0  0  0  0
  139.6150   70.0740  223.5570 C   0  0  0  0  0  0  0  0  0  0  0  0
  139.3210   69.3290  224.6860 C   0  0  0  0  0  0  0  0  0  0  0  0
  139.7200   69.7940  225.9200 C   0  0  0  0  0  0  0  0  0  0  0  0
  139.4520   69.0890  227.0810 C   0  0  0  0  0  0  0  0  0  0  0  0
  139.8580   69.5710  228.3010 C   0  0  0  0  0  0  0  0  0  0  0  0
  139.5750   68.8460  229.4120 F   0  0  0  0  0  0  0  0  0  0  0  0
  140.5310   70.7600  228.3460 C   0  0  0  0  0  0  0  0  0  0  0  0
  140.8040   71.4750  227.1930 C   0  0  0  0  0  0  0  0  0  0  0  0
  140.4060   71.0120  225.9460 C   0  0  0  0  0  0  0  0  0  0  0  0
  140.6700   71.7050  224.8240 N   0  0  0  0  0  0  0  0  0  0  0  0
  140.3080   80.1690  223.0390 C   0  0  0  0  0  0  0  0  0  0  0  0
  139.9450   81.3720  222.4260 C   0  0  0  0  0  0  0  0  0  0  0  0
  138.7250   81.9540  222.7020 C   0  0  0  0  0  0  0  0  0  0  0  0
  137.8270   81.3920  223.5760 C   0  0  0  0  0  0  0  0  0  0  0  0
  138.1720   80.1960  224.1950 C   0  0  0  0  0  0  0  0  0  0  0  0
  139.3980   79.6070  223.9190 C   0  0  0  0  0  0  0  0  0  0  0  0
  143.1065   81.0871  222.9118 H   0  0  0  0  0  0  0  0  0  0  0  0
  143.3121   80.0030  221.4944 H   0  0  0  0  0  0  0  0  0  0  0  0
  142.0144   81.2450  221.4944 H   0  0  0  0  0  0  0  0  0  0  0  0
  141.9876   79.1696  223.7146 H   0  0  0  0  0  0  0  0  0  0  0  0
  141.8530   77.5080  222.1270 H   0  0  0  0  0  0  0  0  0  0  0  0
  139.9165   77.1600  219.3128 H   0  0  0  0  0  0  0  0  0  0  0  0
  141.2821   77.7684  217.5305 H   0  0  0  0  0  0  0  0  0  0  0  0
  142.4826   78.5097  218.5667 H   0  0  0  0  0  0  0  0  0  0  0  0
  142.1219   75.5349  217.8487 H   0  0  0  0  0  0  0  0  0  0  0  0
  143.6138   76.4123  217.8229 H   0  0  0  0  0  0  0  0  0  0  0  0
  143.1446   74.9859  220.0364 H   0  0  0  0  0  0  0  0  0  0  0  0
  143.5727   76.6398  220.3804 H   0  0  0  0  0  0  0  0  0  0  0  0
  139.5884   73.9943  220.3824 H   0  0  0  0  0  0  0  0  0  0  0  0
  141.3387   73.6293  220.5674 H   0  0  0  0  0  0  0  0  0  0  0  0
  139.7220   73.8060  223.1120 H   0  0  0  0  0  0  0  0  0  0  0  0
  139.2959   69.6974  222.5740 H   0  0  0  0  0  0  0  0  0  0  0  0
  138.7756   68.3777  224.5990 H   0  0  0  0  0  0  0  0  0  0  0  0
  138.9089   68.1340  227.0256 H   0  0  0  0  0  0  0  0  0  0  0  0
  140.8619   71.1561  229.3174 H   0  0  0  0  0  0  0  0  0  0  0  0
  141.3470   72.4289  227.2659 H   0  0  0  0  0  0  0  0  0  0  0  0
  140.6355   81.8568  221.7202 H   0  0  0  0  0  0  0  0  0  0  0  0
  138.4627   82.8998  222.2054 H   0  0  0  0  0  0  0  0  0  0  0  0
  136.8604   81.8754  223.7808 H   0  0  0  0  0  0  0  0  0  0  0  0
  137.4762   79.7185  224.9006 H   0  0  0  0  0  0  0  0  0  0  0  0
  139.6561   78.6606  224.4166 H   0  0  0  0  0  0  0  0  0  0  0  0
  1  2  1  0
  2  3  1  0
  3  4  1  0
  4  5  2  0
  4  6  1  0
  6  7  1  0
  7  8  1  0
  8  9  1  0
  9 10  1  0
 10 11  1  0
 11 12  2  0
 11 13  1  0
 13 14  1  0
 14 15  1  0
 15 16  2  0
 15 17  1  0
 17 18  2  0
 18 19  1  0
 19 20  2  0
 20 21  1  0
 21 22  2  0
 22 23  1  0
 22 24  1  0
 24 25  2  0
 25 26  1  0
 26 27  2  0
  2 28  1  0
 28 29  2  0
 29 30  1  0
 30 31  2  0
 31 32  1  0
 32 33  2  0
 10  6  1  0
 27 17  1  0
 33 28  1  0
 26 20  1  0
  1 34  1  0
  1 35  1  0
  1 36  1  0
  2 37  1  1
  3 38  1  0
  6 39  1  6
  7 40  1  0
  7 41  1  0
  8 42  1  0
  8 43  1  0
  9 44  1  0
  9 45  1  0
 13 46  1  0
 13 47  1  0
 14 48  1  0
 18 49  1  0
 19 50  1  0
 21 51  1  0
 24 52  1  0
 25 53  1  0
 29 54  1  0
 30 55  1  0
 31 56  1  0
 32 57  1  0
 33 58  1  0
M  END
>  <smiles>  (43) 
C[C@H](NC(=O)[C@H]1CCCN1C(=O)CNC(=O)c1ccc2cc(F)ccc2n1)c1ccccc1

>  <score_type>  (43) 
oracle

>  <origin>  (43) 
autodockgpu

>  <m_score__min__energy>  (43) 
-9.4700000000000006

>  <m_primary>  (43) 
energy

>  <rmsd>  (43) 
2.3713898629327477

>  <m_score__min__rmsd>  (43) 
2.3713898629327477

>  <meeko>  (43) 
{"free_energy": -8.94, "intermolecular_energy": -11.03, "internal_energy": -2.78, "cluster_size": 16, "cluster_id": 2, "rank_in_cluster": 7}

>  <energy>  (43) 
-8.26

>  <cluster_rmsd>  (43) 
1.82

>  <cluster>  (43) 
4

$$$$

     RDKit          3D

 58 61  0  0  0  0  0  0  0  0999 V2000
  142.5390   79.4180  222.8460 C   0  0  0  0  0  0  0  0  0  0  0  0
  141.4210   78.4580  223.2110 C   0  0  2  0  0  0  0  0  0  0  0  0
  141.4530   77.4080  222.2080 N   0  0  0  0  0  0  0  0  0  0  0  0
  141.3460   77.6700  220.8120 C   0  0  0  0  0  0  0  0  0  0  0  0
  141.2170   78.8200  220.3420 O   0  0  0  0  0  0  0  0  0  0  0  0
  141.3960   76.4750  219.9000 C   0  0  1  0  0  0  0  0  0  0  0  0
  142.6350   76.6090  219.0590 C   0  0  0  0  0  0  0  0  0  0  0  0
  143.2500   75.2280  219.1380 C   0  0  0  0  0  0  0  0  0  0  0  0
  142.9090   74.8680  220.5900 C   0  0  0  0  0  0  0  0  0  0  0  0
  141.5160   75.2630  220.6740 N   0  0  0  0  0  0  0  0  0  0  0  0
  140.4340   74.6420  221.3550 C   0  0  0  0  0  0  0  0  0  0  0  0
  139.7770   75.2290  222.2500 O   0  0  0  0  0  0  0  0  0  0  0  0
  140.1090   73.2410  220.9500 C   0  0  0  0  0  0  0  0  0  0  0  0
  140.3920   72.3430  222.0450 N   0  0  0  0  0  0  0  0  0  0  0  0
  139.2920   71.8770  222.8310 C   0  0  0  0  0  0  0  0  0  0  0  0
  138.1050   72.2450  222.5700 O   0  0  0  0  0  0  0  0  0  0  0  0
  139.5560   70.9630  223.9480 C   0  0  0  0  0  0  0  0  0  0  0  0
  139.2350   69.6230  223.8040 C   0  0  0  0  0  0  0  0  0  0  0  0
  139.4530   68.7000  224.8120 C   0  0  0  0  0  0  0  0  0  0  0  0
  140.0080   69.1210  226.0010 C   0  0  0  0  0  0  0  0  0  0  0  0
  140.2460   68.2390  227.0420 C   0  0  0  0  0  0  0  0  0  0  0  0
  140.8000   68.6800  228.2180 C   0  0  0  0  0  0  0  0  0  0  0  0
  141.0170   67.7810  229.2100 F   0  0  0  0  0  0  0  0  0  0  0  0
  141.1100   70.0070  228.3410 C   0  0  0  0  0  0  0  0  0  0  0  0
  140.8760   70.8980  227.3090 C   0  0  0  0  0  0  0  0  0  0  0  0
  140.3180   70.4810  226.1080 C   0  0  0  0  0  0  0  0  0  0  0  0
  140.0890   71.3450  225.1040 N   0  0  0  0  0  0  0  0  0  0  0  0
  140.1100   79.1600  223.2670 C   0  0  0  0  0  0  0  0  0  0  0  0
  138.9190   78.4610  223.0440 C   0  0  0  0  0  0  0  0  0  0  0  0
  137.7060   79.1160  223.0960 C   0  0  0  0  0  0  0  0  0  0  0  0
  137.6110   80.4590  223.3630 C   0  0  0  0  0  0  0  0  0  0  0  0
  138.7840   81.1710  223.5860 C   0  0  0  0  0  0  0  0  0  0  0  0
  140.0070   80.5150  223.5350 C   0  0  0  0  0  0  0  0  0  0  0  0
  142.9982   79.8123  223.7645 H   0  0  0  0  0  0  0  0  0  0  0  0
  143.2995   78.8872  222.2545 H   0  0  0  0  0  0  0  0  0  0  0  0
  142.1293   80.2500  222.2545 H   0  0  0  0  0  0  0  0  0  0  0  0
  141.5586   78.0297  224.2148 H   0  0  0  0  0  0  0  0  0  0  0  0
  141.5590   76.4320  222.5580 H   0  0  0  0  0  0  0  0  0  0  0  0
  140.4818   76.4292  219.2899 H   0  0  0  0  0  0  0  0  0  0  0  0
  142.3820   76.8705  218.0209 H   0  0  0  0  0  0  0  0  0  0  0  0
  143.3104   77.4052  219.4053 H   0  0  0  0  0  0  0  0  0  0  0  0
  142.7843   74.5322  218.4246 H   0  0  0  0  0  0  0  0  0  0  0  0
  144.3203   75.1821  218.8881 H   0  0  0  0  0  0  0  0  0  0  0  0
  143.0317   73.7906  220.7750 H   0  0  0  0  0  0  0  0  0  0  0  0
  143.5561   75.3559  221.3338 H   0  0  0  0  0  0  0  0  0  0  0  0
  139.0429   73.1737  220.6873 H   0  0  0  0  0  0  0  0  0  0  0  0
  140.7207   72.9607  220.0798 H   0  0  0  0  0  0  0  0  0  0  0  0
  141.3410   72.0100  222.3030 H   0  0  0  0  0  0  0  0  0  0  0  0
  138.7921   69.2812  222.8569 H   0  0  0  0  0  0  0  0  0  0  0  0
  139.1864   67.6429  224.6658 H   0  0  0  0  0  0  0  0  0  0  0  0
  139.9889   67.1759  226.9254 H   0  0  0  0  0  0  0  0  0  0  0  0
  141.5539   70.3724  229.2788 H   0  0  0  0  0  0  0  0  0  0  0  0
  141.1373   71.9581  227.4426 H   0  0  0  0  0  0  0  0  0  0  0  0
  138.9498   77.3833  222.8260 H   0  0  0  0  0  0  0  0  0  0  0  0
  136.7842   78.5429  222.9175 H   0  0  0  0  0  0  0  0  0  0  0  0
  136.6319   80.9590  223.3996 H   0  0  0  0  0  0  0  0  0  0  0  0
  138.7436   82.2489  223.8018 H   0  0  0  0  0  0  0  0  0  0  0  0
  140.9264   81.0919  223.7138 H   0  0  0  0  0  0  0  0  0  0  0  0
  1  2  1  0
  2  3  1  0
  3  4  1  0
  4  5  2  0
  4  6  1  0
  6  7  1  0
  7  8  1  0
  8  9  1  0
  9 10  1  0
 10 11  1  0
 11 12  2  0
 11 13  1  0
 13 14  1  0
 14 15  1  0
 15 16  2  0
 15 17  1  0
 17 18  2  0
 18 19  1  0
 19 20  2  0
 20 21  1  0
 21 22  2  0
 22 23  1  0
 22 24  1  0
 24 25  2  0
 25 26  1  0
 26 27  2  0
  2 28  1  0
 28 29  2  0
 29 30  1  0
 30 31  2  0
 31 32  1  0
 32 33  2  0
 10  6  1  0
 27 17  1  0
 33 28  1  0
 26 20  1  0
  1 34  1  0
  1 35  1  0
  1 36  1  0
  2 37  1  1
  3 38  1  0
  6 39  1  6
  7 40  1  0
  7 41  1  0
  8 42  1  0
  8 43  1  0
  9 44  1  0
  9 45  1  0
 13 46  1  0
 13 47  1  0
 14 48  1  0
 18 49  1  0
 19 50  1  0
 21 51  1  0
 24 52  1  0
 25 53  1  0
 29 54  1  0
 30 55  1  0
 31 56  1  0
 32 57  1  0
 33 58  1  0
M  END
>  <smiles>  (44) 
C[C@H](NC(=O)[C@H]1CCCN1C(=O)CNC(=O)c1ccc2cc(F)ccc2n1)c1ccccc1

>  <score_type>  (44) 
oracle

>  <origin>  (44) 
autodockgpu

>  <m_score__min__energy>  (44) 
-9.4700000000000006

>  <m_primary>  (44) 
energy

>  <rmsd>  (44) 
2.371560383727534

>  <m_score__min__rmsd>  (44) 
2.371560383727534

>  <meeko>  (44) 
{"free_energy": -8.95, "intermolecular_energy": -11.03, "internal_energy": -2.48, "cluster_size": 22, "cluster_id": 1, "rank_in_cluster": 6}

>  <energy>  (44) 
-7.92

>  <cluster_rmsd>  (44) 
1.93

>  <cluster>  (44) 
4

$$$$

     RDKit          3D

 58 61  0  0  0  0  0  0  0  0999 V2000
  142.9970   79.9500  223.0530 C   0  0  0  0  0  0  0  0  0  0  0  0
  141.7840   79.0370  223.0050 C   0  0  2  0  0  0  0  0  0  0  0  0
  141.8790   78.3140  221.7490 N   0  0  0  0  0  0  0  0  0  0  0  0
  141.0740   77.1780  221.4480 C   0  0  0  0  0  0  0  0  0  0  0  0
  140.2240   76.7170  222.2390 O   0  0  0  0  0  0  0  0  0  0  0  0
  141.2920   76.5390  220.1050 C   0  0  1  0  0  0  0  0  0  0  0  0
  141.7920   77.6110  219.1770 C   0  0  0  0  0  0  0  0  0  0  0  0
  142.9620   76.9430  218.4870 C   0  0  0  0  0  0  0  0  0  0  0  0
  143.5190   76.1130  219.6500 C   0  0  0  0  0  0  0  0  0  0  0  0
  142.3120   75.5230  220.1960 N   0  0  0  0  0  0  0  0  0  0  0  0
  142.0960   74.2230  220.7310 C   0  0  0  0  0  0  0  0  0  0  0  0
  143.0220   73.3840  220.8530 O   0  0  0  0  0  0  0  0  0  0  0  0
  140.6980   73.8980  221.1470 C   0  0  0  0  0  0  0  0  0  0  0  0
  140.7250   73.0660  222.3270 N   0  0  0  0  0  0  0  0  0  0  0  0
  139.7410   72.0340  222.4430 C   0  0  0  0  0  0  0  0  0  0  0  0
  138.8740   71.8590  221.5310 O   0  0  0  0  0  0  0  0  0  0  0  0
  139.7500   71.1770  223.6340 C   0  0  0  0  0  0  0  0  0  0  0  0
  139.0640   69.9750  223.5940 C   0  0  0  0  0  0  0  0  0  0  0  0
  139.0240   69.1130  224.6760 C   0  0  0  0  0  0  0  0  0  0  0  0
  139.6870   69.4570  225.8350 C   0  0  0  0  0  0  0  0  0  0  0  0
  139.6790   68.6310  226.9460 C   0  0  0  0  0  0  0  0  0  0  0  0
  140.3460   68.9930  228.0900 C   0  0  0  0  0  0  0  0  0  0  0  0
  140.3130   68.1530  229.1540 F   0  0  0  0  0  0  0  0  0  0  0  0
  141.0180   70.1840  228.1090 C   0  0  0  0  0  0  0  0  0  0  0  0
  141.0330   71.0180  227.0050 C   0  0  0  0  0  0  0  0  0  0  0  0
  140.3680   70.6790  225.8350 C   0  0  0  0  0  0  0  0  0  0  0  0
  140.3800   71.4870  224.7610 N   0  0  0  0  0  0  0  0  0  0  0  0
  140.5230   79.8170  223.1250 C   0  0  0  0  0  0  0  0  0  0  0  0
  140.3350   80.9840  222.3750 C   0  0  0  0  0  0  0  0  0  0  0  0
  139.1640   81.7040  222.4900 C   0  0  0  0  0  0  0  0  0  0  0  0
  138.1470   81.3190  223.3270 C   0  0  0  0  0  0  0  0  0  0  0  0
  138.3160   80.1630  224.0800 C   0  0  0  0  0  0  0  0  0  0  0  0
  139.4930   79.4350  223.9680 C   0  0  0  0  0  0  0  0  0  0  0  0
  143.2636   80.1507  224.1012 H   0  0  0  0  0  0  0  0  0  0  0  0
  143.8430   79.4626  222.5463 H   0  0  0  0  0  0  0  0  0  0  0  0
  142.7628   80.8978  222.5463 H   0  0  0  0  0  0  0  0  0  0  0  0
  141.7657   78.3326  223.8497 H   0  0  0  0  0  0  0  0  0  0  0  0
  142.5790   78.6660  221.0600 H   0  0  0  0  0  0  0  0  0  0  0  0
  140.3553   76.0848  219.7497 H   0  0  0  0  0  0  0  0  0  0  0  0
  141.0170   77.8994  218.4516 H   0  0  0  0  0  0  0  0  0  0  0  0
  142.0674   78.5409  219.6961 H   0  0  0  0  0  0  0  0  0  0  0  0
  142.6342   76.3067  217.6517 H   0  0  0  0  0  0  0  0  0  0  0  0
  143.6824   77.6334  218.0240 H   0  0  0  0  0  0  0  0  0  0  0  0
  144.2166   75.3409  219.2934 H   0  0  0  0  0  0  0  0  0  0  0  0
  144.0984   76.6988  220.3788 H   0  0  0  0  0  0  0  0  0  0  0  0
  140.1559   74.8293  221.3680 H   0  0  0  0  0  0  0  0  0  0  0  0
  140.1900   73.3607  220.3326 H   0  0  0  0  0  0  0  0  0  0  0  0
  141.4100   73.1650  223.1020 H   0  0  0  0  0  0  0  0  0  0  0  0
  138.5333   69.6960  222.6718 H   0  0  0  0  0  0  0  0  0  0  0  0
  138.4700   68.1649  224.6121 H   0  0  0  0  0  0  0  0  0  0  0  0
  139.1335   67.6764  226.9118 H   0  0  0  0  0  0  0  0  0  0  0  0
  141.5570   70.4847  229.0195 H   0  0  0  0  0  0  0  0  0  0  0  0
  141.5833   71.9691  227.0557 H   0  0  0  0  0  0  0  0  0  0  0  0
  141.1246   81.3284  221.6909 H   0  0  0  0  0  0  0  0  0  0  0  0
  139.0413   82.6180  221.8903 H   0  0  0  0  0  0  0  0  0  0  0  0
  137.2221   81.9099  223.4001 H   0  0  0  0  0  0  0  0  0  0  0  0
  137.5209   79.8264  224.7616 H   0  0  0  0  0  0  0  0  0  0  0  0
  139.6115   78.5223  224.5704 H   0  0  0  0  0  0  0  0  0  0  0  0
  1  2  1  0
  2  3  1  0
  3  4  1  0
  4  5  2  0
  4  6  1  0
  6  7  1  0
  7  8  1  0
  8  9  1  0
  9 10  1  0
 10 11  1  0
 11 12  2  0
 11 13  1  0
 13 14  1  0
 14 15  1  0
 15 16  2  0
 15 17  1  0
 17 18  2  0
 18 19  1  0
 19 20  2  0
 20 21  1  0
 21 22  2  0
 22 23  1  0
 22 24  1  0
 24 25  2  0
 25 26  1  0
 26 27  2  0
  2 28  1  0
 28 29  2  0
 29 30  1  0
 30 31  2  0
 31 32  1  0
 32 33  2  0
 10  6  1  0
 27 17  1  0
 33 28  1  0
 26 20  1  0
  1 34  1  0
  1 35  1  0
  1 36  1  0
  2 37  1  1
  3 38  1  0
  6 39  1  6
  7 40  1  0
  7 41  1  0
  8 42  1  0
  8 43  1  0
  9 44  1  0
  9 45  1  0
 13 46  1  0
 13 47  1  0
 14 48  1  0
 18 49  1  0
 19 50  1  0
 21 51  1  0
 24 52  1  0
 25 53  1  0
 29 54  1  0
 30 55  1  0
 31 56  1  0
 32 57  1  0
 33 58  1  0
M  END
>  <smiles>  (45) 
C[C@H](NC(=O)[C@H]1CCCN1C(=O)CNC(=O)c1ccc2cc(F)ccc2n1)c1ccccc1

>  <score_type>  (45) 
oracle

>  <origin>  (45) 
autodockgpu

>  <m_score__min__energy>  (45) 
-9.4700000000000006

>  <m_primary>  (45) 
energy

>  <rmsd>  (45) 
2.4577238089358815

>  <m_score__min__rmsd>  (45) 
2.4577238089358815

>  <meeko>  (45) 
{"free_energy": -8.91, "intermolecular_energy": -11.0, "internal_energy": -2.04, "cluster_size": 16, "cluster_id": 2, "rank_in_cluster": 8}

>  <energy>  (45) 
-8.42

>  <cluster_rmsd>  (45) 
0.0

>  <cluster>  (45) 
5

$$$$

     RDKit          3D

 58 61  0  0  0  0  0  0  0  0999 V2000
  142.9690   79.6850  222.7600 C   0  0  0  0  0  0  0  0  0  0  0  0
  141.6850   78.9710  223.1420 C   0  0  2  0  0  0  0  0  0  0  0  0
  141.5330   77.8870  222.1880 N   0  0  0  0  0  0  0  0  0  0  0  0
  141.6260   78.0770  220.7800 C   0  0  0  0  0  0  0  0  0  0  0  0
  141.8450   79.1900  220.2560 O   0  0  0  0  0  0  0  0  0  0  0  0
  141.4450   76.8550  219.9240 C   0  0  1  0  0  0  0  0  0  0  0  0
  142.7500   76.6070  219.2200 C   0  0  0  0  0  0  0  0  0  0  0  0
  142.9650   75.1210  219.4180 C   0  0  0  0  0  0  0  0  0  0  0  0
  142.4030   74.9580  220.8360 C   0  0  0  0  0  0  0  0  0  0  0  0
  141.1640   75.7060  220.7510 N   0  0  0  0  0  0  0  0  0  0  0  0
  139.8950   75.4330  221.3310 C   0  0  0  0  0  0  0  0  0  0  0  0
  139.3180   76.2440  222.0980 O   0  0  0  0  0  0  0  0  0  0  0  0
  139.2710   74.1220  220.9810 C   0  0  0  0  0  0  0  0  0  0  0  0
  139.1990   73.2900  222.1590 N   0  0  0  0  0  0  0  0  0  0  0  0
  140.2170   72.3030  222.3470 C   0  0  0  0  0  0  0  0  0  0  0  0
  141.1550   72.1680  221.5010 O   0  0  0  0  0  0  0  0  0  0  0  0
  140.1630   71.4460  223.5370 C   0  0  0  0  0  0  0  0  0  0  0  0
  139.5980   70.1860  223.4270 C   0  0  0  0  0  0  0  0  0  0  0  0
  139.5100   69.3210  224.5040 C   0  0  0  0  0  0  0  0  0  0  0  0
  139.9990   69.7200  225.7290 C   0  0  0  0  0  0  0  0  0  0  0  0
  139.9360   68.8930  226.8380 C   0  0  0  0  0  0  0  0  0  0  0  0
  140.4290   69.3110  228.0490 C   0  0  0  0  0  0  0  0  0  0  0  0
  140.3470   68.4680  229.1080 F   0  0  0  0  0  0  0  0  0  0  0  0
  140.9830   70.5580  228.1380 C   0  0  0  0  0  0  0  0  0  0  0  0
  141.0520   71.3940  227.0370 C   0  0  0  0  0  0  0  0  0  0  0  0
  140.5620   70.9980  225.8000 C   0  0  0  0  0  0  0  0  0  0  0  0
  140.6270   71.8080  224.7290 N   0  0  0  0  0  0  0  0  0  0  0  0
  140.5300   79.9090  223.1350 C   0  0  0  0  0  0  0  0  0  0  0  0
  140.5570   81.0640  222.3450 C   0  0  0  0  0  0  0  0  0  0  0  0
  139.4840   81.9310  222.3410 C   0  0  0  0  0  0  0  0  0  0  0  0
  138.3600   81.7080  223.0980 C   0  0  0  0  0  0  0  0  0  0  0  0
  138.3160   80.5660  223.8900 C   0  0  0  0  0  0  0  0  0  0  0  0
  139.3940   79.6910  223.8960 C   0  0  0  0  0  0  0  0  0  0  0  0
  143.5072   79.9843  223.6714 H   0  0  0  0  0  0  0  0  0  0  0  0
  143.6016   79.0091  222.1659 H   0  0  0  0  0  0  0  0  0  0  0  0
  142.7286   80.5790  222.1659 H   0  0  0  0  0  0  0  0  0  0  0  0
  141.7244   78.5736  224.1669 H   0  0  0  0  0  0  0  0  0  0  0  0
  141.3480   76.9400  222.5840 H   0  0  0  0  0  0  0  0  0  0  0  0
  140.6150   77.0097  219.2189 H   0  0  0  0  0  0  0  0  0  0  0  0
  142.6768   76.8572  218.1513 H   0  0  0  0  0  0  0  0  0  0  0  0
  143.5762   77.2207  219.6083 H   0  0  0  0  0  0  0  0  0  0  0  0
  142.4016   74.5256  218.6845 H   0  0  0  0  0  0  0  0  0  0  0  0
  144.0033   74.7815  219.2890 H   0  0  0  0  0  0  0  0  0  0  0  0
  142.2169   73.9003  221.0741 H   0  0  0  0  0  0  0  0  0  0  0  0
  143.0818   75.3084  221.6275 H   0  0  0  0  0  0  0  0  0  0  0  0
  138.2569   74.2920  220.5903 H   0  0  0  0  0  0  0  0  0  0  0  0
  139.8810   73.6198  220.2157 H   0  0  0  0  0  0  0  0  0  0  0  0
  138.4560   73.3560  222.8830 H   0  0  0  0  0  0  0  0  0  0  0  0
  139.2063   69.8621  222.4514 H   0  0  0  0  0  0  0  0  0  0  0  0
  139.0551   68.3268  224.3835 H   0  0  0  0  0  0  0  0  0  0  0  0
  139.4872   67.8928  226.7477 H   0  0  0  0  0  0  0  0  0  0  0  0
  141.3816   70.9034  229.1033 H   0  0  0  0  0  0  0  0  0  0  0  0
  141.5037   72.3912  227.1443 H   0  0  0  0  0  0  0  0  0  0  0  0
  141.4385   81.2816  221.7240 H   0  0  0  0  0  0  0  0  0  0  0  0
  139.5302   82.8311  221.7104 H   0  0  0  0  0  0  0  0  0  0  0  0
  137.5168   82.4142  223.0783 H   0  0  0  0  0  0  0  0  0  0  0  0
  137.4311   80.3567  224.5090 H   0  0  0  0  0  0  0  0  0  0  0  0
  139.3437   78.7922  224.5281 H   0  0  0  0  0  0  0  0  0  0  0  0
  1  2  1  0
  2  3  1  0
  3  4  1  0
  4  5  2  0
  4  6  1  0
  6  7  1  0
  7  8  1  0
  8  9  1  0
  9 10  1  0
 10 11  1  0
 11 12  2  0
 11 13  1  0
 13 14  1  0
 14 15  1  0
 15 16  2  0
 15 17  1  0
 17 18  2  0
 18 19  1  0
 19 20  2  0
 20 21  1  0
 21 22  2  0
 22 23  1  0
 22 24  1  0
 24 25  2  0
 25 26  1  0
 26 27  2  0
  2 28  1  0
 28 29  2  0
 29 30  1  0
 30 31  2  0
 31 32  1  0
 32 33  2  0
 10  6  1  0
 27 17  1  0
 33 28  1  0
 26 20  1  0
  1 34  1  0
  1 35  1  0
  1 36  1  0
  2 37  1  1
  3 38  1  0
  6 39  1  6
  7 40  1  0
  7 41  1  0
  8 42  1  0
  8 43  1  0
  9 44  1  0
  9 45  1  0
 13 46  1  0
 13 47  1  0
 14 48  1  0
 18 49  1  0
 19 50  1  0
 21 51  1  0
 24 52  1  0
 25 53  1  0
 29 54  1  0
 30 55  1  0
 31 56  1  0
 32 57  1  0
 33 58  1  0
M  END
>  <smiles>  (46) 
C[C@H](NC(=O)[C@H]1CCCN1C(=O)CNC(=O)c1ccc2cc(F)ccc2n1)c1ccccc1

>  <score_type>  (46) 
oracle

>  <origin>  (46) 
autodockgpu

>  <m_score__min__energy>  (46) 
-9.4700000000000006

>  <m_primary>  (46) 
energy

>  <rmsd>  (46) 
2.327442266590436

>  <m_score__min__rmsd>  (46) 
2.327442266590436

>  <meeko>  (46) 
{"free_energy": -9.17, "intermolecular_energy": -11.26, "internal_energy": -2.55, "cluster_size": 16, "cluster_id": 2, "rank_in_cluster": 5}

>  <energy>  (46) 
-8.33

>  <cluster_rmsd>  (46) 
0.94

>  <cluster>  (46) 
5

$$$$

     RDKit          3D

 58 61  0  0  0  0  0  0  0  0999 V2000
  140.3300   71.6330  223.7930 C   0  0  0  0  0  0  0  0  0  0  0  0
  139.4950   70.5180  224.3970 C   0  0  2  0  0  0  0  0  0  0  0  0
  138.1290   71.0100  224.4170 N   0  0  0  0  0  0  0  0  0  0  0  0
  136.9990   70.1530  224.5500 C   0  0  0  0  0  0  0  0  0  0  0  0
  137.0960   68.9120  224.6600 O   0  0  0  0  0  0  0  0  0  0  0  0
  135.6500   70.8160  224.5530 C   0  0  1  0  0  0  0  0  0  0  0  0
  135.8310   72.1980  223.9910 C   0  0  0  0  0  0  0  0  0  0  0  0
  134.6930   72.3130  223.0000 C   0  0  0  0  0  0  0  0  0  0  0  0
  134.6610   70.8760  222.4630 C   0  0  0  0  0  0  0  0  0  0  0  0
  134.7430   70.1020  223.6870 N   0  0  0  0  0  0  0  0  0  0  0  0
  134.0970   68.8850  224.0380 C   0  0  0  0  0  0  0  0  0  0  0  0
  134.6750   67.7720  223.9670 O   0  0  0  0  0  0  0  0  0  0  0  0
  132.6820   68.9930  224.5030 C   0  0  0  0  0  0  0  0  0  0  0  0
  132.4120   70.3460  224.9290 N   0  0  0  0  0  0  0  0  0  0  0  0
  132.9870   70.7890  226.1610 C   0  0  0  0  0  0  0  0  0  0  0  0
  133.7130   70.0110  226.8550 O   0  0  0  0  0  0  0  0  0  0  0  0
  132.7260   72.1600  226.6130 C   0  0  0  0  0  0  0  0  0  0  0  0
  131.6430   72.3940  227.4440 C   0  0  0  0  0  0  0  0  0  0  0  0
  131.3320   73.6590  227.9110 C   0  0  0  0  0  0  0  0  0  0  0  0
  132.1220   74.7260  227.5410 C   0  0  0  0  0  0  0  0  0  0  0  0
  131.8540   76.0120  227.9800 C   0  0  0  0  0  0  0  0  0  0  0  0
  132.6540   77.0600  227.5990 C   0  0  0  0  0  0  0  0  0  0  0  0
  132.3560   78.3020  228.0540 F   0  0  0  0  0  0  0  0  0  0  0  0
  133.7190   76.8090  226.7780 C   0  0  0  0  0  0  0  0  0  0  0  0
  133.9960   75.5280  226.3330 C   0  0  0  0  0  0  0  0  0  0  0  0
  133.2050   74.4490  226.7010 C   0  0  0  0  0  0  0  0  0  0  0  0
  133.4720   73.2040  226.2700 N   0  0  0  0  0  0  0  0  0  0  0  0
  139.9930   70.1510  225.7500 C   0  0  0  0  0  0  0  0  0  0  0  0
  140.4410   71.1380  226.6350 C   0  0  0  0  0  0  0  0  0  0  0  0
  140.9020   70.7930  227.8890 C   0  0  0  0  0  0  0  0  0  0  0  0
  140.9440   69.4910  228.3200 C   0  0  0  0  0  0  0  0  0  0  0  0
  140.5030   68.4960  227.4540 C   0  0  0  0  0  0  0  0  0  0  0  0
  140.0380   68.8390  226.1920 C   0  0  0  0  0  0  0  0  0  0  0  0
  140.7790   72.2325  224.5986 H   0  0  0  0  0  0  0  0  0  0  0  0
  141.1269   71.1988  223.1714 H   0  0  0  0  0  0  0  0  0  0  0  0
  139.6891   72.2755  223.1714 H   0  0  0  0  0  0  0  0  0  0  0  0
  139.5578   69.5912  223.8078 H   0  0  0  0  0  0  0  0  0  0  0  0
  138.0040   72.0420  224.3270 H   0  0  0  0  0  0  0  0  0  0  0  0
  135.2425   70.8330  225.5746 H   0  0  0  0  0  0  0  0  0  0  0  0
  135.7470   72.9599  224.7799 H   0  0  0  0  0  0  0  0  0  0  0  0
  136.8201   72.3553  223.5361 H   0  0  0  0  0  0  0  0  0  0  0  0
  133.7483   72.5857  223.4931 H   0  0  0  0  0  0  0  0  0  0  0  0
  134.8230   73.0912  222.2335 H   0  0  0  0  0  0  0  0  0  0  0  0
  133.7258   70.6713  221.9212 H   0  0  0  0  0  0  0  0  0  0  0  0
  135.4586   70.6522  221.7392 H   0  0  0  0  0  0  0  0  0  0  0  0
  132.0047   68.7273  223.6780 H   0  0  0  0  0  0  0  0  0  0  0  0
  132.5225   68.3064  225.3474 H   0  0  0  0  0  0  0  0  0  0  0  0
  131.8270   71.0230  224.4010 H   0  0  0  0  0  0  0  0  0  0  0  0
  131.0090   71.5462  227.7427 H   0  0  0  0  0  0  0  0  0  0  0  0
  130.4644   73.8111  228.5698 H   0  0  0  0  0  0  0  0  0  0  0  0
  130.9928   76.1949  228.6395 H   0  0  0  0  0  0  0  0  0  0  0  0
  134.3674   77.6408  226.4656 H   0  0  0  0  0  0  0  0  0  0  0  0
  134.8610   75.3619  225.6740 H   0  0  0  0  0  0  0  0  0  0  0  0
  140.4256   72.1946  226.3294 H   0  0  0  0  0  0  0  0  0  0  0  0
  141.2474   71.5884  228.5658 H   0  0  0  0  0  0  0  0  0  0  0  0
  141.3167   69.2407  229.3242 H   0  0  0  0  0  0  0  0  0  0  0  0
  140.5227   67.4419  227.7678 H   0  0  0  0  0  0  0  0  0  0  0  0
  139.6929   68.0404  225.5188 H   0  0  0  0  0  0  0  0  0  0  0  0
  1  2  1  0
  2  3  1  0
  3  4  1  0
  4  5  2  0
  4  6  1  0
  6  7  1  0
  7  8  1  0
  8  9  1  0
  9 10  1  0
 10 11  1  0
 11 12  2  0
 11 13  1  0
 13 14  1  0
 14 15  1  0
 15 16  2  0
 15 17  1  0
 17 18  2  0
 18 19  1  0
 19 20  2  0
 20 21  1  0
 21 22  2  0
 22 23  1  0
 22 24  1  0
 24 25  2  0
 25 26  1  0
 26 27  2  0
  2 28  1  0
 28 29  2  0
 29 30  1  0
 30 31  2  0
 31 32  1  0
 32 33  2  0
 10  6  1  0
 27 17  1  0
 33 28  1  0
 26 20  1  0
  1 34  1  0
  1 35  1  0
  1 36  1  0
  2 37  1  6
  3 38  1  0
  6 39  1  1
  7 40  1  0
  7 41  1  0
  8 42  1  0
  8 43  1  0
  9 44  1  0
  9 45  1  0
 13 46  1  0
 13 47  1  0
 14 48  1  0
 18 49  1  0
 19 50  1  0
 21 51  1  0
 24 52  1  0
 25 53  1  0
 29 54  1  0
 30 55  1  0
 31 56  1  0
 32 57  1  0
 33 58  1  0
M  END
>  <smiles>  (47) 
C[C@H](NC(=O)[C@H]1CCCN1C(=O)CNC(=O)c1ccc2cc(F)ccc2n1)c1ccccc1

>  <score_type>  (47) 
oracle

>  <origin>  (47) 
autodockgpu

>  <m_score__min__energy>  (47) 
-9.4700000000000006

>  <m_primary>  (47) 
energy

>  <rmsd>  (47) 
10.011096820732833

>  <m_score__min__rmsd>  (47) 
10.011096820732833

>  <meeko>  (47) 
{"free_energy": -8.66, "intermolecular_energy": -10.75, "internal_energy": -2.25, "cluster_size": 1, "cluster_id": 3, "rank_in_cluster": 1}

>  <energy>  (47) 
-8.13

>  <cluster_rmsd>  (47) 
1.68

>  <cluster>  (47) 
5

$$$$

     RDKit          3D

 58 61  0  0  0  0  0  0  0  0999 V2000
  138.3030   79.6350  221.8570 C   0  0  0  0  0  0  0  0  0  0  0  0
  139.6950   79.6230  221.2490 C   0  0  2  0  0  0  0  0  0  0  0  0
  139.8830   78.2860  220.7130 N   0  0  0  0  0  0  0  0  0  0  0  0
  140.9290   77.9580  219.8040 C   0  0  0  0  0  0  0  0  0  0  0  0
  141.7660   78.7920  219.3980 O   0  0  0  0  0  0  0  0  0  0  0  0
  140.9910   76.5290  219.3400 C   0  0  1  0  0  0  0  0  0  0  0  0
  142.2100   76.3950  218.4720 C   0  0  0  0  0  0  0  0  0  0  0  0
  142.8580   75.1280  218.9900 C   0  0  0  0  0  0  0  0  0  0  0  0
  142.5530   75.2670  220.4870 C   0  0  0  0  0  0  0  0  0  0  0  0
  141.1530   75.6460  220.4690 N   0  0  0  0  0  0  0  0  0  0  0  0
  140.0980   75.2700  221.3440 C   0  0  0  0  0  0  0  0  0  0  0  0
  139.8000   75.9380  222.3650 O   0  0  0  0  0  0  0  0  0  0  0  0
  139.3480   74.0270  220.9890 C   0  0  0  0  0  0  0  0  0  0  0  0
  139.2170   73.1890  222.1570 N   0  0  0  0  0  0  0  0  0  0  0  0
  140.3250   72.3590  222.5150 C   0  0  0  0  0  0  0  0  0  0  0  0
  141.3910   72.3640  221.8230 O   0  0  0  0  0  0  0  0  0  0  0  0
  140.2140   71.4990  223.6990 C   0  0  0  0  0  0  0  0  0  0  0  0
  139.5900   70.2690  223.5730 C   0  0  0  0  0  0  0  0  0  0  0  0
  139.4450   69.4030  224.6430 C   0  0  0  0  0  0  0  0  0  0  0  0
  139.9370   69.7700  225.8770 C   0  0  0  0  0  0  0  0  0  0  0  0
  139.8190   68.9410  226.9800 C   0  0  0  0  0  0  0  0  0  0  0  0
  140.3160   69.3270  228.2000 C   0  0  0  0  0  0  0  0  0  0  0  0
  140.1790   68.4830  229.2520 F   0  0  0  0  0  0  0  0  0  0  0  0
  140.9290   70.5450  228.3040 C   0  0  0  0  0  0  0  0  0  0  0  0
  141.0530   71.3820  227.2090 C   0  0  0  0  0  0  0  0  0  0  0  0
  140.5600   71.0190  225.9630 C   0  0  0  0  0  0  0  0  0  0  0  0
  140.6790   71.8310  224.8980 N   0  0  0  0  0  0  0  0  0  0  0  0
  140.7230   79.9860  222.2620 C   0  0  0  0  0  0  0  0  0  0  0  0
  141.2590   79.0110  223.1110 C   0  0  0  0  0  0  0  0  0  0  0  0
  142.2120   79.3520  224.0490 C   0  0  0  0  0  0  0  0  0  0  0  0
  142.6710   80.6380  224.1910 C   0  0  0  0  0  0  0  0  0  0  0  0
  142.1500   81.6200  223.3560 C   0  0  0  0  0  0  0  0  0  0  0  0
  141.1910   81.2810  222.4110 C   0  0  0  0  0  0  0  0  0  0  0  0
  138.3821   79.6343  222.9541 H   0  0  0  0  0  0  0  0  0  0  0  0
  137.7672   80.5378  221.5286 H   0  0  0  0  0  0  0  0  0  0  0  0
  137.7517   78.7416  221.5286 H   0  0  0  0  0  0  0  0  0  0  0  0
  139.8028   80.3724  220.4510 H   0  0  0  0  0  0  0  0  0  0  0  0
  139.2040   77.5590  221.0260 H   0  0  0  0  0  0  0  0  0  0  0  0
  140.0673   76.2684  218.8024 H   0  0  0  0  0  0  0  0  0  0  0  0
  141.9320   76.2925  217.4127 H   0  0  0  0  0  0  0  0  0  0  0  0
  142.8733   77.2714  218.5171 H   0  0  0  0  0  0  0  0  0  0  0  0
  142.3947   74.2274  218.5607 H   0  0  0  0  0  0  0  0  0  0  0  0
  143.9240   75.0176  218.7422 H   0  0  0  0  0  0  0  0  0  0  0  0
  142.7037   74.3149  221.0168 H   0  0  0  0  0  0  0  0  0  0  0  0
  143.2027   75.9843  221.0099 H   0  0  0  0  0  0  0  0  0  0  0  0
  138.3481   74.2964  220.6179 H   0  0  0  0  0  0  0  0  0  0  0  0
  139.8965   73.4806  220.2076 H   0  0  0  0  0  0  0  0  0  0  0  0
  138.3710   73.1450  222.7580 H   0  0  0  0  0  0  0  0  0  0  0  0
  139.1966   69.9704  222.5901 H   0  0  0  0  0  0  0  0  0  0  0  0
  138.9430   68.4333  224.5100 H   0  0  0  0  0  0  0  0  0  0  0  0
  139.3227   67.9647  226.8776 H   0  0  0  0  0  0  0  0  0  0  0  0
  141.3311   70.8654  229.2764 H   0  0  0  0  0  0  0  0  0  0  0  0
  141.5524   72.3548  227.3283 H   0  0  0  0  0  0  0  0  0  0  0  0
  140.9190   77.9680  223.0302 H   0  0  0  0  0  0  0  0  0  0  0  0
  142.6173   78.5673  224.7047 H   0  0  0  0  0  0  0  0  0  0  0  0
  143.4316   80.8852  224.9462 H   0  0  0  0  0  0  0  0  0  0  0  0
  142.4959   82.6605  223.4437 H   0  0  0  0  0  0  0  0  0  0  0  0
  140.7886   82.0689  221.7574 H   0  0  0  0  0  0  0  0  0  0  0  0
  1  2  1  0
  2  3  1  0
  3  4  1  0
  4  5  2  0
  4  6  1  0
  6  7  1  0
  7  8  1  0
  8  9  1  0
  9 10  1  0
 10 11  1  0
 11 12  2  0
 11 13  1  0
 13 14  1  0
 14 15  1  0
 15 16  2  0
 15 17  1  0
 17 18  2  0
 18 19  1  0
 19 20  2  0
 20 21  1  0
 21 22  2  0
 22 23  1  0
 22 24  1  0
 24 25  2  0
 25 26  1  0
 26 27  2  0
  2 28  1  0
 28 29  2  0
 29 30  1  0
 30 31  2  0
 31 32  1  0
 32 33  2  0
 10  6  1  0
 27 17  1  0
 33 28  1  0
 26 20  1  0
  1 34  1  0
  1 35  1  0
  1 36  1  0
  2 37  1  6
  3 38  1  0
  6 39  1  6
  7 40  1  0
  7 41  1  0
  8 42  1  0
  8 43  1  0
  9 44  1  0
  9 45  1  0
 13 46  1  0
 13 47  1  0
 14 48  1  0
 18 49  1  0
 19 50  1  0
 21 51  1  0
 24 52  1  0
 25 53  1  0
 29 54  1  0
 30 55  1  0
 31 56  1  0
 32 57  1  0
 33 58  1  0
M  END
>  <smiles>  (48) 
C[C@H](NC(=O)[C@H]1CCCN1C(=O)CNC(=O)c1ccc2cc(F)ccc2n1)c1ccccc1

>  <score_type>  (48) 
oracle

>  <origin>  (48) 
autodockgpu

>  <m_score__min__energy>  (48) 
-9.4700000000000006

>  <m_primary>  (48) 
energy

>  <rmsd>  (48) 
2.8380326644358296

>  <m_score__min__rmsd>  (48) 
2.8380326644358296

>  <meeko>  (48) 
{"free_energy": -8.76, "intermolecular_energy": -10.85, "internal_energy": -2.7, "cluster_size": 22, "cluster_id": 1, "rank_in_cluster": 14}

>  <energy>  (48) 
-7.94

>  <cluster_rmsd>  (48) 
1.47

>  <cluster>  (48) 
5

$$$$

     RDKit          3D

 58 61  0  0  0  0  0  0  0  0999 V2000
  139.3470   77.7140  222.6750 C   0  0  0  0  0  0  0  0  0  0  0  0
  140.3370   78.3870  221.7410 C   0  0  2  0  0  0  0  0  0  0  0  0
  141.0830   77.3120  221.1100 N   0  0  0  0  0  0  0  0  0  0  0  0
  140.8780   76.9200  219.7560 C   0  0  0  0  0  0  0  0  0  0  0  0
  140.0430   77.4700  219.0060 O   0  0  0  0  0  0  0  0  0  0  0  0
  141.7290   75.7890  219.2480 C   0  0  1  0  0  0  0  0  0  0  0  0
  143.1630   76.1700  219.4850 C   0  0  0  0  0  0  0  0  0  0  0  0
  143.7510   74.9160  220.0960 C   0  0  0  0  0  0  0  0  0  0  0  0
  142.5590   74.4470  220.9390 C   0  0  0  0  0  0  0  0  0  0  0  0
  141.4610   74.5880  220.0020 N   0  0  0  0  0  0  0  0  0  0  0  0
  140.3220   73.7610  219.8050 C   0  0  0  0  0  0  0  0  0  0  0  0
  140.2870   72.8610  218.9290 O   0  0  0  0  0  0  0  0  0  0  0  0
  139.1520   74.0150  220.6990 C   0  0  0  0  0  0  0  0  0  0  0  0
  139.3610   73.3580  221.9680 N   0  0  0  0  0  0  0  0  0  0  0  0
  139.4830   71.9330  221.9740 C   0  0  0  0  0  0  0  0  0  0  0  0
  139.4100   71.2710  220.8930 O   0  0  0  0  0  0  0  0  0  0  0  0
  139.6950   71.2450  223.2530 C   0  0  0  0  0  0  0  0  0  0  0  0
  139.3620   69.9040  223.3510 C   0  0  0  0  0  0  0  0  0  0  0  0
  139.5320   69.1870  224.5230 C   0  0  0  0  0  0  0  0  0  0  0  0
  140.0490   69.8210  225.6310 C   0  0  0  0  0  0  0  0  0  0  0  0
  140.2400   69.1500  226.8270 C   0  0  0  0  0  0  0  0  0  0  0  0
  140.7560   69.8020  227.9200 C   0  0  0  0  0  0  0  0  0  0  0  0
  140.9260   69.1050  229.0700 F   0  0  0  0  0  0  0  0  0  0  0  0
  141.0790   71.1260  227.8020 C   0  0  0  0  0  0  0  0  0  0  0  0
  140.8930   71.8080  226.6120 C   0  0  0  0  0  0  0  0  0  0  0  0
  140.3730   71.1750  225.4920 C   0  0  0  0  0  0  0  0  0  0  0  0
  140.1910   71.8350  224.3350 N   0  0  0  0  0  0  0  0  0  0  0  0
  141.2130   79.3340  222.4830 C   0  0  0  0  0  0  0  0  0  0  0  0
  140.6560   80.3180  223.3080 C   0  0  0  0  0  0  0  0  0  0  0  0
  141.4710   81.1940  223.9940 C   0  0  0  0  0  0  0  0  0  0  0  0
  142.8400   81.1450  223.9020 C   0  0  0  0  0  0  0  0  0  0  0  0
  143.4110   80.1740  223.0860 C   0  0  0  0  0  0  0  0  0  0  0  0
  142.5940   79.2910  222.3940 C   0  0  0  0  0  0  0  0  0  0  0  0
  139.6355   77.9101  223.7182 H   0  0  0  0  0  0  0  0  0  0  0  0
  138.3392   78.1149  222.4917 H   0  0  0  0  0  0  0  0  0  0  0  0
  139.3491   76.6294  222.4917 H   0  0  0  0  0  0  0  0  0  0  0  0
  139.8325   79.0000  220.9796 H   0  0  0  0  0  0  0  0  0  0  0  0
  141.7900   76.8250  221.7020 H   0  0  0  0  0  0  0  0  0  0  0  0
  141.5171   75.6077  218.1839 H   0  0  0  0  0  0  0  0  0  0  0  0
  143.6663   76.4231  218.5402 H   0  0  0  0  0  0  0  0  0  0  0  0
  143.2760   77.0581  220.1241 H   0  0  0  0  0  0  0  0  0  0  0  0
  144.0241   74.1771  219.3283 H   0  0  0  0  0  0  0  0  0  0  0  0
  144.6846   75.0678  220.6575 H   0  0  0  0  0  0  0  0  0  0  0  0
  142.6810   73.4017  221.2590 H   0  0  0  0  0  0  0  0  0  0  0  0
  142.4236   75.0119  221.8731 H   0  0  0  0  0  0  0  0  0  0  0  0
  139.0429   75.0976  220.8607 H   0  0  0  0  0  0  0  0  0  0  0  0
  138.2398   73.6195  220.2285 H   0  0  0  0  0  0  0  0  0  0  0  0
  139.4270   73.8490  222.8810 H   0  0  0  0  0  0  0  0  0  0  0  0
  138.9492   69.3923  222.4691 H   0  0  0  0  0  0  0  0  0  0  0  0
  139.2572   68.1228  224.5688 H   0  0  0  0  0  0  0  0  0  0  0  0
  139.9760   68.0848  226.9024 H   0  0  0  0  0  0  0  0  0  0  0  0
  141.4947   71.6591  228.6698 H   0  0  0  0  0  0  0  0  0  0  0  0
  141.1627   72.8728  226.5530 H   0  0  0  0  0  0  0  0  0  0  0  0
  139.5633   80.3930  223.4097 H   0  0  0  0  0  0  0  0  0  0  0  0
  141.0086   81.9577  224.6366 H   0  0  0  0  0  0  0  0  0  0  0  0
  143.4688   81.8551  224.4591 H   0  0  0  0  0  0  0  0  0  0  0  0
  144.5047   80.1063  222.9897 H   0  0  0  0  0  0  0  0  0  0  0  0
  143.0604   78.5295  221.7517 H   0  0  0  0  0  0  0  0  0  0  0  0
  1  2  1  0
  2  3  1  0
  3  4  1  0
  4  5  2  0
  4  6  1  0
  6  7  1  0
  7  8  1  0
  8  9  1  0
  9 10  1  0
 10 11  1  0
 11 12  2  0
 11 13  1  0
 13 14  1  0
 14 15  1  0
 15 16  2  0
 15 17  1  0
 17 18  2  0
 18 19  1  0
 19 20  2  0
 20 21  1  0
 21 22  2  0
 22 23  1  0
 22 24  1  0
 24 25  2  0
 25 26  1  0
 26 27  2  0
  2 28  1  0
 28 29  2  0
 29 30  1  0
 30 31  2  0
 31 32  1  0
 32 33  2  0
 10  6  1  0
 27 17  1  0
 33 28  1  0
 26 20  1  0
  1 34  1  0
  1 35  1  0
  1 36  1  0
  2 37  1  6
  3 38  1  0
  6 39  1  6
  7 40  1  0
  7 41  1  0
  8 42  1  0
  8 43  1  0
  9 44  1  0
  9 45  1  0
 13 46  1  0
 13 47  1  0
 14 48  1  0
 18 49  1  0
 19 50  1  0
 21 51  1  0
 24 52  1  0
 25 53  1  0
 29 54  1  0
 30 55  1  0
 31 56  1  0
 32 57  1  0
 33 58  1  0
M  END
>  <smiles>  (49) 
C[C@H](NC(=O)[C@H]1CCCN1C(=O)CNC(=O)c1ccc2cc(F)ccc2n1)c1ccccc1

>  <score_type>  (49) 
oracle

>  <origin>  (49) 
autodockgpu

>  <m_score__min__energy>  (49) 
-9.4700000000000006

>  <m_primary>  (49) 
energy

>  <rmsd>  (49) 
2.8127445812699308

>  <m_score__min__rmsd>  (49) 
2.8127445812699308

>  <meeko>  (49) 
{"free_energy": -8.83, "intermolecular_energy": -10.92, "internal_energy": -2.1, "cluster_size": 22, "cluster_id": 1, "rank_in_cluster": 11}

>  <energy>  (49) 
-7.82

>  <cluster_rmsd>  (49) 
1.65

>  <cluster>  (49) 
5

$$$$

     RDKit          3D

 58 61  0  0  0  0  0  0  0  0999 V2000
  139.3950   79.5140  220.0680 C   0  0  0  0  0  0  0  0  0  0  0  0
  140.8360   79.0560  220.2120 C   0  0  2  0  0  0  0  0  0  0  0  0
  140.8280   77.6280  219.9480 N   0  0  0  0  0  0  0  0  0  0  0  0
  141.9430   76.9370  219.3940 C   0  0  0  0  0  0  0  0  0  0  0  0
  143.0150   77.5050  219.0920 O   0  0  0  0  0  0  0  0  0  0  0  0
  141.7790   75.4580  219.1810 C   0  0  1  0  0  0  0  0  0  0  0  0
  143.0820   74.9380  218.6420 C   0  0  0  0  0  0  0  0  0  0  0  0
  143.3270   73.7020  219.4810 C   0  0  0  0  0  0  0  0  0  0  0  0
  142.7810   74.1850  220.8310 C   0  0  0  0  0  0  0  0  0  0  0  0
  141.5270   74.7990  220.4400 N   0  0  0  0  0  0  0  0  0  0  0  0
  140.2690   74.8000  221.1020 C   0  0  0  0  0  0  0  0  0  0  0  0
  139.7540   75.8460  221.5680 O   0  0  0  0  0  0  0  0  0  0  0  0
  139.5780   73.4800  221.2180 C   0  0  0  0  0  0  0  0  0  0  0  0
  139.7570   72.9550  222.5520 N   0  0  0  0  0  0  0  0  0  0  0  0
  140.0110   71.5550  222.6920 C   0  0  0  0  0  0  0  0  0  0  0  0
  140.0780   70.8010  221.6720 O   0  0  0  0  0  0  0  0  0  0  0  0
  140.1960   70.9990  224.0380 C   0  0  0  0  0  0  0  0  0  0  0  0
  140.6720   71.8270  225.0410 C   0  0  0  0  0  0  0  0  0  0  0  0
  140.8730   71.3770  226.3340 C   0  0  0  0  0  0  0  0  0  0  0  0
  140.5930   70.0630  226.6400 C   0  0  0  0  0  0  0  0  0  0  0  0
  140.7770   69.5610  227.9180 C   0  0  0  0  0  0  0  0  0  0  0  0
  140.4920   68.2490  228.2010 C   0  0  0  0  0  0  0  0  0  0  0  0
  140.6860   67.8010  229.4660 F   0  0  0  0  0  0  0  0  0  0  0  0
  140.0230   67.4470  227.1970 C   0  0  0  0  0  0  0  0  0  0  0  0
  139.8350   67.9370  225.9160 C   0  0  0  0  0  0  0  0  0  0  0  0
  140.1150   69.2590  225.6000 C   0  0  0  0  0  0  0  0  0  0  0  0
  139.9340   69.7370  224.3570 N   0  0  0  0  0  0  0  0  0  0  0  0
  141.3700   79.3880  221.5610 C   0  0  0  0  0  0  0  0  0  0  0  0
  141.3500   78.4370  222.5870 C   0  0  0  0  0  0  0  0  0  0  0  0
  141.8460   78.7490  223.8360 C   0  0  0  0  0  0  0  0  0  0  0  0
  142.3720   79.9840  224.1270 C   0  0  0  0  0  0  0  0  0  0  0  0
  142.3990   80.9420  223.1190 C   0  0  0  0  0  0  0  0  0  0  0  0
  141.9010   80.6310  221.8610 C   0  0  0  0  0  0  0  0  0  0  0  0
  138.9534   79.6543  221.0656 H   0  0  0  0  0  0  0  0  0  0  0  0
  139.3660   80.4656  219.5170 H   0  0  0  0  0  0  0  0  0  0  0  0
  138.8219   78.7537  219.5170 H   0  0  0  0  0  0  0  0  0  0  0  0
  141.5039   79.5706  219.5056 H   0  0  0  0  0  0  0  0  0  0  0  0
  139.9510   77.1150  220.1860 H   0  0  0  0  0  0  0  0  0  0  0  0
  140.9402   75.2683  218.4951 H   0  0  0  0  0  0  0  0  0  0  0  0
  142.9949   74.6815  217.5759 H   0  0  0  0  0  0  0  0  0  0  0  0
  143.8996   75.6715  218.7007 H   0  0  0  0  0  0  0  0  0  0  0  0
  142.7684   72.8336  219.1017 H   0  0  0  0  0  0  0  0  0  0  0  0
  144.3704   73.3542  219.5005 H   0  0  0  0  0  0  0  0  0  0  0  0
  142.6175   73.3441  221.5211 H   0  0  0  0  0  0  0  0  0  0  0  0
  143.4600   74.8620  221.3701 H   0  0  0  0  0  0  0  0  0  0  0  0
  138.5044   73.6098  221.0167 H   0  0  0  0  0  0  0  0  0  0  0  0
  140.0071   72.7776  220.4883 H   0  0  0  0  0  0  0  0  0  0  0  0
  139.7130   73.5240  223.4190 H   0  0  0  0  0  0  0  0  0  0  0  0
  140.8977   72.8767  224.8019 H   0  0  0  0  0  0  0  0  0  0  0  0
  141.2518   72.0602  227.1084 H   0  0  0  0  0  0  0  0  0  0  0  0
  141.1551   70.2203  228.7132 H   0  0  0  0  0  0  0  0  0  0  0  0
  139.7910   66.3934  227.4115 H   0  0  0  0  0  0  0  0  0  0  0  0
  139.4558   67.2646  225.1324 H   0  0  0  0  0  0  0  0  0  0  0  0
  140.9367   77.4355  222.3969 H   0  0  0  0  0  0  0  0  0  0  0  0
  141.8193   77.9831  224.6251 H   0  0  0  0  0  0  0  0  0  0  0  0
  142.7616   80.2094  225.1307 H   0  0  0  0  0  0  0  0  0  0  0  0
  142.8131   81.9415  223.3177 H   0  0  0  0  0  0  0  0  0  0  0  0
  141.9293   81.3995  221.0745 H   0  0  0  0  0  0  0  0  0  0  0  0
  1  2  1  0
  2  3  1  0
  3  4  1  0
  4  5  2  0
  4  6  1  0
  6  7  1  0
  7  8  1  0
  8  9  1  0
  9 10  1  0
 10 11  1  0
 11 12  2  0
 11 13  1  0
 13 14  1  0
 14 15  1  0
 15 16  2  0
 15 17  1  0
 17 18  2  0
 18 19  1  0
 19 20  2  0
 20 21  1  0
 21 22  2  0
 22 23  1  0
 22 24  1  0
 24 25  2  0
 25 26  1  0
 26 27  2  0
  2 28  1  0
 28 29  2  0
 29 30  1  0
 30 31  2  0
 31 32  1  0
 32 33  2  0
 10  6  1  0
 27 17  1  0
 33 28  1  0
 26 20  1  0
  1 34  1  0
  1 35  1  0
  1 36  1  0
  2 37  1  6
  3 38  1  0
  6 39  1  6
  7 40  1  0
  7 41  1  0
  8 42  1  0
  8 43  1  0
  9 44  1  0
  9 45  1  0
 13 46  1  0
 13 47  1  0
 14 48  1  0
 18 49  1  0
 19 50  1  0
 21 51  1  0
 24 52  1  0
 25 53  1  0
 29 54  1  0
 30 55  1  0
 31 56  1  0
 32 57  1  0
 33 58  1  0
M  END
>  <smiles>  (50) 
C[C@H](NC(=O)[C@H]1CCCN1C(=O)CNC(=O)c1ccc2cc(F)ccc2n1)c1ccccc1

>  <score_type>  (50) 
oracle

>  <origin>  (50) 
autodockgpu

>  <m_score__min__energy>  (50) 
-9.4700000000000006

>  <m_primary>  (50) 
energy

>  <rmsd>  (50) 
3.530648713041145

>  <m_score__min__rmsd>  (50) 
3.530648713041145

>  <meeko>  (50) 
{"free_energy": -8.53, "intermolecular_energy": -10.62, "internal_energy": -2.59, "cluster_size": 22, "cluster_id": 1, "rank_in_cluster": 21}

>  <energy>  (50) 
-6.09

>  <cluster_rmsd>  (50) 
0.0

>  <cluster>  (50) 
6

$$$$
