@<TRIPOS>MOLECULE
*****
 57 60 0 0 0
SMALL
GASTEIGER

@<TRIPOS>ATOM
      1 O         141.1590   72.4090  221.7070 O.2     1  UNL1       -0.2685
      2 C         140.1970   72.4660  222.5460 C.2     1  UNL1        0.2628
      3 N         139.1760   73.4710  222.3480 N.am    1  UNL1       -0.3015
      4 C         139.1840   74.4050  221.2740 C.3     1  UNL1        0.0887
      5 C         140.2260   75.4110  221.1770 C.2     1  UNL1        0.2330
      6 O         141.0820   75.3790  222.1510 O.2     1  UNL1       -0.2739
      7 N         140.4790   76.4160  220.2120 N.am    1  UNL1       -0.2969
      8 C         139.8010   76.5730  218.9660 C.3     1  UNL1        0.0150
      9 C         140.6240   77.0380  217.8010 C.3     1  UNL1       -0.0371
     10 C         142.0590   77.3050  218.1410 C.3     1  UNL1       -0.0499
     11 C         142.2140   78.0350  219.4480 C.3     1  UNL1       -0.0340
     12 C         141.5140   77.3820  220.5520 C.3     1  UNL1        0.0289
     13 C         140.8850   78.3630  221.5480 C.3     1  UNL1       -0.0224
     14 C         140.8100   79.7520  221.0730 C.3     1  UNL1       -0.0485
     15 C         140.9300   80.8300  222.0980 C.3     1  UNL1       -0.0527
     16 C         141.7720   80.4490  223.2900 C.3     1  UNL1       -0.0530
     17 C         141.0670   79.2170  223.8720 C.3     1  UNL1       -0.0527
     18 C         141.4450   78.1210  222.9100 C.3     1  UNL1       -0.0485
     19 C         140.1260   71.5370  223.6830 C.ar    1  UNL1        0.1260
     20 C         139.5330   70.3140  223.4740 C.ar    1  UNL1       -0.0306
     21 C         139.4350   69.3980  224.5020 C.ar    1  UNL1       -0.0503
     22 C         139.9450   69.7430  225.7350 C.ar    1  UNL1        0.0031
     23 C         139.8900   68.8870  226.8200 C.ar    1  UNL1       -0.0173
     24 C         140.4050   69.2510  228.0460 C.ar    1  UNL1        0.1241
     25 F         140.3560   68.4250  229.1050 F       1  UNL1       -0.2055
     26 C         140.9810   70.4960  228.1710 C.ar    1  UNL1       -0.0244
     27 C         141.0600   71.3870  227.1110 C.ar    1  UNL1       -0.0330
     28 C         140.5350   70.9860  225.9100 C.ar    1  UNL1        0.0720
     29 N         140.6240   71.8790  224.8850 N.ar    1  UNL1       -0.2421
     30 H         138.4150   73.4390  223.0920 H       1  UNL1        0.1496
     31 H         139.2274   73.8165  220.3457 H       1  UNL1        0.0558
     32 H         138.2805   75.0037  221.4618 H       1  UNL1        0.0558
     33 H         139.3667   75.5984  218.6985 H       1  UNL1        0.0465
     34 H         139.0668   77.3740  219.1372 H       1  UNL1        0.0465
     35 H         140.5910   76.2623  217.0217 H       1  UNL1        0.0280
     36 H         140.1920   77.9921  217.4647 H       1  UNL1        0.0280
     37 H         142.5906   76.3443  218.2080 H       1  UNL1        0.0266
     38 H         142.4775   77.9436  217.3491 H       1  UNL1        0.0266
     39 H         143.2846   78.0892  219.6946 H       1  UNL1        0.0283
     40 H         141.7712   79.0340  219.3220 H       1  UNL1        0.0283
     41 H         142.3542   76.8280  220.9960 H       1  UNL1        0.0503
     42 H         139.8087   78.1536  221.6363 H       1  UNL1        0.0319
     43 H         141.6208   79.8968  220.3438 H       1  UNL1        0.0269
     44 H         139.7934   79.8585  220.6667 H       1  UNL1        0.0269
     45 H         141.3830   81.7120  221.6217 H       1  UNL1        0.0265
     46 H         139.9153   81.0275  222.4739 H       1  UNL1        0.0265
     47 H         142.7977   80.2009  222.9795 H       1  UNL1        0.0265
     48 H         141.8619   81.2666  224.0203 H       1  UNL1        0.0265
     49 H         141.4316   78.9956  224.8859 H       1  UNL1        0.0265
     50 H         139.9795   79.3482  223.9724 H       1  UNL1        0.0265
     51 H         142.5416   78.0705  222.8405 H       1  UNL1        0.0269
     52 H         141.0294   77.1753  223.2880 H       1  UNL1        0.0269
     53 H         139.1337   70.0638  222.4800 H       1  UNL1        0.0641
     54 H         138.9620   68.4180  224.3412 H       1  UNL1        0.0625
     55 H         139.4263   67.8965  226.7025 H       1  UNL1        0.0653
     56 H         141.3930   70.7942  229.1463 H       1  UNL1        0.0647
     57 H         141.5256   72.3765  227.2295 H       1  UNL1        0.0640
@<TRIPOS>BOND
     1     1     2    2
     2     2     3   am
     3     3     4    1
     4     4     5    1
     5     5     6    2
     6     5     7   am
     7     7     8    1
     8     8     9    1
     9     9    10    1
    10    10    11    1
    11    11    12    1
    12    12    13    1
    13    13    14    1
    14    14    15    1
    15    15    16    1
    16    16    17    1
    17    17    18    1
    18     2    19    1
    19    19    20   ar
    20    20    21   ar
    21    21    22   ar
    22    22    23   ar
    23    23    24   ar
    24    24    25    1
    25    24    26   ar
    26    26    27   ar
    27    27    28   ar
    28    28    29   ar
    29    12     7    1
    30    18    13    1
    31    29    19   ar
    32    28    22   ar
    33     3    30    1
    34     4    31    1
    35     4    32    1
    36     8    33    1
    37     8    34    1
    38     9    35    1
    39     9    36    1
    40    10    37    1
    41    10    38    1
    42    11    39    1
    43    11    40    1
    44    12    41    1
    45    13    42    1
    46    14    43    1
    47    14    44    1
    48    15    45    1
    49    15    46    1
    50    16    47    1
    51    16    48    1
    52    17    49    1
    53    17    50    1
    54    18    51    1
    55    18    52    1
    56    20    53    1
    57    21    54    1
    58    23    55    1
    59    26    56    1
    60    27    57    1
