
 48 52  0  0  1  0  0  0  0  0999 V2000
  139.2430   67.7730  225.3310 O   0  0  0  0  0  0  0  0  0  0  0  0
  139.2140   68.9560  224.4190 S   0  0  0  0  0  0  0  0  0  0  0  0
  138.0060   69.7960  224.8060 O   0  0  0  0  0  0  0  0  0  0  0  0
  140.6780   69.9080  224.7320 C   0  0  0  0  0  0  0  0  0  0  0  0
  140.5940   70.6050  226.0470 C   0  0  0  0  0  0  0  0  0  0  0  0
  141.2150   71.8400  226.2540 C   0  0  0  0  0  0  0  0  0  0  0  0
  141.0820   72.4010  227.4920 C   0  0  0  0  0  0  0  0  0  0  0  0
  140.3850   71.8340  228.5370 C   0  0  0  0  0  0  0  0  0  0  0  0
  139.7710   70.6090  228.3300 C   0  0  0  0  0  0  0  0  0  0  0  0
  139.8950   70.0350  227.0970 C   0  0  0  0  0  0  0  0  0  0  0  0
  139.0420   68.4790  222.8190 N   0  0  0  0  0  0  0  0  0  0  0  0
  138.1280   67.4080  222.5810 C   0  0  0  0  0  0  0  0  0  0  0  0
  136.8600   68.1200  222.2770 C   0  0  0  0  0  0  0  0  0  0  0  0
  135.5100   67.7670  222.3570 C   0  0  0  0  0  0  0  0  0  0  0  0
  134.5180   68.6770  221.9870 C   0  0  0  0  0  0  0  0  0  0  0  0
  134.8690   69.9500  221.5320 C   0  0  0  0  0  0  0  0  0  0  0  0
  136.2130   70.2950  221.4560 C   0  0  0  0  0  0  0  0  0  0  0  0
  137.1970   69.3780  221.8280 C   0  0  0  0  0  0  0  0  0  0  0  0
  138.7020   69.4540  221.8560 C   0  0  1  0  0  0  0  0  0  0  0  0
  139.1790   70.8140  222.0490 C   0  0  0  0  0  0  0  0  0  0  0  0
  138.7070   71.8730  222.7900 C   0  0  0  0  0  0  0  0  0  0  0  0
  139.4950   72.9530  222.6370 N   0  0  0  0  0  0  0  0  0  0  0  0
  140.4950   72.6400  221.8030 C   0  0  0  0  0  0  0  0  0  0  0  0
  141.5370   73.4250  221.3570 C   0  0  0  0  0  0  0  0  0  0  0  0
  142.4540   72.8770  220.4920 C   0  0  0  0  0  0  0  0  0  0  0  0
  142.3010   71.5590  220.0990 C   0  0  0  0  0  0  0  0  0  0  0  0
  141.2560   70.7860  220.5530 C   0  0  0  0  0  0  0  0  0  0  0  0
  140.3260   71.3230  221.4230 C   0  0  0  0  0  0  0  0  0  0  0  0
  141.5491   69.2364  224.7364 H   0  0  0  0  0  0  0  0  0  0  0  0
  140.7779   70.6656  223.9408 H   0  0  0  0  0  0  0  0  0  0  0  0
  141.7852   72.3376  225.4557 H   0  0  0  0  0  0  0  0  0  0  0  0
  141.5651   73.3736  227.6674 H   0  0  0  0  0  0  0  0  0  0  0  0
  140.3177   72.3410  229.5109 H   0  0  0  0  0  0  0  0  0  0  0  0
  139.2027   70.1154  229.1321 H   0  0  0  0  0  0  0  0  0  0  0  0
  139.4106   69.0619  226.9283 H   0  0  0  0  0  0  0  0  0  0  0  0
  138.4515   66.7930  221.7283 H   0  0  0  0  0  0  0  0  0  0  0  0
  138.0441   66.7104  223.4274 H   0  0  0  0  0  0  0  0  0  0  0  0
  135.2273   66.7656  222.7138 H   0  0  0  0  0  0  0  0  0  0  0  0
  133.4580   68.3909  222.0539 H   0  0  0  0  0  0  0  0  0  0  0  0
  134.0915   70.6703  221.2376 H   0  0  0  0  0  0  0  0  0  0  0  0
  136.5025   71.2951  221.1011 H   0  0  0  0  0  0  0  0  0  0  0  0
  139.2128   69.2230  220.9096 H   0  0  0  0  0  0  0  0  0  0  0  0
  137.8072   71.8411  223.4220 H   0  0  0  0  0  0  0  0  0  0  0  0
  139.3480   73.8900  223.1000 H   0  0  0  0  0  0  0  0  0  0  0  0
  141.6327   74.4699  221.6871 H   0  0  0  0  0  0  0  0  0  0  0  0
  143.2966   73.4770  220.1179 H   0  0  0  0  0  0  0  0  0  0  0  0
  143.0328   71.1177  219.4064 H   0  0  0  0  0  0  0  0  0  0  0  0
  141.1613   69.7409  220.2232 H   0  0  0  0  0  0  0  0  0  0  0  0
  1  2  2  0
  2  3  2  0
  2  4  1  0
  4  5  1  0
  5  6  2  0
  6  7  1  0
  7  8  2  0
  8  9  1  0
  9 10  2  0
  2 11  1  0
 11 12  1  0
 12 13  1  0
 13 14  2  0
 14 15  1  0
 15 16  2  0
 16 17  1  0
 17 18  2  0
 18 19  1  0
 19 20  1  0
 20 21  2  0
 21 22  1  0
 22 23  1  0
 23 24  2  0
 24 25  1  0
 25 26  2  0
 26 27  1  0
 27 28  2  0
 10  5  1  0
 19 11  1  0
 28 20  1  0
 18 13  1  0
 28 23  1  0
  4 29  1  0
  4 30  1  0
  6 31  1  0
  7 32  1  0
  8 33  1  0
  9 34  1  0
 10 35  1  0
 12 36  1  0
 12 37  1  0
 14 38  1  0
 15 39  1  0
 16 40  1  0
 17 41  1  0
 19 42  1  6
 21 43  1  0
 22 44  1  0
 24 45  1  0
 25 46  1  0
 26 47  1  0
 27 48  1  0
M  END
