@<TRIPOS>MOLECULE
*****
 44 46 0 0 0
SMALL
GASTEIGER

@<TRIPOS>ATOM
      1 C         139.5520   68.0360  225.3880 C.3     1  UNL1       -0.0425
      2 C         140.3100   69.2510  224.9910 C.3     1  UNL1        0.0456
      3 N         139.6730   69.9960  223.9260 N.am    1  UNL1       -0.3075
      4 C         138.3110   70.3740  223.9870 C.2     1  UNL1        0.2307
      5 O         137.6620   70.0400  225.0200 O.2     1  UNL1       -0.2741
      6 C         137.5870   71.1240  222.9510 C.3     1  UNL1        0.0885
      7 N         138.2640   72.3460  222.6170 N.am    1  UNL1       -0.3015
      8 C         139.4530   72.3000  221.8190 C.2     1  UNL1        0.2628
      9 O         139.9370   71.2180  221.3810 O.2     1  UNL1       -0.2685
     10 C         140.1460   73.5410  221.4870 C.ar    1  UNL1        0.1260
     11 C         141.1190   73.5930  220.5430 C.ar    1  UNL1       -0.0306
     12 C         141.8190   74.7160  220.1700 C.ar    1  UNL1       -0.0504
     13 C         141.4730   75.8960  220.8400 C.ar    1  UNL1        0.0004
     14 C         142.1630   77.0260  220.4740 C.ar    1  UNL1       -0.0526
     15 C         141.8270   78.1990  221.1310 C.ar    1  UNL1       -0.0611
     16 C         140.8410   78.1820  222.0960 C.ar    1  UNL1       -0.0597
     17 C         140.1640   77.0260  222.4420 C.ar    1  UNL1       -0.0357
     18 C         140.4940   75.8480  221.7900 C.ar    1  UNL1        0.0718
     19 N         139.8380   74.7120  222.1190 N.ar    1  UNL1       -0.2421
     20 C         140.4300   70.1580  226.1590 C.ar    1  UNL1       -0.0275
     21 C         141.2090   71.3160  226.0590 C.ar    1  UNL1       -0.0568
     22 C         141.3320   72.1660  227.1360 C.ar    1  UNL1       -0.0614
     23 C         140.6890   71.8790  228.3210 C.ar    1  UNL1       -0.0617
     24 C         139.9060   70.7320  228.4540 C.ar    1  UNL1       -0.0614
     25 C         139.8000   69.9020  227.3600 C.ar    1  UNL1       -0.0568
     26 H         139.5116   67.9713  226.4854 H       1  UNL1        0.0251
     27 H         138.5296   68.0941  224.9863 H       1  UNL1        0.0251
     28 H         140.0537   67.1433  224.9863 H       1  UNL1        0.0251
     29 H         141.2899   68.9033  224.6319 H       1  UNL1        0.0545
     30 H         140.2680   70.2570  223.1150 H       1  UNL1        0.1493
     31 H         137.5076   70.5008  222.0480 H       1  UNL1        0.0558
     32 H         136.5899   71.3768  223.3407 H       1  UNL1        0.0558
     33 H         137.9360   73.2900  222.9270 H       1  UNL1        0.1496
     34 H         141.3703   72.6528  220.0303 H       1  UNL1        0.0641
     35 H         142.5999   74.6893  219.3958 H       1  UNL1        0.0625
     36 H         142.9428   77.0011  219.6986 H       1  UNL1        0.0624
     37 H         142.3435   79.1384  220.8845 H       1  UNL1        0.0618
     38 H         140.5840   79.1208  222.6084 H       1  UNL1        0.0618
     39 H         139.3825   77.0413  223.2160 H       1  UNL1        0.0639
     40 H         141.7255   71.5487  225.1161 H       1  UNL1        0.0621
     41 H         141.9446   73.0756  227.0502 H       1  UNL1        0.0618
     42 H         140.7948   72.5646  229.1746 H       1  UNL1        0.0618
     43 H         139.3920   70.4990  229.3982 H       1  UNL1        0.0618
     44 H         139.1854   68.9939  227.4474 H       1  UNL1        0.0621
@<TRIPOS>BOND
     1     1     2    1
     2     2     3    1
     3     3     4   am
     4     4     5    2
     5     4     6    1
     6     6     7    1
     7     7     8   am
     8     8     9    2
     9     8    10    1
    10    10    11   ar
    11    11    12   ar
    12    12    13   ar
    13    13    14   ar
    14    14    15   ar
    15    15    16   ar
    16    16    17   ar
    17    17    18   ar
    18    18    19   ar
    19     2    20    1
    20    20    21   ar
    21    21    22   ar
    22    22    23   ar
    23    23    24   ar
    24    24    25   ar
    25    19    10   ar
    26    25    20   ar
    27    18    13   ar
    28     1    26    1
    29     1    27    1
    30     1    28    1
    31     2    29    1
    32     3    30    1
    33     6    31    1
    34     6    32    1
    35     7    33    1
    36    11    34    1
    37    12    35    1
    38    14    36    1
    39    15    37    1
    40    16    38    1
    41    17    39    1
    42    21    40    1
    43    22    41    1
    44    23    42    1
    45    24    43    1
    46    25    44    1
