@<TRIPOS>MOLECULE
*****
 57 61 0 0 0
SMALL
GASTEIGER

@<TRIPOS>ATOM
      1 O         142.8420   74.1870  220.0510 O.2     1  UNL1       -0.2916
      2 C         141.7960   74.1420  220.7700 C.2     1  UNL1        0.1710
      3 C         141.2600   72.8030  221.0890 C.3     1  UNL1        0.0535
      4 C         140.0470   72.9540  221.9290 C.2     1  UNL1        0.0565
      5 C         139.3400   71.7330  222.3740 C.ar    1  UNL1       -0.0026
      6 C         138.1690   71.3630  221.7090 C.ar    1  UNL1       -0.0528
      7 C         137.4800   70.2250  222.1100 C.ar    1  UNL1       -0.0604
      8 C         137.9510   69.4680  223.1590 C.ar    1  UNL1       -0.0496
      9 C         139.1190   69.8360  223.8260 C.ar    1  UNL1        0.0375
     10 C         139.5420   68.9770  224.9170 C.2     1  UNL1        0.2466
     11 O         139.2310   67.7440  224.8120 O.2     1  UNL1       -0.2700
     12 N         140.2650   69.4550  226.0550 N.am    1  UNL1       -0.2975
     13 C         140.6880   70.8170  226.3170 C.3     1  UNL1        0.0150
     14 C         140.8660   70.8540  227.8040 C.3     1  UNL1       -0.0357
     15 C         140.4390   69.5100  228.3480 C.3     1  UNL1       -0.0357
     16 C         140.6970   68.6050  227.1510 C.3     1  UNL1        0.0150
     17 C         139.8000   70.9660  223.4240 C.ar    1  UNL1       -0.0407
     18 N         139.5560   74.0700  222.3080 N.2     1  UNL1       -0.2505
     19 C         140.0740   75.3540  222.0010 C.ar    1  UNL1        0.0748
     20 C         139.4900   76.5110  222.4510 C.ar    1  UNL1       -0.0339
     21 C         140.0330   77.7370  222.1290 C.ar    1  UNL1       -0.0386
     22 C         141.1780   77.8070  221.3460 C.ar    1  UNL1        0.0305
     23 N         141.7310   79.0800  221.0260 N.pl3   1  UNL1       -0.3299
     24 C         142.2260   80.0080  222.0230 C.3     1  UNL1        0.0122
     25 C         141.4730   81.3070  221.8440 C.3     1  UNL1       -0.0372
     26 C         141.4800   81.7470  220.4150 C.3     1  UNL1       -0.0502
     27 C         140.9430   80.6990  219.4680 C.3     1  UNL1       -0.0372
     28 C         141.7900   79.4500  219.6230 C.3     1  UNL1        0.0122
     29 C         141.7650   76.6270  220.8920 C.ar    1  UNL1       -0.0281
     30 C         141.2130   75.3930  221.2200 C.ar    1  UNL1        0.0448
     31 H         141.0002   72.2786  220.1576 H       1  UNL1        0.0409
     32 H         142.0177   72.2202  221.6332 H       1  UNL1        0.0409
     33 H         137.7939   71.9697  220.8716 H       1  UNL1        0.0624
     34 H         136.5576   69.9287  221.5890 H       1  UNL1        0.0618
     35 H         137.4027   68.5675  223.4729 H       1  UNL1        0.0625
     36 H         141.6348   71.0394  225.8030 H       1  UNL1        0.0465
     37 H         139.9664   71.5644  225.9554 H       1  UNL1        0.0465
     38 H         141.9215   71.0407  228.0511 H       1  UNL1        0.0281
     39 H         140.2615   71.6598  228.2459 H       1  UNL1        0.0281
     40 H         141.0489   69.2146  229.2145 H       1  UNL1        0.0281
     41 H         139.4030   69.4830  228.7169 H       1  UNL1        0.0281
     42 H         141.7625   68.3458  227.0641 H       1  UNL1        0.0465
     43 H         140.1811   67.6347  227.1997 H       1  UNL1        0.0465
     44 H         140.7219   71.2593  223.9475 H       1  UNL1        0.0631
     45 H         138.5836   76.4604  223.0721 H       1  UNL1        0.0639
     46 H         139.5588   78.6605  222.4927 H       1  UNL1        0.0637
     47 H         142.0486   79.6064  223.0316 H       1  UNL1        0.0464
     48 H         143.3080   80.1663  221.9035 H       1  UNL1        0.0464
     49 H         140.4321   81.1656  222.1702 H       1  UNL1        0.0280
     50 H         141.9685   82.0814  222.4480 H       1  UNL1        0.0280
     51 H         140.8600   82.6511  220.3243 H       1  UNL1        0.0266
     52 H         142.5271   81.9351  220.1355 H       1  UNL1        0.0266
     53 H         139.8955   80.4730  219.7162 H       1  UNL1        0.0280
     54 H         140.9849   81.0632  218.4309 H       1  UNL1        0.0280
     55 H         141.3871   78.6384  218.9992 H       1  UNL1        0.0464
     56 H         142.8269   79.6318  219.3040 H       1  UNL1        0.0464
     57 H         142.6711   76.6719  220.2700 H       1  UNL1        0.0644
@<TRIPOS>BOND
     1     1     2    2
     2     2     3    1
     3     3     4    1
     4     4     5    1
     5     5     6   ar
     6     6     7   ar
     7     7     8   ar
     8     8     9   ar
     9     9    10    1
    10    10    11    2
    11    10    12   am
    12    12    13    1
    13    13    14    1
    14    14    15    1
    15    15    16    1
    16     9    17   ar
    17     4    18    2
    18    18    19    1
    19    19    20   ar
    20    20    21   ar
    21    21    22   ar
    22    22    23    1
    23    23    24    1
    24    24    25    1
    25    25    26    1
    26    26    27    1
    27    27    28    1
    28    22    29   ar
    29    29    30   ar
    30    30     2    1
    31    17     5   ar
    32    30    19   ar
    33    16    12    1
    34    28    23    1
    35     3    31    1
    36     3    32    1
    37     6    33    1
    38     7    34    1
    39     8    35    1
    40    13    36    1
    41    13    37    1
    42    14    38    1
    43    14    39    1
    44    15    40    1
    45    15    41    1
    46    16    42    1
    47    16    43    1
    48    17    44    1
    49    20    45    1
    50    21    46    1
    51    24    47    1
    52    24    48    1
    53    25    49    1
    54    25    50    1
    55    26    51    1
    56    26    52    1
    57    27    53    1
    58    27    54    1
    59    28    55    1
    60    28    56    1
    61    29    57    1
