@<TRIPOS>MOLECULE
*****
 54 57 0 0 0
SMALL
GASTEIGER

@<TRIPOS>ATOM
      1 O         141.3210   71.7120  221.7470 O.2     1  UNL1       -0.2685
      2 C         140.3680   71.8660  222.5790 C.2     1  UNL1        0.2628
      3 N         139.4330   72.9410  222.3460 N.am    1  UNL1       -0.3015
      4 C         139.4870   73.8340  221.2580 C.3     1  UNL1        0.0887
      5 C         140.6070   74.7470  221.0710 C.2     1  UNL1        0.2330
      6 O         140.9920   75.3300  222.1750 O.2     1  UNL1       -0.2739
      7 N         141.3210   75.0960  219.9110 N.am    1  UNL1       -0.2968
      8 C         141.4930   74.2650  218.7430 C.3     1  UNL1        0.0150
      9 C         141.5090   75.1050  217.4820 C.3     1  UNL1       -0.0371
     10 C         142.5850   76.1260  217.4710 C.3     1  UNL1       -0.0499
     11 C         143.0110   76.5630  218.8410 C.3     1  UNL1       -0.0339
     12 C         141.9680   76.4030  219.8860 C.3     1  UNL1        0.0300
     13 C         141.0670   77.5740  220.0240 C.3     1  UNL1       -0.0090
     14 C         141.4390   78.6010  220.9930 C.ar    1  UNL1       -0.0455
     15 C         141.3990   78.3020  222.3600 C.ar    1  UNL1       -0.0571
     16 C         141.7440   79.2350  223.3170 C.ar    1  UNL1       -0.0431
     17 C         142.1460   80.5110  222.9740 C.ar    1  UNL1        0.0410
     18 CL        142.5680   81.6420  224.2250 Cl      1  UNL1       -0.0835
     19 C         142.1910   80.8190  221.6310 C.ar    1  UNL1       -0.0431
     20 C         141.8450   79.8830  220.6810 C.ar    1  UNL1       -0.0571
     21 C         140.2080   70.9940  223.7370 C.ar    1  UNL1        0.1260
     22 C         139.5130   69.8160  223.5630 C.ar    1  UNL1       -0.0306
     23 C         139.3190   68.9350  224.6110 C.ar    1  UNL1       -0.0504
     24 C         139.8250   69.2290  225.8640 C.ar    1  UNL1        0.0004
     25 C         139.6480   68.3730  226.9220 C.ar    1  UNL1       -0.0526
     26 C         140.1630   68.6870  228.1680 C.ar    1  UNL1       -0.0611
     27 C         140.8630   69.8840  228.3250 C.ar    1  UNL1       -0.0597
     28 C         141.0280   70.7340  227.2310 C.ar    1  UNL1       -0.0357
     29 C         140.5210   70.4330  225.9920 C.ar    1  UNL1        0.0718
     30 N         140.6940   71.2690  224.9520 N.ar    1  UNL1       -0.2421
     31 H         138.6630   73.0240  223.0770 H       1  UNL1        0.1496
     32 H         139.4358   73.2170  220.3487 H       1  UNL1        0.0558
     33 H         138.6582   74.5226  221.4792 H       1  UNL1        0.0558
     34 H         142.4450   73.7200  218.8253 H       1  UNL1        0.0465
     35 H         140.6512   73.5593  218.6856 H       1  UNL1        0.0465
     36 H         141.6523   74.4374  216.6195 H       1  UNL1        0.0280
     37 H         140.5500   75.6417  217.4358 H       1  UNL1        0.0280
     38 H         143.4590   75.7047  216.9527 H       1  UNL1        0.0266
     39 H         142.1832   77.0131  216.9594 H       1  UNL1        0.0266
     40 H         143.8877   75.9674  219.1354 H       1  UNL1        0.0283
     41 H         143.2277   77.6394  218.7748 H       1  UNL1        0.0283
     42 H         142.5249   76.4017  220.8346 H       1  UNL1        0.0504
     43 H         141.0034   78.0586  219.0385 H       1  UNL1        0.0331
     44 H         140.1232   77.1576  220.4058 H       1  UNL1        0.0331
     45 H         141.0845   77.2976  222.6798 H       1  UNL1        0.0621
     46 H         141.6976   78.9551  224.3798 H       1  UNL1        0.0632
     47 H         142.5069   81.8239  221.3141 H       1  UNL1        0.0632
     48 H         141.8948   80.1717  219.6207 H       1  UNL1        0.0621
     49 H         139.1048   69.5722  222.5710 H       1  UNL1        0.0641
     50 H         138.7623   68.0004  224.4480 H       1  UNL1        0.0625
     51 H         139.0944   67.4332  226.7793 H       1  UNL1        0.0624
     52 H         140.0229   68.0049  229.0195 H       1  UNL1        0.0618
     53 H         141.2821   70.1557  229.3051 H       1  UNL1        0.0618
     54 H         141.5818   71.6748  227.3659 H       1  UNL1        0.0639
@<TRIPOS>BOND
     1     1     2    2
     2     2     3   am
     3     3     4    1
     4     4     5    1
     5     5     6    2
     6     5     7   am
     7     7     8    1
     8     8     9    1
     9     9    10    1
    10    10    11    1
    11    11    12    1
    12    12    13    1
    13    13    14    1
    14    14    15   ar
    15    15    16   ar
    16    16    17   ar
    17    17    18    1
    18    17    19   ar
    19    19    20   ar
    20     2    21    1
    21    21    22   ar
    22    22    23   ar
    23    23    24   ar
    24    24    25   ar
    25    25    26   ar
    26    26    27   ar
    27    27    28   ar
    28    28    29   ar
    29    29    30   ar
    30    12     7    1
    31    20    14   ar
    32    30    21   ar
    33    29    24   ar
    34     3    31    1
    35     4    32    1
    36     4    33    1
    37     8    34    1
    38     8    35    1
    39     9    36    1
    40     9    37    1
    41    10    38    1
    42    10    39    1
    43    11    40    1
    44    11    41    1
    45    12    42    1
    46    13    43    1
    47    13    44    1
    48    15    45    1
    49    16    46    1
    50    19    47    1
    51    20    48    1
    52    22    49    1
    53    23    50    1
    54    25    51    1
    55    26    52    1
    56    27    53    1
    57    28    54    1
