@<TRIPOS>MOLECULE
*****
 51 54 0 0 0
SMALL
GASTEIGER

@<TRIPOS>ATOM
      1 O         138.0100   71.3090  221.7140 O.2     1  UNL1       -0.2685
      2 C         138.7680   71.7060  222.6360 C.2     1  UNL1        0.2628
      3 N         139.3340   73.0000  222.6780 N.am    1  UNL1       -0.3015
      4 C         139.0660   73.9660  221.6370 C.3     1  UNL1        0.0887
      5 C         140.2390   74.8390  221.5240 C.2     1  UNL1        0.2332
      6 O         141.3630   74.4840  221.9590 O.2     1  UNL1       -0.2739
      7 N         140.1830   76.1480  220.9140 N.am    1  UNL1       -0.2931
      8 C         138.9820   76.4990  220.2400 C.3     1  UNL1        0.0153
      9 C         139.1760   77.4110  219.0610 C.3     1  UNL1       -0.0371
     10 C         140.4190   78.2490  219.1650 C.3     1  UNL1       -0.0496
     11 C         141.6230   77.5220  219.6390 C.3     1  UNL1       -0.0301
     12 C         141.3580   77.0020  221.0380 C.3     1  UNL1        0.0512
     13 C         141.1920   78.0940  222.0040 C.ar    1  UNL1       -0.0270
     14 C         142.2170   79.0340  222.1460 C.ar    1  UNL1       -0.0568
     15 C         142.1030   80.0930  223.0390 C.ar    1  UNL1       -0.0614
     16 C         140.9840   80.2600  223.8170 C.ar    1  UNL1       -0.0617
     17 C         139.9680   79.3450  223.6890 C.ar    1  UNL1       -0.0614
     18 C         140.0870   78.2910  222.7970 C.ar    1  UNL1       -0.0568
     19 C         139.0860   70.7750  223.7310 C.ar    1  UNL1        0.1260
     20 C         138.7390   69.4460  223.6880 C.ar    1  UNL1       -0.0306
     21 C         139.0280   68.5530  224.7080 C.ar    1  UNL1       -0.0503
     22 C         139.6990   69.0330  225.8160 C.ar    1  UNL1        0.0031
     23 C         140.0370   68.2380  226.8850 C.ar    1  UNL1       -0.0173
     24 C         140.7040   68.6930  227.9960 C.ar    1  UNL1        0.1241
     25 F         141.0470   67.9430  229.0500 F       1  UNL1       -0.2055
     26 C         141.0510   70.0390  228.0270 C.ar    1  UNL1       -0.0244
     27 C         140.7100   70.8400  226.9480 C.ar    1  UNL1       -0.0330
     28 C         140.0380   70.3550  225.8450 C.ar    1  UNL1        0.0720
     29 N         139.7450   71.1960  224.8440 N.ar    1  UNL1       -0.2421
     30 H         139.9660   73.2750  223.4820 H       1  UNL1        0.1496
     31 H         138.8910   73.4486  220.6822 H       1  UNL1        0.0558
     32 H         138.1699   74.5555  221.8808 H       1  UNL1        0.0558
     33 H         138.5039   75.5742  219.8847 H       1  UNL1        0.0465
     34 H         138.3644   77.0496  220.9648 H       1  UNL1        0.0465
     35 H         139.2421   76.7974  218.1504 H       1  UNL1        0.0280
     36 H         138.3175   78.0981  219.0319 H       1  UNL1        0.0280
     37 H         140.6382   78.6608  218.1688 H       1  UNL1        0.0266
     38 H         140.2084   79.0225  219.9182 H       1  UNL1        0.0266
     39 H         141.8356   76.6791  218.9650 H       1  UNL1        0.0286
     40 H         142.4897   78.1993  219.6491 H       1  UNL1        0.0286
     41 H         142.2080   76.4293  221.4373 H       1  UNL1        0.0550
     42 H         143.1298   78.9338  221.5404 H       1  UNL1        0.0621
     43 H         142.9289   80.8145  223.1245 H       1  UNL1        0.0618
     44 H         140.9038   81.1011  224.5214 H       1  UNL1        0.0618
     45 H         139.0568   79.4490  224.2964 H       1  UNL1        0.0618
     46 H         139.2548   77.5758  222.7198 H       1  UNL1        0.0621
     47 H         138.2060   69.0727  222.8011 H       1  UNL1        0.0641
     48 H         138.7324   67.4958  224.6374 H       1  UNL1        0.0625
     49 H         139.7569   67.1749  226.8486 H       1  UNL1        0.0653
     50 H         141.5858   70.4603  228.8910 H       1  UNL1        0.0647
     51 H         140.9862   71.9045  226.9723 H       1  UNL1        0.0640
@<TRIPOS>BOND
     1     1     2    2
     2     2     3   am
     3     3     4    1
     4     4     5    1
     5     5     6    2
     6     5     7   am
     7     7     8    1
     8     8     9    1
     9     9    10    1
    10    10    11    1
    11    11    12    1
    12    12    13    1
    13    13    14   ar
    14    14    15   ar
    15    15    16   ar
    16    16    17   ar
    17    17    18   ar
    18     2    19    1
    19    19    20   ar
    20    20    21   ar
    21    21    22   ar
    22    22    23   ar
    23    23    24   ar
    24    24    25    1
    25    24    26   ar
    26    26    27   ar
    27    27    28   ar
    28    28    29   ar
    29    12     7    1
    30    18    13   ar
    31    29    19   ar
    32    28    22   ar
    33     3    30    1
    34     4    31    1
    35     4    32    1
    36     8    33    1
    37     8    34    1
    38     9    35    1
    39     9    36    1
    40    10    37    1
    41    10    38    1
    42    11    39    1
    43    11    40    1
    44    12    41    1
    45    14    42    1
    46    15    43    1
    47    16    44    1
    48    17    45    1
    49    18    46    1
    50    20    47    1
    51    21    48    1
    52    23    49    1
    53    26    50    1
    54    27    51    1
