
     RDKit          3D

 68 74  0  0  1  0  0  0  0  0999 V2000
  141.4210   72.7700  221.8010 O   0  0  0  0  0  0  0  0  0  0  0  0
  140.3070   72.8050  222.4330 C   0  0  0  0  0  0  0  0  0  0  0  0
  140.1670   71.8030  223.4860 C   0  0  0  0  0  0  0  0  0  0  0  0
  140.5080   71.8790  224.8200 C   0  0  0  0  0  0  0  0  0  0  0  0
  140.1610   70.6370  225.3540 C   0  0  0  0  0  0  0  0  0  0  0  0
  140.2630   70.1220  226.6300 C   0  0  0  0  0  0  0  0  0  0  0  0
  141.0000   71.1940  228.0510 Br  0  0  0  0  0  0  0  0  0  0  0  0
  139.8270   68.8150  226.8770 C   0  0  0  0  0  0  0  0  0  0  0  0
  139.2970   68.0310  225.8770 C   0  0  0  0  0  0  0  0  0  0  0  0
  139.1920   68.5480  224.5840 C   0  0  0  0  0  0  0  0  0  0  0  0
  139.6270   69.8390  224.3590 C   0  0  0  0  0  0  0  0  0  0  0  0
  139.6400   70.5700  223.2280 N   0  0  0  0  0  0  0  0  0  0  0  0
  139.3310   73.7470  222.1010 N   0  0  0  0  0  0  0  0  0  0  0  0
  139.5620   75.1890  222.0010 C   0  0  0  0  0  0  0  0  0  0  0  0
  138.6350   75.5750  220.8660 C   0  0  2  0  0  0  0  0  0  0  0  0
  139.3170   75.4870  219.5310 C   0  0  0  0  0  0  0  0  0  0  0  0
  140.1190   76.7670  219.5370 C   0  0  0  0  0  0  0  0  0  0  0  0
  139.3030   77.7500  220.2330 N   0  0  0  0  0  0  0  0  0  0  0  0
  140.1190   78.6160  221.0420 C   0  0  2  0  0  0  0  0  0  0  0  0
  139.5360   78.7830  222.4030 C   0  0  0  0  0  0  0  0  0  0  0  0
  140.5000   79.4790  223.3490 C   0  0  0  0  0  0  0  0  0  0  0  0
  141.3540   80.4240  222.5280 C   0  0  1  0  0  0  0  0  0  0  0  0
  141.7670   81.5530  223.4750 C   0  0  0  0  0  0  0  0  0  0  0  0
  142.9120   80.8670  224.2220 C   0  0  0  0  0  0  0  0  0  0  0  0
  143.5980   80.1410  223.0830 C   0  0  0  0  0  0  0  0  0  0  0  0
  142.5990   79.8500  222.1040 N   0  0  0  0  0  0  0  0  0  0  0  0
  140.5680   81.0510  221.3990 C   0  0  0  0  0  0  0  0  0  0  0  0
  140.1410   79.9970  220.3980 C   0  0  0  0  0  0  0  0  0  0  0  0
  138.2820   77.0440  220.9370 C   0  0  0  0  0  0  0  0  0  0  0  0
  137.5070   74.6620  221.0480 C   0  0  0  0  0  0  0  0  0  0  0  0
  136.1880   74.6590  220.6620 C   0  0  0  0  0  0  0  0  0  0  0  0
  135.3010   73.6460  220.9700 C   0  0  0  0  0  0  0  0  0  0  0  0
  135.7630   72.5640  221.7120 C   0  0  0  0  0  0  0  0  0  0  0  0
  137.0860   72.5520  222.1080 C   0  0  0  0  0  0  0  0  0  0  0  0
  137.9630   73.5680  221.7960 C   0  0  0  0  0  0  0  0  0  0  0  0
  140.9562   72.7332  225.3486 H   0  0  0  0  0  0  0  0  0  0  0  0
  139.9098   68.4046  227.8942 H   0  0  0  0  0  0  0  0  0  0  0  0
  138.9594   67.0069  226.0945 H   0  0  0  0  0  0  0  0  0  0  0  0
  138.7738   67.9427  223.7663 H   0  0  0  0  0  0  0  0  0  0  0  0
  139.2890   70.2130  222.3020 H   0  0  0  0  0  0  0  0  0  0  0  0
  139.2886   75.7038  222.9339 H   0  0  0  0  0  0  0  0  0  0  0  0
  140.6139   75.4601  221.8281 H   0  0  0  0  0  0  0  0  0  0  0  0
  139.9674   74.6022  219.4664 H   0  0  0  0  0  0  0  0  0  0  0  0
  138.6325   75.3828  218.6763 H   0  0  0  0  0  0  0  0  0  0  0  0
  141.0719   76.6182  220.0660 H   0  0  0  0  0  0  0  0  0  0  0  0
  140.3603   77.0953  218.5152 H   0  0  0  0  0  0  0  0  0  0  0  0
  141.1230   78.1731  221.1180 H   0  0  0  0  0  0  0  0  0  0  0  0
  138.6175   79.3834  222.3256 H   0  0  0  0  0  0  0  0  0  0  0  0
  139.3221   77.7829  222.8081 H   0  0  0  0  0  0  0  0  0  0  0  0
  139.9378   80.0450  224.1063 H   0  0  0  0  0  0  0  0  0  0  0  0
  141.1315   78.7410  223.8654 H   0  0  0  0  0  0  0  0  0  0  0  0
  142.1122   82.4412  222.9254 H   0  0  0  0  0  0  0  0  0  0  0  0
  140.9605   81.9385  224.1161 H   0  0  0  0  0  0  0  0  0  0  0  0
  143.5815   81.5990  224.6973 H   0  0  0  0  0  0  0  0  0  0  0  0
  142.5916   80.2170  225.0496 H   0  0  0  0  0  0  0  0  0  0  0  0
  144.3795   80.7797  222.6455 H   0  0  0  0  0  0  0  0  0  0  0  0
  144.0749   79.2165  223.4405 H   0  0  0  0  0  0  0  0  0  0  0  0
  142.8440   80.2280  221.1470 H   0  0  0  0  0  0  0  0  0  0  0  0
  139.6739   81.5426  221.8101 H   0  0  0  0  0  0  0  0  0  0  0  0
  141.2059   81.7876  220.8886 H   0  0  0  0  0  0  0  0  0  0  0  0
  139.1337   80.2383  220.0278 H   0  0  0  0  0  0  0  0  0  0  0  0
  140.8621   79.9871  219.5674 H   0  0  0  0  0  0  0  0  0  0  0  0
  138.2477   77.3746  221.9856 H   0  0  0  0  0  0  0  0  0  0  0  0
  137.2939   77.2335  220.4923 H   0  0  0  0  0  0  0  0  0  0  0  0
  135.8176   75.5119  220.0743 H   0  0  0  0  0  0  0  0  0  0  0  0
  134.2539   73.6938  220.6364 H   0  0  0  0  0  0  0  0  0  0  0  0
  135.0893   71.7360  221.9776 H   0  0  0  0  0  0  0  0  0  0  0  0
  137.4541   71.6980  222.6955 H   0  0  0  0  0  0  0  0  0  0  0  0
  1  2  2  0
  2  3  1  0
  3  4  2  0
  4  5  1  0
  5  6  2  0
  6  7  1  0
  6  8  1  0
  8  9  2  0
  9 10  1  0
 10 11  2  0
 11 12  1  0
  2 13  1  0
 13 14  1  0
 15 14  1  1
 15 16  1  0
 16 17  1  0
 17 18  1  0
 18 19  1  0
 19 20  1  0
 20 21  1  0
 21 22  1  0
 22 23  1  0
 23 24  1  0
 24 25  1  0
 25 26  1  0
 22 27  1  0
 27 28  1  0
 18 29  1  0
 15 30  1  0
 30 31  2  0
 31 32  1  0
 32 33  2  0
 33 34  1  0
 34 35  2  0
 12  3  1  0
 35 13  1  0
 11  5  1  0
 29 15  1  0
 35 30  1  0
 28 19  1  0
 22 26  1  6
  4 36  1  0
  8 37  1  0
  9 38  1  0
 10 39  1  0
 12 40  1  0
 14 41  1  0
 14 42  1  0
 16 43  1  0
 16 44  1  0
 17 45  1  0
 17 46  1  0
 19 47  1  1
 20 48  1  0
 20 49  1  0
 21 50  1  0
 21 51  1  0
 23 52  1  0
 23 53  1  0
 24 54  1  0
 24 55  1  0
 25 56  1  0
 25 57  1  0
 26 58  1  0
 27 59  1  0
 27 60  1  0
 28 61  1  0
 28 62  1  0
 29 63  1  0
 29 64  1  0
 31 65  1  0
 32 66  1  0
 33 67  1  0
 34 68  1  0
M  END
