@<TRIPOS>MOLECULE
*****
 43 46 0 0 0
SMALL
GASTEIGER

@<TRIPOS>ATOM
      1 O         140.2120   71.9190  225.0300 O.2     1  UNL1       -0.2669
      2 C         139.6240   70.8270  224.9800 C.ar    1  UNL1        0.2623
      3 C         139.9050   69.9310  226.0170 C.ar    1  UNL1        0.0649
      4 C         140.7880   70.2770  227.0180 C.ar    1  UNL1       -0.0474
      5 C         141.0660   69.3930  228.0420 C.ar    1  UNL1       -0.0609
      6 C         140.4660   68.1460  228.0840 C.ar    1  UNL1       -0.0597
      7 C         139.5870   67.8200  227.0760 C.ar    1  UNL1       -0.0355
      8 C         139.2980   68.6920  226.0440 C.ar    1  UNL1        0.0785
      9 N         138.4560   68.3960  225.0630 N.ar    1  UNL1       -0.2293
     10 C         138.1940   69.2670  224.0710 C.ar    1  UNL1        0.1371
     11 C         137.2620   68.8040  223.0360 C.2     1  UNL1       -0.0184
     12 C         135.9650   68.7590  223.2680 C.2     1  UNL1       -0.0497
     13 C         135.3100   69.3450  224.4280 C.ar    1  UNL1       -0.0068
     14 C         135.2720   70.7170  224.6050 C.ar    1  UNL1       -0.0517
     15 C         134.6660   71.3170  225.6830 C.ar    1  UNL1       -0.0430
     16 C         134.0610   70.5030  226.6440 C.ar    1  UNL1        0.0276
     17 N         134.0960   69.1700  226.4710 N.ar    1  UNL1       -0.2627
     18 C         134.6920   68.5930  225.4130 C.ar    1  UNL1        0.0347
     19 N         138.7490   70.4890  223.9860 N.ar    1  UNL1       -0.2883
     20 C         138.4580   71.4370  222.9530 C.3     1  UNL1        0.0531
     21 C         139.6190   72.0540  222.3080 C.ar    1  UNL1       -0.0276
     22 C         139.6390   73.4420  222.1480 C.ar    1  UNL1       -0.0569
     23 C         140.7120   74.0860  221.5410 C.ar    1  UNL1       -0.0614
     24 C         141.7960   73.3950  221.0710 C.ar    1  UNL1       -0.0617
     25 C         141.7930   72.0260  221.2210 C.ar    1  UNL1       -0.0614
     26 C         140.7190   71.3840  221.8280 C.ar    1  UNL1       -0.0569
     27 H         141.2742   71.2636  227.0008 H       1  UNL1        0.0626
     28 H         141.7725   69.6831  228.8336 H       1  UNL1        0.0618
     29 H         140.6848   67.4382  228.8971 H       1  UNL1        0.0618
     30 H         139.0993   66.8342  227.0927 H       1  UNL1        0.0639
     31 H         137.6501   68.4910  222.0555 H       1  UNL1        0.0654
     32 H         135.3324   68.2413  222.5319 H       1  UNL1        0.0625
     33 H         135.7488   71.3570  223.8480 H       1  UNL1        0.0624
     34 H         134.6575   72.4121  225.7867 H       1  UNL1        0.0633
     35 H         133.5669   70.9430  227.5228 H       1  UNL1        0.0829
     36 H         134.6887   67.4963  225.3277 H       1  UNL1        0.0835
     37 H         137.8750   70.9210  222.1760 H       1  UNL1        0.0543
     38 H         137.9183   72.2591  223.4457 H       1  UNL1        0.0543
     39 H         138.7881   74.0379  222.5098 H       1  UNL1        0.0621
     40 H         140.6888   75.1807  221.4358 H       1  UNL1        0.0618
     41 H         142.6387   73.9141  220.5910 H       1  UNL1        0.0618
     42 H         142.6470   71.4355  220.8577 H       1  UNL1        0.0618
     43 H         140.7513   70.2891  221.9287 H       1  UNL1        0.0621
@<TRIPOS>BOND
     1     1     2    2
     2     2     3   ar
     3     3     4   ar
     4     4     5   ar
     5     5     6   ar
     6     6     7   ar
     7     7     8   ar
     8     8     9   ar
     9     9    10   ar
    10    10    11    1
    11    11    12    2
    12    12    13    1
    13    13    14   ar
    14    14    15   ar
    15    15    16   ar
    16    16    17   ar
    17    17    18   ar
    18    10    19   ar
    19    19    20    1
    20    20    21    1
    21    21    22   ar
    22    22    23   ar
    23    23    24   ar
    24    24    25   ar
    25    25    26   ar
    26    19     2   ar
    27    26    21   ar
    28     8     3   ar
    29    18    13   ar
    30     4    27    1
    31     5    28    1
    32     6    29    1
    33     7    30    1
    34    11    31    1
    35    12    32    1
    36    14    33    1
    37    15    34    1
    38    16    35    1
    39    18    36    1
    40    20    37    1
    41    20    38    1
    42    22    39    1
    43    23    40    1
    44    24    41    1
    45    25    42    1
    46    26    43    1
