
 66 70  0  0  0  0  0  0  0  0999 V2000
  140.3700   74.4770  222.2500 O   0  0  0  0  0  0  0  0  0  0  0  0
  139.9970   75.4880  221.5860 C   0  0  0  0  0  0  0  0  0  0  0  0
  139.4970   75.2980  220.2510 N   0  0  0  0  0  0  0  0  0  0  0  0
  139.4270   73.9680  219.6800 C   0  0  0  0  0  0  0  0  0  0  0  0
  138.0010   73.6310  219.4840 C   0  0  0  0  0  0  0  0  0  0  0  0
  137.5360   73.0800  218.4640 O   0  0  0  0  0  0  0  0  0  0  0  0
  137.1000   73.9640  220.5450 N   0  0  0  0  0  0  0  0  0  0  0  0
  135.7680   74.5740  220.4230 C   0  0  0  0  0  0  0  0  0  0  0  0
  135.4700   75.2250  221.7320 C   0  0  0  0  0  0  0  0  0  0  0  0
  136.6610   74.9520  222.5850 C   0  0  0  0  0  0  0  0  0  0  0  0
  137.3380   73.7570  221.9930 C   0  0  1  0  0  0  0  0  0  0  0  0
  136.7540   72.4370  222.4170 C   0  0  0  0  0  0  0  0  0  0  0  0
  137.7060   71.6700  223.1210 N   0  0  0  0  0  0  0  0  0  0  0  0
  137.3500   70.2780  223.2580 C   0  0  0  0  0  0  0  0  0  0  0  0
  137.9180   69.7950  224.5730 C   0  0  0  0  0  0  0  0  0  0  0  0
  139.4170   69.8850  224.4540 C   0  0  0  0  0  0  0  0  0  0  0  0
  139.9960   69.6800  225.8270 C   0  0  0  0  0  0  0  0  0  0  0  0
  140.1510   68.3840  226.3150 C   0  0  0  0  0  0  0  0  0  0  0  0
  140.6810   68.1610  227.5720 C   0  0  0  0  0  0  0  0  0  0  0  0
  141.0610   69.2560  228.3480 C   0  0  0  0  0  0  0  0  0  0  0  0
  140.9070   70.5380  227.8620 C   0  0  0  0  0  0  0  0  0  0  0  0
  140.3790   70.7660  226.6100 C   0  0  0  0  0  0  0  0  0  0  0  0
  139.8970   71.2030  223.9630 C   0  0  0  0  0  0  0  0  0  0  0  0
  139.0780   71.8050  222.8370 C   0  0  0  0  0  0  0  0  0  0  0  0
  140.0590   76.8350  222.1340 C   0  0  0  0  0  0  0  0  0  0  0  0
  138.8750   77.4380  222.5280 C   0  0  0  0  0  0  0  0  0  0  0  0
  138.9270   78.7290  223.0550 C   0  0  0  0  0  0  0  0  0  0  0  0
  140.1680   79.3460  223.1590 C   0  0  0  0  0  0  0  0  0  0  0  0
  140.1810   80.6160  223.6810 C   0  0  0  0  0  0  0  0  0  0  0  0
  141.4180   81.2510  223.7920 C   0  0  0  0  0  0  0  0  0  0  0  0
  142.5560   80.6180  223.3920 C   0  0  0  0  0  0  0  0  0  0  0  0
  142.5630   79.3290  222.8600 C   0  0  0  0  0  0  0  0  0  0  0  0
  141.3360   78.7160  222.7570 C   0  0  0  0  0  0  0  0  0  0  0  0
  141.2350   77.4800  222.2590 N   0  0  0  0  0  0  0  0  0  0  0  0
  139.1900   76.1480  219.7140 H   0  0  0  0  0  0  0  0  0  0  0  0
  139.9518   73.9484  218.7134 H   0  0  0  0  0  0  0  0  0  0  0  0
  139.9041   73.2380  220.3504 H   0  0  0  0  0  0  0  0  0  0  0  0
  135.7673   75.3240  219.6183 H   0  0  0  0  0  0  0  0  0  0  0  0
  135.0086   73.8173  220.1768 H   0  0  0  0  0  0  0  0  0  0  0  0
  135.3297   76.3081  221.6009 H   0  0  0  0  0  0  0  0  0  0  0  0
  134.5444   74.8372  222.1824 H   0  0  0  0  0  0  0  0  0  0  0  0
  137.3406   75.8169  222.5779 H   0  0  0  0  0  0  0  0  0  0  0  0
  136.3702   74.7692  223.6300 H   0  0  0  0  0  0  0  0  0  0  0  0
  138.3901   73.6926  222.3076 H   0  0  0  0  0  0  0  0  0  0  0  0
  135.8857   72.6192  223.0673 H   0  0  0  0  0  0  0  0  0  0  0  0
  136.4495   71.8815  221.5177 H   0  0  0  0  0  0  0  0  0  0  0  0
  136.2555   70.1678  223.2577 H   0  0  0  0  0  0  0  0  0  0  0  0
  137.7527   69.6893  222.4206 H   0  0  0  0  0  0  0  0  0  0  0  0
  137.5638   70.4326  225.3964 H   0  0  0  0  0  0  0  0  0  0  0  0
  137.5985   68.7647  224.7883 H   0  0  0  0  0  0  0  0  0  0  0  0
  139.7333   69.1240  223.7254 H   0  0  0  0  0  0  0  0  0  0  0  0
  139.8482   67.5288  225.6929 H   0  0  0  0  0  0  0  0  0  0  0  0
  140.8011   67.1365  227.9542 H   0  0  0  0  0  0  0  0  0  0  0  0
  141.4848   69.0969  229.3506 H   0  0  0  0  0  0  0  0  0  0  0  0
  141.2109   71.3925  228.4845 H   0  0  0  0  0  0  0  0  0  0  0  0
  140.2615   71.7929  226.2337 H   0  0  0  0  0  0  0  0  0  0  0  0
  139.8846   71.9071  224.8081 H   0  0  0  0  0  0  0  0  0  0  0  0
  140.9030   71.0303  223.5529 H   0  0  0  0  0  0  0  0  0  0  0  0
  139.3265   72.8716  222.7344 H   0  0  0  0  0  0  0  0  0  0  0  0
  139.3083   71.2791  221.8987 H   0  0  0  0  0  0  0  0  0  0  0  0
  137.9151   76.9103  222.4275 H   0  0  0  0  0  0  0  0  0  0  0  0
  138.0108   79.2443  223.3792 H   0  0  0  0  0  0  0  0  0  0  0  0
  139.2526   81.1130  223.9991 H   0  0  0  0  0  0  0  0  0  0  0  0
  141.4749   82.2689  224.2050 H   0  0  0  0  0  0  0  0  0  0  0  0
  143.5143   81.1485  223.4934 H   0  0  0  0  0  0  0  0  0  0  0  0
  143.4922   78.8332  222.5424 H   0  0  0  0  0  0  0  0  0  0  0  0
  1  2  2  0
  2  3  1  0
  3  4  1  0
  4  5  1  0
  5  6  2  0
  5  7  1  0
  7  8  1  0
  8  9  1  0
  9 10  1  0
 10 11  1  0
 11 12  1  0
 12 13  1  0
 13 14  1  0
 14 15  1  0
 15 16  1  0
 16 17  1  0
 17 18  2  0
 18 19  1  0
 19 20  2  0
 20 21  1  0
 21 22  2  0
 16 23  1  0
 23 24  1  0
  2 25  1  0
 25 26  2  0
 26 27  1  0
 27 28  2  0
 28 29  1  0
 29 30  2  0
 30 31  1  0
 31 32  2  0
 32 33  1  0
 33 34  2  0
 11  7  1  0
 24 13  1  0
 34 25  1  0
 22 17  1  0
 33 28  1  0
  3 35  1  0
  4 36  1  0
  4 37  1  0
  8 38  1  0
  8 39  1  0
  9 40  1  0
  9 41  1  0
 10 42  1  0
 10 43  1  0
 11 44  1  6
 12 45  1  0
 12 46  1  0
 14 47  1  0
 14 48  1  0
 15 49  1  0
 15 50  1  0
 16 51  1  0
 18 52  1  0
 19 53  1  0
 20 54  1  0
 21 55  1  0
 22 56  1  0
 23 57  1  0
 23 58  1  0
 24 59  1  0
 24 60  1  0
 26 61  1  0
 27 62  1  0
 29 63  1  0
 30 64  1  0
 31 65  1  0
 32 66  1  0
M  END
