@<TRIPOS>MOLECULE
*****
 67 72 0 0 0
SMALL
GASTEIGER

@<TRIPOS>ATOM
      1 C         140.9480   81.9380  221.4770 C.ar    1  UNL1       -0.0615
      2 C         141.2840   81.4960  222.7390 C.ar    1  UNL1       -0.0614
      3 C         141.4380   80.1450  222.9580 C.ar    1  UNL1       -0.0568
      4 C         141.2570   79.2400  221.9230 C.ar    1  UNL1       -0.0269
      5 C         140.9220   79.7130  220.6770 C.ar    1  UNL1       -0.0412
      6 C         140.7590   81.0650  220.4180 C.ar    1  UNL1       -0.0582
      7 C         140.7390   78.7020  219.5980 C.3     1  UNL1       -0.0115
      8 C         141.8180   77.6230  219.7330 C.3     1  UNL1        0.0192
      9 N         141.6440   76.9980  221.0500 N.pl3   1  UNL1       -0.2948
     10 C         141.6770   75.5940  221.1970 C.ar    1  UNL1        0.2240
     11 N         140.7030   74.9200  221.8170 N.ar    1  UNL1       -0.1809
     12 C         140.7110   73.5700  221.9720 C.ar    1  UNL1        0.2211
     13 N         139.6530   72.9060  222.6400 N.pl3   1  UNL1       -0.3133
     14 C         138.6800   72.0650  221.9920 C.3     1  UNL1        0.0134
     15 C         138.3350   70.8930  222.8820 C.3     1  UNL1       -0.0193
     16 C         139.5970   70.1590  223.2300 C.3     1  UNL1        0.0247
     17 N         139.5850   69.7320  224.6020 N.ar    1  UNL1       -0.3466
     18 C         139.0930   68.6000  225.1520 C.ar    1  UNL1        0.0057
     19 C         139.2950   68.6040  226.5100 C.ar    1  UNL1       -0.0364
     20 C         139.9350   69.7830  226.8180 C.ar    1  UNL1       -0.0002
     21 C         140.3620   70.2790  228.0300 C.ar    1  UNL1       -0.0526
     22 C         140.9890   71.5070  228.0760 C.ar    1  UNL1       -0.0611
     23 C         141.1690   72.2040  226.9000 C.ar    1  UNL1       -0.0598
     24 C         140.7370   71.6960  225.7000 C.ar    1  UNL1       -0.0376
     25 C         140.1070   70.4680  225.6240 C.ar    1  UNL1        0.0491
     26 N         141.7670   72.9250  221.4630 N.ar    1  UNL1       -0.1809
     27 C         142.7630   73.5740  220.8350 C.ar    1  UNL1        0.2237
     28 N         143.8490   72.8120  220.3230 N.pl3   1  UNL1       -0.2971
     29 C         145.0720   72.6800  221.0780 C.3     1  UNL1        0.0274
     30 C         146.2700   73.1610  220.2920 C.3     1  UNL1        0.0118
     31 N         145.8270   73.3790  218.9340 N.3     1  UNL1       -0.3130
     32 C         145.1450   72.2440  218.3740 C.3     1  UNL1        0.0118
     33 C         143.7810   72.1450  219.0380 C.3     1  UNL1        0.0274
     34 N         142.7400   74.9100  220.6880 N.ar    1  UNL1       -0.1807
     35 C         141.4350   77.8150  222.2190 C.3     1  UNL1        0.0402
     36 H         140.8262   83.0177  221.3056 H       1  UNL1        0.0618
     37 H         141.4273   82.2133  223.5606 H       1  UNL1        0.0618
     38 H         141.7064   79.7813  223.9608 H       1  UNL1        0.0621
     39 H         140.4912   81.4289  219.4151 H       1  UNL1        0.0620
     40 H         139.7442   78.2415  219.6897 H       1  UNL1        0.0328
     41 H         140.8236   79.1895  218.6156 H       1  UNL1        0.0328
     42 H         141.6995   76.8701  218.9398 H       1  UNL1        0.0468
     43 H         142.8225   78.0611  219.6381 H       1  UNL1        0.0468
     44 H         139.5680   73.0330  223.6790 H       1  UNL1        0.1489
     45 H         137.7702   72.6494  221.7902 H       1  UNL1        0.0463
     46 H         139.0995   71.6895  221.0470 H       1  UNL1        0.0463
     47 H         137.8538   71.2569  223.8018 H       1  UNL1        0.0297
     48 H         137.6434   70.2174  222.3573 H       1  UNL1        0.0297
     49 H         139.6904   69.2766  222.5798 H       1  UNL1        0.0492
     50 H         140.4489   70.8392  223.0830 H       1  UNL1        0.0492
     51 H         138.6011   67.7911  224.5919 H       1  UNL1        0.0809
     52 H         139.0011   67.8147  227.2176 H       1  UNL1        0.0639
     53 H         140.2045   69.7013  228.9527 H       1  UNL1        0.0624
     54 H         141.3387   71.9222  229.0327 H       1  UNL1        0.0618
     55 H         141.6675   73.1843  226.9237 H       1  UNL1        0.0618
     56 H         140.8954   72.2781  224.7802 H       1  UNL1        0.0638
     57 H         144.9880   73.2751  221.9993 H       1  UNL1        0.0477
     58 H         145.2189   71.6145  221.3084 H       1  UNL1        0.0477
     59 H         146.6501   74.1002  220.7204 H       1  UNL1        0.0439
     60 H         147.0829   72.4207  220.3248 H       1  UNL1        0.0439
     61 H         146.5080   73.8410  218.3250 H       1  UNL1        0.1220
     62 H         145.0238   72.3786  217.2890 H       1  UNL1        0.0439
     63 H         145.7237   71.3248  218.5477 H       1  UNL1        0.0439
     64 H         143.0238   72.6321  218.4060 H       1  UNL1        0.0477
     65 H         143.5022   71.0896  219.1739 H       1  UNL1        0.0477
     66 H         140.5347   77.4538  222.7377 H       1  UNL1        0.0514
     67 H         142.3413   77.7276  222.8362 H       1  UNL1        0.0514
@<TRIPOS>BOND
     1     1     2   ar
     2     2     3   ar
     3     3     4   ar
     4     4     5   ar
     5     5     6   ar
     6     5     7    1
     7     7     8    1
     8     8     9    1
     9     9    10    1
    10    10    11   ar
    11    11    12   ar
    12    12    13    1
    13    13    14    1
    14    14    15    1
    15    15    16    1
    16    16    17    1
    17    17    18   ar
    18    18    19   ar
    19    19    20   ar
    20    20    21   ar
    21    21    22   ar
    22    22    23   ar
    23    23    24   ar
    24    24    25   ar
    25    12    26   ar
    26    26    27   ar
    27    27    28    1
    28    28    29    1
    29    29    30    1
    30    30    31    1
    31    31    32    1
    32    32    33    1
    33    27    34   ar
    34     9    35    1
    35     6     1   ar
    36    34    10   ar
    37    35     4    1
    38    25    17   ar
    39    33    28    1
    40    25    20   ar
    41     1    36    1
    42     2    37    1
    43     3    38    1
    44     6    39    1
    45     7    40    1
    46     7    41    1
    47     8    42    1
    48     8    43    1
    49    13    44    1
    50    14    45    1
    51    14    46    1
    52    15    47    1
    53    15    48    1
    54    16    49    1
    55    16    50    1
    56    18    51    1
    57    19    52    1
    58    21    53    1
    59    22    54    1
    60    23    55    1
    61    24    56    1
    62    29    57    1
    63    29    58    1
    64    30    59    1
    65    30    60    1
    66    31    61    1
    67    32    62    1
    68    32    63    1
    69    33    64    1
    70    33    65    1
    71    35    66    1
    72    35    67    1
