@<TRIPOS>MOLECULE
*****
 77 83 0 0 0
SMALL
GASTEIGER

@<TRIPOS>ATOM
      1 C         140.3200   67.3410  226.5170 C.ar    1  UNL1       -0.0615
      2 C         141.0960   68.2680  227.2200 C.ar    1  UNL1       -0.0614
      3 C         141.0370   69.5810  226.7870 C.ar    1  UNL1       -0.0568
      4 C         140.2610   69.9700  225.7240 C.ar    1  UNL1       -0.0269
      5 C         139.4960   69.0630  225.0280 C.ar    1  UNL1       -0.0412
      6 C         139.5460   67.7490  225.4500 C.ar    1  UNL1       -0.0582
      7 C         138.6350   69.4050  223.8710 C.3     1  UNL1       -0.0115
      8 C         138.3590   70.8890  223.9160 C.3     1  UNL1        0.0192
      9 N         139.6530   71.5550  224.0590 N.pl3   1  UNL1       -0.2948
     10 C         140.2200   72.2660  222.9720 C.ar    1  UNL1        0.2240
     11 N         141.1120   71.6300  222.1960 N.ar    1  UNL1       -0.1807
     12 C         141.6910   72.2610  221.1420 C.ar    1  UNL1        0.2237
     13 N         142.6400   71.6210  220.3020 N.pl3   1  UNL1       -0.2971
     14 C         142.2270   71.0780  219.0150 C.3     1  UNL1        0.0277
     15 C         143.2900   71.2840  217.9640 C.3     1  UNL1        0.0150
     16 N         144.6180   70.9830  218.4880 N.3     1  UNL1       -0.2964
     17 C         144.8040   69.6090  218.7850 C.3     1  UNL1        0.0105
     18 C         144.4540   68.7110  217.6000 C.3     1  UNL1       -0.0373
     19 C         144.6700   67.2770  217.9850 C.3     1  UNL1       -0.0516
     20 C         145.9680   66.9720  218.6420 C.3     1  UNL1       -0.0530
     21 C         146.3160   67.9410  219.7410 C.3     1  UNL1       -0.0516
     22 C         146.2510   69.3300  219.0890 C.3     1  UNL1       -0.0373
     23 C         144.9080   71.8270  219.6070 C.3     1  UNL1        0.0150
     24 C         144.0100   71.5410  220.7880 C.3     1  UNL1        0.0277
     25 N         141.3250   73.5460  220.9180 N.ar    1  UNL1       -0.1807
     26 C         140.4300   74.2070  221.6820 C.ar    1  UNL1        0.2240
     27 N         140.0870   75.5520  221.3960 N.pl3   1  UNL1       -0.2948
     28 C         138.7420   75.9410  221.1270 C.3     1  UNL1        0.0192
     29 C         138.3620   77.3190  221.5260 C.3     1  UNL1       -0.0115
     30 C         139.4230   77.9940  222.2900 C.ar    1  UNL1       -0.0412
     31 C         139.0360   79.0500  223.1130 C.ar    1  UNL1       -0.0582
     32 C         139.9870   79.7470  223.8680 C.ar    1  UNL1       -0.0615
     33 C         141.3130   79.4120  223.8170 C.ar    1  UNL1       -0.0614
     34 C         141.7020   78.3730  223.0090 C.ar    1  UNL1       -0.0568
     35 C         140.7560   77.6920  222.2690 C.ar    1  UNL1       -0.0269
     36 C         141.1610   76.5460  221.3810 C.3     1  UNL1        0.0402
     37 N         139.8840   73.5400  222.7150 N.ar    1  UNL1       -0.1807
     38 C         140.2870   71.4310  225.3590 C.3     1  UNL1        0.0402
     39 H         140.3267   66.2824  226.8158 H       1  UNL1        0.0618
     40 H         141.7215   67.9686  228.0739 H       1  UNL1        0.0618
     41 H         141.6336   70.3403  227.3138 H       1  UNL1        0.0621
     42 H         138.9456   66.9986  224.9148 H       1  UNL1        0.0620
     43 H         139.1509   69.1497  222.9336 H       1  UNL1        0.0328
     44 H         137.6924   68.8399  223.9164 H       1  UNL1        0.0328
     45 H         137.8679   71.2113  222.9860 H       1  UNL1        0.0468
     46 H         137.6906   71.1411  224.7525 H       1  UNL1        0.0468
     47 H         142.0371   70.0002  219.1256 H       1  UNL1        0.0477
     48 H         141.3158   71.6038  218.6936 H       1  UNL1        0.0477
     49 H         143.0830   70.6220  217.1103 H       1  UNL1        0.0442
     50 H         143.2704   72.3386  217.6520 H       1  UNL1        0.0442
     51 H         144.1469   69.3952  219.6409 H       1  UNL1        0.0462
     52 H         143.4004   68.8625  217.3226 H       1  UNL1        0.0280
     53 H         145.0961   68.9637  216.7433 H       1  UNL1        0.0280
     54 H         143.8653   66.9885  218.6773 H       1  UNL1        0.0266
     55 H         144.6726   66.7115  217.0415 H       1  UNL1        0.0266
     56 H         145.9140   65.9606  219.0712 H       1  UNL1        0.0265
     57 H         146.7513   67.0522  217.8738 H       1  UNL1        0.0265
     58 H         145.5904   67.8671  220.5644 H       1  UNL1        0.0266
     59 H         147.3069   67.7352  220.1719 H       1  UNL1        0.0266
     60 H         146.6447   70.0899  219.7800 H       1  UNL1        0.0280
     61 H         146.8567   69.3604  218.1713 H       1  UNL1        0.0280
     62 H         145.9531   71.6662  219.9100 H       1  UNL1        0.0442
     63 H         144.7356   72.8683  219.2971 H       1  UNL1        0.0442
     64 H         144.2135   70.5351  221.1839 H       1  UNL1        0.0477
     65 H         144.1839   72.2618  221.6005 H       1  UNL1        0.0477
     66 H         138.5772   75.8487  220.0433 H       1  UNL1        0.0468
     67 H         138.1168   75.2758  221.7408 H       1  UNL1        0.0468
     68 H         138.1528   77.9046  220.6186 H       1  UNL1        0.0328
     69 H         137.4754   77.2485  222.1733 H       1  UNL1        0.0328
     70 H         137.9759   79.3379  223.1698 H       1  UNL1        0.0620
     71 H         139.6631   80.5774  224.5127 H       1  UNL1        0.0618
     72 H         142.0537   79.9655  224.4129 H       1  UNL1        0.0618
     73 H         142.7619   78.0843  222.9513 H       1  UNL1        0.0621
     74 H         141.3183   76.9084  220.3544 H       1  UNL1        0.0514
     75 H         142.0977   76.0977  221.7438 H       1  UNL1        0.0514
     76 H         141.3258   71.7893  225.3084 H       1  UNL1        0.0514
     77 H         139.7585   72.0334  226.1126 H       1  UNL1        0.0514
@<TRIPOS>BOND
     1     1     2   ar
     2     2     3   ar
     3     3     4   ar
     4     4     5   ar
     5     5     6   ar
     6     5     7    1
     7     7     8    1
     8     8     9    1
     9     9    10    1
    10    10    11   ar
    11    11    12   ar
    12    12    13    1
    13    13    14    1
    14    14    15    1
    15    15    16    1
    16    16    17    1
    17    17    18    1
    18    18    19    1
    19    19    20    1
    20    20    21    1
    21    21    22    1
    22    16    23    1
    23    23    24    1
    24    12    25   ar
    25    25    26   ar
    26    26    27    1
    27    27    28    1
    28    28    29    1
    29    29    30    1
    30    30    31   ar
    31    31    32   ar
    32    32    33   ar
    33    33    34   ar
    34    34    35   ar
    35    35    36    1
    36    26    37   ar
    37     9    38    1
    38     6     1   ar
    39    37    10   ar
    40    38     4    1
    41    24    13    1
    42    36    27    1
    43    22    17    1
    44    35    30   ar
    45     1    39    1
    46     2    40    1
    47     3    41    1
    48     6    42    1
    49     7    43    1
    50     7    44    1
    51     8    45    1
    52     8    46    1
    53    14    47    1
    54    14    48    1
    55    15    49    1
    56    15    50    1
    57    17    51    1
    58    18    52    1
    59    18    53    1
    60    19    54    1
    61    19    55    1
    62    20    56    1
    63    20    57    1
    64    21    58    1
    65    21    59    1
    66    22    60    1
    67    22    61    1
    68    23    62    1
    69    23    63    1
    70    24    64    1
    71    24    65    1
    72    28    66    1
    73    28    67    1
    74    29    68    1
    75    29    69    1
    76    31    70    1
    77    32    71    1
    78    33    72    1
    79    34    73    1
    80    36    74    1
    81    36    75    1
    82    38    76    1
    83    38    77    1
