
     RDKit          3D

 63 67  0  0  0  0  0  0  0  0999 V2000
  138.2890   71.7970  222.3650 O   0  0  0  0  0  0  0  0  0  0  0  0
  139.4220   71.3390  222.6890 C   0  0  0  0  0  0  0  0  0  0  0  0
  140.5960   71.5970  221.8950 N   0  0  0  0  0  0  0  0  0  0  0  0
  140.5150   72.3890  220.7150 C   0  0  0  0  0  0  0  0  0  0  0  0
  141.2700   73.6200  220.7290 C   0  0  0  0  0  0  0  0  0  0  0  0
  141.3530   74.1730  221.9120 O   0  0  0  0  0  0  0  0  0  0  0  0
  141.9200   74.3260  219.6990 N   0  0  0  0  0  0  0  0  0  0  0  0
  141.9770   74.0890  218.2640 C   0  0  0  0  0  0  0  0  0  0  0  0
  142.2640   75.4960  217.7000 C   0  0  0  0  0  0  0  0  0  0  0  0
  143.3030   76.0080  218.7060 C   0  0  0  0  0  0  0  0  0  0  0  0
  142.7200   75.5370  220.0180 C   0  0  1  0  0  0  0  0  0  0  0  0
  141.7180   76.5440  220.5160 C   0  0  0  0  0  0  0  0  0  0  0  0
  141.1750   77.2350  219.5870 O   0  0  0  0  0  0  0  0  0  0  0  0
  141.3890   76.7290  221.8590 N   0  0  0  0  0  0  0  0  0  0  0  0
  140.4250   77.6970  222.3580 C   0  0  0  0  0  0  0  0  0  0  0  0
  141.0230   79.0330  222.5970 C   0  0  0  0  0  0  0  0  0  0  0  0
  141.8330   79.2390  223.7070 C   0  0  0  0  0  0  0  0  0  0  0  0
  142.4170   80.4570  223.9810 C   0  0  0  0  0  0  0  0  0  0  0  0
  142.1950   81.5340  223.1160 C   0  0  0  0  0  0  0  0  0  0  0  0
  141.3940   81.3550  222.0060 C   0  0  0  0  0  0  0  0  0  0  0  0
  141.1430   82.4610  221.0880 C   0  0  0  0  0  0  0  0  0  0  0  0
  141.3980   82.3530  219.7730 N   0  0  0  0  0  0  0  0  0  0  0  0
  141.1550   83.4000  218.9330 C   0  0  0  0  0  0  0  0  0  0  0  0
  140.6440   84.6000  219.3960 C   0  0  0  0  0  0  0  0  0  0  0  0
  140.3880   84.6900  220.7560 C   0  0  0  0  0  0  0  0  0  0  0  0
  140.6460   83.6190  221.5570 N   0  0  0  0  0  0  0  0  0  0  0  0
  140.8310   80.1200  221.7730 C   0  0  0  0  0  0  0  0  0  0  0  0
  139.5740   70.5200  223.9030 C   0  0  0  0  0  0  0  0  0  0  0  0
  139.0240   69.2500  223.9150 C   0  0  0  0  0  0  0  0  0  0  0  0
  139.1450   68.4570  225.0300 C   0  0  0  0  0  0  0  0  0  0  0  0
  139.8110   68.9230  226.1360 C   0  0  0  0  0  0  0  0  0  0  0  0
  139.9170   68.1190  227.2280 C   0  0  0  0  0  0  0  0  0  0  0  0
  140.5860   68.5870  228.3380 C   0  0  0  0  0  0  0  0  0  0  0  0
  140.7190   67.8200  229.4560 F   0  0  0  0  0  0  0  0  0  0  0  0
  141.1220   69.8590  228.2940 C   0  0  0  0  0  0  0  0  0  0  0  0
  141.0200   70.6830  227.1910 C   0  0  0  0  0  0  0  0  0  0  0  0
  140.3470   70.1990  226.0880 C   0  0  0  0  0  0  0  0  0  0  0  0
  140.2310   70.9830  224.9940 N   0  0  0  0  0  0  0  0  0  0  0  0
  141.5090   71.1720  222.2350 H   0  0  0  0  0  0  0  0  0  0  0  0
  140.8790   71.7798  219.8745 H   0  0  0  0  0  0  0  0  0  0  0  0
  139.4599   72.6877  220.6286 H   0  0  0  0  0  0  0  0  0  0  0  0
  142.7848   73.3871  218.0095 H   0  0  0  0  0  0  0  0  0  0  0  0
  141.0605   73.6348  217.8595 H   0  0  0  0  0  0  0  0  0  0  0  0
  142.6776   75.4465  216.6819 H   0  0  0  0  0  0  0  0  0  0  0  0
  141.3743   76.1354  217.6017 H   0  0  0  0  0  0  0  0  0  0  0  0
  144.2915   75.5613  218.5234 H   0  0  0  0  0  0  0  0  0  0  0  0
  143.4728   77.0938  218.6578 H   0  0  0  0  0  0  0  0  0  0  0  0
  143.5209   75.3747  220.7543 H   0  0  0  0  0  0  0  0  0  0  0  0
  141.8450   76.1360  222.6060 H   0  0  0  0  0  0  0  0  0  0  0  0
  139.6166   77.8008  221.6192 H   0  0  0  0  0  0  0  0  0  0  0  0
  140.0507   77.3243  223.3229 H   0  0  0  0  0  0  0  0  0  0  0  0
  142.0150   78.3984  224.3928 H   0  0  0  0  0  0  0  0  0  0  0  0
  143.0514   80.5811  224.8710 H   0  0  0  0  0  0  0  0  0  0  0  0
  142.6539   82.5130  223.3182 H   0  0  0  0  0  0  0  0  0  0  0  0
  141.3707   83.2877  217.8602 H   0  0  0  0  0  0  0  0  0  0  0  0
  140.4499   85.4432  218.7168 H   0  0  0  0  0  0  0  0  0  0  0  0
  139.9804   85.6178  221.1839 H   0  0  0  0  0  0  0  0  0  0  0  0
  140.1957   79.9952  220.8837 H   0  0  0  0  0  0  0  0  0  0  0  0
  138.4890   68.8750  223.0300 H   0  0  0  0  0  0  0  0  0  0  0  0
  138.7078   67.4476  225.0366 H   0  0  0  0  0  0  0  0  0  0  0  0
  139.4758   67.1114  227.2250 H   0  0  0  0  0  0  0  0  0  0  0  0
  141.6556   70.2335  229.1800 H   0  0  0  0  0  0  0  0  0  0  0  0
  141.4603   71.6910  227.1915 H   0  0  0  0  0  0  0  0  0  0  0  0
  1  2  2  0
  2  3  1  0
  3  4  1  0
  4  5  1  0
  5  6  2  0
  5  7  1  0
  7  8  1  0
  8  9  1  0
  9 10  1  0
 10 11  1  0
 11 12  1  0
 12 13  2  0
 12 14  1  0
 14 15  1  0
 15 16  1  0
 16 17  2  0
 17 18  1  0
 18 19  2  0
 19 20  1  0
 20 21  1  0
 21 22  2  0
 22 23  1  0
 23 24  2  0
 24 25  1  0
 25 26  2  0
 20 27  2  0
  2 28  1  0
 28 29  2  0
 29 30  1  0
 30 31  2  0
 31 32  1  0
 32 33  2  0
 33 34  1  0
 33 35  1  0
 35 36  2  0
 36 37  1  0
 37 38  2  0
 11  7  1  0
 27 16  1  0
 38 28  1  0
 26 21  1  0
 37 31  1  0
  3 39  1  0
  4 40  1  0
  4 41  1  0
  8 42  1  0
  8 43  1  0
  9 44  1  0
  9 45  1  0
 10 46  1  0
 10 47  1  0
 11 48  1  1
 14 49  1  0
 15 50  1  0
 15 51  1  0
 17 52  1  0
 18 53  1  0
 19 54  1  0
 23 55  1  0
 24 56  1  0
 25 57  1  0
 27 58  1  0
 29 59  1  0
 30 60  1  0
 32 61  1  0
 35 62  1  0
 36 63  1  0
M  END
>  <smiles>  (1) 
O=C(NCC(=O)N1CCC[C@H]1C(=O)NCc1cccc(-c2ncccn2)c1)c1ccc2cc(F)ccc2n1

>  <score_type>  (1) 
oracle

>  <origin>  (1) 
autodockgpu

>  <m_score__min__energy>  (1) 
-9.8599999999999994

>  <m_primary>  (1) 
energy

>  <rmsd>  (1) 
2.401977155706671

>  <m_score__min__rmsd>  (1) 
2.401977155706671

>  <meeko>  (1) 
{"free_energy": -9.31, "intermolecular_energy": -11.7, "internal_energy": -2.18, "cluster_size": 5, "cluster_id": 2, "rank_in_cluster": 1}

>  <energy>  (1) 
-9.86

>  <cluster_rmsd>  (1) 
0.0

>  <cluster>  (1) 
1

$$$$

     RDKit          3D

 63 67  0  0  0  0  0  0  0  0999 V2000
  140.1850   73.7350  222.3670 O   0  0  0  0  0  0  0  0  0  0  0  0
  140.1450   72.4800  222.2180 C   0  0  0  0  0  0  0  0  0  0  0  0
  140.1640   71.8730  220.9120 N   0  0  0  0  0  0  0  0  0  0  0  0
  140.2360   72.6780  219.7390 C   0  0  0  0  0  0  0  0  0  0  0  0
  141.4990   72.6590  219.0390 C   0  0  0  0  0  0  0  0  0  0  0  0
  141.3930   72.3590  217.7690 O   0  0  0  0  0  0  0  0  0  0  0  0
  142.8130   72.9000  219.4810 N   0  0  0  0  0  0  0  0  0  0  0  0
  144.0930   72.4170  218.9830 C   0  0  0  0  0  0  0  0  0  0  0  0
  145.0740   73.5100  219.4570 C   0  0  0  0  0  0  0  0  0  0  0  0
  144.5500   73.7790  220.8740 C   0  0  0  0  0  0  0  0  0  0  0  0
  143.0550   73.7780  220.6540 C   0  0  1  0  0  0  0  0  0  0  0  0
  142.6090   75.1460  220.2130 C   0  0  0  0  0  0  0  0  0  0  0  0
  143.3340   75.6530  219.2880 O   0  0  0  0  0  0  0  0  0  0  0  0
  141.5100   75.8250  220.7410 N   0  0  0  0  0  0  0  0  0  0  0  0
  141.0660   77.1470  220.3280 C   0  0  0  0  0  0  0  0  0  0  0  0
  141.0180   78.1150  221.4500 C   0  0  0  0  0  0  0  0  0  0  0  0
  142.1990   78.6320  221.9680 C   0  0  0  0  0  0  0  0  0  0  0  0
  142.2170   79.5360  223.0090 C   0  0  0  0  0  0  0  0  0  0  0  0
  141.0070   79.9550  223.5730 C   0  0  0  0  0  0  0  0  0  0  0  0
  139.8210   79.4560  223.0770 C   0  0  0  0  0  0  0  0  0  0  0  0
  138.5440   79.8750  223.6470 C   0  0  0  0  0  0  0  0  0  0  0  0
  137.3840   79.3240  223.2500 N   0  0  0  0  0  0  0  0  0  0  0  0
  136.2020   79.7310  223.7980 C   0  0  0  0  0  0  0  0  0  0  0  0
  136.1520   80.7150  224.7700 C   0  0  0  0  0  0  0  0  0  0  0  0
  137.3610   81.2690  225.1650 C   0  0  0  0  0  0  0  0  0  0  0  0
  138.5160   80.8320  224.5910 N   0  0  0  0  0  0  0  0  0  0  0  0
  139.8520   78.5550  222.0350 C   0  0  0  0  0  0  0  0  0  0  0  0
  140.0790   71.5930  223.3910 C   0  0  0  0  0  0  0  0  0  0  0  0
  139.4270   70.3780  223.2640 C   0  0  0  0  0  0  0  0  0  0  0  0
  139.3440   69.5260  224.3380 C   0  0  0  0  0  0  0  0  0  0  0  0
  139.9070   69.8760  225.5390 C   0  0  0  0  0  0  0  0  0  0  0  0
  139.8110   69.0140  226.5870 C   0  0  0  0  0  0  0  0  0  0  0  0
  140.3760   69.3660  227.7930 C   0  0  0  0  0  0  0  0  0  0  0  0
  140.3070   68.5370  228.8730 F   0  0  0  0  0  0  0  0  0  0  0  0
  141.0190   70.5850  227.8870 C   0  0  0  0  0  0  0  0  0  0  0  0
  141.1220   71.4660  226.8300 C   0  0  0  0  0  0  0  0  0  0  0  0
  140.5500   71.0990  225.6300 C   0  0  0  0  0  0  0  0  0  0  0  0
  140.6350   71.9420  224.5770 N   0  0  0  0  0  0  0  0  0  0  0  0
  140.1230   70.8120  220.8740 H   0  0  0  0  0  0  0  0  0  0  0  0
  139.4591   72.3295  219.0426 H   0  0  0  0  0  0  0  0  0  0  0  0
  140.0996   73.7149  220.0800 H   0  0  0  0  0  0  0  0  0  0  0  0
  144.3459   71.4399  219.4204 H   0  0  0  0  0  0  0  0  0  0  0  0
  144.1071   72.2592  217.8945 H   0  0  0  0  0  0  0  0  0  0  0  0
  146.1109   73.1430  219.4726 H   0  0  0  0  0  0  0  0  0  0  0  0
  145.1094   74.3990  218.8102 H   0  0  0  0  0  0  0  0  0  0  0  0
  144.8531   72.9839  221.5711 H   0  0  0  0  0  0  0  0  0  0  0  0
  144.9343   74.7066  221.3232 H   0  0  0  0  0  0  0  0  0  0  0  0
  142.5358   73.4661  221.5722 H   0  0  0  0  0  0  0  0  0  0  0  0
  140.9210   75.3790  221.4970 H   0  0  0  0  0  0  0  0  0  0  0  0
  141.7604   77.5282  219.5648 H   0  0  0  0  0  0  0  0  0  0  0  0
  140.0434   77.0447  219.9357 H   0  0  0  0  0  0  0  0  0  0  0  0
  143.1553   78.3081  221.5314 H   0  0  0  0  0  0  0  0  0  0  0  0
  143.1725   79.9237  223.3920 H   0  0  0  0  0  0  0  0  0  0  0  0
  141.0018   80.6756  224.4041 H   0  0  0  0  0  0  0  0  0  0  0  0
  135.2652   79.2650  223.4584 H   0  0  0  0  0  0  0  0  0  0  0  0
  135.1980   81.0425  225.2089 H   0  0  0  0  0  0  0  0  0  0  0  0
  137.3864   82.0542  225.9349 H   0  0  0  0  0  0  0  0  0  0  0  0
  138.8967   78.1676  221.6511 H   0  0  0  0  0  0  0  0  0  0  0  0
  138.9751   70.0949  222.3019 H   0  0  0  0  0  0  0  0  0  0  0  0
  138.8253   68.5615  224.2350 H   0  0  0  0  0  0  0  0  0  0  0  0
  139.2907   68.0515  226.4733 H   0  0  0  0  0  0  0  0  0  0  0  0
  141.4702   70.8666  228.8499 H   0  0  0  0  0  0  0  0  0  0  0  0
  141.6428   72.4286  226.9408 H   0  0  0  0  0  0  0  0  0  0  0  0
  1  2  2  0
  2  3  1  0
  3  4  1  0
  4  5  1  0
  5  6  2  0
  5  7  1  0
  7  8  1  0
  8  9  1  0
  9 10  1  0
 10 11  1  0
 11 12  1  0
 12 13  2  0
 12 14  1  0
 14 15  1  0
 15 16  1  0
 16 17  2  0
 17 18  1  0
 18 19  2  0
 19 20  1  0
 20 21  1  0
 21 22  2  0
 22 23  1  0
 23 24  2  0
 24 25  1  0
 25 26  2  0
 20 27  2  0
  2 28  1  0
 28 29  2  0
 29 30  1  0
 30 31  2  0
 31 32  1  0
 32 33  2  0
 33 34  1  0
 33 35  1  0
 35 36  2  0
 36 37  1  0
 37 38  2  0
 11  7  1  0
 27 16  1  0
 38 28  1  0
 26 21  1  0
 37 31  1  0
  3 39  1  0
  4 40  1  0
  4 41  1  0
  8 42  1  0
  8 43  1  0
  9 44  1  0
  9 45  1  0
 10 46  1  0
 10 47  1  0
 11 48  1  1
 14 49  1  0
 15 50  1  0
 15 51  1  0
 17 52  1  0
 18 53  1  0
 19 54  1  0
 23 55  1  0
 24 56  1  0
 25 57  1  0
 27 58  1  0
 29 59  1  0
 30 60  1  0
 32 61  1  0
 35 62  1  0
 36 63  1  0
M  END
>  <smiles>  (2) 
O=C(NCC(=O)N1CCC[C@H]1C(=O)NCc1cccc(-c2ncccn2)c1)c1ccc2cc(F)ccc2n1

>  <score_type>  (2) 
oracle

>  <origin>  (2) 
autodockgpu

>  <m_score__min__energy>  (2) 
-9.8599999999999994

>  <m_primary>  (2) 
energy

>  <rmsd>  (2) 
3.671289909439826

>  <m_score__min__rmsd>  (2) 
3.671289909439826

>  <meeko>  (2) 
{"free_energy": -9.04, "intermolecular_energy": -11.42, "internal_energy": -2.59, "cluster_size": 2, "cluster_id": 4, "rank_in_cluster": 1}

>  <energy>  (2) 
-8.89

>  <cluster_rmsd>  (2) 
1.77

>  <cluster>  (2) 
1

$$$$

     RDKit          3D

 63 67  0  0  0  0  0  0  0  0999 V2000
  139.9880   73.0460  222.8780 O   0  0  0  0  0  0  0  0  0  0  0  0
  139.6860   71.8330  223.0680 C   0  0  0  0  0  0  0  0  0  0  0  0
  139.0010   71.0590  222.0660 N   0  0  0  0  0  0  0  0  0  0  0  0
  138.6470   71.6410  220.8150 C   0  0  0  0  0  0  0  0  0  0  0  0
  137.7120   72.7400  220.8740 C   0  0  0  0  0  0  0  0  0  0  0  0
  137.8460   73.5980  219.8940 O   0  0  0  0  0  0  0  0  0  0  0  0
  136.6960   73.0510  221.7960 N   0  0  0  0  0  0  0  0  0  0  0  0
  136.2230   72.3390  222.9750 C   0  0  0  0  0  0  0  0  0  0  0  0
  135.6110   73.4680  223.8290 C   0  0  0  0  0  0  0  0  0  0  0  0
  134.8840   74.2870  222.7550 C   0  0  0  0  0  0  0  0  0  0  0  0
  135.8980   74.2930  221.6340 C   0  0  1  0  0  0  0  0  0  0  0  0
  136.8790   75.4150  221.8480 C   0  0  0  0  0  0  0  0  0  0  0  0
  136.4460   76.5580  221.4730 O   0  0  0  0  0  0  0  0  0  0  0  0
  138.1490   75.2540  222.4020 N   0  0  0  0  0  0  0  0  0  0  0  0
  139.1100   76.3250  222.6150 C   0  0  0  0  0  0  0  0  0  0  0  0
  140.1950   76.3340  221.6030 C   0  0  0  0  0  0  0  0  0  0  0  0
  140.2600   77.3610  220.6700 C   0  0  0  0  0  0  0  0  0  0  0  0
  141.2460   77.4240  219.7080 C   0  0  0  0  0  0  0  0  0  0  0  0
  142.2210   76.4230  219.6590 C   0  0  0  0  0  0  0  0  0  0  0  0
  142.1780   75.3920  220.5750 C   0  0  0  0  0  0  0  0  0  0  0  0
  143.1810   74.3320  220.5470 C   0  0  0  0  0  0  0  0  0  0  0  0
  144.4930   74.6100  220.4580 N   0  0  0  0  0  0  0  0  0  0  0  0
  145.4130   73.6030  220.4330 C   0  0  0  0  0  0  0  0  0  0  0  0
  145.0370   72.2730  220.4960 C   0  0  0  0  0  0  0  0  0  0  0  0
  143.6790   72.0090  220.5870 C   0  0  0  0  0  0  0  0  0  0  0  0
  142.7960   73.0450  220.6090 N   0  0  0  0  0  0  0  0  0  0  0  0
  141.1740   75.3700  221.5190 C   0  0  0  0  0  0  0  0  0  0  0  0
  140.0320   71.1710  224.3370 C   0  0  0  0  0  0  0  0  0  0  0  0
  140.7060   71.9010  225.3010 C   0  0  0  0  0  0  0  0  0  0  0  0
  141.0460   71.3150  226.4960 C   0  0  0  0  0  0  0  0  0  0  0  0
  140.7180   70.0050  226.7370 C   0  0  0  0  0  0  0  0  0  0  0  0
  141.0660   69.4480  227.9290 C   0  0  0  0  0  0  0  0  0  0  0  0
  140.7370   68.1330  228.1720 C   0  0  0  0  0  0  0  0  0  0  0  0
  141.0630   67.5300  229.3490 F   0  0  0  0  0  0  0  0  0  0  0  0
  140.0650   67.4320  227.1900 C   0  0  0  0  0  0  0  0  0  0  0  0
  139.7070   67.9870  225.9770 C   0  0  0  0  0  0  0  0  0  0  0  0
  140.0450   69.3050  225.7510 C   0  0  0  0  0  0  0  0  0  0  0  0
  139.7080   69.8760  224.5730 N   0  0  0  0  0  0  0  0  0  0  0  0
  138.7790   70.0480  222.3070 H   0  0  0  0  0  0  0  0  0  0  0  0
  139.5692   72.0079  220.3407 H   0  0  0  0  0  0  0  0  0  0  0  0
  138.1379   70.8464  220.2498 H   0  0  0  0  0  0  0  0  0  0  0  0
  135.4648   71.5883  222.7076 H   0  0  0  0  0  0  0  0  0  0  0  0
  137.0148   71.7789  223.4940 H   0  0  0  0  0  0  0  0  0  0  0  0
  134.9099   73.0725  224.5787 H   0  0  0  0  0  0  0  0  0  0  0  0
  136.3442   74.0403  224.4163 H   0  0  0  0  0  0  0  0  0  0  0  0
  133.9473   73.8004  222.4456 H   0  0  0  0  0  0  0  0  0  0  0  0
  134.5813   75.2907  223.0881 H   0  0  0  0  0  0  0  0  0  0  0  0
  135.3910   74.3861  220.6623 H   0  0  0  0  0  0  0  0  0  0  0  0
  138.4780   74.2990  222.7140 H   0  0  0  0  0  0  0  0  0  0  0  0
  138.5793   77.2874  222.5698 H   0  0  0  0  0  0  0  0  0  0  0  0
  139.5756   76.1614  223.5981 H   0  0  0  0  0  0  0  0  0  0  0  0
  139.4971   78.1529  220.6996 H   0  0  0  0  0  0  0  0  0  0  0  0
  141.2653   78.2538  218.9861 H   0  0  0  0  0  0  0  0  0  0  0  0
  143.0144   76.4571  218.8978 H   0  0  0  0  0  0  0  0  0  0  0  0
  146.4813   73.8549  220.3609 H   0  0  0  0  0  0  0  0  0  0  0  0
  145.7808   71.4629  220.4749 H   0  0  0  0  0  0  0  0  0  0  0  0
  143.3181   70.9713  220.6410 H   0  0  0  0  0  0  0  0  0  0  0  0
  141.1540   74.5407  222.2414 H   0  0  0  0  0  0  0  0  0  0  0  0
  140.9696   72.9517  225.1098 H   0  0  0  0  0  0  0  0  0  0  0  0
  141.5818   71.8968  227.2604 H   0  0  0  0  0  0  0  0  0  0  0  0
  141.6017   70.0389  228.6865 H   0  0  0  0  0  0  0  0  0  0  0  0
  139.8023   66.3814  227.3832 H   0  0  0  0  0  0  0  0  0  0  0  0
  139.1711   67.3985  225.2177 H   0  0  0  0  0  0  0  0  0  0  0  0
  1  2  2  0
  2  3  1  0
  3  4  1  0
  4  5  1  0
  5  6  2  0
  5  7  1  0
  7  8  1  0
  8  9  1  0
  9 10  1  0
 10 11  1  0
 11 12  1  0
 12 13  2  0
 12 14  1  0
 14 15  1  0
 15 16  1  0
 16 17  2  0
 17 18  1  0
 18 19  2  0
 19 20  1  0
 20 21  1  0
 21 22  2  0
 22 23  1  0
 23 24  2  0
 24 25  1  0
 25 26  2  0
 20 27  2  0
  2 28  1  0
 28 29  2  0
 29 30  1  0
 30 31  2  0
 31 32  1  0
 32 33  2  0
 33 34  1  0
 33 35  1  0
 35 36  2  0
 36 37  1  0
 37 38  2  0
 11  7  1  0
 27 16  1  0
 38 28  1  0
 26 21  1  0
 37 31  1  0
  3 39  1  0
  4 40  1  0
  4 41  1  0
  8 42  1  0
  8 43  1  0
  9 44  1  0
  9 45  1  0
 10 46  1  0
 10 47  1  0
 11 48  1  6
 14 49  1  0
 15 50  1  0
 15 51  1  0
 17 52  1  0
 18 53  1  0
 19 54  1  0
 23 55  1  0
 24 56  1  0
 25 57  1  0
 27 58  1  0
 29 59  1  0
 30 60  1  0
 32 61  1  0
 35 62  1  0
 36 63  1  0
M  END
>  <smiles>  (3) 
O=C(NCC(=O)N1CCC[C@H]1C(=O)NCc1cccc(-c2ncccn2)c1)c1ccc2cc(F)ccc2n1

>  <score_type>  (3) 
oracle

>  <origin>  (3) 
autodockgpu

>  <m_score__min__energy>  (3) 
-9.8599999999999994

>  <m_primary>  (3) 
energy

>  <rmsd>  (3) 
4.996802342861341

>  <m_score__min__rmsd>  (3) 
4.996802342861341

>  <meeko>  (3) 
{"free_energy": -8.33, "intermolecular_energy": -10.71, "internal_energy": -3.9, "cluster_size": 8, "cluster_id": 9, "rank_in_cluster": 4}

>  <energy>  (3) 
-8.83

>  <cluster_rmsd>  (3) 
1.75

>  <cluster>  (3) 
1

$$$$

     RDKit          3D

 63 67  0  0  0  0  0  0  0  0999 V2000
  139.3560   70.5680  221.3410 O   0  0  0  0  0  0  0  0  0  0  0  0
  139.2460   71.3490  222.3290 C   0  0  0  0  0  0  0  0  0  0  0  0
  138.6700   72.6620  222.1920 N   0  0  0  0  0  0  0  0  0  0  0  0
  138.1980   73.1200  220.9290 C   0  0  0  0  0  0  0  0  0  0  0  0
  139.1910   73.2270  219.8860 C   0  0  0  0  0  0  0  0  0  0  0  0
  138.7890   72.7670  218.7280 O   0  0  0  0  0  0  0  0  0  0  0  0
  140.5060   73.7280  219.8990 N   0  0  0  0  0  0  0  0  0  0  0  0
  141.4380   73.9960  218.8130 C   0  0  0  0  0  0  0  0  0  0  0  0
  142.3610   75.0740  219.4180 C   0  0  0  0  0  0  0  0  0  0  0  0
  142.5570   74.5290  220.8390 C   0  0  0  0  0  0  0  0  0  0  0  0
  141.1590   74.0710  221.1880 C   0  0  1  0  0  0  0  0  0  0  0  0
  140.3680   75.2330  221.7260 C   0  0  0  0  0  0  0  0  0  0  0  0
  139.5980   74.9270  222.7010 O   0  0  0  0  0  0  0  0  0  0  0  0
  140.4450   76.5350  221.2310 N   0  0  0  0  0  0  0  0  0  0  0  0
  139.6870   77.6690  221.7360 C   0  0  0  0  0  0  0  0  0  0  0  0
  140.5390   78.8490  222.0200 C   0  0  0  0  0  0  0  0  0  0  0  0
  141.5130   78.7770  223.0080 C   0  0  0  0  0  0  0  0  0  0  0  0
  142.3350   79.8400  223.3150 C   0  0  0  0  0  0  0  0  0  0  0  0
  142.1930   81.0420  222.6130 C   0  0  0  0  0  0  0  0  0  0  0  0
  141.2330   81.1390  221.6270 C   0  0  0  0  0  0  0  0  0  0  0  0
  141.0610   82.3800  220.8790 C   0  0  0  0  0  0  0  0  0  0  0  0
  141.2730   82.4360  219.5530 N   0  0  0  0  0  0  0  0  0  0  0  0
  141.1060   83.6090  218.8750 C   0  0  0  0  0  0  0  0  0  0  0  0
  140.7180   84.7710  219.5180 C   0  0  0  0  0  0  0  0  0  0  0  0
  140.5050   84.6910  220.8860 C   0  0  0  0  0  0  0  0  0  0  0  0
  140.6830   83.5000  221.5210 N   0  0  0  0  0  0  0  0  0  0  0  0
  140.4340   80.0500  221.3550 C   0  0  0  0  0  0  0  0  0  0  0  0
  139.7070   70.9320  223.6630 C   0  0  0  0  0  0  0  0  0  0  0  0
  140.4150   71.8410  224.4310 C   0  0  0  0  0  0  0  0  0  0  0  0
  140.8620   71.4870  225.6800 C   0  0  0  0  0  0  0  0  0  0  0  0
  140.6100   70.2300  226.1700 C   0  0  0  0  0  0  0  0  0  0  0  0
  141.0640   69.9040  227.4100 C   0  0  0  0  0  0  0  0  0  0  0  0
  140.8110   68.6420  227.9020 C   0  0  0  0  0  0  0  0  0  0  0  0
  141.2450   68.2670  229.1380 F   0  0  0  0  0  0  0  0  0  0  0  0
  140.1030   67.7580  227.1110 C   0  0  0  0  0  0  0  0  0  0  0  0
  139.6380   68.0790  225.8510 C   0  0  0  0  0  0  0  0  0  0  0  0
  139.9010   69.3460  225.3740 C   0  0  0  0  0  0  0  0  0  0  0  0
  139.4580   69.6890  224.1450 N   0  0  0  0  0  0  0  0  0  0  0  0
  138.6180   73.2580  223.0710 H   0  0  0  0  0  0  0  0  0  0  0  0
  137.4220   72.4203  220.5852 H   0  0  0  0  0  0  0  0  0  0  0  0
  137.8345   74.1440  221.1004 H   0  0  0  0  0  0  0  0  0  0  0  0
  142.0055   73.0926  218.5450 H   0  0  0  0  0  0  0  0  0  0  0  0
  140.9450   74.3149  217.8828 H   0  0  0  0  0  0  0  0  0  0  0  0
  143.3156   75.1392  218.8753 H   0  0  0  0  0  0  0  0  0  0  0  0
  141.9533   76.0948  219.3765 H   0  0  0  0  0  0  0  0  0  0  0  0
  143.2686   73.6902  220.8520 H   0  0  0  0  0  0  0  0  0  0  0  0
  142.9755   75.2621  221.5443 H   0  0  0  0  0  0  0  0  0  0  0  0
  141.1987   73.2451  221.9135 H   0  0  0  0  0  0  0  0  0  0  0  0
  141.0970   76.7630  220.4300 H   0  0  0  0  0  0  0  0  0  0  0  0
  138.9346   77.9514  220.9849 H   0  0  0  0  0  0  0  0  0  0  0  0
  139.2216   77.3607  222.6838 H   0  0  0  0  0  0  0  0  0  0  0  0
  141.6327   77.8367  223.5661 H   0  0  0  0  0  0  0  0  0  0  0  0
  143.0953   79.7443  224.1042 H   0  0  0  0  0  0  0  0  0  0  0  0
  142.8401   81.9007  222.8449 H   0  0  0  0  0  0  0  0  0  0  0  0
  141.2845   83.6309  217.7898 H   0  0  0  0  0  0  0  0  0  0  0  0
  140.5846   85.7150  218.9693 H   0  0  0  0  0  0  0  0  0  0  0  0
  140.1952   85.5814  221.4527 H   0  0  0  0  0  0  0  0  0  0  0  0
  139.6733   80.1450  220.5662 H   0  0  0  0  0  0  0  0  0  0  0  0
  140.6197   72.8485  224.0398 H   0  0  0  0  0  0  0  0  0  0  0  0
  141.4227   72.2117  226.2886 H   0  0  0  0  0  0  0  0  0  0  0  0
  141.6241   70.6360  228.0104 H   0  0  0  0  0  0  0  0  0  0  0  0
  139.9000   66.7506  227.5035 H   0  0  0  0  0  0  0  0  0  0  0  0
  139.0771   67.3493  225.2485 H   0  0  0  0  0  0  0  0  0  0  0  0
  1  2  2  0
  2  3  1  0
  3  4  1  0
  4  5  1  0
  5  6  2  0
  5  7  1  0
  7  8  1  0
  8  9  1  0
  9 10  1  0
 10 11  1  0
 11 12  1  0
 12 13  2  0
 12 14  1  0
 14 15  1  0
 15 16  1  0
 16 17  2  0
 17 18  1  0
 18 19  2  0
 19 20  1  0
 20 21  1  0
 21 22  2  0
 22 23  1  0
 23 24  2  0
 24 25  1  0
 25 26  2  0
 20 27  2  0
  2 28  1  0
 28 29  2  0
 29 30  1  0
 30 31  2  0
 31 32  1  0
 32 33  2  0
 33 34  1  0
 33 35  1  0
 35 36  2  0
 36 37  1  0
 37 38  2  0
 11  7  1  0
 27 16  1  0
 38 28  1  0
 26 21  1  0
 37 31  1  0
  3 39  1  0
  4 40  1  0
  4 41  1  0
  8 42  1  0
  8 43  1  0
  9 44  1  0
  9 45  1  0
 10 46  1  0
 10 47  1  0
 11 48  1  1
 14 49  1  0
 15 50  1  0
 15 51  1  0
 17 52  1  0
 18 53  1  0
 19 54  1  0
 23 55  1  0
 24 56  1  0
 25 57  1  0
 27 58  1  0
 29 59  1  0
 30 60  1  0
 32 61  1  0
 35 62  1  0
 36 63  1  0
M  END
>  <smiles>  (4) 
O=C(NCC(=O)N1CCC[C@H]1C(=O)NCc1cccc(-c2ncccn2)c1)c1ccc2cc(F)ccc2n1

>  <score_type>  (4) 
oracle

>  <origin>  (4) 
autodockgpu

>  <m_score__min__energy>  (4) 
-9.8599999999999994

>  <m_primary>  (4) 
energy

>  <rmsd>  (4) 
3.122427093038885

>  <m_score__min__rmsd>  (4) 
3.122427093038885

>  <meeko>  (4) 
{"free_energy": -8.91, "intermolecular_energy": -11.29, "internal_energy": -2.5, "cluster_size": 5, "cluster_id": 2, "rank_in_cluster": 4}

>  <energy>  (4) 
-9.31

>  <cluster_rmsd>  (4) 
0.0

>  <cluster>  (4) 
2

$$$$

     RDKit          3D

 63 67  0  0  0  0  0  0  0  0999 V2000
  139.9800   73.4550  222.4620 O   0  0  0  0  0  0  0  0  0  0  0  0
  139.6490   72.2370  222.4040 C   0  0  0  0  0  0  0  0  0  0  0  0
  139.1290   71.6510  221.1950 N   0  0  0  0  0  0  0  0  0  0  0  0
  138.9790   72.4350  220.0160 C   0  0  0  0  0  0  0  0  0  0  0  0
  137.8880   73.3810  220.0230 C   0  0  0  0  0  0  0  0  0  0  0  0
  137.7730   74.0600  218.9090 O   0  0  0  0  0  0  0  0  0  0  0  0
  136.9400   73.7030  221.0120 N   0  0  0  0  0  0  0  0  0  0  0  0
  136.4300   72.9310  222.1360 C   0  0  0  0  0  0  0  0  0  0  0  0
  135.9700   74.0280  223.1180 C   0  0  0  0  0  0  0  0  0  0  0  0
  135.3020   75.0200  222.1580 C   0  0  0  0  0  0  0  0  0  0  0  0
  136.2760   75.0320  221.0010 C   0  0  1  0  0  0  0  0  0  0  0  0
  137.3780   76.0180  221.2800 C   0  0  0  0  0  0  0  0  0  0  0  0
  137.2870   77.0990  220.6020 O   0  0  0  0  0  0  0  0  0  0  0  0
  138.4140   75.8040  222.1880 N   0  0  0  0  0  0  0  0  0  0  0  0
  139.4880   76.7450  222.4690 C   0  0  0  0  0  0  0  0  0  0  0  0
  140.5790   76.6890  221.4660 C   0  0  0  0  0  0  0  0  0  0  0  0
  140.7490   77.7400  220.5720 C   0  0  0  0  0  0  0  0  0  0  0  0
  141.7460   77.7460  219.6200 C   0  0  0  0  0  0  0  0  0  0  0  0
  142.6250   76.6600  219.5410 C   0  0  0  0  0  0  0  0  0  0  0  0
  142.4760   75.6040  220.4170 C   0  0  0  0  0  0  0  0  0  0  0  0
  143.3770   74.4580  220.3560 C   0  0  0  0  0  0  0  0  0  0  0  0
  142.9080   73.2020  220.2530 N   0  0  0  0  0  0  0  0  0  0  0  0
  143.7690   72.1450  220.1970 C   0  0  0  0  0  0  0  0  0  0  0  0
  145.1410   72.3220  220.2450 C   0  0  0  0  0  0  0  0  0  0  0  0
  145.6030   73.6250  220.3510 C   0  0  0  0  0  0  0  0  0  0  0  0
  144.7070   74.6490  220.4030 N   0  0  0  0  0  0  0  0  0  0  0  0
  141.4650   75.6420  221.3520 C   0  0  0  0  0  0  0  0  0  0  0  0
  139.7870   71.3710  223.5870 C   0  0  0  0  0  0  0  0  0  0  0  0
  139.3680   70.0540  223.4950 C   0  0  0  0  0  0  0  0  0  0  0  0
  139.4810   69.2170  224.5780 C   0  0  0  0  0  0  0  0  0  0  0  0
  140.0090   69.6840  225.7550 C   0  0  0  0  0  0  0  0  0  0  0  0
  140.1100   68.8360  226.8140 C   0  0  0  0  0  0  0  0  0  0  0  0
  140.6400   69.3040  227.9960 C   0  0  0  0  0  0  0  0  0  0  0  0
  140.7620   68.4940  229.0840 F   0  0  0  0  0  0  0  0  0  0  0  0
  141.0480   70.6230  228.0560 C   0  0  0  0  0  0  0  0  0  0  0  0
  140.9500   71.4920  226.9880 C   0  0  0  0  0  0  0  0  0  0  0  0
  140.4170   71.0070  225.8120 C   0  0  0  0  0  0  0  0  0  0  0  0
  140.3080   71.8340  224.7500 N   0  0  0  0  0  0  0  0  0  0  0  0
  138.8700   70.6210  221.2330 H   0  0  0  0  0  0  0  0  0  0  0  0
  139.9120   72.9975  219.8642 H   0  0  0  0  0  0  0  0  0  0  0  0
  138.7496   71.7215  219.2109 H   0  0  0  0  0  0  0  0  0  0  0  0
  135.5874   72.2936  221.8299 H   0  0  0  0  0  0  0  0  0  0  0  0
  137.1724   72.2426  222.5662 H   0  0  0  0  0  0  0  0  0  0  0  0
  135.2544   73.6356  223.8555 H   0  0  0  0  0  0  0  0  0  0  0  0
  136.7786   74.4602  223.7257 H   0  0  0  0  0  0  0  0  0  0  0  0
  134.3094   74.6660  221.8426 H   0  0  0  0  0  0  0  0  0  0  0  0
  135.1191   76.0117  222.5974 H   0  0  0  0  0  0  0  0  0  0  0  0
  135.7525   75.2738  220.0643 H   0  0  0  0  0  0  0  0  0  0  0  0
  138.4600   74.9060  222.7440 H   0  0  0  0  0  0  0  0  0  0  0  0
  139.0703   77.7626  222.4774 H   0  0  0  0  0  0  0  0  0  0  0  0
  139.9200   76.4728  223.4433 H   0  0  0  0  0  0  0  0  0  0  0  0
  140.0629   78.5981  220.6263 H   0  0  0  0  0  0  0  0  0  0  0  0
  141.8496   78.5959  218.9294 H   0  0  0  0  0  0  0  0  0  0  0  0
  143.4269   76.6481  218.7881 H   0  0  0  0  0  0  0  0  0  0  0  0
  143.3625   71.1264  220.1116 H   0  0  0  0  0  0  0  0  0  0  0  0
  145.8330   71.4681  220.2010 H   0  0  0  0  0  0  0  0  0  0  0  0
  146.6830   73.8295  220.3927 H   0  0  0  0  0  0  0  0  0  0  0  0
  141.3605   74.7922  222.0427 H   0  0  0  0  0  0  0  0  0  0  0  0
  138.9438   69.6776  222.5524 H   0  0  0  0  0  0  0  0  0  0  0  0
  139.1479   68.1714  224.5017 H   0  0  0  0  0  0  0  0  0  0  0  0
  139.7735   67.7923  226.7276 H   0  0  0  0  0  0  0  0  0  0  0  0
  141.4709   70.9982  228.9996 H   0  0  0  0  0  0  0  0  0  0  0  0
  141.2857   72.5362  227.0720 H   0  0  0  0  0  0  0  0  0  0  0  0
  1  2  2  0
  2  3  1  0
  3  4  1  0
  4  5  1  0
  5  6  2  0
  5  7  1  0
  7  8  1  0
  8  9  1  0
  9 10  1  0
 10 11  1  0
 11 12  1  0
 12 13  2  0
 12 14  1  0
 14 15  1  0
 15 16  1  0
 16 17  2  0
 17 18  1  0
 18 19  2  0
 19 20  1  0
 20 21  1  0
 21 22  2  0
 22 23  1  0
 23 24  2  0
 24 25  1  0
 25 26  2  0
 20 27  2  0
  2 28  1  0
 28 29  2  0
 29 30  1  0
 30 31  2  0
 31 32  1  0
 32 33  2  0
 33 34  1  0
 33 35  1  0
 35 36  2  0
 36 37  1  0
 37 38  2  0
 11  7  1  0
 27 16  1  0
 38 28  1  0
 26 21  1  0
 37 31  1  0
  3 39  1  0
  4 40  1  0
  4 41  1  0
  8 42  1  0
  8 43  1  0
  9 44  1  0
  9 45  1  0
 10 46  1  0
 10 47  1  0
 11 48  1  6
 14 49  1  0
 15 50  1  0
 15 51  1  0
 17 52  1  0
 18 53  1  0
 19 54  1  0
 23 55  1  0
 24 56  1  0
 25 57  1  0
 27 58  1  0
 29 59  1  0
 30 60  1  0
 32 61  1  0
 35 62  1  0
 36 63  1  0
M  END
>  <smiles>  (5) 
O=C(NCC(=O)N1CCC[C@H]1C(=O)NCc1cccc(-c2ncccn2)c1)c1ccc2cc(F)ccc2n1

>  <score_type>  (5) 
oracle

>  <origin>  (5) 
autodockgpu

>  <m_score__min__energy>  (5) 
-9.8599999999999994

>  <m_primary>  (5) 
energy

>  <rmsd>  (5) 
4.216814386087719

>  <m_score__min__rmsd>  (5) 
4.216814386087719

>  <meeko>  (5) 
{"free_energy": -8.41, "intermolecular_energy": -10.8, "internal_energy": -3.62, "cluster_size": 8, "cluster_id": 9, "rank_in_cluster": 2}

>  <energy>  (5) 
-9.2

>  <cluster_rmsd>  (5) 
1.66

>  <cluster>  (5) 
2

$$$$

     RDKit          3D

 63 67  0  0  0  0  0  0  0  0999 V2000
  139.5510   70.5680  221.2260 O   0  0  0  0  0  0  0  0  0  0  0  0
  139.3460   71.3370  222.2090 C   0  0  0  0  0  0  0  0  0  0  0  0
  138.7200   72.6230  222.0440 N   0  0  0  0  0  0  0  0  0  0  0  0
  138.3020   73.0680  220.7570 C   0  0  0  0  0  0  0  0  0  0  0  0
  137.8690   74.4430  220.6760 C   0  0  0  0  0  0  0  0  0  0  0  0
  138.2500   75.0510  219.5810 O   0  0  0  0  0  0  0  0  0  0  0  0
  137.1220   75.2390  221.5640 N   0  0  0  0  0  0  0  0  0  0  0  0
  136.1710   74.8760  222.6050 C   0  0  0  0  0  0  0  0  0  0  0  0
  136.2370   76.0860  223.5600 C   0  0  0  0  0  0  0  0  0  0  0  0
  136.2810   77.2470  222.5590 C   0  0  0  0  0  0  0  0  0  0  0  0
  137.2390   76.7190  221.5160 C   0  0  1  0  0  0  0  0  0  0  0  0
  138.6540   77.0090  221.9390 C   0  0  0  0  0  0  0  0  0  0  0  0
  138.7470   77.5760  223.0820 O   0  0  0  0  0  0  0  0  0  0  0  0
  139.7820   76.6990  221.1780 N   0  0  0  0  0  0  0  0  0  0  0  0
  141.1560   76.9720  221.5700 C   0  0  0  0  0  0  0  0  0  0  0  0
  141.3500   78.3600  222.0560 C   0  0  0  0  0  0  0  0  0  0  0  0
  141.7430   78.5820  223.3710 C   0  0  0  0  0  0  0  0  0  0  0  0
  141.9420   79.8480  223.8790 C   0  0  0  0  0  0  0  0  0  0  0  0
  141.7430   80.9580  223.0510 C   0  0  0  0  0  0  0  0  0  0  0  0
  141.3530   80.7640  221.7420 C   0  0  0  0  0  0  0  0  0  0  0  0
  141.1360   81.9030  220.8570 C   0  0  0  0  0  0  0  0  0  0  0  0
  141.3980   81.8290  219.5400 N   0  0  0  0  0  0  0  0  0  0  0  0
  141.1880   82.9070  218.7320 C   0  0  0  0  0  0  0  0  0  0  0  0
  140.7040   84.1050  219.2280 C   0  0  0  0  0  0  0  0  0  0  0  0
  140.4400   84.1600  220.5880 C   0  0  0  0  0  0  0  0  0  0  0  0
  140.6640   83.0590  221.3570 N   0  0  0  0  0  0  0  0  0  0  0  0
  141.1660   79.4800  221.2780 C   0  0  0  0  0  0  0  0  0  0  0  0
  139.7470   70.9320  223.5660 C   0  0  0  0  0  0  0  0  0  0  0  0
  140.3870   71.8590  224.3700 C   0  0  0  0  0  0  0  0  0  0  0  0
  140.7770   71.5170  225.6420 C   0  0  0  0  0  0  0  0  0  0  0  0
  140.5330   70.2540  226.1190 C   0  0  0  0  0  0  0  0  0  0  0  0
  140.9290   69.9390  227.3820 C   0  0  0  0  0  0  0  0  0  0  0  0
  140.6840   68.6710  227.8610 C   0  0  0  0  0  0  0  0  0  0  0  0
  141.0610   68.3070  229.1190 F   0  0  0  0  0  0  0  0  0  0  0  0
  140.0440   67.7690  227.0340 C   0  0  0  0  0  0  0  0  0  0  0  0
  139.6380   68.0770  225.7510 C   0  0  0  0  0  0  0  0  0  0  0  0
  139.8910   69.3520  225.2870 C   0  0  0  0  0  0  0  0  0  0  0  0
  139.5060   69.6830  224.0350 N   0  0  0  0  0  0  0  0  0  0  0  0
  138.5880   73.2090  222.9210 H   0  0  0  0  0  0  0  0  0  0  0  0
  139.1472   72.9393  220.0648 H   0  0  0  0  0  0  0  0  0  0  0  0
  137.4193   72.4622  220.5043 H   0  0  0  0  0  0  0  0  0  0  0  0
  135.1591   74.7511  222.1921 H   0  0  0  0  0  0  0  0  0  0  0  0
  136.4039   73.9192  223.0952 H   0  0  0  0  0  0  0  0  0  0  0  0
  135.3469   76.1414  224.2039 H   0  0  0  0  0  0  0  0  0  0  0  0
  137.0817   76.0622  224.2642 H   0  0  0  0  0  0  0  0  0  0  0  0
  135.2879   77.4425  222.1284 H   0  0  0  0  0  0  0  0  0  0  0  0
  136.5884   78.2059  223.0018 H   0  0  0  0  0  0  0  0  0  0  0  0
  137.0165   77.1633  220.5347 H   0  0  0  0  0  0  0  0  0  0  0  0
  139.6780   76.2200  220.2410 H   0  0  0  0  0  0  0  0  0  0  0  0
  141.4372   76.2756  222.3738 H   0  0  0  0  0  0  0  0  0  0  0  0
  141.7869   76.8420  220.6783 H   0  0  0  0  0  0  0  0  0  0  0  0
  141.9009   77.7157  224.0302 H   0  0  0  0  0  0  0  0  0  0  0  0
  142.2542   79.9841  224.9250 H   0  0  0  0  0  0  0  0  0  0  0  0
  141.8960   81.9755  223.4399 H   0  0  0  0  0  0  0  0  0  0  0  0
  141.4091   82.8223  217.6578 H   0  0  0  0  0  0  0  0  0  0  0  0
  140.5365   84.9732  218.5736 H   0  0  0  0  0  0  0  0  0  0  0  0
  140.0532   85.0845  221.0415 H   0  0  0  0  0  0  0  0  0  0  0  0
  140.8537   79.3434  220.2322 H   0  0  0  0  0  0  0  0  0  0  0  0
  140.5839   72.8722  223.9895 H   0  0  0  0  0  0  0  0  0  0  0  0
  141.2852   72.2563  226.2785 H   0  0  0  0  0  0  0  0  0  0  0  0
  141.4368   70.6852  228.0107 H   0  0  0  0  0  0  0  0  0  0  0  0
  139.8483   66.7562  227.4160 H   0  0  0  0  0  0  0  0  0  0  0  0
  139.1305   67.3322  225.1204 H   0  0  0  0  0  0  0  0  0  0  0  0
  1  2  2  0
  2  3  1  0
  3  4  1  0
  4  5  1  0
  5  6  2  0
  5  7  1  0
  7  8  1  0
  8  9  1  0
  9 10  1  0
 10 11  1  0
 11 12  1  0
 12 13  2  0
 12 14  1  0
 14 15  1  0
 15 16  1  0
 16 17  2  0
 17 18  1  0
 18 19  2  0
 19 20  1  0
 20 21  1  0
 21 22  2  0
 22 23  1  0
 23 24  2  0
 24 25  1  0
 25 26  2  0
 20 27  2  0
  2 28  1  0
 28 29  2  0
 29 30  1  0
 30 31  2  0
 31 32  1  0
 32 33  2  0
 33 34  1  0
 33 35  1  0
 35 36  2  0
 36 37  1  0
 37 38  2  0
 11  7  1  0
 27 16  1  0
 38 28  1  0
 26 21  1  0
 37 31  1  0
  3 39  1  0
  4 40  1  0
  4 41  1  0
  8 42  1  0
  8 43  1  0
  9 44  1  0
  9 45  1  0
 10 46  1  0
 10 47  1  0
 11 48  1  6
 14 49  1  0
 15 50  1  0
 15 51  1  0
 17 52  1  0
 18 53  1  0
 19 54  1  0
 23 55  1  0
 24 56  1  0
 25 57  1  0
 27 58  1  0
 29 59  1  0
 30 60  1  0
 32 61  1  0
 35 62  1  0
 36 63  1  0
M  END
>  <smiles>  (6) 
O=C(NCC(=O)N1CCC[C@H]1C(=O)NCc1cccc(-c2ncccn2)c1)c1ccc2cc(F)ccc2n1

>  <score_type>  (6) 
oracle

>  <origin>  (6) 
autodockgpu

>  <m_score__min__energy>  (6) 
-9.8599999999999994

>  <m_primary>  (6) 
energy

>  <rmsd>  (6) 
3.838517255195678

>  <m_score__min__rmsd>  (6) 
3.838517255195678

>  <meeko>  (6) 
{"free_energy": -8.69, "intermolecular_energy": -11.08, "internal_energy": -2.51, "cluster_size": 2, "cluster_id": 7, "rank_in_cluster": 1}

>  <energy>  (6) 
-9.18

>  <cluster_rmsd>  (6) 
0.87

>  <cluster>  (6) 
2

$$$$

     RDKit          3D

 63 67  0  0  0  0  0  0  0  0999 V2000
  136.1360   77.1600  222.2390 O   0  0  0  0  0  0  0  0  0  0  0  0
  136.6120   76.1090  222.7570 C   0  0  0  0  0  0  0  0  0  0  0  0
  137.9340   75.6390  222.4320 N   0  0  0  0  0  0  0  0  0  0  0  0
  138.7550   76.3550  221.5150 C   0  0  0  0  0  0  0  0  0  0  0  0
  140.1550   76.0020  221.5140 C   0  0  0  0  0  0  0  0  0  0  0  0
  140.9180   76.8730  222.1250 O   0  0  0  0  0  0  0  0  0  0  0  0
  140.8370   74.8980  220.9700 N   0  0  0  0  0  0  0  0  0  0  0  0
  142.2540   74.5640  220.9490 C   0  0  0  0  0  0  0  0  0  0  0  0
  142.2380   73.0280  220.8100 C   0  0  0  0  0  0  0  0  0  0  0  0
  141.1160   72.8390  219.7800 C   0  0  0  0  0  0  0  0  0  0  0  0
  140.0820   73.8290  220.2670 C   0  0  1  0  0  0  0  0  0  0  0  0
  139.2340   73.1890  221.3320 C   0  0  0  0  0  0  0  0  0  0  0  0
  139.6550   73.3960  222.5220 O   0  0  0  0  0  0  0  0  0  0  0  0
  138.0870   72.4360  221.0780 N   0  0  0  0  0  0  0  0  0  0  0  0
  137.2560   71.8090  222.0940 C   0  0  0  0  0  0  0  0  0  0  0  0
  138.0050   70.8430  222.9350 C   0  0  0  0  0  0  0  0  0  0  0  0
  138.0460   69.5020  222.5750 C   0  0  0  0  0  0  0  0  0  0  0  0
  138.7270   68.5580  223.3150 C   0  0  0  0  0  0  0  0  0  0  0  0
  139.4050   68.9540  224.4730 C   0  0  0  0  0  0  0  0  0  0  0  0
  139.3790   70.2810  224.8510 C   0  0  0  0  0  0  0  0  0  0  0  0
  140.0750   70.7220  226.0560 C   0  0  0  0  0  0  0  0  0  0  0  0
  140.7350   71.8920  226.0960 N   0  0  0  0  0  0  0  0  0  0  0  0
  141.3790   72.2840  227.2330 C   0  0  0  0  0  0  0  0  0  0  0  0
  141.3790   71.5010  228.3750 C   0  0  0  0  0  0  0  0  0  0  0  0
  140.6920   70.2990  228.3110 C   0  0  0  0  0  0  0  0  0  0  0  0
  140.0640   69.9480  227.1560 N   0  0  0  0  0  0  0  0  0  0  0  0
  138.6850   71.1880  224.0810 C   0  0  0  0  0  0  0  0  0  0  0  0
  135.8170   75.3280  223.7190 C   0  0  0  0  0  0  0  0  0  0  0  0
  135.0630   76.0100  224.6590 C   0  0  0  0  0  0  0  0  0  0  0  0
  134.3100   75.3150  225.5740 C   0  0  0  0  0  0  0  0  0  0  0  0
  134.3030   73.9430  225.5580 C   0  0  0  0  0  0  0  0  0  0  0  0
  133.5490   73.2770  226.4730 C   0  0  0  0  0  0  0  0  0  0  0  0
  133.5420   71.9000  226.4580 C   0  0  0  0  0  0  0  0  0  0  0  0
  132.8040   71.1870  227.3540 F   0  0  0  0  0  0  0  0  0  0  0  0
  134.3060   71.2500  225.5070 C   0  0  0  0  0  0  0  0  0  0  0  0
  135.0750   71.9150  224.5740 C   0  0  0  0  0  0  0  0  0  0  0  0
  135.0700   73.2940  224.6040 C   0  0  0  0  0  0  0  0  0  0  0  0
  135.8130   73.9730  223.7020 N   0  0  0  0  0  0  0  0  0  0  0  0
  138.2560   74.7450  222.9080 H   0  0  0  0  0  0  0  0  0  0  0  0
  138.3623   76.1791  220.5027 H   0  0  0  0  0  0  0  0  0  0  0  0
  138.7132   77.4063  221.8360 H   0  0  0  0  0  0  0  0  0  0  0  0
  142.7598   75.0345  220.0930 H   0  0  0  0  0  0  0  0  0  0  0  0
  142.7988   74.9164  221.8373 H   0  0  0  0  0  0  0  0  0  0  0  0
  143.1991   72.6463  220.4351 H   0  0  0  0  0  0  0  0  0  0  0  0
  142.0810   72.4887  221.7558 H   0  0  0  0  0  0  0  0  0  0  0  0
  141.4589   73.0846  218.7641 H   0  0  0  0  0  0  0  0  0  0  0  0
  140.7455   71.8058  219.7082 H   0  0  0  0  0  0  0  0  0  0  0  0
  139.4670   74.1820  219.4261 H   0  0  0  0  0  0  0  0  0  0  0  0
  137.7550   72.2890  220.0850 H   0  0  0  0  0  0  0  0  0  0  0  0
  136.8433   72.5945  222.7441 H   0  0  0  0  0  0  0  0  0  0  0  0
  136.4635   71.2503  221.5746 H   0  0  0  0  0  0  0  0  0  0  0  0
  137.5158   69.1811  221.6662 H   0  0  0  0  0  0  0  0  0  0  0  0
  138.7369   67.5047  222.9980 H   0  0  0  0  0  0  0  0  0  0  0  0
  139.9532   68.2152  225.0760 H   0  0  0  0  0  0  0  0  0  0  0  0
  141.9117   73.2464  227.2428 H   0  0  0  0  0  0  0  0  0  0  0  0
  141.9000   71.8182  229.2904 H   0  0  0  0  0  0  0  0  0  0  0  0
  140.6547   69.6343  229.1866 H   0  0  0  0  0  0  0  0  0  0  0  0
  138.6736   72.2413  224.3979 H   0  0  0  0  0  0  0  0  0  0  0  0
  135.0670   77.1099  224.6731 H   0  0  0  0  0  0  0  0  0  0  0  0
  133.7121   75.8589  226.3202 H   0  0  0  0  0  0  0  0  0  0  0  0
  132.9534   73.8301  227.2142 H   0  0  0  0  0  0  0  0  0  0  0  0
  134.3007   70.1501  225.4933 H   0  0  0  0  0  0  0  0  0  0  0  0
  135.6715   71.3643  223.8318 H   0  0  0  0  0  0  0  0  0  0  0  0
  1  2  2  0
  2  3  1  0
  3  4  1  0
  4  5  1  0
  5  6  2  0
  5  7  1  0
  7  8  1  0
  8  9  1  0
  9 10  1  0
 10 11  1  0
 11 12  1  0
 12 13  2  0
 12 14  1  0
 14 15  1  0
 15 16  1  0
 16 17  2  0
 17 18  1  0
 18 19  2  0
 19 20  1  0
 20 21  1  0
 21 22  2  0
 22 23  1  0
 23 24  2  0
 24 25  1  0
 25 26  2  0
 20 27  2  0
  2 28  1  0
 28 29  2  0
 29 30  1  0
 30 31  2  0
 31 32  1  0
 32 33  2  0
 33 34  1  0
 33 35  1  0
 35 36  2  0
 36 37  1  0
 37 38  2  0
 11  7  1  0
 27 16  1  0
 38 28  1  0
 26 21  1  0
 37 31  1  0
  3 39  1  0
  4 40  1  0
  4 41  1  0
  8 42  1  0
  8 43  1  0
  9 44  1  0
  9 45  1  0
 10 46  1  0
 10 47  1  0
 11 48  1  6
 14 49  1  0
 15 50  1  0
 15 51  1  0
 17 52  1  0
 18 53  1  0
 19 54  1  0
 23 55  1  0
 24 56  1  0
 25 57  1  0
 27 58  1  0
 29 59  1  0
 30 60  1  0
 32 61  1  0
 35 62  1  0
 36 63  1  0
M  END
>  <smiles>  (7) 
O=C(NCC(=O)N1CCC[C@H]1C(=O)NCc1cccc(-c2ncccn2)c1)c1ccc2cc(F)ccc2n1

>  <score_type>  (7) 
oracle

>  <origin>  (7) 
autodockgpu

>  <m_score__min__energy>  (7) 
-9.8599999999999994

>  <m_primary>  (7) 
energy

>  <rmsd>  (7) 
7.486517659426444

>  <m_score__min__rmsd>  (7) 
7.486517659426444

>  <meeko>  (7) 
{"free_energy": -8.15, "intermolecular_energy": -10.54, "internal_energy": -3.56, "cluster_size": 1, "cluster_id": 12, "rank_in_cluster": 1}

>  <energy>  (7) 
-8.91

>  <cluster_rmsd>  (7) 
1.44

>  <cluster>  (7) 
2

$$$$

     RDKit          3D

 63 67  0  0  0  0  0  0  0  0999 V2000
  135.8150   77.0090  222.0220 O   0  0  0  0  0  0  0  0  0  0  0  0
  136.9830   76.7310  222.4170 C   0  0  0  0  0  0  0  0  0  0  0  0
  137.4090   75.3710  222.6190 N   0  0  0  0  0  0  0  0  0  0  0  0
  136.5200   74.2870  222.3690 C   0  0  0  0  0  0  0  0  0  0  0  0
  137.1280   73.0750  221.8720 C   0  0  0  0  0  0  0  0  0  0  0  0
  136.9390   72.0360  222.6450 O   0  0  0  0  0  0  0  0  0  0  0  0
  137.8880   72.8200  220.7150 N   0  0  0  0  0  0  0  0  0  0  0  0
  137.5260   72.8600  219.3050 C   0  0  0  0  0  0  0  0  0  0  0  0
  138.8810   73.1190  218.6150 C   0  0  0  0  0  0  0  0  0  0  0  0
  139.8020   72.1940  219.4210 C   0  0  0  0  0  0  0  0  0  0  0  0
  139.3160   72.4290  220.8330 C   0  0  1  0  0  0  0  0  0  0  0  0
  140.0030   73.6390  221.4080 C   0  0  0  0  0  0  0  0  0  0  0  0
  139.9240   73.7220  222.6820 O   0  0  0  0  0  0  0  0  0  0  0  0
  140.6730   74.5990  220.6480 N   0  0  0  0  0  0  0  0  0  0  0  0
  141.3400   75.7740  221.1860 C   0  0  0  0  0  0  0  0  0  0  0  0
  141.8680   76.6700  220.1290 C   0  0  0  0  0  0  0  0  0  0  0  0
  142.6170   76.1410  219.0850 C   0  0  0  0  0  0  0  0  0  0  0  0
  143.1320   76.9230  218.0730 C   0  0  0  0  0  0  0  0  0  0  0  0
  142.8980   78.3020  218.0860 C   0  0  0  0  0  0  0  0  0  0  0  0
  142.1570   78.8520  219.1120 C   0  0  0  0  0  0  0  0  0  0  0  0
  141.8990   80.2880  219.1530 C   0  0  0  0  0  0  0  0  0  0  0  0
  142.2760   81.0980  218.1490 N   0  0  0  0  0  0  0  0  0  0  0  0
  142.0250   82.4370  218.2090 C   0  0  0  0  0  0  0  0  0  0  0  0
  141.3810   83.0080  219.2940 C   0  0  0  0  0  0  0  0  0  0  0  0
  141.0010   82.1550  220.3180 C   0  0  0  0  0  0  0  0  0  0  0  0
  141.2720   80.8240  220.2150 N   0  0  0  0  0  0  0  0  0  0  0  0
  141.6630   78.0310  220.1020 C   0  0  0  0  0  0  0  0  0  0  0  0
  137.9530   77.8070  222.6860 C   0  0  0  0  0  0  0  0  0  0  0  0
  137.4900   79.1100  222.7550 C   0  0  0  0  0  0  0  0  0  0  0  0
  138.3660   80.1390  223.0020 C   0  0  0  0  0  0  0  0  0  0  0  0
  139.7010   79.8780  223.1810 C   0  0  0  0  0  0  0  0  0  0  0  0
  140.5480   80.9140  223.4240 C   0  0  0  0  0  0  0  0  0  0  0  0
  141.8880   80.6520  223.6030 C   0  0  0  0  0  0  0  0  0  0  0  0
  142.7770   81.6560  223.8490 F   0  0  0  0  0  0  0  0  0  0  0  0
  142.3170   79.3420  223.5270 C   0  0  0  0  0  0  0  0  0  0  0  0
  141.4670   78.2830  223.2800 C   0  0  0  0  0  0  0  0  0  0  0  0
  140.1280   78.5630  223.1030 C   0  0  0  0  0  0  0  0  0  0  0  0
  139.2710   77.5470  222.8600 N   0  0  0  0  0  0  0  0  0  0  0  0
  138.4060   75.2240  222.9580 H   0  0  0  0  0  0  0  0  0  0  0  0
  136.0091   74.0454  223.3128 H   0  0  0  0  0  0  0  0  0  0  0  0
  135.8469   74.6319  221.5702 H   0  0  0  0  0  0  0  0  0  0  0  0
  137.0915   71.9033  218.9796 H   0  0  0  0  0  0  0  0  0  0  0  0
  136.7646   73.6186  219.0709 H   0  0  0  0  0  0  0  0  0  0  0  0
  138.8538   72.8359  217.5524 H   0  0  0  0  0  0  0  0  0  0  0  0
  139.1918   74.1742  218.6081 H   0  0  0  0  0  0  0  0  0  0  0  0
  139.6744   71.1428  219.1231 H   0  0  0  0  0  0  0  0  0  0  0  0
  140.8736   72.3976  219.2787 H   0  0  0  0  0  0  0  0  0  0  0  0
  139.4957   71.5370  221.4511 H   0  0  0  0  0  0  0  0  0  0  0  0
  140.7320   74.5010  219.5970 H   0  0  0  0  0  0  0  0  0  0  0  0
  140.6199   76.3378  221.7972 H   0  0  0  0  0  0  0  0  0  0  0  0
  142.1961   75.4248  221.7820 H   0  0  0  0  0  0  0  0  0  0  0  0
  142.8062   75.0576  219.0652 H   0  0  0  0  0  0  0  0  0  0  0  0
  143.7210   76.4671  217.2635 H   0  0  0  0  0  0  0  0  0  0  0  0
  143.3005   78.9415  217.2866 H   0  0  0  0  0  0  0  0  0  0  0  0
  142.3420   83.0798  217.3746 H   0  0  0  0  0  0  0  0  0  0  0  0
  141.1804   84.0885  219.3408 H   0  0  0  0  0  0  0  0  0  0  0  0
  140.4852   82.5492  221.2060 H   0  0  0  0  0  0  0  0  0  0  0  0
  141.0747   78.4863  220.9123 H   0  0  0  0  0  0  0  0  0  0  0  0
  136.4200   79.3214  222.6120 H   0  0  0  0  0  0  0  0  0  0  0  0
  137.9966   81.1737  223.0563 H   0  0  0  0  0  0  0  0  0  0  0  0
  140.1686   81.9451  223.4767 H   0  0  0  0  0  0  0  0  0  0  0  0
  143.3873   79.1322  223.6701 H   0  0  0  0  0  0  0  0  0  0  0  0
  141.8444   77.2512  223.2262 H   0  0  0  0  0  0  0  0  0  0  0  0
  1  2  2  0
  2  3  1  0
  3  4  1  0
  4  5  1  0
  5  6  2  0
  5  7  1  0
  7  8  1  0
  8  9  1  0
  9 10  1  0
 10 11  1  0
 11 12  1  0
 12 13  2  0
 12 14  1  0
 14 15  1  0
 15 16  1  0
 16 17  2  0
 17 18  1  0
 18 19  2  0
 19 20  1  0
 20 21  1  0
 21 22  2  0
 22 23  1  0
 23 24  2  0
 24 25  1  0
 25 26  2  0
 20 27  2  0
  2 28  1  0
 28 29  2  0
 29 30  1  0
 30 31  2  0
 31 32  1  0
 32 33  2  0
 33 34  1  0
 33 35  1  0
 35 36  2  0
 36 37  1  0
 37 38  2  0
 11  7  1  0
 27 16  1  0
 38 28  1  0
 26 21  1  0
 37 31  1  0
  3 39  1  0
  4 40  1  0
  4 41  1  0
  8 42  1  0
  8 43  1  0
  9 44  1  0
  9 45  1  0
 10 46  1  0
 10 47  1  0
 11 48  1  1
 14 49  1  0
 15 50  1  0
 15 51  1  0
 17 52  1  0
 18 53  1  0
 19 54  1  0
 23 55  1  0
 24 56  1  0
 25 57  1  0
 27 58  1  0
 29 59  1  0
 30 60  1  0
 32 61  1  0
 35 62  1  0
 36 63  1  0
M  END
>  <smiles>  (8) 
O=C(NCC(=O)N1CCC[C@H]1C(=O)NCc1cccc(-c2ncccn2)c1)c1ccc2cc(F)ccc2n1

>  <score_type>  (8) 
oracle

>  <origin>  (8) 
autodockgpu

>  <m_score__min__energy>  (8) 
-9.8599999999999994

>  <m_primary>  (8) 
energy

>  <rmsd>  (8) 
7.234383608853758

>  <m_score__min__rmsd>  (8) 
7.234383608853758

>  <meeko>  (8) 
{"free_energy": -6.75, "intermolecular_energy": -9.13, "internal_energy": -4.43, "cluster_size": 1, "cluster_id": 16, "rank_in_cluster": 1}

>  <energy>  (8) 
-8.69

>  <cluster_rmsd>  (8) 
1.76

>  <cluster>  (8) 
2

$$$$

     RDKit          3D

 63 67  0  0  0  0  0  0  0  0999 V2000
  140.0890   72.9550  222.7320 O   0  0  0  0  0  0  0  0  0  0  0  0
  139.6880   71.7860  222.9990 C   0  0  0  0  0  0  0  0  0  0  0  0
  138.8580   71.0450  222.0850 N   0  0  0  0  0  0  0  0  0  0  0  0
  138.4670   71.6100  220.8370 C   0  0  0  0  0  0  0  0  0  0  0  0
  137.1410   72.1790  220.7920 C   0  0  0  0  0  0  0  0  0  0  0  0
  136.9030   72.8720  219.7070 O   0  0  0  0  0  0  0  0  0  0  0  0
  136.0710   72.1250  221.7050 N   0  0  0  0  0  0  0  0  0  0  0  0
  135.8390   71.2640  222.8560 C   0  0  0  0  0  0  0  0  0  0  0  0
  134.8950   72.1160  223.7300 C   0  0  0  0  0  0  0  0  0  0  0  0
  133.9550   72.6970  222.6660 C   0  0  0  0  0  0  0  0  0  0  0  0
  134.9230   73.0570  221.5630 C   0  0  1  0  0  0  0  0  0  0  0  0
  135.4990   74.4230  221.8230 C   0  0  0  0  0  0  0  0  0  0  0  0
  135.0420   75.3320  221.0470 O   0  0  0  0  0  0  0  0  0  0  0  0
  136.4420   74.7050  222.8110 N   0  0  0  0  0  0  0  0  0  0  0  0
  137.0100   76.0180  223.0750 C   0  0  0  0  0  0  0  0  0  0  0  0
  138.3480   76.2000  222.4640 C   0  0  0  0  0  0  0  0  0  0  0  0
  138.8410   75.2440  221.5840 C   0  0  0  0  0  0  0  0  0  0  0  0
  140.0770   75.3590  220.9830 C   0  0  0  0  0  0  0  0  0  0  0  0
  140.8730   76.4760  221.2620 C   0  0  0  0  0  0  0  0  0  0  0  0
  140.4060   77.4380  222.1330 C   0  0  0  0  0  0  0  0  0  0  0  0
  141.2160   78.6120  222.4440 C   0  0  0  0  0  0  0  0  0  0  0  0
  141.7120   78.8150  223.6760 N   0  0  0  0  0  0  0  0  0  0  0  0
  142.4670   79.9200  223.9440 C   0  0  0  0  0  0  0  0  0  0  0  0
  142.7460   80.8630  222.9700 C   0  0  0  0  0  0  0  0  0  0  0  0
  142.2250   80.6330  221.7060 C   0  0  0  0  0  0  0  0  0  0  0  0
  141.4770   79.5170  221.4840 N   0  0  0  0  0  0  0  0  0  0  0  0
  139.1650   77.2810  222.7090 C   0  0  0  0  0  0  0  0  0  0  0  0
  140.0640   71.1430  224.2680 C   0  0  0  0  0  0  0  0  0  0  0  0
  140.7530   71.8900  225.2090 C   0  0  0  0  0  0  0  0  0  0  0  0
  141.1220   71.3230  226.4040 C   0  0  0  0  0  0  0  0  0  0  0  0
  140.8080   70.0130  226.6690 C   0  0  0  0  0  0  0  0  0  0  0  0
  141.1850   69.4750  227.8600 C   0  0  0  0  0  0  0  0  0  0  0  0
  140.8700   68.1600  228.1270 C   0  0  0  0  0  0  0  0  0  0  0  0
  141.2250   67.5750  229.3050 F   0  0  0  0  0  0  0  0  0  0  0  0
  140.1830   67.4420  227.1680 C   0  0  0  0  0  0  0  0  0  0  0  0
  139.7970   67.9780  225.9560 C   0  0  0  0  0  0  0  0  0  0  0  0
  140.1200   69.2960  225.7050 C   0  0  0  0  0  0  0  0  0  0  0  0
  139.7550   69.8490  224.5280 N   0  0  0  0  0  0  0  0  0  0  0  0
  138.5600   70.0710  222.3880 H   0  0  0  0  0  0  0  0  0  0  0  0
  139.1842   72.4058  220.5875 H   0  0  0  0  0  0  0  0  0  0  0  0
  138.4578   70.7748  220.1212 H   0  0  0  0  0  0  0  0  0  0  0  0
  135.3588   70.3209  222.5559 H   0  0  0  0  0  0  0  0  0  0  0  0
  136.7634   70.9664  223.3727 H   0  0  0  0  0  0  0  0  0  0  0  0
  134.3488   71.4967  224.4567 H   0  0  0  0  0  0  0  0  0  0  0  0
  135.4056   72.8717  224.3450 H   0  0  0  0  0  0  0  0  0  0  0  0
  133.2221   71.9497  222.3278 H   0  0  0  0  0  0  0  0  0  0  0  0
  133.3488   73.5435  223.0210 H   0  0  0  0  0  0  0  0  0  0  0  0
  134.4191   73.0160  220.5861 H   0  0  0  0  0  0  0  0  0  0  0  0
  136.7950   73.9360  223.4460 H   0  0  0  0  0  0  0  0  0  0  0  0
  136.3314   76.7824  222.6685 H   0  0  0  0  0  0  0  0  0  0  0  0
  137.1283   76.1140  224.1644 H   0  0  0  0  0  0  0  0  0  0  0  0
  138.2224   74.3628  221.3584 H   0  0  0  0  0  0  0  0  0  0  0  0
  140.4335   74.5811  220.2917 H   0  0  0  0  0  0  0  0  0  0  0  0
  141.8612   76.5855  220.7913 H   0  0  0  0  0  0  0  0  0  0  0  0
  142.8637   80.0648  224.9597 H   0  0  0  0  0  0  0  0  0  0  0  0
  143.3531   81.7538  223.1887 H   0  0  0  0  0  0  0  0  0  0  0  0
  142.4142   81.3457  220.8897 H   0  0  0  0  0  0  0  0  0  0  0  0
  138.8082   78.0589  223.4001 H   0  0  0  0  0  0  0  0  0  0  0  0
  141.0052   72.9398  224.9986 H   0  0  0  0  0  0  0  0  0  0  0  0
  141.6694   71.9187  227.1493 H   0  0  0  0  0  0  0  0  0  0  0  0
  141.7324   70.0796  228.5981 H   0  0  0  0  0  0  0  0  0  0  0  0
  139.9313   66.3924  227.3802 H   0  0  0  0  0  0  0  0  0  0  0  0
  139.2507   67.3753  225.2156 H   0  0  0  0  0  0  0  0  0  0  0  0
  1  2  2  0
  2  3  1  0
  3  4  1  0
  4  5  1  0
  5  6  2  0
  5  7  1  0
  7  8  1  0
  8  9  1  0
  9 10  1  0
 10 11  1  0
 11 12  1  0
 12 13  2  0
 12 14  1  0
 14 15  1  0
 15 16  1  0
 16 17  2  0
 17 18  1  0
 18 19  2  0
 19 20  1  0
 20 21  1  0
 21 22  2  0
 22 23  1  0
 23 24  2  0
 24 25  1  0
 25 26  2  0
 20 27  2  0
  2 28  1  0
 28 29  2  0
 29 30  1  0
 30 31  2  0
 31 32  1  0
 32 33  2  0
 33 34  1  0
 33 35  1  0
 35 36  2  0
 36 37  1  0
 37 38  2  0
 11  7  1  0
 27 16  1  0
 38 28  1  0
 26 21  1  0
 37 31  1  0
  3 39  1  0
  4 40  1  0
  4 41  1  0
  8 42  1  0
  8 43  1  0
  9 44  1  0
  9 45  1  0
 10 46  1  0
 10 47  1  0
 11 48  1  6
 14 49  1  0
 15 50  1  0
 15 51  1  0
 17 52  1  0
 18 53  1  0
 19 54  1  0
 23 55  1  0
 24 56  1  0
 25 57  1  0
 27 58  1  0
 29 59  1  0
 30 60  1  0
 32 61  1  0
 35 62  1  0
 36 63  1  0
M  END
>  <smiles>  (9) 
O=C(NCC(=O)N1CCC[C@H]1C(=O)NCc1cccc(-c2ncccn2)c1)c1ccc2cc(F)ccc2n1

>  <score_type>  (9) 
oracle

>  <origin>  (9) 
autodockgpu

>  <m_score__min__energy>  (9) 
-9.8599999999999994

>  <m_primary>  (9) 
energy

>  <rmsd>  (9) 
5.566004912802692

>  <m_score__min__rmsd>  (9) 
5.566004912802692

>  <meeko>  (9) 
{"free_energy": -8.53, "intermolecular_energy": -10.91, "internal_energy": -2.96, "cluster_size": 4, "cluster_id": 3, "rank_in_cluster": 4}

>  <energy>  (9) 
-9.1

>  <cluster_rmsd>  (9) 
0.0

>  <cluster>  (9) 
3

$$$$

     RDKit          3D

 63 67  0  0  0  0  0  0  0  0999 V2000
  138.1380   72.9860  221.9810 O   0  0  0  0  0  0  0  0  0  0  0  0
  139.1960   73.6780  221.9650 C   0  0  0  0  0  0  0  0  0  0  0  0
  140.4780   73.0920  221.6690 N   0  0  0  0  0  0  0  0  0  0  0  0
  140.5910   71.7030  221.3760 C   0  0  0  0  0  0  0  0  0  0  0  0
  140.0800   70.8030  222.3830 C   0  0  0  0  0  0  0  0  0  0  0  0
  139.3680   69.8190  221.8960 O   0  0  0  0  0  0  0  0  0  0  0  0
  140.2080   70.8030  223.7850 N   0  0  0  0  0  0  0  0  0  0  0  0
  140.6860   71.8280  224.7010 C   0  0  0  0  0  0  0  0  0  0  0  0
  139.9820   71.4550  226.0220 C   0  0  0  0  0  0  0  0  0  0  0  0
  140.1280   69.9280  226.0110 C   0  0  0  0  0  0  0  0  0  0  0  0
  139.8250   69.6000  224.5670 C   0  0  1  0  0  0  0  0  0  0  0  0
  138.3370   69.4750  224.3800 C   0  0  0  0  0  0  0  0  0  0  0  0
  137.8130   68.5120  225.0400 O   0  0  0  0  0  0  0  0  0  0  0  0
  137.5710   70.3160  223.5720 N   0  0  0  0  0  0  0  0  0  0  0  0
  136.1330   70.2090  223.3790 C   0  0  0  0  0  0  0  0  0  0  0  0
  135.3580   70.6780  224.5530 C   0  0  0  0  0  0  0  0  0  0  0  0
  134.9120   69.7610  225.4970 C   0  0  0  0  0  0  0  0  0  0  0  0
  134.1900   70.1370  226.6100 C   0  0  0  0  0  0  0  0  0  0  0  0
  133.8880   71.4890  226.8060 C   0  0  0  0  0  0  0  0  0  0  0  0
  134.3200   72.4190  225.8820 C   0  0  0  0  0  0  0  0  0  0  0  0
  134.0180   73.8360  226.0600 C   0  0  0  0  0  0  0  0  0  0  0  0
  134.6410   74.7820  225.3370 N   0  0  0  0  0  0  0  0  0  0  0  0
  134.3420   76.1010  225.5210 C   0  0  0  0  0  0  0  0  0  0  0  0
  133.4000   76.5110  226.4480 C   0  0  0  0  0  0  0  0  0  0  0  0
  132.7700   75.5180  227.1830 C   0  0  0  0  0  0  0  0  0  0  0  0
  133.0990   74.2150  226.9660 N   0  0  0  0  0  0  0  0  0  0  0  0
  135.0390   71.9960  224.7860 C   0  0  0  0  0  0  0  0  0  0  0  0
  139.1440   75.1210  222.2510 C   0  0  0  0  0  0  0  0  0  0  0  0
  137.9060   75.7160  222.4250 C   0  0  0  0  0  0  0  0  0  0  0  0
  137.8190   77.0610  222.6920 C   0  0  0  0  0  0  0  0  0  0  0  0
  138.9600   77.8180  222.7870 C   0  0  0  0  0  0  0  0  0  0  0  0
  138.8480   79.1470  223.0530 C   0  0  0  0  0  0  0  0  0  0  0  0
  139.9930   79.9070  223.1490 C   0  0  0  0  0  0  0  0  0  0  0  0
  139.9330   81.2430  223.4130 F   0  0  0  0  0  0  0  0  0  0  0  0
  141.2120   79.2830  222.9700 C   0  0  0  0  0  0  0  0  0  0  0  0
  141.3370   77.9360  222.7000 C   0  0  0  0  0  0  0  0  0  0  0  0
  140.1810   77.1890  222.6070 C   0  0  0  0  0  0  0  0  0  0  0  0
  140.2720   75.8670  222.3440 N   0  0  0  0  0  0  0  0  0  0  0  0
  141.3180   73.7430  221.6810 H   0  0  0  0  0  0  0  0  0  0  0  0
  140.0432   71.5098  220.4419 H   0  0  0  0  0  0  0  0  0  0  0  0
  141.6700   71.4985  221.3135 H   0  0  0  0  0  0  0  0  0  0  0  0
  141.7799   71.7854  224.8084 H   0  0  0  0  0  0  0  0  0  0  0  0
  140.4680   72.8520  224.3635 H   0  0  0  0  0  0  0  0  0  0  0  0
  140.4881   71.9029  226.8899 H   0  0  0  0  0  0  0  0  0  0  0  0
  138.9438   71.8105  226.0985 H   0  0  0  0  0  0  0  0  0  0  0  0
  141.1478   69.6210  226.2862 H   0  0  0  0  0  0  0  0  0  0  0  0
  139.4761   69.4125  226.7316 H   0  0  0  0  0  0  0  0  0  0  0  0
  140.3437   68.6768  224.2692 H   0  0  0  0  0  0  0  0  0  0  0  0
  138.0280   71.1110  223.0460 H   0  0  0  0  0  0  0  0  0  0  0  0
  135.8497   70.8154  222.5061 H   0  0  0  0  0  0  0  0  0  0  0  0
  135.8975   69.1447  223.2311 H   0  0  0  0  0  0  0  0  0  0  0  0
  135.1435   68.6956  225.3510 H   0  0  0  0  0  0  0  0  0  0  0  0
  133.8550   69.3818  227.3362 H   0  0  0  0  0  0  0  0  0  0  0  0
  133.3122   71.8076  227.6874 H   0  0  0  0  0  0  0  0  0  0  0  0
  134.8635   76.8578  224.9166 H   0  0  0  0  0  0  0  0  0  0  0  0
  133.1620   77.5748  226.5950 H   0  0  0  0  0  0  0  0  0  0  0  0
  132.0112   75.7809  227.9347 H   0  0  0  0  0  0  0  0  0  0  0  0
  135.3754   72.7506  224.0597 H   0  0  0  0  0  0  0  0  0  0  0  0
  136.9905   75.1109  222.3494 H   0  0  0  0  0  0  0  0  0  0  0  0
  136.8343   77.5314  222.8297 H   0  0  0  0  0  0  0  0  0  0  0  0
  137.8586   79.6079  223.1894 H   0  0  0  0  0  0  0  0  0  0  0  0
  142.1268   79.8890  223.0464 H   0  0  0  0  0  0  0  0  0  0  0  0
  142.3254   77.4730  222.5634 H   0  0  0  0  0  0  0  0  0  0  0  0
  1  2  2  0
  2  3  1  0
  3  4  1  0
  4  5  1  0
  5  6  2  0
  5  7  1  0
  7  8  1  0
  8  9  1  0
  9 10  1  0
 10 11  1  0
 11 12  1  0
 12 13  2  0
 12 14  1  0
 14 15  1  0
 15 16  1  0
 16 17  2  0
 17 18  1  0
 18 19  2  0
 19 20  1  0
 20 21  1  0
 21 22  2  0
 22 23  1  0
 23 24  2  0
 24 25  1  0
 25 26  2  0
 20 27  2  0
  2 28  1  0
 28 29  2  0
 29 30  1  0
 30 31  2  0
 31 32  1  0
 32 33  2  0
 33 34  1  0
 33 35  1  0
 35 36  2  0
 36 37  1  0
 37 38  2  0
 11  7  1  0
 27 16  1  0
 38 28  1  0
 26 21  1  0
 37 31  1  0
  3 39  1  0
  4 40  1  0
  4 41  1  0
  8 42  1  0
  8 43  1  0
  9 44  1  0
  9 45  1  0
 10 46  1  0
 10 47  1  0
 11 48  1  6
 14 49  1  0
 15 50  1  0
 15 51  1  0
 17 52  1  0
 18 53  1  0
 19 54  1  0
 23 55  1  0
 24 56  1  0
 25 57  1  0
 27 58  1  0
 29 59  1  0
 30 60  1  0
 32 61  1  0
 35 62  1  0
 36 63  1  0
M  END
>  <smiles>  (10) 
O=C(NCC(=O)N1CCC[C@H]1C(=O)NCc1cccc(-c2ncccn2)c1)c1ccc2cc(F)ccc2n1

>  <score_type>  (10) 
oracle

>  <origin>  (10) 
autodockgpu

>  <m_score__min__energy>  (10) 
-9.8599999999999994

>  <m_primary>  (10) 
energy

>  <rmsd>  (10) 
9.256778655906325

>  <m_score__min__rmsd>  (10) 
9.256778655906325

>  <meeko>  (10) 
{"free_energy": -7.79, "intermolecular_energy": -10.18, "internal_energy": -3.73, "cluster_size": 2, "cluster_id": 6, "rank_in_cluster": 2}

>  <energy>  (10) 
-8.89

>  <cluster_rmsd>  (10) 
1.15

>  <cluster>  (10) 
3

$$$$

     RDKit          3D

 63 67  0  0  0  0  0  0  0  0999 V2000
  139.8120   70.8900  221.1230 O   0  0  0  0  0  0  0  0  0  0  0  0
  139.8440   71.5160  222.2210 C   0  0  0  0  0  0  0  0  0  0  0  0
  139.8820   72.9550  222.2700 N   0  0  0  0  0  0  0  0  0  0  0  0
  139.8780   73.7220  221.0710 C   0  0  0  0  0  0  0  0  0  0  0  0
  141.1740   74.1030  220.5610 C   0  0  0  0  0  0  0  0  0  0  0  0
  142.1740   73.5920  221.2340 O   0  0  0  0  0  0  0  0  0  0  0  0
  141.5470   74.9240  219.4810 N   0  0  0  0  0  0  0  0  0  0  0  0
  141.2450   74.8320  218.0600 C   0  0  0  0  0  0  0  0  0  0  0  0
  141.3820   76.2950  217.5900 C   0  0  0  0  0  0  0  0  0  0  0  0
  142.6380   76.7320  218.3540 C   0  0  0  0  0  0  0  0  0  0  0  0
  142.4010   76.1170  219.7140 C   0  0  1  0  0  0  0  0  0  0  0  0
  141.5550   77.0440  220.5450 C   0  0  0  0  0  0  0  0  0  0  0  0
  141.0940   78.0440  219.8960 O   0  0  0  0  0  0  0  0  0  0  0  0
  141.2800   76.8550  221.9000 N   0  0  0  0  0  0  0  0  0  0  0  0
  140.4660   77.7390  222.7190 C   0  0  0  0  0  0  0  0  0  0  0  0
  141.0490   79.0960  222.8540 C   0  0  0  0  0  0  0  0  0  0  0  0
  141.8760   79.3890  223.9320 C   0  0  0  0  0  0  0  0  0  0  0  0
  142.4480   80.6310  224.1090 C   0  0  0  0  0  0  0  0  0  0  0  0
  142.1940   81.6420  223.1770 C   0  0  0  0  0  0  0  0  0  0  0  0
  141.3750   81.3770  222.0980 C   0  0  0  0  0  0  0  0  0  0  0  0
  141.0910   82.4130  221.1110 C   0  0  0  0  0  0  0  0  0  0  0  0
  141.3700   82.2370  219.8080 N   0  0  0  0  0  0  0  0  0  0  0  0
  141.0960   83.2210  218.9030 C   0  0  0  0  0  0  0  0  0  0  0  0
  140.5270   84.4230  219.2860 C   0  0  0  0  0  0  0  0  0  0  0  0
  140.2460   84.5830  220.6350 C   0  0  0  0  0  0  0  0  0  0  0  0
  140.5380   83.5750  221.5020 N   0  0  0  0  0  0  0  0  0  0  0  0
  140.8260   80.1210  221.9620 C   0  0  0  0  0  0  0  0  0  0  0  0
  139.8420   70.7800  223.4960 C   0  0  0  0  0  0  0  0  0  0  0  0
  139.3040   69.5040  223.5220 C   0  0  0  0  0  0  0  0  0  0  0  0
  139.2840   68.7880  224.6930 C   0  0  0  0  0  0  0  0  0  0  0  0
  139.7960   69.3360  225.8430 C   0  0  0  0  0  0  0  0  0  0  0  0
  139.7650   68.6070  226.9910 C   0  0  0  0  0  0  0  0  0  0  0  0
  140.2790   69.1570  228.1440 C   0  0  0  0  0  0  0  0  0  0  0  0
  140.2710   68.4670  229.3190 F   0  0  0  0  0  0  0  0  0  0  0  0
  140.8070   70.4320  228.0850 C   0  0  0  0  0  0  0  0  0  0  0  0
  140.8440   71.1800  226.9260 C   0  0  0  0  0  0  0  0  0  0  0  0
  140.3250   70.6140  225.7800 C   0  0  0  0  0  0  0  0  0  0  0  0
  140.3480   71.3230  224.6300 N   0  0  0  0  0  0  0  0  0  0  0  0
  139.9120   73.4020  223.2340 H   0  0  0  0  0  0  0  0  0  0  0  0
  139.3709   73.1306  220.2944 H   0  0  0  0  0  0  0  0  0  0  0  0
  139.3687   74.6640  221.3223 H   0  0  0  0  0  0  0  0  0  0  0  0
  141.9643   74.1800  217.5428 H   0  0  0  0  0  0  0  0  0  0  0  0
  140.2568   74.3965  217.8506 H   0  0  0  0  0  0  0  0  0  0  0  0
  141.5291   76.3575  216.5017 H   0  0  0  0  0  0  0  0  0  0  0  0
  140.4955   76.9175  217.7815 H   0  0  0  0  0  0  0  0  0  0  0  0
  143.5503   76.3325  217.8871 H   0  0  0  0  0  0  0  0  0  0  0  0
  142.7891   77.8213  218.3775 H   0  0  0  0  0  0  0  0  0  0  0  0
  143.3601   75.9020  220.2078 H   0  0  0  0  0  0  0  0  0  0  0  0
  141.6650   76.0130  222.4100 H   0  0  0  0  0  0  0  0  0  0  0  0
  139.4712   77.8281  222.2581 H   0  0  0  0  0  0  0  0  0  0  0  0
  140.4112   77.3003  223.7262 H   0  0  0  0  0  0  0  0  0  0  0  0
  142.0818   78.6009  224.6713 H   0  0  0  0  0  0  0  0  0  0  0  0
  143.0979   80.8247  224.9751 H   0  0  0  0  0  0  0  0  0  0  0  0
  142.6424   82.6386  223.3025 H   0  0  0  0  0  0  0  0  0  0  0  0
  141.3335   83.0545  217.8419 H   0  0  0  0  0  0  0  0  0  0  0  0
  140.3077   85.2148  218.5546 H   0  0  0  0  0  0  0  0  0  0  0  0
  139.7915   85.5156  221.0006 H   0  0  0  0  0  0  0  0  0  0  0  0
  140.1759   79.9268  221.0962 H   0  0  0  0  0  0  0  0  0  0  0  0
  138.8918   69.0634  222.6022 H   0  0  0  0  0  0  0  0  0  0  0  0
  138.8574   67.7743  224.7100 H   0  0  0  0  0  0  0  0  0  0  0  0
  139.3361   67.5941  226.9982 H   0  0  0  0  0  0  0  0  0  0  0  0
  141.2176   70.8721  229.0058 H   0  0  0  0  0  0  0  0  0  0  0  0
  141.2727   72.1930  226.9162 H   0  0  0  0  0  0  0  0  0  0  0  0
  1  2  2  0
  2  3  1  0
  3  4  1  0
  4  5  1  0
  5  6  2  0
  5  7  1  0
  7  8  1  0
  8  9  1  0
  9 10  1  0
 10 11  1  0
 11 12  1  0
 12 13  2  0
 12 14  1  0
 14 15  1  0
 15 16  1  0
 16 17  2  0
 17 18  1  0
 18 19  2  0
 19 20  1  0
 20 21  1  0
 21 22  2  0
 22 23  1  0
 23 24  2  0
 24 25  1  0
 25 26  2  0
 20 27  2  0
  2 28  1  0
 28 29  2  0
 29 30  1  0
 30 31  2  0
 31 32  1  0
 32 33  2  0
 33 34  1  0
 33 35  1  0
 35 36  2  0
 36 37  1  0
 37 38  2  0
 11  7  1  0
 27 16  1  0
 38 28  1  0
 26 21  1  0
 37 31  1  0
  3 39  1  0
  4 40  1  0
  4 41  1  0
  8 42  1  0
  8 43  1  0
  9 44  1  0
  9 45  1  0
 10 46  1  0
 10 47  1  0
 11 48  1  1
 14 49  1  0
 15 50  1  0
 15 51  1  0
 17 52  1  0
 18 53  1  0
 19 54  1  0
 23 55  1  0
 24 56  1  0
 25 57  1  0
 27 58  1  0
 29 59  1  0
 30 60  1  0
 32 61  1  0
 35 62  1  0
 36 63  1  0
M  END
>  <smiles>  (11) 
O=C(NCC(=O)N1CCC[C@H]1C(=O)NCc1cccc(-c2ncccn2)c1)c1ccc2cc(F)ccc2n1

>  <score_type>  (11) 
oracle

>  <origin>  (11) 
autodockgpu

>  <m_score__min__energy>  (11) 
-9.8599999999999994

>  <m_primary>  (11) 
energy

>  <rmsd>  (11) 
2.052588252042057

>  <m_score__min__rmsd>  (11) 
2.052588252042057

>  <meeko>  (11) 
{"free_energy": -9.18, "intermolecular_energy": -11.56, "internal_energy": -2.28, "cluster_size": 5, "cluster_id": 2, "rank_in_cluster": 3}

>  <energy>  (11) 
-8.57

>  <cluster_rmsd>  (11) 
1.17

>  <cluster>  (11) 
3

$$$$

     RDKit          3D

 63 67  0  0  0  0  0  0  0  0999 V2000
  137.1010   69.7240  222.5250 O   0  0  0  0  0  0  0  0  0  0  0  0
  137.8140   70.5570  223.1540 C   0  0  0  0  0  0  0  0  0  0  0  0
  137.8800   71.9420  222.7630 N   0  0  0  0  0  0  0  0  0  0  0  0
  137.1320   72.4180  221.6490 C   0  0  0  0  0  0  0  0  0  0  0  0
  136.8830   73.8400  221.6190 C   0  0  0  0  0  0  0  0  0  0  0  0
  136.1870   74.2740  222.6390 O   0  0  0  0  0  0  0  0  0  0  0  0
  137.2490   74.8310  220.6890 N   0  0  0  0  0  0  0  0  0  0  0  0
  136.4800   75.9120  220.0900 C   0  0  0  0  0  0  0  0  0  0  0  0
  137.5710   76.9380  219.7190 C   0  0  0  0  0  0  0  0  0  0  0  0
  138.6640   76.0160  219.1640 C   0  0  0  0  0  0  0  0  0  0  0  0
  138.6340   74.8730  220.1530 C   0  0  1  0  0  0  0  0  0  0  0  0
  139.4980   75.2100  221.3390 C   0  0  0  0  0  0  0  0  0  0  0  0
  139.6910   74.2270  222.1340 O   0  0  0  0  0  0  0  0  0  0  0  0
  140.0540   76.4680  221.5750 N   0  0  0  0  0  0  0  0  0  0  0  0
  140.8900   76.8120  222.7150 C   0  0  0  0  0  0  0  0  0  0  0  0
  141.3510   78.2210  222.6860 C   0  0  0  0  0  0  0  0  0  0  0  0
  141.8000   78.8240  223.8550 C   0  0  0  0  0  0  0  0  0  0  0  0
  142.2420   80.1300  223.8900 C   0  0  0  0  0  0  0  0  0  0  0  0
  142.2450   80.8840  222.7120 C   0  0  0  0  0  0  0  0  0  0  0  0
  141.8040   80.3080  221.5380 C   0  0  0  0  0  0  0  0  0  0  0  0
  141.7930   81.0720  220.2950 C   0  0  0  0  0  0  0  0  0  0  0  0
  142.2370   80.5420  219.1420 N   0  0  0  0  0  0  0  0  0  0  0  0
  142.2170   81.2760  217.9920 C   0  0  0  0  0  0  0  0  0  0  0  0
  141.7470   82.5770  217.9670 C   0  0  0  0  0  0  0  0  0  0  0  0
  141.2940   83.1030  219.1670 C   0  0  0  0  0  0  0  0  0  0  0  0
  141.3320   82.3350  220.2910 N   0  0  0  0  0  0  0  0  0  0  0  0
  141.3700   79.0000  221.5520 C   0  0  0  0  0  0  0  0  0  0  0  0
  138.6050   70.1290  224.3200 C   0  0  0  0  0  0  0  0  0  0  0  0
  138.6670   68.7780  224.6160 C   0  0  0  0  0  0  0  0  0  0  0  0
  139.3940   68.3420  225.6960 C   0  0  0  0  0  0  0  0  0  0  0  0
  140.0610   69.2450  226.4850 C   0  0  0  0  0  0  0  0  0  0  0  0
  140.7750   68.7880  227.5500 C   0  0  0  0  0  0  0  0  0  0  0  0
  141.4440   69.6940  228.3420 C   0  0  0  0  0  0  0  0  0  0  0  0
  142.1730   69.2860  229.4190 F   0  0  0  0  0  0  0  0  0  0  0  0
  141.3620   71.0350  228.0200 C   0  0  0  0  0  0  0  0  0  0  0  0
  140.6410   71.5090  226.9430 C   0  0  0  0  0  0  0  0  0  0  0  0
  139.9760   70.5880  226.1600 C   0  0  0  0  0  0  0  0  0  0  0  0
  139.2630   71.0230  225.0990 N   0  0  0  0  0  0  0  0  0  0  0  0
  138.5070   72.5750  223.3420 H   0  0  0  0  0  0  0  0  0  0  0  0
  137.6831   72.1528  220.7347 H   0  0  0  0  0  0  0  0  0  0  0  0
  136.1428   71.9437  221.7296 H   0  0  0  0  0  0  0  0  0  0  0  0
  135.9396   75.5667  219.1963 H   0  0  0  0  0  0  0  0  0  0  0  0
  135.7060   76.3193  220.7571 H   0  0  0  0  0  0  0  0  0  0  0  0
  137.2159   77.6475  218.9571 H   0  0  0  0  0  0  0  0  0  0  0  0
  137.8967   77.5753  220.5543 H   0  0  0  0  0  0  0  0  0  0  0  0
  138.4209   75.6729  218.1475 H   0  0  0  0  0  0  0  0  0  0  0  0
  139.6482   76.4979  219.0691 H   0  0  0  0  0  0  0  0  0  0  0  0
  138.9651   73.9421  219.6695 H   0  0  0  0  0  0  0  0  0  0  0  0
  139.8870   77.2610  220.8960 H   0  0  0  0  0  0  0  0  0  0  0  0
  140.3113   76.6506  223.6364 H   0  0  0  0  0  0  0  0  0  0  0  0
  141.7830   76.1708  222.6759 H   0  0  0  0  0  0  0  0  0  0  0  0
  141.8029   78.2383  224.7861 H   0  0  0  0  0  0  0  0  0  0  0  0
  142.5887   80.5741  224.8348 H   0  0  0  0  0  0  0  0  0  0  0  0
  142.5956   81.9266  222.7212 H   0  0  0  0  0  0  0  0  0  0  0  0
  142.5843   80.8213  217.0601 H   0  0  0  0  0  0  0  0  0  0  0  0
  141.7334   83.1665  217.0384 H   0  0  0  0  0  0  0  0  0  0  0  0
  140.9072   84.1318  219.2109 H   0  0  0  0  0  0  0  0  0  0  0  0
  141.0208   78.5560  220.6081 H   0  0  0  0  0  0  0  0  0  0  0  0
  138.1329   68.0526  223.9848 H   0  0  0  0  0  0  0  0  0  0  0  0
  139.4418   67.2680  225.9289 H   0  0  0  0  0  0  0  0  0  0  0  0
  140.8168   67.7119  227.7743 H   0  0  0  0  0  0  0  0  0  0  0  0
  141.8968   71.7592  228.6521 H   0  0  0  0  0  0  0  0  0  0  0  0
  140.5980   72.5846  226.7165 H   0  0  0  0  0  0  0  0  0  0  0  0
  1  2  2  0
  2  3  1  0
  3  4  1  0
  4  5  1  0
  5  6  2  0
  5  7  1  0
  7  8  1  0
  8  9  1  0
  9 10  1  0
 10 11  1  0
 11 12  1  0
 12 13  2  0
 12 14  1  0
 14 15  1  0
 15 16  1  0
 16 17  2  0
 17 18  1  0
 18 19  2  0
 19 20  1  0
 20 21  1  0
 21 22  2  0
 22 23  1  0
 23 24  2  0
 24 25  1  0
 25 26  2  0
 20 27  2  0
  2 28  1  0
 28 29  2  0
 29 30  1  0
 30 31  2  0
 31 32  1  0
 32 33  2  0
 33 34  1  0
 33 35  1  0
 35 36  2  0
 36 37  1  0
 37 38  2  0
 11  7  1  0
 27 16  1  0
 38 28  1  0
 26 21  1  0
 37 31  1  0
  3 39  1  0
  4 40  1  0
  4 41  1  0
  8 42  1  0
  8 43  1  0
  9 44  1  0
  9 45  1  0
 10 46  1  0
 10 47  1  0
 11 48  1  6
 14 49  1  0
 15 50  1  0
 15 51  1  0
 17 52  1  0
 18 53  1  0
 19 54  1  0
 23 55  1  0
 24 56  1  0
 25 57  1  0
 27 58  1  0
 29 59  1  0
 30 60  1  0
 32 61  1  0
 35 62  1  0
 36 63  1  0
M  END
>  <smiles>  (12) 
O=C(NCC(=O)N1CCC[C@H]1C(=O)NCc1cccc(-c2ncccn2)c1)c1ccc2cc(F)ccc2n1

>  <score_type>  (12) 
oracle

>  <origin>  (12) 
autodockgpu

>  <m_score__min__energy>  (12) 
-9.8599999999999994

>  <m_primary>  (12) 
energy

>  <rmsd>  (12) 
2.688126304775395

>  <m_score__min__rmsd>  (12) 
2.688126304775395

>  <meeko>  (12) 
{"free_energy": -8.64, "intermolecular_energy": -11.02, "internal_energy": -2.57, "cluster_size": 2, "cluster_id": 7, "rank_in_cluster": 2}

>  <energy>  (12) 
-8.53

>  <cluster_rmsd>  (12) 
1.97

>  <cluster>  (12) 
3

$$$$

     RDKit          3D

 63 67  0  0  0  0  0  0  0  0999 V2000
  137.3870   70.3650  221.8430 O   0  0  0  0  0  0  0  0  0  0  0  0
  138.0590   71.0420  222.6720 C   0  0  0  0  0  0  0  0  0  0  0  0
  138.2390   72.4630  222.5180 N   0  0  0  0  0  0  0  0  0  0  0  0
  137.6530   73.1530  221.4190 C   0  0  0  0  0  0  0  0  0  0  0  0
  136.3650   73.7560  221.6690 C   0  0  0  0  0  0  0  0  0  0  0  0
  135.9400   74.5140  220.6900 O   0  0  0  0  0  0  0  0  0  0  0  0
  135.4970   73.6760  222.7740 N   0  0  0  0  0  0  0  0  0  0  0  0
  135.3520   72.6590  223.8050 C   0  0  0  0  0  0  0  0  0  0  0  0
  134.7480   73.4530  224.9820 C   0  0  0  0  0  0  0  0  0  0  0  0
  133.7300   74.3350  224.2480 C   0  0  0  0  0  0  0  0  0  0  0  0
  134.5130   74.7600  223.0280 C   0  0  1  0  0  0  0  0  0  0  0  0
  135.3450   75.9700  223.3590 C   0  0  0  0  0  0  0  0  0  0  0  0
  135.3780   76.2490  224.6060 O   0  0  0  0  0  0  0  0  0  0  0  0
  136.0320   76.7350  222.4150 N   0  0  0  0  0  0  0  0  0  0  0  0
  136.8390   77.9070  222.7160 C   0  0  0  0  0  0  0  0  0  0  0  0
  138.2950   77.6330  222.6590 C   0  0  0  0  0  0  0  0  0  0  0  0
  139.1960   78.5890  223.1120 C   0  0  0  0  0  0  0  0  0  0  0  0
  140.5600   78.3910  223.0850 C   0  0  0  0  0  0  0  0  0  0  0  0
  141.0680   77.1870  222.5870 C   0  0  0  0  0  0  0  0  0  0  0  0
  140.1940   76.2210  222.1310 C   0  0  0  0  0  0  0  0  0  0  0  0
  140.6960   74.9570  221.6030 C   0  0  0  0  0  0  0  0  0  0  0  0
  141.2590   74.8780  220.3850 N   0  0  0  0  0  0  0  0  0  0  0  0
  141.7210   73.6840  219.9130 C   0  0  0  0  0  0  0  0  0  0  0  0
  141.6290   72.5220  220.6580 C   0  0  0  0  0  0  0  0  0  0  0  0
  141.0450   72.6260  221.9120 C   0  0  0  0  0  0  0  0  0  0  0  0
  140.5980   73.8380  222.3430 N   0  0  0  0  0  0  0  0  0  0  0  0
  138.8390   76.4640  222.1770 C   0  0  0  0  0  0  0  0  0  0  0  0
  138.6840   70.3880  223.8340 C   0  0  0  0  0  0  0  0  0  0  0  0
  138.6210   69.0080  223.9280 C   0  0  0  0  0  0  0  0  0  0  0  0
  139.1920   68.3640  224.9990 C   0  0  0  0  0  0  0  0  0  0  0  0
  139.8260   69.0870  225.9780 C   0  0  0  0  0  0  0  0  0  0  0  0
  140.3830   68.4250  227.0280 C   0  0  0  0  0  0  0  0  0  0  0  0
  141.0190   69.1510  228.0110 C   0  0  0  0  0  0  0  0  0  0  0  0
  141.5930   68.5350  229.0830 F   0  0  0  0  0  0  0  0  0  0  0  0
  141.0640   70.5260  227.8880 C   0  0  0  0  0  0  0  0  0  0  0  0
  140.5020   71.2070  226.8270 C   0  0  0  0  0  0  0  0  0  0  0  0
  139.8680   70.4650  225.8520 C   0  0  0  0  0  0  0  0  0  0  0  0
  139.3090   71.1040  224.8010 N   0  0  0  0  0  0  0  0  0  0  0  0
  138.8220   72.9570  223.2560 H   0  0  0  0  0  0  0  0  0  0  0  0
  138.3456   73.9512  221.1139 H   0  0  0  0  0  0  0  0  0  0  0  0
  137.4801   72.3900  220.6457 H   0  0  0  0  0  0  0  0  0  0  0  0
  134.6740   71.8568  223.4783 H   0  0  0  0  0  0  0  0  0  0  0  0
  136.2968   72.1554  224.0573 H   0  0  0  0  0  0  0  0  0  0  0  0
  134.2573   72.7883  225.7082 H   0  0  0  0  0  0  0  0  0  0  0  0
  135.4849   74.0110  225.5783 H   0  0  0  0  0  0  0  0  0  0  0  0
  132.8325   73.7635  223.9689 H   0  0  0  0  0  0  0  0  0  0  0  0
  133.3520   75.1747  224.8498 H   0  0  0  0  0  0  0  0  0  0  0  0
  133.8308   74.9627  222.1892 H   0  0  0  0  0  0  0  0  0  0  0  0
  135.9970   76.4750  221.3910 H   0  0  0  0  0  0  0  0  0  0  0  0
  136.6009   78.6945  221.9858 H   0  0  0  0  0  0  0  0  0  0  0  0
  136.6008   78.2176  223.7440 H   0  0  0  0  0  0  0  0  0  0  0  0
  138.8064   79.5389  223.5068 H   0  0  0  0  0  0  0  0  0  0  0  0
  141.2420   79.1723  223.4516 H   0  0  0  0  0  0  0  0  0  0  0  0
  142.1535   77.0115  222.5590 H   0  0  0  0  0  0  0  0  0  0  0  0
  142.1787   73.6444  218.9135 H   0  0  0  0  0  0  0  0  0  0  0  0
  142.0014   71.5608  220.2741 H   0  0  0  0  0  0  0  0  0  0  0  0
  140.9439   71.7374  222.5525 H   0  0  0  0  0  0  0  0  0  0  0  0
  138.1564   75.6836  221.8096 H   0  0  0  0  0  0  0  0  0  0  0  0
  138.1132   68.4266  223.1443 H   0  0  0  0  0  0  0  0  0  0  0  0
  139.1409   67.2676  225.0718 H   0  0  0  0  0  0  0  0  0  0  0  0
  140.3264   67.3283  227.0910 H   0  0  0  0  0  0  0  0  0  0  0  0
  141.5718   71.1059  228.6728 H   0  0  0  0  0  0  0  0  0  0  0  0
  140.5578   72.3036  226.7612 H   0  0  0  0  0  0  0  0  0  0  0  0
  1  2  2  0
  2  3  1  0
  3  4  1  0
  4  5  1  0
  5  6  2  0
  5  7  1  0
  7  8  1  0
  8  9  1  0
  9 10  1  0
 10 11  1  0
 11 12  1  0
 12 13  2  0
 12 14  1  0
 14 15  1  0
 15 16  1  0
 16 17  2  0
 17 18  1  0
 18 19  2  0
 19 20  1  0
 20 21  1  0
 21 22  2  0
 22 23  1  0
 23 24  2  0
 24 25  1  0
 25 26  2  0
 20 27  2  0
  2 28  1  0
 28 29  2  0
 29 30  1  0
 30 31  2  0
 31 32  1  0
 32 33  2  0
 33 34  1  0
 33 35  1  0
 35 36  2  0
 36 37  1  0
 37 38  2  0
 11  7  1  0
 27 16  1  0
 38 28  1  0
 26 21  1  0
 37 31  1  0
  3 39  1  0
  4 40  1  0
  4 41  1  0
  8 42  1  0
  8 43  1  0
  9 44  1  0
  9 45  1  0
 10 46  1  0
 10 47  1  0
 11 48  1  6
 14 49  1  0
 15 50  1  0
 15 51  1  0
 17 52  1  0
 18 53  1  0
 19 54  1  0
 23 55  1  0
 24 56  1  0
 25 57  1  0
 27 58  1  0
 29 59  1  0
 30 60  1  0
 32 61  1  0
 35 62  1  0
 36 63  1  0
M  END
>  <smiles>  (13) 
O=C(NCC(=O)N1CCC[C@H]1C(=O)NCc1cccc(-c2ncccn2)c1)c1ccc2cc(F)ccc2n1

>  <score_type>  (13) 
oracle

>  <origin>  (13) 
autodockgpu

>  <m_score__min__energy>  (13) 
-9.8599999999999994

>  <m_primary>  (13) 
energy

>  <rmsd>  (13) 
5.05461152866819

>  <m_score__min__rmsd>  (13) 
5.05461152866819

>  <meeko>  (13) 
{"free_energy": -8.13, "intermolecular_energy": -10.51, "internal_energy": -4.4, "cluster_size": 6, "cluster_id": 8, "rank_in_cluster": 2}

>  <energy>  (13) 
-9.04

>  <cluster_rmsd>  (13) 
0.0

>  <cluster>  (13) 
4

$$$$

     RDKit          3D

 63 67  0  0  0  0  0  0  0  0999 V2000
  139.0610   74.9370  222.3410 O   0  0  0  0  0  0  0  0  0  0  0  0
  139.9870   75.3480  221.5860 C   0  0  0  0  0  0  0  0  0  0  0  0
  139.9660   76.6700  221.0150 N   0  0  0  0  0  0  0  0  0  0  0  0
  138.8940   77.5650  221.2940 C   0  0  0  0  0  0  0  0  0  0  0  0
  139.2730   78.8730  221.7730 C   0  0  0  0  0  0  0  0  0  0  0  0
  138.3530   79.7860  221.5930 O   0  0  0  0  0  0  0  0  0  0  0  0
  140.4510   79.3340  222.3890 N   0  0  0  0  0  0  0  0  0  0  0  0
  141.0560   78.9970  223.6700 C   0  0  0  0  0  0  0  0  0  0  0  0
  142.5460   79.3220  223.4360 C   0  0  0  0  0  0  0  0  0  0  0  0
  142.4400   80.6400  222.6570 C   0  0  0  0  0  0  0  0  0  0  0  0
  141.3000   80.3450  221.7090 C   0  0  1  0  0  0  0  0  0  0  0  0
  141.8300   79.6470  220.4850 C   0  0  0  0  0  0  0  0  0  0  0  0
  142.1380   78.4210  220.6830 O   0  0  0  0  0  0  0  0  0  0  0  0
  141.9810   80.2520  219.2370 N   0  0  0  0  0  0  0  0  0  0  0  0
  142.4920   79.5930  218.0450 C   0  0  0  0  0  0  0  0  0  0  0  0
  141.9810   78.2100  217.8880 C   0  0  0  0  0  0  0  0  0  0  0  0
  140.6190   77.9600  218.0030 C   0  0  0  0  0  0  0  0  0  0  0  0
  140.0850   76.6960  217.8650 C   0  0  0  0  0  0  0  0  0  0  0  0
  140.9360   75.6180  217.5980 C   0  0  0  0  0  0  0  0  0  0  0  0
  142.2920   75.8410  217.4790 C   0  0  0  0  0  0  0  0  0  0  0  0
  143.2040   74.7350  217.2040 C   0  0  0  0  0  0  0  0  0  0  0  0
  144.4610   74.9500  216.7810 N   0  0  0  0  0  0  0  0  0  0  0  0
  145.2960   73.9000  216.5300 C   0  0  0  0  0  0  0  0  0  0  0  0
  144.8850   72.5890  216.6960 C   0  0  0  0  0  0  0  0  0  0  0  0
  143.5840   72.3900  217.1330 C   0  0  0  0  0  0  0  0  0  0  0  0
  142.7870   73.4670  217.3710 N   0  0  0  0  0  0  0  0  0  0  0  0
  142.7800   77.1200  217.6250 C   0  0  0  0  0  0  0  0  0  0  0  0
  141.1280   74.4750  221.2650 C   0  0  0  0  0  0  0  0  0  0  0  0
  140.9300   73.1040  221.2600 C   0  0  0  0  0  0  0  0  0  0  0  0
  141.9710   72.2580  220.9670 C   0  0  0  0  0  0  0  0  0  0  0  0
  143.2120   72.7690  220.6780 C   0  0  0  0  0  0  0  0  0  0  0  0
  144.2270   71.9110  220.3910 C   0  0  0  0  0  0  0  0  0  0  0  0
  145.4720   72.4230  220.1020 C   0  0  0  0  0  0  0  0  0  0  0  0
  146.5210   71.6050  219.8080 F   0  0  0  0  0  0  0  0  0  0  0  0
  145.6370   73.7950  220.1160 C   0  0  0  0  0  0  0  0  0  0  0  0
  144.6140   74.6750  220.4060 C   0  0  0  0  0  0  0  0  0  0  0  0
  143.3740   74.1450  220.6940 C   0  0  0  0  0  0  0  0  0  0  0  0
  142.3530   74.9810  220.9820 N   0  0  0  0  0  0  0  0  0  0  0  0
  140.7810   76.9360  220.3860 H   0  0  0  0  0  0  0  0  0  0  0  0
  138.3174   77.6996  220.3670 H   0  0  0  0  0  0  0  0  0  0  0  0
  138.3248   77.1014  222.1132 H   0  0  0  0  0  0  0  0  0  0  0  0
  140.6381   79.6124  224.4804 H   0  0  0  0  0  0  0  0  0  0  0  0
  140.8788   77.9555  223.9764 H   0  0  0  0  0  0  0  0  0  0  0  0
  143.0841   79.4565  224.3860 H   0  0  0  0  0  0  0  0  0  0  0  0
  143.1060   78.5314  222.9151 H   0  0  0  0  0  0  0  0  0  0  0  0
  142.1997   81.4815  223.3235 H   0  0  0  0  0  0  0  0  0  0  0  0
  143.3723   80.9382  222.1551 H   0  0  0  0  0  0  0  0  0  0  0  0
  140.7764   81.2750  221.4426 H   0  0  0  0  0  0  0  0  0  0  0  0
  141.7080   81.2640  219.0990 H   0  0  0  0  0  0  0  0  0  0  0  0
  142.1934   80.1799  217.1639 H   0  0  0  0  0  0  0  0  0  0  0  0
  143.5859   79.5322  218.1440 H   0  0  0  0  0  0  0  0  0  0  0  0
  139.9418   78.8013  218.2118 H   0  0  0  0  0  0  0  0  0  0  0  0
  139.0011   76.5369  217.9638 H   0  0  0  0  0  0  0  0  0  0  0  0
  140.5278   74.6029  217.4841 H   0  0  0  0  0  0  0  0  0  0  0  0
  146.3217   74.1009  216.1871 H   0  0  0  0  0  0  0  0  0  0  0  0
  145.5589   71.7441  216.4909 H   0  0  0  0  0  0  0  0  0  0  0  0
  143.1997   71.3707  217.2859 H   0  0  0  0  0  0  0  0  0  0  0  0
  143.8639   77.2793  217.5265 H   0  0  0  0  0  0  0  0  0  0  0  0
  139.9366   72.6922  221.4913 H   0  0  0  0  0  0  0  0  0  0  0  0
  141.8105   71.1698  220.9638 H   0  0  0  0  0  0  0  0  0  0  0  0
  144.0561   70.8244  220.3897 H   0  0  0  0  0  0  0  0  0  0  0  0
  146.6311   74.2053  219.8850 H   0  0  0  0  0  0  0  0  0  0  0  0
  144.7821   75.7621  220.4073 H   0  0  0  0  0  0  0  0  0  0  0  0
  1  2  2  0
  2  3  1  0
  3  4  1  0
  4  5  1  0
  5  6  2  0
  5  7  1  0
  7  8  1  0
  8  9  1  0
  9 10  1  0
 10 11  1  0
 11 12  1  0
 12 13  2  0
 12 14  1  0
 14 15  1  0
 15 16  1  0
 16 17  2  0
 17 18  1  0
 18 19  2  0
 19 20  1  0
 20 21  1  0
 21 22  2  0
 22 23  1  0
 23 24  2  0
 24 25  1  0
 25 26  2  0
 20 27  2  0
  2 28  1  0
 28 29  2  0
 29 30  1  0
 30 31  2  0
 31 32  1  0
 32 33  2  0
 33 34  1  0
 33 35  1  0
 35 36  2  0
 36 37  1  0
 37 38  2  0
 11  7  1  0
 27 16  1  0
 38 28  1  0
 26 21  1  0
 37 31  1  0
  3 39  1  0
  4 40  1  0
  4 41  1  0
  8 42  1  0
  8 43  1  0
  9 44  1  0
  9 45  1  0
 10 46  1  0
 10 47  1  0
 11 48  1  6
 14 49  1  0
 15 50  1  0
 15 51  1  0
 17 52  1  0
 18 53  1  0
 19 54  1  0
 23 55  1  0
 24 56  1  0
 25 57  1  0
 27 58  1  0
 29 59  1  0
 30 60  1  0
 32 61  1  0
 35 62  1  0
 36 63  1  0
M  END
>  <smiles>  (14) 
O=C(NCC(=O)N1CCC[C@H]1C(=O)NCc1cccc(-c2ncccn2)c1)c1ccc2cc(F)ccc2n1

>  <score_type>  (14) 
oracle

>  <origin>  (14) 
autodockgpu

>  <m_score__min__energy>  (14) 
-9.8599999999999994

>  <m_primary>  (14) 
energy

>  <rmsd>  (14) 
6.359761920136146

>  <m_score__min__rmsd>  (14) 
6.359761920136146

>  <meeko>  (14) 
{"free_energy": -5.74, "intermolecular_energy": -8.13, "internal_energy": -5.3, "cluster_size": 1, "cluster_id": 21, "rank_in_cluster": 1}

>  <energy>  (14) 
-8.83

>  <cluster_rmsd>  (14) 
1.62

>  <cluster>  (14) 
4

$$$$

     RDKit          3D

 63 67  0  0  0  0  0  0  0  0999 V2000
  140.2530   73.0810  222.7290 O   0  0  0  0  0  0  0  0  0  0  0  0
  139.9300   71.8730  222.9160 C   0  0  0  0  0  0  0  0  0  0  0  0
  139.2760   71.0990  221.8930 N   0  0  0  0  0  0  0  0  0  0  0  0
  138.9780   71.6750  220.6250 C   0  0  0  0  0  0  0  0  0  0  0  0
  140.1160   72.0070  219.8010 C   0  0  0  0  0  0  0  0  0  0  0  0
  139.8710   72.9400  218.9160 O   0  0  0  0  0  0  0  0  0  0  0  0
  141.4300   71.5030  219.7790 N   0  0  0  0  0  0  0  0  0  0  0  0
  142.0930   70.6020  218.8480 C   0  0  0  0  0  0  0  0  0  0  0  0
  143.5800   70.9760  219.0150 C   0  0  0  0  0  0  0  0  0  0  0  0
  143.6710   71.1400  220.5380 C   0  0  0  0  0  0  0  0  0  0  0  0
  142.3920   71.8860  220.8440 C   0  0  1  0  0  0  0  0  0  0  0  0
  142.6120   73.3630  220.6550 C   0  0  0  0  0  0  0  0  0  0  0  0
  143.8400   73.6880  220.5080 O   0  0  0  0  0  0  0  0  0  0  0  0
  141.5910   74.3140  220.6360 N   0  0  0  0  0  0  0  0  0  0  0  0
  141.7850   75.7440  220.4570 C   0  0  0  0  0  0  0  0  0  0  0  0
  140.9120   76.5580  221.3380 C   0  0  0  0  0  0  0  0  0  0  0  0
  141.3940   77.7410  221.8850 C   0  0  0  0  0  0  0  0  0  0  0  0
  140.6300   78.5400  222.7090 C   0  0  0  0  0  0  0  0  0  0  0  0
  139.3200   78.1560  223.0130 C   0  0  0  0  0  0  0  0  0  0  0  0
  138.8180   76.9850  222.4820 C   0  0  0  0  0  0  0  0  0  0  0  0
  137.4550   76.5590  222.7830 C   0  0  0  0  0  0  0  0  0  0  0  0
  136.4930   77.4470  223.0870 N   0  0  0  0  0  0  0  0  0  0  0  0
  135.2260   77.0250  223.3660 C   0  0  0  0  0  0  0  0  0  0  0  0
  134.8860   75.6830  223.3480 C   0  0  0  0  0  0  0  0  0  0  0  0
  135.8930   74.7850  223.0320 C   0  0  0  0  0  0  0  0  0  0  0  0
  137.1430   75.2510  222.7610 N   0  0  0  0  0  0  0  0  0  0  0  0
  139.6180   76.2190  221.6640 C   0  0  0  0  0  0  0  0  0  0  0  0
  140.2190   71.2170  224.2020 C   0  0  0  0  0  0  0  0  0  0  0  0
  140.7860   71.9700  225.2160 C   0  0  0  0  0  0  0  0  0  0  0  0
  141.0700   71.3920  226.4280 C   0  0  0  0  0  0  0  0  0  0  0  0
  140.7920   70.0640  226.6380 C   0  0  0  0  0  0  0  0  0  0  0  0
  141.0830   69.5140  227.8480 C   0  0  0  0  0  0  0  0  0  0  0  0
  140.8050   68.1820  228.0590 C   0  0  0  0  0  0  0  0  0  0  0  0
  141.0770   67.5840  229.2530 F   0  0  0  0  0  0  0  0  0  0  0  0
  140.2400   67.4570  227.0270 C   0  0  0  0  0  0  0  0  0  0  0  0
  139.9410   68.0050  225.7960 C   0  0  0  0  0  0  0  0  0  0  0  0
  140.2260   69.3410  225.6020 C   0  0  0  0  0  0  0  0  0  0  0  0
  139.9450   69.9050  224.4070 N   0  0  0  0  0  0  0  0  0  0  0  0
  139.0350   70.0920  222.1320 H   0  0  0  0  0  0  0  0  0  0  0  0
  138.3554   70.9597  220.0677 H   0  0  0  0  0  0  0  0  0  0  0  0
  138.4781   72.6306  220.8418 H   0  0  0  0  0  0  0  0  0  0  0  0
  141.9156   69.5508  219.1189 H   0  0  0  0  0  0  0  0  0  0  0  0
  141.7318   70.6999  217.8136 H   0  0  0  0  0  0  0  0  0  0  0  0
  144.2412   70.1741  218.6548 H   0  0  0  0  0  0  0  0  0  0  0  0
  143.8915   71.8630  218.4438 H   0  0  0  0  0  0  0  0  0  0  0  0
  143.6971   70.1643  221.0453 H   0  0  0  0  0  0  0  0  0  0  0  0
  144.5809   71.6566  220.8775 H   0  0  0  0  0  0  0  0  0  0  0  0
  142.0549   71.6609  221.8666 H   0  0  0  0  0  0  0  0  0  0  0  0
  140.5830   74.0170  220.7490 H   0  0  0  0  0  0  0  0  0  0  0  0
  142.8343   75.9869  220.6807 H   0  0  0  0  0  0  0  0  0  0  0  0
  141.5227   75.9858  219.4165 H   0  0  0  0  0  0  0  0  0  0  0  0
  142.4232   78.0515  221.6520 H   0  0  0  0  0  0  0  0  0  0  0  0
  141.0466   79.4700  223.1231 H   0  0  0  0  0  0  0  0  0  0  0  0
  138.6960   78.7809  223.6687 H   0  0  0  0  0  0  0  0  0  0  0  0
  134.4548   77.7700  223.6115 H   0  0  0  0  0  0  0  0  0  0  0  0
  133.8638   75.3452  223.5741 H   0  0  0  0  0  0  0  0  0  0  0  0
  135.6842   73.7055  223.0004 H   0  0  0  0  0  0  0  0  0  0  0  0
  139.2020   75.2887  221.2498 H   0  0  0  0  0  0  0  0  0  0  0  0
  141.0094   73.0342  225.0499 H   0  0  0  0  0  0  0  0  0  0  0  0
  141.5206   71.9931  227.2315 H   0  0  0  0  0  0  0  0  0  0  0  0
  141.5332   70.1238  228.6451 H   0  0  0  0  0  0  0  0  0  0  0  0
  140.0181   66.3927  227.1946 H   0  0  0  0  0  0  0  0  0  0  0  0
  139.4909   67.3975  224.9970 H   0  0  0  0  0  0  0  0  0  0  0  0
  1  2  2  0
  2  3  1  0
  3  4  1  0
  4  5  1  0
  5  6  2  0
  5  7  1  0
  7  8  1  0
  8  9  1  0
  9 10  1  0
 10 11  1  0
 11 12  1  0
 12 13  2  0
 12 14  1  0
 14 15  1  0
 15 16  1  0
 16 17  2  0
 17 18  1  0
 18 19  2  0
 19 20  1  0
 20 21  1  0
 21 22  2  0
 22 23  1  0
 23 24  2  0
 24 25  1  0
 25 26  2  0
 20 27  2  0
  2 28  1  0
 28 29  2  0
 29 30  1  0
 30 31  2  0
 31 32  1  0
 32 33  2  0
 33 34  1  0
 33 35  1  0
 35 36  2  0
 36 37  1  0
 37 38  2  0
 11  7  1  0
 27 16  1  0
 38 28  1  0
 26 21  1  0
 37 31  1  0
  3 39  1  0
  4 40  1  0
  4 41  1  0
  8 42  1  0
  8 43  1  0
  9 44  1  0
  9 45  1  0
 10 46  1  0
 10 47  1  0
 11 48  1  1
 14 49  1  0
 15 50  1  0
 15 51  1  0
 17 52  1  0
 18 53  1  0
 19 54  1  0
 23 55  1  0
 24 56  1  0
 25 57  1  0
 27 58  1  0
 29 59  1  0
 30 60  1  0
 32 61  1  0
 35 62  1  0
 36 63  1  0
M  END
>  <smiles>  (15) 
O=C(NCC(=O)N1CCC[C@H]1C(=O)NCc1cccc(-c2ncccn2)c1)c1ccc2cc(F)ccc2n1

>  <score_type>  (15) 
oracle

>  <origin>  (15) 
autodockgpu

>  <m_score__min__energy>  (15) 
-9.8599999999999994

>  <m_primary>  (15) 
energy

>  <rmsd>  (15) 
4.530209481021734

>  <m_score__min__rmsd>  (15) 
4.530209481021734

>  <meeko>  (15) 
{"free_energy": -7.49, "intermolecular_energy": -9.87, "internal_energy": -3.98, "cluster_size": 1, "cluster_id": 14, "rank_in_cluster": 1}

>  <energy>  (15) 
-8.82

>  <cluster_rmsd>  (15) 
0.0

>  <cluster>  (15) 
5

$$$$

     RDKit          3D

 63 67  0  0  0  0  0  0  0  0999 V2000
  138.5120   76.6460  220.3990 O   0  0  0  0  0  0  0  0  0  0  0  0
  138.9580   77.8280  220.3560 C   0  0  0  0  0  0  0  0  0  0  0  0
  140.0270   78.2010  219.4650 N   0  0  0  0  0  0  0  0  0  0  0  0
  140.6120   77.2410  218.5920 C   0  0  0  0  0  0  0  0  0  0  0  0
  141.8980   76.7240  218.9960 C   0  0  0  0  0  0  0  0  0  0  0  0
  142.8620   77.6090  218.9410 O   0  0  0  0  0  0  0  0  0  0  0  0
  142.2950   75.4450  219.4270 N   0  0  0  0  0  0  0  0  0  0  0  0
  143.5830   74.7690  219.3590 C   0  0  0  0  0  0  0  0  0  0  0  0
  143.4950   73.7570  220.5200 C   0  0  0  0  0  0  0  0  0  0  0  0
  142.0540   73.2550  220.3630 C   0  0  0  0  0  0  0  0  0  0  0  0
  141.3110   74.5380  220.0720 C   0  0  1  0  0  0  0  0  0  0  0  0
  140.9500   75.2160  221.3670 C   0  0  0  0  0  0  0  0  0  0  0  0
  140.1330   74.5490  222.0890 O   0  0  0  0  0  0  0  0  0  0  0  0
  141.4460   76.4560  221.7710 N   0  0  0  0  0  0  0  0  0  0  0  0
  141.1080   77.1270  223.0160 C   0  0  0  0  0  0  0  0  0  0  0  0
  141.4650   78.5660  223.0100 C   0  0  0  0  0  0  0  0  0  0  0  0
  141.9800   79.1550  224.1590 C   0  0  0  0  0  0  0  0  0  0  0  0
  142.3330   80.4870  224.2130 C   0  0  0  0  0  0  0  0  0  0  0  0
  142.1690   81.2860  223.0760 C   0  0  0  0  0  0  0  0  0  0  0  0
  141.6590   80.7250  221.9240 C   0  0  0  0  0  0  0  0  0  0  0  0
  141.4760   81.5350  220.7230 C   0  0  0  0  0  0  0  0  0  0  0  0
  141.1930   82.8470  220.7990 N   0  0  0  0  0  0  0  0  0  0  0  0
  141.0260   83.5840  219.6630 C   0  0  0  0  0  0  0  0  0  0  0  0
  141.1390   83.0180  218.4050 C   0  0  0  0  0  0  0  0  0  0  0  0
  141.4310   81.6640  218.3510 C   0  0  0  0  0  0  0  0  0  0  0  0
  141.5900   80.9670  219.5100 N   0  0  0  0  0  0  0  0  0  0  0  0
  141.3210   79.3890  221.9160 C   0  0  0  0  0  0  0  0  0  0  0  0
  138.3900   78.8700  221.2280 C   0  0  0  0  0  0  0  0  0  0  0  0
  137.6890   78.4770  222.3560 C   0  0  0  0  0  0  0  0  0  0  0  0
  137.1430   79.4200  223.1920 C   0  0  0  0  0  0  0  0  0  0  0  0
  137.2910   80.7550  222.9110 C   0  0  0  0  0  0  0  0  0  0  0  0
  136.7420   81.6700  223.7550 C   0  0  0  0  0  0  0  0  0  0  0  0
  136.8900   83.0100  223.4730 C   0  0  0  0  0  0  0  0  0  0  0  0
  136.3580   83.9650  224.2870 F   0  0  0  0  0  0  0  0  0  0  0  0
  137.5950   83.3690  222.3400 C   0  0  0  0  0  0  0  0  0  0  0  0
  138.1560   82.4500  221.4780 C   0  0  0  0  0  0  0  0  0  0  0  0
  137.9980   81.1120  221.7750 C   0  0  0  0  0  0  0  0  0  0  0  0
  138.5360   80.1880  220.9490 N   0  0  0  0  0  0  0  0  0  0  0  0
  140.3460   79.2150  219.4950 H   0  0  0  0  0  0  0  0  0  0  0  0
  139.9176   76.3918  218.5106 H   0  0  0  0  0  0  0  0  0  0  0  0
  140.7876   77.7688  217.6430 H   0  0  0  0  0  0  0  0  0  0  0  0
  143.7116   74.2562  218.3944 H   0  0  0  0  0  0  0  0  0  0  0  0
  144.4405   75.4532  219.4397 H   0  0  0  0  0  0  0  0  0  0  0  0
  144.2224   72.9406  220.4001 H   0  0  0  0  0  0  0  0  0  0  0  0
  143.7219   74.1813  221.5092 H   0  0  0  0  0  0  0  0  0  0  0  0
  141.9663   72.5431  219.5290 H   0  0  0  0  0  0  0  0  0  0  0  0
  141.6742   72.7086  221.2389 H   0  0  0  0  0  0  0  0  0  0  0  0
  140.4162   74.3309  219.4667 H   0  0  0  0  0  0  0  0  0  0  0  0
  142.1290   76.9830  221.1590 H   0  0  0  0  0  0  0  0  0  0  0  0
  140.0245   77.0347  223.1818 H   0  0  0  0  0  0  0  0  0  0  0  0
  141.6868   76.6462  223.8184 H   0  0  0  0  0  0  0  0  0  0  0  0
  142.1108   78.5356  225.0586 H   0  0  0  0  0  0  0  0  0  0  0  0
  142.7393   80.9170  225.1404 H   0  0  0  0  0  0  0  0  0  0  0  0
  142.4441   82.3508  223.1008 H   0  0  0  0  0  0  0  0  0  0  0  0
  140.7955   84.6561  219.7492 H   0  0  0  0  0  0  0  0  0  0  0  0
  141.0035   83.6147  217.4909 H   0  0  0  0  0  0  0  0  0  0  0  0
  141.5334   81.1569  217.3802 H   0  0  0  0  0  0  0  0  0  0  0  0
  140.9156   78.9585  220.9885 H   0  0  0  0  0  0  0  0  0  0  0  0
  137.5693   77.4073  222.5828 H   0  0  0  0  0  0  0  0  0  0  0  0
  136.5868   79.1050  224.0872 H   0  0  0  0  0  0  0  0  0  0  0  0
  136.1887   81.3448  224.6484 H   0  0  0  0  0  0  0  0  0  0  0  0
  137.7145   84.4390  222.1148 H   0  0  0  0  0  0  0  0  0  0  0  0
  138.7104   82.7728  220.5844 H   0  0  0  0  0  0  0  0  0  0  0  0
  1  2  2  0
  2  3  1  0
  3  4  1  0
  4  5  1  0
  5  6  2  0
  5  7  1  0
  7  8  1  0
  8  9  1  0
  9 10  1  0
 10 11  1  0
 11 12  1  0
 12 13  2  0
 12 14  1  0
 14 15  1  0
 15 16  1  0
 16 17  2  0
 17 18  1  0
 18 19  2  0
 19 20  1  0
 20 21  1  0
 21 22  2  0
 22 23  1  0
 23 24  2  0
 24 25  1  0
 25 26  2  0
 20 27  2  0
  2 28  1  0
 28 29  2  0
 29 30  1  0
 30 31  2  0
 31 32  1  0
 32 33  2  0
 33 34  1  0
 33 35  1  0
 35 36  2  0
 36 37  1  0
 37 38  2  0
 11  7  1  0
 27 16  1  0
 38 28  1  0
 26 21  1  0
 37 31  1  0
  3 39  1  0
  4 40  1  0
  4 41  1  0
  8 42  1  0
  8 43  1  0
  9 44  1  0
  9 45  1  0
 10 46  1  0
 10 47  1  0
 11 48  1  6
 14 49  1  0
 15 50  1  0
 15 51  1  0
 17 52  1  0
 18 53  1  0
 19 54  1  0
 23 55  1  0
 24 56  1  0
 25 57  1  0
 27 58  1  0
 29 59  1  0
 30 60  1  0
 32 61  1  0
 35 62  1  0
 36 63  1  0
M  END
>  <smiles>  (16) 
O=C(NCC(=O)N1CCC[C@H]1C(=O)NCc1cccc(-c2ncccn2)c1)c1ccc2cc(F)ccc2n1

>  <score_type>  (16) 
oracle

>  <origin>  (16) 
autodockgpu

>  <m_score__min__energy>  (16) 
-9.8599999999999994

>  <m_primary>  (16) 
energy

>  <rmsd>  (16) 
8.010980872185161

>  <m_score__min__rmsd>  (16) 
8.010980872185161

>  <meeko>  (16) 
{"free_energy": -6.1, "intermolecular_energy": -8.48, "internal_energy": -5.45, "cluster_size": 2, "cluster_id": 18, "rank_in_cluster": 1}

>  <energy>  (16) 
-8.7

>  <cluster_rmsd>  (16) 
0.0

>  <cluster>  (16) 
6

$$$$

     RDKit          3D

 63 67  0  0  0  0  0  0  0  0999 V2000
  137.2060   70.3190  221.9080 O   0  0  0  0  0  0  0  0  0  0  0  0
  137.8980   71.0580  222.6660 C   0  0  0  0  0  0  0  0  0  0  0  0
  138.0540   72.4670  222.4110 N   0  0  0  0  0  0  0  0  0  0  0  0
  137.4210   73.0760  221.2910 C   0  0  0  0  0  0  0  0  0  0  0  0
  136.2030   73.8000  221.5720 C   0  0  0  0  0  0  0  0  0  0  0  0
  135.6620   74.3510  220.5140 O   0  0  0  0  0  0  0  0  0  0  0  0
  135.5060   74.0190  222.7740 N   0  0  0  0  0  0  0  0  0  0  0  0
  135.4950   73.2720  224.0240 C   0  0  0  0  0  0  0  0  0  0  0  0
  135.0850   74.3440  225.0550 C   0  0  0  0  0  0  0  0  0  0  0  0
  133.9860   75.0870  224.2840 C   0  0  0  0  0  0  0  0  0  0  0  0
  134.5890   75.1820  222.9020 C   0  0  1  0  0  0  0  0  0  0  0  0
  135.4830   76.3900  222.8230 C   0  0  0  0  0  0  0  0  0  0  0  0
  135.6530   76.9810  223.9450 O   0  0  0  0  0  0  0  0  0  0  0  0
  136.0870   76.8480  221.6520 N   0  0  0  0  0  0  0  0  0  0  0  0
  136.9510   78.0130  221.5570 C   0  0  0  0  0  0  0  0  0  0  0  0
  138.3530   77.7240  221.9450 C   0  0  0  0  0  0  0  0  0  0  0  0
  139.0930   78.6820  222.6270 C   0  0  0  0  0  0  0  0  0  0  0  0
  140.3990   78.4700  223.0160 C   0  0  0  0  0  0  0  0  0  0  0  0
  141.0120   77.2480  222.7190 C   0  0  0  0  0  0  0  0  0  0  0  0
  140.2980   76.2800  222.0430 C   0  0  0  0  0  0  0  0  0  0  0  0
  140.9130   74.9970  221.7180 C   0  0  0  0  0  0  0  0  0  0  0  0
  141.9490   74.9110  220.8660 N   0  0  0  0  0  0  0  0  0  0  0  0
  142.5080   73.7000  220.5770 C   0  0  0  0  0  0  0  0  0  0  0  0
  142.0360   72.5280  221.1420 C   0  0  0  0  0  0  0  0  0  0  0  0
  140.9670   72.6400  222.0180 C   0  0  0  0  0  0  0  0  0  0  0  0
  140.4410   73.8690  222.2770 N   0  0  0  0  0  0  0  0  0  0  0  0
  138.9960   76.5370  221.6740 C   0  0  0  0  0  0  0  0  0  0  0  0
  138.5710   70.4900  223.8460 C   0  0  0  0  0  0  0  0  0  0  0  0
  138.5220   69.1190  224.0380 C   0  0  0  0  0  0  0  0  0  0  0  0
  139.1370   68.5540  225.1280 C   0  0  0  0  0  0  0  0  0  0  0  0
  139.8020   69.3470  226.0300 C   0  0  0  0  0  0  0  0  0  0  0  0
  140.4040   68.7630  227.1010 C   0  0  0  0  0  0  0  0  0  0  0  0
  141.0710   69.5580  228.0060 C   0  0  0  0  0  0  0  0  0  0  0  0
  141.6900   69.0210  229.0960 F   0  0  0  0  0  0  0  0  0  0  0  0
  141.1010   70.9210  227.7860 C   0  0  0  0  0  0  0  0  0  0  0  0
  140.4940   71.5240  226.7030 C   0  0  0  0  0  0  0  0  0  0  0  0
  139.8300   70.7130  225.8060 C   0  0  0  0  0  0  0  0  0  0  0  0
  139.2260   71.2740  224.7360 N   0  0  0  0  0  0  0  0  0  0  0  0
  138.6550   73.0150  223.0940 H   0  0  0  0  0  0  0  0  0  0  0  0
  138.1361   73.7807  220.8416 H   0  0  0  0  0  0  0  0  0  0  0  0
  137.1295   72.2487  220.6273 H   0  0  0  0  0  0  0  0  0  0  0  0
  134.7616   72.4528  223.9903 H   0  0  0  0  0  0  0  0  0  0  0  0
  136.4569   72.7903  224.2536 H   0  0  0  0  0  0  0  0  0  0  0  0
  134.6944   73.8890  225.9772 H   0  0  0  0  0  0  0  0  0  0  0  0
  135.9117   74.9845  225.3961 H   0  0  0  0  0  0  0  0  0  0  0  0
  133.0471   74.5140  224.2729 H   0  0  0  0  0  0  0  0  0  0  0  0
  133.7156   76.0600  224.7201 H   0  0  0  0  0  0  0  0  0  0  0  0
  133.7945   75.2236  222.1424 H   0  0  0  0  0  0  0  0  0  0  0  0
  135.9380   76.3340  220.7390 H   0  0  0  0  0  0  0  0  0  0  0  0
  136.9415   78.3734  220.5178 H   0  0  0  0  0  0  0  0  0  0  0  0
  136.5640   78.7693  222.2557 H   0  0  0  0  0  0  0  0  0  0  0  0
  138.6194   79.6457  222.8656 H   0  0  0  0  0  0  0  0  0  0  0  0
  140.9528   79.2534  223.5541 H   0  0  0  0  0  0  0  0  0  0  0  0
  142.0529   77.0608  223.0214 H   0  0  0  0  0  0  0  0  0  0  0  0
  143.3554   73.6542  219.8771 H   0  0  0  0  0  0  0  0  0  0  0  0
  142.4879   71.5530  220.9070 H   0  0  0  0  0  0  0  0  0  0  0  0
  140.5477   71.7442  222.4993 H   0  0  0  0  0  0  0  0  0  0  0  0
  138.4418   75.7542  221.1354 H   0  0  0  0  0  0  0  0  0  0  0  0
  137.9897   68.4820  223.3163 H   0  0  0  0  0  0  0  0  0  0  0  0
  139.0968   67.4651  225.2786 H   0  0  0  0  0  0  0  0  0  0  0  0
  140.3587   67.6730  227.2418 H   0  0  0  0  0  0  0  0  0  0  0  0
  141.6342   71.5565  228.5084 H   0  0  0  0  0  0  0  0  0  0  0  0
  140.5382   72.6138  226.5600 H   0  0  0  0  0  0  0  0  0  0  0  0
  1  2  2  0
  2  3  1  0
  3  4  1  0
  4  5  1  0
  5  6  2  0
  5  7  1  0
  7  8  1  0
  8  9  1  0
  9 10  1  0
 10 11  1  0
 11 12  1  0
 12 13  2  0
 12 14  1  0
 14 15  1  0
 15 16  1  0
 16 17  2  0
 17 18  1  0
 18 19  2  0
 19 20  1  0
 20 21  1  0
 21 22  2  0
 22 23  1  0
 23 24  2  0
 24 25  1  0
 25 26  2  0
 20 27  2  0
  2 28  1  0
 28 29  2  0
 29 30  1  0
 30 31  2  0
 31 32  1  0
 32 33  2  0
 33 34  1  0
 33 35  1  0
 35 36  2  0
 36 37  1  0
 37 38  2  0
 11  7  1  0
 27 16  1  0
 38 28  1  0
 26 21  1  0
 37 31  1  0
  3 39  1  0
  4 40  1  0
  4 41  1  0
  8 42  1  0
  8 43  1  0
  9 44  1  0
  9 45  1  0
 10 46  1  0
 10 47  1  0
 11 48  1  6
 14 49  1  0
 15 50  1  0
 15 51  1  0
 17 52  1  0
 18 53  1  0
 19 54  1  0
 23 55  1  0
 24 56  1  0
 25 57  1  0
 27 58  1  0
 29 59  1  0
 30 60  1  0
 32 61  1  0
 35 62  1  0
 36 63  1  0
M  END
>  <smiles>  (17) 
O=C(NCC(=O)N1CCC[C@H]1C(=O)NCc1cccc(-c2ncccn2)c1)c1ccc2cc(F)ccc2n1

>  <score_type>  (17) 
oracle

>  <origin>  (17) 
autodockgpu

>  <m_score__min__energy>  (17) 
-9.8599999999999994

>  <m_primary>  (17) 
energy

>  <rmsd>  (17) 
4.940633883632881

>  <m_score__min__rmsd>  (17) 
4.940633883632881

>  <meeko>  (17) 
{"free_energy": -7.88, "intermolecular_energy": -10.27, "internal_energy": -4.45, "cluster_size": 6, "cluster_id": 8, "rank_in_cluster": 5}

>  <energy>  (17) 
-7.79

>  <cluster_rmsd>  (17) 
1.46

>  <cluster>  (17) 
6

$$$$

     RDKit          3D

 63 67  0  0  0  0  0  0  0  0999 V2000
  141.6750   72.1590  220.8270 O   0  0  0  0  0  0  0  0  0  0  0  0
  141.9880   73.3710  221.0010 C   0  0  0  0  0  0  0  0  0  0  0  0
  143.3490   73.8260  220.8730 N   0  0  0  0  0  0  0  0  0  0  0  0
  144.3900   72.9150  220.5370 C   0  0  0  0  0  0  0  0  0  0  0  0
  145.0210   73.1250  219.2550 C   0  0  0  0  0  0  0  0  0  0  0  0
  146.3190   73.2760  219.3250 O   0  0  0  0  0  0  0  0  0  0  0  0
  144.4870   73.2020  217.9550 N   0  0  0  0  0  0  0  0  0  0  0  0
  143.9590   72.1690  217.0750 C   0  0  0  0  0  0  0  0  0  0  0  0
  143.0020   72.9610  216.1600 C   0  0  0  0  0  0  0  0  0  0  0  0
  143.8320   74.2230  215.8910 C   0  0  0  0  0  0  0  0  0  0  0  0
  144.4050   74.5120  217.2600 C   0  0  1  0  0  0  0  0  0  0  0  0
  143.4150   75.3140  218.0610 C   0  0  0  0  0  0  0  0  0  0  0  0
  143.9090   75.8380  219.1180 O   0  0  0  0  0  0  0  0  0  0  0  0
  142.0760   75.4910  217.7100 N   0  0  0  0  0  0  0  0  0  0  0  0
  141.1060   76.2610  218.4720 C   0  0  0  0  0  0  0  0  0  0  0  0
  141.4980   77.6820  218.6340 C   0  0  0  0  0  0  0  0  0  0  0  0
  141.8090   78.4440  217.5140 C   0  0  0  0  0  0  0  0  0  0  0  0
  142.1770   79.7700  217.6020 C   0  0  0  0  0  0  0  0  0  0  0  0
  142.2440   80.3810  218.8580 C   0  0  0  0  0  0  0  0  0  0  0  0
  141.9400   79.6450  219.9850 C   0  0  0  0  0  0  0  0  0  0  0  0
  142.0030   80.2570  221.3090 C   0  0  0  0  0  0  0  0  0  0  0  0
  141.2570   81.3300  221.6220 N   0  0  0  0  0  0  0  0  0  0  0  0
  141.3340   81.8850  222.8670 C   0  0  0  0  0  0  0  0  0  0  0  0
  142.1710   81.3710  223.8420 C   0  0  0  0  0  0  0  0  0  0  0  0
  142.9310   80.2640  223.4970 C   0  0  0  0  0  0  0  0  0  0  0  0
  142.8230   79.7440  222.2430 N   0  0  0  0  0  0  0  0  0  0  0  0
  141.5770   78.3240  219.8490 C   0  0  0  0  0  0  0  0  0  0  0  0
  140.9560   74.3650  221.3420 C   0  0  0  0  0  0  0  0  0  0  0  0
  139.6290   74.0420  221.1170 C   0  0  0  0  0  0  0  0  0  0  0  0
  138.6390   74.9430  221.4220 C   0  0  0  0  0  0  0  0  0  0  0  0
  138.9630   76.1670  221.9510 C   0  0  0  0  0  0  0  0  0  0  0  0
  137.9650   77.0430  222.2460 C   0  0  0  0  0  0  0  0  0  0  0  0
  138.2900   78.2720  222.7760 C   0  0  0  0  0  0  0  0  0  0  0  0
  137.3260   79.1830  223.0880 F   0  0  0  0  0  0  0  0  0  0  0  0
  139.6230   78.5630  222.9890 C   0  0  0  0  0  0  0  0  0  0  0  0
  140.6440   77.6820  222.6940 C   0  0  0  0  0  0  0  0  0  0  0  0
  140.3010   76.4570  222.1620 C   0  0  0  0  0  0  0  0  0  0  0  0
  141.2790   75.5730  221.8640 N   0  0  0  0  0  0  0  0  0  0  0  0
  143.5270   74.8610  221.0400 H   0  0  0  0  0  0  0  0  0  0  0  0
  145.1672   72.9903  221.3118 H   0  0  0  0  0  0  0  0  0  0  0  0
  143.9125   71.9259  220.4759 H   0  0  0  0  0  0  0  0  0  0  0  0
  144.7628   71.6947  216.4928 H   0  0  0  0  0  0  0  0  0  0  0  0
  143.4670   71.3457  217.6137 H   0  0  0  0  0  0  0  0  0  0  0  0
  142.7863   72.4136  215.2306 H   0  0  0  0  0  0  0  0  0  0  0  0
  142.0118   73.1543  216.5983 H   0  0  0  0  0  0  0  0  0  0  0  0
  144.6275   74.0304  215.1561 H   0  0  0  0  0  0  0  0  0  0  0  0
  143.2528   75.0555  215.4650 H   0  0  0  0  0  0  0  0  0  0  0  0
  145.3652   75.0405  217.1673 H   0  0  0  0  0  0  0  0  0  0  0  0
  141.6960   75.0550  216.8240 H   0  0  0  0  0  0  0  0  0  0  0  0
  140.1382   76.2209  217.9507 H   0  0  0  0  0  0  0  0  0  0  0  0
  141.0477   75.8175  219.4769 H   0  0  0  0  0  0  0  0  0  0  0  0
  141.7598   77.9722  216.5215 H   0  0  0  0  0  0  0  0  0  0  0  0
  142.4155   80.3416  216.6930 H   0  0  0  0  0  0  0  0  0  0  0  0
  142.5361   81.4378  218.9468 H   0  0  0  0  0  0  0  0  0  0  0  0
  140.7147   82.7634  223.1012 H   0  0  0  0  0  0  0  0  0  0  0  0
  142.2305   81.8201  224.8444 H   0  0  0  0  0  0  0  0  0  0  0  0
  143.6148   79.8100  224.2293 H   0  0  0  0  0  0  0  0  0  0  0  0
  141.3378   77.7523  220.7578 H   0  0  0  0  0  0  0  0  0  0  0  0
  139.3671   73.0614  220.6930 H   0  0  0  0  0  0  0  0  0  0  0  0
  137.5853   74.6835  221.2422 H   0  0  0  0  0  0  0  0  0  0  0  0
  136.9141   76.7738  222.0640 H   0  0  0  0  0  0  0  0  0  0  0  0
  139.8837   79.5435  223.4140 H   0  0  0  0  0  0  0  0  0  0  0  0
  141.6955   77.9482  222.8771 H   0  0  0  0  0  0  0  0  0  0  0  0
  1  2  2  0
  2  3  1  0
  3  4  1  0
  4  5  1  0
  5  6  2  0
  5  7  1  0
  7  8  1  0
  8  9  1  0
  9 10  1  0
 10 11  1  0
 11 12  1  0
 12 13  2  0
 12 14  1  0
 14 15  1  0
 15 16  1  0
 16 17  2  0
 17 18  1  0
 18 19  2  0
 19 20  1  0
 20 21  1  0
 21 22  2  0
 22 23  1  0
 23 24  2  0
 24 25  1  0
 25 26  2  0
 20 27  2  0
  2 28  1  0
 28 29  2  0
 29 30  1  0
 30 31  2  0
 31 32  1  0
 32 33  2  0
 33 34  1  0
 33 35  1  0
 35 36  2  0
 36 37  1  0
 37 38  2  0
 11  7  1  0
 27 16  1  0
 38 28  1  0
 26 21  1  0
 37 31  1  0
  3 39  1  0
  4 40  1  0
  4 41  1  0
  8 42  1  0
  8 43  1  0
  9 44  1  0
  9 45  1  0
 10 46  1  0
 10 47  1  0
 11 48  1  6
 14 49  1  0
 15 50  1  0
 15 51  1  0
 17 52  1  0
 18 53  1  0
 19 54  1  0
 23 55  1  0
 24 56  1  0
 25 57  1  0
 27 58  1  0
 29 59  1  0
 30 60  1  0
 32 61  1  0
 35 62  1  0
 36 63  1  0
M  END
>  <smiles>  (18) 
O=C(NCC(=O)N1CCC[C@H]1C(=O)NCc1cccc(-c2ncccn2)c1)c1ccc2cc(F)ccc2n1

>  <score_type>  (18) 
oracle

>  <origin>  (18) 
autodockgpu

>  <m_score__min__energy>  (18) 
-9.8599999999999994

>  <m_primary>  (18) 
energy

>  <rmsd>  (18) 
6.431925471042741

>  <m_score__min__rmsd>  (18) 
6.431925471042741

>  <meeko>  (18) 
{"free_energy": -6.82, "intermolecular_energy": -9.21, "internal_energy": -4.55, "cluster_size": 2, "cluster_id": 15, "rank_in_cluster": 2}

>  <energy>  (18) 
-8.69

>  <cluster_rmsd>  (18) 
0.0

>  <cluster>  (18) 
7

$$$$

     RDKit          3D

 63 67  0  0  0  0  0  0  0  0999 V2000
  140.2030   73.4200  222.4770 O   0  0  0  0  0  0  0  0  0  0  0  0
  139.5690   72.3280  222.5390 C   0  0  0  0  0  0  0  0  0  0  0  0
  138.6780   71.9120  221.4860 N   0  0  0  0  0  0  0  0  0  0  0  0
  138.4910   72.7220  220.3300 C   0  0  0  0  0  0  0  0  0  0  0  0
  137.3160   73.5610  220.3330 C   0  0  0  0  0  0  0  0  0  0  0  0
  136.7650   73.6990  219.1540 O   0  0  0  0  0  0  0  0  0  0  0  0
  136.6690   74.2560  221.3730 N   0  0  0  0  0  0  0  0  0  0  0  0
  136.1040   73.7870  222.6300 C   0  0  0  0  0  0  0  0  0  0  0  0
  136.1600   75.0480  223.5170 C   0  0  0  0  0  0  0  0  0  0  0  0
  135.7140   76.1270  222.5220 C   0  0  0  0  0  0  0  0  0  0  0  0
  136.4670   75.7240  221.2740 C   0  0  1  0  0  0  0  0  0  0  0  0
  137.8530   76.3090  221.3110 C   0  0  0  0  0  0  0  0  0  0  0  0
  138.0060   77.3250  220.5480 O   0  0  0  0  0  0  0  0  0  0  0  0
  138.8960   75.8140  222.0950 N   0  0  0  0  0  0  0  0  0  0  0  0
  140.2410   76.3660  222.1420 C   0  0  0  0  0  0  0  0  0  0  0  0
  140.2830   77.7340  222.7110 C   0  0  0  0  0  0  0  0  0  0  0  0
  141.4950   78.4070  222.8050 C   0  0  0  0  0  0  0  0  0  0  0  0
  141.5960   79.6810  223.3220 C   0  0  0  0  0  0  0  0  0  0  0  0
  140.4420   80.3300  223.7740 C   0  0  0  0  0  0  0  0  0  0  0  0
  139.2260   79.6830  223.6930 C   0  0  0  0  0  0  0  0  0  0  0  0
  138.0070   80.3360  224.1590 C   0  0  0  0  0  0  0  0  0  0  0  0
  138.0490   81.3930  224.9880 N   0  0  0  0  0  0  0  0  0  0  0  0
  136.8960   81.9870  225.4100 C   0  0  0  0  0  0  0  0  0  0  0  0
  135.6530   81.5290  225.0080 C   0  0  0  0  0  0  0  0  0  0  0  0
  135.6320   80.4380  224.1530 C   0  0  0  0  0  0  0  0  0  0  0  0
  136.8080   79.8770  223.7570 N   0  0  0  0  0  0  0  0  0  0  0  0
  139.1740   78.4110  223.1680 C   0  0  0  0  0  0  0  0  0  0  0  0
  139.7250   71.4410  223.7030 C   0  0  0  0  0  0  0  0  0  0  0  0
  139.2940   70.1300  223.5970 C   0  0  0  0  0  0  0  0  0  0  0  0
  139.4220   69.2730  224.6630 C   0  0  0  0  0  0  0  0  0  0  0  0
  139.9790   69.7160  225.8370 C   0  0  0  0  0  0  0  0  0  0  0  0
  140.0960   68.8480  226.8780 C   0  0  0  0  0  0  0  0  0  0  0  0
  140.6540   69.2920  228.0560 C   0  0  0  0  0  0  0  0  0  0  0  0
  140.7930   68.4620  229.1280 F   0  0  0  0  0  0  0  0  0  0  0  0
  141.0740   70.6060  228.1300 C   0  0  0  0  0  0  0  0  0  0  0  0
  140.9610   71.4940  227.0800 C   0  0  0  0  0  0  0  0  0  0  0  0
  140.3990   71.0330  225.9080 C   0  0  0  0  0  0  0  0  0  0  0  0
  140.2750   71.8800  224.8620 N   0  0  0  0  0  0  0  0  0  0  0  0
  138.1800   70.9820  221.6180 H   0  0  0  0  0  0  0  0  0  0  0  0
  139.3710   73.3743  220.2292 H   0  0  0  0  0  0  0  0  0  0  0  0
  138.3549   72.0210  219.4933 H   0  0  0  0  0  0  0  0  0  0  0  0
  135.0682   73.4422  222.4954 H   0  0  0  0  0  0  0  0  0  0  0  0
  136.6419   72.9279  223.0573 H   0  0  0  0  0  0  0  0  0  0  0  0
  135.4681   74.9735  224.3689 H   0  0  0  0  0  0  0  0  0  0  0  0
  137.1412   75.2345  223.9779 H   0  0  0  0  0  0  0  0  0  0  0  0
  134.6263   76.0986  222.3607 H   0  0  0  0  0  0  0  0  0  0  0  0
  135.9206   77.1546  222.8557 H   0  0  0  0  0  0  0  0  0  0  0  0
  135.9199   76.0501  220.3772 H   0  0  0  0  0  0  0  0  0  0  0  0
  138.7400   74.9790  222.7250 H   0  0  0  0  0  0  0  0  0  0  0  0
  140.8688   75.7087  222.7615 H   0  0  0  0  0  0  0  0  0  0  0  0
  140.6093   76.4272  221.1073 H   0  0  0  0  0  0  0  0  0  0  0  0
  142.4082   77.9044  222.4537 H   0  0  0  0  0  0  0  0  0  0  0  0
  142.5737   80.1820  223.3785 H   0  0  0  0  0  0  0  0  0  0  0  0
  140.5035   81.3464  224.1900 H   0  0  0  0  0  0  0  0  0  0  0  0
  136.9553   82.8520  226.0870 H   0  0  0  0  0  0  0  0  0  0  0  0
  134.7246   82.0088  225.3513 H   0  0  0  0  0  0  0  0  0  0  0  0
  134.6745   80.0293  223.7978 H   0  0  0  0  0  0  0  0  0  0  0  0
  138.1965   77.9098  223.1107 H   0  0  0  0  0  0  0  0  0  0  0  0
  138.8479   69.7734  222.6569 H   0  0  0  0  0  0  0  0  0  0  0  0
  139.0782   68.2318  224.5759 H   0  0  0  0  0  0  0  0  0  0  0  0
  139.7504   67.8083  226.7803 H   0  0  0  0  0  0  0  0  0  0  0  0
  141.5197   70.9613  229.0708 H   0  0  0  0  0  0  0  0  0  0  0  0
  141.3072   72.5338  227.1745 H   0  0  0  0  0  0  0  0  0  0  0  0
  1  2  2  0
  2  3  1  0
  3  4  1  0
  4  5  1  0
  5  6  2  0
  5  7  1  0
  7  8  1  0
  8  9  1  0
  9 10  1  0
 10 11  1  0
 11 12  1  0
 12 13  2  0
 12 14  1  0
 14 15  1  0
 15 16  1  0
 16 17  2  0
 17 18  1  0
 18 19  2  0
 19 20  1  0
 20 21  1  0
 21 22  2  0
 22 23  1  0
 23 24  2  0
 24 25  1  0
 25 26  2  0
 20 27  2  0
  2 28  1  0
 28 29  2  0
 29 30  1  0
 30 31  2  0
 31 32  1  0
 32 33  2  0
 33 34  1  0
 33 35  1  0
 35 36  2  0
 36 37  1  0
 37 38  2  0
 11  7  1  0
 27 16  1  0
 38 28  1  0
 26 21  1  0
 37 31  1  0
  3 39  1  0
  4 40  1  0
  4 41  1  0
  8 42  1  0
  8 43  1  0
  9 44  1  0
  9 45  1  0
 10 46  1  0
 10 47  1  0
 11 48  1  6
 14 49  1  0
 15 50  1  0
 15 51  1  0
 17 52  1  0
 18 53  1  0
 19 54  1  0
 23 55  1  0
 24 56  1  0
 25 57  1  0
 27 58  1  0
 29 59  1  0
 30 60  1  0
 32 61  1  0
 35 62  1  0
 36 63  1  0
M  END
>  <smiles>  (19) 
O=C(NCC(=O)N1CCC[C@H]1C(=O)NCc1cccc(-c2ncccn2)c1)c1ccc2cc(F)ccc2n1

>  <score_type>  (19) 
oracle

>  <origin>  (19) 
autodockgpu

>  <m_score__min__energy>  (19) 
-9.8599999999999994

>  <m_primary>  (19) 
energy

>  <rmsd>  (19) 
3.8601393229260994

>  <m_score__min__rmsd>  (19) 
3.8601393229260994

>  <meeko>  (19) 
{"free_energy": -8.89, "intermolecular_energy": -11.28, "internal_energy": -3.14, "cluster_size": 4, "cluster_id": 3, "rank_in_cluster": 2}

>  <energy>  (19) 
-8.64

>  <cluster_rmsd>  (19) 
1.52

>  <cluster>  (19) 
7

$$$$

     RDKit          3D

 63 67  0  0  0  0  0  0  0  0999 V2000
  138.4330   77.1660  220.3700 O   0  0  0  0  0  0  0  0  0  0  0  0
  138.9520   78.3050  220.1900 C   0  0  0  0  0  0  0  0  0  0  0  0
  140.0250   78.5060  219.2500 N   0  0  0  0  0  0  0  0  0  0  0  0
  140.5310   77.4190  218.4830 C   0  0  0  0  0  0  0  0  0  0  0  0
  141.6500   76.7090  219.0580 C   0  0  0  0  0  0  0  0  0  0  0  0
  142.7540   77.4110  219.0970 O   0  0  0  0  0  0  0  0  0  0  0  0
  141.7610   75.4040  219.5740 N   0  0  0  0  0  0  0  0  0  0  0  0
  142.8320   74.4240  219.4730 C   0  0  0  0  0  0  0  0  0  0  0  0
  142.6090   73.5500  220.7240 C   0  0  0  0  0  0  0  0  0  0  0  0
  141.0810   73.4160  220.7200 C   0  0  0  0  0  0  0  0  0  0  0  0
  140.6500   74.8220  220.3690 C   0  0  1  0  0  0  0  0  0  0  0  0
  140.5890   75.6570  221.6200 C   0  0  0  0  0  0  0  0  0  0  0  0
  139.6630   75.3080  222.4300 O   0  0  0  0  0  0  0  0  0  0  0  0
  141.4500   76.7190  221.8990 N   0  0  0  0  0  0  0  0  0  0  0  0
  141.4050   77.5380  223.1010 C   0  0  0  0  0  0  0  0  0  0  0  0
  141.4820   78.9900  222.8110 C   0  0  0  0  0  0  0  0  0  0  0  0
  141.4140   79.9070  223.8530 C   0  0  0  0  0  0  0  0  0  0  0  0
  141.4820   81.2690  223.6450 C   0  0  0  0  0  0  0  0  0  0  0  0
  141.6250   81.7570  222.3420 C   0  0  0  0  0  0  0  0  0  0  0  0
  141.6940   80.8670  221.2900 C   0  0  0  0  0  0  0  0  0  0  0  0
  141.8410   81.3480  219.9200 C   0  0  0  0  0  0  0  0  0  0  0  0
  141.5230   82.6100  219.5820 N   0  0  0  0  0  0  0  0  0  0  0  0
  141.6680   83.0370  218.2950 C   0  0  0  0  0  0  0  0  0  0  0  0
  142.1400   82.2000  217.2990 C   0  0  0  0  0  0  0  0  0  0  0  0
  142.4620   80.9030  217.6700 C   0  0  0  0  0  0  0  0  0  0  0  0
  142.3010   80.5200  218.9670 N   0  0  0  0  0  0  0  0  0  0  0  0
  141.6220   79.5150  221.5460 C   0  0  0  0  0  0  0  0  0  0  0  0
  138.4670   79.4710  220.9460 C   0  0  0  0  0  0  0  0  0  0  0  0
  137.7400   79.2520  222.1030 C   0  0  0  0  0  0  0  0  0  0  0  0
  137.2700   80.3160  222.8340 C   0  0  0  0  0  0  0  0  0  0  0  0
  137.5210   81.5990  222.4180 C   0  0  0  0  0  0  0  0  0  0  0  0
  137.0450   82.6360  223.1600 C   0  0  0  0  0  0  0  0  0  0  0  0
  137.2970   83.9250  222.7420 C   0  0  0  0  0  0  0  0  0  0  0  0
  136.8420   84.9970  223.4500 F   0  0  0  0  0  0  0  0  0  0  0  0
  138.0250   84.1100  221.5830 C   0  0  0  0  0  0  0  0  0  0  0  0
  138.5120   83.0650  220.8240 C   0  0  0  0  0  0  0  0  0  0  0  0
  138.2510   81.7810  221.2560 C   0  0  0  0  0  0  0  0  0  0  0  0
  138.7150   80.7380  220.5330 N   0  0  0  0  0  0  0  0  0  0  0  0
  140.4080   79.4930  219.1620 H   0  0  0  0  0  0  0  0  0  0  0  0
  139.7126   76.6983  218.3387 H   0  0  0  0  0  0  0  0  0  0  0  0
  140.9075   77.8627  217.5495 H   0  0  0  0  0  0  0  0  0  0  0  0
  142.7404   73.8295  218.5520 H   0  0  0  0  0  0  0  0  0  0  0  0
  143.8343   74.8750  219.4280 H   0  0  0  0  0  0  0  0  0  0  0  0
  143.1005   72.5709  220.6254 H   0  0  0  0  0  0  0  0  0  0  0  0
  143.0244   73.9716  221.6512 H   0  0  0  0  0  0  0  0  0  0  0  0
  140.7440   72.6927  219.9628 H   0  0  0  0  0  0  0  0  0  0  0  0
  140.6632   73.0447  221.6674 H   0  0  0  0  0  0  0  0  0  0  0  0
  139.6789   74.8057  219.8526 H   0  0  0  0  0  0  0  0  0  0  0  0
  142.2140   76.9810  221.2170 H   0  0  0  0  0  0  0  0  0  0  0  0
  140.4619   77.3348  223.6294 H   0  0  0  0  0  0  0  0  0  0  0  0
  142.2807   77.2759  223.7129 H   0  0  0  0  0  0  0  0  0  0  0  0
  141.3018   79.5330  224.8814 H   0  0  0  0  0  0  0  0  0  0  0  0
  141.4243   81.9643  224.4954 H   0  0  0  0  0  0  0  0  0  0  0  0
  141.6819   82.8400  222.1578 H   0  0  0  0  0  0  0  0  0  0  0  0
  141.4028   84.0741  218.0418 H   0  0  0  0  0  0  0  0  0  0  0  0
  142.2544   82.5472  216.2615 H   0  0  0  0  0  0  0  0  0  0  0  0
  142.8438   80.1905  216.9239 H   0  0  0  0  0  0  0  0  0  0  0  0
  141.6793   78.8193  220.6959 H   0  0  0  0  0  0  0  0  0  0  0  0
  137.5381   78.2239  222.4380 H   0  0  0  0  0  0  0  0  0  0  0  0
  136.6922   80.1392  223.7532 H   0  0  0  0  0  0  0  0  0  0  0  0
  136.4688   82.4485  224.0780 H   0  0  0  0  0  0  0  0  0  0  0  0
  138.2262   85.1386  221.2490 H   0  0  0  0  0  0  0  0  0  0  0  0
  139.0887   83.2497  219.9057 H   0  0  0  0  0  0  0  0  0  0  0  0
  1  2  2  0
  2  3  1  0
  3  4  1  0
  4  5  1  0
  5  6  2  0
  5  7  1  0
  7  8  1  0
  8  9  1  0
  9 10  1  0
 10 11  1  0
 11 12  1  0
 12 13  2  0
 12 14  1  0
 14 15  1  0
 15 16  1  0
 16 17  2  0
 17 18  1  0
 18 19  2  0
 19 20  1  0
 20 21  1  0
 21 22  2  0
 22 23  1  0
 23 24  2  0
 24 25  1  0
 25 26  2  0
 20 27  2  0
  2 28  1  0
 28 29  2  0
 29 30  1  0
 30 31  2  0
 31 32  1  0
 32 33  2  0
 33 34  1  0
 33 35  1  0
 35 36  2  0
 36 37  1  0
 37 38  2  0
 11  7  1  0
 27 16  1  0
 38 28  1  0
 26 21  1  0
 37 31  1  0
  3 39  1  0
  4 40  1  0
  4 41  1  0
  8 42  1  0
  8 43  1  0
  9 44  1  0
  9 45  1  0
 10 46  1  0
 10 47  1  0
 11 48  1  6
 14 49  1  0
 15 50  1  0
 15 51  1  0
 17 52  1  0
 18 53  1  0
 19 54  1  0
 23 55  1  0
 24 56  1  0
 25 57  1  0
 27 58  1  0
 29 59  1  0
 30 60  1  0
 32 61  1  0
 35 62  1  0
 36 63  1  0
M  END
>  <smiles>  (20) 
O=C(NCC(=O)N1CCC[C@H]1C(=O)NCc1cccc(-c2ncccn2)c1)c1ccc2cc(F)ccc2n1

>  <score_type>  (20) 
oracle

>  <origin>  (20) 
autodockgpu

>  <m_score__min__energy>  (20) 
-9.8599999999999994

>  <m_primary>  (20) 
energy

>  <rmsd>  (20) 
8.369717601740668

>  <m_score__min__rmsd>  (20) 
8.369717601740668

>  <meeko>  (20) 
{"free_energy": -5.57, "intermolecular_energy": -7.96, "internal_energy": -6.06, "cluster_size": 2, "cluster_id": 18, "rank_in_cluster": 2}

>  <energy>  (20) 
-8.54

>  <cluster_rmsd>  (20) 
0.0

>  <cluster>  (20) 
8

$$$$

     RDKit          3D

 63 67  0  0  0  0  0  0  0  0999 V2000
  139.3620   70.5030  221.2970 O   0  0  0  0  0  0  0  0  0  0  0  0
  139.0750   71.2140  222.3030 C   0  0  0  0  0  0  0  0  0  0  0  0
  138.2460   72.3860  222.1880 N   0  0  0  0  0  0  0  0  0  0  0  0
  137.7150   72.7780  220.9270 C   0  0  0  0  0  0  0  0  0  0  0  0
  136.7990   73.8950  220.9490 C   0  0  0  0  0  0  0  0  0  0  0  0
  136.3310   74.2150  219.7690 O   0  0  0  0  0  0  0  0  0  0  0  0
  136.3310   74.6960  222.0080 N   0  0  0  0  0  0  0  0  0  0  0  0
  135.8620   74.3420  223.3400 C   0  0  0  0  0  0  0  0  0  0  0  0
  136.1260   75.6320  224.1440 C   0  0  0  0  0  0  0  0  0  0  0  0
  135.6770   76.7010  223.1400 C   0  0  0  0  0  0  0  0  0  0  0  0
  136.2540   76.1700  221.8470 C   0  0  1  0  0  0  0  0  0  0  0  0
  137.6840   76.6210  221.7120 C   0  0  0  0  0  0  0  0  0  0  0  0
  137.8480   77.5770  220.8790 O   0  0  0  0  0  0  0  0  0  0  0  0
  138.7540   76.0680  222.4170 N   0  0  0  0  0  0  0  0  0  0  0  0
  140.1410   76.4890  222.2970 C   0  0  0  0  0  0  0  0  0  0  0  0
  140.3550   77.8930  222.7240 C   0  0  0  0  0  0  0  0  0  0  0  0
  141.6330   78.4360  222.6930 C   0  0  0  0  0  0  0  0  0  0  0  0
  141.8940   79.7350  223.0750 C   0  0  0  0  0  0  0  0  0  0  0  0
  140.8400   80.5460  223.5120 C   0  0  0  0  0  0  0  0  0  0  0  0
  139.5620   80.0290  223.5520 C   0  0  0  0  0  0  0  0  0  0  0  0
  138.4440   80.8500  224.0060 C   0  0  0  0  0  0  0  0  0  0  0  0
  137.8820   81.7730  223.2060 N   0  0  0  0  0  0  0  0  0  0  0  0
  136.8380   82.5300  223.6520 C   0  0  0  0  0  0  0  0  0  0  0  0
  136.3240   82.3800  224.9290 C   0  0  0  0  0  0  0  0  0  0  0  0
  136.9180   81.4220  225.7360 C   0  0  0  0  0  0  0  0  0  0  0  0
  137.9580   80.6900  225.2490 N   0  0  0  0  0  0  0  0  0  0  0  0
  139.3490   78.7250  223.1610 C   0  0  0  0  0  0  0  0  0  0  0  0
  139.5870   70.8570  223.6360 C   0  0  0  0  0  0  0  0  0  0  0  0
  140.3120   71.8030  224.3400 C   0  0  0  0  0  0  0  0  0  0  0  0
  140.8060   71.5050  225.5870 C   0  0  0  0  0  0  0  0  0  0  0  0
  140.5830   70.2680  226.1370 C   0  0  0  0  0  0  0  0  0  0  0  0
  141.0830   69.9980  227.3730 C   0  0  0  0  0  0  0  0  0  0  0  0
  140.8590   68.7560  227.9260 C   0  0  0  0  0  0  0  0  0  0  0  0
  141.3390   68.4370  229.1610 F   0  0  0  0  0  0  0  0  0  0  0  0
  140.1320   67.8340  227.1980 C   0  0  0  0  0  0  0  0  0  0  0  0
  139.6210   68.0980  225.9430 C   0  0  0  0  0  0  0  0  0  0  0  0
  139.8550   69.3460  225.4040 C   0  0  0  0  0  0  0  0  0  0  0  0
  139.3660   69.6340  224.1780 N   0  0  0  0  0  0  0  0  0  0  0  0
  138.0570   72.9300  223.0810 H   0  0  0  0  0  0  0  0  0  0  0  0
  138.5588   73.0467  220.2745 H   0  0  0  0  0  0  0  0  0  0  0  0
  137.1286   71.9185  220.5702 H   0  0  0  0  0  0  0  0  0  0  0  0
  134.7907   74.0924  223.3304 H   0  0  0  0  0  0  0  0  0  0  0  0
  136.3616   73.4559  223.7585 H   0  0  0  0  0  0  0  0  0  0  0  0
  135.5244   75.6644  225.0644 H   0  0  0  0  0  0  0  0  0  0  0  0
  137.1634   75.7446  224.4920 H   0  0  0  0  0  0  0  0  0  0  0  0
  134.5802   76.7696  223.0912 H   0  0  0  0  0  0  0  0  0  0  0  0
  136.0101   77.7184  223.3927 H   0  0  0  0  0  0  0  0  0  0  0  0
  135.6475   76.5045  220.9924 H   0  0  0  0  0  0  0  0  0  0  0  0
  138.5890   75.2840  223.1080 H   0  0  0  0  0  0  0  0  0  0  0  0
  140.7629   75.8326  222.9234 H   0  0  0  0  0  0  0  0  0  0  0  0
  140.4169   76.4206  221.2343 H   0  0  0  0  0  0  0  0  0  0  0  0
  142.4678   77.8065  222.3511 H   0  0  0  0  0  0  0  0  0  0  0  0
  142.9199   80.1299  223.0367 H   0  0  0  0  0  0  0  0  0  0  0  0
  141.0291   81.5848  223.8203 H   0  0  0  0  0  0  0  0  0  0  0  0
  136.3933   83.2786  222.9798 H   0  0  0  0  0  0  0  0  0  0  0  0
  135.4833   82.9926  225.2866 H   0  0  0  0  0  0  0  0  0  0  0  0
  136.5527   81.2547  226.7600 H   0  0  0  0  0  0  0  0  0  0  0  0
  138.3235   78.3289  223.2000 H   0  0  0  0  0  0  0  0  0  0  0  0
  140.4929   72.7950  223.9004 H   0  0  0  0  0  0  0  0  0  0  0  0
  141.3808   72.2589  226.1449 H   0  0  0  0  0  0  0  0  0  0  0  0
  141.6569   70.7590  227.9221 H   0  0  0  0  0  0  0  0  0  0  0  0
  139.9518   66.8426  227.6392 H   0  0  0  0  0  0  0  0  0  0  0  0
  139.0468   67.3389  225.3916 H   0  0  0  0  0  0  0  0  0  0  0  0
  1  2  2  0
  2  3  1  0
  3  4  1  0
  4  5  1  0
  5  6  2  0
  5  7  1  0
  7  8  1  0
  8  9  1  0
  9 10  1  0
 10 11  1  0
 11 12  1  0
 12 13  2  0
 12 14  1  0
 14 15  1  0
 15 16  1  0
 16 17  2  0
 17 18  1  0
 18 19  2  0
 19 20  1  0
 20 21  1  0
 21 22  2  0
 22 23  1  0
 23 24  2  0
 24 25  1  0
 25 26  2  0
 20 27  2  0
  2 28  1  0
 28 29  2  0
 29 30  1  0
 30 31  2  0
 31 32  1  0
 32 33  2  0
 33 34  1  0
 33 35  1  0
 35 36  2  0
 36 37  1  0
 37 38  2  0
 11  7  1  0
 27 16  1  0
 38 28  1  0
 26 21  1  0
 37 31  1  0
  3 39  1  0
  4 40  1  0
  4 41  1  0
  8 42  1  0
  8 43  1  0
  9 44  1  0
  9 45  1  0
 10 46  1  0
 10 47  1  0
 11 48  1  6
 14 49  1  0
 15 50  1  0
 15 51  1  0
 17 52  1  0
 18 53  1  0
 19 54  1  0
 23 55  1  0
 24 56  1  0
 25 57  1  0
 27 58  1  0
 29 59  1  0
 30 60  1  0
 32 61  1  0
 35 62  1  0
 36 63  1  0
M  END
>  <smiles>  (21) 
O=C(NCC(=O)N1CCC[C@H]1C(=O)NCc1cccc(-c2ncccn2)c1)c1ccc2cc(F)ccc2n1

>  <score_type>  (21) 
oracle

>  <origin>  (21) 
autodockgpu

>  <m_score__min__energy>  (21) 
-9.8599999999999994

>  <m_primary>  (21) 
energy

>  <rmsd>  (21) 
4.3503578855906735

>  <m_score__min__rmsd>  (21) 
4.3503578855906735

>  <meeko>  (21) 
{"free_energy": -9.1, "intermolecular_energy": -11.48, "internal_energy": -2.12, "cluster_size": 4, "cluster_id": 3, "rank_in_cluster": 1}

>  <energy>  (21) 
-8.13

>  <cluster_rmsd>  (21) 
1.64

>  <cluster>  (21) 
8

$$$$

     RDKit          3D

 63 67  0  0  0  0  0  0  0  0999 V2000
  135.7240   76.9910  221.9970 O   0  0  0  0  0  0  0  0  0  0  0  0
  136.8550   76.6620  222.4550 C   0  0  0  0  0  0  0  0  0  0  0  0
  137.1800   75.2910  222.7530 N   0  0  0  0  0  0  0  0  0  0  0  0
  136.2280   74.2550  222.5310 C   0  0  0  0  0  0  0  0  0  0  0  0
  136.7610   72.9150  222.4580 C   0  0  0  0  0  0  0  0  0  0  0  0
  136.4530   72.1690  223.4880 O   0  0  0  0  0  0  0  0  0  0  0  0
  137.5530   72.2790  221.4830 N   0  0  0  0  0  0  0  0  0  0  0  0
  137.1840   71.4890  220.3180 C   0  0  0  0  0  0  0  0  0  0  0  0
  138.4070   71.6580  219.3930 C   0  0  0  0  0  0  0  0  0  0  0  0
  139.5560   71.5380  220.4030 C   0  0  0  0  0  0  0  0  0  0  0  0
  139.0340   72.3550  221.5620 C   0  0  1  0  0  0  0  0  0  0  0  0
  139.3600   73.8080  221.3420 C   0  0  0  0  0  0  0  0  0  0  0  0
  139.9520   74.3610  222.3310 O   0  0  0  0  0  0  0  0  0  0  0  0
  139.0580   74.5140  220.1770 N   0  0  0  0  0  0  0  0  0  0  0  0
  139.3640   75.9170  219.9470 C   0  0  0  0  0  0  0  0  0  0  0  0
  140.8120   76.1660  219.7460 C   0  0  0  0  0  0  0  0  0  0  0  0
  141.2460   77.4200  219.3350 C   0  0  0  0  0  0  0  0  0  0  0  0
  142.5790   77.7120  219.1340 C   0  0  0  0  0  0  0  0  0  0  0  0
  143.5380   76.7170  219.3480 C   0  0  0  0  0  0  0  0  0  0  0  0
  143.1320   75.4630  219.7570 C   0  0  0  0  0  0  0  0  0  0  0  0
  144.1100   74.4050  219.9860 C   0  0  0  0  0  0  0  0  0  0  0  0
  143.9280   73.1630  219.5040 N   0  0  0  0  0  0  0  0  0  0  0  0
  144.8560   72.1900  219.7320 C   0  0  0  0  0  0  0  0  0  0  0  0
  146.0070   72.4390  220.4590 C   0  0  0  0  0  0  0  0  0  0  0  0
  146.1750   73.7250  220.9470 C   0  0  0  0  0  0  0  0  0  0  0  0
  145.2230   74.6650  220.6960 N   0  0  0  0  0  0  0  0  0  0  0  0
  141.7890   75.2180  219.9450 C   0  0  0  0  0  0  0  0  0  0  0  0
  137.8860   77.6850  222.6990 C   0  0  0  0  0  0  0  0  0  0  0  0
  137.4800   78.9900  222.9240 C   0  0  0  0  0  0  0  0  0  0  0  0
  138.4130   79.9710  223.1540 C   0  0  0  0  0  0  0  0  0  0  0  0
  139.7500   79.6610  223.1600 C   0  0  0  0  0  0  0  0  0  0  0  0
  140.6540   80.6500  223.3910 C   0  0  0  0  0  0  0  0  0  0  0  0
  141.9960   80.3390  223.3970 C   0  0  0  0  0  0  0  0  0  0  0  0
  142.9410   81.2950  223.6230 F   0  0  0  0  0  0  0  0  0  0  0  0
  142.3680   79.0290  223.1680 C   0  0  0  0  0  0  0  0  0  0  0  0
  141.4590   78.0170  222.9340 C   0  0  0  0  0  0  0  0  0  0  0  0
  140.1190   78.3460  222.9300 C   0  0  0  0  0  0  0  0  0  0  0  0
  139.2060   77.3770  222.7040 N   0  0  0  0  0  0  0  0  0  0  0  0
  138.1510   75.1000  223.1400 H   0  0  0  0  0  0  0  0  0  0  0  0
  135.4999   74.2839  223.3550 H   0  0  0  0  0  0  0  0  0  0  0  0
  135.7929   74.4571  221.5411 H   0  0  0  0  0  0  0  0  0  0  0  0
  137.0325   70.4331  220.5865 H   0  0  0  0  0  0  0  0  0  0  0  0
  136.2388   71.8089  219.8550 H   0  0  0  0  0  0  0  0  0  0  0  0
  138.4520   70.8636  218.6335 H   0  0  0  0  0  0  0  0  0  0  0  0
  138.4101   72.5914  218.8110 H   0  0  0  0  0  0  0  0  0  0  0  0
  139.7252   70.4910  220.6949 H   0  0  0  0  0  0  0  0  0  0  0  0
  140.5269   71.8817  220.0167 H   0  0  0  0  0  0  0  0  0  0  0  0
  139.4601   71.9895  222.5080 H   0  0  0  0  0  0  0  0  0  0  0  0
  138.5780   74.0300  219.3690 H   0  0  0  0  0  0  0  0  0  0  0  0
  138.8224   76.2520  219.0501 H   0  0  0  0  0  0  0  0  0  0  0  0
  139.0545   76.4739  220.8437 H   0  0  0  0  0  0  0  0  0  0  0  0
  140.4991   78.2092  219.1636 H   0  0  0  0  0  0  0  0  0  0  0  0
  142.8846   78.7174  218.8087 H   0  0  0  0  0  0  0  0  0  0  0  0
  144.6055   76.9317  219.1919 H   0  0  0  0  0  0  0  0  0  0  0  0
  144.6853   71.1814  219.3277 H   0  0  0  0  0  0  0  0  0  0  0  0
  146.7540   71.6523  220.6410 H   0  0  0  0  0  0  0  0  0  0  0  0
  147.0698   73.9840  221.5321 H   0  0  0  0  0  0  0  0  0  0  0  0
  141.4824   74.2131  220.2709 H   0  0  0  0  0  0  0  0  0  0  0  0
  136.4090   79.2409  222.9184 H   0  0  0  0  0  0  0  0  0  0  0  0
  138.0884   81.0065  223.3337 H   0  0  0  0  0  0  0  0  0  0  0  0
  140.3190   81.6823  223.5703 H   0  0  0  0  0  0  0  0  0  0  0  0
  143.4395   78.7802  223.1723 H   0  0  0  0  0  0  0  0  0  0  0  0
  141.7915   76.9835  222.7568 H   0  0  0  0  0  0  0  0  0  0  0  0
  1  2  2  0
  2  3  1  0
  3  4  1  0
  4  5  1  0
  5  6  2  0
  5  7  1  0
  7  8  1  0
  8  9  1  0
  9 10  1  0
 10 11  1  0
 11 12  1  0
 12 13  2  0
 12 14  1  0
 14 15  1  0
 15 16  1  0
 16 17  2  0
 17 18  1  0
 18 19  2  0
 19 20  1  0
 20 21  1  0
 21 22  2  0
 22 23  1  0
 23 24  2  0
 24 25  1  0
 25 26  2  0
 20 27  2  0
  2 28  1  0
 28 29  2  0
 29 30  1  0
 30 31  2  0
 31 32  1  0
 32 33  2  0
 33 34  1  0
 33 35  1  0
 35 36  2  0
 36 37  1  0
 37 38  2  0
 11  7  1  0
 27 16  1  0
 38 28  1  0
 26 21  1  0
 37 31  1  0
  3 39  1  0
  4 40  1  0
  4 41  1  0
  8 42  1  0
  8 43  1  0
  9 44  1  0
  9 45  1  0
 10 46  1  0
 10 47  1  0
 11 48  1  1
 14 49  1  0
 15 50  1  0
 15 51  1  0
 17 52  1  0
 18 53  1  0
 19 54  1  0
 23 55  1  0
 24 56  1  0
 25 57  1  0
 27 58  1  0
 29 59  1  0
 30 60  1  0
 32 61  1  0
 35 62  1  0
 36 63  1  0
M  END
>  <smiles>  (22) 
O=C(NCC(=O)N1CCC[C@H]1C(=O)NCc1cccc(-c2ncccn2)c1)c1ccc2cc(F)ccc2n1

>  <score_type>  (22) 
oracle

>  <origin>  (22) 
autodockgpu

>  <m_score__min__energy>  (22) 
-9.8599999999999994

>  <m_primary>  (22) 
energy

>  <rmsd>  (22) 
7.44632009349603

>  <m_score__min__rmsd>  (22) 
7.44632009349603

>  <meeko>  (22) 
{"free_energy": -7.35, "intermolecular_energy": -9.74, "internal_energy": -4.16, "cluster_size": 2, "cluster_id": 13, "rank_in_cluster": 2}

>  <energy>  (22) 
-8.07

>  <cluster_rmsd>  (22) 
1.64

>  <cluster>  (22) 
8

$$$$

     RDKit          3D

 63 67  0  0  0  0  0  0  0  0999 V2000
  137.3390   70.2070  221.7930 O   0  0  0  0  0  0  0  0  0  0  0  0
  138.0050   70.9580  222.5600 C   0  0  0  0  0  0  0  0  0  0  0  0
  138.1620   72.3650  222.2920 N   0  0  0  0  0  0  0  0  0  0  0  0
  137.5580   72.9560  221.1460 C   0  0  0  0  0  0  0  0  0  0  0  0
  136.4670   73.8650  221.4070 C   0  0  0  0  0  0  0  0  0  0  0  0
  136.3300   74.7980  220.4980 O   0  0  0  0  0  0  0  0  0  0  0  0
  135.5370   73.9270  222.4620 N   0  0  0  0  0  0  0  0  0  0  0  0
  135.1460   72.9330  223.4510 C   0  0  0  0  0  0  0  0  0  0  0  0
  134.6340   73.8020  224.6190 C   0  0  0  0  0  0  0  0  0  0  0  0
  133.8410   74.8740  223.8600 C   0  0  0  0  0  0  0  0  0  0  0  0
  134.7590   75.1700  222.6960 C   0  0  1  0  0  0  0  0  0  0  0  0
  135.7810   76.1950  223.1080 C   0  0  0  0  0  0  0  0  0  0  0  0
  136.4280   75.8840  224.1670 O   0  0  0  0  0  0  0  0  0  0  0  0
  136.0260   77.3840  222.4200 N   0  0  0  0  0  0  0  0  0  0  0  0
  137.0070   78.3860  222.8040 C   0  0  0  0  0  0  0  0  0  0  0  0
  138.4020   77.8940  222.7000 C   0  0  0  0  0  0  0  0  0  0  0  0
  139.4510   78.6960  223.1340 C   0  0  0  0  0  0  0  0  0  0  0  0
  140.7680   78.2930  223.0650 C   0  0  0  0  0  0  0  0  0  0  0  0
  141.0720   77.0320  222.5400 C   0  0  0  0  0  0  0  0  0  0  0  0
  140.0480   76.2180  222.1020 C   0  0  0  0  0  0  0  0  0  0  0  0
  140.3360   74.8990  221.5470 C   0  0  0  0  0  0  0  0  0  0  0  0
  140.6320   73.8540  222.3400 N   0  0  0  0  0  0  0  0  0  0  0  0
  140.8970   72.6300  221.7990 C   0  0  0  0  0  0  0  0  0  0  0  0
  140.8750   72.4190  220.4310 C   0  0  0  0  0  0  0  0  0  0  0  0
  140.5680   73.5100  219.6330 C   0  0  0  0  0  0  0  0  0  0  0  0
  140.3090   74.7130  220.2160 N   0  0  0  0  0  0  0  0  0  0  0  0
  138.7480   76.6630  222.1900 C   0  0  0  0  0  0  0  0  0  0  0  0
  138.6470   70.4090  223.7660 C   0  0  0  0  0  0  0  0  0  0  0  0
  138.5670   69.0460  223.9940 C   0  0  0  0  0  0  0  0  0  0  0  0
  139.1520   68.4980  225.1090 C   0  0  0  0  0  0  0  0  0  0  0  0
  139.8170   69.3010  226.0010 C   0  0  0  0  0  0  0  0  0  0  0  0
  140.3890   68.7340  227.0980 C   0  0  0  0  0  0  0  0  0  0  0  0
  141.0570   69.5400  227.9930 C   0  0  0  0  0  0  0  0  0  0  0  0
  141.6460   69.0200  229.1070 F   0  0  0  0  0  0  0  0  0  0  0  0
  141.1180   70.8960  227.7370 C   0  0  0  0  0  0  0  0  0  0  0  0
  140.5420   71.4810  226.6280 C   0  0  0  0  0  0  0  0  0  0  0  0
  139.8770   70.6600  225.7420 C   0  0  0  0  0  0  0  0  0  0  0  0
  139.3030   71.2040  224.6470 N   0  0  0  0  0  0  0  0  0  0  0  0
  138.7410   72.9250  222.9850 H   0  0  0  0  0  0  0  0  0  0  0  0
  138.3369   73.5113  220.6029 H   0  0  0  0  0  0  0  0  0  0  0  0
  137.1215   72.1226  220.5760 H   0  0  0  0  0  0  0  0  0  0  0  0
  134.3502   72.2796  223.0639 H   0  0  0  0  0  0  0  0  0  0  0  0
  135.9639   72.2551  223.7364 H   0  0  0  0  0  0  0  0  0  0  0  0
  133.9877   73.2263  225.2979 H   0  0  0  0  0  0  0  0  0  0  0  0
  135.4266   74.1998  225.2698 H   0  0  0  0  0  0  0  0  0  0  0  0
  132.8706   74.4864  223.5165 H   0  0  0  0  0  0  0  0  0  0  0  0
  133.5913   75.7570  224.4666 H   0  0  0  0  0  0  0  0  0  0  0  0
  134.1761   75.5142  221.8290 H   0  0  0  0  0  0  0  0  0  0  0  0
  135.4840   77.6120  221.5400 H   0  0  0  0  0  0  0  0  0  0  0  0
  136.8926   79.2601  222.1460 H   0  0  0  0  0  0  0  0  0  0  0  0
  136.8238   78.6419  223.8580 H   0  0  0  0  0  0  0  0  0  0  0  0
  139.2221   79.6891  223.5479 H   0  0  0  0  0  0  0  0  0  0  0  0
  141.5713   78.9559  223.4190 H   0  0  0  0  0  0  0  0  0  0  0  0
  142.1167   76.6933  222.4772 H   0  0  0  0  0  0  0  0  0  0  0  0
  141.1343   71.7889  222.4671 H   0  0  0  0  0  0  0  0  0  0  0  0
  141.0911   71.4314  219.9974 H   0  0  0  0  0  0  0  0  0  0  0  0
  140.5339   73.4049  218.5386 H   0  0  0  0  0  0  0  0  0  0  0  0
  137.9447   76.0009  221.8346 H   0  0  0  0  0  0  0  0  0  0  0  0
  138.0337   68.4005  223.2806 H   0  0  0  0  0  0  0  0  0  0  0  0
  139.0874   67.4145  225.2872 H   0  0  0  0  0  0  0  0  0  0  0  0
  140.3190   67.6493  227.2672 H   0  0  0  0  0  0  0  0  0  0  0  0
  141.6513   71.5403  228.4515 H   0  0  0  0  0  0  0  0  0  0  0  0
  140.6110   72.5654  226.4566 H   0  0  0  0  0  0  0  0  0  0  0  0
  1  2  2  0
  2  3  1  0
  3  4  1  0
  4  5  1  0
  5  6  2  0
  5  7  1  0
  7  8  1  0
  8  9  1  0
  9 10  1  0
 10 11  1  0
 11 12  1  0
 12 13  2  0
 12 14  1  0
 14 15  1  0
 15 16  1  0
 16 17  2  0
 17 18  1  0
 18 19  2  0
 19 20  1  0
 20 21  1  0
 21 22  2  0
 22 23  1  0
 23 24  2  0
 24 25  1  0
 25 26  2  0
 20 27  2  0
  2 28  1  0
 28 29  2  0
 29 30  1  0
 30 31  2  0
 31 32  1  0
 32 33  2  0
 33 34  1  0
 33 35  1  0
 35 36  2  0
 36 37  1  0
 37 38  2  0
 11  7  1  0
 27 16  1  0
 38 28  1  0
 26 21  1  0
 37 31  1  0
  3 39  1  0
  4 40  1  0
  4 41  1  0
  8 42  1  0
  8 43  1  0
  9 44  1  0
  9 45  1  0
 10 46  1  0
 10 47  1  0
 11 48  1  6
 14 49  1  0
 15 50  1  0
 15 51  1  0
 17 52  1  0
 18 53  1  0
 19 54  1  0
 23 55  1  0
 24 56  1  0
 25 57  1  0
 27 58  1  0
 29 59  1  0
 30 60  1  0
 32 61  1  0
 35 62  1  0
 36 63  1  0
M  END
>  <smiles>  (23) 
O=C(NCC(=O)N1CCC[C@H]1C(=O)NCc1cccc(-c2ncccn2)c1)c1ccc2cc(F)ccc2n1

>  <score_type>  (23) 
oracle

>  <origin>  (23) 
autodockgpu

>  <m_score__min__energy>  (23) 
-9.8599999999999994

>  <m_primary>  (23) 
energy

>  <rmsd>  (23) 
4.884173733582636

>  <m_score__min__rmsd>  (23) 
4.884173733582636

>  <meeko>  (23) 
{"free_energy": -7.65, "intermolecular_energy": -10.04, "internal_energy": -3.94, "cluster_size": 6, "cluster_id": 8, "rank_in_cluster": 6}

>  <energy>  (23) 
-7.91

>  <cluster_rmsd>  (23) 
1.67

>  <cluster>  (23) 
8

$$$$

     RDKit          3D

 63 67  0  0  0  0  0  0  0  0999 V2000
  139.9930   73.3520  222.6920 O   0  0  0  0  0  0  0  0  0  0  0  0
  139.5390   72.1750  222.6270 C   0  0  0  0  0  0  0  0  0  0  0  0
  138.8680   71.6870  221.4490 N   0  0  0  0  0  0  0  0  0  0  0  0
  138.7030   72.5240  220.3090 C   0  0  0  0  0  0  0  0  0  0  0  0
  137.4970   73.3170  220.2790 C   0  0  0  0  0  0  0  0  0  0  0  0
  137.1470   73.6990  219.0770 O   0  0  0  0  0  0  0  0  0  0  0  0
  136.6420   73.7530  221.3090 N   0  0  0  0  0  0  0  0  0  0  0  0
  136.1070   73.0530  222.4690 C   0  0  0  0  0  0  0  0  0  0  0  0
  135.8230   74.2040  223.4560 C   0  0  0  0  0  0  0  0  0  0  0  0
  135.2220   75.2560  222.5150 C   0  0  0  0  0  0  0  0  0  0  0  0
  136.1310   75.1470  221.3120 C   0  0  1  0  0  0  0  0  0  0  0  0
  137.3490   76.0060  221.5210 C   0  0  0  0  0  0  0  0  0  0  0  0
  137.2760   77.1520  220.9550 O   0  0  0  0  0  0  0  0  0  0  0  0
  138.4680   75.6190  222.2580 N   0  0  0  0  0  0  0  0  0  0  0  0
  139.6530   76.4350  222.4690 C   0  0  0  0  0  0  0  0  0  0  0  0
  140.6270   76.3350  221.3540 C   0  0  0  0  0  0  0  0  0  0  0  0
  140.5460   77.2190  220.2850 C   0  0  0  0  0  0  0  0  0  0  0  0
  141.4230   77.1760  219.2220 C   0  0  0  0  0  0  0  0  0  0  0  0
  142.4360   76.2110  219.2080 C   0  0  0  0  0  0  0  0  0  0  0  0
  142.5370   75.3220  220.2580 C   0  0  0  0  0  0  0  0  0  0  0  0
  143.5830   74.3040  220.2690 C   0  0  0  0  0  0  0  0  0  0  0  0
  143.2970   73.0020  220.0960 N   0  0  0  0  0  0  0  0  0  0  0  0
  144.2910   72.0680  220.1100 C   0  0  0  0  0  0  0  0  0  0  0  0
  145.6160   72.4190  220.3020 C   0  0  0  0  0  0  0  0  0  0  0  0
  145.8890   73.7670  220.4790 C   0  0  0  0  0  0  0  0  0  0  0  0
  144.8650   74.6650  220.4570 N   0  0  0  0  0  0  0  0  0  0  0  0
  141.6380   75.4030  221.2990 C   0  0  0  0  0  0  0  0  0  0  0  0
  139.6850   71.2570  223.7690 C   0  0  0  0  0  0  0  0  0  0  0  0
  139.2140   69.9610  223.6390 C   0  0  0  0  0  0  0  0  0  0  0  0
  139.3320   69.0770  224.6840 C   0  0  0  0  0  0  0  0  0  0  0  0
  139.9160   69.4760  225.8590 C   0  0  0  0  0  0  0  0  0  0  0  0
  140.0220   68.5820  226.8790 C   0  0  0  0  0  0  0  0  0  0  0  0
  140.6080   68.9830  228.0590 C   0  0  0  0  0  0  0  0  0  0  0  0
  140.7370   68.1250  229.1100 F   0  0  0  0  0  0  0  0  0  0  0  0
  141.0670   70.2820  228.1570 C   0  0  0  0  0  0  0  0  0  0  0  0
  140.9650   71.1970  227.1290 C   0  0  0  0  0  0  0  0  0  0  0  0
  140.3750   70.7800  225.9540 C   0  0  0  0  0  0  0  0  0  0  0  0
  140.2620   71.6530  224.9300 N   0  0  0  0  0  0  0  0  0  0  0  0
  138.5120   70.6860  221.4780 H   0  0  0  0  0  0  0  0  0  0  0  0
  139.5602   73.2123  220.2692 H   0  0  0  0  0  0  0  0  0  0  0  0
  138.6338   71.8437  219.4474 H   0  0  0  0  0  0  0  0  0  0  0  0
  135.1840   72.5112  222.2148 H   0  0  0  0  0  0  0  0  0  0  0  0
  136.7889   72.2897  222.8720 H   0  0  0  0  0  0  0  0  0  0  0  0
  135.1064   73.9015  224.2338 H   0  0  0  0  0  0  0  0  0  0  0  0
  136.7047   74.5482  224.0165 H   0  0  0  0  0  0  0  0  0  0  0  0
  134.1813   75.0130  222.2544 H   0  0  0  0  0  0  0  0  0  0  0  0
  135.1735   76.2662  222.9477 H   0  0  0  0  0  0  0  0  0  0  0  0
  135.5904   75.4369  220.3989 H   0  0  0  0  0  0  0  0  0  0  0  0
  138.4970   74.6710  222.7240 H   0  0  0  0  0  0  0  0  0  0  0  0
  139.3426   77.4853  222.5712 H   0  0  0  0  0  0  0  0  0  0  0  0
  140.1513   76.0660  223.3776 H   0  0  0  0  0  0  0  0  0  0  0  0
  139.7529   77.9812  220.2869 H   0  0  0  0  0  0  0  0  0  0  0  0
  141.3273   77.8931  218.3934 H   0  0  0  0  0  0  0  0  0  0  0  0
  143.1447   76.1617  218.3682 H   0  0  0  0  0  0  0  0  0  0  0  0
  144.0329   71.0086  219.9650 H   0  0  0  0  0  0  0  0  0  0  0  0
  146.4155   71.6636  220.3137 H   0  0  0  0  0  0  0  0  0  0  0  0
  146.9230   74.1080  220.6357 H   0  0  0  0  0  0  0  0  0  0  0  0
  141.7332   74.6864  222.1281 H   0  0  0  0  0  0  0  0  0  0  0  0
  138.7448   69.6390  222.6976 H   0  0  0  0  0  0  0  0  0  0  0  0
  138.9577   68.0481  224.5782 H   0  0  0  0  0  0  0  0  0  0  0  0
  139.6455   67.5550  226.7630 H   0  0  0  0  0  0  0  0  0  0  0  0
  141.5360   70.6023  229.0990 H   0  0  0  0  0  0  0  0  0  0  0  0
  141.3415   72.2243  227.2428 H   0  0  0  0  0  0  0  0  0  0  0  0
  1  2  2  0
  2  3  1  0
  3  4  1  0
  4  5  1  0
  5  6  2  0
  5  7  1  0
  7  8  1  0
  8  9  1  0
  9 10  1  0
 10 11  1  0
 11 12  1  0
 12 13  2  0
 12 14  1  0
 14 15  1  0
 15 16  1  0
 16 17  2  0
 17 18  1  0
 18 19  2  0
 19 20  1  0
 20 21  1  0
 21 22  2  0
 22 23  1  0
 23 24  2  0
 24 25  1  0
 25 26  2  0
 20 27  2  0
  2 28  1  0
 28 29  2  0
 29 30  1  0
 30 31  2  0
 31 32  1  0
 32 33  2  0
 33 34  1  0
 33 35  1  0
 35 36  2  0
 36 37  1  0
 37 38  2  0
 11  7  1  0
 27 16  1  0
 38 28  1  0
 26 21  1  0
 37 31  1  0
  3 39  1  0
  4 40  1  0
  4 41  1  0
  8 42  1  0
  8 43  1  0
  9 44  1  0
  9 45  1  0
 10 46  1  0
 10 47  1  0
 11 48  1  6
 14 49  1  0
 15 50  1  0
 15 51  1  0
 17 52  1  0
 18 53  1  0
 19 54  1  0
 23 55  1  0
 24 56  1  0
 25 57  1  0
 27 58  1  0
 29 59  1  0
 30 60  1  0
 32 61  1  0
 35 62  1  0
 36 63  1  0
M  END
>  <smiles>  (24) 
O=C(NCC(=O)N1CCC[C@H]1C(=O)NCc1cccc(-c2ncccn2)c1)c1ccc2cc(F)ccc2n1

>  <score_type>  (24) 
oracle

>  <origin>  (24) 
autodockgpu

>  <m_score__min__energy>  (24) 
-9.8599999999999994

>  <m_primary>  (24) 
energy

>  <rmsd>  (24) 
4.38054676289686

>  <m_score__min__rmsd>  (24) 
4.38054676289686

>  <meeko>  (24) 
{"free_energy": -8.48, "intermolecular_energy": -10.86, "internal_energy": -3.47, "cluster_size": 8, "cluster_id": 9, "rank_in_cluster": 1}

>  <energy>  (24) 
-7.88

>  <cluster_rmsd>  (24) 
1.71

>  <cluster>  (24) 
8

$$$$

     RDKit          3D

 63 67  0  0  0  0  0  0  0  0999 V2000
  139.4200   71.4000  220.6180 O   0  0  0  0  0  0  0  0  0  0  0  0
  140.2460   71.6860  221.5310 C   0  0  0  0  0  0  0  0  0  0  0  0
  141.3810   72.5380  221.2830 N   0  0  0  0  0  0  0  0  0  0  0  0
  141.6030   73.0950  219.9920 C   0  0  0  0  0  0  0  0  0  0  0  0
  142.4620   74.2540  219.9450 C   0  0  0  0  0  0  0  0  0  0  0  0
  143.2850   74.3410  220.9590 O   0  0  0  0  0  0  0  0  0  0  0  0
  142.5630   75.3020  219.0100 N   0  0  0  0  0  0  0  0  0  0  0  0
  142.3990   75.3130  217.5640 C   0  0  0  0  0  0  0  0  0  0  0  0
  142.0080   76.7780  217.2790 C   0  0  0  0  0  0  0  0  0  0  0  0
  142.9660   77.5240  218.2170 C   0  0  0  0  0  0  0  0  0  0  0  0
  142.8970   76.6760  219.4660 C   0  0  1  0  0  0  0  0  0  0  0  0
  141.7200   77.1030  220.3010 C   0  0  0  0  0  0  0  0  0  0  0  0
  141.0250   78.0400  219.7750 O   0  0  0  0  0  0  0  0  0  0  0  0
  141.3900   76.5480  221.5380 N   0  0  0  0  0  0  0  0  0  0  0  0
  140.2580   76.9490  222.3590 C   0  0  0  0  0  0  0  0  0  0  0  0
  140.3790   78.3370  222.8670 C   0  0  0  0  0  0  0  0  0  0  0  0
  141.6300   78.9360  222.9490 C   0  0  0  0  0  0  0  0  0  0  0  0
  141.8050   80.2240  223.4110 C   0  0  0  0  0  0  0  0  0  0  0  0
  140.6880   80.9650  223.8140 C   0  0  0  0  0  0  0  0  0  0  0  0
  139.4350   80.3920  223.7420 C   0  0  0  0  0  0  0  0  0  0  0  0
  138.2530   81.1410  224.1570 C   0  0  0  0  0  0  0  0  0  0  0  0
  137.6860   82.0590  223.3560 N   0  0  0  0  0  0  0  0  0  0  0  0
  136.5810   82.7460  223.7660 C   0  0  0  0  0  0  0  0  0  0  0  0
  136.0090   82.5300  225.0080 C   0  0  0  0  0  0  0  0  0  0  0  0
  136.6100   81.5780  225.8180 C   0  0  0  0  0  0  0  0  0  0  0  0
  137.7110   80.9160  225.3670 N   0  0  0  0  0  0  0  0  0  0  0  0
  139.3090   79.1020  223.2740 C   0  0  0  0  0  0  0  0  0  0  0  0
  140.0680   71.1490  222.8900 C   0  0  0  0  0  0  0  0  0  0  0  0
  139.2660   70.0330  223.0590 C   0  0  0  0  0  0  0  0  0  0  0  0
  139.0760   69.5050  224.3120 C   0  0  0  0  0  0  0  0  0  0  0  0
  139.6800   70.0820  225.4010 C   0  0  0  0  0  0  0  0  0  0  0  0
  139.4770   69.5400  226.6320 C   0  0  0  0  0  0  0  0  0  0  0  0
  140.0830   70.1190  227.7240 C   0  0  0  0  0  0  0  0  0  0  0  0
  139.9100   69.6140  228.9780 F   0  0  0  0  0  0  0  0  0  0  0  0
  140.8770   71.2320  227.5220 C   0  0  0  0  0  0  0  0  0  0  0  0
  141.0900   71.7900  226.2780 C   0  0  0  0  0  0  0  0  0  0  0  0
  140.4750   71.1970  225.1940 C   0  0  0  0  0  0  0  0  0  0  0  0
  140.6660   71.7210  223.9640 N   0  0  0  0  0  0  0  0  0  0  0  0
  142.0300   72.7250  222.1040 H   0  0  0  0  0  0  0  0  0  0  0  0
  142.0545   72.3150  219.3614 H   0  0  0  0  0  0  0  0  0  0  0  0
  140.6184   73.4397  219.6430 H   0  0  0  0  0  0  0  0  0  0  0  0
  143.3378   75.0469  217.0561 H   0  0  0  0  0  0  0  0  0  0  0  0
  141.6578   74.5849  217.2029 H   0  0  0  0  0  0  0  0  0  0  0  0
  142.1831   77.0455  216.2265 H   0  0  0  0  0  0  0  0  0  0  0  0
  140.9441   77.0039  217.4439 H   0  0  0  0  0  0  0  0  0  0  0  0
  143.9866   77.5521  217.8077 H   0  0  0  0  0  0  0  0  0  0  0  0
  142.6999   78.5789  218.3791 H   0  0  0  0  0  0  0  0  0  0  0  0
  143.8371   76.7542  220.0318 H   0  0  0  0  0  0  0  0  0  0  0  0
  141.9750   75.7670  221.9460 H   0  0  0  0  0  0  0  0  0  0  0  0
  139.3419   76.8746  221.7547 H   0  0  0  0  0  0  0  0  0  0  0  0
  140.2276   76.2789  223.2308 H   0  0  0  0  0  0  0  0  0  0  0  0
  142.5137   78.3618  222.6338 H   0  0  0  0  0  0  0  0  0  0  0  0
  142.8118   80.6641  223.4621 H   0  0  0  0  0  0  0  0  0  0  0  0
  140.8080   81.9938  224.1844 H   0  0  0  0  0  0  0  0  0  0  0  0
  136.1328   83.4910  223.0921 H   0  0  0  0  0  0  0  0  0  0  0  0
  135.1195   83.0873  225.3370 H   0  0  0  0  0  0  0  0  0  0  0  0
  136.2010   81.3598  226.8155 H   0  0  0  0  0  0  0  0  0  0  0  0
  138.3025   78.6611  223.2230 H   0  0  0  0  0  0  0  0  0  0  0  0
  138.7804   69.5687  222.1880 H   0  0  0  0  0  0  0  0  0  0  0  0
  138.4387   68.6181  224.4433 H   0  0  0  0  0  0  0  0  0  0  0  0
  138.8384   68.6526  226.7530 H   0  0  0  0  0  0  0  0  0  0  0  0
  141.3621   71.6949  228.3940 H   0  0  0  0  0  0  0  0  0  0  0  0
  141.7283   72.6773  226.1545 H   0  0  0  0  0  0  0  0  0  0  0  0
  1  2  2  0
  2  3  1  0
  3  4  1  0
  4  5  1  0
  5  6  2  0
  5  7  1  0
  7  8  1  0
  8  9  1  0
  9 10  1  0
 10 11  1  0
 11 12  1  0
 12 13  2  0
 12 14  1  0
 14 15  1  0
 15 16  1  0
 16 17  2  0
 17 18  1  0
 18 19  2  0
 19 20  1  0
 20 21  1  0
 21 22  2  0
 22 23  1  0
 23 24  2  0
 24 25  1  0
 25 26  2  0
 20 27  2  0
  2 28  1  0
 28 29  2  0
 29 30  1  0
 30 31  2  0
 31 32  1  0
 32 33  2  0
 33 34  1  0
 33 35  1  0
 35 36  2  0
 36 37  1  0
 37 38  2  0
 11  7  1  0
 27 16  1  0
 38 28  1  0
 26 21  1  0
 37 31  1  0
  3 39  1  0
  4 40  1  0
  4 41  1  0
  8 42  1  0
  8 43  1  0
  9 44  1  0
  9 45  1  0
 10 46  1  0
 10 47  1  0
 11 48  1  1
 14 49  1  0
 15 50  1  0
 15 51  1  0
 17 52  1  0
 18 53  1  0
 19 54  1  0
 23 55  1  0
 24 56  1  0
 25 57  1  0
 27 58  1  0
 29 59  1  0
 30 60  1  0
 32 61  1  0
 35 62  1  0
 36 63  1  0
M  END
>  <smiles>  (25) 
O=C(NCC(=O)N1CCC[C@H]1C(=O)NCc1cccc(-c2ncccn2)c1)c1ccc2cc(F)ccc2n1

>  <score_type>  (25) 
oracle

>  <origin>  (25) 
autodockgpu

>  <m_score__min__energy>  (25) 
-9.8599999999999994

>  <m_primary>  (25) 
energy

>  <rmsd>  (25) 
2.7158561478251193

>  <m_score__min__rmsd>  (25) 
2.7158561478251193

>  <meeko>  (25) 
{"free_energy": -8.83, "intermolecular_energy": -11.22, "internal_energy": -3.11, "cluster_size": 2, "cluster_id": 4, "rank_in_cluster": 2}

>  <energy>  (25) 
-7.65

>  <cluster_rmsd>  (25) 
1.76

>  <cluster>  (25) 
8

$$$$

     RDKit          3D

 63 67  0  0  0  0  0  0  0  0999 V2000
  139.8050   72.9940  222.6380 O   0  0  0  0  0  0  0  0  0  0  0  0
  139.7540   71.7410  222.8000 C   0  0  0  0  0  0  0  0  0  0  0  0
  139.4530   70.8500  221.7090 N   0  0  0  0  0  0  0  0  0  0  0  0
  139.2080   71.3600  220.4020 C   0  0  0  0  0  0  0  0  0  0  0  0
  137.8280   71.3660  219.9760 C   0  0  0  0  0  0  0  0  0  0  0  0
  137.2220   70.2180  220.1400 O   0  0  0  0  0  0  0  0  0  0  0  0
  137.0310   72.3810  219.4150 N   0  0  0  0  0  0  0  0  0  0  0  0
  136.2570   72.4180  218.1820 C   0  0  0  0  0  0  0  0  0  0  0  0
  135.1790   73.4770  218.4910 C   0  0  0  0  0  0  0  0  0  0  0  0
  136.0110   74.5380  219.2220 C   0  0  0  0  0  0  0  0  0  0  0  0
  136.8860   73.6850  220.1120 C   0  0  1  0  0  0  0  0  0  0  0  0
  136.1490   73.3640  221.3850 C   0  0  0  0  0  0  0  0  0  0  0  0
  134.9260   73.0350  221.2050 O   0  0  0  0  0  0  0  0  0  0  0  0
  136.7190   73.4090  222.6570 N   0  0  0  0  0  0  0  0  0  0  0  0
  136.0230   73.1040  223.8970 C   0  0  0  0  0  0  0  0  0  0  0  0
  135.8030   71.6510  224.0910 C   0  0  0  0  0  0  0  0  0  0  0  0
  134.9250   71.2100  225.0740 C   0  0  0  0  0  0  0  0  0  0  0  0
  134.6780   69.8720  225.3000 C   0  0  0  0  0  0  0  0  0  0  0  0
  135.3300   68.9140  224.5170 C   0  0  0  0  0  0  0  0  0  0  0  0
  136.2070   69.3260  223.5340 C   0  0  0  0  0  0  0  0  0  0  0  0
  136.9020   68.3480  222.7040 C   0  0  0  0  0  0  0  0  0  0  0  0
  136.2360   67.5530  221.8480 N   0  0  0  0  0  0  0  0  0  0  0  0
  136.9080   66.6460  221.0820 C   0  0  0  0  0  0  0  0  0  0  0  0
  138.2830   66.5090  221.1550 C   0  0  0  0  0  0  0  0  0  0  0  0
  138.9500   67.3380  222.0430 C   0  0  0  0  0  0  0  0  0  0  0  0
  138.2390   68.2290  222.7880 N   0  0  0  0  0  0  0  0  0  0  0  0
  136.4220   70.6730  223.3450 C   0  0  0  0  0  0  0  0  0  0  0  0
  140.0050   71.1510  224.1250 C   0  0  0  0  0  0  0  0  0  0  0  0
  140.7000   71.9000  225.0600 C   0  0  0  0  0  0  0  0  0  0  0  0
  140.9540   71.3820  226.3070 C   0  0  0  0  0  0  0  0  0  0  0  0
  140.5200   70.1200  226.6280 C   0  0  0  0  0  0  0  0  0  0  0  0
  140.7840   69.6300  227.8690 C   0  0  0  0  0  0  0  0  0  0  0  0
  140.3490   68.3640  228.1920 C   0  0  0  0  0  0  0  0  0  0  0  0
  140.5880   67.8270  229.4220 F   0  0  0  0  0  0  0  0  0  0  0  0
  139.6590   67.6420  227.2370 C   0  0  0  0  0  0  0  0  0  0  0  0
  139.3860   68.1300  225.9750 C   0  0  0  0  0  0  0  0  0  0  0  0
  139.8290   69.4000  225.6680 C   0  0  0  0  0  0  0  0  0  0  0  0
  139.5770   69.9050  224.4410 N   0  0  0  0  0  0  0  0  0  0  0  0
  139.4240   69.8110  221.9310 H   0  0  0  0  0  0  0  0  0  0  0  0
  139.5751   72.3965  220.3703 H   0  0  0  0  0  0  0  0  0  0  0  0
  139.7292   70.6783  219.7138 H   0  0  0  0  0  0  0  0  0  0  0  0
  136.8819   72.7247  217.3303 H   0  0  0  0  0  0  0  0  0  0  0  0
  135.8403   71.4403  217.8984 H   0  0  0  0  0  0  0  0  0  0  0  0
  134.7317   73.8787  217.5698 H   0  0  0  0  0  0  0  0  0  0  0  0
  134.3223   73.0969  219.0669 H   0  0  0  0  0  0  0  0  0  0  0  0
  136.6131   75.1304  218.5174 H   0  0  0  0  0  0  0  0  0  0  0  0
  135.4083   75.2789  219.7677 H   0  0  0  0  0  0  0  0  0  0  0  0
  137.8355   74.2001  220.3197 H   0  0  0  0  0  0  0  0  0  0  0  0
  137.7360   73.6740  222.7770 H   0  0  0  0  0  0  0  0  0  0  0  0
  136.6212   73.4841  224.7382 H   0  0  0  0  0  0  0  0  0  0  0  0
  135.0347   73.5845  223.8484 H   0  0  0  0  0  0  0  0  0  0  0  0
  134.4077   71.9561  225.6951 H   0  0  0  0  0  0  0  0  0  0  0  0
  133.9757   69.5617  226.0877 H   0  0  0  0  0  0  0  0  0  0  0  0
  135.1457   67.8423  224.6830 H   0  0  0  0  0  0  0  0  0  0  0  0
  136.3421   66.0069  220.3882 H   0  0  0  0  0  0  0  0  0  0  0  0
  138.8218   65.7759  220.5367 H   0  0  0  0  0  0  0  0  0  0  0  0
  140.0435   67.2768  222.1451 H   0  0  0  0  0  0  0  0  0  0  0  0
  137.1244   70.9837  222.5575 H   0  0  0  0  0  0  0  0  0  0  0  0
  141.0492   72.9112  224.8039 H   0  0  0  0  0  0  0  0  0  0  0  0
  141.5054   71.9789  227.0484 H   0  0  0  0  0  0  0  0  0  0  0  0
  141.3362   70.2353  228.6030 H   0  0  0  0  0  0  0  0  0  0  0  0
  139.3109   66.6308  227.4946 H   0  0  0  0  0  0  0  0  0  0  0  0
  138.8340   67.5268  225.2391 H   0  0  0  0  0  0  0  0  0  0  0  0
  1  2  2  0
  2  3  1  0
  3  4  1  0
  4  5  1  0
  5  6  2  0
  5  7  1  0
  7  8  1  0
  8  9  1  0
  9 10  1  0
 10 11  1  0
 11 12  1  0
 12 13  2  0
 12 14  1  0
 14 15  1  0
 15 16  1  0
 16 17  2  0
 17 18  1  0
 18 19  2  0
 19 20  1  0
 20 21  1  0
 21 22  2  0
 22 23  1  0
 23 24  2  0
 24 25  1  0
 25 26  2  0
 20 27  2  0
  2 28  1  0
 28 29  2  0
 29 30  1  0
 30 31  2  0
 31 32  1  0
 32 33  2  0
 33 34  1  0
 33 35  1  0
 35 36  2  0
 36 37  1  0
 37 38  2  0
 11  7  1  0
 27 16  1  0
 38 28  1  0
 26 21  1  0
 37 31  1  0
  3 39  1  0
  4 40  1  0
  4 41  1  0
  8 42  1  0
  8 43  1  0
  9 44  1  0
  9 45  1  0
 10 46  1  0
 10 47  1  0
 11 48  1  1
 14 49  1  0
 15 50  1  0
 15 51  1  0
 17 52  1  0
 18 53  1  0
 19 54  1  0
 23 55  1  0
 24 56  1  0
 25 57  1  0
 27 58  1  0
 29 59  1  0
 30 60  1  0
 32 61  1  0
 35 62  1  0
 36 63  1  0
M  END
>  <smiles>  (26) 
O=C(NCC(=O)N1CCC[C@H]1C(=O)NCc1cccc(-c2ncccn2)c1)c1ccc2cc(F)ccc2n1

>  <score_type>  (26) 
oracle

>  <origin>  (26) 
autodockgpu

>  <m_score__min__energy>  (26) 
-9.8599999999999994

>  <m_primary>  (26) 
energy

>  <rmsd>  (26) 
6.550884946131477

>  <m_score__min__rmsd>  (26) 
6.550884946131477

>  <meeko>  (26) 
{"free_energy": -5.85, "intermolecular_energy": -8.24, "internal_energy": -5.67, "cluster_size": 1, "cluster_id": 20, "rank_in_cluster": 1}

>  <energy>  (26) 
-8.48

>  <cluster_rmsd>  (26) 
0.0

>  <cluster>  (26) 
9

$$$$

     RDKit          3D

 63 67  0  0  0  0  0  0  0  0999 V2000
  141.3400   72.4950  221.9130 O   0  0  0  0  0  0  0  0  0  0  0  0
  140.2890   72.4230  222.6110 C   0  0  0  0  0  0  0  0  0  0  0  0
  139.1390   73.2450  222.3330 N   0  0  0  0  0  0  0  0  0  0  0  0
  139.1520   74.1680  221.2480 C   0  0  0  0  0  0  0  0  0  0  0  0
  139.9420   75.3600  221.4440 C   0  0  0  0  0  0  0  0  0  0  0  0
  139.9450   75.7920  222.6800 O   0  0  0  0  0  0  0  0  0  0  0  0
  140.6970   76.1360  220.5450 N   0  0  0  0  0  0  0  0  0  0  0  0
  141.1810   77.5060  220.6360 C   0  0  0  0  0  0  0  0  0  0  0  0
  142.4040   77.4960  219.6960 C   0  0  0  0  0  0  0  0  0  0  0  0
  141.8670   76.6650  218.5240 C   0  0  0  0  0  0  0  0  0  0  0  0
  141.1260   75.5620  219.2440 C   0  0  1  0  0  0  0  0  0  0  0  0
  142.0870   74.4610  219.6040 C   0  0  0  0  0  0  0  0  0  0  0  0
  141.8140   73.3370  219.0570 O   0  0  0  0  0  0  0  0  0  0  0  0
  143.1840   74.6190  220.4500 N   0  0  0  0  0  0  0  0  0  0  0  0
  144.1220   73.5680  220.8110 C   0  0  0  0  0  0  0  0  0  0  0  0
  144.6450   72.8350  219.6320 C   0  0  0  0  0  0  0  0  0  0  0  0
  144.8980   73.5200  218.4500 C   0  0  0  0  0  0  0  0  0  0  0  0
  145.3870   72.8940  217.3230 C   0  0  0  0  0  0  0  0  0  0  0  0
  145.6420   71.5190  217.3590 C   0  0  0  0  0  0  0  0  0  0  0  0
  145.3990   70.8160  218.5210 C   0  0  0  0  0  0  0  0  0  0  0  0
  145.6530   69.3800  218.5870 C   0  0  0  0  0  0  0  0  0  0  0  0
  145.5410   68.7000  219.7410 N   0  0  0  0  0  0  0  0  0  0  0  0
  145.7840   67.3580  219.7780 C   0  0  0  0  0  0  0  0  0  0  0  0
  146.1510   66.6540  218.6440 C   0  0  0  0  0  0  0  0  0  0  0  0
  146.2610   67.3750  217.4650 C   0  0  0  0  0  0  0  0  0  0  0  0
  146.0090   68.7130  217.4750 N   0  0  0  0  0  0  0  0  0  0  0  0
  144.9100   71.4840  219.6220 C   0  0  0  0  0  0  0  0  0  0  0  0
  140.2100   71.4830  223.7410 C   0  0  0  0  0  0  0  0  0  0  0  0
  139.6350   70.2420  223.5290 C   0  0  0  0  0  0  0  0  0  0  0  0
  139.5420   69.3400  224.5600 C   0  0  0  0  0  0  0  0  0  0  0  0
  140.0200   69.6670  225.8050 C   0  0  0  0  0  0  0  0  0  0  0  0
  139.9170   68.7560  226.8100 C   0  0  0  0  0  0  0  0  0  0  0  0
  140.3960   69.0840  228.0590 C   0  0  0  0  0  0  0  0  0  0  0  0
  140.3160   68.2070  229.0980 F   0  0  0  0  0  0  0  0  0  0  0  0
  140.9630   70.3310  228.2380 C   0  0  0  0  0  0  0  0  0  0  0  0
  141.0720   71.2630  227.2260 C   0  0  0  0  0  0  0  0  0  0  0  0
  140.5870   70.9180  225.9810 C   0  0  0  0  0  0  0  0  0  0  0  0
  140.6810   71.8090  224.9700 N   0  0  0  0  0  0  0  0  0  0  0  0
  138.2980   73.1260  222.9710 H   0  0  0  0  0  0  0  0  0  0  0  0
  139.5458   73.6441  220.3645 H   0  0  0  0  0  0  0  0  0  0  0  0
  138.1135   74.5137  221.1387 H   0  0  0  0  0  0  0  0  0  0  0  0
  140.4195   78.2197  220.2887 H   0  0  0  0  0  0  0  0  0  0  0  0
  141.4222   77.8167  221.6633 H   0  0  0  0  0  0  0  0  0  0  0  0
  142.6773   78.5130  219.3781 H   0  0  0  0  0  0  0  0  0  0  0  0
  143.3222   77.0965  220.1514 H   0  0  0  0  0  0  0  0  0  0  0  0
  141.1892   77.2562  217.8907 H   0  0  0  0  0  0  0  0  0  0  0  0
  142.6476   76.3044  217.8379 H   0  0  0  0  0  0  0  0  0  0  0  0
  140.3034   75.1852  218.6185 H   0  0  0  0  0  0  0  0  0  0  0  0
  143.3930   75.5620  220.8810 H   0  0  0  0  0  0  0  0  0  0  0  0
  144.9688   74.0214  221.3471 H   0  0  0  0  0  0  0  0  0  0  0  0
  143.5825   72.8437  221.4390 H   0  0  0  0  0  0  0  0  0  0  0  0
  144.7009   74.6015  218.4119 H   0  0  0  0  0  0  0  0  0  0  0  0
  145.5747   73.4700  216.4048 H   0  0  0  0  0  0  0  0  0  0  0  0
  146.0325   71.0032  216.4693 H   0  0  0  0  0  0  0  0  0  0  0  0
  145.6858   66.8217  220.7334 H   0  0  0  0  0  0  0  0  0  0  0  0
  146.3464   65.5720  218.6769 H   0  0  0  0  0  0  0  0  0  0  0  0
  146.5490   66.8711  216.5306 H   0  0  0  0  0  0  0  0  0  0  0  0
  144.7216   70.9085  220.5403 H   0  0  0  0  0  0  0  0  0  0  0  0
  139.2517   69.9778  222.5324 H   0  0  0  0  0  0  0  0  0  0  0  0
  139.0842   68.3546  224.3885 H   0  0  0  0  0  0  0  0  0  0  0  0
  139.4584   67.7729  226.6280 H   0  0  0  0  0  0  0  0  0  0  0  0
  141.3460   70.5937  229.2351 H   0  0  0  0  0  0  0  0  0  0  0  0
  141.5297   72.2470  227.4056 H   0  0  0  0  0  0  0  0  0  0  0  0
  1  2  2  0
  2  3  1  0
  3  4  1  0
  4  5  1  0
  5  6  2  0
  5  7  1  0
  7  8  1  0
  8  9  1  0
  9 10  1  0
 10 11  1  0
 11 12  1  0
 12 13  2  0
 12 14  1  0
 14 15  1  0
 15 16  1  0
 16 17  2  0
 17 18  1  0
 18 19  2  0
 19 20  1  0
 20 21  1  0
 21 22  2  0
 22 23  1  0
 23 24  2  0
 24 25  1  0
 25 26  2  0
 20 27  2  0
  2 28  1  0
 28 29  2  0
 29 30  1  0
 30 31  2  0
 31 32  1  0
 32 33  2  0
 33 34  1  0
 33 35  1  0
 35 36  2  0
 36 37  1  0
 37 38  2  0
 11  7  1  0
 27 16  1  0
 38 28  1  0
 26 21  1  0
 37 31  1  0
  3 39  1  0
  4 40  1  0
  4 41  1  0
  8 42  1  0
  8 43  1  0
  9 44  1  0
  9 45  1  0
 10 46  1  0
 10 47  1  0
 11 48  1  6
 14 49  1  0
 15 50  1  0
 15 51  1  0
 17 52  1  0
 18 53  1  0
 19 54  1  0
 23 55  1  0
 24 56  1  0
 25 57  1  0
 27 58  1  0
 29 59  1  0
 30 60  1  0
 32 61  1  0
 35 62  1  0
 36 63  1  0
M  END
>  <smiles>  (27) 
O=C(NCC(=O)N1CCC[C@H]1C(=O)NCc1cccc(-c2ncccn2)c1)c1ccc2cc(F)ccc2n1

>  <score_type>  (27) 
oracle

>  <origin>  (27) 
autodockgpu

>  <m_score__min__energy>  (27) 
-9.8599999999999994

>  <m_primary>  (27) 
energy

>  <rmsd>  (27) 
5.280361017849505

>  <m_score__min__rmsd>  (27) 
5.280361017849505

>  <meeko>  (27) 
{"free_energy": -9.86, "intermolecular_energy": -12.25, "internal_energy": -2.31, "cluster_size": 3, "cluster_id": 1, "rank_in_cluster": 1}

>  <energy>  (27) 
-8.41

>  <cluster_rmsd>  (27) 
0.4

>  <cluster>  (27) 
9

$$$$

     RDKit          3D

 63 67  0  0  0  0  0  0  0  0999 V2000
  141.9640   73.1800  220.6170 O   0  0  0  0  0  0  0  0  0  0  0  0
  141.2690   73.9170  221.3730 C   0  0  0  0  0  0  0  0  0  0  0  0
  140.3500   73.3620  222.3330 N   0  0  0  0  0  0  0  0  0  0  0  0
  140.2020   71.9510  222.4650 C   0  0  0  0  0  0  0  0  0  0  0  0
  139.5150   71.4980  223.6510 C   0  0  0  0  0  0  0  0  0  0  0  0
  138.2490   71.8270  223.6850 O   0  0  0  0  0  0  0  0  0  0  0  0
  139.9680   70.7760  224.7720 N   0  0  0  0  0  0  0  0  0  0  0  0
  140.5020   71.2280  226.0490 C   0  0  0  0  0  0  0  0  0  0  0  0
  140.1870   70.0420  226.9850 C   0  0  0  0  0  0  0  0  0  0  0  0
  140.5360   68.8540  226.0800 C   0  0  0  0  0  0  0  0  0  0  0  0
  139.9500   69.2910  224.7570 C   0  0  1  0  0  0  0  0  0  0  0  0
  138.4910   68.9220  224.7060 C   0  0  0  0  0  0  0  0  0  0  0  0
  138.0940   68.2410  225.7130 O   0  0  0  0  0  0  0  0  0  0  0  0
  137.6260   69.2770  223.6710 N   0  0  0  0  0  0  0  0  0  0  0  0
  136.2150   68.9290  223.6030 C   0  0  0  0  0  0  0  0  0  0  0  0
  135.3920   69.6690  224.5890 C   0  0  0  0  0  0  0  0  0  0  0  0
  134.6450   68.9690  225.5290 C   0  0  0  0  0  0  0  0  0  0  0  0
  133.8630   69.6020  226.4720 C   0  0  0  0  0  0  0  0  0  0  0  0
  133.8110   71.0000  226.4930 C   0  0  0  0  0  0  0  0  0  0  0  0
  134.5430   71.7170  225.5700 C   0  0  0  0  0  0  0  0  0  0  0  0
  134.5070   73.1760  225.5670 C   0  0  0  0  0  0  0  0  0  0  0  0
  133.7870   73.8620  226.4720 N   0  0  0  0  0  0  0  0  0  0  0  0
  133.7680   75.2260  226.4500 C   0  0  0  0  0  0  0  0  0  0  0  0
  134.4780   75.9480  225.5070 C   0  0  0  0  0  0  0  0  0  0  0  0
  135.2130   75.2210  224.5830 C   0  0  0  0  0  0  0  0  0  0  0  0
  135.2040   73.8610  224.6430 N   0  0  0  0  0  0  0  0  0  0  0  0
  135.3110   71.0420  224.6470 C   0  0  0  0  0  0  0  0  0  0  0  0
  141.3820   75.3830  221.2920 C   0  0  0  0  0  0  0  0  0  0  0  0
  142.0210   75.9360  220.1960 C   0  0  0  0  0  0  0  0  0  0  0  0
  142.1470   77.2990  220.0870 C   0  0  0  0  0  0  0  0  0  0  0  0
  141.6400   78.1170  221.0650 C   0  0  0  0  0  0  0  0  0  0  0  0
  141.7770   79.4640  220.9340 C   0  0  0  0  0  0  0  0  0  0  0  0
  141.2680   80.2840  221.9170 C   0  0  0  0  0  0  0  0  0  0  0  0
  141.3800   81.6400  221.8320 F   0  0  0  0  0  0  0  0  0  0  0  0
  140.6370   79.7010  222.9980 C   0  0  0  0  0  0  0  0  0  0  0  0
  140.4930   78.3360  223.1410 C   0  0  0  0  0  0  0  0  0  0  0  0
  141.0080   77.5290  222.1480 C   0  0  0  0  0  0  0  0  0  0  0  0
  140.8820   76.1880  222.2610 N   0  0  0  0  0  0  0  0  0  0  0  0
  139.8010   74.0510  222.9270 H   0  0  0  0  0  0  0  0  0  0  0  0
  139.6414   71.5876  221.5911 H   0  0  0  0  0  0  0  0  0  0  0  0
  141.2235   71.5500  222.5409 H   0  0  0  0  0  0  0  0  0  0  0  0
  141.5855   71.4066  225.9854 H   0  0  0  0  0  0  0  0  0  0  0  0
  140.0714   72.1809  226.3904 H   0  0  0  0  0  0  0  0  0  0  0  0
  140.8162   70.0611  227.8871 H   0  0  0  0  0  0  0  0  0  0  0  0
  139.1571   70.0305  227.3713 H   0  0  0  0  0  0  0  0  0  0  0  0
  141.6243   68.7111  226.0084 H   0  0  0  0  0  0  0  0  0  0  0  0
  140.1496   67.8897  226.4417 H   0  0  0  0  0  0  0  0  0  0  0  0
  140.5064   68.8357  223.9245 H   0  0  0  0  0  0  0  0  0  0  0  0
  137.9780   69.8500  222.8540 H   0  0  0  0  0  0  0  0  0  0  0  0
  135.8447   69.1591  222.5931 H   0  0  0  0  0  0  0  0  0  0  0  0
  136.1268   67.8576  223.8361 H   0  0  0  0  0  0  0  0  0  0  0  0
  134.6788   67.8696  225.5204 H   0  0  0  0  0  0  0  0  0  0  0  0
  133.2858   69.0137  227.2005 H   0  0  0  0  0  0  0  0  0  0  0  0
  133.1926   71.5219  227.2381 H   0  0  0  0  0  0  0  0  0  0  0  0
  133.1729   75.7657  227.2013 H   0  0  0  0  0  0  0  0  0  0  0  0
  134.4602   77.0477  225.4911 H   0  0  0  0  0  0  0  0  0  0  0  0
  135.7981   75.7385  223.8085 H   0  0  0  0  0  0  0  0  0  0  0  0
  135.8891   71.6301  223.9191 H   0  0  0  0  0  0  0  0  0  0  0  0
  142.4287   75.2824  219.4107 H   0  0  0  0  0  0  0  0  0  0  0  0
  142.6551   77.7357  219.2145 H   0  0  0  0  0  0  0  0  0  0  0  0
  142.2859   79.8915  220.0575 H   0  0  0  0  0  0  0  0  0  0  0  0
  140.2297   80.3557  223.7825 H   0  0  0  0  0  0  0  0  0  0  0  0
  139.9849   77.9063  224.0169 H   0  0  0  0  0  0  0  0  0  0  0  0
  1  2  2  0
  2  3  1  0
  3  4  1  0
  4  5  1  0
  5  6  2  0
  5  7  1  0
  7  8  1  0
  8  9  1  0
  9 10  1  0
 10 11  1  0
 11 12  1  0
 12 13  2  0
 12 14  1  0
 14 15  1  0
 15 16  1  0
 16 17  2  0
 17 18  1  0
 18 19  2  0
 19 20  1  0
 20 21  1  0
 21 22  2  0
 22 23  1  0
 23 24  2  0
 24 25  1  0
 25 26  2  0
 20 27  2  0
  2 28  1  0
 28 29  2  0
 29 30  1  0
 30 31  2  0
 31 32  1  0
 32 33  2  0
 33 34  1  0
 33 35  1  0
 35 36  2  0
 36 37  1  0
 37 38  2  0
 11  7  1  0
 27 16  1  0
 38 28  1  0
 26 21  1  0
 37 31  1  0
  3 39  1  0
  4 40  1  0
  4 41  1  0
  8 42  1  0
  8 43  1  0
  9 44  1  0
  9 45  1  0
 10 46  1  0
 10 47  1  0
 11 48  1  6
 14 49  1  0
 15 50  1  0
 15 51  1  0
 17 52  1  0
 18 53  1  0
 19 54  1  0
 23 55  1  0
 24 56  1  0
 25 57  1  0
 27 58  1  0
 29 59  1  0
 30 60  1  0
 32 61  1  0
 35 62  1  0
 36 63  1  0
M  END
>  <smiles>  (28) 
O=C(NCC(=O)N1CCC[C@H]1C(=O)NCc1cccc(-c2ncccn2)c1)c1ccc2cc(F)ccc2n1

>  <score_type>  (28) 
oracle

>  <origin>  (28) 
autodockgpu

>  <m_score__min__energy>  (28) 
-9.8599999999999994

>  <m_primary>  (28) 
energy

>  <rmsd>  (28) 
9.98396162228943

>  <m_score__min__rmsd>  (28) 
9.98396162228943

>  <meeko>  (28) 
{"free_energy": -8.7, "intermolecular_energy": -11.09, "internal_energy": -2.93, "cluster_size": 2, "cluster_id": 6, "rank_in_cluster": 1}

>  <energy>  (28) 
-8.36

>  <cluster_rmsd>  (28) 
0.89

>  <cluster>  (28) 
9

$$$$

     RDKit          3D

 63 67  0  0  0  0  0  0  0  0999 V2000
  141.1960   73.8000  220.9840 O   0  0  0  0  0  0  0  0  0  0  0  0
  140.3460   73.7840  221.9190 C   0  0  0  0  0  0  0  0  0  0  0  0
  139.6440   74.9740  222.3240 N   0  0  0  0  0  0  0  0  0  0  0  0
  139.8850   76.2170  221.6710 C   0  0  0  0  0  0  0  0  0  0  0  0
  139.6840   77.4000  222.4730 C   0  0  0  0  0  0  0  0  0  0  0  0
  138.5120   77.4480  223.0560 O   0  0  0  0  0  0  0  0  0  0  0  0
  140.5170   78.5050  222.7310 N   0  0  0  0  0  0  0  0  0  0  0  0
  141.5970   78.6850  223.6900 C   0  0  0  0  0  0  0  0  0  0  0  0
  142.4530   79.7870  223.0330 C   0  0  0  0  0  0  0  0  0  0  0  0
  141.3640   80.7330  222.5120 C   0  0  0  0  0  0  0  0  0  0  0  0
  140.3520   79.7590  221.9530 C   0  0  1  0  0  0  0  0  0  0  0  0
  140.7300   79.3930  220.5430 C   0  0  0  0  0  0  0  0  0  0  0  0
  139.7310   79.1070  219.7970 O   0  0  0  0  0  0  0  0  0  0  0  0
  142.0390   79.3620  220.0620 N   0  0  0  0  0  0  0  0  0  0  0  0
  142.4230   79.0100  218.7040 C   0  0  0  0  0  0  0  0  0  0  0  0
  142.4440   77.5460  218.4730 C   0  0  0  0  0  0  0  0  0  0  0  0
  141.6550   76.9930  217.4700 C   0  0  0  0  0  0  0  0  0  0  0  0
  141.6340   75.6400  217.2070 C   0  0  0  0  0  0  0  0  0  0  0  0
  142.4310   74.7810  217.9710 C   0  0  0  0  0  0  0  0  0  0  0  0
  143.2230   75.3050  218.9720 C   0  0  0  0  0  0  0  0  0  0  0  0
  144.0630   74.4320  219.7870 C   0  0  0  0  0  0  0  0  0  0  0  0
  145.1200   74.9090  220.4650 N   0  0  0  0  0  0  0  0  0  0  0  0
  145.8910   74.0740  221.2200 C   0  0  0  0  0  0  0  0  0  0  0  0
  145.6200   72.7200  221.3140 C   0  0  0  0  0  0  0  0  0  0  0  0
  144.5240   72.2490  220.6060 C   0  0  0  0  0  0  0  0  0  0  0  0
  143.7830   73.1190  219.8660 N   0  0  0  0  0  0  0  0  0  0  0  0
  143.2120   76.6630  219.1990 C   0  0  0  0  0  0  0  0  0  0  0  0
  140.0450   72.5290  222.6290 C   0  0  0  0  0  0  0  0  0  0  0  0
  139.1980   71.6150  222.0250 C   0  0  0  0  0  0  0  0  0  0  0  0
  138.8940   70.4350  222.6580 C   0  0  0  0  0  0  0  0  0  0  0  0
  139.4290   70.1580  223.8910 C   0  0  0  0  0  0  0  0  0  0  0  0
  139.1130   68.9820  224.4970 C   0  0  0  0  0  0  0  0  0  0  0  0
  139.6500   68.7040  225.7350 C   0  0  0  0  0  0  0  0  0  0  0  0
  139.3630   67.5400  226.3830 F   0  0  0  0  0  0  0  0  0  0  0  0
  140.4900   69.6370  226.3100 C   0  0  0  0  0  0  0  0  0  0  0  0
  140.8180   70.8330  225.7040 C   0  0  0  0  0  0  0  0  0  0  0  0
  140.2710   71.0950  224.4650 C   0  0  0  0  0  0  0  0  0  0  0  0
  140.5740   72.2580  223.8470 N   0  0  0  0  0  0  0  0  0  0  0  0
  138.9490   74.8750  223.1220 H   0  0  0  0  0  0  0  0  0  0  0  0
  140.9288   76.2185  221.3239 H   0  0  0  0  0  0  0  0  0  0  0  0
  139.1427   76.2767  220.8614 H   0  0  0  0  0  0  0  0  0  0  0  0
  141.2102   79.0123  224.6663 H   0  0  0  0  0  0  0  0  0  0  0  0
  142.1573   77.7609  223.8952 H   0  0  0  0  0  0  0  0  0  0  0  0
  143.1031   80.2851  223.7674 H   0  0  0  0  0  0  0  0  0  0  0  0
  143.1448   79.4226  222.2593 H   0  0  0  0  0  0  0  0  0  0  0  0
  140.9336   81.3353  223.3256 H   0  0  0  0  0  0  0  0  0  0  0  0
  141.7260   81.4695  221.7796 H   0  0  0  0  0  0  0  0  0  0  0  0
  139.3421   80.1930  221.9953 H   0  0  0  0  0  0  0  0  0  0  0  0
  142.8470   79.6140  220.6970 H   0  0  0  0  0  0  0  0  0  0  0  0
  141.7045   79.4653  218.0066 H   0  0  0  0  0  0  0  0  0  0  0  0
  143.4442   79.3851  218.5413 H   0  0  0  0  0  0  0  0  0  0  0  0
  141.0243   77.6601  216.8641 H   0  0  0  0  0  0  0  0  0  0  0  0
  140.9970   75.2399  216.4045 H   0  0  0  0  0  0  0  0  0  0  0  0
  142.4264   73.6985  217.7757 H   0  0  0  0  0  0  0  0  0  0  0  0
  146.7503   74.4877  221.7682 H   0  0  0  0  0  0  0  0  0  0  0  0
  146.2445   72.0487  221.9217 H   0  0  0  0  0  0  0  0  0  0  0  0
  144.2561   71.1827  220.6421 H   0  0  0  0  0  0  0  0  0  0  0  0
  143.8493   77.0631  220.0013 H   0  0  0  0  0  0  0  0  0  0  0  0
  138.7681   71.8346  221.0366 H   0  0  0  0  0  0  0  0  0  0  0  0
  138.2207   69.7108  222.1761 H   0  0  0  0  0  0  0  0  0  0  0  0
  138.4393   68.2641  224.0063 H   0  0  0  0  0  0  0  0  0  0  0  0
  140.9185   69.4165  227.2988 H   0  0  0  0  0  0  0  0  0  0  0  0
  141.4921   71.5522  226.1921 H   0  0  0  0  0  0  0  0  0  0  0  0
  1  2  2  0
  2  3  1  0
  3  4  1  0
  4  5  1  0
  5  6  2  0
  5  7  1  0
  7  8  1  0
  8  9  1  0
  9 10  1  0
 10 11  1  0
 11 12  1  0
 12 13  2  0
 12 14  1  0
 14 15  1  0
 15 16  1  0
 16 17  2  0
 17 18  1  0
 18 19  2  0
 19 20  1  0
 20 21  1  0
 21 22  2  0
 22 23  1  0
 23 24  2  0
 24 25  1  0
 25 26  2  0
 20 27  2  0
  2 28  1  0
 28 29  2  0
 29 30  1  0
 30 31  2  0
 31 32  1  0
 32 33  2  0
 33 34  1  0
 33 35  1  0
 35 36  2  0
 36 37  1  0
 37 38  2  0
 11  7  1  0
 27 16  1  0
 38 28  1  0
 26 21  1  0
 37 31  1  0
  3 39  1  0
  4 40  1  0
  4 41  1  0
  8 42  1  0
  8 43  1  0
  9 44  1  0
  9 45  1  0
 10 46  1  0
 10 47  1  0
 11 48  1  6
 14 49  1  0
 15 50  1  0
 15 51  1  0
 17 52  1  0
 18 53  1  0
 19 54  1  0
 23 55  1  0
 24 56  1  0
 25 57  1  0
 27 58  1  0
 29 59  1  0
 30 60  1  0
 32 61  1  0
 35 62  1  0
 36 63  1  0
M  END
>  <smiles>  (29) 
O=C(NCC(=O)N1CCC[C@H]1C(=O)NCc1cccc(-c2ncccn2)c1)c1ccc2cc(F)ccc2n1

>  <score_type>  (29) 
oracle

>  <origin>  (29) 
autodockgpu

>  <m_score__min__energy>  (29) 
-9.8599999999999994

>  <m_primary>  (29) 
energy

>  <rmsd>  (29) 
4.709712563318472

>  <m_score__min__rmsd>  (29) 
4.709712563318472

>  <meeko>  (29) 
{"free_energy": -8.82, "intermolecular_energy": -11.21, "internal_energy": -2.84, "cluster_size": 1, "cluster_id": 5, "rank_in_cluster": 1}

>  <energy>  (29) 
-8.33

>  <cluster_rmsd>  (29) 
0.84

>  <cluster>  (29) 
9

$$$$

     RDKit          3D

 63 67  0  0  0  0  0  0  0  0999 V2000
  137.7300   69.8380  221.9490 O   0  0  0  0  0  0  0  0  0  0  0  0
  138.0140   70.5360  222.9630 C   0  0  0  0  0  0  0  0  0  0  0  0
  137.6970   71.9400  223.0270 N   0  0  0  0  0  0  0  0  0  0  0  0
  137.0410   72.5860  221.9400 C   0  0  0  0  0  0  0  0  0  0  0  0
  135.7300   73.1200  222.2230 C   0  0  0  0  0  0  0  0  0  0  0  0
  135.1110   73.5820  221.1670 O   0  0  0  0  0  0  0  0  0  0  0  0
  135.0110   73.2360  223.4280 N   0  0  0  0  0  0  0  0  0  0  0  0
  135.0510   72.4400  224.6460 C   0  0  0  0  0  0  0  0  0  0  0  0
  134.5530   73.4340  225.7160 C   0  0  0  0  0  0  0  0  0  0  0  0
  133.4040   74.1190  224.9660 C   0  0  0  0  0  0  0  0  0  0  0  0
  134.0060   74.3170  223.5930 C   0  0  1  0  0  0  0  0  0  0  0  0
  134.8020   75.5930  223.5710 C   0  0  0  0  0  0  0  0  0  0  0  0
  134.9730   76.1160  224.7260 O   0  0  0  0  0  0  0  0  0  0  0  0
  135.3220   76.1770  222.4160 N   0  0  0  0  0  0  0  0  0  0  0  0
  136.0920   77.4100  222.3750 C   0  0  0  0  0  0  0  0  0  0  0  0
  137.5560   77.1760  222.4030 C   0  0  0  0  0  0  0  0  0  0  0  0
  138.0580   75.9120  222.1190 C   0  0  0  0  0  0  0  0  0  0  0  0
  139.4090   75.6340  222.1280 C   0  0  0  0  0  0  0  0  0  0  0  0
  140.3170   76.6540  222.4320 C   0  0  0  0  0  0  0  0  0  0  0  0
  139.8430   77.9180  222.7170 C   0  0  0  0  0  0  0  0  0  0  0  0
  140.7660   79.0010  223.0400 C   0  0  0  0  0  0  0  0  0  0  0  0
  140.3310   80.1650  223.5520 N   0  0  0  0  0  0  0  0  0  0  0  0
  141.2140   81.1630  223.8460 C   0  0  0  0  0  0  0  0  0  0  0  0
  142.5730   81.0190  223.6310 C   0  0  0  0  0  0  0  0  0  0  0  0
  143.0000   79.8100  223.1030 C   0  0  0  0  0  0  0  0  0  0  0  0
  142.0840   78.8420  222.8250 N   0  0  0  0  0  0  0  0  0  0  0  0
  138.4850   78.1490  222.6970 C   0  0  0  0  0  0  0  0  0  0  0  0
  138.6840   69.9260  224.1230 C   0  0  0  0  0  0  0  0  0  0  0  0
  138.7270   68.5450  224.2090 C   0  0  0  0  0  0  0  0  0  0  0  0
  139.3430   67.9400  225.2780 C   0  0  0  0  0  0  0  0  0  0  0  0
  139.9170   68.7030  226.2630 C   0  0  0  0  0  0  0  0  0  0  0  0
  140.5210   68.0800  227.3100 C   0  0  0  0  0  0  0  0  0  0  0  0
  141.0980   68.8470  228.2990 C   0  0  0  0  0  0  0  0  0  0  0  0
  141.7150   68.2700  229.3690 F   0  0  0  0  0  0  0  0  0  0  0  0
  141.0370   70.2220  228.1840 C   0  0  0  0  0  0  0  0  0  0  0  0
  140.4270   70.8640  227.1260 C   0  0  0  0  0  0  0  0  0  0  0  0
  139.8550   70.0810  226.1440 C   0  0  0  0  0  0  0  0  0  0  0  0
  139.2500   70.6820  225.0960 N   0  0  0  0  0  0  0  0  0  0  0  0
  137.9740   72.4560  223.9140 H   0  0  0  0  0  0  0  0  0  0  0  0
  137.6793   73.4178  221.6073 H   0  0  0  0  0  0  0  0  0  0  0  0
  136.8874   71.8066  221.1791 H   0  0  0  0  0  0  0  0  0  0  0  0
  134.3837   71.5686  224.5727 H   0  0  0  0  0  0  0  0  0  0  0  0
  136.0461   72.0252  224.8644 H   0  0  0  0  0  0  0  0  0  0  0  0
  134.1942   72.9129  226.6158 H   0  0  0  0  0  0  0  0  0  0  0  0
  135.3250   74.1226  226.0899 H   0  0  0  0  0  0  0  0  0  0  0  0
  132.5131   73.4752  224.9237 H   0  0  0  0  0  0  0  0  0  0  0  0
  133.0556   75.0494  225.4382 H   0  0  0  0  0  0  0  0  0  0  0  0
  133.2158   74.3272  222.8278 H   0  0  0  0  0  0  0  0  0  0  0  0
  135.1750   75.7180  221.4740 H   0  0  0  0  0  0  0  0  0  0  0  0
  135.8404   77.9506  221.4507 H   0  0  0  0  0  0  0  0  0  0  0  0
  135.8329   77.9915  223.2721 H   0  0  0  0  0  0  0  0  0  0  0  0
  137.3522   75.1034  221.8782 H   0  0  0  0  0  0  0  0  0  0  0  0
  139.7690   74.6202  221.8984 H   0  0  0  0  0  0  0  0  0  0  0  0
  141.3979   76.4503  222.4437 H   0  0  0  0  0  0  0  0  0  0  0  0
  140.8352   82.1069  224.2650 H   0  0  0  0  0  0  0  0  0  0  0  0
  143.2819   81.8261  223.8679 H   0  0  0  0  0  0  0  0  0  0  0  0
  144.0688   79.6347  222.9106 H   0  0  0  0  0  0  0  0  0  0  0  0
  138.1244   79.1623  222.9277 H   0  0  0  0  0  0  0  0  0  0  0  0
  138.2674   67.9311  223.4204 H   0  0  0  0  0  0  0  0  0  0  0  0
  139.3759   66.8425  225.3440 H   0  0  0  0  0  0  0  0  0  0  0  0
  140.5486   66.9818  227.3666 H   0  0  0  0  0  0  0  0  0  0  0  0
  141.4967   70.8345  228.9736 H   0  0  0  0  0  0  0  0  0  0  0  0
  140.3976   71.9620  227.0672 H   0  0  0  0  0  0  0  0  0  0  0  0
  1  2  2  0
  2  3  1  0
  3  4  1  0
  4  5  1  0
  5  6  2  0
  5  7  1  0
  7  8  1  0
  8  9  1  0
  9 10  1  0
 10 11  1  0
 11 12  1  0
 12 13  2  0
 12 14  1  0
 14 15  1  0
 15 16  1  0
 16 17  2  0
 17 18  1  0
 18 19  2  0
 19 20  1  0
 20 21  1  0
 21 22  2  0
 22 23  1  0
 23 24  2  0
 24 25  1  0
 25 26  2  0
 20 27  2  0
  2 28  1  0
 28 29  2  0
 29 30  1  0
 30 31  2  0
 31 32  1  0
 32 33  2  0
 33 34  1  0
 33 35  1  0
 35 36  2  0
 36 37  1  0
 37 38  2  0
 11  7  1  0
 27 16  1  0
 38 28  1  0
 26 21  1  0
 37 31  1  0
  3 39  1  0
  4 40  1  0
  4 41  1  0
  8 42  1  0
  8 43  1  0
  9 44  1  0
  9 45  1  0
 10 46  1  0
 10 47  1  0
 11 48  1  6
 14 49  1  0
 15 50  1  0
 15 51  1  0
 17 52  1  0
 18 53  1  0
 19 54  1  0
 23 55  1  0
 24 56  1  0
 25 57  1  0
 27 58  1  0
 29 59  1  0
 30 60  1  0
 32 61  1  0
 35 62  1  0
 36 63  1  0
M  END
>  <smiles>  (30) 
O=C(NCC(=O)N1CCC[C@H]1C(=O)NCc1cccc(-c2ncccn2)c1)c1ccc2cc(F)ccc2n1

>  <score_type>  (30) 
oracle

>  <origin>  (30) 
autodockgpu

>  <m_score__min__energy>  (30) 
-9.8599999999999994

>  <m_primary>  (30) 
energy

>  <rmsd>  (30) 
5.620084634300599

>  <m_score__min__rmsd>  (30) 
5.620084634300599

>  <meeko>  (30) 
{"free_energy": -8.54, "intermolecular_energy": -10.93, "internal_energy": -3.13, "cluster_size": 6, "cluster_id": 8, "rank_in_cluster": 1}

>  <energy>  (30) 
-8.3

>  <cluster_rmsd>  (30) 
0.49

>  <cluster>  (30) 
9

$$$$

     RDKit          3D

 63 67  0  0  0  0  0  0  0  0999 V2000
  139.9550   73.3790  222.7170 O   0  0  0  0  0  0  0  0  0  0  0  0
  139.7900   72.1360  222.5640 C   0  0  0  0  0  0  0  0  0  0  0  0
  139.4990   71.5650  221.2740 N   0  0  0  0  0  0  0  0  0  0  0  0
  139.3950   72.3940  220.1210 C   0  0  0  0  0  0  0  0  0  0  0  0
  138.1410   73.0890  219.9560 C   0  0  0  0  0  0  0  0  0  0  0  0
  137.9040   73.4630  218.7240 O   0  0  0  0  0  0  0  0  0  0  0  0
  137.1400   73.4380  220.8820 N   0  0  0  0  0  0  0  0  0  0  0  0
  136.5790   72.7040  222.0060 C   0  0  0  0  0  0  0  0  0  0  0  0
  136.0590   73.8320  222.9210 C   0  0  0  0  0  0  0  0  0  0  0  0
  135.4330   74.7800  221.8900 C   0  0  0  0  0  0  0  0  0  0  0  0
  136.4650   74.7580  220.7860 C   0  0  1  0  0  0  0  0  0  0  0  0
  137.5430   75.7660  221.0830 C   0  0  0  0  0  0  0  0  0  0  0  0
  137.5170   76.7910  220.3180 O   0  0  0  0  0  0  0  0  0  0  0  0
  138.4940   75.6260  222.0930 N   0  0  0  0  0  0  0  0  0  0  0  0
  139.5430   76.5890  222.3940 C   0  0  0  0  0  0  0  0  0  0  0  0
  140.7020   76.4820  221.4750 C   0  0  0  0  0  0  0  0  0  0  0  0
  141.0860   77.5820  220.7170 C   0  0  0  0  0  0  0  0  0  0  0  0
  142.1560   77.5440  219.8480 C   0  0  0  0  0  0  0  0  0  0  0  0
  142.8900   76.3610  219.7160 C   0  0  0  0  0  0  0  0  0  0  0  0
  142.5280   75.2550  220.4580 C   0  0  0  0  0  0  0  0  0  0  0  0
  143.2750   74.0060  220.3380 C   0  0  0  0  0  0  0  0  0  0  0  0
  144.6180   73.9930  220.2940 N   0  0  0  0  0  0  0  0  0  0  0  0
  145.2940   72.8130  220.1820 C   0  0  0  0  0  0  0  0  0  0  0  0
  144.6330   71.6000  220.1090 C   0  0  0  0  0  0  0  0  0  0  0  0
  143.2480   71.6370  220.1570 C   0  0  0  0  0  0  0  0  0  0  0  0
  142.6140   72.8370  220.2690 N   0  0  0  0  0  0  0  0  0  0  0  0
  141.4520   75.3390  221.3130 C   0  0  0  0  0  0  0  0  0  0  0  0
  139.8930   71.2240  223.7160 C   0  0  0  0  0  0  0  0  0  0  0  0
  139.4570   69.9180  223.5660 C   0  0  0  0  0  0  0  0  0  0  0  0
  139.5350   69.0400  224.6180 C   0  0  0  0  0  0  0  0  0  0  0  0
  140.0470   69.4550  225.8230 C   0  0  0  0  0  0  0  0  0  0  0  0
  140.1150   68.5660  226.8500 C   0  0  0  0  0  0  0  0  0  0  0  0
  140.6270   68.9810  228.0590 C   0  0  0  0  0  0  0  0  0  0  0  0
  140.7160   68.1290  229.1190 F   0  0  0  0  0  0  0  0  0  0  0  0
  141.0530   70.2900  228.1770 C   0  0  0  0  0  0  0  0  0  0  0  0
  140.9890   71.2000  227.1410 C   0  0  0  0  0  0  0  0  0  0  0  0
  140.4720   70.7670  225.9370 C   0  0  0  0  0  0  0  0  0  0  0  0
  140.3970   71.6360  224.9050 N   0  0  0  0  0  0  0  0  0  0  0  0
  139.3700   70.5110  221.2330 H   0  0  0  0  0  0  0  0  0  0  0  0
  140.1939   73.1482  220.1749 H   0  0  0  0  0  0  0  0  0  0  0  0
  139.4757   71.7161  219.2585 H   0  0  0  0  0  0  0  0  0  0  0  0
  135.7589   72.0468  221.6811 H   0  0  0  0  0  0  0  0  0  0  0  0
  137.3039   72.0402  222.4998 H   0  0  0  0  0  0  0  0  0  0  0  0
  135.3095   73.4598  223.6350 H   0  0  0  0  0  0  0  0  0  0  0  0
  136.8309   74.2953  223.5531 H   0  0  0  0  0  0  0  0  0  0  0  0
  134.4612   74.4039  221.5378 H   0  0  0  0  0  0  0  0  0  0  0  0
  135.2190   75.7857  222.2808 H   0  0  0  0  0  0  0  0  0  0  0  0
  135.9880   74.9579  219.8152 H   0  0  0  0  0  0  0  0  0  0  0  0
  138.4870   74.7740  222.7190 H   0  0  0  0  0  0  0  0  0  0  0  0
  139.1232   77.6026  222.3138 H   0  0  0  0  0  0  0  0  0  0  0  0
  139.9056   76.3769  223.4106 H   0  0  0  0  0  0  0  0  0  0  0  0
  140.5153   78.5174  220.8139 H   0  0  0  0  0  0  0  0  0  0  0  0
  142.4295   78.4354  219.2644 H   0  0  0  0  0  0  0  0  0  0  0  0
  143.7469   76.3125  219.0280 H   0  0  0  0  0  0  0  0  0  0  0  0
  146.3934   72.8267  220.1489 H   0  0  0  0  0  0  0  0  0  0  0  0
  145.1807   70.6505  220.0171 H   0  0  0  0  0  0  0  0  0  0  0  0
  142.6661   70.7050  220.1051 H   0  0  0  0  0  0  0  0  0  0  0  0
  141.1777   74.4476  221.8962 H   0  0  0  0  0  0  0  0  0  0  0  0
  139.0472   69.5837  222.6015 H   0  0  0  0  0  0  0  0  0  0  0  0
  139.1873   68.0035  224.4960 H   0  0  0  0  0  0  0  0  0  0  0  0
  139.7663   67.5313  226.7169 H   0  0  0  0  0  0  0  0  0  0  0  0
  141.4625   70.6228  229.1422 H   0  0  0  0  0  0  0  0  0  0  0  0
  141.3382   72.2350  227.2707 H   0  0  0  0  0  0  0  0  0  0  0  0
  1  2  2  0
  2  3  1  0
  3  4  1  0
  4  5  1  0
  5  6  2  0
  5  7  1  0
  7  8  1  0
  8  9  1  0
  9 10  1  0
 10 11  1  0
 11 12  1  0
 12 13  2  0
 12 14  1  0
 14 15  1  0
 15 16  1  0
 16 17  2  0
 17 18  1  0
 18 19  2  0
 19 20  1  0
 20 21  1  0
 21 22  2  0
 22 23  1  0
 23 24  2  0
 24 25  1  0
 25 26  2  0
 20 27  2  0
  2 28  1  0
 28 29  2  0
 29 30  1  0
 30 31  2  0
 31 32  1  0
 32 33  2  0
 33 34  1  0
 33 35  1  0
 35 36  2  0
 36 37  1  0
 37 38  2  0
 11  7  1  0
 27 16  1  0
 38 28  1  0
 26 21  1  0
 37 31  1  0
  3 39  1  0
  4 40  1  0
  4 41  1  0
  8 42  1  0
  8 43  1  0
  9 44  1  0
  9 45  1  0
 10 46  1  0
 10 47  1  0
 11 48  1  6
 14 49  1  0
 15 50  1  0
 15 51  1  0
 17 52  1  0
 18 53  1  0
 19 54  1  0
 23 55  1  0
 24 56  1  0
 25 57  1  0
 27 58  1  0
 29 59  1  0
 30 60  1  0
 32 61  1  0
 35 62  1  0
 36 63  1  0
M  END
>  <smiles>  (31) 
O=C(NCC(=O)N1CCC[C@H]1C(=O)NCc1cccc(-c2ncccn2)c1)c1ccc2cc(F)ccc2n1

>  <score_type>  (31) 
oracle

>  <origin>  (31) 
autodockgpu

>  <m_score__min__energy>  (31) 
-9.8599999999999994

>  <m_primary>  (31) 
energy

>  <rmsd>  (31) 
4.2678145316192015

>  <m_score__min__rmsd>  (31) 
4.2678145316192015

>  <meeko>  (31) 
{"free_energy": -8.28, "intermolecular_energy": -10.67, "internal_energy": -3.75, "cluster_size": 8, "cluster_id": 9, "rank_in_cluster": 6}

>  <energy>  (31) 
-8.28

>  <cluster_rmsd>  (31) 
0.56

>  <cluster>  (31) 
9

$$$$

     RDKit          3D

 63 67  0  0  0  0  0  0  0  0999 V2000
  139.2080   72.4730  220.8530 O   0  0  0  0  0  0  0  0  0  0  0  0
  140.1390   72.4610  221.7070 C   0  0  0  0  0  0  0  0  0  0  0  0
  141.3830   73.1500  221.4780 N   0  0  0  0  0  0  0  0  0  0  0  0
  141.5990   73.8770  220.2730 C   0  0  0  0  0  0  0  0  0  0  0  0
  140.9610   75.1700  220.1950 C   0  0  0  0  0  0  0  0  0  0  0  0
  140.0530   75.2530  219.2550 O   0  0  0  0  0  0  0  0  0  0  0  0
  141.1470   76.3480  220.9420 N   0  0  0  0  0  0  0  0  0  0  0  0
  141.7600   77.6200  220.5870 C   0  0  0  0  0  0  0  0  0  0  0  0
  141.0790   78.6070  221.5570 C   0  0  0  0  0  0  0  0  0  0  0  0
  141.0750   77.7870  222.8540 C   0  0  0  0  0  0  0  0  0  0  0  0
  140.6810   76.4170  222.3510 C   0  0  1  0  0  0  0  0  0  0  0  0
  139.1810   76.3230  222.2690 C   0  0  0  0  0  0  0  0  0  0  0  0
  138.5690   77.2480  222.9050 O   0  0  0  0  0  0  0  0  0  0  0  0
  138.4920   75.3320  221.5690 N   0  0  0  0  0  0  0  0  0  0  0  0
  137.0440   75.2240  221.4790 C   0  0  0  0  0  0  0  0  0  0  0  0
  136.4580   74.4200  222.5790 C   0  0  0  0  0  0  0  0  0  0  0  0
  136.7030   73.0530  222.6410 C   0  0  0  0  0  0  0  0  0  0  0  0
  136.1870   72.2540  223.6400 C   0  0  0  0  0  0  0  0  0  0  0  0
  135.3870   72.8290  224.6330 C   0  0  0  0  0  0  0  0  0  0  0  0
  135.1290   74.1840  224.5930 C   0  0  0  0  0  0  0  0  0  0  0  0
  134.2950   74.8110  225.6140 C   0  0  0  0  0  0  0  0  0  0  0  0
  133.5610   74.0770  226.4680 N   0  0  0  0  0  0  0  0  0  0  0  0
  132.7890   74.6850  227.4140 C   0  0  0  0  0  0  0  0  0  0  0  0
  132.7300   76.0630  227.5300 C   0  0  0  0  0  0  0  0  0  0  0  0
  133.4950   76.8000  226.6390 C   0  0  0  0  0  0  0  0  0  0  0  0
  134.2510   76.1510  225.7110 N   0  0  0  0  0  0  0  0  0  0  0  0
  135.6650   74.9430  223.5750 C   0  0  0  0  0  0  0  0  0  0  0  0
  139.9750   71.7340  222.9770 C   0  0  0  0  0  0  0  0  0  0  0  0
  139.1290   70.6390  223.0060 C   0  0  0  0  0  0  0  0  0  0  0  0
  138.9500   69.9370  224.1730 C   0  0  0  0  0  0  0  0  0  0  0  0
  139.6100   70.3190  225.3130 C   0  0  0  0  0  0  0  0  0  0  0  0
  139.4160   69.6080  226.4560 C   0  0  0  0  0  0  0  0  0  0  0  0
  140.0780   69.9920  227.6010 C   0  0  0  0  0  0  0  0  0  0  0  0
  139.9180   69.3120  228.7710 F   0  0  0  0  0  0  0  0  0  0  0  0
  140.9150   71.0900  227.5400 C   0  0  0  0  0  0  0  0  0  0  0  0
  141.1190   71.8190  226.3860 C   0  0  0  0  0  0  0  0  0  0  0  0
  140.4470   71.4200  225.2480 C   0  0  0  0  0  0  0  0  0  0  0  0
  140.6270   72.1150  224.1030 N   0  0  0  0  0  0  0  0  0  0  0  0
  142.1160   73.0860  222.2450 H   0  0  0  0  0  0  0  0  0  0  0  0
  142.6827   74.0282  220.1600 H   0  0  0  0  0  0  0  0  0  0  0  0
  141.1454   73.2719  219.4742 H   0  0  0  0  0  0  0  0  0  0  0  0
  142.8481   77.5942  220.7465 H   0  0  0  0  0  0  0  0  0  0  0  0
  141.6283   77.8876  219.5282 H   0  0  0  0  0  0  0  0  0  0  0  0
  141.6623   79.5332  221.6664 H   0  0  0  0  0  0  0  0  0  0  0  0
  140.0846   78.9480  221.2330 H   0  0  0  0  0  0  0  0  0  0  0  0
  142.0707   77.7713  223.3212 H   0  0  0  0  0  0  0  0  0  0  0  0
  140.4069   78.1857  223.6316 H   0  0  0  0  0  0  0  0  0  0  0  0
  141.0943   75.6366  223.0069 H   0  0  0  0  0  0  0  0  0  0  0  0
  139.0230   74.5840  221.0420 H   0  0  0  0  0  0  0  0  0  0  0  0
  136.6132   76.2355  221.5150 H   0  0  0  0  0  0  0  0  0  0  0  0
  136.8082   74.7134  220.5337 H   0  0  0  0  0  0  0  0  0  0  0  0
  137.3314   72.5916  221.8650 H   0  0  0  0  0  0  0  0  0  0  0  0
  136.4025   71.1754  223.6556 H   0  0  0  0  0  0  0  0  0  0  0  0
  134.9677   72.2072  225.4377 H   0  0  0  0  0  0  0  0  0  0  0  0
  132.1977   74.0638  228.1029 H   0  0  0  0  0  0  0  0  0  0  0  0
  132.1055   76.5505  228.2932 H   0  0  0  0  0  0  0  0  0  0  0  0
  133.4912   77.8992  226.6814 H   0  0  0  0  0  0  0  0  0  0  0  0
  135.4480   76.0213  223.5577 H   0  0  0  0  0  0  0  0  0  0  0  0
  138.5990   70.3304  222.0928 H   0  0  0  0  0  0  0  0  0  0  0  0
  138.2766   69.0675  224.1933 H   0  0  0  0  0  0  0  0  0  0  0  0
  138.7408   68.7397  226.4658 H   0  0  0  0  0  0  0  0  0  0  0  0
  141.4436   71.3974  228.4544 H   0  0  0  0  0  0  0  0  0  0  0  0
  141.7936   72.6878  226.3734 H   0  0  0  0  0  0  0  0  0  0  0  0
  1  2  2  0
  2  3  1  0
  3  4  1  0
  4  5  1  0
  5  6  2  0
  5  7  1  0
  7  8  1  0
  8  9  1  0
  9 10  1  0
 10 11  1  0
 11 12  1  0
 12 13  2  0
 12 14  1  0
 14 15  1  0
 15 16  1  0
 16 17  2  0
 17 18  1  0
 18 19  2  0
 19 20  1  0
 20 21  1  0
 21 22  2  0
 22 23  1  0
 23 24  2  0
 24 25  1  0
 25 26  2  0
 20 27  2  0
  2 28  1  0
 28 29  2  0
 29 30  1  0
 30 31  2  0
 31 32  1  0
 32 33  2  0
 33 34  1  0
 33 35  1  0
 35 36  2  0
 36 37  1  0
 37 38  2  0
 11  7  1  0
 27 16  1  0
 38 28  1  0
 26 21  1  0
 37 31  1  0
  3 39  1  0
  4 40  1  0
  4 41  1  0
  8 42  1  0
  8 43  1  0
  9 44  1  0
  9 45  1  0
 10 46  1  0
 10 47  1  0
 11 48  1  1
 14 49  1  0
 15 50  1  0
 15 51  1  0
 17 52  1  0
 18 53  1  0
 19 54  1  0
 23 55  1  0
 24 56  1  0
 25 57  1  0
 27 58  1  0
 29 59  1  0
 30 60  1  0
 32 61  1  0
 35 62  1  0
 36 63  1  0
M  END
>  <smiles>  (32) 
O=C(NCC(=O)N1CCC[C@H]1C(=O)NCc1cccc(-c2ncccn2)c1)c1ccc2cc(F)ccc2n1

>  <score_type>  (32) 
oracle

>  <origin>  (32) 
autodockgpu

>  <m_score__min__energy>  (32) 
-9.8599999999999994

>  <m_primary>  (32) 
energy

>  <rmsd>  (32) 
4.931299449930308

>  <m_score__min__rmsd>  (32) 
4.931299449930308

>  <meeko>  (32) 
{"free_energy": -8.05, "intermolecular_energy": -10.43, "internal_energy": -4.32, "cluster_size": 2, "cluster_id": 10, "rank_in_cluster": 2}

>  <energy>  (32) 
-8.21

>  <cluster_rmsd>  (32) 
0.76

>  <cluster>  (32) 
9

$$$$

     RDKit          3D

 63 67  0  0  0  0  0  0  0  0999 V2000
  137.1840   70.0970  222.0820 O   0  0  0  0  0  0  0  0  0  0  0  0
  137.8690   70.8010  222.8770 C   0  0  0  0  0  0  0  0  0  0  0  0
  138.0040   72.2240  222.7020 N   0  0  0  0  0  0  0  0  0  0  0  0
  137.3570   72.8870  221.6210 C   0  0  0  0  0  0  0  0  0  0  0  0
  136.0520   73.4350  221.9090 C   0  0  0  0  0  0  0  0  0  0  0  0
  135.5390   74.1200  220.9180 O   0  0  0  0  0  0  0  0  0  0  0  0
  135.2460   73.3670  223.0600 N   0  0  0  0  0  0  0  0  0  0  0  0
  135.1050   72.3270  224.0690 C   0  0  0  0  0  0  0  0  0  0  0  0
  134.6130   73.1150  225.3010 C   0  0  0  0  0  0  0  0  0  0  0  0
  133.6030   74.0700  224.6520 C   0  0  0  0  0  0  0  0  0  0  0  0
  134.3370   74.4920  223.4000 C   0  0  1  0  0  0  0  0  0  0  0  0
  135.2510   75.6460  223.7160 C   0  0  0  0  0  0  0  0  0  0  0  0
  135.1780   76.0460  224.9290 O   0  0  0  0  0  0  0  0  0  0  0  0
  136.1100   76.2440  222.7940 N   0  0  0  0  0  0  0  0  0  0  0  0
  136.9980   77.3590  223.0800 C   0  0  0  0  0  0  0  0  0  0  0  0
  138.3750   77.1450  222.5710 C   0  0  0  0  0  0  0  0  0  0  0  0
  139.1900   78.2380  222.3050 C   0  0  0  0  0  0  0  0  0  0  0  0
  140.4790   78.1020  221.8330 C   0  0  0  0  0  0  0  0  0  0  0  0
  140.9940   76.8210  221.6090 C   0  0  0  0  0  0  0  0  0  0  0  0
  140.2040   75.7190  221.8650 C   0  0  0  0  0  0  0  0  0  0  0  0
  140.7150   74.3710  221.6380 C   0  0  0  0  0  0  0  0  0  0  0  0
  140.4320   73.3630  222.4810 N   0  0  0  0  0  0  0  0  0  0  0  0
  140.9220   72.1100  222.2480 C   0  0  0  0  0  0  0  0  0  0  0  0
  141.7190   71.8330  221.1520 C   0  0  0  0  0  0  0  0  0  0  0  0
  141.9980   72.8880  220.2960 C   0  0  0  0  0  0  0  0  0  0  0  0
  141.4880   74.1210  220.5670 N   0  0  0  0  0  0  0  0  0  0  0  0
  138.9230   75.9040  222.3360 C   0  0  0  0  0  0  0  0  0  0  0  0
  138.5570   70.1770  224.0200 C   0  0  0  0  0  0  0  0  0  0  0  0
  138.5550   68.7950  224.1170 C   0  0  0  0  0  0  0  0  0  0  0  0
  139.1850   68.1780  225.1690 C   0  0  0  0  0  0  0  0  0  0  0  0
  139.8170   68.9290  226.1280 C   0  0  0  0  0  0  0  0  0  0  0  0
  140.4340   68.2930  227.1610 C   0  0  0  0  0  0  0  0  0  0  0  0
  141.0680   69.0470  228.1240 C   0  0  0  0  0  0  0  0  0  0  0  0
  141.7000   68.4580  229.1780 F   0  0  0  0  0  0  0  0  0  0  0  0
  141.0510   70.4220  227.9990 C   0  0  0  0  0  0  0  0  0  0  0  0
  140.4280   71.0770  226.9560 C   0  0  0  0  0  0  0  0  0  0  0  0
  139.7980   70.3070  226.0000 C   0  0  0  0  0  0  0  0  0  0  0  0
  139.1800   70.9200  224.9670 N   0  0  0  0  0  0  0  0  0  0  0  0
  138.6020   72.7410  223.4130 H   0  0  0  0  0  0  0  0  0  0  0  0
  138.0056   73.7137  221.2956 H   0  0  0  0  0  0  0  0  0  0  0  0
  137.1941   72.1164  220.8531 H   0  0  0  0  0  0  0  0  0  0  0  0
  134.3669   71.5721  223.7602 H   0  0  0  0  0  0  0  0  0  0  0  0
  136.0338   71.7666  224.2514 H   0  0  0  0  0  0  0  0  0  0  0  0
  134.1301   72.4549  226.0365 H   0  0  0  0  0  0  0  0  0  0  0  0
  135.4116   73.6158  225.8680 H   0  0  0  0  0  0  0  0  0  0  0  0
  132.6622   73.5539  224.4100 H   0  0  0  0  0  0  0  0  0  0  0  0
  133.3048   74.9091  225.2978 H   0  0  0  0  0  0  0  0  0  0  0  0
  133.6201   74.7559  222.6086 H   0  0  0  0  0  0  0  0  0  0  0  0
  136.1590   75.8860  221.8000 H   0  0  0  0  0  0  0  0  0  0  0  0
  136.5869   78.2647  222.6102 H   0  0  0  0  0  0  0  0  0  0  0  0
  137.0618   77.4584  224.1736 H   0  0  0  0  0  0  0  0  0  0  0  0
  138.7928   79.2493  222.4771 H   0  0  0  0  0  0  0  0  0  0  0  0
  141.0952   78.9914  221.6349 H   0  0  0  0  0  0  0  0  0  0  0  0
  142.0195   76.6932  221.2322 H   0  0  0  0  0  0  0  0  0  0  0  0
  140.6765   71.2997  222.9503 H   0  0  0  0  0  0  0  0  0  0  0  0
  142.1133   70.8227  220.9678 H   0  0  0  0  0  0  0  0  0  0  0  0
  142.6255   72.7301  219.4064 H   0  0  0  0  0  0  0  0  0  0  0  0
  138.3064   75.0150  222.5345 H   0  0  0  0  0  0  0  0  0  0  0  0
  138.0479   68.1913  223.3500 H   0  0  0  0  0  0  0  0  0  0  0  0
  139.1832   67.0805  225.2434 H   0  0  0  0  0  0  0  0  0  0  0  0
  140.4266   67.1949  227.2259 H   0  0  0  0  0  0  0  0  0  0  0  0
  141.5582   71.0241  228.7673 H   0  0  0  0  0  0  0  0  0  0  0  0
  140.4335   72.1750  226.8892 H   0  0  0  0  0  0  0  0  0  0  0  0
  1  2  2  0
  2  3  1  0
  3  4  1  0
  4  5  1  0
  5  6  2  0
  5  7  1  0
  7  8  1  0
  8  9  1  0
  9 10  1  0
 10 11  1  0
 11 12  1  0
 12 13  2  0
 12 14  1  0
 14 15  1  0
 15 16  1  0
 16 17  2  0
 17 18  1  0
 18 19  2  0
 19 20  1  0
 20 21  1  0
 21 22  2  0
 22 23  1  0
 23 24  2  0
 24 25  1  0
 25 26  2  0
 20 27  2  0
  2 28  1  0
 28 29  2  0
 29 30  1  0
 30 31  2  0
 31 32  1  0
 32 33  2  0
 33 34  1  0
 33 35  1  0
 35 36  2  0
 36 37  1  0
 37 38  2  0
 11  7  1  0
 27 16  1  0
 38 28  1  0
 26 21  1  0
 37 31  1  0
  3 39  1  0
  4 40  1  0
  4 41  1  0
  8 42  1  0
  8 43  1  0
  9 44  1  0
  9 45  1  0
 10 46  1  0
 10 47  1  0
 11 48  1  6
 14 49  1  0
 15 50  1  0
 15 51  1  0
 17 52  1  0
 18 53  1  0
 19 54  1  0
 23 55  1  0
 24 56  1  0
 25 57  1  0
 27 58  1  0
 29 59  1  0
 30 60  1  0
 32 61  1  0
 35 62  1  0
 36 63  1  0
M  END
>  <smiles>  (33) 
O=C(NCC(=O)N1CCC[C@H]1C(=O)NCc1cccc(-c2ncccn2)c1)c1ccc2cc(F)ccc2n1

>  <score_type>  (33) 
oracle

>  <origin>  (33) 
autodockgpu

>  <m_score__min__energy>  (33) 
-9.8599999999999994

>  <m_primary>  (33) 
energy

>  <rmsd>  (33) 
5.311444426348629

>  <m_score__min__rmsd>  (33) 
5.311444426348629

>  <meeko>  (33) 
{"free_energy": -7.91, "intermolecular_energy": -10.29, "internal_energy": -4.41, "cluster_size": 6, "cluster_id": 8, "rank_in_cluster": 4}

>  <energy>  (33) 
-7.71

>  <cluster_rmsd>  (33) 
1.73

>  <cluster>  (33) 
9

$$$$

     RDKit          3D

 63 67  0  0  0  0  0  0  0  0999 V2000
  139.0900   72.5540  221.0820 O   0  0  0  0  0  0  0  0  0  0  0  0
  140.0640   72.4340  221.8800 C   0  0  0  0  0  0  0  0  0  0  0  0
  141.3530   73.0070  221.5900 N   0  0  0  0  0  0  0  0  0  0  0  0
  141.5690   73.7370  220.3860 C   0  0  0  0  0  0  0  0  0  0  0  0
  140.8540   74.9860  220.2710 C   0  0  0  0  0  0  0  0  0  0  0  0
  139.7890   74.9150  219.5130 O   0  0  0  0  0  0  0  0  0  0  0  0
  141.1040   76.2580  220.8210 N   0  0  0  0  0  0  0  0  0  0  0  0
  141.8260   77.4050  220.2900 C   0  0  0  0  0  0  0  0  0  0  0  0
  141.1890   78.5860  221.0500 C   0  0  0  0  0  0  0  0  0  0  0  0
  141.0750   78.0000  222.4630 C   0  0  0  0  0  0  0  0  0  0  0  0
  140.5950   76.5960  222.1750 C   0  0  1  0  0  0  0  0  0  0  0  0
  139.0960   76.5940  222.0370 C   0  0  0  0  0  0  0  0  0  0  0  0
  138.6770   77.1140  220.9460 O   0  0  0  0  0  0  0  0  0  0  0  0
  138.2180   76.0800  222.9910 N   0  0  0  0  0  0  0  0  0  0  0  0
  136.7680   76.0710  222.8760 C   0  0  0  0  0  0  0  0  0  0  0  0
  136.1620   74.7970  223.3320 C   0  0  0  0  0  0  0  0  0  0  0  0
  136.5580   73.5980  222.7530 C   0  0  0  0  0  0  0  0  0  0  0  0
  136.0320   72.3820  223.1370 C   0  0  0  0  0  0  0  0  0  0  0  0
  135.0630   72.3420  224.1450 C   0  0  0  0  0  0  0  0  0  0  0  0
  134.6530   73.5200  224.7350 C   0  0  0  0  0  0  0  0  0  0  0  0
  133.6420   73.5080  225.7880 C   0  0  0  0  0  0  0  0  0  0  0  0
  133.4510   74.5710  226.5890 N   0  0  0  0  0  0  0  0  0  0  0  0
  132.5000   74.5370  227.5660 C   0  0  0  0  0  0  0  0  0  0  0  0
  131.7060   73.4220  227.7700 C   0  0  0  0  0  0  0  0  0  0  0  0
  131.9190   72.3380  226.9330 C   0  0  0  0  0  0  0  0  0  0  0  0
  132.8800   72.4160  225.9700 N   0  0  0  0  0  0  0  0  0  0  0  0
  135.2060   74.7110  224.3190 C   0  0  0  0  0  0  0  0  0  0  0  0
  139.9030   71.6980  223.1450 C   0  0  0  0  0  0  0  0  0  0  0  0
  138.9560   70.6900  223.2060 C   0  0  0  0  0  0  0  0  0  0  0  0
  138.7770   69.9820  224.3690 C   0  0  0  0  0  0  0  0  0  0  0  0
  139.5370   70.2730  225.4750 C   0  0  0  0  0  0  0  0  0  0  0  0
  139.3410   69.5580  226.6150 C   0  0  0  0  0  0  0  0  0  0  0  0
  140.1030   69.8500  227.7250 C   0  0  0  0  0  0  0  0  0  0  0  0
  139.9440   69.1630  228.8910 F   0  0  0  0  0  0  0  0  0  0  0  0
  141.0380   70.8620  227.6310 C   0  0  0  0  0  0  0  0  0  0  0  0
  141.2450   71.5940  226.4800 C   0  0  0  0  0  0  0  0  0  0  0  0
  140.4730   71.2890  225.3780 C   0  0  0  0  0  0  0  0  0  0  0  0
  140.6530   71.9880  224.2360 N   0  0  0  0  0  0  0  0  0  0  0  0
  142.1190   72.8560  222.3110 H   0  0  0  0  0  0  0  0  0  0  0  0
  142.6445   73.9559  220.3125 H   0  0  0  0  0  0  0  0  0  0  0  0
  141.1858   73.0981  219.5767 H   0  0  0  0  0  0  0  0  0  0  0  0
  142.9025   77.3299  220.5035 H   0  0  0  0  0  0  0  0  0  0  0  0
  141.7537   77.4990  219.1964 H   0  0  0  0  0  0  0  0  0  0  0  0
  141.8377   79.4742  221.0325 H   0  0  0  0  0  0  0  0  0  0  0  0
  140.2358   78.9355  220.6266 H   0  0  0  0  0  0  0  0  0  0  0  0
  142.0490   77.9938  222.9742 H   0  0  0  0  0  0  0  0  0  0  0  0
  140.4123   78.5702  223.1306 H   0  0  0  0  0  0  0  0  0  0  0  0
  140.9235   75.9108  222.9704 H   0  0  0  0  0  0  0  0  0  0  0  0
  138.5910   75.6460  223.8810 H   0  0  0  0  0  0  0  0  0  0  0  0
  136.3622   76.8912  223.4864 H   0  0  0  0  0  0  0  0  0  0  0  0
  136.5201   76.1925  221.8112 H   0  0  0  0  0  0  0  0  0  0  0  0
  137.3191   73.6190  221.9591 H   0  0  0  0  0  0  0  0  0  0  0  0
  136.3712   71.4530  222.6553 H   0  0  0  0  0  0  0  0  0  0  0  0
  134.6323   71.3814  224.4640 H   0  0  0  0  0  0  0  0  0  0  0  0
  132.3604   75.4188  228.2086 H   0  0  0  0  0  0  0  0  0  0  0  0
  130.9410   73.3972  228.5601 H   0  0  0  0  0  0  0  0  0  0  0  0
  131.3181   71.4235  227.0450 H   0  0  0  0  0  0  0  0  0  0  0  0
  134.8666   75.6404  224.7997 H   0  0  0  0  0  0  0  0  0  0  0  0
  138.3458   70.4558  222.3212 H   0  0  0  0  0  0  0  0  0  0  0  0
  138.0242   69.1812  224.4146 H   0  0  0  0  0  0  0  0  0  0  0  0
  138.5858   68.7590  226.6503 H   0  0  0  0  0  0  0  0  0  0  0  0
  141.6471   71.0958  228.5166 H   0  0  0  0  0  0  0  0  0  0  0  0
  141.9997   72.3934  226.4422 H   0  0  0  0  0  0  0  0  0  0  0  0
  1  2  2  0
  2  3  1  0
  3  4  1  0
  4  5  1  0
  5  6  2  0
  5  7  1  0
  7  8  1  0
  8  9  1  0
  9 10  1  0
 10 11  1  0
 11 12  1  0
 12 13  2  0
 12 14  1  0
 14 15  1  0
 15 16  1  0
 16 17  2  0
 17 18  1  0
 18 19  2  0
 19 20  1  0
 20 21  1  0
 21 22  2  0
 22 23  1  0
 23 24  2  0
 24 25  1  0
 25 26  2  0
 20 27  2  0
  2 28  1  0
 28 29  2  0
 29 30  1  0
 30 31  2  0
 31 32  1  0
 32 33  2  0
 33 34  1  0
 33 35  1  0
 35 36  2  0
 36 37  1  0
 37 38  2  0
 11  7  1  0
 27 16  1  0
 38 28  1  0
 26 21  1  0
 37 31  1  0
  3 39  1  0
  4 40  1  0
  4 41  1  0
  8 42  1  0
  8 43  1  0
  9 44  1  0
  9 45  1  0
 10 46  1  0
 10 47  1  0
 11 48  1  1
 14 49  1  0
 15 50  1  0
 15 51  1  0
 17 52  1  0
 18 53  1  0
 19 54  1  0
 23 55  1  0
 24 56  1  0
 25 57  1  0
 27 58  1  0
 29 59  1  0
 30 60  1  0
 32 61  1  0
 35 62  1  0
 36 63  1  0
M  END
>  <smiles>  (34) 
O=C(NCC(=O)N1CCC[C@H]1C(=O)NCc1cccc(-c2ncccn2)c1)c1ccc2cc(F)ccc2n1

>  <score_type>  (34) 
oracle

>  <origin>  (34) 
autodockgpu

>  <m_score__min__energy>  (34) 
-9.8599999999999994

>  <m_primary>  (34) 
energy

>  <rmsd>  (34) 
4.93605139612756

>  <m_score__min__rmsd>  (34) 
4.93605139612756

>  <meeko>  (34) 
{"free_energy": -8.39, "intermolecular_energy": -10.77, "internal_energy": -2.81, "cluster_size": 2, "cluster_id": 10, "rank_in_cluster": 1}

>  <energy>  (34) 
-8.39

>  <cluster_rmsd>  (34) 
0.0

>  <cluster>  (34) 
10

$$$$

     RDKit          3D

 63 67  0  0  0  0  0  0  0  0999 V2000
  138.1590   70.1200  221.7400 O   0  0  0  0  0  0  0  0  0  0  0  0
  138.6880   70.7530  222.6980 C   0  0  0  0  0  0  0  0  0  0  0  0
  138.8960   72.1770  222.6400 N   0  0  0  0  0  0  0  0  0  0  0  0
  138.5020   72.9220  221.4920 C   0  0  0  0  0  0  0  0  0  0  0  0
  138.9920   74.2780  221.4230 C   0  0  0  0  0  0  0  0  0  0  0  0
  139.6010   74.6740  222.5120 O   0  0  0  0  0  0  0  0  0  0  0  0
  138.9250   75.2430  220.4000 N   0  0  0  0  0  0  0  0  0  0  0  0
  137.7890   75.9460  219.8220 C   0  0  0  0  0  0  0  0  0  0  0  0
  138.4330   77.2360  219.2740 C   0  0  0  0  0  0  0  0  0  0  0  0
  139.7260   76.6810  218.6620 C   0  0  0  0  0  0  0  0  0  0  0  0
  140.1650   75.6920  219.7170 C   0  0  1  0  0  0  0  0  0  0  0  0
  140.9560   76.4060  220.7800 C   0  0  0  0  0  0  0  0  0  0  0  0
  142.1990   76.5300  220.5030 O   0  0  0  0  0  0  0  0  0  0  0  0
  140.4130   76.9000  221.9660 N   0  0  0  0  0  0  0  0  0  0  0  0
  141.1620   77.5900  223.0050 C   0  0  0  0  0  0  0  0  0  0  0  0
  141.3890   79.0230  222.6940 C   0  0  0  0  0  0  0  0  0  0  0  0
  141.5100   79.9430  223.7290 C   0  0  0  0  0  0  0  0  0  0  0  0
  141.7240   81.2860  223.5030 C   0  0  0  0  0  0  0  0  0  0  0  0
  141.8240   81.7520  222.1880 C   0  0  0  0  0  0  0  0  0  0  0  0
  141.7070   80.8580  221.1430 C   0  0  0  0  0  0  0  0  0  0  0  0
  141.8050   81.3170  219.7610 C   0  0  0  0  0  0  0  0  0  0  0  0
  141.5280   82.5870  219.4210 N   0  0  0  0  0  0  0  0  0  0  0  0
  141.6260   82.9930  218.1220 C   0  0  0  0  0  0  0  0  0  0  0  0
  142.0100   82.1240  217.1160 C   0  0  0  0  0  0  0  0  0  0  0  0
  142.2910   80.8180  217.4880 C   0  0  0  0  0  0  0  0  0  0  0  0
  142.1800   80.4570  218.7970 N   0  0  0  0  0  0  0  0  0  0  0  0
  141.4940   79.5250  221.4170 C   0  0  0  0  0  0  0  0  0  0  0  0
  139.1090   70.0420  223.9160 C   0  0  0  0  0  0  0  0  0  0  0  0
  138.8780   68.6790  223.9990 C   0  0  0  0  0  0  0  0  0  0  0  0
  139.2560   67.9820  225.1200 C   0  0  0  0  0  0  0  0  0  0  0  0
  139.8650   68.6360  226.1630 C   0  0  0  0  0  0  0  0  0  0  0  0
  140.2300   67.9240  227.2630 C   0  0  0  0  0  0  0  0  0  0  0  0
  140.8400   68.5790  228.3090 C   0  0  0  0  0  0  0  0  0  0  0  0
  141.2250   67.9110  229.4320 F   0  0  0  0  0  0  0  0  0  0  0  0
  141.0560   69.9390  228.1960 C   0  0  0  0  0  0  0  0  0  0  0  0
  140.6890   70.6710  227.0850 C   0  0  0  0  0  0  0  0  0  0  0  0
  140.0790   69.9990  226.0460 C   0  0  0  0  0  0  0  0  0  0  0  0
  139.7090   70.6890  224.9460 N   0  0  0  0  0  0  0  0  0  0  0  0
  139.3510   72.6310  223.4860 H   0  0  0  0  0  0  0  0  0  0  0  0
  138.8644   72.3868  220.6019 H   0  0  0  0  0  0  0  0  0  0  0  0
  137.4066   73.0034  221.5509 H   0  0  0  0  0  0  0  0  0  0  0  0
  137.3279   75.3586  219.0143 H   0  0  0  0  0  0  0  0  0  0  0  0
  136.9790   76.1339  220.5422 H   0  0  0  0  0  0  0  0  0  0  0  0
  137.7979   77.7126  218.5127 H   0  0  0  0  0  0  0  0  0  0  0  0
  138.5892   78.0207  220.0289 H   0  0  0  0  0  0  0  0  0  0  0  0
  139.5327   76.1824  217.7007 H   0  0  0  0  0  0  0  0  0  0  0  0
  140.4772   77.4509  218.4318 H   0  0  0  0  0  0  0  0  0  0  0  0
  140.7524   74.8827  219.2587 H   0  0  0  0  0  0  0  0  0  0  0  0
  139.3800   76.7930  222.1650 H   0  0  0  0  0  0  0  0  0  0  0  0
  140.6009   77.5196  223.9485 H   0  0  0  0  0  0  0  0  0  0  0  0
  142.1474   77.1069  223.0796 H   0  0  0  0  0  0  0  0  0  0  0  0
  141.4321   79.5863  224.7666 H   0  0  0  0  0  0  0  0  0  0  0  0
  141.8152   81.9840  224.3483 H   0  0  0  0  0  0  0  0  0  0  0  0
  141.9942   82.8203  221.9887 H   0  0  0  0  0  0  0  0  0  0  0  0
  141.3938   84.0378  217.8680 H   0  0  0  0  0  0  0  0  0  0  0  0
  142.0887   82.4539  216.0696 H   0  0  0  0  0  0  0  0  0  0  0  0
  142.6007   80.0803  216.7331 H   0  0  0  0  0  0  0  0  0  0  0  0
  141.4032   78.8263  220.5722 H   0  0  0  0  0  0  0  0  0  0  0  0
  138.3905   68.1534  223.1647 H   0  0  0  0  0  0  0  0  0  0  0  0
  139.0710   66.8995  225.1828 H   0  0  0  0  0  0  0  0  0  0  0  0
  140.0407   66.8417  227.3160 H   0  0  0  0  0  0  0  0  0  0  0  0
  141.5436   70.4632  229.0311 H   0  0  0  0  0  0  0  0  0  0  0  0
  140.8765   71.7535  227.0299 H   0  0  0  0  0  0  0  0  0  0  0  0
  1  2  2  0
  2  3  1  0
  3  4  1  0
  4  5  1  0
  5  6  2  0
  5  7  1  0
  7  8  1  0
  8  9  1  0
  9 10  1  0
 10 11  1  0
 11 12  1  0
 12 13  2  0
 12 14  1  0
 14 15  1  0
 15 16  1  0
 16 17  2  0
 17 18  1  0
 18 19  2  0
 19 20  1  0
 20 21  1  0
 21 22  2  0
 22 23  1  0
 23 24  2  0
 24 25  1  0
 25 26  2  0
 20 27  2  0
  2 28  1  0
 28 29  2  0
 29 30  1  0
 30 31  2  0
 31 32  1  0
 32 33  2  0
 33 34  1  0
 33 35  1  0
 35 36  2  0
 36 37  1  0
 37 38  2  0
 11  7  1  0
 27 16  1  0
 38 28  1  0
 26 21  1  0
 37 31  1  0
  3 39  1  0
  4 40  1  0
  4 41  1  0
  8 42  1  0
  8 43  1  0
  9 44  1  0
  9 45  1  0
 10 46  1  0
 10 47  1  0
 11 48  1  6
 14 49  1  0
 15 50  1  0
 15 51  1  0
 17 52  1  0
 18 53  1  0
 19 54  1  0
 23 55  1  0
 24 56  1  0
 25 57  1  0
 27 58  1  0
 29 59  1  0
 30 60  1  0
 32 61  1  0
 35 62  1  0
 36 63  1  0
M  END
>  <smiles>  (35) 
O=C(NCC(=O)N1CCC[C@H]1C(=O)NCc1cccc(-c2ncccn2)c1)c1ccc2cc(F)ccc2n1

>  <score_type>  (35) 
oracle

>  <origin>  (35) 
autodockgpu

>  <m_score__min__energy>  (35) 
-9.8599999999999994

>  <m_primary>  (35) 
energy

>  <rmsd>  (35) 
1.9096881984480094

>  <m_score__min__rmsd>  (35) 
1.9096881984480094

>  <meeko>  (35) 
{"free_energy": -8.69, "intermolecular_energy": -11.08, "internal_energy": -3.17, "cluster_size": 5, "cluster_id": 2, "rank_in_cluster": 5}

>  <energy>  (35) 
-8.05

>  <cluster_rmsd>  (35) 
0.99

>  <cluster>  (35) 
10

$$$$

     RDKit          3D

 63 67  0  0  0  0  0  0  0  0999 V2000
  138.9790   77.9980  222.3180 O   0  0  0  0  0  0  0  0  0  0  0  0
  139.8970   77.1300  222.3650 C   0  0  0  0  0  0  0  0  0  0  0  0
  141.1550   77.3940  223.0140 N   0  0  0  0  0  0  0  0  0  0  0  0
  141.4010   78.6520  223.6350 C   0  0  0  0  0  0  0  0  0  0  0  0
  141.8710   79.7030  222.7640 C   0  0  0  0  0  0  0  0  0  0  0  0
  143.1380   79.6020  222.4530 O   0  0  0  0  0  0  0  0  0  0  0  0
  141.2110   80.8120  222.2020 N   0  0  0  0  0  0  0  0  0  0  0  0
  141.4700   82.2400  222.3180 C   0  0  0  0  0  0  0  0  0  0  0  0
  140.8520   82.8030  221.0210 C   0  0  0  0  0  0  0  0  0  0  0  0
  139.5530   81.9900  220.9390 C   0  0  0  0  0  0  0  0  0  0  0  0
  140.0290   80.6090  221.3250 C   0  0  1  0  0  0  0  0  0  0  0  0
  140.5660   79.9030  220.1090 C   0  0  0  0  0  0  0  0  0  0  0  0
  139.6580   79.4860  219.3100 O   0  0  0  0  0  0  0  0  0  0  0  0
  141.9220   79.7070  219.8470 N   0  0  0  0  0  0  0  0  0  0  0  0
  142.4590   79.0260  218.6790 C   0  0  0  0  0  0  0  0  0  0  0  0
  142.2240   77.5620  218.7070 C   0  0  0  0  0  0  0  0  0  0  0  0
  141.0920   77.0320  218.0990 C   0  0  0  0  0  0  0  0  0  0  0  0
  140.8220   75.6800  218.0900 C   0  0  0  0  0  0  0  0  0  0  0  0
  141.7120   74.8000  218.7140 C   0  0  0  0  0  0  0  0  0  0  0  0
  142.8430   75.3010  219.3250 C   0  0  0  0  0  0  0  0  0  0  0  0
  143.7870   74.4060  219.9860 C   0  0  0  0  0  0  0  0  0  0  0  0
  143.5290   73.0940  220.1280 N   0  0  0  0  0  0  0  0  0  0  0  0
  144.4270   72.2770  220.7490 C   0  0  0  0  0  0  0  0  0  0  0  0
  145.6240   72.7590  221.2510 C   0  0  0  0  0  0  0  0  0  0  0  0
  145.8700   74.1140  221.0930 C   0  0  0  0  0  0  0  0  0  0  0  0
  144.9450   74.8930  220.4670 N   0  0  0  0  0  0  0  0  0  0  0  0
  143.0720   76.6590  219.3080 C   0  0  0  0  0  0  0  0  0  0  0  0
  139.7010   75.8070  221.7490 C   0  0  0  0  0  0  0  0  0  0  0  0
  138.6910   75.6570  220.8130 C   0  0  0  0  0  0  0  0  0  0  0  0
  138.4780   74.4380  220.2190 C   0  0  0  0  0  0  0  0  0  0  0  0
  139.2660   73.3640  220.5510 C   0  0  0  0  0  0  0  0  0  0  0  0
  139.0350   72.1670  219.9480 C   0  0  0  0  0  0  0  0  0  0  0  0
  139.8260   71.0890  220.2820 C   0  0  0  0  0  0  0  0  0  0  0  0
  139.6340   69.8690  219.7060 F   0  0  0  0  0  0  0  0  0  0  0  0
  140.8240   71.2710  221.2190 C   0  0  0  0  0  0  0  0  0  0  0  0
  141.0660   72.4810  221.8370 C   0  0  0  0  0  0  0  0  0  0  0  0
  140.2650   73.5500  221.4910 C   0  0  0  0  0  0  0  0  0  0  0  0
  140.4790   74.7480  222.0790 N   0  0  0  0  0  0  0  0  0  0  0  0
  141.8740   76.6120  223.0050 H   0  0  0  0  0  0  0  0  0  0  0  0
  140.4609   78.9905  224.0951 H   0  0  0  0  0  0  0  0  0  0  0  0
  142.2140   78.4753  224.3545 H   0  0  0  0  0  0  0  0  0  0  0  0
  140.9783   82.6614  223.2072 H   0  0  0  0  0  0  0  0  0  0  0  0
  142.5367   82.4822  222.4343 H   0  0  0  0  0  0  0  0  0  0  0  0
  140.6494   83.8809  221.1048 H   0  0  0  0  0  0  0  0  0  0  0  0
  141.4985   82.7155  220.1353 H   0  0  0  0  0  0  0  0  0  0  0  0
  138.7994   82.3664  221.6464 H   0  0  0  0  0  0  0  0  0  0  0  0
  139.0611   82.0335  219.9561 H   0  0  0  0  0  0  0  0  0  0  0  0
  139.2095   80.0398  221.7880 H   0  0  0  0  0  0  0  0  0  0  0  0
  142.6530   80.0710  220.5190 H   0  0  0  0  0  0  0  0  0  0  0  0
  141.9808   79.4413  217.7796 H   0  0  0  0  0  0  0  0  0  0  0  0
  143.5473   79.1861  218.6743 H   0  0  0  0  0  0  0  0  0  0  0  0
  140.3855   77.7165  217.6068 H   0  0  0  0  0  0  0  0  0  0  0  0
  139.9160   75.2975  217.5972 H   0  0  0  0  0  0  0  0  0  0  0  0
  141.5121   73.7183  218.7176 H   0  0  0  0  0  0  0  0  0  0  0  0
  144.1943   71.2070  220.8538 H   0  0  0  0  0  0  0  0  0  0  0  0
  146.3461   72.0975  221.7519 H   0  0  0  0  0  0  0  0  0  0  0  0
  146.8041   74.5560  221.4699 H   0  0  0  0  0  0  0  0  0  0  0  0
  143.9786   77.0417  219.7996 H   0  0  0  0  0  0  0  0  0  0  0  0
  138.0585   76.5162  220.5453 H   0  0  0  0  0  0  0  0  0  0  0  0
  137.6751   74.3216  219.4762 H   0  0  0  0  0  0  0  0  0  0  0  0
  138.2300   72.0610  219.2059 H   0  0  0  0  0  0  0  0  0  0  0  0
  141.4559   70.4109  221.4853 H   0  0  0  0  0  0  0  0  0  0  0  0
  141.8699   72.5896  222.5800 H   0  0  0  0  0  0  0  0  0  0  0  0
  1  2  2  0
  2  3  1  0
  3  4  1  0
  4  5  1  0
  5  6  2  0
  5  7  1  0
  7  8  1  0
  8  9  1  0
  9 10  1  0
 10 11  1  0
 11 12  1  0
 12 13  2  0
 12 14  1  0
 14 15  1  0
 15 16  1  0
 16 17  2  0
 17 18  1  0
 18 19  2  0
 19 20  1  0
 20 21  1  0
 21 22  2  0
 22 23  1  0
 23 24  2  0
 24 25  1  0
 25 26  2  0
 20 27  2  0
  2 28  1  0
 28 29  2  0
 29 30  1  0
 30 31  2  0
 31 32  1  0
 32 33  2  0
 33 34  1  0
 33 35  1  0
 35 36  2  0
 36 37  1  0
 37 38  2  0
 11  7  1  0
 27 16  1  0
 38 28  1  0
 26 21  1  0
 37 31  1  0
  3 39  1  0
  4 40  1  0
  4 41  1  0
  8 42  1  0
  8 43  1  0
  9 44  1  0
  9 45  1  0
 10 46  1  0
 10 47  1  0
 11 48  1  1
 14 49  1  0
 15 50  1  0
 15 51  1  0
 17 52  1  0
 18 53  1  0
 19 54  1  0
 23 55  1  0
 24 56  1  0
 25 57  1  0
 27 58  1  0
 29 59  1  0
 30 60  1  0
 32 61  1  0
 35 62  1  0
 36 63  1  0
M  END
>  <smiles>  (36) 
O=C(NCC(=O)N1CCC[C@H]1C(=O)NCc1cccc(-c2ncccn2)c1)c1ccc2cc(F)ccc2n1

>  <score_type>  (36) 
oracle

>  <origin>  (36) 
autodockgpu

>  <m_score__min__energy>  (36) 
-9.8599999999999994

>  <m_primary>  (36) 
energy

>  <rmsd>  (36) 
6.55215657341898

>  <m_score__min__rmsd>  (36) 
6.55215657341898

>  <meeko>  (36) 
{"free_energy": -6.63, "intermolecular_energy": -9.01, "internal_energy": -5.17, "cluster_size": 2, "cluster_id": 17, "rank_in_cluster": 1}

>  <energy>  (36) 
-8.17

>  <cluster_rmsd>  (36) 
0.0

>  <cluster>  (36) 
11

$$$$

     RDKit          3D

 63 67  0  0  0  0  0  0  0  0999 V2000
  135.7930   76.6580  221.8300 O   0  0  0  0  0  0  0  0  0  0  0  0
  136.9310   76.3800  222.3050 C   0  0  0  0  0  0  0  0  0  0  0  0
  137.3300   75.0210  222.5650 N   0  0  0  0  0  0  0  0  0  0  0  0
  136.4470   73.9390  222.2860 C   0  0  0  0  0  0  0  0  0  0  0  0
  136.9500   72.6210  222.5920 C   0  0  0  0  0  0  0  0  0  0  0  0
  136.3360   72.0430  223.5930 O   0  0  0  0  0  0  0  0  0  0  0  0
  137.9800   71.8570  222.0110 N   0  0  0  0  0  0  0  0  0  0  0  0
  137.9330   70.6980  221.1320 C   0  0  0  0  0  0  0  0  0  0  0  0
  139.2850   70.7770  220.3940 C   0  0  0  0  0  0  0  0  0  0  0  0
  140.2240   71.1660  221.5440 C   0  0  0  0  0  0  0  0  0  0  0  0
  139.4010   72.2010  222.2760 C   0  0  1  0  0  0  0  0  0  0  0  0
  139.6000   73.5490  221.6370 C   0  0  0  0  0  0  0  0  0  0  0  0
  140.3020   74.3550  222.3390 O   0  0  0  0  0  0  0  0  0  0  0  0
  139.0820   73.9140  220.3940 N   0  0  0  0  0  0  0  0  0  0  0  0
  139.2630   75.2120  219.7620 C   0  0  0  0  0  0  0  0  0  0  0  0
  140.6780   75.6540  219.7500 C   0  0  0  0  0  0  0  0  0  0  0  0
  140.9800   76.9980  219.5700 C   0  0  0  0  0  0  0  0  0  0  0  0
  142.2760   77.4690  219.5520 C   0  0  0  0  0  0  0  0  0  0  0  0
  143.3340   76.5700  219.7190 C   0  0  0  0  0  0  0  0  0  0  0  0
  143.0610   75.2290  219.8990 C   0  0  0  0  0  0  0  0  0  0  0  0
  144.1450   74.2680  220.0740 C   0  0  0  0  0  0  0  0  0  0  0  0
  144.0970   73.0470  219.5140 N   0  0  0  0  0  0  0  0  0  0  0  0
  145.1220   72.1650  219.6920 C   0  0  0  0  0  0  0  0  0  0  0  0
  146.2370   72.4880  220.4450 C   0  0  0  0  0  0  0  0  0  0  0  0
  146.2660   73.7520  221.0130 C   0  0  0  0  0  0  0  0  0  0  0  0
  145.2200   74.6000  220.8100 N   0  0  0  0  0  0  0  0  0  0  0  0
  141.7500   74.8050  219.9100 C   0  0  0  0  0  0  0  0  0  0  0  0
  137.8930   77.4530  222.6080 C   0  0  0  0  0  0  0  0  0  0  0  0
  137.4120   78.7370  222.7970 C   0  0  0  0  0  0  0  0  0  0  0  0
  138.2790   79.7640  223.0800 C   0  0  0  0  0  0  0  0  0  0  0  0
  139.6260   79.5190  223.1760 C   0  0  0  0  0  0  0  0  0  0  0  0
  140.4650   80.5520  223.4570 C   0  0  0  0  0  0  0  0  0  0  0  0
  141.8170   80.3060  223.5530 C   0  0  0  0  0  0  0  0  0  0  0  0
  142.6980   81.3070  223.8330 F   0  0  0  0  0  0  0  0  0  0  0  0
  142.2650   79.0140  223.3580 C   0  0  0  0  0  0  0  0  0  0  0  0
  141.4230   77.9590  223.0720 C   0  0  0  0  0  0  0  0  0  0  0  0
  140.0720   78.2220  222.9800 C   0  0  0  0  0  0  0  0  0  0  0  0
  139.2230   77.2090  222.7010 N   0  0  0  0  0  0  0  0  0  0  0  0
  138.3020   74.8740  222.9690 H   0  0  0  0  0  0  0  0  0  0  0  0
  135.5286   74.0937  222.8713 H   0  0  0  0  0  0  0  0  0  0  0  0
  136.2923   73.9537  221.1970 H   0  0  0  0  0  0  0  0  0  0  0  0
  137.8502   69.7654  221.7094 H   0  0  0  0  0  0  0  0  0  0  0  0
  137.0657   70.6983  220.4554 H   0  0  0  0  0  0  0  0  0  0  0  0
  139.5633   69.8072  219.9557 H   0  0  0  0  0  0  0  0  0  0  0  0
  139.2971   71.4740  219.5431 H   0  0  0  0  0  0  0  0  0  0  0  0
  140.4477   70.3029  222.1882 H   0  0  0  0  0  0  0  0  0  0  0  0
  141.2076   71.5306  221.2130 H   0  0  0  0  0  0  0  0  0  0  0  0
  139.6749   72.2212  223.3412 H   0  0  0  0  0  0  0  0  0  0  0  0
  138.5140   73.2240  219.8290 H   0  0  0  0  0  0  0  0  0  0  0  0
  138.9056   75.1499  218.7235 H   0  0  0  0  0  0  0  0  0  0  0  0
  138.6918   75.9474  220.3475 H   0  0  0  0  0  0  0  0  0  0  0  0
  140.1548   77.7130  219.4369 H   0  0  0  0  0  0  0  0  0  0  0  0
  142.4755   78.5411  219.4077 H   0  0  0  0  0  0  0  0  0  0  0  0
  144.3740   76.9281  219.7070 H   0  0  0  0  0  0  0  0  0  0  0  0
  145.0607   71.1710  219.2248 H   0  0  0  0  0  0  0  0  0  0  0  0
  147.0623   71.7746  220.5863 H   0  0  0  0  0  0  0  0  0  0  0  0
  147.1260   74.0672  221.6221 H   0  0  0  0  0  0  0  0  0  0  0  0
  141.5496   73.7330  220.0540 H   0  0  0  0  0  0  0  0  0  0  0  0
  136.3328   78.9354  222.7204 H   0  0  0  0  0  0  0  0  0  0  0  0
  137.8936   80.7833  223.2298 H   0  0  0  0  0  0  0  0  0  0  0  0
  140.0701   81.5679  223.6053 H   0  0  0  0  0  0  0  0  0  0  0  0
  143.3445   78.8168  223.4344 H   0  0  0  0  0  0  0  0  0  0  0  0
  141.8158   76.9425  222.9224 H   0  0  0  0  0  0  0  0  0  0  0  0
  1  2  2  0
  2  3  1  0
  3  4  1  0
  4  5  1  0
  5  6  2  0
  5  7  1  0
  7  8  1  0
  8  9  1  0
  9 10  1  0
 10 11  1  0
 11 12  1  0
 12 13  2  0
 12 14  1  0
 14 15  1  0
 15 16  1  0
 16 17  2  0
 17 18  1  0
 18 19  2  0
 19 20  1  0
 20 21  1  0
 21 22  2  0
 22 23  1  0
 23 24  2  0
 24 25  1  0
 25 26  2  0
 20 27  2  0
  2 28  1  0
 28 29  2  0
 29 30  1  0
 30 31  2  0
 31 32  1  0
 32 33  2  0
 33 34  1  0
 33 35  1  0
 35 36  2  0
 36 37  1  0
 37 38  2  0
 11  7  1  0
 27 16  1  0
 38 28  1  0
 26 21  1  0
 37 31  1  0
  3 39  1  0
  4 40  1  0
  4 41  1  0
  8 42  1  0
  8 43  1  0
  9 44  1  0
  9 45  1  0
 10 46  1  0
 10 47  1  0
 11 48  1  1
 14 49  1  0
 15 50  1  0
 15 51  1  0
 17 52  1  0
 18 53  1  0
 19 54  1  0
 23 55  1  0
 24 56  1  0
 25 57  1  0
 27 58  1  0
 29 59  1  0
 30 60  1  0
 32 61  1  0
 35 62  1  0
 36 63  1  0
M  END
>  <smiles>  (37) 
O=C(NCC(=O)N1CCC[C@H]1C(=O)NCc1cccc(-c2ncccn2)c1)c1ccc2cc(F)ccc2n1

>  <score_type>  (37) 
oracle

>  <origin>  (37) 
autodockgpu

>  <m_score__min__energy>  (37) 
-9.8599999999999994

>  <m_primary>  (37) 
energy

>  <rmsd>  (37) 
7.529436635400558

>  <m_score__min__rmsd>  (37) 
7.529436635400558

>  <meeko>  (37) 
{"free_energy": -7.62, "intermolecular_energy": -10.01, "internal_energy": -4.07, "cluster_size": 2, "cluster_id": 13, "rank_in_cluster": 1}

>  <energy>  (37) 
-8.15

>  <cluster_rmsd>  (37) 
0.0

>  <cluster>  (37) 
12

$$$$

     RDKit          3D

 63 67  0  0  0  0  0  0  0  0999 V2000
  137.2830   71.0720  221.3810 O   0  0  0  0  0  0  0  0  0  0  0  0
  138.0110   71.6780  222.2180 C   0  0  0  0  0  0  0  0  0  0  0  0
  138.3790   73.0590  222.0400 N   0  0  0  0  0  0  0  0  0  0  0  0
  137.9230   73.7910  220.9070 C   0  0  0  0  0  0  0  0  0  0  0  0
  136.6910   74.5220  221.0830 C   0  0  0  0  0  0  0  0  0  0  0  0
  136.0760   74.7960  219.9610 O   0  0  0  0  0  0  0  0  0  0  0  0
  136.0450   74.9940  222.2410 N   0  0  0  0  0  0  0  0  0  0  0  0
  135.3480   74.2830  223.3050 C   0  0  0  0  0  0  0  0  0  0  0  0
  135.4670   75.2570  224.4960 C   0  0  0  0  0  0  0  0  0  0  0  0
  135.2030   76.6000  223.8040 C   0  0  0  0  0  0  0  0  0  0  0  0
  135.9980   76.4500  222.5270 C   0  0  1  0  0  0  0  0  0  0  0  0
  137.4290   76.8430  222.7760 C   0  0  0  0  0  0  0  0  0  0  0  0
  138.1850   75.8630  223.1010 O   0  0  0  0  0  0  0  0  0  0  0  0
  137.9190   78.1450  222.6690 N   0  0  0  0  0  0  0  0  0  0  0  0
  139.2970   78.5420  222.9070 C   0  0  0  0  0  0  0  0  0  0  0  0
  140.2480   77.9210  221.9540 C   0  0  0  0  0  0  0  0  0  0  0  0
  140.8900   78.7090  221.0060 C   0  0  0  0  0  0  0  0  0  0  0  0
  141.7860   78.1890  220.0950 C   0  0  0  0  0  0  0  0  0  0  0  0
  142.0670   76.8190  220.1160 C   0  0  0  0  0  0  0  0  0  0  0  0
  141.4420   76.0150  221.0480 C   0  0  0  0  0  0  0  0  0  0  0  0
  141.7140   74.5820  221.0920 C   0  0  0  0  0  0  0  0  0  0  0  0
  142.6680   74.0250  220.3260 N   0  0  0  0  0  0  0  0  0  0  0  0
  142.9050   72.6830  220.3830 C   0  0  0  0  0  0  0  0  0  0  0  0
  142.1810   71.8520  221.2210 C   0  0  0  0  0  0  0  0  0  0  0  0
  141.2020   72.4470  222.0020 C   0  0  0  0  0  0  0  0  0  0  0  0
  141.0000   73.7910  221.9120 N   0  0  0  0  0  0  0  0  0  0  0  0
  140.5550   76.5790  221.9380 C   0  0  0  0  0  0  0  0  0  0  0  0
  138.5080   70.9790  223.4150 C   0  0  0  0  0  0  0  0  0  0  0  0
  138.0720   69.6860  223.6530 C   0  0  0  0  0  0  0  0  0  0  0  0
  138.5130   69.0040  224.7610 C   0  0  0  0  0  0  0  0  0  0  0  0
  139.3870   69.6010  225.6340 C   0  0  0  0  0  0  0  0  0  0  0  0
  139.8090   68.9040  226.7230 C   0  0  0  0  0  0  0  0  0  0  0  0
  140.6850   69.5040  227.6000 C   0  0  0  0  0  0  0  0  0  0  0  0
  141.1380   68.8480  228.7050 F   0  0  0  0  0  0  0  0  0  0  0  0
  141.1000   70.7950  227.3340 C   0  0  0  0  0  0  0  0  0  0  0  0
  140.6780   71.5110  226.2320 C   0  0  0  0  0  0  0  0  0  0  0  0
  139.8000   70.8950  225.3650 C   0  0  0  0  0  0  0  0  0  0  0  0
  139.3700   71.5720  224.2770 N   0  0  0  0  0  0  0  0  0  0  0  0
  138.9970   73.4920  222.7880 H   0  0  0  0  0  0  0  0  0  0  0  0
  138.7071   74.5127  220.6341 H   0  0  0  0  0  0  0  0  0  0  0  0
  137.7151   73.0396  220.1311 H   0  0  0  0  0  0  0  0  0  0  0  0
  134.2950   74.1060  223.0406 H   0  0  0  0  0  0  0  0  0  0  0  0
  135.7658   73.2866  223.5116 H   0  0  0  0  0  0  0  0  0  0  0  0
  134.7125   75.0452  225.2679 H   0  0  0  0  0  0  0  0  0  0  0  0
  136.4267   75.2037  225.0309 H   0  0  0  0  0  0  0  0  0  0  0  0
  134.1320   76.7395  223.5953 H   0  0  0  0  0  0  0  0  0  0  0  0
  135.4875   77.4755  224.4062 H   0  0  0  0  0  0  0  0  0  0  0  0
  135.5507   77.0575  221.7264 H   0  0  0  0  0  0  0  0  0  0  0  0
  137.2750   78.9350  222.3880 H   0  0  0  0  0  0  0  0  0  0  0  0
  139.3688   79.6356  222.8124 H   0  0  0  0  0  0  0  0  0  0  0  0
  139.5699   78.2002  223.9163 H   0  0  0  0  0  0  0  0  0  0  0  0
  140.6756   79.7876  220.9812 H   0  0  0  0  0  0  0  0  0  0  0  0
  142.2745   78.8451  219.3596 H   0  0  0  0  0  0  0  0  0  0  0  0
  142.7787   76.3867  219.3973 H   0  0  0  0  0  0  0  0  0  0  0  0
  143.6912   72.2500  219.7471 H   0  0  0  0  0  0  0  0  0  0  0  0
  142.3736   70.7699  221.2651 H   0  0  0  0  0  0  0  0  0  0  0  0
  140.5939   71.8391  222.6881 H   0  0  0  0  0  0  0  0  0  0  0  0
  140.0667   75.9234  222.6740 H   0  0  0  0  0  0  0  0  0  0  0  0
  137.3720   69.2048  222.9541 H   0  0  0  0  0  0  0  0  0  0  0  0
  138.1648   67.9776  224.9486 H   0  0  0  0  0  0  0  0  0  0  0  0
  139.4562   67.8773  226.9004 H   0  0  0  0  0  0  0  0  0  0  0  0
  141.8000   71.2749  228.0338 H   0  0  0  0  0  0  0  0  0  0  0  0
  141.0298   72.5375  226.0515 H   0  0  0  0  0  0  0  0  0  0  0  0
  1  2  2  0
  2  3  1  0
  3  4  1  0
  4  5  1  0
  5  6  2  0
  5  7  1  0
  7  8  1  0
  8  9  1  0
  9 10  1  0
 10 11  1  0
 11 12  1  0
 12 13  2  0
 12 14  1  0
 14 15  1  0
 15 16  1  0
 16 17  2  0
 17 18  1  0
 18 19  2  0
 19 20  1  0
 20 21  1  0
 21 22  2  0
 22 23  1  0
 23 24  2  0
 24 25  1  0
 25 26  2  0
 20 27  2  0
  2 28  1  0
 28 29  2  0
 29 30  1  0
 30 31  2  0
 31 32  1  0
 32 33  2  0
 33 34  1  0
 33 35  1  0
 35 36  2  0
 36 37  1  0
 37 38  2  0
 11  7  1  0
 27 16  1  0
 38 28  1  0
 26 21  1  0
 37 31  1  0
  3 39  1  0
  4 40  1  0
  4 41  1  0
  8 42  1  0
  8 43  1  0
  9 44  1  0
  9 45  1  0
 10 46  1  0
 10 47  1  0
 11 48  1  6
 14 49  1  0
 15 50  1  0
 15 51  1  0
 17 52  1  0
 18 53  1  0
 19 54  1  0
 23 55  1  0
 24 56  1  0
 25 57  1  0
 27 58  1  0
 29 59  1  0
 30 60  1  0
 32 61  1  0
 35 62  1  0
 36 63  1  0
M  END
>  <smiles>  (38) 
O=C(NCC(=O)N1CCC[C@H]1C(=O)NCc1cccc(-c2ncccn2)c1)c1ccc2cc(F)ccc2n1

>  <score_type>  (38) 
oracle

>  <origin>  (38) 
autodockgpu

>  <m_score__min__energy>  (38) 
-9.8599999999999994

>  <m_primary>  (38) 
energy

>  <rmsd>  (38) 
4.3550143981498675

>  <m_score__min__rmsd>  (38) 
4.3550143981498675

>  <meeko>  (38) 
{"free_energy": -7.71, "intermolecular_energy": -10.1, "internal_energy": -3.94, "cluster_size": 8, "cluster_id": 9, "rank_in_cluster": 8}

>  <energy>  (38) 
-7.62

>  <cluster_rmsd>  (38) 
0.0

>  <cluster>  (38) 
13

$$$$

     RDKit          3D

 63 67  0  0  0  0  0  0  0  0999 V2000
  139.8300   72.9840  222.5200 O   0  0  0  0  0  0  0  0  0  0  0  0
  139.4140   71.8300  222.8280 C   0  0  0  0  0  0  0  0  0  0  0  0
  138.5390   71.0860  221.9590 N   0  0  0  0  0  0  0  0  0  0  0  0
  138.1190   71.6310  220.7130 C   0  0  0  0  0  0  0  0  0  0  0  0
  137.2620   72.7910  220.7890 C   0  0  0  0  0  0  0  0  0  0  0  0
  137.2220   73.4890  219.6820 O   0  0  0  0  0  0  0  0  0  0  0  0
  136.4750   73.3010  221.8390 N   0  0  0  0  0  0  0  0  0  0  0  0
  136.0940   72.7200  223.1180 C   0  0  0  0  0  0  0  0  0  0  0  0
  135.8230   73.9660  223.9870 C   0  0  0  0  0  0  0  0  0  0  0  0
  135.0710   74.8590  222.9920 C   0  0  0  0  0  0  0  0  0  0  0  0
  135.8740   74.6550  221.7280 C   0  0  1  0  0  0  0  0  0  0  0  0
  137.0460   75.6000  221.7160 C   0  0  0  0  0  0  0  0  0  0  0  0
  136.8600   76.6440  221.0020 O   0  0  0  0  0  0  0  0  0  0  0  0
  138.2370   75.3850  222.4100 N   0  0  0  0  0  0  0  0  0  0  0  0
  139.3790   76.2860  222.4090 C   0  0  0  0  0  0  0  0  0  0  0  0
  140.2970   76.0490  221.2690 C   0  0  0  0  0  0  0  0  0  0  0  0
  140.0150   76.6060  220.0280 C   0  0  0  0  0  0  0  0  0  0  0  0
  140.8320   76.4230  218.9330 C   0  0  0  0  0  0  0  0  0  0  0  0
  141.9910   75.6500  219.0630 C   0  0  0  0  0  0  0  0  0  0  0  0
  142.2930   75.0860  220.2860 C   0  0  0  0  0  0  0  0  0  0  0  0
  143.4940   74.2730  220.4500 C   0  0  0  0  0  0  0  0  0  0  0  0
  144.7170   74.8280  220.4910 N   0  0  0  0  0  0  0  0  0  0  0  0
  145.8260   74.0480  220.6450 C   0  0  0  0  0  0  0  0  0  0  0  0
  145.7360   72.6720  220.7640 C   0  0  0  0  0  0  0  0  0  0  0  0
  144.4650   72.1200  220.7200 C   0  0  0  0  0  0  0  0  0  0  0  0
  143.3860   72.9370  220.5650 N   0  0  0  0  0  0  0  0  0  0  0  0
  141.4470   75.2960  221.3520 C   0  0  0  0  0  0  0  0  0  0  0  0
  139.8200   71.2080  224.0990 C   0  0  0  0  0  0  0  0  0  0  0  0
  140.6970   71.8950  224.9200 C   0  0  0  0  0  0  0  0  0  0  0  0
  141.0990   71.3460  226.1130 C   0  0  0  0  0  0  0  0  0  0  0  0
  140.6310   70.1130  226.4940 C   0  0  0  0  0  0  0  0  0  0  0  0
  141.0430   69.5900  227.6800 C   0  0  0  0  0  0  0  0  0  0  0  0
  140.5740   68.3530  228.0630 C   0  0  0  0  0  0  0  0  0  0  0  0
  140.9570   67.7860  229.2410 F   0  0  0  0  0  0  0  0  0  0  0  0
  139.7000   67.6930  227.2210 C   0  0  0  0  0  0  0  0  0  0  0  0
  139.2750   68.2140  226.0150 C   0  0  0  0  0  0  0  0  0  0  0  0
  139.7550   69.4540  225.6470 C   0  0  0  0  0  0  0  0  0  0  0  0
  139.3570   69.9900  224.4730 N   0  0  0  0  0  0  0  0  0  0  0  0
  138.2320   70.1250  222.2950 H   0  0  0  0  0  0  0  0  0  0  0  0
  139.0195   71.9136  220.1480 H   0  0  0  0  0  0  0  0  0  0  0  0
  137.5161   70.8462  220.2328 H   0  0  0  0  0  0  0  0  0  0  0  0
  135.1903   72.1007  223.0192 H   0  0  0  0  0  0  0  0  0  0  0  0
  136.8586   72.0508  223.5394 H   0  0  0  0  0  0  0  0  0  0  0  0
  135.2009   73.7217  224.8606 H   0  0  0  0  0  0  0  0  0  0  0  0
  136.7261   74.4251  224.4155 H   0  0  0  0  0  0  0  0  0  0  0  0
  134.0300   74.5276  222.8634 H   0  0  0  0  0  0  0  0  0  0  0  0
  134.9934   75.9102  223.3064 H   0  0  0  0  0  0  0  0  0  0  0  0
  135.2360   74.8007  220.8439 H   0  0  0  0  0  0  0  0  0  0  0  0
  138.3600   74.5180  223.0020 H   0  0  0  0  0  0  0  0  0  0  0  0
  139.0101   77.3208  222.3539 H   0  0  0  0  0  0  0  0  0  0  0  0
  139.9457   76.1034  223.3340 H   0  0  0  0  0  0  0  0  0  0  0  0
  139.1063   77.2155  219.9150 H   0  0  0  0  0  0  0  0  0  0  0  0
  140.5752   76.8803  217.9661 H   0  0  0  0  0  0  0  0  0  0  0  0
  142.6544   75.4934  218.1997 H   0  0  0  0  0  0  0  0  0  0  0  0
  146.8168   74.5249  220.6753 H   0  0  0  0  0  0  0  0  0  0  0  0
  146.6315   72.0453  220.8878 H   0  0  0  0  0  0  0  0  0  0  0  0
  144.3290   71.0321  220.8094 H   0  0  0  0  0  0  0  0  0  0  0  0
  141.7029   74.8389  222.3193 H   0  0  0  0  0  0  0  0  0  0  0  0
  141.0730   72.8831  224.6163 H   0  0  0  0  0  0  0  0  0  0  0  0
  141.7962   71.8945  226.7634 H   0  0  0  0  0  0  0  0  0  0  0  0
  141.7402   70.1466  228.3235 H   0  0  0  0  0  0  0  0  0  0  0  0
  139.3246   66.7050  227.5259 H   0  0  0  0  0  0  0  0  0  0  0  0
  138.5777   67.6595  225.3698 H   0  0  0  0  0  0  0  0  0  0  0  0
  1  2  2  0
  2  3  1  0
  3  4  1  0
  4  5  1  0
  5  6  2  0
  5  7  1  0
  7  8  1  0
  8  9  1  0
  9 10  1  0
 10 11  1  0
 11 12  1  0
 12 13  2  0
 12 14  1  0
 14 15  1  0
 15 16  1  0
 16 17  2  0
 17 18  1  0
 18 19  2  0
 19 20  1  0
 20 21  1  0
 21 22  2  0
 22 23  1  0
 23 24  2  0
 24 25  1  0
 25 26  2  0
 20 27  2  0
  2 28  1  0
 28 29  2  0
 29 30  1  0
 30 31  2  0
 31 32  1  0
 32 33  2  0
 33 34  1  0
 33 35  1  0
 35 36  2  0
 36 37  1  0
 37 38  2  0
 11  7  1  0
 27 16  1  0
 38 28  1  0
 26 21  1  0
 37 31  1  0
  3 39  1  0
  4 40  1  0
  4 41  1  0
  8 42  1  0
  8 43  1  0
  9 44  1  0
  9 45  1  0
 10 46  1  0
 10 47  1  0
 11 48  1  6
 14 49  1  0
 15 50  1  0
 15 51  1  0
 17 52  1  0
 18 53  1  0
 19 54  1  0
 23 55  1  0
 24 56  1  0
 25 57  1  0
 27 58  1  0
 29 59  1  0
 30 60  1  0
 32 61  1  0
 35 62  1  0
 36 63  1  0
M  END
>  <smiles>  (39) 
O=C(NCC(=O)N1CCC[C@H]1C(=O)NCc1cccc(-c2ncccn2)c1)c1ccc2cc(F)ccc2n1

>  <score_type>  (39) 
oracle

>  <origin>  (39) 
autodockgpu

>  <m_score__min__energy>  (39) 
-9.8599999999999994

>  <m_primary>  (39) 
energy

>  <rmsd>  (39) 
5.039652313028295

>  <m_score__min__rmsd>  (39) 
5.039652313028295

>  <meeko>  (39) 
{"free_energy": -8.21, "intermolecular_energy": -10.6, "internal_energy": -3.85, "cluster_size": 8, "cluster_id": 9, "rank_in_cluster": 7}

>  <energy>  (39) 
-7.35

>  <cluster_rmsd>  (39) 
0.54

>  <cluster>  (39) 
13

$$$$

     RDKit          3D

 63 67  0  0  0  0  0  0  0  0999 V2000
  140.8690   72.3200  221.6250 O   0  0  0  0  0  0  0  0  0  0  0  0
  139.9310   72.3480  222.4720 C   0  0  0  0  0  0  0  0  0  0  0  0
  138.8070   73.2370  222.3260 N   0  0  0  0  0  0  0  0  0  0  0  0
  138.7140   74.1130  221.2070 C   0  0  0  0  0  0  0  0  0  0  0  0
  139.8110   75.0370  221.0390 C   0  0  0  0  0  0  0  0  0  0  0  0
  140.8540   74.5130  220.4470 O   0  0  0  0  0  0  0  0  0  0  0  0
  139.9550   76.3890  221.4020 N   0  0  0  0  0  0  0  0  0  0  0  0
  139.9870   77.0300  222.7090 C   0  0  0  0  0  0  0  0  0  0  0  0
  140.7820   78.3230  222.4320 C   0  0  0  0  0  0  0  0  0  0  0  0
  140.1860   78.7500  221.0850 C   0  0  0  0  0  0  0  0  0  0  0  0
  140.1000   77.4300  220.3530 C   0  0  1  0  0  0  0  0  0  0  0  0
  141.4190   77.1340  219.6920 C   0  0  0  0  0  0  0  0  0  0  0  0
  141.5360   77.6380  218.5230 O   0  0  0  0  0  0  0  0  0  0  0  0
  142.4400   76.3830  220.2760 N   0  0  0  0  0  0  0  0  0  0  0  0
  143.7200   76.0850  219.6520 C   0  0  0  0  0  0  0  0  0  0  0  0
  144.2540   74.7570  220.0400 C   0  0  0  0  0  0  0  0  0  0  0  0
  145.4450   74.6720  220.7500 C   0  0  0  0  0  0  0  0  0  0  0  0
  145.9890   73.4670  221.1400 C   0  0  0  0  0  0  0  0  0  0  0  0
  145.3270   72.2780  220.8140 C   0  0  0  0  0  0  0  0  0  0  0  0
  144.1420   72.3360  220.1090 C   0  0  0  0  0  0  0  0  0  0  0  0
  143.4310   71.1120  219.7540 C   0  0  0  0  0  0  0  0  0  0  0  0
  142.1190   71.1230  219.4610 N   0  0  0  0  0  0  0  0  0  0  0  0
  141.4750   69.9660  219.1310 C   0  0  0  0  0  0  0  0  0  0  0  0
  142.1370   68.7520  219.0880 C   0  0  0  0  0  0  0  0  0  0  0  0
  143.4900   68.7640  219.3940 C   0  0  0  0  0  0  0  0  0  0  0  0
  144.0920   69.9420  219.7170 N   0  0  0  0  0  0  0  0  0  0  0  0
  143.6360   73.5630  219.7410 C   0  0  0  0  0  0  0  0  0  0  0  0
  139.9630   71.4620  223.6470 C   0  0  0  0  0  0  0  0  0  0  0  0
  139.4670   70.1760  223.5180 C   0  0  0  0  0  0  0  0  0  0  0  0
  139.4790   69.3210  224.5920 C   0  0  0  0  0  0  0  0  0  0  0  0
  139.9840   69.7390  225.7980 C   0  0  0  0  0  0  0  0  0  0  0  0
  139.9850   68.8730  226.8470 C   0  0  0  0  0  0  0  0  0  0  0  0
  140.4910   69.2930  228.0570 C   0  0  0  0  0  0  0  0  0  0  0  0
  140.5150   68.4640  229.1390 F   0  0  0  0  0  0  0  0  0  0  0  0
  140.9790   70.5820  228.1540 C   0  0  0  0  0  0  0  0  0  0  0  0
  140.9820   71.4690  227.0960 C   0  0  0  0  0  0  0  0  0  0  0  0
  140.4710   71.0320  225.8910 C   0  0  0  0  0  0  0  0  0  0  0  0
  140.4610   71.8770  224.8380 N   0  0  0  0  0  0  0  0  0  0  0  0
  138.0640   73.2010  223.0860 H   0  0  0  0  0  0  0  0  0  0  0  0
  138.6512   73.4951  220.2991 H   0  0  0  0  0  0  0  0  0  0  0  0
  137.8248   74.7348  221.3876 H   0  0  0  0  0  0  0  0  0  0  0  0
  138.9711   77.2572  223.0645 H   0  0  0  0  0  0  0  0  0  0  0  0
  140.4344   76.4015  223.4931 H   0  0  0  0  0  0  0  0  0  0  0  0
  140.6055   79.0803  223.2101 H   0  0  0  0  0  0  0  0  0  0  0  0
  141.8740   78.1908  222.4232 H   0  0  0  0  0  0  0  0  0  0  0  0
  139.1917   79.2029  221.2124 H   0  0  0  0  0  0  0  0  0  0  0  0
  140.7768   79.5139  220.5584 H   0  0  0  0  0  0  0  0  0  0  0  0
  139.2822   77.4541  219.6178 H   0  0  0  0  0  0  0  0  0  0  0  0
  142.3210   75.9860  221.2490 H   0  0  0  0  0  0  0  0  0  0  0  0
  143.5918   76.1066  218.5597 H   0  0  0  0  0  0  0  0  0  0  0  0
  144.4394   76.8436  219.9940 H   0  0  0  0  0  0  0  0  0  0  0  0
  145.9736   75.6008  221.0107 H   0  0  0  0  0  0  0  0  0  0  0  0
  146.9342   73.4403  221.7020 H   0  0  0  0  0  0  0  0  0  0  0  0
  145.7467   71.3073  221.1165 H   0  0  0  0  0  0  0  0  0  0  0  0
  140.4016   69.9995  218.8930 H   0  0  0  0  0  0  0  0  0  0  0  0
  141.6149   67.8206  218.8235 H   0  0  0  0  0  0  0  0  0  0  0  0
  144.0714   67.8304  219.3759 H   0  0  0  0  0  0  0  0  0  0  0  0
  142.6903   73.5908  219.1798 H   0  0  0  0  0  0  0  0  0  0  0  0
  139.0622   69.8384  222.5525 H   0  0  0  0  0  0  0  0  0  0  0  0
  139.0836   68.3000  224.4860 H   0  0  0  0  0  0  0  0  0  0  0  0
  139.5881   67.8537  226.7307 H   0  0  0  0  0  0  0  0  0  0  0  0
  141.3844   70.9174  229.1200 H   0  0  0  0  0  0  0  0  0  0  0  0
  141.3781   72.4889  227.2097 H   0  0  0  0  0  0  0  0  0  0  0  0
  1  2  2  0
  2  3  1  0
  3  4  1  0
  4  5  1  0
  5  6  2  0
  5  7  1  0
  7  8  1  0
  8  9  1  0
  9 10  1  0
 10 11  1  0
 11 12  1  0
 12 13  2  0
 12 14  1  0
 14 15  1  0
 15 16  1  0
 16 17  2  0
 17 18  1  0
 18 19  2  0
 19 20  1  0
 20 21  1  0
 21 22  2  0
 22 23  1  0
 23 24  2  0
 24 25  1  0
 25 26  2  0
 20 27  2  0
  2 28  1  0
 28 29  2  0
 29 30  1  0
 30 31  2  0
 31 32  1  0
 32 33  2  0
 33 34  1  0
 33 35  1  0
 35 36  2  0
 36 37  1  0
 37 38  2  0
 11  7  1  0
 27 16  1  0
 38 28  1  0
 26 21  1  0
 37 31  1  0
  3 39  1  0
  4 40  1  0
  4 41  1  0
  8 42  1  0
  8 43  1  0
  9 44  1  0
  9 45  1  0
 10 46  1  0
 10 47  1  0
 11 48  1  6
 14 49  1  0
 15 50  1  0
 15 51  1  0
 17 52  1  0
 18 53  1  0
 19 54  1  0
 23 55  1  0
 24 56  1  0
 25 57  1  0
 27 58  1  0
 29 59  1  0
 30 60  1  0
 32 61  1  0
 35 62  1  0
 36 63  1  0
M  END
>  <smiles>  (40) 
O=C(NCC(=O)N1CCC[C@H]1C(=O)NCc1cccc(-c2ncccn2)c1)c1ccc2cc(F)ccc2n1

>  <score_type>  (40) 
oracle

>  <origin>  (40) 
autodockgpu

>  <m_score__min__energy>  (40) 
-9.8599999999999994

>  <m_primary>  (40) 
energy

>  <rmsd>  (40) 
4.807194975867294

>  <m_score__min__rmsd>  (40) 
4.807194975867294

>  <meeko>  (40) 
{"free_energy": -8.83, "intermolecular_energy": -11.22, "internal_energy": -2.77, "cluster_size": 3, "cluster_id": 1, "rank_in_cluster": 3}

>  <energy>  (40) 
-7.49

>  <cluster_rmsd>  (40) 
0.0

>  <cluster>  (40) 
14

$$$$

     RDKit          3D

 63 67  0  0  0  0  0  0  0  0999 V2000
  136.9670   75.3010  221.9020 O   0  0  0  0  0  0  0  0  0  0  0  0
  137.0350   76.5430  222.1290 C   0  0  0  0  0  0  0  0  0  0  0  0
  135.8650   77.3820  222.0930 N   0  0  0  0  0  0  0  0  0  0  0  0
  134.5840   76.8310  221.8050 C   0  0  0  0  0  0  0  0  0  0  0  0
  134.0610   75.9070  222.7840 C   0  0  0  0  0  0  0  0  0  0  0  0
  133.7470   74.7370  222.2890 O   0  0  0  0  0  0  0  0  0  0  0  0
  133.8260   76.0470  224.1650 N   0  0  0  0  0  0  0  0  0  0  0  0
  132.6660   76.5420  224.8930 C   0  0  0  0  0  0  0  0  0  0  0  0
  132.8040   75.8450  226.2620 C   0  0  0  0  0  0  0  0  0  0  0  0
  134.3130   75.9760  226.5080 C   0  0  0  0  0  0  0  0  0  0  0  0
  134.8760   75.6580  225.1410 C   0  0  1  0  0  0  0  0  0  0  0  0
  135.0150   74.1670  224.9880 C   0  0  0  0  0  0  0  0  0  0  0  0
  134.6830   73.5070  226.0320 O   0  0  0  0  0  0  0  0  0  0  0  0
  135.4590   73.5340  223.8270 N   0  0  0  0  0  0  0  0  0  0  0  0
  135.6000   72.0960  223.6610 C   0  0  0  0  0  0  0  0  0  0  0  0
  137.0160   71.6650  223.5540 C   0  0  0  0  0  0  0  0  0  0  0  0
  137.8060   72.1430  222.5170 C   0  0  0  0  0  0  0  0  0  0  0  0
  139.1280   71.7810  222.3670 C   0  0  0  0  0  0  0  0  0  0  0  0
  139.7060   70.9000  223.2870 C   0  0  0  0  0  0  0  0  0  0  0  0
  138.9420   70.4110  224.3260 C   0  0  0  0  0  0  0  0  0  0  0  0
  139.5170   69.4890  225.3000 C   0  0  0  0  0  0  0  0  0  0  0  0
  139.1220   68.2070  225.3710 N   0  0  0  0  0  0  0  0  0  0  0  0
  139.6740   67.3630  226.2900 C   0  0  0  0  0  0  0  0  0  0  0  0
  140.6500   67.7890  227.1740 C   0  0  0  0  0  0  0  0  0  0  0  0
  141.0440   69.1150  227.0830 C   0  0  0  0  0  0  0  0  0  0  0  0
  140.4650   69.9210  226.1510 N   0  0  0  0  0  0  0  0  0  0  0  0
  137.6250   70.8010  224.4360 C   0  0  0  0  0  0  0  0  0  0  0  0
  138.3280   77.1720  222.4410 C   0  0  0  0  0  0  0  0  0  0  0  0
  139.4760   76.4030  222.3480 C   0  0  0  0  0  0  0  0  0  0  0  0
  140.7010   76.9560  222.6330 C   0  0  0  0  0  0  0  0  0  0  0  0
  140.7900   78.2720  223.0110 C   0  0  0  0  0  0  0  0  0  0  0  0
  142.0140   78.7960  223.2880 C   0  0  0  0  0  0  0  0  0  0  0  0
  142.1040   80.1170  223.6670 C   0  0  0  0  0  0  0  0  0  0  0  0
  143.3070   80.6890  223.9550 F   0  0  0  0  0  0  0  0  0  0  0  0
  140.9400   80.8570  223.7500 C   0  0  0  0  0  0  0  0  0  0  0  0
  139.6930   80.3360  223.4720 C   0  0  0  0  0  0  0  0  0  0  0  0
  139.6210   79.0110  223.0940 C   0  0  0  0  0  0  0  0  0  0  0  0
  138.4140   78.4720  222.8150 N   0  0  0  0  0  0  0  0  0  0  0  0
  136.0090   78.4160  222.2910 H   0  0  0  0  0  0  0  0  0  0  0  0
  133.8715   77.6640  221.7132 H   0  0  0  0  0  0  0  0  0  0  0  0
  134.7117   76.2465  220.8819 H   0  0  0  0  0  0  0  0  0  0  0  0
  132.7014   77.6363  224.9994 H   0  0  0  0  0  0  0  0  0  0  0  0
  131.7111   76.3309  224.3893 H   0  0  0  0  0  0  0  0  0  0  0  0
  132.2219   76.3622  227.0389 H   0  0  0  0  0  0  0  0  0  0  0  0
  132.4297   74.8109  226.2835 H   0  0  0  0  0  0  0  0  0  0  0  0
  134.5806   76.9949  226.8246 H   0  0  0  0  0  0  0  0  0  0  0  0
  134.6926   75.3251  227.3094 H   0  0  0  0  0  0  0  0  0  0  0  0
  135.8417   76.1652  224.9989 H   0  0  0  0  0  0  0  0  0  0  0  0
  135.7160   74.1030  222.9740 H   0  0  0  0  0  0  0  0  0  0  0  0
  135.1451   71.5959  224.5287 H   0  0  0  0  0  0  0  0  0  0  0  0
  135.0984   71.8205  222.7216 H   0  0  0  0  0  0  0  0  0  0  0  0
  137.3607   72.8361  221.7881 H   0  0  0  0  0  0  0  0  0  0  0  0
  139.7222   72.1810  221.5322 H   0  0  0  0  0  0  0  0  0  0  0  0
  140.7592   70.6002  223.1829 H   0  0  0  0  0  0  0  0  0  0  0  0
  139.3347   66.3174  226.3293 H   0  0  0  0  0  0  0  0  0  0  0  0
  141.0927   67.1068  227.9147 H   0  0  0  0  0  0  0  0  0  0  0  0
  141.8170   69.5121  227.7573 H   0  0  0  0  0  0  0  0  0  0  0  0
  137.0302   70.4018  225.2708 H   0  0  0  0  0  0  0  0  0  0  0  0
  139.4070   75.3477  222.0455 H   0  0  0  0  0  0  0  0  0  0  0  0
  141.6114   76.3431  222.5580 H   0  0  0  0  0  0  0  0  0  0  0  0
  142.9182   78.1744  223.2105 H   0  0  0  0  0  0  0  0  0  0  0  0
  141.0110   81.9123  224.0523 H   0  0  0  0  0  0  0  0  0  0  0  0
  138.7874   80.9557  223.5491 H   0  0  0  0  0  0  0  0  0  0  0  0
  1  2  2  0
  2  3  1  0
  3  4  1  0
  4  5  1  0
  5  6  2  0
  5  7  1  0
  7  8  1  0
  8  9  1  0
  9 10  1  0
 10 11  1  0
 11 12  1  0
 12 13  2  0
 12 14  1  0
 14 15  1  0
 15 16  1  0
 16 17  2  0
 17 18  1  0
 18 19  2  0
 19 20  1  0
 20 21  1  0
 21 22  2  0
 22 23  1  0
 23 24  2  0
 24 25  1  0
 25 26  2  0
 20 27  2  0
  2 28  1  0
 28 29  2  0
 29 30  1  0
 30 31  2  0
 31 32  1  0
 32 33  2  0
 33 34  1  0
 33 35  1  0
 35 36  2  0
 36 37  1  0
 37 38  2  0
 11  7  1  0
 27 16  1  0
 38 28  1  0
 26 21  1  0
 37 31  1  0
  3 39  1  0
  4 40  1  0
  4 41  1  0
  8 42  1  0
  8 43  1  0
  9 44  1  0
  9 45  1  0
 10 46  1  0
 10 47  1  0
 11 48  1  6
 14 49  1  0
 15 50  1  0
 15 51  1  0
 17 52  1  0
 18 53  1  0
 19 54  1  0
 23 55  1  0
 24 56  1  0
 25 57  1  0
 27 58  1  0
 29 59  1  0
 30 60  1  0
 32 61  1  0
 35 62  1  0
 36 63  1  0
M  END
>  <smiles>  (41) 
O=C(NCC(=O)N1CCC[C@H]1C(=O)NCc1cccc(-c2ncccn2)c1)c1ccc2cc(F)ccc2n1

>  <score_type>  (41) 
oracle

>  <origin>  (41) 
autodockgpu

>  <m_score__min__energy>  (41) 
-9.8599999999999994

>  <m_primary>  (41) 
energy

>  <rmsd>  (41) 
9.339761611162555

>  <m_score__min__rmsd>  (41) 
9.339761611162555

>  <meeko>  (41) 
{"free_energy": -8.17, "intermolecular_energy": -10.55, "internal_energy": -3.84, "cluster_size": 1, "cluster_id": 11, "rank_in_cluster": 1}

>  <energy>  (41) 
-7.07

>  <cluster_rmsd>  (41) 
0.0

>  <cluster>  (41) 
15

$$$$

     RDKit          3D

 63 67  0  0  0  0  0  0  0  0999 V2000
  139.3350   70.1810  221.1460 O   0  0  0  0  0  0  0  0  0  0  0  0
  139.2030   71.0330  222.0690 C   0  0  0  0  0  0  0  0  0  0  0  0
  138.6000   72.3190  221.8300 N   0  0  0  0  0  0  0  0  0  0  0  0
  138.1240   72.6680  220.5340 C   0  0  0  0  0  0  0  0  0  0  0  0
  138.9300   73.6160  219.8020 C   0  0  0  0  0  0  0  0  0  0  0  0
  138.2500   74.3300  218.9400 O   0  0  0  0  0  0  0  0  0  0  0  0
  140.3080   73.9000  219.8470 N   0  0  0  0  0  0  0  0  0  0  0  0
  141.2520   74.2290  218.7880 C   0  0  0  0  0  0  0  0  0  0  0  0
  142.3430   75.0170  219.5420 C   0  0  0  0  0  0  0  0  0  0  0  0
  142.4750   74.1830  220.8230 C   0  0  0  0  0  0  0  0  0  0  0  0
  141.0290   73.8830  221.1450 C   0  0  1  0  0  0  0  0  0  0  0  0
  140.4400   75.0240  221.9300 C   0  0  0  0  0  0  0  0  0  0  0  0
  139.3310   74.7410  222.5000 O   0  0  0  0  0  0  0  0  0  0  0  0
  141.0270   76.2840  222.0480 N   0  0  0  0  0  0  0  0  0  0  0  0
  140.4730   77.3980  222.8000 C   0  0  0  0  0  0  0  0  0  0  0  0
  141.1700   78.6790  222.5310 C   0  0  0  0  0  0  0  0  0  0  0  0
  141.8220   79.3410  223.5640 C   0  0  0  0  0  0  0  0  0  0  0  0
  142.4890   80.5330  223.3740 C   0  0  0  0  0  0  0  0  0  0  0  0
  142.5170   81.1060  222.0990 C   0  0  0  0  0  0  0  0  0  0  0  0
  141.8780   80.4680  221.0560 C   0  0  0  0  0  0  0  0  0  0  0  0
  141.8890   81.0450  219.7150 C   0  0  0  0  0  0  0  0  0  0  0  0
  142.5590   80.4610  218.7060 N   0  0  0  0  0  0  0  0  0  0  0  0
  142.5550   81.0190  217.4610 C   0  0  0  0  0  0  0  0  0  0  0  0
  141.8720   82.1920  217.1910 C   0  0  0  0  0  0  0  0  0  0  0  0
  141.1880   82.7770  218.2460 C   0  0  0  0  0  0  0  0  0  0  0  0
  141.2190   82.1850  219.4720 N   0  0  0  0  0  0  0  0  0  0  0  0
  141.2240   79.2790  221.2930 C   0  0  0  0  0  0  0  0  0  0  0  0
  139.6670   70.7300  223.4330 C   0  0  0  0  0  0  0  0  0  0  0  0
  140.3280   71.7200  224.1410 C   0  0  0  0  0  0  0  0  0  0  0  0
  140.7760   71.4740  225.4160 C   0  0  0  0  0  0  0  0  0  0  0  0
  140.5710   70.2450  225.9910 C   0  0  0  0  0  0  0  0  0  0  0  0
  141.0240   70.0250  227.2550 C   0  0  0  0  0  0  0  0  0  0  0  0
  140.8180   68.7920  227.8320 C   0  0  0  0  0  0  0  0  0  0  0  0
  141.2540   68.5230  229.0950 F   0  0  0  0  0  0  0  0  0  0  0  0
  140.1570   67.8260  227.0990 C   0  0  0  0  0  0  0  0  0  0  0  0
  139.6930   68.0380  225.8170 C   0  0  0  0  0  0  0  0  0  0  0  0
  139.9080   69.2780  225.2540 C   0  0  0  0  0  0  0  0  0  0  0  0
  139.4640   69.5150  224.0000 N   0  0  0  0  0  0  0  0  0  0  0  0
  138.5310   72.9790  222.6600 H   0  0  0  0  0  0  0  0  0  0  0  0
  138.0627   71.7458  219.9375 H   0  0  0  0  0  0  0  0  0  0  0  0
  137.1546   73.1623  220.6953 H   0  0  0  0  0  0  0  0  0  0  0  0
  141.6655   73.3194  218.3280 H   0  0  0  0  0  0  0  0  0  0  0  0
  140.7998   74.7925  217.9586 H   0  0  0  0  0  0  0  0  0  0  0  0
  143.2866   75.0417  218.9772 H   0  0  0  0  0  0  0  0  0  0  0  0
  142.1002   76.0760  219.7137 H   0  0  0  0  0  0  0  0  0  0  0  0
  143.0454   73.2598  220.6432 H   0  0  0  0  0  0  0  0  0  0  0  0
  143.0160   74.6931  221.6336 H   0  0  0  0  0  0  0  0  0  0  0  0
  140.9510   72.9356  221.6985 H   0  0  0  0  0  0  0  0  0  0  0  0
  141.9510   76.4880  221.5750 H   0  0  0  0  0  0  0  0  0  0  0  0
  139.4129   77.5116  222.5293 H   0  0  0  0  0  0  0  0  0  0  0  0
  140.6005   77.1708  223.8687 H   0  0  0  0  0  0  0  0  0  0  0  0
  141.8056   78.8979  224.5707 H   0  0  0  0  0  0  0  0  0  0  0  0
  142.9938   81.0278  224.2168 H   0  0  0  0  0  0  0  0  0  0  0  0
  143.0436   82.0567  221.9291 H   0  0  0  0  0  0  0  0  0  0  0  0
  143.1093   80.5234  216.6503 H   0  0  0  0  0  0  0  0  0  0  0  0
  141.8717   82.6395  216.1862 H   0  0  0  0  0  0  0  0  0  0  0  0
  140.6258   83.7102  218.0940 H   0  0  0  0  0  0  0  0  0  0  0  0
  140.7193   78.7838  220.4504 H   0  0  0  0  0  0  0  0  0  0  0  0
  140.4946   72.7054  223.6813 H   0  0  0  0  0  0  0  0  0  0  0  0
  141.2994   72.2626  225.9764 H   0  0  0  0  0  0  0  0  0  0  0  0
  141.5467   70.8198  227.8073 H   0  0  0  0  0  0  0  0  0  0  0  0
  139.9926   66.8405  227.5592 H   0  0  0  0  0  0  0  0  0  0  0  0
  139.1695   67.2448  225.2631 H   0  0  0  0  0  0  0  0  0  0  0  0
  1  2  2  0
  2  3  1  0
  3  4  1  0
  4  5  1  0
  5  6  2  0
  5  7  1  0
  7  8  1  0
  8  9  1  0
  9 10  1  0
 10 11  1  0
 11 12  1  0
 12 13  2  0
 12 14  1  0
 14 15  1  0
 15 16  1  0
 16 17  2  0
 17 18  1  0
 18 19  2  0
 19 20  1  0
 20 21  1  0
 21 22  2  0
 22 23  1  0
 23 24  2  0
 24 25  1  0
 25 26  2  0
 20 27  2  0
  2 28  1  0
 28 29  2  0
 29 30  1  0
 30 31  2  0
 31 32  1  0
 32 33  2  0
 33 34  1  0
 33 35  1  0
 35 36  2  0
 36 37  1  0
 37 38  2  0
 11  7  1  0
 27 16  1  0
 38 28  1  0
 26 21  1  0
 37 31  1  0
  3 39  1  0
  4 40  1  0
  4 41  1  0
  8 42  1  0
  8 43  1  0
  9 44  1  0
  9 45  1  0
 10 46  1  0
 10 47  1  0
 11 48  1  1
 14 49  1  0
 15 50  1  0
 15 51  1  0
 17 52  1  0
 18 53  1  0
 19 54  1  0
 23 55  1  0
 24 56  1  0
 25 57  1  0
 27 58  1  0
 29 59  1  0
 30 60  1  0
 32 61  1  0
 35 62  1  0
 36 63  1  0
M  END
>  <smiles>  (42) 
O=C(NCC(=O)N1CCC[C@H]1C(=O)NCc1cccc(-c2ncccn2)c1)c1ccc2cc(F)ccc2n1

>  <score_type>  (42) 
oracle

>  <origin>  (42) 
autodockgpu

>  <m_score__min__energy>  (42) 
-9.8599999999999994

>  <m_primary>  (42) 
energy

>  <rmsd>  (42) 
3.0994397999615826

>  <m_score__min__rmsd>  (42) 
3.0994397999615826

>  <meeko>  (42) 
{"free_energy": -9.2, "intermolecular_energy": -11.59, "internal_energy": -2.69, "cluster_size": 5, "cluster_id": 2, "rank_in_cluster": 2}

>  <energy>  (42) 
-6.82

>  <cluster_rmsd>  (42) 
1.86

>  <cluster>  (42) 
15

$$$$

     RDKit          3D

 63 67  0  0  0  0  0  0  0  0999 V2000
  140.0720   73.3390  222.5270 O   0  0  0  0  0  0  0  0  0  0  0  0
  139.7610   72.1150  222.4690 C   0  0  0  0  0  0  0  0  0  0  0  0
  139.2710   71.5170  221.2540 N   0  0  0  0  0  0  0  0  0  0  0  0
  139.1290   72.2930  220.0680 C   0  0  0  0  0  0  0  0  0  0  0  0
  138.0870   73.2910  220.0910 C   0  0  0  0  0  0  0  0  0  0  0  0
  138.0680   74.0560  219.0290 O   0  0  0  0  0  0  0  0  0  0  0  0
  137.0990   73.5870  221.0490 N   0  0  0  0  0  0  0  0  0  0  0  0
  136.5960   72.8130  222.1750 C   0  0  0  0  0  0  0  0  0  0  0  0
  136.0620   73.9040  223.1240 C   0  0  0  0  0  0  0  0  0  0  0  0
  135.3740   74.8480  222.1290 C   0  0  0  0  0  0  0  0  0  0  0  0
  136.3760   74.8830  220.9970 C   0  0  1  0  0  0  0  0  0  0  0  0
  137.4240   75.9240  221.2840 C   0  0  0  0  0  0  0  0  0  0  0  0
  137.2820   77.0010  220.6070 O   0  0  0  0  0  0  0  0  0  0  0  0
  138.4650   75.7620  222.1980 N   0  0  0  0  0  0  0  0  0  0  0  0
  139.4880   76.7550  222.4870 C   0  0  0  0  0  0  0  0  0  0  0  0
  140.6220   76.7090  221.5320 C   0  0  0  0  0  0  0  0  0  0  0  0
  140.8930   77.8090  220.7280 C   0  0  0  0  0  0  0  0  0  0  0  0
  141.9340   77.8260  219.8250 C   0  0  0  0  0  0  0  0  0  0  0  0
  142.7540   76.6990  219.7030 C   0  0  0  0  0  0  0  0  0  0  0  0
  142.5050   75.5930  220.4900 C   0  0  0  0  0  0  0  0  0  0  0  0
  143.3430   74.4030  220.3830 C   0  0  0  0  0  0  0  0  0  0  0  0
  144.6840   74.4830  220.4300 N   0  0  0  0  0  0  0  0  0  0  0  0
  145.4470   73.3560  220.3280 C   0  0  0  0  0  0  0  0  0  0  0  0
  144.8780   72.1040  220.1730 C   0  0  0  0  0  0  0  0  0  0  0  0
  143.4940   72.0450  220.1270 C   0  0  0  0  0  0  0  0  0  0  0  0
  142.7720   73.1950  220.2340 N   0  0  0  0  0  0  0  0  0  0  0  0
  141.4540   75.6220  221.3800 C   0  0  0  0  0  0  0  0  0  0  0  0
  139.8930   71.2570  223.6580 C   0  0  0  0  0  0  0  0  0  0  0  0
  139.5050   69.9310  223.5620 C   0  0  0  0  0  0  0  0  0  0  0  0
  139.6120   69.1010  224.6510 C   0  0  0  0  0  0  0  0  0  0  0  0
  140.1050   69.5840  225.8370 C   0  0  0  0  0  0  0  0  0  0  0  0
  140.2020   68.7420  226.9010 C   0  0  0  0  0  0  0  0  0  0  0  0
  140.6960   69.2260  228.0920 C   0  0  0  0  0  0  0  0  0  0  0  0
  140.8130   68.4220  229.1860 F   0  0  0  0  0  0  0  0  0  0  0  0
  141.0740   70.5530  228.1550 C   0  0  0  0  0  0  0  0  0  0  0  0
  140.9800   71.4160  227.0820 C   0  0  0  0  0  0  0  0  0  0  0  0
  140.4830   70.9150  225.8970 C   0  0  0  0  0  0  0  0  0  0  0  0
  140.3790   71.7360  224.8290 N   0  0  0  0  0  0  0  0  0  0  0  0
  139.0280   70.4830  221.2910 H   0  0  0  0  0  0  0  0  0  0  0  0
  140.0842   72.8067  219.8845 H   0  0  0  0  0  0  0  0  0  0  0  0
  138.8441   71.5821  219.2784 H   0  0  0  0  0  0  0  0  0  0  0  0
  135.7913   72.1322  221.8605 H   0  0  0  0  0  0  0  0  0  0  0  0
  137.3580   72.1676  222.6364 H   0  0  0  0  0  0  0  0  0  0  0  0
  135.3463   73.4921  223.8507 H   0  0  0  0  0  0  0  0  0  0  0  0
  136.8344   74.3834  223.7433 H   0  0  0  0  0  0  0  0  0  0  0  0
  134.4067   74.4438  221.7960 H   0  0  0  0  0  0  0  0  0  0  0  0
  135.1350   75.8380  222.5447 H   0  0  0  0  0  0  0  0  0  0  0  0
  135.8662   75.0829  220.0430 H   0  0  0  0  0  0  0  0  0  0  0  0
  138.5530   74.8650  222.7520 H   0  0  0  0  0  0  0  0  0  0  0  0
  139.0304   77.7542  222.4409 H   0  0  0  0  0  0  0  0  0  0  0  0
  139.8892   76.5347  223.4873 H   0  0  0  0  0  0  0  0  0  0  0  0
  140.2530   78.6994  220.8153 H   0  0  0  0  0  0  0  0  0  0  0  0
  142.1183   78.7167  219.2064 H   0  0  0  0  0  0  0  0  0  0  0  0
  143.5889   76.6945  218.9869 H   0  0  0  0  0  0  0  0  0  0  0  0
  146.5426   73.4451  220.3701 H   0  0  0  0  0  0  0  0  0  0  0  0
  145.4956   71.1975  220.0901 H   0  0  0  0  0  0  0  0  0  0  0  0
  142.9834   71.0783  220.0052 H   0  0  0  0  0  0  0  0  0  0  0  0
  141.2700   74.7325  222.0004 H   0  0  0  0  0  0  0  0  0  0  0  0
  139.1104   69.5419  222.6118 H   0  0  0  0  0  0  0  0  0  0  0  0
  139.3023   68.0484  224.5724 H   0  0  0  0  0  0  0  0  0  0  0  0
  139.8907   67.6908  226.8115 H   0  0  0  0  0  0  0  0  0  0  0  0
  141.4688   70.9405  229.1058 H   0  0  0  0  0  0  0  0  0  0  0  0
  141.2909   72.4676  227.1690 H   0  0  0  0  0  0  0  0  0  0  0  0
  1  2  2  0
  2  3  1  0
  3  4  1  0
  4  5  1  0
  5  6  2  0
  5  7  1  0
  7  8  1  0
  8  9  1  0
  9 10  1  0
 10 11  1  0
 11 12  1  0
 12 13  2  0
 12 14  1  0
 14 15  1  0
 15 16  1  0
 16 17  2  0
 17 18  1  0
 18 19  2  0
 19 20  1  0
 20 21  1  0
 21 22  2  0
 22 23  1  0
 23 24  2  0
 24 25  1  0
 25 26  2  0
 20 27  2  0
  2 28  1  0
 28 29  2  0
 29 30  1  0
 30 31  2  0
 31 32  1  0
 32 33  2  0
 33 34  1  0
 33 35  1  0
 35 36  2  0
 36 37  1  0
 37 38  2  0
 11  7  1  0
 27 16  1  0
 38 28  1  0
 26 21  1  0
 37 31  1  0
  3 39  1  0
  4 40  1  0
  4 41  1  0
  8 42  1  0
  8 43  1  0
  9 44  1  0
  9 45  1  0
 10 46  1  0
 10 47  1  0
 11 48  1  6
 14 49  1  0
 15 50  1  0
 15 51  1  0
 17 52  1  0
 18 53  1  0
 19 54  1  0
 23 55  1  0
 24 56  1  0
 25 57  1  0
 27 58  1  0
 29 59  1  0
 30 60  1  0
 32 61  1  0
 35 62  1  0
 36 63  1  0
M  END
>  <smiles>  (43) 
O=C(NCC(=O)N1CCC[C@H]1C(=O)NCc1cccc(-c2ncccn2)c1)c1ccc2cc(F)ccc2n1

>  <score_type>  (43) 
oracle

>  <origin>  (43) 
autodockgpu

>  <m_score__min__energy>  (43) 
-9.8599999999999994

>  <m_primary>  (43) 
energy

>  <rmsd>  (43) 
4.210477497948588

>  <m_score__min__rmsd>  (43) 
4.210477497948588

>  <meeko>  (43) 
{"free_energy": -8.3, "intermolecular_energy": -10.69, "internal_energy": -3.66, "cluster_size": 8, "cluster_id": 9, "rank_in_cluster": 5}

>  <energy>  (43) 
-6.75

>  <cluster_rmsd>  (43) 
0.0

>  <cluster>  (43) 
16

$$$$

     RDKit          3D

 63 67  0  0  0  0  0  0  0  0999 V2000
  139.5980   74.5750  222.4170 O   0  0  0  0  0  0  0  0  0  0  0  0
  139.7700   75.3240  221.4130 C   0  0  0  0  0  0  0  0  0  0  0  0
  140.3200   74.8200  220.1810 N   0  0  0  0  0  0  0  0  0  0  0  0
  140.6820   73.4490  220.0550 C   0  0  0  0  0  0  0  0  0  0  0  0
  141.7370   72.9930  220.9300 C   0  0  0  0  0  0  0  0  0  0  0  0
  141.3420   72.7660  222.1570 O   0  0  0  0  0  0  0  0  0  0  0  0
  143.1050   72.7580  220.6970 N   0  0  0  0  0  0  0  0  0  0  0  0
  143.8400   71.5200  220.4780 C   0  0  0  0  0  0  0  0  0  0  0  0
  145.0730   71.9950  219.6830 C   0  0  0  0  0  0  0  0  0  0  0  0
  145.4240   73.2880  220.4300 C   0  0  0  0  0  0  0  0  0  0  0  0
  144.0580   73.8960  220.6510 C   0  0  1  0  0  0  0  0  0  0  0  0
  143.6570   74.6890  219.4360 C   0  0  0  0  0  0  0  0  0  0  0  0
  144.2470   74.3230  218.3620 O   0  0  0  0  0  0  0  0  0  0  0  0
  142.7290   75.7310  219.4470 N   0  0  0  0  0  0  0  0  0  0  0  0
  142.3300   76.5080  218.2840 C   0  0  0  0  0  0  0  0  0  0  0  0
  142.1480   77.9480  218.5900 C   0  0  0  0  0  0  0  0  0  0  0  0
  141.9250   78.8500  217.5570 C   0  0  0  0  0  0  0  0  0  0  0  0
  141.7460   80.1990  217.7780 C   0  0  0  0  0  0  0  0  0  0  0  0
  141.7880   80.6900  219.0880 C   0  0  0  0  0  0  0  0  0  0  0  0
  142.0070   79.8140  220.1310 C   0  0  0  0  0  0  0  0  0  0  0  0
  142.0580   80.2980  221.5070 C   0  0  0  0  0  0  0  0  0  0  0  0
  141.7470   81.5690  221.8160 N   0  0  0  0  0  0  0  0  0  0  0  0
  141.8020   81.9990  223.1100 C   0  0  0  0  0  0  0  0  0  0  0  0
  142.1750   81.1550  224.1410 C   0  0  0  0  0  0  0  0  0  0  0  0
  142.4910   79.8490  223.8000 C   0  0  0  0  0  0  0  0  0  0  0  0
  142.4230   79.4630  222.4960 N   0  0  0  0  0  0  0  0  0  0  0  0
  142.1810   78.4740  219.8610 C   0  0  0  0  0  0  0  0  0  0  0  0
  139.4070   76.7490  221.4770 C   0  0  0  0  0  0  0  0  0  0  0  0
  139.0300   77.3870  220.3070 C   0  0  0  0  0  0  0  0  0  0  0  0
  138.6870   78.7170  220.3280 C   0  0  0  0  0  0  0  0  0  0  0  0
  138.7170   79.4170  221.5080 C   0  0  0  0  0  0  0  0  0  0  0  0
  138.3720   80.7330  221.5020 C   0  0  0  0  0  0  0  0  0  0  0  0
  138.4020   81.4350  222.6860 C   0  0  0  0  0  0  0  0  0  0  0  0
  138.0650   82.7550  222.7330 F   0  0  0  0  0  0  0  0  0  0  0  0
  138.7830   80.7700  223.8350 C   0  0  0  0  0  0  0  0  0  0  0  0
  139.1350   79.4350  223.8530 C   0  0  0  0  0  0  0  0  0  0  0  0
  139.0990   78.7470  222.6580 C   0  0  0  0  0  0  0  0  0  0  0  0
  139.4390   77.4390  222.6430 N   0  0  0  0  0  0  0  0  0  0  0  0
  140.4370   75.5160  219.3870 H   0  0  0  0  0  0  0  0  0  0  0  0
  139.7872   72.8436  220.2617 H   0  0  0  0  0  0  0  0  0  0  0  0
  141.0729   73.3366  219.0330 H   0  0  0  0  0  0  0  0  0  0  0  0
  144.1362   71.0602  221.4324 H   0  0  0  0  0  0  0  0  0  0  0  0
  143.2532   70.7502  219.9554 H   0  0  0  0  0  0  0  0  0  0  0  0
  145.8930   71.2636  219.7345 H   0  0  0  0  0  0  0  0  0  0  0  0
  144.8937   72.1285  218.6059 H   0  0  0  0  0  0  0  0  0  0  0  0
  145.9273   73.0753  221.3847 H   0  0  0  0  0  0  0  0  0  0  0  0
  146.1208   73.9424  219.8858 H   0  0  0  0  0  0  0  0  0  0  0  0
  144.0623   74.5242  221.5539 H   0  0  0  0  0  0  0  0  0  0  0  0
  142.2470   76.0070  220.3480 H   0  0  0  0  0  0  0  0  0  0  0  0
  143.1066   76.4083  217.5113 H   0  0  0  0  0  0  0  0  0  0  0  0
  141.3607   76.1171  217.9410 H   0  0  0  0  0  0  0  0  0  0  0  0
  141.8900   78.4736  216.5240 H   0  0  0  0  0  0  0  0  0  0  0  0
  141.5720   80.8822  216.9337 H   0  0  0  0  0  0  0  0  0  0  0  0
  141.6478   81.7633  219.2839 H   0  0  0  0  0  0  0  0  0  0  0  0
  141.5432   83.0433  223.3392 H   0  0  0  0  0  0  0  0  0  0  0  0
  142.2188   81.5042  225.1832 H   0  0  0  0  0  0  0  0  0  0  0  0
  142.7940   79.1308  224.5761 H   0  0  0  0  0  0  0  0  0  0  0  0
  142.3552   77.7899  220.7046 H   0  0  0  0  0  0  0  0  0  0  0  0
  139.0052   76.8281  219.3599 H   0  0  0  0  0  0  0  0  0  0  0  0
  138.3878   79.2217  219.3975 H   0  0  0  0  0  0  0  0  0  0  0  0
  138.0738   81.2283  220.5661 H   0  0  0  0  0  0  0  0  0  0  0  0
  138.8072   81.3308  224.7810 H   0  0  0  0  0  0  0  0  0  0  0  0
  139.4336   78.9375  224.7875 H   0  0  0  0  0  0  0  0  0  0  0  0
  1  2  2  0
  2  3  1  0
  3  4  1  0
  4  5  1  0
  5  6  2  0
  5  7  1  0
  7  8  1  0
  8  9  1  0
  9 10  1  0
 10 11  1  0
 11 12  1  0
 12 13  2  0
 12 14  1  0
 14 15  1  0
 15 16  1  0
 16 17  2  0
 17 18  1  0
 18 19  2  0
 19 20  1  0
 20 21  1  0
 21 22  2  0
 22 23  1  0
 23 24  2  0
 24 25  1  0
 25 26  2  0
 20 27  2  0
  2 28  1  0
 28 29  2  0
 29 30  1  0
 30 31  2  0
 31 32  1  0
 32 33  2  0
 33 34  1  0
 33 35  1  0
 35 36  2  0
 36 37  1  0
 37 38  2  0
 11  7  1  0
 27 16  1  0
 38 28  1  0
 26 21  1  0
 37 31  1  0
  3 39  1  0
  4 40  1  0
  4 41  1  0
  8 42  1  0
  8 43  1  0
  9 44  1  0
  9 45  1  0
 10 46  1  0
 10 47  1  0
 11 48  1  1
 14 49  1  0
 15 50  1  0
 15 51  1  0
 17 52  1  0
 18 53  1  0
 19 54  1  0
 23 55  1  0
 24 56  1  0
 25 57  1  0
 27 58  1  0
 29 59  1  0
 30 60  1  0
 32 61  1  0
 35 62  1  0
 36 63  1  0
M  END
>  <smiles>  (44) 
O=C(NCC(=O)N1CCC[C@H]1C(=O)NCc1cccc(-c2ncccn2)c1)c1ccc2cc(F)ccc2n1

>  <score_type>  (44) 
oracle

>  <origin>  (44) 
autodockgpu

>  <m_score__min__energy>  (44) 
-9.8599999999999994

>  <m_primary>  (44) 
energy

>  <rmsd>  (44) 
7.472801889250001

>  <m_score__min__rmsd>  (44) 
7.472801889250001

>  <meeko>  (44) 
{"free_energy": -7.07, "intermolecular_energy": -9.46, "internal_energy": -3.85, "cluster_size": 2, "cluster_id": 15, "rank_in_cluster": 1}

>  <energy>  (44) 
-6.63

>  <cluster_rmsd>  (44) 
0.0

>  <cluster>  (44) 
17

$$$$

     RDKit          3D

 63 67  0  0  0  0  0  0  0  0999 V2000
  138.6720   70.6730  221.1330 O   0  0  0  0  0  0  0  0  0  0  0  0
  139.0160   71.3540  222.1410 C   0  0  0  0  0  0  0  0  0  0  0  0
  139.0790   72.7920  222.0960 N   0  0  0  0  0  0  0  0  0  0  0  0
  138.7440   73.4960  220.9050 C   0  0  0  0  0  0  0  0  0  0  0  0
  138.4840   74.9080  221.0590 C   0  0  0  0  0  0  0  0  0  0  0  0
  137.2360   75.2400  220.8440 O   0  0  0  0  0  0  0  0  0  0  0  0
  139.3320   75.9810  221.3920 N   0  0  0  0  0  0  0  0  0  0  0  0
  139.1750   77.0620  222.3550 C   0  0  0  0  0  0  0  0  0  0  0  0
  140.6340   77.4540  222.6650 C   0  0  0  0  0  0  0  0  0  0  0  0
  141.2560   77.4000  221.2630 C   0  0  0  0  0  0  0  0  0  0  0  0
  140.6370   76.1410  220.7000 C   0  0  1  0  0  0  0  0  0  0  0  0
  141.4490   74.9470  221.1240 C   0  0  0  0  0  0  0  0  0  0  0  0
  141.0550   74.4160  222.2190 O   0  0  0  0  0  0  0  0  0  0  0  0
  142.5340   74.4400  220.4090 N   0  0  0  0  0  0  0  0  0  0  0  0
  143.3310   73.2890  220.8030 C   0  0  0  0  0  0  0  0  0  0  0  0
  142.8350   72.0180  220.2200 C   0  0  0  0  0  0  0  0  0  0  0  0
  141.5220   71.9290  219.7760 C   0  0  0  0  0  0  0  0  0  0  0  0
  141.0050   70.7760  219.2230 C   0  0  0  0  0  0  0  0  0  0  0  0
  141.8240   69.6490  219.0990 C   0  0  0  0  0  0  0  0  0  0  0  0
  143.1320   69.7120  219.5340 C   0  0  0  0  0  0  0  0  0  0  0  0
  144.0080   68.5510  219.4200 C   0  0  0  0  0  0  0  0  0  0  0  0
  145.3120   68.6210  219.7380 N   0  0  0  0  0  0  0  0  0  0  0  0
  146.1120   67.5220  219.6230 C   0  0  0  0  0  0  0  0  0  0  0  0
  145.6190   66.3070  219.1790 C   0  0  0  0  0  0  0  0  0  0  0  0
  144.2720   66.2570  218.8560 C   0  0  0  0  0  0  0  0  0  0  0  0
  143.5110   67.3790  218.9860 N   0  0  0  0  0  0  0  0  0  0  0  0
  143.6050   70.8850  220.0790 C   0  0  0  0  0  0  0  0  0  0  0  0
  139.3660   70.6860  223.4050 C   0  0  0  0  0  0  0  0  0  0  0  0
  139.1240   69.3280  223.5240 C   0  0  0  0  0  0  0  0  0  0  0  0
  139.4360   68.6710  224.6890 C   0  0  0  0  0  0  0  0  0  0  0  0
  139.9900   69.3590  225.7390 C   0  0  0  0  0  0  0  0  0  0  0  0
  140.2910   68.6860  226.8820 C   0  0  0  0  0  0  0  0  0  0  0  0
  140.8470   69.3770  227.9360 C   0  0  0  0  0  0  0  0  0  0  0  0
  141.1660   68.7480  229.1020 F   0  0  0  0  0  0  0  0  0  0  0  0
  141.0760   70.7310  227.7860 C   0  0  0  0  0  0  0  0  0  0  0  0
  140.7740   71.4240  226.6310 C   0  0  0  0  0  0  0  0  0  0  0  0
  140.2180   70.7170  225.5850 C   0  0  0  0  0  0  0  0  0  0  0  0
  139.9120   71.3680  224.4420 N   0  0  0  0  0  0  0  0  0  0  0  0
  139.3820   73.2880  222.9860 H   0  0  0  0  0  0  0  0  0  0  0  0
  139.5804   73.3823  220.1997 H   0  0  0  0  0  0  0  0  0  0  0  0
  137.7987   73.0557  220.5548 H   0  0  0  0  0  0  0  0  0  0  0  0
  138.6219   77.9061  221.9172 H   0  0  0  0  0  0  0  0  0  0  0  0
  138.6018   76.7716  223.2478 H   0  0  0  0  0  0  0  0  0  0  0  0
  140.6980   78.4637  223.0967 H   0  0  0  0  0  0  0  0  0  0  0  0
  141.1292   76.8091  223.4059 H   0  0  0  0  0  0  0  0  0  0  0  0
  140.9801   78.2830  220.6679 H   0  0  0  0  0  0  0  0  0  0  0  0
  142.3560   77.3948  221.2629 H   0  0  0  0  0  0  0  0  0  0  0  0
  140.5678   76.2078  219.6042 H   0  0  0  0  0  0  0  0  0  0  0  0
  142.8330   74.8910  219.5000 H   0  0  0  0  0  0  0  0  0  0  0  0
  144.3669   73.4481  220.4688 H   0  0  0  0  0  0  0  0  0  0  0  0
  143.2638   73.1993  221.8973 H   0  0  0  0  0  0  0  0  0  0  0  0
  140.8705   72.8104  219.8688 H   0  0  0  0  0  0  0  0  0  0  0  0
  139.9594   70.7432  218.8830 H   0  0  0  0  0  0  0  0  0  0  0  0
  141.4292   68.7214  218.6589 H   0  0  0  0  0  0  0  0  0  0  0  0
  147.1760   67.6034  219.8899 H   0  0  0  0  0  0  0  0  0  0  0  0
  146.2662   65.4223  219.0868 H   0  0  0  0  0  0  0  0  0  0  0  0
  143.8217   65.3195  218.4979 H   0  0  0  0  0  0  0  0  0  0  0  0
  144.6506   70.9186  220.4188 H   0  0  0  0  0  0  0  0  0  0  0  0
  138.6807   68.7739  222.6834 H   0  0  0  0  0  0  0  0  0  0  0  0
  139.2416   67.5922  224.7804 H   0  0  0  0  0  0  0  0  0  0  0  0
  140.0936   67.6069  226.9634 H   0  0  0  0  0  0  0  0  0  0  0  0
  141.5203   71.2834  228.6272 H   0  0  0  0  0  0  0  0  0  0  0  0
  140.9700   72.5032  226.5475 H   0  0  0  0  0  0  0  0  0  0  0  0
  1  2  2  0
  2  3  1  0
  3  4  1  0
  4  5  1  0
  5  6  2  0
  5  7  1  0
  7  8  1  0
  8  9  1  0
  9 10  1  0
 10 11  1  0
 11 12  1  0
 12 13  2  0
 12 14  1  0
 14 15  1  0
 15 16  1  0
 16 17  2  0
 17 18  1  0
 18 19  2  0
 19 20  1  0
 20 21  1  0
 21 22  2  0
 22 23  1  0
 23 24  2  0
 24 25  1  0
 25 26  2  0
 20 27  2  0
  2 28  1  0
 28 29  2  0
 29 30  1  0
 30 31  2  0
 31 32  1  0
 32 33  2  0
 33 34  1  0
 33 35  1  0
 35 36  2  0
 36 37  1  0
 37 38  2  0
 11  7  1  0
 27 16  1  0
 38 28  1  0
 26 21  1  0
 37 31  1  0
  3 39  1  0
  4 40  1  0
  4 41  1  0
  8 42  1  0
  8 43  1  0
  9 44  1  0
  9 45  1  0
 10 46  1  0
 10 47  1  0
 11 48  1  6
 14 49  1  0
 15 50  1  0
 15 51  1  0
 17 52  1  0
 18 53  1  0
 19 54  1  0
 23 55  1  0
 24 56  1  0
 25 57  1  0
 27 58  1  0
 29 59  1  0
 30 60  1  0
 32 61  1  0
 35 62  1  0
 36 63  1  0
M  END
>  <smiles>  (45) 
O=C(NCC(=O)N1CCC[C@H]1C(=O)NCc1cccc(-c2ncccn2)c1)c1ccc2cc(F)ccc2n1

>  <score_type>  (45) 
oracle

>  <origin>  (45) 
autodockgpu

>  <m_score__min__energy>  (45) 
-9.8599999999999994

>  <m_primary>  (45) 
energy

>  <rmsd>  (45) 
5.305752850538838

>  <m_score__min__rmsd>  (45) 
5.305752850538838

>  <meeko>  (45) 
{"free_energy": -8.89, "intermolecular_energy": -11.28, "internal_energy": -3.22, "cluster_size": 3, "cluster_id": 1, "rank_in_cluster": 2}

>  <energy>  (45) 
-6.46

>  <cluster_rmsd>  (45) 
1.98

>  <cluster>  (45) 
17

$$$$

     RDKit          3D

 63 67  0  0  0  0  0  0  0  0999 V2000
  140.4150   76.9170  217.1850 O   0  0  0  0  0  0  0  0  0  0  0  0
  140.5540   76.7610  218.4310 C   0  0  0  0  0  0  0  0  0  0  0  0
  139.5410   77.1850  219.3630 N   0  0  0  0  0  0  0  0  0  0  0  0
  138.3390   77.7930  218.9020 C   0  0  0  0  0  0  0  0  0  0  0  0
  138.3500   79.2350  218.8270 C   0  0  0  0  0  0  0  0  0  0  0  0
  137.8040   79.8200  219.8630 O   0  0  0  0  0  0  0  0  0  0  0  0
  138.8360   80.1130  217.8400 N   0  0  0  0  0  0  0  0  0  0  0  0
  138.1800   81.1890  217.1110 C   0  0  0  0  0  0  0  0  0  0  0  0
  139.3620   82.1010  216.7180 C   0  0  0  0  0  0  0  0  0  0  0  0
  140.4100   81.0600  216.3050 C   0  0  0  0  0  0  0  0  0  0  0  0
  140.2450   80.0120  217.3820 C   0  0  1  0  0  0  0  0  0  0  0  0
  141.0710   80.3900  218.5830 C   0  0  0  0  0  0  0  0  0  0  0  0
  142.1740   79.7490  218.6740 O   0  0  0  0  0  0  0  0  0  0  0  0
  140.6960   81.3470  219.5260 N   0  0  0  0  0  0  0  0  0  0  0  0
  141.4800   81.7240  220.6920 C   0  0  0  0  0  0  0  0  0  0  0  0
  141.5700   80.6400  221.7000 C   0  0  0  0  0  0  0  0  0  0  0  0
  142.3480   80.8170  222.8370 C   0  0  0  0  0  0  0  0  0  0  0  0
  142.4680   79.8460  223.8090 C   0  0  0  0  0  0  0  0  0  0  0  0
  141.7870   78.6340  223.6560 C   0  0  0  0  0  0  0  0  0  0  0  0
  141.0080   78.4340  222.5350 C   0  0  0  0  0  0  0  0  0  0  0  0
  140.2880   77.1780  222.3470 C   0  0  0  0  0  0  0  0  0  0  0  0
  138.9520   77.1090  222.4810 N   0  0  0  0  0  0  0  0  0  0  0  0
  138.3000   75.9240  222.3010 C   0  0  0  0  0  0  0  0  0  0  0  0
  138.9800   74.7620  221.9790 C   0  0  0  0  0  0  0  0  0  0  0  0
  140.3570   74.8560  221.8460 C   0  0  0  0  0  0  0  0  0  0  0  0
  140.9650   76.0590  222.0350 N   0  0  0  0  0  0  0  0  0  0  0  0
  140.9170   79.4320  221.5900 C   0  0  0  0  0  0  0  0  0  0  0  0
  141.7700   76.1310  218.9720 C   0  0  0  0  0  0  0  0  0  0  0  0
  142.8710   76.9320  219.2250 C   0  0  0  0  0  0  0  0  0  0  0  0
  144.0240   76.3800  219.7280 C   0  0  0  0  0  0  0  0  0  0  0  0
  144.0870   75.0320  219.9810 C   0  0  0  0  0  0  0  0  0  0  0  0
  145.2400   74.5090  220.4790 C   0  0  0  0  0  0  0  0  0  0  0  0
  145.3040   73.1570  220.7320 C   0  0  0  0  0  0  0  0  0  0  0  0
  146.4360   72.5850  221.2310 F   0  0  0  0  0  0  0  0  0  0  0  0
  144.1890   72.3860  220.4670 C   0  0  0  0  0  0  0  0  0  0  0  0
  143.0140   72.9060  219.9620 C   0  0  0  0  0  0  0  0  0  0  0  0
  142.9670   74.2620  219.7140 C   0  0  0  0  0  0  0  0  0  0  0  0
  141.8310   74.8000  219.2190 N   0  0  0  0  0  0  0  0  0  0  0  0
  139.7380   77.0210  220.3950 H   0  0  0  0  0  0  0  0  0  0  0  0
  138.1299   77.4047  217.8943 H   0  0  0  0  0  0  0  0  0  0  0  0
  137.5720   77.5397  219.6487 H   0  0  0  0  0  0  0  0  0  0  0  0
  137.6610   80.8059  216.2200 H   0  0  0  0  0  0  0  0  0  0  0  0
  137.4058   81.7055  217.6974 H   0  0  0  0  0  0  0  0  0  0  0  0
  139.0995   82.7642  215.8806 H   0  0  0  0  0  0  0  0  0  0  0  0
  139.6913   82.7849  217.5142 H   0  0  0  0  0  0  0  0  0  0  0  0
  140.1940   80.6477  215.3083 H   0  0  0  0  0  0  0  0  0  0  0  0
  141.4309   81.4620  216.2269 H   0  0  0  0  0  0  0  0  0  0  0  0
  140.5298   79.0217  216.9970 H   0  0  0  0  0  0  0  0  0  0  0  0
  139.7830   81.8710  219.4210 H   0  0  0  0  0  0  0  0  0  0  0  0
  142.4971   81.9828  220.3627 H   0  0  0  0  0  0  0  0  0  0  0  0
  140.9752   82.5775  221.1682 H   0  0  0  0  0  0  0  0  0  0  0  0
  142.8882   81.7664  222.9669 H   0  0  0  0  0  0  0  0  0  0  0  0
  143.0935   80.0231  224.6964 H   0  0  0  0  0  0  0  0  0  0  0  0
  141.8716   77.8485  224.4214 H   0  0  0  0  0  0  0  0  0  0  0  0
  137.2064   75.8912  222.4146 H   0  0  0  0  0  0  0  0  0  0  0  0
  138.4521   73.8077  221.8352 H   0  0  0  0  0  0  0  0  0  0  0  0
  140.9522   73.9670  221.5902 H   0  0  0  0  0  0  0  0  0  0  0  0
  140.2913   79.2555  220.7027 H   0  0  0  0  0  0  0  0  0  0  0  0
  142.8222   78.0122  219.0228 H   0  0  0  0  0  0  0  0  0  0  0  0
  144.8972   77.0183  219.9282 H   0  0  0  0  0  0  0  0  0  0  0  0
  146.1074   75.1560  220.6764 H   0  0  0  0  0  0  0  0  0  0  0  0
  144.2397   71.3057  220.6680 H   0  0  0  0  0  0  0  0  0  0  0  0
  142.1452   72.2610  219.7642 H   0  0  0  0  0  0  0  0  0  0  0  0
  1  2  2  0
  2  3  1  0
  3  4  1  0
  4  5  1  0
  5  6  2  0
  5  7  1  0
  7  8  1  0
  8  9  1  0
  9 10  1  0
 10 11  1  0
 11 12  1  0
 12 13  2  0
 12 14  1  0
 14 15  1  0
 15 16  1  0
 16 17  2  0
 17 18  1  0
 18 19  2  0
 19 20  1  0
 20 21  1  0
 21 22  2  0
 22 23  1  0
 23 24  2  0
 24 25  1  0
 25 26  2  0
 20 27  2  0
  2 28  1  0
 28 29  2  0
 29 30  1  0
 30 31  2  0
 31 32  1  0
 32 33  2  0
 33 34  1  0
 33 35  1  0
 35 36  2  0
 36 37  1  0
 37 38  2  0
 11  7  1  0
 27 16  1  0
 38 28  1  0
 26 21  1  0
 37 31  1  0
  3 39  1  0
  4 40  1  0
  4 41  1  0
  8 42  1  0
  8 43  1  0
  9 44  1  0
  9 45  1  0
 10 46  1  0
 10 47  1  0
 11 48  1  6
 14 49  1  0
 15 50  1  0
 15 51  1  0
 17 52  1  0
 18 53  1  0
 19 54  1  0
 23 55  1  0
 24 56  1  0
 25 57  1  0
 27 58  1  0
 29 59  1  0
 30 60  1  0
 32 61  1  0
 35 62  1  0
 36 63  1  0
M  END
>  <smiles>  (46) 
O=C(NCC(=O)N1CCC[C@H]1C(=O)NCc1cccc(-c2ncccn2)c1)c1ccc2cc(F)ccc2n1

>  <score_type>  (46) 
oracle

>  <origin>  (46) 
autodockgpu

>  <m_score__min__energy>  (46) 
-9.8599999999999994

>  <m_primary>  (46) 
energy

>  <rmsd>  (46) 
6.6831964177534395

>  <m_score__min__rmsd>  (46) 
6.6831964177534395

>  <meeko>  (46) 
{"free_energy": -5.92, "intermolecular_energy": -8.31, "internal_energy": -5.35, "cluster_size": 1, "cluster_id": 19, "rank_in_cluster": 1}

>  <energy>  (46) 
-6.1

>  <cluster_rmsd>  (46) 
0.0

>  <cluster>  (46) 
18

$$$$

     RDKit          3D

 63 67  0  0  0  0  0  0  0  0999 V2000
  140.2840   73.0060  222.7260 O   0  0  0  0  0  0  0  0  0  0  0  0
  140.1100   71.7640  222.8850 C   0  0  0  0  0  0  0  0  0  0  0  0
  139.7510   70.9050  221.7860 N   0  0  0  0  0  0  0  0  0  0  0  0
  139.5880   71.4340  220.4740 C   0  0  0  0  0  0  0  0  0  0  0  0
  138.5000   72.3680  220.3030 C   0  0  0  0  0  0  0  0  0  0  0  0
  138.5500   73.0330  219.1760 O   0  0  0  0  0  0  0  0  0  0  0  0
  137.4090   72.6910  221.1310 N   0  0  0  0  0  0  0  0  0  0  0  0
  136.8480   72.0030  222.2860 C   0  0  0  0  0  0  0  0  0  0  0  0
  136.1590   73.1470  223.0580 C   0  0  0  0  0  0  0  0  0  0  0  0
  135.5150   73.9310  221.9080 C   0  0  0  0  0  0  0  0  0  0  0  0
  136.6160   73.9200  220.8730 C   0  0  1  0  0  0  0  0  0  0  0  0
  137.5660   75.0570  221.1360 C   0  0  0  0  0  0  0  0  0  0  0  0
  137.4610   76.0210  220.3020 O   0  0  0  0  0  0  0  0  0  0  0  0
  138.4870   75.0870  222.1840 N   0  0  0  0  0  0  0  0  0  0  0  0
  139.4130   76.1750  222.4520 C   0  0  0  0  0  0  0  0  0  0  0  0
  140.5300   76.2340  221.4790 C   0  0  0  0  0  0  0  0  0  0  0  0
  140.6190   77.3000  220.5920 C   0  0  0  0  0  0  0  0  0  0  0  0
  141.6350   77.4100  219.6660 C   0  0  0  0  0  0  0  0  0  0  0  0
  142.6200   76.4170  219.6090 C   0  0  0  0  0  0  0  0  0  0  0  0
  142.5540   75.3490  220.4790 C   0  0  0  0  0  0  0  0  0  0  0  0
  143.5660   74.2980  220.4390 C   0  0  0  0  0  0  0  0  0  0  0  0
  144.8750   74.5790  220.5590 N   0  0  0  0  0  0  0  0  0  0  0  0
  145.8030   73.5800  220.5200 C   0  0  0  0  0  0  0  0  0  0  0  0
  145.4390   72.2550  220.3550 C   0  0  0  0  0  0  0  0  0  0  0  0
  144.0840   71.9870  220.2340 C   0  0  0  0  0  0  0  0  0  0  0  0
  143.1930   73.0160  220.2790 N   0  0  0  0  0  0  0  0  0  0  0  0
  141.5200   75.2810  221.3860 C   0  0  0  0  0  0  0  0  0  0  0  0
  140.2720   71.1540  224.2150 C   0  0  0  0  0  0  0  0  0  0  0  0
  140.8510   71.9090  225.2210 C   0  0  0  0  0  0  0  0  0  0  0  0
  141.0200   71.3730  226.4740 C   0  0  0  0  0  0  0  0  0  0  0  0
  140.6150   70.0880  226.7330 C   0  0  0  0  0  0  0  0  0  0  0  0
  140.7930   69.5800  227.9820 C   0  0  0  0  0  0  0  0  0  0  0  0
  140.3870   68.2890  228.2410 C   0  0  0  0  0  0  0  0  0  0  0  0
  140.5440   67.7350  229.4760 F   0  0  0  0  0  0  0  0  0  0  0  0
  139.8130   67.5630  227.2160 C   0  0  0  0  0  0  0  0  0  0  0  0
  139.6280   68.0680  225.9450 C   0  0  0  0  0  0  0  0  0  0  0  0
  140.0410   69.3620  225.7020 C   0  0  0  0  0  0  0  0  0  0  0  0
  139.8730   69.8840  224.4680 N   0  0  0  0  0  0  0  0  0  0  0  0
  139.6190   69.8730  222.0060 H   0  0  0  0  0  0  0  0  0  0  0  0
  140.5207   71.9486  220.1994 H   0  0  0  0  0  0  0  0  0  0  0  0
  139.3460   70.5733  219.8331 H   0  0  0  0  0  0  0  0  0  0  0  0
  136.1205   71.2378  221.9775 H   0  0  0  0  0  0  0  0  0  0  0  0
  137.5996   71.4642  222.8816 H   0  0  0  0  0  0  0  0  0  0  0  0
  135.4026   72.7633  223.7585 H   0  0  0  0  0  0  0  0  0  0  0  0
  136.8373   73.7415  223.6877 H   0  0  0  0  0  0  0  0  0  0  0  0
  134.6107   73.4269  221.5364 H   0  0  0  0  0  0  0  0  0  0  0  0
  135.1780   74.9395  222.1897 H   0  0  0  0  0  0  0  0  0  0  0  0
  136.1886   73.9833  219.8614 H   0  0  0  0  0  0  0  0  0  0  0  0
  138.5460   74.2800  222.8650 H   0  0  0  0  0  0  0  0  0  0  0  0
  138.8601   77.1250  222.4098 H   0  0  0  0  0  0  0  0  0  0  0  0
  139.8498   75.9997  223.4462 H   0  0  0  0  0  0  0  0  0  0  0  0
  139.8501   78.0857  220.6299 H   0  0  0  0  0  0  0  0  0  0  0  0
  141.6710   78.2688  218.9796 H   0  0  0  0  0  0  0  0  0  0  0  0
  143.4385   76.4878  218.8775 H   0  0  0  0  0  0  0  0  0  0  0  0
  146.8683   73.8341  220.6224 H   0  0  0  0  0  0  0  0  0  0  0  0
  146.1898   71.4518  220.3214 H   0  0  0  0  0  0  0  0  0  0  0  0
  143.7320   70.9531  220.1029 H   0  0  0  0  0  0  0  0  0  0  0  0
  141.4828   74.4214  222.0714 H   0  0  0  0  0  0  0  0  0  0  0  0
  141.1761   72.9397  225.0162 H   0  0  0  0  0  0  0  0  0  0  0  0
  141.4808   71.9748  227.2712 H   0  0  0  0  0  0  0  0  0  0  0  0
  141.2538   70.1901  228.7729 H   0  0  0  0  0  0  0  0  0  0  0  0
  139.4876   66.5327  227.4225 H   0  0  0  0  0  0  0  0  0  0  0  0
  139.1671   67.4598  225.1528 H   0  0  0  0  0  0  0  0  0  0  0  0
  1  2  2  0
  2  3  1  0
  3  4  1  0
  4  5  1  0
  5  6  2  0
  5  7  1  0
  7  8  1  0
  8  9  1  0
  9 10  1  0
 10 11  1  0
 11 12  1  0
 12 13  2  0
 12 14  1  0
 14 15  1  0
 15 16  1  0
 16 17  2  0
 17 18  1  0
 18 19  2  0
 19 20  1  0
 20 21  1  0
 21 22  2  0
 22 23  1  0
 23 24  2  0
 24 25  1  0
 25 26  2  0
 20 27  2  0
  2 28  1  0
 28 29  2  0
 29 30  1  0
 30 31  2  0
 31 32  1  0
 32 33  2  0
 33 34  1  0
 33 35  1  0
 35 36  2  0
 36 37  1  0
 37 38  2  0
 11  7  1  0
 27 16  1  0
 38 28  1  0
 26 21  1  0
 37 31  1  0
  3 39  1  0
  4 40  1  0
  4 41  1  0
  8 42  1  0
  8 43  1  0
  9 44  1  0
  9 45  1  0
 10 46  1  0
 10 47  1  0
 11 48  1  6
 14 49  1  0
 15 50  1  0
 15 51  1  0
 17 52  1  0
 18 53  1  0
 19 54  1  0
 23 55  1  0
 24 56  1  0
 25 57  1  0
 27 58  1  0
 29 59  1  0
 30 60  1  0
 32 61  1  0
 35 62  1  0
 36 63  1  0
M  END
>  <smiles>  (47) 
O=C(NCC(=O)N1CCC[C@H]1C(=O)NCc1cccc(-c2ncccn2)c1)c1ccc2cc(F)ccc2n1

>  <score_type>  (47) 
oracle

>  <origin>  (47) 
autodockgpu

>  <m_score__min__energy>  (47) 
-9.8599999999999994

>  <m_primary>  (47) 
energy

>  <rmsd>  (47) 
4.833063959390937

>  <m_score__min__rmsd>  (47) 
4.833063959390937

>  <meeko>  (47) 
{"free_energy": -8.36, "intermolecular_energy": -10.74, "internal_energy": -3.98, "cluster_size": 8, "cluster_id": 9, "rank_in_cluster": 3}

>  <energy>  (47) 
-5.57

>  <cluster_rmsd>  (47) 
0.8

>  <cluster>  (47) 
18

$$$$

     RDKit          3D

 63 67  0  0  0  0  0  0  0  0999 V2000
  140.5360   77.5460  218.4240 O   0  0  0  0  0  0  0  0  0  0  0  0
  141.7730   77.6210  218.6760 C   0  0  0  0  0  0  0  0  0  0  0  0
  142.4070   78.8790  218.9770 N   0  0  0  0  0  0  0  0  0  0  0  0
  141.6500   80.0850  219.0070 C   0  0  0  0  0  0  0  0  0  0  0  0
  141.0190   80.4010  220.2670 C   0  0  0  0  0  0  0  0  0  0  0  0
  139.7110   80.4180  220.2100 O   0  0  0  0  0  0  0  0  0  0  0  0
  141.5590   80.6980  221.5320 N   0  0  0  0  0  0  0  0  0  0  0  0
  141.4930   81.9070  222.3410 C   0  0  0  0  0  0  0  0  0  0  0  0
  141.6980   81.3680  223.7720 C   0  0  0  0  0  0  0  0  0  0  0  0
  142.8110   80.3380  223.5400 C   0  0  0  0  0  0  0  0  0  0  0  0
  142.3580   79.6780  222.2580 C   0  0  1  0  0  0  0  0  0  0  0  0
  141.3830   78.5760  222.5760 C   0  0  0  0  0  0  0  0  0  0  0  0
  140.4710   78.9160  223.4050 O   0  0  0  0  0  0  0  0  0  0  0  0
  141.4400   77.2930  222.0310 N   0  0  0  0  0  0  0  0  0  0  0  0
  140.5080   76.2160  222.3270 C   0  0  0  0  0  0  0  0  0  0  0  0
  140.2660   75.3290  221.1640 C   0  0  0  0  0  0  0  0  0  0  0  0
  139.2790   75.6530  220.2420 C   0  0  0  0  0  0  0  0  0  0  0  0
  139.0090   74.8690  219.1400 C   0  0  0  0  0  0  0  0  0  0  0  0
  139.7500   73.7000  218.9330 C   0  0  0  0  0  0  0  0  0  0  0  0
  140.7360   73.3560  219.8350 C   0  0  0  0  0  0  0  0  0  0  0  0
  141.5230   72.1420  219.6450 C   0  0  0  0  0  0  0  0  0  0  0  0
  141.2840   71.3030  218.6220 N   0  0  0  0  0  0  0  0  0  0  0  0
  142.0330   70.1730  218.4650 C   0  0  0  0  0  0  0  0  0  0  0  0
  143.0540   69.8500  219.3420 C   0  0  0  0  0  0  0  0  0  0  0  0
  143.2830   70.7290  220.3890 C   0  0  0  0  0  0  0  0  0  0  0  0
  142.5110   71.8450  220.5070 N   0  0  0  0  0  0  0  0  0  0  0  0
  140.9700   74.1710  220.9210 C   0  0  0  0  0  0  0  0  0  0  0  0
  142.6090   76.4100  218.6690 C   0  0  0  0  0  0  0  0  0  0  0  0
  142.6550   75.6460  217.5150 C   0  0  0  0  0  0  0  0  0  0  0  0
  143.4230   74.5080  217.4720 C   0  0  0  0  0  0  0  0  0  0  0  0
  144.1460   74.1250  218.5730 C   0  0  0  0  0  0  0  0  0  0  0  0
  144.9000   72.9940  218.5060 C   0  0  0  0  0  0  0  0  0  0  0  0
  145.6250   72.6090  219.6110 C   0  0  0  0  0  0  0  0  0  0  0  0
  146.3950   71.4840  219.5940 F   0  0  0  0  0  0  0  0  0  0  0  0
  145.5570   73.3920  220.7470 C   0  0  0  0  0  0  0  0  0  0  0  0
  144.7960   74.5410  220.8270 C   0  0  0  0  0  0  0  0  0  0  0  0
  144.0750   74.9120  219.7110 C   0  0  0  0  0  0  0  0  0  0  0  0
  143.3210   76.0320  219.7590 N   0  0  0  0  0  0  0  0  0  0  0  0
  143.4510   78.8560  219.1730 H   0  0  0  0  0  0  0  0  0  0  0  0
  142.3261   80.9141  218.7511 H   0  0  0  0  0  0  0  0  0  0  0  0
  140.8284   79.9393  218.2902 H   0  0  0  0  0  0  0  0  0  0  0  0
  142.2900   82.6132  222.0650 H   0  0  0  0  0  0  0  0  0  0  0  0
  140.5541   82.4662  222.2151 H   0  0  0  0  0  0  0  0  0  0  0  0
  142.0203   82.1628  224.4608 H   0  0  0  0  0  0  0  0  0  0  0  0
  140.7894   80.9571  224.2363 H   0  0  0  0  0  0  0  0  0  0  0  0
  143.7889   80.8260  223.4155 H   0  0  0  0  0  0  0  0  0  0  0  0
  142.9516   79.6376  224.3764 H   0  0  0  0  0  0  0  0  0  0  0  0
  143.2249   79.2950  221.6996 H   0  0  0  0  0  0  0  0  0  0  0  0
  142.1990   77.0410  221.3390 H   0  0  0  0  0  0  0  0  0  0  0  0
  140.9185   75.6123  223.1498 H   0  0  0  0  0  0  0  0  0  0  0  0
  139.5462   76.6759  222.5982 H   0  0  0  0  0  0  0  0  0  0  0  0
  138.6906   76.5694  220.3966 H   0  0  0  0  0  0  0  0  0  0  0  0
  138.2195   75.1595  218.4312 H   0  0  0  0  0  0  0  0  0  0  0  0
  139.5485   73.0618  218.0600 H   0  0  0  0  0  0  0  0  0  0  0  0
  141.8199   69.5018  217.6200 H   0  0  0  0  0  0  0  0  0  0  0  0
  143.6557   68.9381  219.2140 H   0  0  0  0  0  0  0  0  0  0  0  0
  144.0813   70.5270  221.1183 H   0  0  0  0  0  0  0  0  0  0  0  0
  141.7596   73.8817  221.6301 H   0  0  0  0  0  0  0  0  0  0  0  0
  142.0755   75.9510  216.6312 H   0  0  0  0  0  0  0  0  0  0  0  0
  143.4583   73.9033  216.5538 H   0  0  0  0  0  0  0  0  0  0  0  0
  144.9296   72.3966  217.5828 H   0  0  0  0  0  0  0  0  0  0  0  0
  146.1369   73.0853  221.6300 H   0  0  0  0  0  0  0  0  0  0  0  0
  144.7656   75.1401  221.7490 H   0  0  0  0  0  0  0  0  0  0  0  0
  1  2  2  0
  2  3  1  0
  3  4  1  0
  4  5  1  0
  5  6  2  0
  5  7  1  0
  7  8  1  0
  8  9  1  0
  9 10  1  0
 10 11  1  0
 11 12  1  0
 12 13  2  0
 12 14  1  0
 14 15  1  0
 15 16  1  0
 16 17  2  0
 17 18  1  0
 18 19  2  0
 19 20  1  0
 20 21  1  0
 21 22  2  0
 22 23  1  0
 23 24  2  0
 24 25  1  0
 25 26  2  0
 20 27  2  0
  2 28  1  0
 28 29  2  0
 29 30  1  0
 30 31  2  0
 31 32  1  0
 32 33  2  0
 33 34  1  0
 33 35  1  0
 35 36  2  0
 36 37  1  0
 37 38  2  0
 11  7  1  0
 27 16  1  0
 38 28  1  0
 26 21  1  0
 37 31  1  0
  3 39  1  0
  4 40  1  0
  4 41  1  0
  8 42  1  0
  8 43  1  0
  9 44  1  0
  9 45  1  0
 10 46  1  0
 10 47  1  0
 11 48  1  6
 14 49  1  0
 15 50  1  0
 15 51  1  0
 17 52  1  0
 18 53  1  0
 19 54  1  0
 23 55  1  0
 24 56  1  0
 25 57  1  0
 27 58  1  0
 29 59  1  0
 30 60  1  0
 32 61  1  0
 35 62  1  0
 36 63  1  0
M  END
>  <smiles>  (48) 
O=C(NCC(=O)N1CCC[C@H]1C(=O)NCc1cccc(-c2ncccn2)c1)c1ccc2cc(F)ccc2n1

>  <score_type>  (48) 
oracle

>  <origin>  (48) 
autodockgpu

>  <m_score__min__energy>  (48) 
-9.8599999999999994

>  <m_primary>  (48) 
energy

>  <rmsd>  (48) 
7.802653327805869

>  <m_score__min__rmsd>  (48) 
7.802653327805869

>  <meeko>  (48) 
{"free_energy": -6.46, "intermolecular_energy": -8.85, "internal_energy": -5.1, "cluster_size": 2, "cluster_id": 17, "rank_in_cluster": 2}

>  <energy>  (48) 
-5.92

>  <cluster_rmsd>  (48) 
0.0

>  <cluster>  (48) 
19

$$$$

     RDKit          3D

 63 67  0  0  0  0  0  0  0  0999 V2000
  140.2150   73.0600  222.6890 O   0  0  0  0  0  0  0  0  0  0  0  0
  139.5780   72.0360  223.0660 C   0  0  0  0  0  0  0  0  0  0  0  0
  138.4840   71.5010  222.2980 N   0  0  0  0  0  0  0  0  0  0  0  0
  138.0890   72.1120  221.0740 C   0  0  0  0  0  0  0  0  0  0  0  0
  136.8070   72.7770  221.0860 C   0  0  0  0  0  0  0  0  0  0  0  0
  136.0200   72.4200  220.1030 O   0  0  0  0  0  0  0  0  0  0  0  0
  136.2630   73.7370  221.9590 N   0  0  0  0  0  0  0  0  0  0  0  0
  135.7870   73.6230  223.3300 C   0  0  0  0  0  0  0  0  0  0  0  0
  135.9470   75.0610  223.8650 C   0  0  0  0  0  0  0  0  0  0  0  0
  135.4530   75.8770  222.6640 C   0  0  0  0  0  0  0  0  0  0  0  0
  136.0940   75.1420  221.5080 C   0  0  1  0  0  0  0  0  0  0  0  0
  137.4950   75.6540  221.3000 C   0  0  0  0  0  0  0  0  0  0  0  0
  137.5850   76.5640  220.4070 O   0  0  0  0  0  0  0  0  0  0  0  0
  138.6110   75.1990  222.0020 N   0  0  0  0  0  0  0  0  0  0  0  0
  139.9710   75.6800  221.8140 C   0  0  0  0  0  0  0  0  0  0  0  0
  140.1430   77.0940  222.2230 C   0  0  0  0  0  0  0  0  0  0  0  0
  141.3670   77.7240  222.0330 C   0  0  0  0  0  0  0  0  0  0  0  0
  141.5860   79.0380  222.3920 C   0  0  0  0  0  0  0  0  0  0  0  0
  140.5450   79.7730  222.9690 C   0  0  0  0  0  0  0  0  0  0  0  0
  139.3210   79.1700  223.1690 C   0  0  0  0  0  0  0  0  0  0  0  0
  138.2180   79.9130  223.7710 C   0  0  0  0  0  0  0  0  0  0  0  0
  138.4380   80.9070  224.6480 N   0  0  0  0  0  0  0  0  0  0  0  0
  137.3910   81.5870  225.1980 C   0  0  0  0  0  0  0  0  0  0  0  0
  136.0790   81.2830  224.8810 C   0  0  0  0  0  0  0  0  0  0  0  0
  135.8750   80.2540  223.9740 C   0  0  0  0  0  0  0  0  0  0  0  0
  136.9490   79.6030  223.4500 N   0  0  0  0  0  0  0  0  0  0  0  0
  139.1480   77.8560  222.7950 C   0  0  0  0  0  0  0  0  0  0  0  0
  139.9420   71.3530  224.3190 C   0  0  0  0  0  0  0  0  0  0  0  0
  140.8530   71.9650  225.1630 C   0  0  0  0  0  0  0  0  0  0  0  0
  141.2180   71.3570  226.3400 C   0  0  0  0  0  0  0  0  0  0  0  0
  140.6800   70.1410  226.6810 C   0  0  0  0  0  0  0  0  0  0  0  0
  141.0580   69.5590  227.8510 C   0  0  0  0  0  0  0  0  0  0  0  0
  140.5180   68.3390  228.1930 C   0  0  0  0  0  0  0  0  0  0  0  0
  140.8640   67.7150  229.3550 F   0  0  0  0  0  0  0  0  0  0  0  0
  139.6130   67.7550  227.3290 C   0  0  0  0  0  0  0  0  0  0  0  0
  139.2230   68.3360  226.1390 C   0  0  0  0  0  0  0  0  0  0  0  0
  139.7730   69.5580  225.8110 C   0  0  0  0  0  0  0  0  0  0  0  0
  139.4110   70.1520  224.6530 N   0  0  0  0  0  0  0  0  0  0  0  0
  137.9980   70.6400  222.6880 H   0  0  0  0  0  0  0  0  0  0  0  0
  138.8528   72.8573  220.8075 H   0  0  0  0  0  0  0  0  0  0  0  0
  137.9915   71.2905  220.3490 H   0  0  0  0  0  0  0  0  0  0  0  0
  134.7348   73.3036  223.3593 H   0  0  0  0  0  0  0  0  0  0  0  0
  136.3340   72.8738  223.9212 H   0  0  0  0  0  0  0  0  0  0  0  0
  135.3229   75.2329  224.7543 H   0  0  0  0  0  0  0  0  0  0  0  0
  136.9661   75.3112  224.1948 H   0  0  0  0  0  0  0  0  0  0  0  0
  134.3556   75.8590  222.5913 H   0  0  0  0  0  0  0  0  0  0  0  0
  135.7129   76.9447  222.7129 H   0  0  0  0  0  0  0  0  0  0  0  0
  135.4871   75.2594  220.5981 H   0  0  0  0  0  0  0  0  0  0  0  0
  138.5070   74.4520  222.7440 H   0  0  0  0  0  0  0  0  0  0  0  0
  140.6503   75.0559  222.4133 H   0  0  0  0  0  0  0  0  0  0  0  0
  140.1986   75.6165  220.7397 H   0  0  0  0  0  0  0  0  0  0  0  0
  142.1915   77.1541  221.5798 H   0  0  0  0  0  0  0  0  0  0  0  0
  142.5690   79.5029  222.2262 H   0  0  0  0  0  0  0  0  0  0  0  0
  140.7013   80.8221  223.2604 H   0  0  0  0  0  0  0  0  0  0  0  0
  137.5953   82.3983  225.9122 H   0  0  0  0  0  0  0  0  0  0  0  0
  135.2369   81.8320  225.3276 H   0  0  0  0  0  0  0  0  0  0  0  0
  134.8545   79.9667  223.6808 H   0  0  0  0  0  0  0  0  0  0  0  0
  138.1651   77.3911  222.9615 H   0  0  0  0  0  0  0  0  0  0  0  0
  141.2852   72.9393  224.8910 H   0  0  0  0  0  0  0  0  0  0  0  0
  141.9418   71.8450  227.0094 H   0  0  0  0  0  0  0  0  0  0  0  0
  141.7831   70.0547  228.5132 H   0  0  0  0  0  0  0  0  0  0  0  0
  139.1823   66.7803  227.6019 H   0  0  0  0  0  0  0  0  0  0  0  0
  138.4986   67.8416  225.4751 H   0  0  0  0  0  0  0  0  0  0  0  0
  1  2  2  0
  2  3  1  0
  3  4  1  0
  4  5  1  0
  5  6  2  0
  5  7  1  0
  7  8  1  0
  8  9  1  0
  9 10  1  0
 10 11  1  0
 11 12  1  0
 12 13  2  0
 12 14  1  0
 14 15  1  0
 15 16  1  0
 16 17  2  0
 17 18  1  0
 18 19  2  0
 19 20  1  0
 20 21  1  0
 21 22  2  0
 22 23  1  0
 23 24  2  0
 24 25  1  0
 25 26  2  0
 20 27  2  0
  2 28  1  0
 28 29  2  0
 29 30  1  0
 30 31  2  0
 31 32  1  0
 32 33  2  0
 33 34  1  0
 33 35  1  0
 35 36  2  0
 36 37  1  0
 37 38  2  0
 11  7  1  0
 27 16  1  0
 38 28  1  0
 26 21  1  0
 37 31  1  0
  3 39  1  0
  4 40  1  0
  4 41  1  0
  8 42  1  0
  8 43  1  0
  9 44  1  0
  9 45  1  0
 10 46  1  0
 10 47  1  0
 11 48  1  6
 14 49  1  0
 15 50  1  0
 15 51  1  0
 17 52  1  0
 18 53  1  0
 19 54  1  0
 23 55  1  0
 24 56  1  0
 25 57  1  0
 27 58  1  0
 29 59  1  0
 30 60  1  0
 32 61  1  0
 35 62  1  0
 36 63  1  0
M  END
>  <smiles>  (49) 
O=C(NCC(=O)N1CCC[C@H]1C(=O)NCc1cccc(-c2ncccn2)c1)c1ccc2cc(F)ccc2n1

>  <score_type>  (49) 
oracle

>  <origin>  (49) 
autodockgpu

>  <m_score__min__energy>  (49) 
-9.8599999999999994

>  <m_primary>  (49) 
energy

>  <rmsd>  (49) 
4.591851566454521

>  <m_score__min__rmsd>  (49) 
4.591851566454521

>  <meeko>  (49) 
{"free_energy": -8.57, "intermolecular_energy": -10.95, "internal_energy": -3.39, "cluster_size": 4, "cluster_id": 3, "rank_in_cluster": 3}

>  <energy>  (49) 
-5.85

>  <cluster_rmsd>  (49) 
0.0

>  <cluster>  (49) 
20

$$$$

     RDKit          3D

 63 67  0  0  0  0  0  0  0  0999 V2000
  137.3820   70.1160  221.9470 O   0  0  0  0  0  0  0  0  0  0  0  0
  138.0550   70.8410  222.7350 C   0  0  0  0  0  0  0  0  0  0  0  0
  138.2200   72.2530  222.5060 N   0  0  0  0  0  0  0  0  0  0  0  0
  137.6180   72.8820  221.3790 C   0  0  0  0  0  0  0  0  0  0  0  0
  136.4600   73.6980  221.6570 C   0  0  0  0  0  0  0  0  0  0  0  0
  136.2530   74.6380  220.7690 O   0  0  0  0  0  0  0  0  0  0  0  0
  135.5270   73.6650  222.7110 N   0  0  0  0  0  0  0  0  0  0  0  0
  135.2790   72.6630  223.7380 C   0  0  0  0  0  0  0  0  0  0  0  0
  134.6430   73.4920  224.8720 C   0  0  0  0  0  0  0  0  0  0  0  0
  133.7070   74.4110  224.0750 C   0  0  0  0  0  0  0  0  0  0  0  0
  134.5780   74.7920  222.9000 C   0  0  1  0  0  0  0  0  0  0  0  0
  135.4410   75.9670  223.2720 C   0  0  0  0  0  0  0  0  0  0  0  0
  135.6030   76.1110  224.5320 O   0  0  0  0  0  0  0  0  0  0  0  0
  136.0250   76.8370  222.3510 N   0  0  0  0  0  0  0  0  0  0  0  0
  136.8600   77.9780  222.6910 C   0  0  0  0  0  0  0  0  0  0  0  0
  138.3090   77.6690  222.6350 C   0  0  0  0  0  0  0  0  0  0  0  0
  139.2330   78.6070  223.0790 C   0  0  0  0  0  0  0  0  0  0  0  0
  140.5920   78.3750  223.0530 C   0  0  0  0  0  0  0  0  0  0  0  0
  141.0710   77.1550  222.5640 C   0  0  0  0  0  0  0  0  0  0  0  0
  140.1730   76.2070  222.1170 C   0  0  0  0  0  0  0  0  0  0  0  0
  140.6430   74.9270  221.5990 C   0  0  0  0  0  0  0  0  0  0  0  0
  140.5320   73.7960  222.3180 N   0  0  0  0  0  0  0  0  0  0  0  0
  140.9800   72.6100  221.8130 C   0  0  0  0  0  0  0  0  0  0  0  0
  141.5590   72.5250  220.5590 C   0  0  0  0  0  0  0  0  0  0  0  0
  141.6630   73.7030  219.8350 C   0  0  0  0  0  0  0  0  0  0  0  0
  141.2030   74.8640  220.3780 N   0  0  0  0  0  0  0  0  0  0  0  0
  138.8240   76.4830  222.1620 C   0  0  0  0  0  0  0  0  0  0  0  0
  138.6950   70.2530  223.9230 C   0  0  0  0  0  0  0  0  0  0  0  0
  138.6410   68.8790  224.0910 C   0  0  0  0  0  0  0  0  0  0  0  0
  139.2260   68.2950  225.1870 C   0  0  0  0  0  0  0  0  0  0  0  0
  139.8670   69.0720  226.1200 C   0  0  0  0  0  0  0  0  0  0  0  0
  140.4390   68.4700  227.1970 C   0  0  0  0  0  0  0  0  0  0  0  0
  141.0810   69.2500  228.1340 C   0  0  0  0  0  0  0  0  0  0  0  0
  141.6700   68.6950  229.2300 F   0  0  0  0  0  0  0  0  0  0  0  0
  141.1170   70.6170  227.9370 C   0  0  0  0  0  0  0  0  0  0  0  0
  140.5400   71.2380  226.8480 C   0  0  0  0  0  0  0  0  0  0  0  0
  139.9000   70.4420  225.9200 C   0  0  0  0  0  0  0  0  0  0  0  0
  139.3260   71.0220  224.8430 N   0  0  0  0  0  0  0  0  0  0  0  0
  138.8050   72.7890  223.2140 H   0  0  0  0  0  0  0  0  0  0  0  0
  138.3763   73.5230  220.9056 H   0  0  0  0  0  0  0  0  0  0  0  0
  137.2588   72.0637  220.7376 H   0  0  0  0  0  0  0  0  0  0  0  0
  134.5872   71.8876  223.3772 H   0  0  0  0  0  0  0  0  0  0  0  0
  136.1849   72.1213  224.0478 H   0  0  0  0  0  0  0  0  0  0  0  0
  134.0832   72.8551  225.5727 H   0  0  0  0  0  0  0  0  0  0  0  0
  135.3679   74.0235  225.5060 H   0  0  0  0  0  0  0  0  0  0  0  0
  132.8034   73.8761  223.7474 H   0  0  0  0  0  0  0  0  0  0  0  0
  133.3307   75.2707  224.6488 H   0  0  0  0  0  0  0  0  0  0  0  0
  133.9553   75.0170  222.0216 H   0  0  0  0  0  0  0  0  0  0  0  0
  135.8840   76.6890  221.3130 H   0  0  0  0  0  0  0  0  0  0  0  0
  136.6471   78.7923  221.9828 H   0  0  0  0  0  0  0  0  0  0  0  0
  136.6230   78.2639  223.7264 H   0  0  0  0  0  0  0  0  0  0  0  0
  138.8670   79.5697  223.4653 H   0  0  0  0  0  0  0  0  0  0  0  0
  141.2930   79.1422  223.4135 H   0  0  0  0  0  0  0  0  0  0  0  0
  142.1520   76.9534  222.5360 H   0  0  0  0  0  0  0  0  0  0  0  0
  140.8782   71.6975  222.4188 H   0  0  0  0  0  0  0  0  0  0  0  0
  141.9200   71.5675  220.1554 H   0  0  0  0  0  0  0  0  0  0  0  0
  142.1129   73.6997  218.8312 H   0  0  0  0  0  0  0  0  0  0  0  0
  138.1223   75.7164  221.8015 H   0  0  0  0  0  0  0  0  0  0  0  0
  138.1283   68.2546  223.3446 H   0  0  0  0  0  0  0  0  0  0  0  0
  139.1812   67.2037  225.3178 H   0  0  0  0  0  0  0  0  0  0  0  0
  140.3899   67.3778  227.3182 H   0  0  0  0  0  0  0  0  0  0  0  0
  141.6302   71.2403  228.6840 H   0  0  0  0  0  0  0  0  0  0  0  0
  140.5885   72.3299  226.7240 H   0  0  0  0  0  0  0  0  0  0  0  0
  1  2  2  0
  2  3  1  0
  3  4  1  0
  4  5  1  0
  5  6  2  0
  5  7  1  0
  7  8  1  0
  8  9  1  0
  9 10  1  0
 10 11  1  0
 11 12  1  0
 12 13  2  0
 12 14  1  0
 14 15  1  0
 15 16  1  0
 16 17  2  0
 17 18  1  0
 18 19  2  0
 19 20  1  0
 20 21  1  0
 21 22  2  0
 22 23  1  0
 23 24  2  0
 24 25  1  0
 25 26  2  0
 20 27  2  0
  2 28  1  0
 28 29  2  0
 29 30  1  0
 30 31  2  0
 31 32  1  0
 32 33  2  0
 33 34  1  0
 33 35  1  0
 35 36  2  0
 36 37  1  0
 37 38  2  0
 11  7  1  0
 27 16  1  0
 38 28  1  0
 26 21  1  0
 37 31  1  0
  3 39  1  0
  4 40  1  0
  4 41  1  0
  8 42  1  0
  8 43  1  0
  9 44  1  0
  9 45  1  0
 10 46  1  0
 10 47  1  0
 11 48  1  6
 14 49  1  0
 15 50  1  0
 15 51  1  0
 17 52  1  0
 18 53  1  0
 19 54  1  0
 23 55  1  0
 24 56  1  0
 25 57  1  0
 27 58  1  0
 29 59  1  0
 30 60  1  0
 32 61  1  0
 35 62  1  0
 36 63  1  0
M  END
>  <smiles>  (50) 
O=C(NCC(=O)N1CCC[C@H]1C(=O)NCc1cccc(-c2ncccn2)c1)c1ccc2cc(F)ccc2n1

>  <score_type>  (50) 
oracle

>  <origin>  (50) 
autodockgpu

>  <m_score__min__energy>  (50) 
-9.8599999999999994

>  <m_primary>  (50) 
energy

>  <rmsd>  (50) 
5.022606064119218

>  <m_score__min__rmsd>  (50) 
5.022606064119218

>  <meeko>  (50) 
{"free_energy": -8.07, "intermolecular_energy": -10.45, "internal_energy": -4.32, "cluster_size": 6, "cluster_id": 8, "rank_in_cluster": 3}

>  <energy>  (50) 
-5.74

>  <cluster_rmsd>  (50) 
0.0

>  <cluster>  (50) 
21

$$$$
