@<TRIPOS>MOLECULE
*****
 74 79 0 0 0
SMALL
GASTEIGER

@<TRIPOS>ATOM
      1 N         146.2100   68.3600  217.6500 N.am    1  UNL1       -0.3283
      2 C         146.0140   68.8570  218.9710 C.2     1  UNL1        0.2246
      3 O         145.8650   68.0600  219.9360 O.2     1  UNL1       -0.2746
      4 C         145.9950   70.3330  219.1350 C.3     1  UNL1        0.0755
      5 N         144.7350   70.9110  218.7300 N.3     1  UNL1       -0.2940
      6 C         143.7010   70.6790  219.7000 C.3     1  UNL1        0.0000
      7 C         143.7110   71.6940  220.8180 C.3     1  UNL1       -0.0304
      8 C         143.6710   73.1190  220.3410 C.3     1  UNL1        0.0215
      9 C         142.4500   73.7890  220.8440 C.ar    1  UNL1        0.1394
     10 N         141.4220   73.0070  221.2140 N.ar    1  UNL1       -0.1990
     11 C         140.3090   73.6060  221.6730 C.ar    1  UNL1        0.2225
     12 N         139.2030   72.8050  222.0700 N.pl3   1  UNL1       -0.2965
     13 C         137.8580   73.0630  221.5850 C.3     1  UNL1        0.0306
     14 C         136.8320   72.8260  222.6830 C.3     1  UNL1        0.0280
     15 N         136.9970   71.5120  223.2850 N.pl3   1  UNL1       -0.3269
     16 C         135.9900   71.0670  224.1840 C.ar    1  UNL1        0.0298
     17 C         135.0380   71.9020  224.7330 C.ar    1  UNL1       -0.0407
     18 C         134.0710   71.4170  225.6070 C.ar    1  UNL1       -0.0600
     19 C         134.0270   70.0900  225.9540 C.ar    1  UNL1       -0.0616
     20 C         134.9740   69.2410  225.4120 C.ar    1  UNL1       -0.0600
     21 C         135.9120   69.7320  224.5600 C.ar    1  UNL1       -0.0407
     22 C         138.1620   70.7600  222.9280 C.3     1  UNL1        0.0280
     23 C         139.3700   71.6940  222.9800 C.3     1  UNL1        0.0306
     24 N         140.2020   74.9430  221.7680 N.ar    1  UNL1       -0.1808
     25 C         141.2290   75.7510  221.4010 C.ar    1  UNL1        0.2227
     26 N         141.1520   77.1690  221.4880 N.pl3   1  UNL1       -0.2949
     27 C         141.1620   78.0130  220.3050 C.3     1  UNL1        0.0192
     28 C         140.1470   79.1310  220.5850 C.3     1  UNL1       -0.0115
     29 C         140.7380   79.9290  221.6920 C.ar    1  UNL1       -0.0412
     30 C         140.8240   81.3040  221.6080 C.ar    1  UNL1       -0.0582
     31 C         141.3850   82.0220  222.6680 C.ar    1  UNL1       -0.0615
     32 C         141.8400   81.3270  223.7750 C.ar    1  UNL1       -0.0614
     33 C         141.7420   79.9460  223.8350 C.ar    1  UNL1       -0.0568
     34 C         141.1880   79.2250  222.7920 C.ar    1  UNL1       -0.0269
     35 C         141.0630   77.7520  222.8130 C.3     1  UNL1        0.0402
     36 N         142.3310   75.1300  220.9450 N.ar    1  UNL1       -0.1990
     37 C         143.7750   73.1750  218.8360 C.3     1  UNL1       -0.0304
     38 C         144.8540   72.2770  218.3280 C.3     1  UNL1        0.0000
     39 H         145.4770   67.7620  217.1990 H       1  UNL1        0.1450
     40 H         147.0950   68.5920  217.1220 H       1  UNL1        0.1450
     41 H         146.1712   70.5740  220.1937 H       1  UNL1        0.0522
     42 H         146.7818   70.7542  218.4920 H       1  UNL1        0.0522
     43 H         142.7261   70.7243  219.1925 H       1  UNL1        0.0427
     44 H         143.8817   69.6906  220.1476 H       1  UNL1        0.0427
     45 H         142.8326   71.5166  221.4559 H       1  UNL1        0.0284
     46 H         144.6581   71.5636  221.3620 H       1  UNL1        0.0284
     47 H         144.5372   73.6636  220.7449 H       1  UNL1        0.0380
     48 H         137.7906   74.1080  221.2481 H       1  UNL1        0.0480
     49 H         137.6466   72.3771  220.7515 H       1  UNL1        0.0480
     50 H         136.9550   73.5944  223.4604 H       1  UNL1        0.0479
     51 H         135.8276   72.8806  222.2377 H       1  UNL1        0.0479
     52 H         135.0442   72.9712  224.4744 H       1  UNL1        0.0636
     53 H         133.3276   72.1099  226.0280 H       1  UNL1        0.0618
     54 H         133.2589   69.7120  226.6448 H       1  UNL1        0.0618
     55 H         134.9683   68.1716  225.6696 H       1  UNL1        0.0618
     56 H         136.6519   69.0322  224.1443 H       1  UNL1        0.0636
     57 H         138.3017   69.9312  223.6377 H       1  UNL1        0.0479
     58 H         138.0487   70.3427  221.9166 H       1  UNL1        0.0479
     59 H         139.4824   72.0807  224.0036 H       1  UNL1        0.0480
     60 H         140.2650   71.1278  222.6826 H       1  UNL1        0.0480
     61 H         142.1645   78.4363  220.1441 H       1  UNL1        0.0468
     62 H         140.9024   77.4459  219.3989 H       1  UNL1        0.0468
     63 H         140.0066   79.7567  219.6913 H       1  UNL1        0.0328
     64 H         139.1579   78.7299  220.8512 H       1  UNL1        0.0328
     65 H         140.4545   81.8299  220.7153 H       1  UNL1        0.0620
     66 H         141.4633   83.1183  222.6232 H       1  UNL1        0.0618
     67 H         142.2847   81.8774  224.6172 H       1  UNL1        0.0618
     68 H         142.1102   79.4150  224.7252 H       1  UNL1        0.0621
     69 H         141.8699   77.3382  223.4356 H       1  UNL1        0.0514
     70 H         140.0715   77.5061  223.2209 H       1  UNL1        0.0514
     71 H         142.8149   72.8624  218.3996 H       1  UNL1        0.0284
     72 H         144.0199   74.2072  218.5453 H       1  UNL1        0.0284
     73 H         144.8397   72.3127  217.2287 H       1  UNL1        0.0427
     74 H         145.7947   72.6468  218.7619 H       1  UNL1        0.0427
@<TRIPOS>BOND
     1     1     2   am
     2     2     3    2
     3     2     4    1
     4     4     5    1
     5     5     6    1
     6     6     7    1
     7     7     8    1
     8     8     9    1
     9     9    10   ar
    10    10    11   ar
    11    11    12    1
    12    12    13    1
    13    13    14    1
    14    14    15    1
    15    15    16    1
    16    16    17   ar
    17    17    18   ar
    18    18    19   ar
    19    19    20   ar
    20    20    21   ar
    21    15    22    1
    22    22    23    1
    23    11    24   ar
    24    24    25   ar
    25    25    26    1
    26    26    27    1
    27    27    28    1
    28    28    29    1
    29    29    30   ar
    30    30    31   ar
    31    31    32   ar
    32    32    33   ar
    33    33    34   ar
    34    34    35    1
    35    25    36   ar
    36     8    37    1
    37    37    38    1
    38    38     5    1
    39    36     9   ar
    40    23    12    1
    41    35    26    1
    42    21    16   ar
    43    34    29   ar
    44     1    39    1
    45     1    40    1
    46     4    41    1
    47     4    42    1
    48     6    43    1
    49     6    44    1
    50     7    45    1
    51     7    46    1
    52     8    47    1
    53    13    48    1
    54    13    49    1
    55    14    50    1
    56    14    51    1
    57    17    52    1
    58    18    53    1
    59    19    54    1
    60    20    55    1
    61    21    56    1
    62    22    57    1
    63    22    58    1
    64    23    59    1
    65    23    60    1
    66    27    61    1
    67    27    62    1
    68    28    63    1
    69    28    64    1
    70    30    65    1
    71    31    66    1
    72    32    67    1
    73    33    68    1
    74    35    69    1
    75    35    70    1
    76    37    71    1
    77    37    72    1
    78    38    73    1
    79    38    74    1
