@<TRIPOS>MOLECULE
*****
 64 68 0 0 0
SMALL
GASTEIGER

@<TRIPOS>ATOM
      1 C         141.0570   69.4060  228.3240 C.ar    1  UNL1       -0.0617
      2 C         140.8520   70.6350  227.7030 C.ar    1  UNL1       -0.0615
      3 C         140.3680   70.6700  226.4190 C.ar    1  UNL1       -0.0586
      4 C         140.0920   69.4690  225.7620 C.ar    1  UNL1       -0.0473
      5 C         139.5690   69.6020  224.3740 C.3     1  UNL1       -0.0263
      6 C         139.2320   71.0610  224.1000 C.3     1  UNL1       -0.0334
      7 C         139.9110   71.5000  222.8450 C.3     1  UNL1        0.0107
      8 N         139.4330   72.8220  222.4760 N.pl3   1  UNL1       -0.3289
      9 C         140.3160   73.8180  221.9230 C.ar    1  UNL1        0.1256
     10 C         141.4600   73.3870  221.2930 C.ar    1  UNL1        0.0182
     11 C         142.3260   74.3060  220.7450 C.ar    1  UNL1        0.1282
     12 N         143.5290   73.9590  220.0810 N.pl3   1  UNL1       -0.3126
     13 C         144.8160   74.5560  220.3500 C.3     1  UNL1        0.0261
     14 C         145.7580   73.3730  220.6050 C.3     1  UNL1        0.0117
     15 N         145.9470   72.7300  219.3310 N.3     1  UNL1       -0.3130
     16 C         144.8680   72.9130  218.4000 C.3     1  UNL1        0.0117
     17 C         143.4960   72.9230  219.0550 C.3     1  UNL1        0.0261
     18 N         141.9840   75.6040  220.8670 N.ar    1  UNL1       -0.1993
     19 C         140.8880   76.0640  221.4670 C.ar    1  UNL1        0.2215
     20 N         140.5730   77.4560  221.5680 N.pl3   1  UNL1       -0.2949
     21 C         139.8170   77.9160  222.7110 C.3     1  UNL1        0.0192
     22 C         140.5480   79.0400  223.3970 C.3     1  UNL1       -0.0115
     23 C         140.9220   80.0470  222.3470 C.ar    1  UNL1       -0.0412
     24 C         141.0470   81.3690  222.7290 C.ar    1  UNL1       -0.0582
     25 C         141.3830   82.3400  221.8290 C.ar    1  UNL1       -0.0615
     26 C         141.6080   82.0160  220.4970 C.ar    1  UNL1       -0.0614
     27 C         141.4800   80.6930  220.1280 C.ar    1  UNL1       -0.0568
     28 C         141.1380   79.6940  221.0350 C.ar    1  UNL1       -0.0269
     29 C         141.0360   78.3190  220.5060 C.3     1  UNL1        0.0402
     30 N         140.0520   75.1240  222.0000 N.ar    1  UNL1       -0.1995
     31 C         140.2980   68.2580  226.3820 C.ar    1  UNL1       -0.0586
     32 C         140.7860   68.2250  227.6790 C.ar    1  UNL1       -0.0615
     33 H         141.4443   69.3808  229.3533 H       1  UNL1        0.0618
     34 H         141.0760   71.5703  228.2369 H       1  UNL1        0.0618
     35 H         140.1996   71.6324  225.9137 H       1  UNL1        0.0620
     36 H         140.3327   69.2610  223.6595 H       1  UNL1        0.0314
     37 H         138.6635   68.9876  224.2614 H       1  UNL1        0.0314
     38 H         138.1435   71.1710  223.9860 H       1  UNL1        0.0283
     39 H         139.5766   71.6816  224.9404 H       1  UNL1        0.0283
     40 H         140.9982   71.5351  223.0086 H       1  UNL1        0.0462
     41 H         139.6861   70.7886  222.0368 H       1  UNL1        0.0462
     42 H         138.4420   73.1290  222.5830 H       1  UNL1        0.1475
     43 H         141.6822   72.3117  221.2273 H       1  UNL1        0.0686
     44 H         145.1581   75.1429  219.4849 H       1  UNL1        0.0477
     45 H         144.7799   75.2467  221.2054 H       1  UNL1        0.0477
     46 H         146.7210   73.7301  220.9988 H       1  UNL1        0.0439
     47 H         145.3379   72.6780  221.3470 H       1  UNL1        0.0439
     48 H         146.8190   73.0770  218.8700 H       1  UNL1        0.1220
     49 H         145.0137   73.8728  217.8827 H       1  UNL1        0.0439
     50 H         144.8896   72.0582  217.7081 H       1  UNL1        0.0439
     51 H         142.7213   73.1530  218.3087 H       1  UNL1        0.0477
     52 H         143.2586   71.9415  219.4912 H       1  UNL1        0.0477
     53 H         138.8322   78.2736  222.3758 H       1  UNL1        0.0468
     54 H         139.6919   77.0832  223.4186 H       1  UNL1        0.0468
     55 H         139.8958   79.5074  224.1494 H       1  UNL1        0.0328
     56 H         141.4465   78.6619  223.9067 H       1  UNL1        0.0328
     57 H         140.8724   81.6451  223.7794 H       1  UNL1        0.0620
     58 H         141.4760   83.3846  222.1609 H       1  UNL1        0.0618
     59 H         141.8790   82.7880  219.7617 H       1  UNL1        0.0618
     60 H         141.6547   80.4171  219.0776 H       1  UNL1        0.0621
     61 H         140.3222   78.2946  219.6694 H       1  UNL1        0.0514
     62 H         142.0174   77.9794  220.1432 H       1  UNL1        0.0514
     63 H         140.0765   67.3205  225.8509 H       1  UNL1        0.0620
     64 H         140.9542   67.2632  228.1857 H       1  UNL1        0.0618
@<TRIPOS>BOND
     1     1     2   ar
     2     2     3   ar
     3     3     4   ar
     4     4     5    1
     5     5     6    1
     6     6     7    1
     7     7     8    1
     8     8     9    1
     9     9    10   ar
    10    10    11   ar
    11    11    12    1
    12    12    13    1
    13    13    14    1
    14    14    15    1
    15    15    16    1
    16    16    17    1
    17    11    18   ar
    18    18    19   ar
    19    19    20    1
    20    20    21    1
    21    21    22    1
    22    22    23    1
    23    23    24   ar
    24    24    25   ar
    25    25    26   ar
    26    26    27   ar
    27    27    28   ar
    28    28    29    1
    29    19    30   ar
    30     4    31   ar
    31    31    32   ar
    32    32     1   ar
    33    30     9   ar
    34    17    12    1
    35    29    20    1
    36    28    23   ar
    37     1    33    1
    38     2    34    1
    39     3    35    1
    40     5    36    1
    41     5    37    1
    42     6    38    1
    43     6    39    1
    44     7    40    1
    45     7    41    1
    46     8    42    1
    47    10    43    1
    48    13    44    1
    49    13    45    1
    50    14    46    1
    51    14    47    1
    52    15    48    1
    53    16    49    1
    54    16    50    1
    55    17    51    1
    56    17    52    1
    57    21    53    1
    58    21    54    1
    59    22    55    1
    60    22    56    1
    61    24    57    1
    62    25    58    1
    63    26    59    1
    64    27    60    1
    65    29    61    1
    66    29    62    1
    67    31    63    1
    68    32    64    1
