@<TRIPOS>MOLECULE
*****
 66 69 0 0 0
SMALL
GASTEIGER

@<TRIPOS>ATOM
      1 C         141.5400   79.3840  223.6670 C.3     1  UNL1       -0.0425
      2 C         142.2260   79.5420  222.3340 C.3     1  UNL1        0.0456
      3 N         142.1170   78.3460  221.5210 N.am    1  UNL1       -0.3072
      4 C         140.8950   77.8040  221.0700 C.2     1  UNL1        0.2341
      5 O         139.8140   78.3900  221.3900 O.2     1  UNL1       -0.2738
      6 C         140.7710   76.5870  220.2400 C.3     1  UNL1        0.1037
      7 C         142.1760   76.0670  219.9770 C.3     1  UNL1       -0.0087
      8 C         142.3170   74.7920  220.7610 C.3     1  UNL1        0.0277
      9 N         142.4420   73.6810  219.8430 N.3     1  UNL1       -0.3039
     10 C         141.9090   72.4940  220.4740 C.3     1  UNL1       -0.0127
     11 C         141.8300   73.9350  218.5680 C.3     1  UNL1       -0.0127
     12 C         141.0760   74.6870  221.6080 C.3     1  UNL1        0.0312
     13 N         140.0900   75.5000  220.8800 N.am    1  UNL1       -0.2871
     14 C         138.6750   75.2560  220.8090 C.2     1  UNL1        0.2334
     15 O         137.8370   76.1970  220.7640 O.2     1  UNL1       -0.2739
     16 C         138.2010   73.8500  220.7890 C.3     1  UNL1        0.0887
     17 N         138.6140   73.1830  222.0140 N.am    1  UNL1       -0.3015
     18 C         138.6870   71.7640  221.9720 C.2     1  UNL1        0.2628
     19 O         138.3850   71.2210  220.8720 O.2     1  UNL1       -0.2685
     20 C         139.0880   70.9790  223.1340 C.ar    1  UNL1        0.1260
     21 C         138.8270   69.6250  223.1260 C.ar    1  UNL1       -0.0306
     22 C         139.1740   68.8170  224.1900 C.ar    1  UNL1       -0.0504
     23 C         139.7940   69.4280  225.2570 C.ar    1  UNL1        0.0018
     24 C         140.1560   68.6460  226.3390 C.ar    1  UNL1       -0.0342
     25 C         140.7840   69.2330  227.4340 C.ar    1  UNL1        0.0417
     26 CL        141.2130   68.1940  228.7620 Cl      1  UNL1       -0.0835
     27 C         141.0480   70.5970  227.4460 C.ar    1  UNL1       -0.0413
     28 C         140.6840   71.3900  226.3540 C.ar    1  UNL1       -0.0343
     29 C         140.0610   70.8020  225.2710 C.ar    1  UNL1        0.0719
     30 N         139.6980   71.5410  224.2010 N.ar    1  UNL1       -0.2421
     31 C         141.7960   80.7730  221.6210 C.ar    1  UNL1       -0.0275
     32 C         141.8210   80.8210  220.2390 C.ar    1  UNL1       -0.0568
     33 C         141.4340   81.9350  219.5190 C.ar    1  UNL1       -0.0614
     34 C         140.9950   83.0710  220.2030 C.ar    1  UNL1       -0.0617
     35 C         140.9650   83.0320  221.5970 C.ar    1  UNL1       -0.0614
     36 C         141.3570   81.9050  222.2990 C.ar    1  UNL1       -0.0568
     37 H         142.2668   79.5514  224.4755 H       1  UNL1        0.0251
     38 H         140.7247   80.1179  223.7491 H       1  UNL1        0.0251
     39 H         141.1279   78.3674  223.7491 H       1  UNL1        0.0251
     40 H         143.2987   79.6744  222.5383 H       1  UNL1        0.0545
     41 H         143.0100   77.8730  221.2660 H       1  UNL1        0.1493
     42 H         140.2014   76.8832  219.3468 H       1  UNL1        0.0597
     43 H         142.3126   75.8694  218.9036 H       1  UNL1        0.0303
     44 H         142.9344   76.8041  220.2795 H       1  UNL1        0.0303
     45 H         143.2121   74.7808  221.4003 H       1  UNL1        0.0478
     46 H         141.9592   72.6059  221.5671 H       1  UNL1        0.0391
     47 H         140.8618   72.3545  220.1674 H       1  UNL1        0.0391
     48 H         142.5005   71.6187  220.1674 H       1  UNL1        0.0391
     49 H         140.8239   74.3526  218.7209 H       1  UNL1        0.0391
     50 H         142.4431   74.6530  218.0035 H       1  UNL1        0.0391
     51 H         141.7545   72.9939  218.0035 H       1  UNL1        0.0391
     52 H         140.7418   73.6420  221.6870 H       1  UNL1        0.0480
     53 H         141.2336   75.0303  222.6411 H       1  UNL1        0.0480
     54 H         137.1037   73.8338  220.7144 H       1  UNL1        0.0558
     55 H         138.6345   73.3286  219.9228 H       1  UNL1        0.0558
     56 H         138.8500   73.6990  222.8940 H       1  UNL1        0.1496
     57 H         138.3309   69.1785  222.2516 H       1  UNL1        0.0641
     58 H         138.9653   67.7370  224.1858 H       1  UNL1        0.0625
     59 H         139.9487   67.5657  226.3343 H       1  UNL1        0.0639
     60 H         141.5438   71.0532  228.3155 H       1  UNL1        0.0633
     61 H         140.8915   72.4702  226.3573 H       1  UNL1        0.0639
     62 H         142.1643   79.9327  219.6885 H       1  UNL1        0.0621
     63 H         141.4712   81.9273  218.4197 H       1  UNL1        0.0618
     64 H         140.6812   83.9727  219.6567 H       1  UNL1        0.0618
     65 H         140.6217   83.9177  222.1517 H       1  UNL1        0.0618
     66 H         141.3210   81.9050  223.3984 H       1  UNL1        0.0621
@<TRIPOS>BOND
     1     1     2    1
     2     2     3    1
     3     3     4   am
     4     4     5    2
     5     4     6    1
     6     6     7    1
     7     7     8    1
     8     8     9    1
     9     9    10    1
    10     9    11    1
    11     8    12    1
    12    12    13    1
    13    13    14   am
    14    14    15    2
    15    14    16    1
    16    16    17    1
    17    17    18   am
    18    18    19    2
    19    18    20    1
    20    20    21   ar
    21    21    22   ar
    22    22    23   ar
    23    23    24   ar
    24    24    25   ar
    25    25    26    1
    26    25    27   ar
    27    27    28   ar
    28    28    29   ar
    29    29    30   ar
    30     2    31    1
    31    31    32   ar
    32    32    33   ar
    33    33    34   ar
    34    34    35   ar
    35    35    36   ar
    36    13     6    1
    37    30    20   ar
    38    36    31   ar
    39    29    23   ar
    40     1    37    1
    41     1    38    1
    42     1    39    1
    43     2    40    1
    44     3    41    1
    45     6    42    1
    46     7    43    1
    47     7    44    1
    48     8    45    1
    49    10    46    1
    50    10    47    1
    51    10    48    1
    52    11    49    1
    53    11    50    1
    54    11    51    1
    55    12    52    1
    56    12    53    1
    57    16    54    1
    58    16    55    1
    59    17    56    1
    60    21    57    1
    61    22    58    1
    62    24    59    1
    63    27    60    1
    64    28    61    1
    65    32    62    1
    66    33    63    1
    67    34    64    1
    68    35    65    1
    69    36    66    1
