
     RDKit          3D

 67 72  0  0  0  0  0  0  0  0999 V2000
  140.4790   81.2550  223.8250 C   0  0  0  0  0  0  0  0  0  0  0  0
  141.7530   80.7780  223.6040 C   0  0  0  0  0  0  0  0  0  0  0  0
  141.9220   79.4730  223.1990 C   0  0  0  0  0  0  0  0  0  0  0  0
  140.8230   78.6470  223.0160 C   0  0  0  0  0  0  0  0  0  0  0  0
  139.5650   79.1530  223.2450 C   0  0  0  0  0  0  0  0  0  0  0  0
  139.3560   80.4610  223.6530 C   0  0  0  0  0  0  0  0  0  0  0  0
  138.4170   78.2270  223.0340 C   0  0  0  0  0  0  0  0  0  0  0  0
  138.6770   77.3820  221.7830 C   0  0  0  0  0  0  0  0  0  0  0  0
  139.9080   76.6180  222.0230 N   0  0  0  0  0  0  0  0  0  0  0  0
  139.9810   75.2430  221.7110 C   0  0  0  0  0  0  0  0  0  0  0  0
  139.0080   74.3860  222.0370 N   0  0  0  0  0  0  0  0  0  0  0  0
  139.0530   73.0590  221.7490 C   0  0  0  0  0  0  0  0  0  0  0  0
  137.9930   72.1950  222.1190 N   0  0  0  0  0  0  0  0  0  0  0  0
  137.7870   71.6820  223.4480 C   0  0  0  0  0  0  0  0  0  0  0  0
  138.3480   70.2830  223.5560 C   0  0  0  0  0  0  0  0  0  0  0  0
  139.8450   70.3640  223.6300 C   0  0  0  0  0  0  0  0  0  0  0  0
  140.2800   70.6930  224.9600 N   0  0  0  0  0  0  0  0  0  0  0  0
  140.7130   71.8700  225.4630 C   0  0  0  0  0  0  0  0  0  0  0  0
  141.0300   71.7320  226.7910 C   0  0  0  0  0  0  0  0  0  0  0  0
  140.7870   70.4190  227.1290 C   0  0  0  0  0  0  0  0  0  0  0  0
  140.9400   69.7620  228.3290 C   0  0  0  0  0  0  0  0  0  0  0  0
  140.6230   68.4220  228.4120 C   0  0  0  0  0  0  0  0  0  0  0  0
  140.1590   67.7790  227.2840 C   0  0  0  0  0  0  0  0  0  0  0  0
  140.0120   68.4490  226.0940 C   0  0  0  0  0  0  0  0  0  0  0  0
  140.3230   69.7910  225.9820 C   0  0  0  0  0  0  0  0  0  0  0  0
  140.1480   72.6330  221.1080 N   0  0  0  0  0  0  0  0  0  0  0  0
  141.1450   73.4690  220.7670 C   0  0  0  0  0  0  0  0  0  0  0  0
  142.2720   72.9340  220.0870 N   0  0  0  0  0  0  0  0  0  0  0  0
  142.4060   71.5090  219.8970 C   0  0  0  0  0  0  0  0  0  0  0  0
  143.6980   70.9860  220.4830 C   0  0  0  0  0  0  0  0  0  0  0  0
  144.4990   72.1350  220.8380 N   0  0  0  0  0  0  0  0  0  0  0  0
  144.6540   73.0710  219.7570 C   0  0  0  0  0  0  0  0  0  0  0  0
  143.3250   73.7810  219.5610 C   0  0  0  0  0  0  0  0  0  0  0  0
  141.0830   74.7800  221.0580 N   0  0  0  0  0  0  0  0  0  0  0  0
  141.0660   77.2670  222.5840 C   0  0  0  0  0  0  0  0  0  0  0  0
  140.3494   82.2985  224.1480 H   0  0  0  0  0  0  0  0  0  0  0  0
  142.6250   81.4325  223.7496 H   0  0  0  0  0  0  0  0  0  0  0  0
  142.9348   79.0831  223.0195 H   0  0  0  0  0  0  0  0  0  0  0  0
  138.3435   80.8517  223.8324 H   0  0  0  0  0  0  0  0  0  0  0  0
  138.3103   77.5677  223.9080 H   0  0  0  0  0  0  0  0  0  0  0  0
  137.4921   78.8078  222.9029 H   0  0  0  0  0  0  0  0  0  0  0  0
  137.8350   76.6955  221.6103 H   0  0  0  0  0  0  0  0  0  0  0  0
  138.7816   78.0219  220.8944 H   0  0  0  0  0  0  0  0  0  0  0  0
  137.3090   71.9080  221.3760 H   0  0  0  0  0  0  0  0  0  0  0  0
  138.2950   72.3349  224.1730 H   0  0  0  0  0  0  0  0  0  0  0  0
  136.7081   71.6553  223.6610 H   0  0  0  0  0  0  0  0  0  0  0  0
  137.9591   69.7982  224.4636 H   0  0  0  0  0  0  0  0  0  0  0  0
  138.0496   69.6929  222.6770 H   0  0  0  0  0  0  0  0  0  0  0  0
  140.2721   69.3920  223.3424 H   0  0  0  0  0  0  0  0  0  0  0  0
  140.1866   71.1540  222.9451 H   0  0  0  0  0  0  0  0  0  0  0  0
  140.7991   72.8050  224.8900 H   0  0  0  0  0  0  0  0  0  0  0  0
  141.4068   72.5205  227.4590 H   0  0  0  0  0  0  0  0  0  0  0  0
  141.3115   70.3004  229.2133 H   0  0  0  0  0  0  0  0  0  0  0  0
  140.7382   67.8767  229.3603 H   0  0  0  0  0  0  0  0  0  0  0  0
  139.9021   66.7108  227.3380 H   0  0  0  0  0  0  0  0  0  0  0  0
  139.6393   67.9067  225.2125 H   0  0  0  0  0  0  0  0  0  0  0  0
  141.5614   71.0029  220.3875 H   0  0  0  0  0  0  0  0  0  0  0  0
  142.4129   71.3062  218.8159 H   0  0  0  0  0  0  0  0  0  0  0  0
  143.4890   70.3808  221.3775 H   0  0  0  0  0  0  0  0  0  0  0  0
  144.2267   70.3486  219.7590 H   0  0  0  0  0  0  0  0  0  0  0  0
  145.3440   71.9240  221.3760 H   0  0  0  0  0  0  0  0  0  0  0  0
  145.4361   73.8034  220.0058 H   0  0  0  0  0  0  0  0  0  0  0  0
  144.9487   72.5474  218.8356 H   0  0  0  0  0  0  0  0  0  0  0  0
  143.3335   74.7405  220.0988 H   0  0  0  0  0  0  0  0  0  0  0  0
  143.1547   73.9762  218.4919 H   0  0  0  0  0  0  0  0  0  0  0  0
  141.4009   76.6852  223.4554 H   0  0  0  0  0  0  0  0  0  0  0  0
  141.8243   77.3105  221.7884 H   0  0  0  0  0  0  0  0  0  0  0  0
  1  2  2  0
  2  3  1  0
  3  4  2  0
  4  5  1  0
  5  6  2  0
  5  7  1  0
  7  8  1  0
  8  9  1  0
  9 10  1  0
 10 11  2  0
 11 12  1  0
 12 13  1  0
 13 14  1  0
 14 15  1  0
 15 16  1  0
 16 17  1  0
 17 18  1  0
 18 19  2  0
 19 20  1  0
 20 21  2  0
 21 22  1  0
 22 23  2  0
 23 24  1  0
 24 25  2  0
 12 26  2  0
 26 27  1  0
 27 28  1  0
 28 29  1  0
 29 30  1  0
 30 31  1  0
 31 32  1  0
 32 33  1  0
 27 34  2  0
  9 35  1  0
  6  1  1  0
 34 10  1  0
 35  4  1  0
 25 17  1  0
 33 28  1  0
 25 20  1  0
  1 36  1  0
  2 37  1  0
  3 38  1  0
  6 39  1  0
  7 40  1  0
  7 41  1  0
  8 42  1  0
  8 43  1  0
 13 44  1  0
 14 45  1  0
 14 46  1  0
 15 47  1  0
 15 48  1  0
 16 49  1  0
 16 50  1  0
 18 51  1  0
 19 52  1  0
 21 53  1  0
 22 54  1  0
 23 55  1  0
 24 56  1  0
 29 57  1  0
 29 58  1  0
 30 59  1  0
 30 60  1  0
 31 61  1  0
 32 62  1  0
 32 63  1  0
 33 64  1  0
 33 65  1  0
 35 66  1  0
 35 67  1  0
M  END
>  <smiles>  (1) 
c1ccc2c(c1)CCN(c1nc(NCCCn3ccc4ccccc43)nc(N3CCNCC3)n1)C2

>  <score_type>  (1) 
oracle

>  <origin>  (1) 
autodockgpu

>  <m_score__min__energy>  (1) 
-10.76

>  <m_primary>  (1) 
energy

>  <rmsd>  (1) 
11.816488866609774

>  <m_score__min__rmsd>  (1) 
11.816488866609774

>  <meeko>  (1) 
{"free_energy": -9.64, "intermolecular_energy": -11.72, "internal_energy": -1.25, "cluster_size": 44, "cluster_id": 1, "rank_in_cluster": 41}

>  <energy>  (1) 
-10.76

>  <cluster_rmsd>  (1) 
0.0

>  <cluster>  (1) 
1

$$$$

     RDKit          3D

 67 72  0  0  0  0  0  0  0  0999 V2000
  140.3230   68.5550  228.0400 C   0  0  0  0  0  0  0  0  0  0  0  0
  140.9120   69.7630  228.3500 C   0  0  0  0  0  0  0  0  0  0  0  0
  141.0320   70.7230  227.3700 C   0  0  0  0  0  0  0  0  0  0  0  0
  140.5670   70.4780  226.0860 C   0  0  0  0  0  0  0  0  0  0  0  0
  139.9860   69.2630  225.8100 C   0  0  0  0  0  0  0  0  0  0  0  0
  139.8470   68.2730  226.7700 C   0  0  0  0  0  0  0  0  0  0  0  0
  139.5020   69.0480  224.4170 C   0  0  0  0  0  0  0  0  0  0  0  0
  138.8440   70.3360  223.9100 C   0  0  0  0  0  0  0  0  0  0  0  0
  139.8690   71.3860  223.9350 N   0  0  0  0  0  0  0  0  0  0  0  0
  140.0390   72.2610  222.8400 C   0  0  0  0  0  0  0  0  0  0  0  0
  139.0660   73.0790  222.4260 N   0  0  0  0  0  0  0  0  0  0  0  0
  139.2030   73.9310  221.3760 C   0  0  0  0  0  0  0  0  0  0  0  0
  138.1380   74.7760  220.9780 N   0  0  0  0  0  0  0  0  0  0  0  0
  138.2030   76.2140  220.9560 C   0  0  0  0  0  0  0  0  0  0  0  0
  138.6730   76.7310  222.2960 C   0  0  0  0  0  0  0  0  0  0  0  0
  140.1650   76.5850  222.3770 C   0  0  0  0  0  0  0  0  0  0  0  0
  140.8290   77.6520  221.6780 N   0  0  0  0  0  0  0  0  0  0  0  0
  141.2010   77.7370  220.3820 C   0  0  0  0  0  0  0  0  0  0  0  0
  141.8120   78.9430  220.1420 C   0  0  0  0  0  0  0  0  0  0  0  0
  141.8220   79.6340  221.3330 C   0  0  0  0  0  0  0  0  0  0  0  0
  142.3140   80.8830  221.6380 C   0  0  0  0  0  0  0  0  0  0  0  0
  142.2010   81.3590  222.9270 C   0  0  0  0  0  0  0  0  0  0  0  0
  141.5940   80.5640  223.8760 C   0  0  0  0  0  0  0  0  0  0  0  0
  141.1080   79.3200  223.5570 C   0  0  0  0  0  0  0  0  0  0  0  0
  141.2080   78.8180  222.2730 C   0  0  0  0  0  0  0  0  0  0  0  0
  140.3880   73.9140  220.7550 N   0  0  0  0  0  0  0  0  0  0  0  0
  141.3860   73.1030  221.1470 C   0  0  0  0  0  0  0  0  0  0  0  0
  142.6150   73.1490  220.4330 N   0  0  0  0  0  0  0  0  0  0  0  0
  143.0530   72.0130  219.6560 C   0  0  0  0  0  0  0  0  0  0  0  0
  144.4160   71.5280  220.0950 C   0  0  0  0  0  0  0  0  0  0  0  0
  144.9460   72.5170  221.0040 N   0  0  0  0  0  0  0  0  0  0  0  0
  144.9180   73.8500  220.4660 C   0  0  0  0  0  0  0  0  0  0  0  0
  143.4720   74.3170  220.4520 C   0  0  0  0  0  0  0  0  0  0  0  0
  141.2350   72.2670  222.1890 N   0  0  0  0  0  0  0  0  0  0  0  0
  140.7240   71.5380  225.0860 C   0  0  0  0  0  0  0  0  0  0  0  0
  140.2282   67.7914  228.8260 H   0  0  0  0  0  0  0  0  0  0  0  0
  141.2814   69.9573  229.3677 H   0  0  0  0  0  0  0  0  0  0  0  0
  141.4995   71.6902  227.6067 H   0  0  0  0  0  0  0  0  0  0  0  0
  139.3792   67.3058  226.5338 H   0  0  0  0  0  0  0  0  0  0  0  0
  140.3513   68.7882  223.7680 H   0  0  0  0  0  0  0  0  0  0  0  0
  138.7699   68.2271  224.4017 H   0  0  0  0  0  0  0  0  0  0  0  0
  138.4765   70.1925  222.8832 H   0  0  0  0  0  0  0  0  0  0  0  0
  137.9871   70.6117  224.5423 H   0  0  0  0  0  0  0  0  0  0  0  0
  137.2380   74.3260  220.6770 H   0  0  0  0  0  0  0  0  0  0  0  0
  138.9074   76.5348  220.1744 H   0  0  0  0  0  0  0  0  0  0  0  0
  137.2017   76.6174  220.7445 H   0  0  0  0  0  0  0  0  0  0  0  0
  138.3995   77.7915  222.3993 H   0  0  0  0  0  0  0  0  0  0  0  0
  138.1977   76.1566  223.1048 H   0  0  0  0  0  0  0  0  0  0  0  0
  140.4708   76.6028  223.4335 H   0  0  0  0  0  0  0  0  0  0  0  0
  140.4483   75.6311  221.9082 H   0  0  0  0  0  0  0  0  0  0  0  0
  141.0379   76.9531  219.6278 H   0  0  0  0  0  0  0  0  0  0  0  0
  142.2168   79.2912  219.1803 H   0  0  0  0  0  0  0  0  0  0  0  0
  142.7930   81.4958  220.8602 H   0  0  0  0  0  0  0  0  0  0  0  0
  142.5877   82.3538  223.1932 H   0  0  0  0  0  0  0  0  0  0  0  0
  141.4973   80.9331  224.9077 H   0  0  0  0  0  0  0  0  0  0  0  0
  140.6298   78.7111  224.3384 H   0  0  0  0  0  0  0  0  0  0  0  0
  142.3271   71.1957  219.7789 H   0  0  0  0  0  0  0  0  0  0  0  0
  143.1220   72.3236  218.6030 H   0  0  0  0  0  0  0  0  0  0  0  0
  144.3251   70.5574  220.6046 H   0  0  0  0  0  0  0  0  0  0  0  0
  145.0818   71.3950  219.2295 H   0  0  0  0  0  0  0  0  0  0  0  0
  145.8070   72.2450  221.4870 H   0  0  0  0  0  0  0  0  0  0  0  0
  145.5212   74.5202  221.0960 H   0  0  0  0  0  0  0  0  0  0  0  0
  145.3345   73.8615  219.4480 H   0  0  0  0  0  0  0  0  0  0  0  0
  143.2658   74.9146  221.3522 H   0  0  0  0  0  0  0  0  0  0  0  0
  143.2839   74.9386  219.5642 H   0  0  0  0  0  0  0  0  0  0  0  0
  141.7693   71.5390  224.7434 H   0  0  0  0  0  0  0  0  0  0  0  0
  140.4387   72.4819  225.5735 H   0  0  0  0  0  0  0  0  0  0  0  0
  1  2  2  0
  2  3  1  0
  3  4  2  0
  4  5  1  0
  5  6  2  0
  5  7  1  0
  7  8  1  0
  8  9  1  0
  9 10  1  0
 10 11  2  0
 11 12  1  0
 12 13  1  0
 13 14  1  0
 14 15  1  0
 15 16  1  0
 16 17  1  0
 17 18  1  0
 18 19  2  0
 19 20  1  0
 20 21  2  0
 21 22  1  0
 22 23  2  0
 23 24  1  0
 24 25  2  0
 12 26  2  0
 26 27  1  0
 27 28  1  0
 28 29  1  0
 29 30  1  0
 30 31  1  0
 31 32  1  0
 32 33  1  0
 27 34  2  0
  9 35  1  0
  6  1  1  0
 34 10  1  0
 35  4  1  0
 25 17  1  0
 33 28  1  0
 25 20  1  0
  1 36  1  0
  2 37  1  0
  3 38  1  0
  6 39  1  0
  7 40  1  0
  7 41  1  0
  8 42  1  0
  8 43  1  0
 13 44  1  0
 14 45  1  0
 14 46  1  0
 15 47  1  0
 15 48  1  0
 16 49  1  0
 16 50  1  0
 18 51  1  0
 19 52  1  0
 21 53  1  0
 22 54  1  0
 23 55  1  0
 24 56  1  0
 29 57  1  0
 29 58  1  0
 30 59  1  0
 30 60  1  0
 31 61  1  0
 32 62  1  0
 32 63  1  0
 33 64  1  0
 33 65  1  0
 35 66  1  0
 35 67  1  0
M  END
>  <smiles>  (2) 
c1ccc2c(c1)CCN(c1nc(NCCCn3ccc4ccccc43)nc(N3CCNCC3)n1)C2

>  <score_type>  (2) 
oracle

>  <origin>  (2) 
autodockgpu

>  <m_score__min__energy>  (2) 
-10.76

>  <m_primary>  (2) 
energy

>  <rmsd>  (2) 
3.6675931485138205

>  <m_score__min__rmsd>  (2) 
3.6675931485138205

>  <meeko>  (2) 
{"free_energy": -9.72, "intermolecular_energy": -11.81, "internal_energy": -1.24, "cluster_size": 44, "cluster_id": 1, "rank_in_cluster": 36}

>  <energy>  (2) 
-10.76

>  <cluster_rmsd>  (2) 
1.63

>  <cluster>  (2) 
1

$$$$

     RDKit          3D

 67 72  0  0  0  0  0  0  0  0999 V2000
  141.3830   81.5120  221.1730 C   0  0  0  0  0  0  0  0  0  0  0  0
  141.6590   81.0620  219.9000 C   0  0  0  0  0  0  0  0  0  0  0  0
  141.7970   79.7090  219.6800 C   0  0  0  0  0  0  0  0  0  0  0  0
  141.6610   78.8100  220.7270 C   0  0  0  0  0  0  0  0  0  0  0  0
  141.3860   79.2910  221.9850 C   0  0  0  0  0  0  0  0  0  0  0  0
  141.2400   80.6440  222.2450 C   0  0  0  0  0  0  0  0  0  0  0  0
  141.2480   78.2850  223.0760 C   0  0  0  0  0  0  0  0  0  0  0  0
  140.4800   77.0710  222.5450 C   0  0  0  0  0  0  0  0  0  0  0  0
  141.2640   76.5130  221.4360 N   0  0  0  0  0  0  0  0  0  0  0  0
  141.4890   75.1220  221.3330 C   0  0  0  0  0  0  0  0  0  0  0  0
  140.8150   74.2360  222.0720 N   0  0  0  0  0  0  0  0  0  0  0  0
  141.0120   72.8940  221.9930 C   0  0  0  0  0  0  0  0  0  0  0  0
  140.2700   71.9980  222.8020 N   0  0  0  0  0  0  0  0  0  0  0  0
  138.8680   71.7180  222.6340 C   0  0  0  0  0  0  0  0  0  0  0  0
  138.3370   70.9900  223.8480 C   0  0  0  0  0  0  0  0  0  0  0  0
  138.9920   69.6420  223.9310 C   0  0  0  0  0  0  0  0  0  0  0  0
  139.4090   69.3520  225.2760 N   0  0  0  0  0  0  0  0  0  0  0  0
  139.2690   68.2190  226.0000 C   0  0  0  0  0  0  0  0  0  0  0  0
  139.8150   68.3830  227.2490 C   0  0  0  0  0  0  0  0  0  0  0  0
  140.3130   69.6650  227.3060 C   0  0  0  0  0  0  0  0  0  0  0  0
  140.9550   70.3300  228.3260 C   0  0  0  0  0  0  0  0  0  0  0  0
  141.3640   71.6330  228.1330 C   0  0  0  0  0  0  0  0  0  0  0  0
  141.1140   72.2330  226.9160 C   0  0  0  0  0  0  0  0  0  0  0  0
  140.4720   71.5560  225.9090 C   0  0  0  0  0  0  0  0  0  0  0  0
  140.0520   70.2500  226.0750 C   0  0  0  0  0  0  0  0  0  0  0  0
  141.9380   72.4850  221.1180 N   0  0  0  0  0  0  0  0  0  0  0  0
  142.6330   73.3510  220.3600 C   0  0  0  0  0  0  0  0  0  0  0  0
  143.5990   72.8340  219.4540 N   0  0  0  0  0  0  0  0  0  0  0  0
  144.4900   71.7730  219.8610 C   0  0  0  0  0  0  0  0  0  0  0  0
  145.9400   72.1690  219.7030 C   0  0  0  0  0  0  0  0  0  0  0  0
  145.9630   73.4110  218.9650 N   0  0  0  0  0  0  0  0  0  0  0  0
  145.2100   73.3540  217.7410 C   0  0  0  0  0  0  0  0  0  0  0  0
  143.7330   73.3390  218.1030 C   0  0  0  0  0  0  0  0  0  0  0  0
  142.4260   74.6770  220.4500 N   0  0  0  0  0  0  0  0  0  0  0  0
  141.8190   77.3830  220.4300 C   0  0  0  0  0  0  0  0  0  0  0  0
  141.2727   82.5930  221.3440 H   0  0  0  0  0  0  0  0  0  0  0  0
  141.7678   81.7748  219.0693 H   0  0  0  0  0  0  0  0  0  0  0  0
  142.0164   79.3395  218.6674 H   0  0  0  0  0  0  0  0  0  0  0  0
  141.0203   81.0135  223.2575 H   0  0  0  0  0  0  0  0  0  0  0  0
  142.2460   77.9700  223.4148 H   0  0  0  0  0  0  0  0  0  0  0  0
  140.7013   78.7282  223.9214 H   0  0  0  0  0  0  0  0  0  0  0  0
  140.3650   76.3202  223.3406 H   0  0  0  0  0  0  0  0  0  0  0  0
  139.4752   77.3624  222.2053 H   0  0  0  0  0  0  0  0  0  0  0  0
  140.7740   71.5020  223.5790 H   0  0  0  0  0  0  0  0  0  0  0  0
  138.3203   72.6635  222.5078 H   0  0  0  0  0  0  0  0  0  0  0  0
  138.7301   71.0854  221.7447 H   0  0  0  0  0  0  0  0  0  0  0  0
  138.5662   71.5685  224.7551 H   0  0  0  0  0  0  0  0  0  0  0  0
  137.2468   70.8703  223.7638 H   0  0  0  0  0  0  0  0  0  0  0  0
  138.2762   68.8738  223.6031 H   0  0  0  0  0  0  0  0  0  0  0  0
  139.8803   69.6442  223.2822 H   0  0  0  0  0  0  0  0  0  0  0  0
  138.7869   67.2981  225.6402 H   0  0  0  0  0  0  0  0  0  0  0  0
  139.8482   67.6321  228.0521 H   0  0  0  0  0  0  0  0  0  0  0  0
  141.1402   69.8267  229.2864 H   0  0  0  0  0  0  0  0  0  0  0  0
  141.8796   72.1832  228.9339 H   0  0  0  0  0  0  0  0  0  0  0  0
  141.4347   73.2720  226.7497 H   0  0  0  0  0  0  0  0  0  0  0  0
  140.2882   72.0634  224.9505 H   0  0  0  0  0  0  0  0  0  0  0  0
  144.2992   71.5328  220.9174 H   0  0  0  0  0  0  0  0  0  0  0  0
  144.3008   70.9008  219.2179 H   0  0  0  0  0  0  0  0  0  0  0  0
  146.4029   72.3085  220.6911 H   0  0  0  0  0  0  0  0  0  0  0  0
  146.5038   71.3876  219.1723 H   0  0  0  0  0  0  0  0  0  0  0  0
  146.8790   73.8650  218.9090 H   0  0  0  0  0  0  0  0  0  0  0  0
  145.4345   74.2354  217.1223 H   0  0  0  0  0  0  0  0  0  0  0  0
  145.4743   72.4521  217.1694 H   0  0  0  0  0  0  0  0  0  0  0  0
  143.3260   74.3593  218.0456 H   0  0  0  0  0  0  0  0  0  0  0  0
  143.1785   72.6971  217.4026 H   0  0  0  0  0  0  0  0  0  0  0  0
  142.8933   77.1651  220.3378 H   0  0  0  0  0  0  0  0  0  0  0  0
  141.2674   77.1874  219.4986 H   0  0  0  0  0  0  0  0  0  0  0  0
  1  2  2  0
  2  3  1  0
  3  4  2  0
  4  5  1  0
  5  6  2  0
  5  7  1  0
  7  8  1  0
  8  9  1  0
  9 10  1  0
 10 11  2  0
 11 12  1  0
 12 13  1  0
 13 14  1  0
 14 15  1  0
 15 16  1  0
 16 17  1  0
 17 18  1  0
 18 19  2  0
 19 20  1  0
 20 21  2  0
 21 22  1  0
 22 23  2  0
 23 24  1  0
 24 25  2  0
 12 26  2  0
 26 27  1  0
 27 28  1  0
 28 29  1  0
 29 30  1  0
 30 31  1  0
 31 32  1  0
 32 33  1  0
 27 34  2  0
  9 35  1  0
  6  1  1  0
 34 10  1  0
 35  4  1  0
 25 17  1  0
 33 28  1  0
 25 20  1  0
  1 36  1  0
  2 37  1  0
  3 38  1  0
  6 39  1  0
  7 40  1  0
  7 41  1  0
  8 42  1  0
  8 43  1  0
 13 44  1  0
 14 45  1  0
 14 46  1  0
 15 47  1  0
 15 48  1  0
 16 49  1  0
 16 50  1  0
 18 51  1  0
 19 52  1  0
 21 53  1  0
 22 54  1  0
 23 55  1  0
 24 56  1  0
 29 57  1  0
 29 58  1  0
 30 59  1  0
 30 60  1  0
 31 61  1  0
 32 62  1  0
 32 63  1  0
 33 64  1  0
 33 65  1  0
 35 66  1  0
 35 67  1  0
M  END
>  <smiles>  (3) 
c1ccc2c(c1)CCN(c1nc(NCCCn3ccc4ccccc43)nc(N3CCNCC3)n1)C2

>  <score_type>  (3) 
oracle

>  <origin>  (3) 
autodockgpu

>  <m_score__min__energy>  (3) 
-10.76

>  <m_primary>  (3) 
energy

>  <rmsd>  (3) 
11.337556226207381

>  <m_score__min__rmsd>  (3) 
11.337556226207381

>  <meeko>  (3) 
{"free_energy": -10.35, "intermolecular_energy": -12.44, "internal_energy": -0.94, "cluster_size": 44, "cluster_id": 1, "rank_in_cluster": 15}

>  <energy>  (3) 
-10.75

>  <cluster_rmsd>  (3) 
1.61

>  <cluster>  (3) 
1

$$$$

     RDKit          3D

 67 72  0  0  0  0  0  0  0  0999 V2000
  139.9810   68.6490  227.9880 C   0  0  0  0  0  0  0  0  0  0  0  0
  140.6930   69.7840  228.3140 C   0  0  0  0  0  0  0  0  0  0  0  0
  140.9680   70.7110  227.3320 C   0  0  0  0  0  0  0  0  0  0  0  0
  140.5330   70.5050  226.0310 C   0  0  0  0  0  0  0  0  0  0  0  0
  139.8260   69.3630  225.7390 C   0  0  0  0  0  0  0  0  0  0  0  0
  139.5310   68.4090  226.7000 C   0  0  0  0  0  0  0  0  0  0  0  0
  139.3810   69.1880  224.3280 C   0  0  0  0  0  0  0  0  0  0  0  0
  138.9010   70.5370  223.7820 C   0  0  0  0  0  0  0  0  0  0  0  0
  140.0400   71.4600  223.8440 N   0  0  0  0  0  0  0  0  0  0  0  0
  140.3580   72.2960  222.7510 C   0  0  0  0  0  0  0  0  0  0  0  0
  139.5930   73.3350  222.4030 N   0  0  0  0  0  0  0  0  0  0  0  0
  139.8760   74.1540  221.3560 C   0  0  0  0  0  0  0  0  0  0  0  0
  139.0280   75.2410  221.0300 N   0  0  0  0  0  0  0  0  0  0  0  0
  137.7840   75.5310  221.6930 C   0  0  0  0  0  0  0  0  0  0  0  0
  137.9790   76.6470  222.6940 C   0  0  0  0  0  0  0  0  0  0  0  0
  139.3940   77.1400  222.6030 C   0  0  0  0  0  0  0  0  0  0  0  0
  139.4980   78.4990  223.0590 N   0  0  0  0  0  0  0  0  0  0  0  0
  138.5320   79.3530  223.4630 C   0  0  0  0  0  0  0  0  0  0  0  0
  139.0810   80.5610  223.8140 C   0  0  0  0  0  0  0  0  0  0  0  0
  140.4400   80.4570  223.6200 C   0  0  0  0  0  0  0  0  0  0  0  0
  141.4440   81.3780  223.8180 C   0  0  0  0  0  0  0  0  0  0  0  0
  142.7500   81.0250  223.5460 C   0  0  0  0  0  0  0  0  0  0  0  0
  143.0090   79.7530  223.0800 C   0  0  0  0  0  0  0  0  0  0  0  0
  141.9960   78.8460  222.8870 C   0  0  0  0  0  0  0  0  0  0  0  0
  140.6790   79.1730  223.1530 C   0  0  0  0  0  0  0  0  0  0  0  0
  140.9870   73.8660  220.6670 N   0  0  0  0  0  0  0  0  0  0  0  0
  141.7770   72.8280  220.9920 C   0  0  0  0  0  0  0  0  0  0  0  0
  142.9400   72.5930  220.2080 N   0  0  0  0  0  0  0  0  0  0  0  0
  144.0640   71.8770  220.7620 C   0  0  0  0  0  0  0  0  0  0  0  0
  145.3350   72.6930  220.6950 C   0  0  0  0  0  0  0  0  0  0  0  0
  145.0550   73.8470  219.8720 N   0  0  0  0  0  0  0  0  0  0  0  0
  144.4810   73.5070  218.5990 C   0  0  0  0  0  0  0  0  0  0  0  0
  143.0500   73.0540  218.8390 C   0  0  0  0  0  0  0  0  0  0  0  0
  141.4840   72.0280  222.0310 N   0  0  0  0  0  0  0  0  0  0  0  0
  140.8560   71.5270  225.0310 C   0  0  0  0  0  0  0  0  0  0  0  0
  139.7637   67.9116  228.7748 H   0  0  0  0  0  0  0  0  0  0  0  0
  141.0374   69.9476  229.3458 H   0  0  0  0  0  0  0  0  0  0  0  0
  141.5358   71.6196  227.5813 H   0  0  0  0  0  0  0  0  0  0  0  0
  138.9638   67.5001  226.4507 H   0  0  0  0  0  0  0  0  0  0  0  0
  140.2213   68.8224  223.7195 H   0  0  0  0  0  0  0  0  0  0  0  0
  138.5590   68.4582  224.2867 H   0  0  0  0  0  0  0  0  0  0  0  0
  138.5638   70.4239  222.7411 H   0  0  0  0  0  0  0  0  0  0  0  0
  138.0559   70.9193  224.3733 H   0  0  0  0  0  0  0  0  0  0  0  0
  139.3240   75.8810  220.2530 H   0  0  0  0  0  0  0  0  0  0  0  0
  137.0364   75.8377  220.9467 H   0  0  0  0  0  0  0  0  0  0  0  0
  137.4373   74.6299  222.2201 H   0  0  0  0  0  0  0  0  0  0  0  0
  137.2858   77.4707  222.4684 H   0  0  0  0  0  0  0  0  0  0  0  0
  137.7782   76.2758  223.7098 H   0  0  0  0  0  0  0  0  0  0  0  0
  140.0378   76.5016  223.2259 H   0  0  0  0  0  0  0  0  0  0  0  0
  139.7116   77.0990  221.5507 H   0  0  0  0  0  0  0  0  0  0  0  0
  137.4590   79.1142  223.5046 H   0  0  0  0  0  0  0  0  0  0  0  0
  138.5381   81.4446  224.1807 H   0  0  0  0  0  0  0  0  0  0  0  0
  141.2073   82.3859  224.1896 H   0  0  0  0  0  0  0  0  0  0  0  0
  143.5685   81.7440  223.6979 H   0  0  0  0  0  0  0  0  0  0  0  0
  144.0458   79.4596  222.8589 H   0  0  0  0  0  0  0  0  0  0  0  0
  142.2370   77.8398  222.5135 H   0  0  0  0  0  0  0  0  0  0  0  0
  143.8500   71.6363  221.8138 H   0  0  0  0  0  0  0  0  0  0  0  0
  144.2127   70.9616  220.1704 H   0  0  0  0  0  0  0  0  0  0  0  0
  145.6321   73.0126  221.7048 H   0  0  0  0  0  0  0  0  0  0  0  0
  146.1593   72.1004  220.2716 H   0  0  0  0  0  0  0  0  0  0  0  0
  145.7920   74.5590  219.8580 H   0  0  0  0  0  0  0  0  0  0  0  0
  144.4890   74.3865  217.9383 H   0  0  0  0  0  0  0  0  0  0  0  0
  145.0615   72.7059  218.1181 H   0  0  0  0  0  0  0  0  0  0  0  0
  142.3612   73.8956  218.6739 H   0  0  0  0  0  0  0  0  0  0  0  0
  142.7891   72.2418  218.1445 H   0  0  0  0  0  0  0  0  0  0  0  0
  141.9083   71.4025  224.7357 H   0  0  0  0  0  0  0  0  0  0  0  0
  140.6618   72.5039  225.4979 H   0  0  0  0  0  0  0  0  0  0  0  0
  1  2  2  0
  2  3  1  0
  3  4  2  0
  4  5  1  0
  5  6  2  0
  5  7  1  0
  7  8  1  0
  8  9  1  0
  9 10  1  0
 10 11  2  0
 11 12  1  0
 12 13  1  0
 13 14  1  0
 14 15  1  0
 15 16  1  0
 16 17  1  0
 17 18  1  0
 18 19  2  0
 19 20  1  0
 20 21  2  0
 21 22  1  0
 22 23  2  0
 23 24  1  0
 24 25  2  0
 12 26  2  0
 26 27  1  0
 27 28  1  0
 28 29  1  0
 29 30  1  0
 30 31  1  0
 31 32  1  0
 32 33  1  0
 27 34  2  0
  9 35  1  0
  6  1  1  0
 34 10  1  0
 35  4  1  0
 25 17  1  0
 33 28  1  0
 25 20  1  0
  1 36  1  0
  2 37  1  0
  3 38  1  0
  6 39  1  0
  7 40  1  0
  7 41  1  0
  8 42  1  0
  8 43  1  0
 13 44  1  0
 14 45  1  0
 14 46  1  0
 15 47  1  0
 15 48  1  0
 16 49  1  0
 16 50  1  0
 18 51  1  0
 19 52  1  0
 21 53  1  0
 22 54  1  0
 23 55  1  0
 24 56  1  0
 29 57  1  0
 29 58  1  0
 30 59  1  0
 30 60  1  0
 31 61  1  0
 32 62  1  0
 32 63  1  0
 33 64  1  0
 33 65  1  0
 35 66  1  0
 35 67  1  0
M  END
>  <smiles>  (4) 
c1ccc2c(c1)CCN(c1nc(NCCCn3ccc4ccccc43)nc(N3CCNCC3)n1)C2

>  <score_type>  (4) 
oracle

>  <origin>  (4) 
autodockgpu

>  <m_score__min__energy>  (4) 
-10.76

>  <m_primary>  (4) 
energy

>  <rmsd>  (4) 
3.9572734516549732

>  <m_score__min__rmsd>  (4) 
3.9572734516549732

>  <meeko>  (4) 
{"free_energy": -10.18, "intermolecular_energy": -12.27, "internal_energy": -0.95, "cluster_size": 44, "cluster_id": 1, "rank_in_cluster": 21}

>  <energy>  (4) 
-10.72

>  <cluster_rmsd>  (4) 
1.52

>  <cluster>  (4) 
1

$$$$

     RDKit          3D

 67 72  0  0  0  0  0  0  0  0999 V2000
  138.6960   80.7340  223.5250 C   0  0  0  0  0  0  0  0  0  0  0  0
  140.0650   80.8610  223.4190 C   0  0  0  0  0  0  0  0  0  0  0  0
  140.8160   79.7620  223.0660 C   0  0  0  0  0  0  0  0  0  0  0  0
  140.2040   78.5420  222.8210 C   0  0  0  0  0  0  0  0  0  0  0  0
  138.8380   78.4480  222.9350 C   0  0  0  0  0  0  0  0  0  0  0  0
  138.0480   79.5320  223.2880 C   0  0  0  0  0  0  0  0  0  0  0  0
  138.2270   77.1170  222.6620 C   0  0  0  0  0  0  0  0  0  0  0  0
  138.9320   76.4800  221.4600 C   0  0  0  0  0  0  0  0  0  0  0  0
  140.3470   76.3250  221.8190 N   0  0  0  0  0  0  0  0  0  0  0  0
  141.0360   75.1210  221.5540 C   0  0  0  0  0  0  0  0  0  0  0  0
  140.5860   73.9360  221.9780 N   0  0  0  0  0  0  0  0  0  0  0  0
  141.2290   72.7630  221.7380 C   0  0  0  0  0  0  0  0  0  0  0  0
  140.7090   71.5340  222.2130 N   0  0  0  0  0  0  0  0  0  0  0  0
  139.6500   70.7970  221.5750 C   0  0  0  0  0  0  0  0  0  0  0  0
  138.4310   70.7640  222.4680 C   0  0  0  0  0  0  0  0  0  0  0  0
  138.8090   71.2840  223.8250 C   0  0  0  0  0  0  0  0  0  0  0  0
  139.1580   70.2080  224.7120 N   0  0  0  0  0  0  0  0  0  0  0  0
  138.9110   68.8840  224.6060 C   0  0  0  0  0  0  0  0  0  0  0  0
  139.4260   68.2160  225.6900 C   0  0  0  0  0  0  0  0  0  0  0  0
  140.0150   69.1580  226.5010 C   0  0  0  0  0  0  0  0  0  0  0  0
  140.6700   69.0190  227.7040 C   0  0  0  0  0  0  0  0  0  0  0  0
  141.1800   70.1370  228.3310 C   0  0  0  0  0  0  0  0  0  0  0  0
  141.0160   71.3670  227.7300 C   0  0  0  0  0  0  0  0  0  0  0  0
  140.3600   71.4900  226.5300 C   0  0  0  0  0  0  0  0  0  0  0  0
  139.8390   70.3860  225.8800 C   0  0  0  0  0  0  0  0  0  0  0  0
  142.3670   72.8480  221.0380 N   0  0  0  0  0  0  0  0  0  0  0  0
  142.8460   74.0250  220.5970 C   0  0  0  0  0  0  0  0  0  0  0  0
  144.0610   74.0270  219.8600 N   0  0  0  0  0  0  0  0  0  0  0  0
  144.0430   73.9590  218.4180 C   0  0  0  0  0  0  0  0  0  0  0  0
  144.8330   72.7780  217.9030 C   0  0  0  0  0  0  0  0  0  0  0  0
  145.5560   72.2290  219.0280 N   0  0  0  0  0  0  0  0  0  0  0  0
  146.3250   73.2140  219.7400 C   0  0  0  0  0  0  0  0  0  0  0  0
  145.3540   74.0950  220.5100 C   0  0  0  0  0  0  0  0  0  0  0  0
  142.1960   75.1770  220.8430 N   0  0  0  0  0  0  0  0  0  0  0  0
  141.0580   77.4090  222.4510 C   0  0  0  0  0  0  0  0  0  0  0  0
  138.0995   81.6143  223.8065 H   0  0  0  0  0  0  0  0  0  0  0  0
  140.5512   81.8283  223.6140 H   0  0  0  0  0  0  0  0  0  0  0  0
  141.9087   79.8525  222.9778 H   0  0  0  0  0  0  0  0  0  0  0  0
  136.9553   79.4417  223.3760 H   0  0  0  0  0  0  0  0  0  0  0  0
  138.3444   76.4698  223.5437 H   0  0  0  0  0  0  0  0  0  0  0  0
  137.1560   77.2384  222.4425 H   0  0  0  0  0  0  0  0  0  0  0  0
  138.4890   75.4974  221.2405 H   0  0  0  0  0  0  0  0  0  0  0  0
  138.8229   77.1095  220.5646 H   0  0  0  0  0  0  0  0  0  0  0  0
  141.1210   71.1310  223.0900 H   0  0  0  0  0  0  0  0  0  0  0  0
  139.3907   71.2828  220.6228 H   0  0  0  0  0  0  0  0  0  0  0  0
  139.9887   69.7671  221.3889 H   0  0  0  0  0  0  0  0  0  0  0  0
  137.6404   71.3960  222.0373 H   0  0  0  0  0  0  0  0  0  0  0  0
  138.0594   69.7322  222.5541 H   0  0  0  0  0  0  0  0  0  0  0  0
  139.6708   71.9600  223.7236 H   0  0  0  0  0  0  0  0  0  0  0  0
  137.9458   71.8193  224.2473 H   0  0  0  0  0  0  0  0  0  0  0  0
  138.3745   68.4091  223.7714 H   0  0  0  0  0  0  0  0  0  0  0  0
  139.3767   67.1327  225.8746 H   0  0  0  0  0  0  0  0  0  0  0  0
  140.7857   68.0252  228.1612 H   0  0  0  0  0  0  0  0  0  0  0  0
  141.7075   70.0488  229.2922 H   0  0  0  0  0  0  0  0  0  0  0  0
  141.4179   72.2658  228.2206 H   0  0  0  0  0  0  0  0  0  0  0  0
  140.2467   72.4859  226.0769 H   0  0  0  0  0  0  0  0  0  0  0  0
  143.0008   73.8657  218.0787 H   0  0  0  0  0  0  0  0  0  0  0  0
  144.5051   74.8771  218.0261 H   0  0  0  0  0  0  0  0  0  0  0  0
  144.1522   72.0212  217.4860 H   0  0  0  0  0  0  0  0  0  0  0  0
  145.5246   73.0867  217.1053 H   0  0  0  0  0  0  0  0  0  0  0  0
  146.0250   71.3360  218.8480 H   0  0  0  0  0  0  0  0  0  0  0  0
  147.0141   72.7171  220.4388 H   0  0  0  0  0  0  0  0  0  0  0  0
  146.9184   73.8186  219.0383 H   0  0  0  0  0  0  0  0  0  0  0  0
  145.2683   73.7360  221.5462 H   0  0  0  0  0  0  0  0  0  0  0  0
  145.7158   75.1337  220.5242 H   0  0  0  0  0  0  0  0  0  0  0  0
  141.5374   77.0239  223.3631 H   0  0  0  0  0  0  0  0  0  0  0  0
  141.7871   77.7840  221.7177 H   0  0  0  0  0  0  0  0  0  0  0  0
  1  2  2  0
  2  3  1  0
  3  4  2  0
  4  5  1  0
  5  6  2  0
  5  7  1  0
  7  8  1  0
  8  9  1  0
  9 10  1  0
 10 11  2  0
 11 12  1  0
 12 13  1  0
 13 14  1  0
 14 15  1  0
 15 16  1  0
 16 17  1  0
 17 18  1  0
 18 19  2  0
 19 20  1  0
 20 21  2  0
 21 22  1  0
 22 23  2  0
 23 24  1  0
 24 25  2  0
 12 26  2  0
 26 27  1  0
 27 28  1  0
 28 29  1  0
 29 30  1  0
 30 31  1  0
 31 32  1  0
 32 33  1  0
 27 34  2  0
  9 35  1  0
  6  1  1  0
 34 10  1  0
 35  4  1  0
 25 17  1  0
 33 28  1  0
 25 20  1  0
  1 36  1  0
  2 37  1  0
  3 38  1  0
  6 39  1  0
  7 40  1  0
  7 41  1  0
  8 42  1  0
  8 43  1  0
 13 44  1  0
 14 45  1  0
 14 46  1  0
 15 47  1  0
 15 48  1  0
 16 49  1  0
 16 50  1  0
 18 51  1  0
 19 52  1  0
 21 53  1  0
 22 54  1  0
 23 55  1  0
 24 56  1  0
 29 57  1  0
 29 58  1  0
 30 59  1  0
 30 60  1  0
 31 61  1  0
 32 62  1  0
 32 63  1  0
 33 64  1  0
 33 65  1  0
 35 66  1  0
 35 67  1  0
M  END
>  <smiles>  (5) 
c1ccc2c(c1)CCN(c1nc(NCCCn3ccc4ccccc43)nc(N3CCNCC3)n1)C2

>  <score_type>  (5) 
oracle

>  <origin>  (5) 
autodockgpu

>  <m_score__min__energy>  (5) 
-10.76

>  <m_primary>  (5) 
energy

>  <rmsd>  (5) 
11.44034575072856

>  <m_score__min__rmsd>  (5) 
11.44034575072856

>  <meeko>  (5) 
{"free_energy": -9.68, "intermolecular_energy": -11.77, "internal_energy": -1.07, "cluster_size": 44, "cluster_id": 1, "rank_in_cluster": 39}

>  <energy>  (5) 
-10.65

>  <cluster_rmsd>  (5) 
1.58

>  <cluster>  (5) 
1

$$$$

     RDKit          3D

 67 72  0  0  0  0  0  0  0  0999 V2000
  141.4060   82.6010  221.5640 C   0  0  0  0  0  0  0  0  0  0  0  0
  141.3690   82.1810  220.2510 C   0  0  0  0  0  0  0  0  0  0  0  0
  141.3340   80.8310  219.9780 C   0  0  0  0  0  0  0  0  0  0  0  0
  141.3360   79.9050  221.0100 C   0  0  0  0  0  0  0  0  0  0  0  0
  141.3730   80.3570  222.3080 C   0  0  0  0  0  0  0  0  0  0  0  0
  141.4100   81.7060  222.6220 C   0  0  0  0  0  0  0  0  0  0  0  0
  141.3740   79.3240  223.3820 C   0  0  0  0  0  0  0  0  0  0  0  0
  140.4040   78.2010  222.9980 C   0  0  0  0  0  0  0  0  0  0  0  0
  140.8850   77.6240  221.7370 N   0  0  0  0  0  0  0  0  0  0  0  0
  140.9550   76.2240  221.5600 C   0  0  0  0  0  0  0  0  0  0  0  0
  140.0110   75.4000  222.0230 N   0  0  0  0  0  0  0  0  0  0  0  0
  140.0540   74.0510  221.8660 C   0  0  0  0  0  0  0  0  0  0  0  0
  139.0260   73.2230  222.3810 N   0  0  0  0  0  0  0  0  0  0  0  0
  138.9720   71.7940  222.2170 C   0  0  0  0  0  0  0  0  0  0  0  0
  138.9080   71.1200  223.5680 C   0  0  0  0  0  0  0  0  0  0  0  0
  140.2740   70.6070  223.9210 C   0  0  0  0  0  0  0  0  0  0  0  0
  140.5540   70.8000  225.3180 N   0  0  0  0  0  0  0  0  0  0  0  0
  140.7600   71.9430  226.0090 C   0  0  0  0  0  0  0  0  0  0  0  0
  140.9980   71.6620  227.3320 C   0  0  0  0  0  0  0  0  0  0  0  0
  140.9400   70.2930  227.4690 C   0  0  0  0  0  0  0  0  0  0  0  0
  141.1070   69.4990  228.5810 C   0  0  0  0  0  0  0  0  0  0  0  0
  140.9980   68.1290  228.4570 C   0  0  0  0  0  0  0  0  0  0  0  0
  140.7240   67.5960  227.2160 C   0  0  0  0  0  0  0  0  0  0  0  0
  140.5610   68.4020  226.1160 C   0  0  0  0  0  0  0  0  0  0  0  0
  140.6640   69.7770  226.2120 C   0  0  0  0  0  0  0  0  0  0  0  0
  141.1140   73.5680  221.2080 N   0  0  0  0  0  0  0  0  0  0  0  0
  142.0810   74.3710  220.7290 C   0  0  0  0  0  0  0  0  0  0  0  0
  143.1740   73.7770  220.0410 N   0  0  0  0  0  0  0  0  0  0  0  0
  143.0780   72.4250  219.5440 C   0  0  0  0  0  0  0  0  0  0  0  0
  144.1750   71.5460  220.1000 C   0  0  0  0  0  0  0  0  0  0  0  0
  145.1150   72.4140  220.7720 N   0  0  0  0  0  0  0  0  0  0  0  0
  145.5650   73.5040  219.9490 C   0  0  0  0  0  0  0  0  0  0  0  0
  144.4150   74.4880  219.8100 C   0  0  0  0  0  0  0  0  0  0  0  0
  142.0230   75.7040  220.8920 N   0  0  0  0  0  0  0  0  0  0  0  0
  141.2970   78.4830  220.6560 C   0  0  0  0  0  0  0  0  0  0  0  0
  141.4332   83.6796  221.7781 H   0  0  0  0  0  0  0  0  0  0  0  0
  141.3675   82.9149  219.4316 H   0  0  0  0  0  0  0  0  0  0  0  0
  141.3043   80.4854  218.9341 H   0  0  0  0  0  0  0  0  0  0  0  0
  141.4412   82.0516  223.6658 H   0  0  0  0  0  0  0  0  0  0  0  0
  142.3876   78.9123  223.4963 H   0  0  0  0  0  0  0  0  0  0  0  0
  141.0582   79.7776  224.3331 H   0  0  0  0  0  0  0  0  0  0  0  0
  140.3892   77.4309  223.7833 H   0  0  0  0  0  0  0  0  0  0  0  0
  139.3815   78.5903  222.8843 H   0  0  0  0  0  0  0  0  0  0  0  0
  138.2480   73.6790  222.9190 H   0  0  0  0  0  0  0  0  0  0  0  0
  138.0776   71.5279  221.6346 H   0  0  0  0  0  0  0  0  0  0  0  0
  139.8759   71.4572  221.6882 H   0  0  0  0  0  0  0  0  0  0  0  0
  138.5783   71.8448  224.3269 H   0  0  0  0  0  0  0  0  0  0  0  0
  138.1935   70.2843  223.5340 H   0  0  0  0  0  0  0  0  0  0  0  0
  140.3254   69.5329  223.6893 H   0  0  0  0  0  0  0  0  0  0  0  0
  141.0191   71.1649  223.3349 H   0  0  0  0  0  0  0  0  0  0  0  0
  140.7399   72.9532  225.5742 H   0  0  0  0  0  0  0  0  0  0  0  0
  141.1971   72.3918  228.1306 H   0  0  0  0  0  0  0  0  0  0  0  0
  141.3253   69.9523  229.5592 H   0  0  0  0  0  0  0  0  0  0  0  0
  141.1273   67.4749  229.3319 H   0  0  0  0  0  0  0  0  0  0  0  0
  140.6342   66.5054  227.1045 H   0  0  0  0  0  0  0  0  0  0  0  0
  140.3443   67.9443  225.1395 H   0  0  0  0  0  0  0  0  0  0  0  0
  142.1035   72.0063  219.8355 H   0  0  0  0  0  0  0  0  0  0  0  0
  143.1831   72.4536  218.4494 H   0  0  0  0  0  0  0  0  0  0  0  0
  143.7536   70.8220  220.8130 H   0  0  0  0  0  0  0  0  0  0  0  0
  144.6694   70.9809  219.2961 H   0  0  0  0  0  0  0  0  0  0  0  0
  145.8370   71.9330  221.3160 H   0  0  0  0  0  0  0  0  0  0  0  0
  146.4259   73.9992  220.4220 H   0  0  0  0  0  0  0  0  0  0  0  0
  145.8764   73.1354  218.9605 H   0  0  0  0  0  0  0  0  0  0  0  0
  144.5245   75.2943  220.5502 H   0  0  0  0  0  0  0  0  0  0  0  0
  144.4154   74.9298  218.8026 H   0  0  0  0  0  0  0  0  0  0  0  0
  142.3041   78.1780  220.3356 H   0  0  0  0  0  0  0  0  0  0  0  0
  140.5487   78.3729  219.8573 H   0  0  0  0  0  0  0  0  0  0  0  0
  1  2  2  0
  2  3  1  0
  3  4  2  0
  4  5  1  0
  5  6  2  0
  5  7  1  0
  7  8  1  0
  8  9  1  0
  9 10  1  0
 10 11  2  0
 11 12  1  0
 12 13  1  0
 13 14  1  0
 14 15  1  0
 15 16  1  0
 16 17  1  0
 17 18  1  0
 18 19  2  0
 19 20  1  0
 20 21  2  0
 21 22  1  0
 22 23  2  0
 23 24  1  0
 24 25  2  0
 12 26  2  0
 26 27  1  0
 27 28  1  0
 28 29  1  0
 29 30  1  0
 30 31  1  0
 31 32  1  0
 32 33  1  0
 27 34  2  0
  9 35  1  0
  6  1  1  0
 34 10  1  0
 35  4  1  0
 25 17  1  0
 33 28  1  0
 25 20  1  0
  1 36  1  0
  2 37  1  0
  3 38  1  0
  6 39  1  0
  7 40  1  0
  7 41  1  0
  8 42  1  0
  8 43  1  0
 13 44  1  0
 14 45  1  0
 14 46  1  0
 15 47  1  0
 15 48  1  0
 16 49  1  0
 16 50  1  0
 18 51  1  0
 19 52  1  0
 21 53  1  0
 22 54  1  0
 23 55  1  0
 24 56  1  0
 29 57  1  0
 29 58  1  0
 30 59  1  0
 30 60  1  0
 31 61  1  0
 32 62  1  0
 32 63  1  0
 33 64  1  0
 33 65  1  0
 35 66  1  0
 35 67  1  0
M  END
>  <smiles>  (6) 
c1ccc2c(c1)CCN(c1nc(NCCCn3ccc4ccccc43)nc(N3CCNCC3)n1)C2

>  <score_type>  (6) 
oracle

>  <origin>  (6) 
autodockgpu

>  <m_score__min__energy>  (6) 
-10.76

>  <m_primary>  (6) 
energy

>  <rmsd>  (6) 
11.715687644513899

>  <m_score__min__rmsd>  (6) 
11.715687644513899

>  <meeko>  (6) 
{"free_energy": -10.76, "intermolecular_energy": -12.84, "internal_energy": -0.99, "cluster_size": 44, "cluster_id": 1, "rank_in_cluster": 2}

>  <energy>  (6) 
-10.65

>  <cluster_rmsd>  (6) 
1.66

>  <cluster>  (6) 
1

$$$$

     RDKit          3D

 67 72  0  0  0  0  0  0  0  0999 V2000
  140.9480   81.9380  221.4770 C   0  0  0  0  0  0  0  0  0  0  0  0
  141.2840   81.4960  222.7390 C   0  0  0  0  0  0  0  0  0  0  0  0
  141.4380   80.1450  222.9580 C   0  0  0  0  0  0  0  0  0  0  0  0
  141.2570   79.2400  221.9230 C   0  0  0  0  0  0  0  0  0  0  0  0
  140.9220   79.7130  220.6770 C   0  0  0  0  0  0  0  0  0  0  0  0
  140.7590   81.0650  220.4180 C   0  0  0  0  0  0  0  0  0  0  0  0
  140.7390   78.7020  219.5980 C   0  0  0  0  0  0  0  0  0  0  0  0
  141.8180   77.6230  219.7330 C   0  0  0  0  0  0  0  0  0  0  0  0
  141.6440   76.9980  221.0500 N   0  0  0  0  0  0  0  0  0  0  0  0
  141.6770   75.5940  221.1970 C   0  0  0  0  0  0  0  0  0  0  0  0
  140.7030   74.9200  221.8170 N   0  0  0  0  0  0  0  0  0  0  0  0
  140.7110   73.5700  221.9720 C   0  0  0  0  0  0  0  0  0  0  0  0
  139.6530   72.9060  222.6400 N   0  0  0  0  0  0  0  0  0  0  0  0
  138.6800   72.0650  221.9920 C   0  0  0  0  0  0  0  0  0  0  0  0
  138.3350   70.8930  222.8820 C   0  0  0  0  0  0  0  0  0  0  0  0
  139.5970   70.1590  223.2300 C   0  0  0  0  0  0  0  0  0  0  0  0
  139.5850   69.7320  224.6020 N   0  0  0  0  0  0  0  0  0  0  0  0
  139.0930   68.6000  225.1520 C   0  0  0  0  0  0  0  0  0  0  0  0
  139.2950   68.6040  226.5100 C   0  0  0  0  0  0  0  0  0  0  0  0
  139.9350   69.7830  226.8180 C   0  0  0  0  0  0  0  0  0  0  0  0
  140.3620   70.2790  228.0300 C   0  0  0  0  0  0  0  0  0  0  0  0
  140.9890   71.5070  228.0760 C   0  0  0  0  0  0  0  0  0  0  0  0
  141.1690   72.2040  226.9000 C   0  0  0  0  0  0  0  0  0  0  0  0
  140.7370   71.6960  225.7000 C   0  0  0  0  0  0  0  0  0  0  0  0
  140.1070   70.4680  225.6240 C   0  0  0  0  0  0  0  0  0  0  0  0
  141.7670   72.9250  221.4630 N   0  0  0  0  0  0  0  0  0  0  0  0
  142.7630   73.5740  220.8350 C   0  0  0  0  0  0  0  0  0  0  0  0
  143.8490   72.8120  220.3230 N   0  0  0  0  0  0  0  0  0  0  0  0
  145.0720   72.6800  221.0780 C   0  0  0  0  0  0  0  0  0  0  0  0
  146.2700   73.1610  220.2920 C   0  0  0  0  0  0  0  0  0  0  0  0
  145.8270   73.3790  218.9340 N   0  0  0  0  0  0  0  0  0  0  0  0
  145.1450   72.2440  218.3740 C   0  0  0  0  0  0  0  0  0  0  0  0
  143.7810   72.1450  219.0380 C   0  0  0  0  0  0  0  0  0  0  0  0
  142.7400   74.9100  220.6880 N   0  0  0  0  0  0  0  0  0  0  0  0
  141.4350   77.8150  222.2190 C   0  0  0  0  0  0  0  0  0  0  0  0
  140.8262   83.0177  221.3056 H   0  0  0  0  0  0  0  0  0  0  0  0
  141.4273   82.2133  223.5606 H   0  0  0  0  0  0  0  0  0  0  0  0
  141.7064   79.7813  223.9608 H   0  0  0  0  0  0  0  0  0  0  0  0
  140.4912   81.4289  219.4151 H   0  0  0  0  0  0  0  0  0  0  0  0
  139.7442   78.2415  219.6897 H   0  0  0  0  0  0  0  0  0  0  0  0
  140.8236   79.1895  218.6156 H   0  0  0  0  0  0  0  0  0  0  0  0
  141.6995   76.8701  218.9398 H   0  0  0  0  0  0  0  0  0  0  0  0
  142.8225   78.0611  219.6381 H   0  0  0  0  0  0  0  0  0  0  0  0
  139.5680   73.0330  223.6790 H   0  0  0  0  0  0  0  0  0  0  0  0
  137.7702   72.6494  221.7902 H   0  0  0  0  0  0  0  0  0  0  0  0
  139.0995   71.6895  221.0470 H   0  0  0  0  0  0  0  0  0  0  0  0
  137.8538   71.2569  223.8018 H   0  0  0  0  0  0  0  0  0  0  0  0
  137.6434   70.2174  222.3573 H   0  0  0  0  0  0  0  0  0  0  0  0
  139.6904   69.2766  222.5798 H   0  0  0  0  0  0  0  0  0  0  0  0
  140.4489   70.8392  223.0830 H   0  0  0  0  0  0  0  0  0  0  0  0
  138.6011   67.7911  224.5919 H   0  0  0  0  0  0  0  0  0  0  0  0
  139.0011   67.8147  227.2176 H   0  0  0  0  0  0  0  0  0  0  0  0
  140.2045   69.7013  228.9527 H   0  0  0  0  0  0  0  0  0  0  0  0
  141.3387   71.9222  229.0327 H   0  0  0  0  0  0  0  0  0  0  0  0
  141.6675   73.1843  226.9237 H   0  0  0  0  0  0  0  0  0  0  0  0
  140.8954   72.2781  224.7802 H   0  0  0  0  0  0  0  0  0  0  0  0
  144.9880   73.2751  221.9993 H   0  0  0  0  0  0  0  0  0  0  0  0
  145.2189   71.6145  221.3084 H   0  0  0  0  0  0  0  0  0  0  0  0
  146.6501   74.1002  220.7204 H   0  0  0  0  0  0  0  0  0  0  0  0
  147.0829   72.4207  220.3248 H   0  0  0  0  0  0  0  0  0  0  0  0
  146.5080   73.8410  218.3250 H   0  0  0  0  0  0  0  0  0  0  0  0
  145.0238   72.3786  217.2890 H   0  0  0  0  0  0  0  0  0  0  0  0
  145.7237   71.3248  218.5477 H   0  0  0  0  0  0  0  0  0  0  0  0
  143.0238   72.6321  218.4060 H   0  0  0  0  0  0  0  0  0  0  0  0
  143.5022   71.0896  219.1739 H   0  0  0  0  0  0  0  0  0  0  0  0
  140.5347   77.4538  222.7377 H   0  0  0  0  0  0  0  0  0  0  0  0
  142.3413   77.7276  222.8362 H   0  0  0  0  0  0  0  0  0  0  0  0
  1  2  2  0
  2  3  1  0
  3  4  2  0
  4  5  1  0
  5  6  2  0
  5  7  1  0
  7  8  1  0
  8  9  1  0
  9 10  1  0
 10 11  2  0
 11 12  1  0
 12 13  1  0
 13 14  1  0
 14 15  1  0
 15 16  1  0
 16 17  1  0
 17 18  1  0
 18 19  2  0
 19 20  1  0
 20 21  2  0
 21 22  1  0
 22 23  2  0
 23 24  1  0
 24 25  2  0
 12 26  2  0
 26 27  1  0
 27 28  1  0
 28 29  1  0
 29 30  1  0
 30 31  1  0
 31 32  1  0
 32 33  1  0
 27 34  2  0
  9 35  1  0
  6  1  1  0
 34 10  1  0
 35  4  1  0
 25 17  1  0
 33 28  1  0
 25 20  1  0
  1 36  1  0
  2 37  1  0
  3 38  1  0
  6 39  1  0
  7 40  1  0
  7 41  1  0
  8 42  1  0
  8 43  1  0
 13 44  1  0
 14 45  1  0
 14 46  1  0
 15 47  1  0
 15 48  1  0
 16 49  1  0
 16 50  1  0
 18 51  1  0
 19 52  1  0
 21 53  1  0
 22 54  1  0
 23 55  1  0
 24 56  1  0
 29 57  1  0
 29 58  1  0
 30 59  1  0
 30 60  1  0
 31 61  1  0
 32 62  1  0
 32 63  1  0
 33 64  1  0
 33 65  1  0
 35 66  1  0
 35 67  1  0
M  END
>  <smiles>  (7) 
c1ccc2c(c1)CCN(c1nc(NCCCn3ccc4ccccc43)nc(N3CCNCC3)n1)C2

>  <score_type>  (7) 
oracle

>  <origin>  (7) 
autodockgpu

>  <m_score__min__energy>  (7) 
-10.76

>  <m_primary>  (7) 
energy

>  <rmsd>  (7) 
11.033787453216044

>  <m_score__min__rmsd>  (7) 
11.033787453216044

>  <meeko>  (7) 
{"free_energy": -10.25, "intermolecular_energy": -12.34, "internal_energy": -1.11, "cluster_size": 44, "cluster_id": 1, "rank_in_cluster": 18}

>  <energy>  (7) 
-10.64

>  <cluster_rmsd>  (7) 
1.66

>  <cluster>  (7) 
1

$$$$

     RDKit          3D

 67 72  0  0  0  0  0  0  0  0999 V2000
  146.2190   70.2550  219.1260 C   0  0  0  0  0  0  0  0  0  0  0  0
  145.0040   69.6360  218.9240 C   0  0  0  0  0  0  0  0  0  0  0  0
  143.8490   70.2760  219.3160 C   0  0  0  0  0  0  0  0  0  0  0  0
  143.9070   71.5300  219.9060 C   0  0  0  0  0  0  0  0  0  0  0  0
  145.1340   72.1200  220.0940 C   0  0  0  0  0  0  0  0  0  0  0  0
  146.3180   71.5070  219.7140 C   0  0  0  0  0  0  0  0  0  0  0  0
  145.1440   73.4660  220.7320 C   0  0  0  0  0  0  0  0  0  0  0  0
  143.9830   74.2950  220.1740 C   0  0  0  0  0  0  0  0  0  0  0  0
  142.7430   73.5840  220.5080 N   0  0  0  0  0  0  0  0  0  0  0  0
  141.6290   74.2740  221.0360 C   0  0  0  0  0  0  0  0  0  0  0  0
  140.5180   73.6420  221.4230 N   0  0  0  0  0  0  0  0  0  0  0  0
  139.4330   74.2820  221.9330 C   0  0  0  0  0  0  0  0  0  0  0  0
  138.2780   73.5610  222.3260 N   0  0  0  0  0  0  0  0  0  0  0  0
  138.1800   72.1250  222.3420 C   0  0  0  0  0  0  0  0  0  0  0  0
  139.5260   71.5180  222.6660 C   0  0  0  0  0  0  0  0  0  0  0  0
  139.3330   70.4140  223.6660 C   0  0  0  0  0  0  0  0  0  0  0  0
  140.0000   70.7140  224.9030 N   0  0  0  0  0  0  0  0  0  0  0  0
  140.6290   71.8450  225.2960 C   0  0  0  0  0  0  0  0  0  0  0  0
  141.1310   71.6940  226.5640 C   0  0  0  0  0  0  0  0  0  0  0  0
  140.8040   70.4220  226.9780 C   0  0  0  0  0  0  0  0  0  0  0  0
  141.0690   69.7710  228.1620 C   0  0  0  0  0  0  0  0  0  0  0  0
  140.6270   68.4760  228.3360 C   0  0  0  0  0  0  0  0  0  0  0  0
  139.9290   67.8700  227.3130 C   0  0  0  0  0  0  0  0  0  0  0  0
  139.6730   68.5330  226.1380 C   0  0  0  0  0  0  0  0  0  0  0  0
  140.1040   69.8310  225.9360 C   0  0  0  0  0  0  0  0  0  0  0  0
  139.5280   75.6130  222.0340 N   0  0  0  0  0  0  0  0  0  0  0  0
  140.6320   76.2790  221.6530 C   0  0  0  0  0  0  0  0  0  0  0  0
  140.6510   77.6930  221.7940 N   0  0  0  0  0  0  0  0  0  0  0  0
  140.6280   78.5460  220.6290 C   0  0  0  0  0  0  0  0  0  0  0  0
  141.8170   79.4790  220.5950 C   0  0  0  0  0  0  0  0  0  0  0  0
  142.4740   79.3760  221.8780 N   0  0  0  0  0  0  0  0  0  0  0  0
  141.5790   79.5680  222.9880 C   0  0  0  0  0  0  0  0  0  0  0  0
  140.6960   78.3350  223.0920 C   0  0  0  0  0  0  0  0  0  0  0  0
  141.6980   75.6300  221.1510 N   0  0  0  0  0  0  0  0  0  0  0  0
  142.6440   72.1600  220.3010 C   0  0  0  0  0  0  0  0  0  0  0  0
  147.1385   69.7399  218.8110 H   0  0  0  0  0  0  0  0  0  0  0  0
  144.9573   68.6421  218.4550 H   0  0  0  0  0  0  0  0  0  0  0  0
  142.8747   69.7897  219.1602 H   0  0  0  0  0  0  0  0  0  0  0  0
  147.2925   71.9921  219.8719 H   0  0  0  0  0  0  0  0  0  0  0  0
  145.0295   73.3582  221.8207 H   0  0  0  0  0  0  0  0  0  0  0  0
  146.0970   73.9711  220.5157 H   0  0  0  0  0  0  0  0  0  0  0  0
  143.9793   75.2950  220.6323 H   0  0  0  0  0  0  0  0  0  0  0  0
  144.0803   74.4207  219.0855 H   0  0  0  0  0  0  0  0  0  0  0  0
  137.4340   74.1080  222.6280 H   0  0  0  0  0  0  0  0  0  0  0  0
  137.4491   71.8183  223.1047 H   0  0  0  0  0  0  0  0  0  0  0  0
  137.8551   71.7744  221.3513 H   0  0  0  0  0  0  0  0  0  0  0  0
  139.9781   71.1112  221.7494 H   0  0  0  0  0  0  0  0  0  0  0  0
  140.1914   72.2877  223.0840 H   0  0  0  0  0  0  0  0  0  0  0  0
  138.2574   70.2882  223.8591 H   0  0  0  0  0  0  0  0  0  0  0  0
  139.7624   69.4894  223.2528 H   0  0  0  0  0  0  0  0  0  0  0  0
  140.7245   72.7556  224.6863 H   0  0  0  0  0  0  0  0  0  0  0  0
  141.6890   72.4465  227.1406 H   0  0  0  0  0  0  0  0  0  0  0  0
  141.6280   70.2789  228.9617 H   0  0  0  0  0  0  0  0  0  0  0  0
  140.8277   67.9368  229.2735 H   0  0  0  0  0  0  0  0  0  0  0  0
  139.5710   66.8377  227.4402 H   0  0  0  0  0  0  0  0  0  0  0  0
  139.1136   68.0209  225.3412 H   0  0  0  0  0  0  0  0  0  0  0  0
  140.6425   77.9172  219.7266 H   0  0  0  0  0  0  0  0  0  0  0  0
  139.7141   79.1569  220.6695 H   0  0  0  0  0  0  0  0  0  0  0  0
  142.5076   79.1812  219.7923 H   0  0  0  0  0  0  0  0  0  0  0  0
  141.4978   80.5135  220.4002 H   0  0  0  0  0  0  0  0  0  0  0  0
  143.3780   79.8520  221.9420 H   0  0  0  0  0  0  0  0  0  0  0  0
  142.1557   79.6945  223.9161 H   0  0  0  0  0  0  0  0  0  0  0  0
  140.9654   80.4681  222.8354 H   0  0  0  0  0  0  0  0  0  0  0  0
  141.1141   77.6405  223.8355 H   0  0  0  0  0  0  0  0  0  0  0  0
  139.6818   78.6223  223.4065 H   0  0  0  0  0  0  0  0  0  0  0  0
  142.3035   71.6962  221.2385 H   0  0  0  0  0  0  0  0  0  0  0  0
  141.9364   72.0052  219.4732 H   0  0  0  0  0  0  0  0  0  0  0  0
  1  2  2  0
  2  3  1  0
  3  4  2  0
  4  5  1  0
  5  6  2  0
  5  7  1  0
  7  8  1  0
  8  9  1  0
  9 10  1  0
 10 11  2  0
 11 12  1  0
 12 13  1  0
 13 14  1  0
 14 15  1  0
 15 16  1  0
 16 17  1  0
 17 18  1  0
 18 19  2  0
 19 20  1  0
 20 21  2  0
 21 22  1  0
 22 23  2  0
 23 24  1  0
 24 25  2  0
 12 26  2  0
 26 27  1  0
 27 28  1  0
 28 29  1  0
 29 30  1  0
 30 31  1  0
 31 32  1  0
 32 33  1  0
 27 34  2  0
  9 35  1  0
  6  1  1  0
 34 10  1  0
 35  4  1  0
 25 17  1  0
 33 28  1  0
 25 20  1  0
  1 36  1  0
  2 37  1  0
  3 38  1  0
  6 39  1  0
  7 40  1  0
  7 41  1  0
  8 42  1  0
  8 43  1  0
 13 44  1  0
 14 45  1  0
 14 46  1  0
 15 47  1  0
 15 48  1  0
 16 49  1  0
 16 50  1  0
 18 51  1  0
 19 52  1  0
 21 53  1  0
 22 54  1  0
 23 55  1  0
 24 56  1  0
 29 57  1  0
 29 58  1  0
 30 59  1  0
 30 60  1  0
 31 61  1  0
 32 62  1  0
 32 63  1  0
 33 64  1  0
 33 65  1  0
 35 66  1  0
 35 67  1  0
M  END
>  <smiles>  (8) 
c1ccc2c(c1)CCN(c1nc(NCCCn3ccc4ccccc43)nc(N3CCNCC3)n1)C2

>  <score_type>  (8) 
oracle

>  <origin>  (8) 
autodockgpu

>  <m_score__min__energy>  (8) 
-10.76

>  <m_primary>  (8) 
energy

>  <rmsd>  (8) 
11.506592855714985

>  <m_score__min__rmsd>  (8) 
11.506592855714985

>  <meeko>  (8) 
{"free_energy": -9.9, "intermolecular_energy": -11.99, "internal_energy": -0.89, "cluster_size": 4, "cluster_id": 2, "rank_in_cluster": 1}

>  <energy>  (8) 
-10.63

>  <cluster_rmsd>  (8) 
1.64

>  <cluster>  (8) 
1

$$$$

     RDKit          3D

 67 72  0  0  0  0  0  0  0  0999 V2000
  140.1310   68.5270  227.7900 C   0  0  0  0  0  0  0  0  0  0  0  0
  140.7840   69.6880  228.1440 C   0  0  0  0  0  0  0  0  0  0  0  0
  140.9570   70.6770  227.2010 C   0  0  0  0  0  0  0  0  0  0  0  0
  140.4800   70.5070  225.9100 C   0  0  0  0  0  0  0  0  0  0  0  0
  139.8330   69.3370  225.5880 C   0  0  0  0  0  0  0  0  0  0  0  0
  139.6410   68.3200  226.5100 C   0  0  0  0  0  0  0  0  0  0  0  0
  139.3390   69.2020  224.1890 C   0  0  0  0  0  0  0  0  0  0  0  0
  138.7530   70.5410  223.7330 C   0  0  0  0  0  0  0  0  0  0  0  0
  139.8340   71.5320  223.7960 N   0  0  0  0  0  0  0  0  0  0  0  0
  140.0510   72.4390  222.7350 C   0  0  0  0  0  0  0  0  0  0  0  0
  139.1160   73.3060  222.3370 N   0  0  0  0  0  0  0  0  0  0  0  0
  139.2990   74.1880  221.3190 C   0  0  0  0  0  0  0  0  0  0  0  0
  138.2710   75.0850  220.9370 N   0  0  0  0  0  0  0  0  0  0  0  0
  138.4950   76.3590  220.3050 C   0  0  0  0  0  0  0  0  0  0  0  0
  138.9910   77.3610  221.3220 C   0  0  0  0  0  0  0  0  0  0  0  0
  140.4920   77.3790  221.2950 C   0  0  0  0  0  0  0  0  0  0  0  0
  141.0150   78.3520  222.2150 N   0  0  0  0  0  0  0  0  0  0  0  0
  141.5140   78.1850  223.4590 C   0  0  0  0  0  0  0  0  0  0  0  0
  141.9010   79.3940  223.9820 C   0  0  0  0  0  0  0  0  0  0  0  0
  141.6330   80.3500  223.0290 C   0  0  0  0  0  0  0  0  0  0  0  0
  141.8280   81.7120  223.0490 C   0  0  0  0  0  0  0  0  0  0  0  0
  141.4700   82.4640  221.9490 C   0  0  0  0  0  0  0  0  0  0  0  0
  140.9240   81.8230  220.8570 C   0  0  0  0  0  0  0  0  0  0  0  0
  140.7350   80.4630  220.8530 C   0  0  0  0  0  0  0  0  0  0  0  0
  141.0840   79.6850  221.9410 C   0  0  0  0  0  0  0  0  0  0  0  0
  140.4920   74.1490  220.7140 N   0  0  0  0  0  0  0  0  0  0  0  0
  141.4530   73.2880  221.0900 C   0  0  0  0  0  0  0  0  0  0  0  0
  142.6930   73.3120  220.3940 N   0  0  0  0  0  0  0  0  0  0  0  0
  143.1100   72.1800  219.6010 C   0  0  0  0  0  0  0  0  0  0  0  0
  144.4520   71.6470  220.0500 C   0  0  0  0  0  0  0  0  0  0  0  0
  144.9970   72.6040  220.9850 N   0  0  0  0  0  0  0  0  0  0  0  0
  145.0150   73.9470  220.4740 C   0  0  0  0  0  0  0  0  0  0  0  0
  143.5820   74.4550  220.4480 C   0  0  0  0  0  0  0  0  0  0  0  0
  141.2570   72.4220  222.1000 N   0  0  0  0  0  0  0  0  0  0  0  0
  140.6950   71.5940  224.9510 C   0  0  0  0  0  0  0  0  0  0  0  0
  139.9945   67.7403  228.5467 H   0  0  0  0  0  0  0  0  0  0  0  0
  141.1627   69.8232  229.1679 H   0  0  0  0  0  0  0  0  0  0  0  0
  141.4767   71.6074  227.4736 H   0  0  0  0  0  0  0  0  0  0  0  0
  139.1223   67.3890  226.2377 H   0  0  0  0  0  0  0  0  0  0  0  0
  140.1733   68.9213  223.5293 H   0  0  0  0  0  0  0  0  0  0  0  0
  138.5633   68.4234  224.1435 H   0  0  0  0  0  0  0  0  0  0  0  0
  138.3784   70.4569  222.7022 H   0  0  0  0  0  0  0  0  0  0  0  0
  137.9123   70.8388  224.3769 H   0  0  0  0  0  0  0  0  0  0  0  0
  137.2770   74.8050  221.1260 H   0  0  0  0  0  0  0  0  0  0  0  0
  139.2468   76.2441  219.5103 H   0  0  0  0  0  0  0  0  0  0  0  0
  137.5491   76.7197  219.8747 H   0  0  0  0  0  0  0  0  0  0  0  0
  138.6052   78.3608  221.0739 H   0  0  0  0  0  0  0  0  0  0  0  0
  138.6397   77.0786  222.3254 H   0  0  0  0  0  0  0  0  0  0  0  0
  140.8682   76.3834  221.5729 H   0  0  0  0  0  0  0  0  0  0  0  0
  140.8198   77.6469  220.2797 H   0  0  0  0  0  0  0  0  0  0  0  0
  141.5982   77.2191  223.9785 H   0  0  0  0  0  0  0  0  0  0  0  0
  142.3419   79.5660  224.9750 H   0  0  0  0  0  0  0  0  0  0  0  0
  142.2654   82.1970  223.9341 H   0  0  0  0  0  0  0  0  0  0  0  0
  141.6173   83.5541  221.9432 H   0  0  0  0  0  0  0  0  0  0  0  0
  140.6348   82.4114  219.9737 H   0  0  0  0  0  0  0  0  0  0  0  0
  140.2968   79.9827  219.9657 H   0  0  0  0  0  0  0  0  0  0  0  0
  142.3592   71.3818  219.6966 H   0  0  0  0  0  0  0  0  0  0  0  0
  143.2040   72.5094  218.5557 H   0  0  0  0  0  0  0  0  0  0  0  0
  144.3255   70.6704  220.5401 H   0  0  0  0  0  0  0  0  0  0  0  0
  145.1263   71.5100  219.1918 H   0  0  0  0  0  0  0  0  0  0  0  0
  145.8430   72.2970  221.4750 H   0  0  0  0  0  0  0  0  0  0  0  0
  145.6270   74.5872  221.1264 H   0  0  0  0  0  0  0  0  0  0  0  0
  145.4476   73.9671  219.4628 H   0  0  0  0  0  0  0  0  0  0  0  0
  143.3790   75.0411  221.3564 H   0  0  0  0  0  0  0  0  0  0  0  0
  143.4247   75.0983  219.5697 H   0  0  0  0  0  0  0  0  0  0  0  0
  141.7391   71.5515  224.6075 H   0  0  0  0  0  0  0  0  0  0  0  0
  140.4608   72.5328  225.4742 H   0  0  0  0  0  0  0  0  0  0  0  0
  1  2  2  0
  2  3  1  0
  3  4  2  0
  4  5  1  0
  5  6  2  0
  5  7  1  0
  7  8  1  0
  8  9  1  0
  9 10  1  0
 10 11  2  0
 11 12  1  0
 12 13  1  0
 13 14  1  0
 14 15  1  0
 15 16  1  0
 16 17  1  0
 17 18  1  0
 18 19  2  0
 19 20  1  0
 20 21  2  0
 21 22  1  0
 22 23  2  0
 23 24  1  0
 24 25  2  0
 12 26  2  0
 26 27  1  0
 27 28  1  0
 28 29  1  0
 29 30  1  0
 30 31  1  0
 31 32  1  0
 32 33  1  0
 27 34  2  0
  9 35  1  0
  6  1  1  0
 34 10  1  0
 35  4  1  0
 25 17  1  0
 33 28  1  0
 25 20  1  0
  1 36  1  0
  2 37  1  0
  3 38  1  0
  6 39  1  0
  7 40  1  0
  7 41  1  0
  8 42  1  0
  8 43  1  0
 13 44  1  0
 14 45  1  0
 14 46  1  0
 15 47  1  0
 15 48  1  0
 16 49  1  0
 16 50  1  0
 18 51  1  0
 19 52  1  0
 21 53  1  0
 22 54  1  0
 23 55  1  0
 24 56  1  0
 29 57  1  0
 29 58  1  0
 30 59  1  0
 30 60  1  0
 31 61  1  0
 32 62  1  0
 32 63  1  0
 33 64  1  0
 33 65  1  0
 35 66  1  0
 35 67  1  0
M  END
>  <smiles>  (9) 
c1ccc2c(c1)CCN(c1nc(NCCCn3ccc4ccccc43)nc(N3CCNCC3)n1)C2

>  <score_type>  (9) 
oracle

>  <origin>  (9) 
autodockgpu

>  <m_score__min__energy>  (9) 
-10.76

>  <m_primary>  (9) 
energy

>  <rmsd>  (9) 
3.421829541794393

>  <m_score__min__rmsd>  (9) 
3.421829541794393

>  <meeko>  (9) 
{"free_energy": -9.62, "intermolecular_energy": -11.71, "internal_energy": -1.14, "cluster_size": 44, "cluster_id": 1, "rank_in_cluster": 42}

>  <energy>  (9) 
-10.52

>  <cluster_rmsd>  (9) 
1.68

>  <cluster>  (9) 
1

$$$$

     RDKit          3D

 67 72  0  0  0  0  0  0  0  0999 V2000
  139.9610   68.2620  227.4260 C   0  0  0  0  0  0  0  0  0  0  0  0
  140.6520   69.3630  227.8840 C   0  0  0  0  0  0  0  0  0  0  0  0
  140.8900   70.4130  227.0250 C   0  0  0  0  0  0  0  0  0  0  0  0
  140.4400   70.3630  225.7140 C   0  0  0  0  0  0  0  0  0  0  0  0
  139.7530   69.2510  225.2890 C   0  0  0  0  0  0  0  0  0  0  0  0
  139.4950   68.1750  226.1240 C   0  0  0  0  0  0  0  0  0  0  0  0
  139.2900   69.2450  223.8730 C   0  0  0  0  0  0  0  0  0  0  0  0
  138.7710   70.6400  223.5090 C   0  0  0  0  0  0  0  0  0  0  0  0
  139.8910   71.5750  223.6730 N   0  0  0  0  0  0  0  0  0  0  0  0
  140.1720   72.5500  222.6900 C   0  0  0  0  0  0  0  0  0  0  0  0
  139.3080   73.5220  222.3830 N   0  0  0  0  0  0  0  0  0  0  0  0
  139.5540   74.4710  221.4430 C   0  0  0  0  0  0  0  0  0  0  0  0
  138.6000   75.4790  221.1560 N   0  0  0  0  0  0  0  0  0  0  0  0
  138.8520   76.8920  221.2570 C   0  0  0  0  0  0  0  0  0  0  0  0
  139.3640   77.4220  219.9370 C   0  0  0  0  0  0  0  0  0  0  0  0
  140.8600   77.5310  220.0050 C   0  0  0  0  0  0  0  0  0  0  0  0
  141.2640   78.8380  220.4480 N   0  0  0  0  0  0  0  0  0  0  0  0
  141.4670   79.9680  219.7360 C   0  0  0  0  0  0  0  0  0  0  0  0
  141.8500   80.9920  220.5670 C   0  0  0  0  0  0  0  0  0  0  0  0
  141.8870   80.4800  221.8440 C   0  0  0  0  0  0  0  0  0  0  0  0
  142.2090   81.0820  223.0400 C   0  0  0  0  0  0  0  0  0  0  0  0
  142.1710   80.3420  224.2030 C   0  0  0  0  0  0  0  0  0  0  0  0
  141.8090   79.0130  224.1310 C   0  0  0  0  0  0  0  0  0  0  0  0
  141.4910   78.4270  222.9310 C   0  0  0  0  0  0  0  0  0  0  0  0
  141.5210   79.1450  221.7510 C   0  0  0  0  0  0  0  0  0  0  0  0
  140.7340   74.3890  220.8180 N   0  0  0  0  0  0  0  0  0  0  0  0
  141.6250   73.4230  221.1040 C   0  0  0  0  0  0  0  0  0  0  0  0
  142.8570   73.4080  220.3930 N   0  0  0  0  0  0  0  0  0  0  0  0
  143.2240   72.2680  219.5880 C   0  0  0  0  0  0  0  0  0  0  0  0
  144.5500   71.6830  220.0170 C   0  0  0  0  0  0  0  0  0  0  0  0
  145.1400   72.6130  220.9520 N   0  0  0  0  0  0  0  0  0  0  0  0
  145.2010   73.9590  220.4500 C   0  0  0  0  0  0  0  0  0  0  0  0
  143.7870   74.5180  220.4450 C   0  0  0  0  0  0  0  0  0  0  0  0
  141.3670   72.4920  222.0380 N   0  0  0  0  0  0  0  0  0  0  0  0
  140.7240   71.5110  224.8480 C   0  0  0  0  0  0  0  0  0  0  0  0
  139.7735   67.4259  228.1158 H   0  0  0  0  0  0  0  0  0  0  0  0
  141.0093   69.4027  228.9236 H   0  0  0  0  0  0  0  0  0  0  0  0
  141.4403   71.2965  227.3808 H   0  0  0  0  0  0  0  0  0  0  0  0
  138.9447   67.2913  225.7687 H   0  0  0  0  0  0  0  0  0  0  0  0
  140.1287   68.9801  223.2124 H   0  0  0  0  0  0  0  0  0  0  0  0
  138.4844   68.5062  223.7498 H   0  0  0  0  0  0  0  0  0  0  0  0
  138.4197   70.6515  222.4667 H   0  0  0  0  0  0  0  0  0  0  0  0
  137.9269   70.9239  224.1547 H   0  0  0  0  0  0  0  0  0  0  0  0
  137.6420   75.1770  220.8470 H   0  0  0  0  0  0  0  0  0  0  0  0
  137.9183   77.4106  221.5201 H   0  0  0  0  0  0  0  0  0  0  0  0
  139.6092   77.0688  222.0350 H   0  0  0  0  0  0  0  0  0  0  0  0
  139.0802   76.7335  219.1274 H   0  0  0  0  0  0  0  0  0  0  0  0
  138.9266   78.4113  219.7373 H   0  0  0  0  0  0  0  0  0  0  0  0
  141.2434   76.7784  220.7096 H   0  0  0  0  0  0  0  0  0  0  0  0
  141.2689   77.3614  218.9980 H   0  0  0  0  0  0  0  0  0  0  0  0
  141.3432   80.0554  218.6465 H   0  0  0  0  0  0  0  0  0  0  0  0
  142.0829   82.0249  220.2688 H   0  0  0  0  0  0  0  0  0  0  0  0
  142.4941   82.1441  223.0674 H   0  0  0  0  0  0  0  0  0  0  0  0
  142.4244   80.8026  225.1692 H   0  0  0  0  0  0  0  0  0  0  0  0
  141.7745   78.4119  225.0516 H   0  0  0  0  0  0  0  0  0  0  0  0
  141.2066   77.3646  222.9085 H   0  0  0  0  0  0  0  0  0  0  0  0
  142.4458   71.4969  219.6866 H   0  0  0  0  0  0  0  0  0  0  0  0
  143.3187   72.6021  218.5442 H   0  0  0  0  0  0  0  0  0  0  0  0
  144.3935   70.7081  220.5019 H   0  0  0  0  0  0  0  0  0  0  0  0
  145.2089   71.5272  219.1501 H   0  0  0  0  0  0  0  0  0  0  0  0
  145.9800   72.2730  221.4300 H   0  0  0  0  0  0  0  0  0  0  0  0
  145.8433   74.5718  221.0995 H   0  0  0  0  0  0  0  0  0  0  0  0
  145.6225   73.9713  219.4340 H   0  0  0  0  0  0  0  0  0  0  0  0
  143.6157   75.1037  221.3602 H   0  0  0  0  0  0  0  0  0  0  0  0
  143.6426   75.1734  219.5735 H   0  0  0  0  0  0  0  0  0  0  0  0
  141.7740   71.4506  224.5256 H   0  0  0  0  0  0  0  0  0  0  0  0
  140.5154   72.4159  225.4377 H   0  0  0  0  0  0  0  0  0  0  0  0
  1  2  2  0
  2  3  1  0
  3  4  2  0
  4  5  1  0
  5  6  2  0
  5  7  1  0
  7  8  1  0
  8  9  1  0
  9 10  1  0
 10 11  2  0
 11 12  1  0
 12 13  1  0
 13 14  1  0
 14 15  1  0
 15 16  1  0
 16 17  1  0
 17 18  1  0
 18 19  2  0
 19 20  1  0
 20 21  2  0
 21 22  1  0
 22 23  2  0
 23 24  1  0
 24 25  2  0
 12 26  2  0
 26 27  1  0
 27 28  1  0
 28 29  1  0
 29 30  1  0
 30 31  1  0
 31 32  1  0
 32 33  1  0
 27 34  2  0
  9 35  1  0
  6  1  1  0
 34 10  1  0
 35  4  1  0
 25 17  1  0
 33 28  1  0
 25 20  1  0
  1 36  1  0
  2 37  1  0
  3 38  1  0
  6 39  1  0
  7 40  1  0
  7 41  1  0
  8 42  1  0
  8 43  1  0
 13 44  1  0
 14 45  1  0
 14 46  1  0
 15 47  1  0
 15 48  1  0
 16 49  1  0
 16 50  1  0
 18 51  1  0
 19 52  1  0
 21 53  1  0
 22 54  1  0
 23 55  1  0
 24 56  1  0
 29 57  1  0
 29 58  1  0
 30 59  1  0
 30 60  1  0
 31 61  1  0
 32 62  1  0
 32 63  1  0
 33 64  1  0
 33 65  1  0
 35 66  1  0
 35 67  1  0
M  END
>  <smiles>  (10) 
c1ccc2c(c1)CCN(c1nc(NCCCn3ccc4ccccc43)nc(N3CCNCC3)n1)C2

>  <score_type>  (10) 
oracle

>  <origin>  (10) 
autodockgpu

>  <m_score__min__energy>  (10) 
-10.76

>  <m_primary>  (10) 
energy

>  <rmsd>  (10) 
3.7346454660193262

>  <m_score__min__rmsd>  (10) 
3.7346454660193262

>  <meeko>  (10) 
{"free_energy": -9.86, "intermolecular_energy": -11.95, "internal_energy": -1.26, "cluster_size": 44, "cluster_id": 1, "rank_in_cluster": 29}

>  <energy>  (10) 
-10.47

>  <cluster_rmsd>  (10) 
1.73

>  <cluster>  (10) 
1

$$$$

     RDKit          3D

 67 72  0  0  0  0  0  0  0  0999 V2000
  139.9910   68.4260  227.5280 C   0  0  0  0  0  0  0  0  0  0  0  0
  140.6550   69.5500  227.9700 C   0  0  0  0  0  0  0  0  0  0  0  0
  140.8910   70.5830  227.0890 C   0  0  0  0  0  0  0  0  0  0  0  0
  140.4650   70.4930  225.7730 C   0  0  0  0  0  0  0  0  0  0  0  0
  139.8050   69.3590  225.3630 C   0  0  0  0  0  0  0  0  0  0  0  0
  139.5500   68.3000  226.2200 C   0  0  0  0  0  0  0  0  0  0  0  0
  139.3670   69.3100  223.9400 C   0  0  0  0  0  0  0  0  0  0  0  0
  138.8310   70.6870  223.5330 C   0  0  0  0  0  0  0  0  0  0  0  0
  139.9320   71.6450  223.6930 N   0  0  0  0  0  0  0  0  0  0  0  0
  140.2140   72.6000  222.6910 C   0  0  0  0  0  0  0  0  0  0  0  0
  139.3430   73.5550  222.3520 N   0  0  0  0  0  0  0  0  0  0  0  0
  139.5900   74.4860  221.3930 C   0  0  0  0  0  0  0  0  0  0  0  0
  138.6290   75.4760  221.0720 N   0  0  0  0  0  0  0  0  0  0  0  0
  138.8110   76.8880  221.2840 C   0  0  0  0  0  0  0  0  0  0  0  0
  139.6170   77.4810  220.1500 C   0  0  0  0  0  0  0  0  0  0  0  0
  141.0720   77.4490  220.5190 C   0  0  0  0  0  0  0  0  0  0  0  0
  141.3030   78.1210  221.7690 N   0  0  0  0  0  0  0  0  0  0  0  0
  141.4200   77.6140  223.0150 C   0  0  0  0  0  0  0  0  0  0  0  0
  141.6360   78.6230  223.9210 C   0  0  0  0  0  0  0  0  0  0  0  0
  141.6540   79.8030  223.2130 C   0  0  0  0  0  0  0  0  0  0  0  0
  141.8330   81.1000  223.6400 C   0  0  0  0  0  0  0  0  0  0  0  0
  141.8070   82.1260  222.7180 C   0  0  0  0  0  0  0  0  0  0  0  0
  141.6020   81.8180  221.3900 C   0  0  0  0  0  0  0  0  0  0  0  0
  141.4260   80.5200  220.9790 C   0  0  0  0  0  0  0  0  0  0  0  0
  141.4460   79.4730  221.8810 C   0  0  0  0  0  0  0  0  0  0  0  0
  140.7780   74.4020  220.7830 N   0  0  0  0  0  0  0  0  0  0  0  0
  141.6760   73.4530  221.1010 C   0  0  0  0  0  0  0  0  0  0  0  0
  142.9160   73.4350  220.4060 N   0  0  0  0  0  0  0  0  0  0  0  0
  143.2840   72.2980  219.5950 C   0  0  0  0  0  0  0  0  0  0  0  0
  144.6020   71.7010  220.0340 C   0  0  0  0  0  0  0  0  0  0  0  0
  145.1870   72.6180  220.9850 N   0  0  0  0  0  0  0  0  0  0  0  0
  145.2630   73.9680  220.4940 C   0  0  0  0  0  0  0  0  0  0  0  0
  143.8530   74.5370  220.4770 C   0  0  0  0  0  0  0  0  0  0  0  0
  141.4170   72.5400  222.0540 N   0  0  0  0  0  0  0  0  0  0  0  0
  140.7450   71.6240  224.8830 C   0  0  0  0  0  0  0  0  0  0  0  0
  139.8054   67.6039  228.2348 H   0  0  0  0  0  0  0  0  0  0  0  0
  140.9928   69.6217  229.0144 H   0  0  0  0  0  0  0  0  0  0  0  0
  141.4205   71.4841  227.4320 H   0  0  0  0  0  0  0  0  0  0  0  0
  139.0207   67.3988  225.8771 H   0  0  0  0  0  0  0  0  0  0  0  0
  140.2214   69.0435  223.3005 H   0  0  0  0  0  0  0  0  0  0  0  0
  138.5764   68.5545  223.8212 H   0  0  0  0  0  0  0  0  0  0  0  0
  138.4978   70.6672  222.4849 H   0  0  0  0  0  0  0  0  0  0  0  0
  137.9712   70.9719  224.1572 H   0  0  0  0  0  0  0  0  0  0  0  0
  137.7200   75.1620  220.6500 H   0  0  0  0  0  0  0  0  0  0  0  0
  137.8279   77.3795  221.3283 H   0  0  0  0  0  0  0  0  0  0  0  0
  139.3492   77.0449  222.2304 H   0  0  0  0  0  0  0  0  0  0  0  0
  139.4551   76.8926  219.2348 H   0  0  0  0  0  0  0  0  0  0  0  0
  139.3006   78.5192  219.9709 H   0  0  0  0  0  0  0  0  0  0  0  0
  141.3972   76.4020  220.6083 H   0  0  0  0  0  0  0  0  0  0  0  0
  141.6435   77.9652  219.7335 H   0  0  0  0  0  0  0  0  0  0  0  0
  141.3520   76.5457  223.2680 H   0  0  0  0  0  0  0  0  0  0  0  0
  141.7694   78.5096  225.0070 H   0  0  0  0  0  0  0  0  0  0  0  0
  141.9952   81.3159  224.7063 H   0  0  0  0  0  0  0  0  0  0  0  0
  141.9471   83.1696  223.0364 H   0  0  0  0  0  0  0  0  0  0  0  0
  141.5790   82.6276  220.6456 H   0  0  0  0  0  0  0  0  0  0  0  0
  141.2660   80.3092  219.9113 H   0  0  0  0  0  0  0  0  0  0  0  0
  142.4997   71.5313  219.6792 H   0  0  0  0  0  0  0  0  0  0  0  0
  143.3917   72.6392  218.5548 H   0  0  0  0  0  0  0  0  0  0  0  0
  144.4341   70.7224  220.5074 H   0  0  0  0  0  0  0  0  0  0  0  0
  145.2700   71.5502  219.1732 H   0  0  0  0  0  0  0  0  0  0  0  0
  146.0190   72.2680  221.4690 H   0  0  0  0  0  0  0  0  0  0  0  0
  145.9019   74.5713  221.1557 H   0  0  0  0  0  0  0  0  0  0  0  0
  145.6963   73.9851  219.4831 H   0  0  0  0  0  0  0  0  0  0  0  0
  143.6754   75.1171  221.3946 H   0  0  0  0  0  0  0  0  0  0  0  0
  143.7234   75.1997  219.6087 H   0  0  0  0  0  0  0  0  0  0  0  0
  141.8013   71.5734  224.5801 H   0  0  0  0  0  0  0  0  0  0  0  0
  140.5110   72.5395  225.4462 H   0  0  0  0  0  0  0  0  0  0  0  0
  1  2  2  0
  2  3  1  0
  3  4  2  0
  4  5  1  0
  5  6  2  0
  5  7  1  0
  7  8  1  0
  8  9  1  0
  9 10  1  0
 10 11  2  0
 11 12  1  0
 12 13  1  0
 13 14  1  0
 14 15  1  0
 15 16  1  0
 16 17  1  0
 17 18  1  0
 18 19  2  0
 19 20  1  0
 20 21  2  0
 21 22  1  0
 22 23  2  0
 23 24  1  0
 24 25  2  0
 12 26  2  0
 26 27  1  0
 27 28  1  0
 28 29  1  0
 29 30  1  0
 30 31  1  0
 31 32  1  0
 32 33  1  0
 27 34  2  0
  9 35  1  0
  6  1  1  0
 34 10  1  0
 35  4  1  0
 25 17  1  0
 33 28  1  0
 25 20  1  0
  1 36  1  0
  2 37  1  0
  3 38  1  0
  6 39  1  0
  7 40  1  0
  7 41  1  0
  8 42  1  0
  8 43  1  0
 13 44  1  0
 14 45  1  0
 14 46  1  0
 15 47  1  0
 15 48  1  0
 16 49  1  0
 16 50  1  0
 18 51  1  0
 19 52  1  0
 21 53  1  0
 22 54  1  0
 23 55  1  0
 24 56  1  0
 29 57  1  0
 29 58  1  0
 30 59  1  0
 30 60  1  0
 31 61  1  0
 32 62  1  0
 32 63  1  0
 33 64  1  0
 33 65  1  0
 35 66  1  0
 35 67  1  0
M  END
>  <smiles>  (11) 
c1ccc2c(c1)CCN(c1nc(NCCCn3ccc4ccccc43)nc(N3CCNCC3)n1)C2

>  <score_type>  (11) 
oracle

>  <origin>  (11) 
autodockgpu

>  <m_score__min__energy>  (11) 
-10.76

>  <m_primary>  (11) 
energy

>  <rmsd>  (11) 
3.6404532295613334

>  <m_score__min__rmsd>  (11) 
3.6404532295613334

>  <meeko>  (11) 
{"free_energy": -9.79, "intermolecular_energy": -11.88, "internal_energy": -1.3, "cluster_size": 44, "cluster_id": 1, "rank_in_cluster": 32}

>  <energy>  (11) 
-10.47

>  <cluster_rmsd>  (11) 
1.73

>  <cluster>  (11) 
1

$$$$

     RDKit          3D

 67 72  0  0  0  0  0  0  0  0999 V2000
  139.9110   68.2860  227.4000 C   0  0  0  0  0  0  0  0  0  0  0  0
  140.6100   69.3810  227.8610 C   0  0  0  0  0  0  0  0  0  0  0  0
  140.8650   70.4260  227.0020 C   0  0  0  0  0  0  0  0  0  0  0  0
  140.4250   70.3790  225.6870 C   0  0  0  0  0  0  0  0  0  0  0  0
  139.7310   69.2720  225.2580 C   0  0  0  0  0  0  0  0  0  0  0  0
  139.4550   68.2010  226.0930 C   0  0  0  0  0  0  0  0  0  0  0  0
  139.2800   69.2680  223.8380 C   0  0  0  0  0  0  0  0  0  0  0  0
  138.7780   70.6680  223.4680 C   0  0  0  0  0  0  0  0  0  0  0  0
  139.9060   71.5920  223.6390 N   0  0  0  0  0  0  0  0  0  0  0  0
  140.2060   72.5620  222.6570 C   0  0  0  0  0  0  0  0  0  0  0  0
  139.3540   73.5430  222.3420 N   0  0  0  0  0  0  0  0  0  0  0  0
  139.6180   74.4880  221.4020 C   0  0  0  0  0  0  0  0  0  0  0  0
  138.6780   75.5050  221.1060 N   0  0  0  0  0  0  0  0  0  0  0  0
  138.9600   76.9160  221.1580 C   0  0  0  0  0  0  0  0  0  0  0  0
  139.5540   77.2760  222.5000 C   0  0  0  0  0  0  0  0  0  0  0  0
  141.0410   77.4160  222.3530 C   0  0  0  0  0  0  0  0  0  0  0  0
  141.4810   78.7230  222.7580 N   0  0  0  0  0  0  0  0  0  0  0  0
  142.1030   79.1140  223.8920 C   0  0  0  0  0  0  0  0  0  0  0  0
  142.3380   80.4670  223.8630 C   0  0  0  0  0  0  0  0  0  0  0  0
  141.8430   80.9360  222.6670 C   0  0  0  0  0  0  0  0  0  0  0  0
  141.8240   82.2100  222.1460 C   0  0  0  0  0  0  0  0  0  0  0  0
  141.2600   82.4260  220.9050 C   0  0  0  0  0  0  0  0  0  0  0  0
  140.7320   81.3510  220.2220 C   0  0  0  0  0  0  0  0  0  0  0  0
  140.7580   80.0860  220.7550 C   0  0  0  0  0  0  0  0  0  0  0  0
  141.3160   79.8420  221.9960 C   0  0  0  0  0  0  0  0  0  0  0  0
  140.8020   74.3900  220.7850 N   0  0  0  0  0  0  0  0  0  0  0  0
  141.6800   73.4150  221.0790 C   0  0  0  0  0  0  0  0  0  0  0  0
  142.9160   73.3850  220.3780 N   0  0  0  0  0  0  0  0  0  0  0  0
  143.2720   72.2420  219.5710 C   0  0  0  0  0  0  0  0  0  0  0  0
  144.5880   71.6370  220.0080 C   0  0  0  0  0  0  0  0  0  0  0  0
  145.1840   72.5550  220.9510 N   0  0  0  0  0  0  0  0  0  0  0  0
  145.2670   73.9020  220.4530 C   0  0  0  0  0  0  0  0  0  0  0  0
  143.8620   74.4810  220.4390 C   0  0  0  0  0  0  0  0  0  0  0  0
  141.4040   72.4880  222.0130 N   0  0  0  0  0  0  0  0  0  0  0  0
  140.7280   71.5220  224.8210 C   0  0  0  0  0  0  0  0  0  0  0  0
  139.7086   67.4538  228.0902 H   0  0  0  0  0  0  0  0  0  0  0  0
  140.9600   69.4193  228.9031 H   0  0  0  0  0  0  0  0  0  0  0  0
  141.4215   71.3045  227.3606 H   0  0  0  0  0  0  0  0  0  0  0  0
  138.8987   67.3222  225.7349 H   0  0  0  0  0  0  0  0  0  0  0  0
  140.1216   68.9938  223.1849 H   0  0  0  0  0  0  0  0  0  0  0  0
  138.4684   68.5368  223.7087 H   0  0  0  0  0  0  0  0  0  0  0  0
  138.4347   70.6815  222.4230 H   0  0  0  0  0  0  0  0  0  0  0  0
  137.9321   70.9614  224.1070 H   0  0  0  0  0  0  0  0  0  0  0  0
  137.7070   75.2150  220.8290 H   0  0  0  0  0  0  0  0  0  0  0  0
  139.6745   77.1741  220.3625 H   0  0  0  0  0  0  0  0  0  0  0  0
  138.0242   77.4764  221.0157 H   0  0  0  0  0  0  0  0  0  0  0  0
  139.1265   78.2274  222.8495 H   0  0  0  0  0  0  0  0  0  0  0  0
  139.3250   76.4875  223.2320 H   0  0  0  0  0  0  0  0  0  0  0  0
  141.5366   76.6600  222.9798 H   0  0  0  0  0  0  0  0  0  0  0  0
  141.3021   77.2724  221.2941 H   0  0  0  0  0  0  0  0  0  0  0  0
  142.3812   78.4449  224.7196 H   0  0  0  0  0  0  0  0  0  0  0  0
  142.8286   81.0628  224.6468 H   0  0  0  0  0  0  0  0  0  0  0  0
  142.2544   83.0482  222.7136 H   0  0  0  0  0  0  0  0  0  0  0  0
  141.2323   83.4357  220.4695 H   0  0  0  0  0  0  0  0  0  0  0  0
  140.2813   81.5099  219.2312 H   0  0  0  0  0  0  0  0  0  0  0  0
  140.3266   79.2508  220.1837 H   0  0  0  0  0  0  0  0  0  0  0  0
  142.4824   71.4816  219.6618 H   0  0  0  0  0  0  0  0  0  0  0  0
  143.3779   72.5775  218.5288 H   0  0  0  0  0  0  0  0  0  0  0  0
  144.4146   70.6625  220.4879 H   0  0  0  0  0  0  0  0  0  0  0  0
  145.2511   71.4759  219.1452 H   0  0  0  0  0  0  0  0  0  0  0  0
  146.0150   72.2020  221.4330 H   0  0  0  0  0  0  0  0  0  0  0  0
  145.9130   74.5040  221.1089 H   0  0  0  0  0  0  0  0  0  0  0  0
  145.6957   73.9108  219.4400 H   0  0  0  0  0  0  0  0  0  0  0  0
  143.6927   75.0673  221.3542 H   0  0  0  0  0  0  0  0  0  0  0  0
  143.7335   75.1400  219.5676 H   0  0  0  0  0  0  0  0  0  0  0  0
  141.7800   71.4502  224.5078 H   0  0  0  0  0  0  0  0  0  0  0  0
  140.5235   72.4302  225.4070 H   0  0  0  0  0  0  0  0  0  0  0  0
  1  2  2  0
  2  3  1  0
  3  4  2  0
  4  5  1  0
  5  6  2  0
  5  7  1  0
  7  8  1  0
  8  9  1  0
  9 10  1  0
 10 11  2  0
 11 12  1  0
 12 13  1  0
 13 14  1  0
 14 15  1  0
 15 16  1  0
 16 17  1  0
 17 18  1  0
 18 19  2  0
 19 20  1  0
 20 21  2  0
 21 22  1  0
 22 23  2  0
 23 24  1  0
 24 25  2  0
 12 26  2  0
 26 27  1  0
 27 28  1  0
 28 29  1  0
 29 30  1  0
 30 31  1  0
 31 32  1  0
 32 33  1  0
 27 34  2  0
  9 35  1  0
  6  1  1  0
 34 10  1  0
 35  4  1  0
 25 17  1  0
 33 28  1  0
 25 20  1  0
  1 36  1  0
  2 37  1  0
  3 38  1  0
  6 39  1  0
  7 40  1  0
  7 41  1  0
  8 42  1  0
  8 43  1  0
 13 44  1  0
 14 45  1  0
 14 46  1  0
 15 47  1  0
 15 48  1  0
 16 49  1  0
 16 50  1  0
 18 51  1  0
 19 52  1  0
 21 53  1  0
 22 54  1  0
 23 55  1  0
 24 56  1  0
 29 57  1  0
 29 58  1  0
 30 59  1  0
 30 60  1  0
 31 61  1  0
 32 62  1  0
 32 63  1  0
 33 64  1  0
 33 65  1  0
 35 66  1  0
 35 67  1  0
M  END
>  <smiles>  (12) 
c1ccc2c(c1)CCN(c1nc(NCCCn3ccc4ccccc43)nc(N3CCNCC3)n1)C2

>  <score_type>  (12) 
oracle

>  <origin>  (12) 
autodockgpu

>  <m_score__min__energy>  (12) 
-10.76

>  <m_primary>  (12) 
energy

>  <rmsd>  (12) 
3.3546396309535176

>  <m_score__min__rmsd>  (12) 
3.3546396309535176

>  <meeko>  (12) 
{"free_energy": -9.96, "intermolecular_energy": -12.05, "internal_energy": -1.14, "cluster_size": 44, "cluster_id": 1, "rank_in_cluster": 25}

>  <energy>  (12) 
-10.46

>  <cluster_rmsd>  (12) 
1.41

>  <cluster>  (12) 
1

$$$$

     RDKit          3D

 67 72  0  0  0  0  0  0  0  0999 V2000
  141.7940   81.9790  221.7400 C   0  0  0  0  0  0  0  0  0  0  0  0
  141.6070   81.6590  220.4120 C   0  0  0  0  0  0  0  0  0  0  0  0
  141.4850   80.3360  220.0500 C   0  0  0  0  0  0  0  0  0  0  0  0
  141.5490   79.3370  221.0100 C   0  0  0  0  0  0  0  0  0  0  0  0
  141.7360   79.6890  222.3250 C   0  0  0  0  0  0  0  0  0  0  0  0
  141.8630   81.0100  222.7270 C   0  0  0  0  0  0  0  0  0  0  0  0
  141.7980   78.5810  223.3190 C   0  0  0  0  0  0  0  0  0  0  0  0
  140.7460   77.5260  222.9590 C   0  0  0  0  0  0  0  0  0  0  0  0
  141.0740   77.0260  221.6190 N   0  0  0  0  0  0  0  0  0  0  0  0
  141.0630   75.6410  221.3380 C   0  0  0  0  0  0  0  0  0  0  0  0
  139.9900   74.8780  221.5620 N   0  0  0  0  0  0  0  0  0  0  0  0
  139.9540   73.5450  221.3010 C   0  0  0  0  0  0  0  0  0  0  0  0
  138.7880   72.7820  221.5590 N   0  0  0  0  0  0  0  0  0  0  0  0
  138.6180   71.9140  222.6950 C   0  0  0  0  0  0  0  0  0  0  0  0
  139.6090   70.7750  222.6300 C   0  0  0  0  0  0  0  0  0  0  0  0
  139.4110   69.8890  223.8260 C   0  0  0  0  0  0  0  0  0  0  0  0
  140.0610   70.4350  224.9870 N   0  0  0  0  0  0  0  0  0  0  0  0
  140.5920   71.6610  225.1850 C   0  0  0  0  0  0  0  0  0  0  0  0
  141.1160   71.7540  226.4500 C   0  0  0  0  0  0  0  0  0  0  0  0
  140.9040   70.5400  227.0640 C   0  0  0  0  0  0  0  0  0  0  0  0
  141.2340   70.1070  228.3280 C   0  0  0  0  0  0  0  0  0  0  0  0
  140.9070   68.8230  228.7120 C   0  0  0  0  0  0  0  0  0  0  0  0
  140.2560   68.0080  227.8100 C   0  0  0  0  0  0  0  0  0  0  0  0
  139.9330   68.4540  226.5520 C   0  0  0  0  0  0  0  0  0  0  0  0
  140.2490   69.7360  226.1420 C   0  0  0  0  0  0  0  0  0  0  0  0
  141.0730   73.0130  220.7960 N   0  0  0  0  0  0  0  0  0  0  0  0
  142.1700   73.7540  220.5590 C   0  0  0  0  0  0  0  0  0  0  0  0
  143.3170   73.1110  220.0200 N   0  0  0  0  0  0  0  0  0  0  0  0
  144.1780   72.3190  220.8670 C   0  0  0  0  0  0  0  0  0  0  0  0
  145.6060   72.8140  220.8330 C   0  0  0  0  0  0  0  0  0  0  0  0
  145.6920   73.7870  219.7680 N   0  0  0  0  0  0  0  0  0  0  0  0
  145.1870   73.2970  218.5140 C   0  0  0  0  0  0  0  0  0  0  0  0
  143.6720   73.2200  218.6200 C   0  0  0  0  0  0  0  0  0  0  0  0
  142.1890   75.0730  220.8220 N   0  0  0  0  0  0  0  0  0  0  0  0
  141.4130   77.9470  220.5630 C   0  0  0  0  0  0  0  0  0  0  0  0
  141.8915   83.0371  222.0245 H   0  0  0  0  0  0  0  0  0  0  0  0
  141.5558   82.4512  219.6506 H   0  0  0  0  0  0  0  0  0  0  0  0
  141.3359   80.0699  218.9931 H   0  0  0  0  0  0  0  0  0  0  0  0
  142.0121   81.2766  223.7837 H   0  0  0  0  0  0  0  0  0  0  0  0
  142.7988   78.1248  223.3004 H   0  0  0  0  0  0  0  0  0  0  0  0
  141.5987   78.9749  224.3265 H   0  0  0  0  0  0  0  0  0  0  0  0
  140.7749   76.7014  223.6865 H   0  0  0  0  0  0  0  0  0  0  0  0
  139.7354   77.9601  222.9773 H   0  0  0  0  0  0  0  0  0  0  0  0
  137.9920   72.8510  220.8780 H   0  0  0  0  0  0  0  0  0  0  0  0
  138.7827   72.4875  223.6191 H   0  0  0  0  0  0  0  0  0  0  0  0
  137.5971   71.5045  222.6861 H   0  0  0  0  0  0  0  0  0  0  0  0
  139.4452   70.1951  221.7097 H   0  0  0  0  0  0  0  0  0  0  0  0
  140.6345   71.1730  222.6268 H   0  0  0  0  0  0  0  0  0  0  0  0
  138.3340   69.7938  224.0285 H   0  0  0  0  0  0  0  0  0  0  0  0
  139.8515   68.9047  223.6089 H   0  0  0  0  0  0  0  0  0  0  0  0
  140.6029   72.4693  224.4390 H   0  0  0  0  0  0  0  0  0  0  0  0
  141.6115   72.6320  226.8900 H   0  0  0  0  0  0  0  0  0  0  0  0
  141.7542   70.7792  229.0263 H   0  0  0  0  0  0  0  0  0  0  0  0
  141.1605   68.4565  229.7177 H   0  0  0  0  0  0  0  0  0  0  0  0
  139.9905   66.9817  228.1036 H   0  0  0  0  0  0  0  0  0  0  0  0
  139.4128   67.7783  225.8572 H   0  0  0  0  0  0  0  0  0  0  0  0
  143.8070   72.3719  221.9012 H   0  0  0  0  0  0  0  0  0  0  0  0
  144.1654   71.2836  220.4958 H   0  0  0  0  0  0  0  0  0  0  0  0
  145.8663   73.2820  221.7938 H   0  0  0  0  0  0  0  0  0  0  0  0
  146.3052   71.9823  220.6615 H   0  0  0  0  0  0  0  0  0  0  0  0
  146.5740   74.3070  219.7250 H   0  0  0  0  0  0  0  0  0  0  0  0
  145.4708   73.9834  217.7026 H   0  0  0  0  0  0  0  0  0  0  0  0
  145.6071   72.3048  218.2924 H   0  0  0  0  0  0  0  0  0  0  0  0
  143.2229   74.1286  218.1924 H   0  0  0  0  0  0  0  0  0  0  0  0
  143.2981   72.3464  218.0660 H   0  0  0  0  0  0  0  0  0  0  0  0
  142.3688   77.6301  220.1202 H   0  0  0  0  0  0  0  0  0  0  0  0
  140.5848   77.9231  219.8394 H   0  0  0  0  0  0  0  0  0  0  0  0
  1  2  2  0
  2  3  1  0
  3  4  2  0
  4  5  1  0
  5  6  2  0
  5  7  1  0
  7  8  1  0
  8  9  1  0
  9 10  1  0
 10 11  2  0
 11 12  1  0
 12 13  1  0
 13 14  1  0
 14 15  1  0
 15 16  1  0
 16 17  1  0
 17 18  1  0
 18 19  2  0
 19 20  1  0
 20 21  2  0
 21 22  1  0
 22 23  2  0
 23 24  1  0
 24 25  2  0
 12 26  2  0
 26 27  1  0
 27 28  1  0
 28 29  1  0
 29 30  1  0
 30 31  1  0
 31 32  1  0
 32 33  1  0
 27 34  2  0
  9 35  1  0
  6  1  1  0
 34 10  1  0
 35  4  1  0
 25 17  1  0
 33 28  1  0
 25 20  1  0
  1 36  1  0
  2 37  1  0
  3 38  1  0
  6 39  1  0
  7 40  1  0
  7 41  1  0
  8 42  1  0
  8 43  1  0
 13 44  1  0
 14 45  1  0
 14 46  1  0
 15 47  1  0
 15 48  1  0
 16 49  1  0
 16 50  1  0
 18 51  1  0
 19 52  1  0
 21 53  1  0
 22 54  1  0
 23 55  1  0
 24 56  1  0
 29 57  1  0
 29 58  1  0
 30 59  1  0
 30 60  1  0
 31 61  1  0
 32 62  1  0
 32 63  1  0
 33 64  1  0
 33 65  1  0
 35 66  1  0
 35 67  1  0
M  END
>  <smiles>  (13) 
c1ccc2c(c1)CCN(c1nc(NCCCn3ccc4ccccc43)nc(N3CCNCC3)n1)C2

>  <score_type>  (13) 
oracle

>  <origin>  (13) 
autodockgpu

>  <m_score__min__energy>  (13) 
-10.76

>  <m_primary>  (13) 
energy

>  <rmsd>  (13) 
11.600484926582789

>  <m_score__min__rmsd>  (13) 
11.600484926582789

>  <meeko>  (13) 
{"free_energy": -9.79, "intermolecular_energy": -11.87, "internal_energy": -1.01, "cluster_size": 44, "cluster_id": 1, "rank_in_cluster": 33}

>  <energy>  (13) 
-10.42

>  <cluster_rmsd>  (13) 
1.44

>  <cluster>  (13) 
1

$$$$

     RDKit          3D

 67 72  0  0  0  0  0  0  0  0999 V2000
  141.5590   81.3940  221.0540 C   0  0  0  0  0  0  0  0  0  0  0  0
  141.7430   80.9000  219.7800 C   0  0  0  0  0  0  0  0  0  0  0  0
  141.8180   79.5380  219.5920 C   0  0  0  0  0  0  0  0  0  0  0  0
  141.7110   78.6730  220.6710 C   0  0  0  0  0  0  0  0  0  0  0  0
  141.5280   79.1980  221.9280 C   0  0  0  0  0  0  0  0  0  0  0  0
  141.4480   80.5620  222.1570 C   0  0  0  0  0  0  0  0  0  0  0  0
  141.4190   78.2280  223.0540 C   0  0  0  0  0  0  0  0  0  0  0  0
  140.5770   77.0300  222.6040 C   0  0  0  0  0  0  0  0  0  0  0  0
  141.2730   76.4120  221.4690 N   0  0  0  0  0  0  0  0  0  0  0  0
  141.4410   75.0120  221.3940 C   0  0  0  0  0  0  0  0  0  0  0  0
  140.4580   74.1600  221.7040 N   0  0  0  0  0  0  0  0  0  0  0  0
  140.5930   72.8100  221.6410 C   0  0  0  0  0  0  0  0  0  0  0  0
  139.5190   71.9520  221.9830 N   0  0  0  0  0  0  0  0  0  0  0  0
  139.5560   70.5170  221.8770 C   0  0  0  0  0  0  0  0  0  0  0  0
  139.3980   69.8930  223.2450 C   0  0  0  0  0  0  0  0  0  0  0  0
  139.0060   70.9620  224.2240 C   0  0  0  0  0  0  0  0  0  0  0  0
  139.8710   70.9550  225.3720 N   0  0  0  0  0  0  0  0  0  0  0  0
  140.7370   71.8960  225.8090 C   0  0  0  0  0  0  0  0  0  0  0  0
  141.3650   71.4700  226.9530 C   0  0  0  0  0  0  0  0  0  0  0  0
  140.8730   70.2170  227.2400 C   0  0  0  0  0  0  0  0  0  0  0  0
  141.1690   69.3540  228.2720 C   0  0  0  0  0  0  0  0  0  0  0  0
  140.5290   68.1340  228.3390 C   0  0  0  0  0  0  0  0  0  0  0  0
  139.6070   67.8150  227.3650 C   0  0  0  0  0  0  0  0  0  0  0  0
  139.3220   68.6860  226.3420 C   0  0  0  0  0  0  0  0  0  0  0  0
  139.9490   69.9150  226.2500 C   0  0  0  0  0  0  0  0  0  0  0  0
  141.7880   72.3550  221.2440 N   0  0  0  0  0  0  0  0  0  0  0  0
  142.7960   73.1860  220.9260 C   0  0  0  0  0  0  0  0  0  0  0  0
  144.0330   72.6200  220.5130 N   0  0  0  0  0  0  0  0  0  0  0  0
  145.2580   72.9590  221.1980 C   0  0  0  0  0  0  0  0  0  0  0  0
  146.2870   73.5350  220.2520 C   0  0  0  0  0  0  0  0  0  0  0  0
  145.7880   73.3380  218.9110 N   0  0  0  0  0  0  0  0  0  0  0  0
  145.4080   71.9770  218.6430 C   0  0  0  0  0  0  0  0  0  0  0  0
  144.1220   71.6940  219.4020 C   0  0  0  0  0  0  0  0  0  0  0  0
  142.6460   74.5200  220.9930 N   0  0  0  0  0  0  0  0  0  0  0  0
  141.8000   77.2330  220.4070 C   0  0  0  0  0  0  0  0  0  0  0  0
  141.4984   82.4826  221.1996 H   0  0  0  0  0  0  0  0  0  0  0  0
  141.8288   81.5856  218.9241 H   0  0  0  0  0  0  0  0  0  0  0  0
  141.9637   79.1333  218.5796 H   0  0  0  0  0  0  0  0  0  0  0  0
  141.3028   80.9668  223.1694 H   0  0  0  0  0  0  0  0  0  0  0  0
  142.4233   77.8846  223.3428 H   0  0  0  0  0  0  0  0  0  0  0  0
  140.9403   78.7142  223.9168 H   0  0  0  0  0  0  0  0  0  0  0  0
  140.4814   76.3062  223.4268 H   0  0  0  0  0  0  0  0  0  0  0  0
  139.5655   77.3506  222.3141 H   0  0  0  0  0  0  0  0  0  0  0  0
  138.6330   72.3900  222.3390 H   0  0  0  0  0  0  0  0  0  0  0  0
  138.7368   70.1787  221.2255 H   0  0  0  0  0  0  0  0  0  0  0  0
  140.5227   70.2114  221.4503 H   0  0  0  0  0  0  0  0  0  0  0  0
  138.6167   69.1195  223.2102 H   0  0  0  0  0  0  0  0  0  0  0  0
  140.3468   69.4317  223.5564 H   0  0  0  0  0  0  0  0  0  0  0  0
  139.0720   71.9428  223.7304 H   0  0  0  0  0  0  0  0  0  0  0  0
  137.9771   70.7670  224.5607 H   0  0  0  0  0  0  0  0  0  0  0  0
  140.9134   72.8646  225.3183 H   0  0  0  0  0  0  0  0  0  0  0  0
  142.1187   72.0250  227.5309 H   0  0  0  0  0  0  0  0  0  0  0  0
  141.9090   69.6352  229.0357 H   0  0  0  0  0  0  0  0  0  0  0  0
  140.7501   67.4291  229.1540 H   0  0  0  0  0  0  0  0  0  0  0  0
  139.0900   66.8450  227.4080 H   0  0  0  0  0  0  0  0  0  0  0  0
  138.5807   68.4004  225.5812 H   0  0  0  0  0  0  0  0  0  0  0  0
  145.0361   73.7017  221.9785 H   0  0  0  0  0  0  0  0  0  0  0  0
  145.6720   72.0386  221.6357 H   0  0  0  0  0  0  0  0  0  0  0  0
  146.4228   74.6084  220.4502 H   0  0  0  0  0  0  0  0  0  0  0  0
  147.2607   73.0405  220.3841 H   0  0  0  0  0  0  0  0  0  0  0  0
  146.3230   73.8080  218.1750 H   0  0  0  0  0  0  0  0  0  0  0  0
  145.2432   71.8403  217.5640 H   0  0  0  0  0  0  0  0  0  0  0  0
  146.2023   71.2868  218.9634 H   0  0  0  0  0  0  0  0  0  0  0  0
  143.2587   71.8310  218.7342 H   0  0  0  0  0  0  0  0  0  0  0  0
  144.1221   70.6583  219.7725 H   0  0  0  0  0  0  0  0  0  0  0  0
  142.8585   76.9723  220.2601 H   0  0  0  0  0  0  0  0  0  0  0  0
  141.1888   77.0330  219.5146 H   0  0  0  0  0  0  0  0  0  0  0  0
  1  2  2  0
  2  3  1  0
  3  4  2  0
  4  5  1  0
  5  6  2  0
  5  7  1  0
  7  8  1  0
  8  9  1  0
  9 10  1  0
 10 11  2  0
 11 12  1  0
 12 13  1  0
 13 14  1  0
 14 15  1  0
 15 16  1  0
 16 17  1  0
 17 18  1  0
 18 19  2  0
 19 20  1  0
 20 21  2  0
 21 22  1  0
 22 23  2  0
 23 24  1  0
 24 25  2  0
 12 26  2  0
 26 27  1  0
 27 28  1  0
 28 29  1  0
 29 30  1  0
 30 31  1  0
 31 32  1  0
 32 33  1  0
 27 34  2  0
  9 35  1  0
  6  1  1  0
 34 10  1  0
 35  4  1  0
 25 17  1  0
 33 28  1  0
 25 20  1  0
  1 36  1  0
  2 37  1  0
  3 38  1  0
  6 39  1  0
  7 40  1  0
  7 41  1  0
  8 42  1  0
  8 43  1  0
 13 44  1  0
 14 45  1  0
 14 46  1  0
 15 47  1  0
 15 48  1  0
 16 49  1  0
 16 50  1  0
 18 51  1  0
 19 52  1  0
 21 53  1  0
 22 54  1  0
 23 55  1  0
 24 56  1  0
 29 57  1  0
 29 58  1  0
 30 59  1  0
 30 60  1  0
 31 61  1  0
 32 62  1  0
 32 63  1  0
 33 64  1  0
 33 65  1  0
 35 66  1  0
 35 67  1  0
M  END
>  <smiles>  (14) 
c1ccc2c(c1)CCN(c1nc(NCCCn3ccc4ccccc43)nc(N3CCNCC3)n1)C2

>  <score_type>  (14) 
oracle

>  <origin>  (14) 
autodockgpu

>  <m_score__min__energy>  (14) 
-10.76

>  <m_primary>  (14) 
energy

>  <rmsd>  (14) 
11.837458478608605

>  <m_score__min__rmsd>  (14) 
11.837458478608605

>  <meeko>  (14) 
{"free_energy": -10.35, "intermolecular_energy": -12.44, "internal_energy": -1.05, "cluster_size": 44, "cluster_id": 1, "rank_in_cluster": 16}

>  <energy>  (14) 
-10.35

>  <cluster_rmsd>  (14) 
0.93

>  <cluster>  (14) 
1

$$$$

     RDKit          3D

 67 72  0  0  0  0  0  0  0  0999 V2000
  139.4240   80.9780  224.0120 C   0  0  0  0  0  0  0  0  0  0  0  0
  140.7750   80.8450  223.7730 C   0  0  0  0  0  0  0  0  0  0  0  0
  141.2480   79.6770  223.2180 C   0  0  0  0  0  0  0  0  0  0  0  0
  140.3760   78.6450  222.9040 C   0  0  0  0  0  0  0  0  0  0  0  0
  139.0340   78.8090  223.1540 C   0  0  0  0  0  0  0  0  0  0  0  0
  138.5210   79.9700  223.7120 C   0  0  0  0  0  0  0  0  0  0  0  0
  138.1380   77.6730  222.7990 C   0  0  0  0  0  0  0  0  0  0  0  0
  138.5910   77.0760  221.4630 C   0  0  0  0  0  0  0  0  0  0  0  0
  139.9670   76.5980  221.6450 N   0  0  0  0  0  0  0  0  0  0  0  0
  140.3650   75.3280  221.1720 C   0  0  0  0  0  0  0  0  0  0  0  0
  139.5080   74.3080  221.0680 N   0  0  0  0  0  0  0  0  0  0  0  0
  139.8640   73.0770  220.6160 C   0  0  0  0  0  0  0  0  0  0  0  0
  138.9150   72.0290  220.5280 N   0  0  0  0  0  0  0  0  0  0  0  0
  138.8190   70.9350  221.4590 C   0  0  0  0  0  0  0  0  0  0  0  0
  139.9490   71.0090  222.4610 C   0  0  0  0  0  0  0  0  0  0  0  0
  139.6400   70.0940  223.6100 C   0  0  0  0  0  0  0  0  0  0  0  0
  140.1860   70.6030  224.8390 N   0  0  0  0  0  0  0  0  0  0  0  0
  140.6920   71.8240  225.1200 C   0  0  0  0  0  0  0  0  0  0  0  0
  141.1060   71.8770  226.4280 C   0  0  0  0  0  0  0  0  0  0  0  0
  140.8500   70.6430  226.9820 C   0  0  0  0  0  0  0  0  0  0  0  0
  141.0750   70.1700  228.2550 C   0  0  0  0  0  0  0  0  0  0  0  0
  140.7240   68.8740  228.5680 C   0  0  0  0  0  0  0  0  0  0  0  0
  140.1560   68.0860  227.5890 C   0  0  0  0  0  0  0  0  0  0  0  0
  139.9380   68.5720  226.3230 C   0  0  0  0  0  0  0  0  0  0  0  0
  140.2800   69.8680  225.9830 C   0  0  0  0  0  0  0  0  0  0  0  0
  141.1480   72.9250  220.2700 N   0  0  0  0  0  0  0  0  0  0  0  0
  142.0340   73.9320  220.3630 C   0  0  0  0  0  0  0  0  0  0  0  0
  143.3790   73.6870  219.9740 N   0  0  0  0  0  0  0  0  0  0  0  0
  143.7420   72.4440  219.3350 C   0  0  0  0  0  0  0  0  0  0  0  0
  144.8250   71.7180  220.0990 C   0  0  0  0  0  0  0  0  0  0  0  0
  145.3190   72.6290  221.1050 N   0  0  0  0  0  0  0  0  0  0  0  0
  145.7020   73.9070  220.5710 C   0  0  0  0  0  0  0  0  0  0  0  0
  144.4330   74.6560  220.1970 C   0  0  0  0  0  0  0  0  0  0  0  0
  141.6660   75.1450  220.8110 N   0  0  0  0  0  0  0  0  0  0  0  0
  140.9400   77.4260  222.3150 C   0  0  0  0  0  0  0  0  0  0  0  0
  139.0508   81.9133  224.4546 H   0  0  0  0  0  0  0  0  0  0  0  0
  141.4673   81.6625  224.0228 H   0  0  0  0  0  0  0  0  0  0  0  0
  142.3243   79.5616  223.0224 H   0  0  0  0  0  0  0  0  0  0  0  0
  137.4448   80.0861  223.9080 H   0  0  0  0  0  0  0  0  0  0  0  0
  138.1907   76.9033  223.5831 H   0  0  0  0  0  0  0  0  0  0  0  0
  137.1017   78.0314  222.7124 H   0  0  0  0  0  0  0  0  0  0  0  0
  137.9351   76.2385  221.1828 H   0  0  0  0  0  0  0  0  0  0  0  0
  138.5420   77.8288  220.6625 H   0  0  0  0  0  0  0  0  0  0  0  0
  138.2320   72.0480  219.7310 H   0  0  0  0  0  0  0  0  0  0  0  0
  137.8571   70.9914  221.9897 H   0  0  0  0  0  0  0  0  0  0  0  0
  138.8858   69.9850  220.9085 H   0  0  0  0  0  0  0  0  0  0  0  0
  140.8885   70.6961  221.9820 H   0  0  0  0  0  0  0  0  0  0  0  0
  140.0575   72.0413  222.8251 H   0  0  0  0  0  0  0  0  0  0  0  0
  138.5486   70.0022  223.7126 H   0  0  0  0  0  0  0  0  0  0  0  0
  140.0933   69.1126  223.4065 H   0  0  0  0  0  0  0  0  0  0  0  0
  140.7621   72.6559  224.4038 H   0  0  0  0  0  0  0  0  0  0  0  0
  141.5569   72.7417  226.9369 H   0  0  0  0  0  0  0  0  0  0  0  0
  141.5309   70.8204  229.0160 H   0  0  0  0  0  0  0  0  0  0  0  0
  140.8938   68.4761  229.5793 H   0  0  0  0  0  0  0  0  0  0  0  0
  139.8726   67.0500  227.8263 H   0  0  0  0  0  0  0  0  0  0  0  0
  139.4826   67.9177  225.5650 H   0  0  0  0  0  0  0  0  0  0  0  0
  142.8525   71.7993  219.2782 H   0  0  0  0  0  0  0  0  0  0  0  0
  144.1267   72.6745  218.3306 H   0  0  0  0  0  0  0  0  0  0  0  0
  144.4111   70.8174  220.5761 H   0  0  0  0  0  0  0  0  0  0  0  0
  145.6351   71.4025  219.4250 H   0  0  0  0  0  0  0  0  0  0  0  0
  145.9610   72.2160  221.7870 H   0  0  0  0  0  0  0  0  0  0  0  0
  146.2624   74.4756  221.3277 H   0  0  0  0  0  0  0  0  0  0  0  0
  146.3445   73.7764  219.6877 H   0  0  0  0  0  0  0  0  0  0  0  0
  144.1473   75.3342  221.0146 H   0  0  0  0  0  0  0  0  0  0  0  0
  144.5992   75.2501  219.2863 H   0  0  0  0  0  0  0  0  0  0  0  0
  141.4034   76.8350  223.1187 H   0  0  0  0  0  0  0  0  0  0  0  0
  141.6670   77.7452  221.5537 H   0  0  0  0  0  0  0  0  0  0  0  0
  1  2  2  0
  2  3  1  0
  3  4  2  0
  4  5  1  0
  5  6  2  0
  5  7  1  0
  7  8  1  0
  8  9  1  0
  9 10  1  0
 10 11  2  0
 11 12  1  0
 12 13  1  0
 13 14  1  0
 14 15  1  0
 15 16  1  0
 16 17  1  0
 17 18  1  0
 18 19  2  0
 19 20  1  0
 20 21  2  0
 21 22  1  0
 22 23  2  0
 23 24  1  0
 24 25  2  0
 12 26  2  0
 26 27  1  0
 27 28  1  0
 28 29  1  0
 29 30  1  0
 30 31  1  0
 31 32  1  0
 32 33  1  0
 27 34  2  0
  9 35  1  0
  6  1  1  0
 34 10  1  0
 35  4  1  0
 25 17  1  0
 33 28  1  0
 25 20  1  0
  1 36  1  0
  2 37  1  0
  3 38  1  0
  6 39  1  0
  7 40  1  0
  7 41  1  0
  8 42  1  0
  8 43  1  0
 13 44  1  0
 14 45  1  0
 14 46  1  0
 15 47  1  0
 15 48  1  0
 16 49  1  0
 16 50  1  0
 18 51  1  0
 19 52  1  0
 21 53  1  0
 22 54  1  0
 23 55  1  0
 24 56  1  0
 29 57  1  0
 29 58  1  0
 30 59  1  0
 30 60  1  0
 31 61  1  0
 32 62  1  0
 32 63  1  0
 33 64  1  0
 33 65  1  0
 35 66  1  0
 35 67  1  0
M  END
>  <smiles>  (15) 
c1ccc2c(c1)CCN(c1nc(NCCCn3ccc4ccccc43)nc(N3CCNCC3)n1)C2

>  <score_type>  (15) 
oracle

>  <origin>  (15) 
autodockgpu

>  <m_score__min__energy>  (15) 
-10.76

>  <m_primary>  (15) 
energy

>  <rmsd>  (15) 
11.465797928214569

>  <m_score__min__rmsd>  (15) 
11.465797928214569

>  <meeko>  (15) 
{"free_energy": -9.35, "intermolecular_energy": -11.44, "internal_energy": -1.07, "cluster_size": 44, "cluster_id": 1, "rank_in_cluster": 43}

>  <energy>  (15) 
-10.35

>  <cluster_rmsd>  (15) 
1.53

>  <cluster>  (15) 
1

$$$$

     RDKit          3D

 67 72  0  0  0  0  0  0  0  0999 V2000
  141.6710   81.9330  221.2230 C   0  0  0  0  0  0  0  0  0  0  0  0
  141.7780   81.4580  219.9330 C   0  0  0  0  0  0  0  0  0  0  0  0
  141.7710   80.0980  219.7150 C   0  0  0  0  0  0  0  0  0  0  0  0
  141.6600   79.2160  220.7800 C   0  0  0  0  0  0  0  0  0  0  0  0
  141.5560   79.7220  222.0540 C   0  0  0  0  0  0  0  0  0  0  0  0
  141.5590   81.0840  222.3130 C   0  0  0  0  0  0  0  0  0  0  0  0
  141.4390   78.7350  223.1640 C   0  0  0  0  0  0  0  0  0  0  0  0
  140.5160   77.5940  222.7250 C   0  0  0  0  0  0  0  0  0  0  0  0
  141.1320   76.9650  221.5500 N   0  0  0  0  0  0  0  0  0  0  0  0
  141.2200   75.5600  221.4400 C   0  0  0  0  0  0  0  0  0  0  0  0
  140.3130   74.7450  221.9880 N   0  0  0  0  0  0  0  0  0  0  0  0
  140.3740   73.3910  221.8970 C   0  0  0  0  0  0  0  0  0  0  0  0
  139.3860   72.5740  222.4990 N   0  0  0  0  0  0  0  0  0  0  0  0
  139.1790   71.1830  222.1900 C   0  0  0  0  0  0  0  0  0  0  0  0
  138.2770   70.5520  223.2250 C   0  0  0  0  0  0  0  0  0  0  0  0
  139.0720   69.5590  224.0230 C   0  0  0  0  0  0  0  0  0  0  0  0
  139.7650   70.2010  225.1060 N   0  0  0  0  0  0  0  0  0  0  0  0
  140.1360   71.4920  225.2510 C   0  0  0  0  0  0  0  0  0  0  0  0
  140.7820   71.6700  226.4500 C   0  0  0  0  0  0  0  0  0  0  0  0
  140.8140   70.4430  227.0750 C   0  0  0  0  0  0  0  0  0  0  0  0
  141.3440   70.0730  228.2910 C   0  0  0  0  0  0  0  0  0  0  0  0
  141.2470   68.7590  228.7000 C   0  0  0  0  0  0  0  0  0  0  0  0
  140.6200   67.8520  227.8720 C   0  0  0  0  0  0  0  0  0  0  0  0
  140.0970   68.2370  226.6620 C   0  0  0  0  0  0  0  0  0  0  0  0
  140.1800   69.5460  226.2280 C   0  0  0  0  0  0  0  0  0  0  0  0
  141.4130   72.8930  221.2170 N   0  0  0  0  0  0  0  0  0  0  0  0
  142.3430   73.6850  220.6550 C   0  0  0  0  0  0  0  0  0  0  0  0
  143.4140   73.0750  219.9480 N   0  0  0  0  0  0  0  0  0  0  0  0
  144.3280   72.1870  220.6280 C   0  0  0  0  0  0  0  0  0  0  0  0
  145.7600   72.6550  220.5020 C   0  0  0  0  0  0  0  0  0  0  0  0
  145.7730   73.7240  219.5300 N   0  0  0  0  0  0  0  0  0  0  0  0
  145.1370   73.3680  218.2910 C   0  0  0  0  0  0  0  0  0  0  0  0
  143.6380   73.3110  218.5360 C   0  0  0  0  0  0  0  0  0  0  0  0
  142.2670   75.0240  220.7530 N   0  0  0  0  0  0  0  0  0  0  0  0
  141.6600   77.7800  220.4840 C   0  0  0  0  0  0  0  0  0  0  0  0
  141.6746   83.0199  221.3925 H   0  0  0  0  0  0  0  0  0  0  0  0
  141.8679   82.1567  219.0882 H   0  0  0  0  0  0  0  0  0  0  0  0
  141.8540   79.7086  218.6896 H   0  0  0  0  0  0  0  0  0  0  0  0
  141.4762   81.4737  223.3383 H   0  0  0  0  0  0  0  0  0  0  0  0
  142.4338   78.3321  223.4050 H   0  0  0  0  0  0  0  0  0  0  0  0
  141.0219   79.2271  224.0550 H   0  0  0  0  0  0  0  0  0  0  0  0
  140.4141   76.8583  223.5364 H   0  0  0  0  0  0  0  0  0  0  0  0
  139.5126   77.9744  222.4833 H   0  0  0  0  0  0  0  0  0  0  0  0
  138.7590   73.0090  223.2210 H   0  0  0  0  0  0  0  0  0  0  0  0
  138.7117   71.0959  221.1980 H   0  0  0  0  0  0  0  0  0  0  0  0
  140.1491   70.6645  222.1925 H   0  0  0  0  0  0  0  0  0  0  0  0
  137.8811   71.3306  223.8936 H   0  0  0  0  0  0  0  0  0  0  0  0
  137.4377   70.0438  222.7276 H   0  0  0  0  0  0  0  0  0  0  0  0
  138.3901   68.7994  224.4330 H   0  0  0  0  0  0  0  0  0  0  0  0
  139.8158   69.0935  223.3597 H   0  0  0  0  0  0  0  0  0  0  0  0
  139.9477   72.2868  224.5143 H   0  0  0  0  0  0  0  0  0  0  0  0
  141.1952   72.6130  226.8374 H   0  0  0  0  0  0  0  0  0  0  0  0
  141.8401   70.8182  228.9302 H   0  0  0  0  0  0  0  0  0  0  0  0
  141.6618   68.4410  229.6679 H   0  0  0  0  0  0  0  0  0  0  0  0
  140.5373   66.8011  228.1864 H   0  0  0  0  0  0  0  0  0  0  0  0
  139.6022   67.4884  226.0258 H   0  0  0  0  0  0  0  0  0  0  0  0
  144.0588   72.1462  221.6938 H   0  0  0  0  0  0  0  0  0  0  0  0
  144.2499   71.1930  220.1634 H   0  0  0  0  0  0  0  0  0  0  0  0
  146.1236   73.0231  221.4727 H   0  0  0  0  0  0  0  0  0  0  0  0
  146.4154   71.8301  220.1859 H   0  0  0  0  0  0  0  0  0  0  0  0
  146.6610   74.2280  219.4510 H   0  0  0  0  0  0  0  0  0  0  0  0
  145.3621   74.1241  217.5244 H   0  0  0  0  0  0  0  0  0  0  0  0
  145.5051   72.3938  217.9369 H   0  0  0  0  0  0  0  0  0  0  0  0
  143.1768   74.2651  218.2411 H   0  0  0  0  0  0  0  0  0  0  0  0
  143.1884   72.5020  217.9416 H   0  0  0  0  0  0  0  0  0  0  0  0
  142.6961   77.4664  220.2886 H   0  0  0  0  0  0  0  0  0  0  0  0
  141.0037   77.6328  219.6136 H   0  0  0  0  0  0  0  0  0  0  0  0
  1  2  2  0
  2  3  1  0
  3  4  2  0
  4  5  1  0
  5  6  2  0
  5  7  1  0
  7  8  1  0
  8  9  1  0
  9 10  1  0
 10 11  2  0
 11 12  1  0
 12 13  1  0
 13 14  1  0
 14 15  1  0
 15 16  1  0
 16 17  1  0
 17 18  1  0
 18 19  2  0
 19 20  1  0
 20 21  2  0
 21 22  1  0
 22 23  2  0
 23 24  1  0
 24 25  2  0
 12 26  2  0
 26 27  1  0
 27 28  1  0
 28 29  1  0
 29 30  1  0
 30 31  1  0
 31 32  1  0
 32 33  1  0
 27 34  2  0
  9 35  1  0
  6  1  1  0
 34 10  1  0
 35  4  1  0
 25 17  1  0
 33 28  1  0
 25 20  1  0
  1 36  1  0
  2 37  1  0
  3 38  1  0
  6 39  1  0
  7 40  1  0
  7 41  1  0
  8 42  1  0
  8 43  1  0
 13 44  1  0
 14 45  1  0
 14 46  1  0
 15 47  1  0
 15 48  1  0
 16 49  1  0
 16 50  1  0
 18 51  1  0
 19 52  1  0
 21 53  1  0
 22 54  1  0
 23 55  1  0
 24 56  1  0
 29 57  1  0
 29 58  1  0
 30 59  1  0
 30 60  1  0
 31 61  1  0
 32 62  1  0
 32 63  1  0
 33 64  1  0
 33 65  1  0
 35 66  1  0
 35 67  1  0
M  END
>  <smiles>  (16) 
c1ccc2c(c1)CCN(c1nc(NCCCn3ccc4ccccc43)nc(N3CCNCC3)n1)C2

>  <score_type>  (16) 
oracle

>  <origin>  (16) 
autodockgpu

>  <m_score__min__energy>  (16) 
-10.76

>  <m_primary>  (16) 
energy

>  <rmsd>  (16) 
11.720305774654827

>  <m_score__min__rmsd>  (16) 
11.720305774654827

>  <meeko>  (16) 
{"free_energy": -10.63, "intermolecular_energy": -12.71, "internal_energy": -0.94, "cluster_size": 44, "cluster_id": 1, "rank_in_cluster": 8}

>  <energy>  (16) 
-10.35

>  <cluster_rmsd>  (16) 
1.66

>  <cluster>  (16) 
1

$$$$

     RDKit          3D

 67 72  0  0  0  0  0  0  0  0999 V2000
  139.5620   69.4310  228.0810 C   0  0  0  0  0  0  0  0  0  0  0  0
  140.2330   70.6100  228.3260 C   0  0  0  0  0  0  0  0  0  0  0  0
  140.6300   71.3910  227.2640 C   0  0  0  0  0  0  0  0  0  0  0  0
  140.3590   70.9970  225.9620 C   0  0  0  0  0  0  0  0  0  0  0  0
  139.6880   69.8160  225.7510 C   0  0  0  0  0  0  0  0  0  0  0  0
  139.2740   69.0030  226.7950 C   0  0  0  0  0  0  0  0  0  0  0  0
  139.4210   69.4360  224.3360 C   0  0  0  0  0  0  0  0  0  0  0  0
  139.0170   70.6860  223.5490 C   0  0  0  0  0  0  0  0  0  0  0  0
  140.1440   71.6250  223.6170 N   0  0  0  0  0  0  0  0  0  0  0  0
  140.5970   72.3010  222.4630 C   0  0  0  0  0  0  0  0  0  0  0  0
  139.8720   73.2480  221.8620 N   0  0  0  0  0  0  0  0  0  0  0  0
  140.2850   73.9140  220.7520 C   0  0  0  0  0  0  0  0  0  0  0  0
  139.4730   74.9090  220.1530 N   0  0  0  0  0  0  0  0  0  0  0  0
  139.7300   76.3230  220.2290 C   0  0  0  0  0  0  0  0  0  0  0  0
  141.0340   76.5750  220.9500 C   0  0  0  0  0  0  0  0  0  0  0  0
  140.7740   76.6070  222.4280 C   0  0  0  0  0  0  0  0  0  0  0  0
  140.3490   77.9140  222.8500 N   0  0  0  0  0  0  0  0  0  0  0  0
  139.1030   78.3960  223.0520 C   0  0  0  0  0  0  0  0  0  0  0  0
  139.1580   79.7070  223.4530 C   0  0  0  0  0  0  0  0  0  0  0  0
  140.4890   80.0570  223.5010 C   0  0  0  0  0  0  0  0  0  0  0  0
  141.0890   81.2500  223.8400 C   0  0  0  0  0  0  0  0  0  0  0  0
  142.4640   81.3490  223.8090 C   0  0  0  0  0  0  0  0  0  0  0  0
  143.2000   80.2430  223.4380 C   0  0  0  0  0  0  0  0  0  0  0  0
  142.5880   79.0610  223.1030 C   0  0  0  0  0  0  0  0  0  0  0  0
  141.2110   78.9340  223.1250 C   0  0  0  0  0  0  0  0  0  0  0  0
  141.4850   73.5680  220.2710 N   0  0  0  0  0  0  0  0  0  0  0  0
  142.2390   72.6190  220.8520 C   0  0  0  0  0  0  0  0  0  0  0  0
  143.5030   72.3140  220.2780 N   0  0  0  0  0  0  0  0  0  0  0  0
  144.7230   72.6330  220.9800 C   0  0  0  0  0  0  0  0  0  0  0  0
  145.6240   73.5260  220.1580 C   0  0  0  0  0  0  0  0  0  0  0  0
  145.0690   73.5780  218.8260 N   0  0  0  0  0  0  0  0  0  0  0  0
  144.8240   72.2770  218.2650 C   0  0  0  0  0  0  0  0  0  0  0  0
  143.6240   71.6790  218.9810 C   0  0  0  0  0  0  0  0  0  0  0  0
  141.8160   71.9710  221.9520 N   0  0  0  0  0  0  0  0  0  0  0  0
  140.8070   71.8710  224.8740 C   0  0  0  0  0  0  0  0  0  0  0  0
  139.2455   68.8109  228.9326 H   0  0  0  0  0  0  0  0  0  0  0  0
  140.4488   70.9232  229.3582 H   0  0  0  0  0  0  0  0  0  0  0  0
  141.1657   72.3337  227.4493 H   0  0  0  0  0  0  0  0  0  0  0  0
  138.7401   68.0592  226.6104 H   0  0  0  0  0  0  0  0  0  0  0  0
  140.3291   69.0000  223.8941 H   0  0  0  0  0  0  0  0  0  0  0  0
  138.6083   68.6956  224.2982 H   0  0  0  0  0  0  0  0  0  0  0  0
  138.8097   70.4213  222.5016 H   0  0  0  0  0  0  0  0  0  0  0  0
  138.1071   71.1367  223.9721 H   0  0  0  0  0  0  0  0  0  0  0  0
  138.6260   74.5970  219.6160 H   0  0  0  0  0  0  0  0  0  0  0  0
  139.7906   76.7371  219.2117 H   0  0  0  0  0  0  0  0  0  0  0  0
  138.9126   76.8086  220.7823 H   0  0  0  0  0  0  0  0  0  0  0  0
  141.7461   75.7694  220.7177 H   0  0  0  0  0  0  0  0  0  0  0  0
  141.4596   77.5360  220.6255 H   0  0  0  0  0  0  0  0  0  0  0  0
  139.9871   75.8776  222.6703 H   0  0  0  0  0  0  0  0  0  0  0  0
  141.7078   76.3566  222.9528 H   0  0  0  0  0  0  0  0  0  0  0  0
  138.1764   77.8194  222.9145 H   0  0  0  0  0  0  0  0  0  0  0  0
  138.3017   80.3552  223.6909 H   0  0  0  0  0  0  0  0  0  0  0  0
  140.4767   82.1157  224.1327 H   0  0  0  0  0  0  0  0  0  0  0  0
  142.9643   82.2918  224.0750 H   0  0  0  0  0  0  0  0  0  0  0  0
  144.2976   80.3095  223.4101 H   0  0  0  0  0  0  0  0  0  0  0  0
  143.2047   78.1980  222.8114 H   0  0  0  0  0  0  0  0  0  0  0  0
  144.4700   73.1485  221.9182 H   0  0  0  0  0  0  0  0  0  0  0  0
  145.2599   71.6937  221.1786 H   0  0  0  0  0  0  0  0  0  0  0  0
  145.6543   74.5355  220.5939 H   0  0  0  0  0  0  0  0  0  0  0  0
  146.6518   73.1345  220.1390 H   0  0  0  0  0  0  0  0  0  0  0  0
  145.5040   74.2630  218.2010 H   0  0  0  0  0  0  0  0  0  0  0  0
  144.6109   72.3676  217.1897 H   0  0  0  0  0  0  0  0  0  0  0  0
  145.7064   71.6325  218.3913 H   0  0  0  0  0  0  0  0  0  0  0  0
  142.7123   71.8592  218.3925 H   0  0  0  0  0  0  0  0  0  0  0  0
  143.7578   70.5939  219.1021 H   0  0  0  0  0  0  0  0  0  0  0  0
  141.8873   71.7205  224.7312 H   0  0  0  0  0  0  0  0  0  0  0  0
  140.5599   72.9014  225.1694 H   0  0  0  0  0  0  0  0  0  0  0  0
  1  2  2  0
  2  3  1  0
  3  4  2  0
  4  5  1  0
  5  6  2  0
  5  7  1  0
  7  8  1  0
  8  9  1  0
  9 10  1  0
 10 11  2  0
 11 12  1  0
 12 13  1  0
 13 14  1  0
 14 15  1  0
 15 16  1  0
 16 17  1  0
 17 18  1  0
 18 19  2  0
 19 20  1  0
 20 21  2  0
 21 22  1  0
 22 23  2  0
 23 24  1  0
 24 25  2  0
 12 26  2  0
 26 27  1  0
 27 28  1  0
 28 29  1  0
 29 30  1  0
 30 31  1  0
 31 32  1  0
 32 33  1  0
 27 34  2  0
  9 35  1  0
  6  1  1  0
 34 10  1  0
 35  4  1  0
 25 17  1  0
 33 28  1  0
 25 20  1  0
  1 36  1  0
  2 37  1  0
  3 38  1  0
  6 39  1  0
  7 40  1  0
  7 41  1  0
  8 42  1  0
  8 43  1  0
 13 44  1  0
 14 45  1  0
 14 46  1  0
 15 47  1  0
 15 48  1  0
 16 49  1  0
 16 50  1  0
 18 51  1  0
 19 52  1  0
 21 53  1  0
 22 54  1  0
 23 55  1  0
 24 56  1  0
 29 57  1  0
 29 58  1  0
 30 59  1  0
 30 60  1  0
 31 61  1  0
 32 62  1  0
 32 63  1  0
 33 64  1  0
 33 65  1  0
 35 66  1  0
 35 67  1  0
M  END
>  <smiles>  (17) 
c1ccc2c(c1)CCN(c1nc(NCCCn3ccc4ccccc43)nc(N3CCNCC3)n1)C2

>  <score_type>  (17) 
oracle

>  <origin>  (17) 
autodockgpu

>  <m_score__min__energy>  (17) 
-10.76

>  <m_primary>  (17) 
energy

>  <rmsd>  (17) 
3.2650633443601427

>  <m_score__min__rmsd>  (17) 
3.2650633443601427

>  <meeko>  (17) 
{"free_energy": -9.7, "intermolecular_energy": -11.79, "internal_energy": -1.12, "cluster_size": 44, "cluster_id": 1, "rank_in_cluster": 37}

>  <energy>  (17) 
-10.28

>  <cluster_rmsd>  (17) 
0.52

>  <cluster>  (17) 
1

$$$$

     RDKit          3D

 67 72  0  0  0  0  0  0  0  0999 V2000
  142.3300   81.2530  223.4190 C   0  0  0  0  0  0  0  0  0  0  0  0
  143.0780   80.2250  222.8860 C   0  0  0  0  0  0  0  0  0  0  0  0
  142.4830   79.0020  222.6680 C   0  0  0  0  0  0  0  0  0  0  0  0
  141.1460   78.8070  222.9800 C   0  0  0  0  0  0  0  0  0  0  0  0
  140.4270   79.8520  223.5100 C   0  0  0  0  0  0  0  0  0  0  0  0
  140.9920   81.0960  223.7440 C   0  0  0  0  0  0  0  0  0  0  0  0
  138.9950   79.5930  223.8290 C   0  0  0  0  0  0  0  0  0  0  0  0
  138.3800   78.7380  222.7160 C   0  0  0  0  0  0  0  0  0  0  0  0
  139.1280   77.4760  222.6750 N   0  0  0  0  0  0  0  0  0  0  0  0
  138.4560   76.2360  222.5860 C   0  0  0  0  0  0  0  0  0  0  0  0
  138.9950   75.1770  221.9750 N   0  0  0  0  0  0  0  0  0  0  0  0
  138.3710   73.9740  221.8750 C   0  0  0  0  0  0  0  0  0  0  0  0
  138.9880   72.8840  221.2140 N   0  0  0  0  0  0  0  0  0  0  0  0
  140.1800   72.2210  221.6750 C   0  0  0  0  0  0  0  0  0  0  0  0
  140.2940   72.3460  223.1770 C   0  0  0  0  0  0  0  0  0  0  0  0
  140.1640   70.9820  223.7910 C   0  0  0  0  0  0  0  0  0  0  0  0
  140.5130   71.0060  225.1850 N   0  0  0  0  0  0  0  0  0  0  0  0
  141.0300   72.0080  225.9300 C   0  0  0  0  0  0  0  0  0  0  0  0
  141.2100   71.5920  227.2260 C   0  0  0  0  0  0  0  0  0  0  0  0
  140.7900   70.2830  227.2910 C   0  0  0  0  0  0  0  0  0  0  0  0
  140.7590   69.4050  228.3510 C   0  0  0  0  0  0  0  0  0  0  0  0
  140.2850   68.1240  228.1570 C   0  0  0  0  0  0  0  0  0  0  0  0
  139.8540   67.7610  226.8980 C   0  0  0  0  0  0  0  0  0  0  0  0
  139.8910   68.6480  225.8500 C   0  0  0  0  0  0  0  0  0  0  0  0
  140.3610   69.9370  226.0170 C   0  0  0  0  0  0  0  0  0  0  0  0
  137.1560   73.8940  222.4300 N   0  0  0  0  0  0  0  0  0  0  0  0
  136.5860   74.9410  223.0510 C   0  0  0  0  0  0  0  0  0  0  0  0
  135.2920   74.7710  223.6150 N   0  0  0  0  0  0  0  0  0  0  0  0
  134.6250   75.8750  224.2650 C   0  0  0  0  0  0  0  0  0  0  0  0
  134.2570   75.5440  225.6930 C   0  0  0  0  0  0  0  0  0  0  0  0
  134.4850   74.1280  225.8730 N   0  0  0  0  0  0  0  0  0  0  0  0
  133.8380   73.3210  224.8740 C   0  0  0  0  0  0  0  0  0  0  0  0
  134.5940   73.5020  223.5670 C   0  0  0  0  0  0  0  0  0  0  0  0
  137.2180   76.1250  223.1430 N   0  0  0  0  0  0  0  0  0  0  0  0
  140.5690   77.4840  222.7260 C   0  0  0  0  0  0  0  0  0  0  0  0
  142.8098   82.2277  223.5916 H   0  0  0  0  0  0  0  0  0  0  0  0
  144.1383   80.3797  222.6375 H   0  0  0  0  0  0  0  0  0  0  0  0
  143.0718   78.1752  222.2440 H   0  0  0  0  0  0  0  0  0  0  0  0
  140.4039   81.9226  224.1692 H   0  0  0  0  0  0  0  0  0  0  0  0
  138.9220   79.0580  224.7874 H   0  0  0  0  0  0  0  0  0  0  0  0
  138.4537   80.5476  223.9049 H   0  0  0  0  0  0  0  0  0  0  0  0
  137.3200   78.5410  222.9342 H   0  0  0  0  0  0  0  0  0  0  0  0
  138.4368   79.2573  221.7480 H   0  0  0  0  0  0  0  0  0  0  0  0
  138.5490   72.5320  220.3280 H   0  0  0  0  0  0  0  0  0  0  0  0
  140.1340   71.1568  221.4006 H   0  0  0  0  0  0  0  0  0  0  0  0
  141.0578   72.6899  221.2063 H   0  0  0  0  0  0  0  0  0  0  0  0
  141.2719   72.7766  223.4383 H   0  0  0  0  0  0  0  0  0  0  0  0
  139.4978   73.0028  223.5573 H   0  0  0  0  0  0  0  0  0  0  0  0
  139.1240   70.6390  223.6870 H   0  0  0  0  0  0  0  0  0  0  0  0
  140.8509   70.2981  223.2709 H   0  0  0  0  0  0  0  0  0  0  0  0
  141.2718   73.0125  225.5524 H   0  0  0  0  0  0  0  0  0  0  0  0
  141.6135   72.1915  228.0554 H   0  0  0  0  0  0  0  0  0  0  0  0
  141.1093   69.7222  229.3443 H   0  0  0  0  0  0  0  0  0  0  0  0
  140.2514   67.4063  228.9899 H   0  0  0  0  0  0  0  0  0  0  0  0
  139.4737   66.7426  226.7302 H   0  0  0  0  0  0  0  0  0  0  0  0
  139.5398   68.3263  224.8585 H   0  0  0  0  0  0  0  0  0  0  0  0
  135.2950   76.7474  224.2627 H   0  0  0  0  0  0  0  0  0  0  0  0
  133.6978   76.0882  223.7128 H   0  0  0  0  0  0  0  0  0  0  0  0
  134.8867   76.1190  226.3879 H   0  0  0  0  0  0  0  0  0  0  0  0
  133.2069   75.8006  225.8964 H   0  0  0  0  0  0  0  0  0  0  0  0
  134.4090   73.7960  226.8390 H   0  0  0  0  0  0  0  0  0  0  0  0
  133.8604   72.2634  225.1756 H   0  0  0  0  0  0  0  0  0  0  0  0
  132.7879   73.6263  224.7552 H   0  0  0  0  0  0  0  0  0  0  0  0
  135.3184   72.6840  223.4404 H   0  0  0  0  0  0  0  0  0  0  0  0
  133.8929   73.4878  222.7195 H   0  0  0  0  0  0  0  0  0  0  0  0
  140.8911   76.8054  223.5296 H   0  0  0  0  0  0  0  0  0  0  0  0
  140.9257   77.1644  221.7357 H   0  0  0  0  0  0  0  0  0  0  0  0
  1  2  2  0
  2  3  1  0
  3  4  2  0
  4  5  1  0
  5  6  2  0
  5  7  1  0
  7  8  1  0
  8  9  1  0
  9 10  1  0
 10 11  2  0
 11 12  1  0
 12 13  1  0
 13 14  1  0
 14 15  1  0
 15 16  1  0
 16 17  1  0
 17 18  1  0
 18 19  2  0
 19 20  1  0
 20 21  2  0
 21 22  1  0
 22 23  2  0
 23 24  1  0
 24 25  2  0
 12 26  2  0
 26 27  1  0
 27 28  1  0
 28 29  1  0
 29 30  1  0
 30 31  1  0
 31 32  1  0
 32 33  1  0
 27 34  2  0
  9 35  1  0
  6  1  1  0
 34 10  1  0
 35  4  1  0
 25 17  1  0
 33 28  1  0
 25 20  1  0
  1 36  1  0
  2 37  1  0
  3 38  1  0
  6 39  1  0
  7 40  1  0
  7 41  1  0
  8 42  1  0
  8 43  1  0
 13 44  1  0
 14 45  1  0
 14 46  1  0
 15 47  1  0
 15 48  1  0
 16 49  1  0
 16 50  1  0
 18 51  1  0
 19 52  1  0
 21 53  1  0
 22 54  1  0
 23 55  1  0
 24 56  1  0
 29 57  1  0
 29 58  1  0
 30 59  1  0
 30 60  1  0
 31 61  1  0
 32 62  1  0
 32 63  1  0
 33 64  1  0
 33 65  1  0
 35 66  1  0
 35 67  1  0
M  END
>  <smiles>  (18) 
c1ccc2c(c1)CCN(c1nc(NCCCn3ccc4ccccc43)nc(N3CCNCC3)n1)C2

>  <score_type>  (18) 
oracle

>  <origin>  (18) 
autodockgpu

>  <m_score__min__energy>  (18) 
-10.76

>  <m_primary>  (18) 
energy

>  <rmsd>  (18) 
11.445537629149818

>  <m_score__min__rmsd>  (18) 
11.445537629149818

>  <meeko>  (18) 
{"free_energy": -9.76, "intermolecular_energy": -11.85, "internal_energy": -1.03, "cluster_size": 2, "cluster_id": 3, "rank_in_cluster": 1}

>  <energy>  (18) 
-10.25

>  <cluster_rmsd>  (18) 
1.62

>  <cluster>  (18) 
1

$$$$

     RDKit          3D

 67 72  0  0  0  0  0  0  0  0999 V2000
  138.4030   81.5050  223.4780 C   0  0  0  0  0  0  0  0  0  0  0  0
  137.3010   80.6770  223.4970 C   0  0  0  0  0  0  0  0  0  0  0  0
  137.4500   79.3530  223.1470 C   0  0  0  0  0  0  0  0  0  0  0  0
  138.6920   78.8590  222.7780 C   0  0  0  0  0  0  0  0  0  0  0  0
  139.7700   79.7110  222.7680 C   0  0  0  0  0  0  0  0  0  0  0  0
  139.6600   81.0490  223.1150 C   0  0  0  0  0  0  0  0  0  0  0  0
  141.0830   79.1330  222.3650 C   0  0  0  0  0  0  0  0  0  0  0  0
  141.2260   77.7370  222.9800 C   0  0  0  0  0  0  0  0  0  0  0  0
  140.1280   76.9170  222.4540 N   0  0  0  0  0  0  0  0  0  0  0  0
  140.3620   75.6070  221.9810 C   0  0  0  0  0  0  0  0  0  0  0  0
  139.4540   74.6340  222.1020 N   0  0  0  0  0  0  0  0  0  0  0  0
  139.6540   73.3670  221.6550 C   0  0  0  0  0  0  0  0  0  0  0  0
  138.6570   72.3720  221.8110 N   0  0  0  0  0  0  0  0  0  0  0  0
  138.2200   71.8480  223.0790 C   0  0  0  0  0  0  0  0  0  0  0  0
  138.4580   70.3570  223.1320 C   0  0  0  0  0  0  0  0  0  0  0  0
  139.9160   70.1060  223.3850 C   0  0  0  0  0  0  0  0  0  0  0  0
  140.2940   70.5370  224.7030 N   0  0  0  0  0  0  0  0  0  0  0  0
  140.7060   71.7510  225.1310 C   0  0  0  0  0  0  0  0  0  0  0  0
  140.9670   71.7170  226.4780 C   0  0  0  0  0  0  0  0  0  0  0  0
  140.7090   70.4340  226.9060 C   0  0  0  0  0  0  0  0  0  0  0  0
  140.8110   69.8710  228.1580 C   0  0  0  0  0  0  0  0  0  0  0  0
  140.4890   68.5410  228.3310 C   0  0  0  0  0  0  0  0  0  0  0  0
  140.0740   67.8120  227.2370 C   0  0  0  0  0  0  0  0  0  0  0  0
  139.9780   68.3870  225.9940 C   0  0  0  0  0  0  0  0  0  0  0  0
  140.2930   69.7180  225.7920 C   0  0  0  0  0  0  0  0  0  0  0  0
  140.8340   73.1270  221.0720 N   0  0  0  0  0  0  0  0  0  0  0  0
  141.7680   74.0840  220.9350 C   0  0  0  0  0  0  0  0  0  0  0  0
  142.9960   73.7460  220.3030 N   0  0  0  0  0  0  0  0  0  0  0  0
  143.1580   72.4650  219.6550 C   0  0  0  0  0  0  0  0  0  0  0  0
  144.3280   71.6950  220.2230 C   0  0  0  0  0  0  0  0  0  0  0  0
  145.0580   72.6020  221.0790 N   0  0  0  0  0  0  0  0  0  0  0  0
  145.3990   73.8390  220.4300 C   0  0  0  0  0  0  0  0  0  0  0  0
  144.1240   74.6540  220.2800 C   0  0  0  0  0  0  0  0  0  0  0  0
  141.5550   75.3340  221.3820 N   0  0  0  0  0  0  0  0  0  0  0  0
  138.7860   77.4420  222.4150 C   0  0  0  0  0  0  0  0  0  0  0  0
  138.2805   82.5612  223.7600 H   0  0  0  0  0  0  0  0  0  0  0  0
  136.3151   81.0686  223.7880 H   0  0  0  0  0  0  0  0  0  0  0  0
  136.5777   78.6830  223.1603 H   0  0  0  0  0  0  0  0  0  0  0  0
  140.5324   81.7190  223.1026 H   0  0  0  0  0  0  0  0  0  0  0  0
  141.1321   79.0593  221.2686 H   0  0  0  0  0  0  0  0  0  0  0  0
  141.8979   79.7802  222.7213 H   0  0  0  0  0  0  0  0  0  0  0  0
  142.1938   77.2976  222.6967 H   0  0  0  0  0  0  0  0  0  0  0  0
  141.1845   77.7877  224.0780 H   0  0  0  0  0  0  0  0  0  0  0  0
  138.2030   71.9890  220.9450 H   0  0  0  0  0  0  0  0  0  0  0  0
  138.7832   72.3357  223.8883 H   0  0  0  0  0  0  0  0  0  0  0  0
  137.1449   72.0464  223.2003 H   0  0  0  0  0  0  0  0  0  0  0  0
  137.8611   69.9165  223.9442 H   0  0  0  0  0  0  0  0  0  0  0  0
  138.1610   69.8981  222.1775 H   0  0  0  0  0  0  0  0  0  0  0  0
  140.1173   69.0290  223.2876 H   0  0  0  0  0  0  0  0  0  0  0  0
  140.5017   70.6768  222.6493 H   0  0  0  0  0  0  0  0  0  0  0  0
  140.8163   72.6391  224.4914 H   0  0  0  0  0  0  0  0  0  0  0  0
  141.3161   72.5558  227.0981 H   0  0  0  0  0  0  0  0  0  0  0  0
  141.1464   70.4764  229.0130 H   0  0  0  0  0  0  0  0  0  0  0  0
  140.5619   68.0710  229.3229 H   0  0  0  0  0  0  0  0  0  0  0  0
  139.8151   66.7503  227.3623 H   0  0  0  0  0  0  0  0  0  0  0  0
  139.6439   67.7767  225.1420 H   0  0  0  0  0  0  0  0  0  0  0  0
  142.2404   71.8752  219.7970 H   0  0  0  0  0  0  0  0  0  0  0  0
  143.3509   72.6431  218.5868 H   0  0  0  0  0  0  0  0  0  0  0  0
  143.9665   70.8348  220.8056 H   0  0  0  0  0  0  0  0  0  0  0  0
  144.9725   71.3119  219.4181 H   0  0  0  0  0  0  0  0  0  0  0  0
  145.7970   72.1690  221.6390 H   0  0  0  0  0  0  0  0  0  0  0  0
  146.1273   74.3931  221.0403 H   0  0  0  0  0  0  0  0  0  0  0  0
  145.8479   73.6442  219.4448 H   0  0  0  0  0  0  0  0  0  0  0  0
  144.0412   75.3705  221.1105 H   0  0  0  0  0  0  0  0  0  0  0  0
  144.1411   75.2117  219.3320 H   0  0  0  0  0  0  0  0  0  0  0  0
  138.3956   77.3194  221.3939 H   0  0  0  0  0  0  0  0  0  0  0  0
  138.2022   76.8820  223.1603 H   0  0  0  0  0  0  0  0  0  0  0  0
  1  2  2  0
  2  3  1  0
  3  4  2  0
  4  5  1  0
  5  6  2  0
  5  7  1  0
  7  8  1  0
  8  9  1  0
  9 10  1  0
 10 11  2  0
 11 12  1  0
 12 13  1  0
 13 14  1  0
 14 15  1  0
 15 16  1  0
 16 17  1  0
 17 18  1  0
 18 19  2  0
 19 20  1  0
 20 21  2  0
 21 22  1  0
 22 23  2  0
 23 24  1  0
 24 25  2  0
 12 26  2  0
 26 27  1  0
 27 28  1  0
 28 29  1  0
 29 30  1  0
 30 31  1  0
 31 32  1  0
 32 33  1  0
 27 34  2  0
  9 35  1  0
  6  1  1  0
 34 10  1  0
 35  4  1  0
 25 17  1  0
 33 28  1  0
 25 20  1  0
  1 36  1  0
  2 37  1  0
  3 38  1  0
  6 39  1  0
  7 40  1  0
  7 41  1  0
  8 42  1  0
  8 43  1  0
 13 44  1  0
 14 45  1  0
 14 46  1  0
 15 47  1  0
 15 48  1  0
 16 49  1  0
 16 50  1  0
 18 51  1  0
 19 52  1  0
 21 53  1  0
 22 54  1  0
 23 55  1  0
 24 56  1  0
 29 57  1  0
 29 58  1  0
 30 59  1  0
 30 60  1  0
 31 61  1  0
 32 62  1  0
 32 63  1  0
 33 64  1  0
 33 65  1  0
 35 66  1  0
 35 67  1  0
M  END
>  <smiles>  (19) 
c1ccc2c(c1)CCN(c1nc(NCCCn3ccc4ccccc43)nc(N3CCNCC3)n1)C2

>  <score_type>  (19) 
oracle

>  <origin>  (19) 
autodockgpu

>  <m_score__min__energy>  (19) 
-10.76

>  <m_primary>  (19) 
energy

>  <rmsd>  (19) 
11.688162081657369

>  <m_score__min__rmsd>  (19) 
11.688162081657369

>  <meeko>  (19) 
{"free_energy": -9.66, "intermolecular_energy": -11.75, "internal_energy": -1.16, "cluster_size": 44, "cluster_id": 1, "rank_in_cluster": 40}

>  <energy>  (19) 
-10.19

>  <cluster_rmsd>  (19) 
1.24

>  <cluster>  (19) 
1

$$$$

     RDKit          3D

 67 72  0  0  0  0  0  0  0  0999 V2000
  140.4590   81.3490  222.6180 C   0  0  0  0  0  0  0  0  0  0  0  0
  140.7050   80.6850  223.8010 C   0  0  0  0  0  0  0  0  0  0  0  0
  140.8990   79.3210  223.7780 C   0  0  0  0  0  0  0  0  0  0  0  0
  140.8480   78.6240  222.5810 C   0  0  0  0  0  0  0  0  0  0  0  0
  140.6000   79.3160  221.4190 C   0  0  0  0  0  0  0  0  0  0  0  0
  140.4000   80.6880  221.4020 C   0  0  0  0  0  0  0  0  0  0  0  0
  140.5550   78.5240  220.1580 C   0  0  0  0  0  0  0  0  0  0  0  0
  141.6650   77.4680  220.1890 C   0  0  0  0  0  0  0  0  0  0  0  0
  141.4060   76.6000  221.3440 N   0  0  0  0  0  0  0  0  0  0  0  0
  141.4890   75.1950  221.2300 C   0  0  0  0  0  0  0  0  0  0  0  0
  140.4330   74.4010  221.4360 N   0  0  0  0  0  0  0  0  0  0  0  0
  140.4860   73.0470  221.3320 C   0  0  0  0  0  0  0  0  0  0  0  0
  139.3360   72.2520  221.5630 N   0  0  0  0  0  0  0  0  0  0  0  0
  138.8160   71.9310  222.8670 C   0  0  0  0  0  0  0  0  0  0  0  0
  139.7720   71.0110  223.5920 C   0  0  0  0  0  0  0  0  0  0  0  0
  140.7800   71.8430  224.3320 C   0  0  0  0  0  0  0  0  0  0  0  0
  140.8320   71.4790  225.7210 N   0  0  0  0  0  0  0  0  0  0  0  0
  141.0440   72.2490  226.8110 C   0  0  0  0  0  0  0  0  0  0  0  0
  141.0130   71.4830  227.9490 C   0  0  0  0  0  0  0  0  0  0  0  0
  140.7730   70.1860  227.5540 C   0  0  0  0  0  0  0  0  0  0  0  0
  140.6500   69.0330  228.2980 C   0  0  0  0  0  0  0  0  0  0  0  0
  140.4060   67.8370  227.6560 C   0  0  0  0  0  0  0  0  0  0  0  0
  140.2940   67.8320  226.2820 C   0  0  0  0  0  0  0  0  0  0  0  0
  140.4200   68.9900  225.5540 C   0  0  0  0  0  0  0  0  0  0  0  0
  140.6640   70.2030  226.1710 C   0  0  0  0  0  0  0  0  0  0  0  0
  141.6750   72.5270  221.0060 N   0  0  0  0  0  0  0  0  0  0  0  0
  142.7550   73.2980  220.7930 C   0  0  0  0  0  0  0  0  0  0  0  0
  143.9810   72.6660  220.4490 N   0  0  0  0  0  0  0  0  0  0  0  0
  145.1720   72.9030  221.2300 C   0  0  0  0  0  0  0  0  0  0  0  0
  146.3010   73.4380  220.3790 C   0  0  0  0  0  0  0  0  0  0  0  0
  145.8890   73.3120  219.0000 N   0  0  0  0  0  0  0  0  0  0  0  0
  145.4450   71.9870  218.6610 C   0  0  0  0  0  0  0  0  0  0  0  0
  144.0910   71.7680  219.3170 C   0  0  0  0  0  0  0  0  0  0  0  0
  142.6870   74.6370  220.8980 N   0  0  0  0  0  0  0  0  0  0  0  0
  141.0620   77.1750  222.6210 C   0  0  0  0  0  0  0  0  0  0  0  0
  140.3047   82.4379  222.6404 H   0  0  0  0  0  0  0  0  0  0  0  0
  140.7459   81.2373  224.7514 H   0  0  0  0  0  0  0  0  0  0  0  0
  141.0957   78.7815  224.7162 H   0  0  0  0  0  0  0  0  0  0  0  0
  140.2031   81.2279  220.4640 H   0  0  0  0  0  0  0  0  0  0  0  0
  139.5772   78.0280  220.0693 H   0  0  0  0  0  0  0  0  0  0  0  0
  140.7023   79.1912  219.2960 H   0  0  0  0  0  0  0  0  0  0  0  0
  141.6484   76.8765  219.2617 H   0  0  0  0  0  0  0  0  0  0  0  0
  142.6537   77.9430  220.2714 H   0  0  0  0  0  0  0  0  0  0  0  0
  138.8240   71.8710  220.7300 H   0  0  0  0  0  0  0  0  0  0  0  0
  138.6906   72.8570  223.4474 H   0  0  0  0  0  0  0  0  0  0  0  0
  137.8447   71.4271  222.7547 H   0  0  0  0  0  0  0  0  0  0  0  0
  139.2141   70.3861  224.3049 H   0  0  0  0  0  0  0  0  0  0  0  0
  140.2847   70.3605  222.8682 H   0  0  0  0  0  0  0  0  0  0  0  0
  141.7722   71.6888  223.8829 H   0  0  0  0  0  0  0  0  0  0  0  0
  140.4822   72.8994  224.2587 H   0  0  0  0  0  0  0  0  0  0  0  0
  141.2168   73.3351  226.7891 H   0  0  0  0  0  0  0  0  0  0  0  0
  141.1532   71.8377  228.9808 H   0  0  0  0  0  0  0  0  0  0  0  0
  140.7455   69.0660  229.3934 H   0  0  0  0  0  0  0  0  0  0  0  0
  140.3027   66.9042  228.2298 H   0  0  0  0  0  0  0  0  0  0  0  0
  140.1003   66.8837  225.7593 H   0  0  0  0  0  0  0  0  0  0  0  0
  140.3249   68.9515  224.4588 H   0  0  0  0  0  0  0  0  0  0  0  0
  144.9418   73.6351  222.0181 H   0  0  0  0  0  0  0  0  0  0  0  0
  145.4939   71.9449  221.6640 H   0  0  0  0  0  0  0  0  0  0  0  0
  146.4889   74.4943  220.6218 H   0  0  0  0  0  0  0  0  0  0  0  0
  147.2298   72.8782  220.5632 H   0  0  0  0  0  0  0  0  0  0  0  0
  146.5050   73.7680  218.3200 H   0  0  0  0  0  0  0  0  0  0  0  0
  145.3515   71.8917  217.5691 H   0  0  0  0  0  0  0  0  0  0  0  0
  146.1685   71.2374  219.0141 H   0  0  0  0  0  0  0  0  0  0  0  0
  143.2893   71.9809  218.5945 H   0  0  0  0  0  0  0  0  0  0  0  0
  143.9974   70.7244  219.6518 H   0  0  0  0  0  0  0  0  0  0  0  0
  140.1373   76.6980  222.9779 H   0  0  0  0  0  0  0  0  0  0  0  0
  141.9152   76.9965  223.2920 H   0  0  0  0  0  0  0  0  0  0  0  0
  1  2  2  0
  2  3  1  0
  3  4  2  0
  4  5  1  0
  5  6  2  0
  5  7  1  0
  7  8  1  0
  8  9  1  0
  9 10  1  0
 10 11  2  0
 11 12  1  0
 12 13  1  0
 13 14  1  0
 14 15  1  0
 15 16  1  0
 16 17  1  0
 17 18  1  0
 18 19  2  0
 19 20  1  0
 20 21  2  0
 21 22  1  0
 22 23  2  0
 23 24  1  0
 24 25  2  0
 12 26  2  0
 26 27  1  0
 27 28  1  0
 28 29  1  0
 29 30  1  0
 30 31  1  0
 31 32  1  0
 32 33  1  0
 27 34  2  0
  9 35  1  0
  6  1  1  0
 34 10  1  0
 35  4  1  0
 25 17  1  0
 33 28  1  0
 25 20  1  0
  1 36  1  0
  2 37  1  0
  3 38  1  0
  6 39  1  0
  7 40  1  0
  7 41  1  0
  8 42  1  0
  8 43  1  0
 13 44  1  0
 14 45  1  0
 14 46  1  0
 15 47  1  0
 15 48  1  0
 16 49  1  0
 16 50  1  0
 18 51  1  0
 19 52  1  0
 21 53  1  0
 22 54  1  0
 23 55  1  0
 24 56  1  0
 29 57  1  0
 29 58  1  0
 30 59  1  0
 30 60  1  0
 31 61  1  0
 32 62  1  0
 32 63  1  0
 33 64  1  0
 33 65  1  0
 35 66  1  0
 35 67  1  0
M  END
>  <smiles>  (20) 
c1ccc2c(c1)CCN(c1nc(NCCCn3ccc4ccccc43)nc(N3CCNCC3)n1)C2

>  <score_type>  (20) 
oracle

>  <origin>  (20) 
autodockgpu

>  <m_score__min__energy>  (20) 
-10.76

>  <m_primary>  (20) 
energy

>  <rmsd>  (20) 
11.670914553010345

>  <m_score__min__rmsd>  (20) 
11.670914553010345

>  <meeko>  (20) 
{"free_energy": -10.42, "intermolecular_energy": -12.5, "internal_energy": -0.83, "cluster_size": 44, "cluster_id": 1, "rank_in_cluster": 13}

>  <energy>  (20) 
-10.18

>  <cluster_rmsd>  (20) 
1.19

>  <cluster>  (20) 
1

$$$$

     RDKit          3D

 67 72  0  0  0  0  0  0  0  0999 V2000
  140.3310   81.2610  222.5970 C   0  0  0  0  0  0  0  0  0  0  0  0
  140.5940   80.6160  223.7870 C   0  0  0  0  0  0  0  0  0  0  0  0
  140.8220   79.2580  223.7790 C   0  0  0  0  0  0  0  0  0  0  0  0
  140.7880   78.5470  222.5890 C   0  0  0  0  0  0  0  0  0  0  0  0
  140.5220   79.2190  221.4200 C   0  0  0  0  0  0  0  0  0  0  0  0
  140.2880   80.5850  221.3880 C   0  0  0  0  0  0  0  0  0  0  0  0
  140.4960   78.4120  220.1680 C   0  0  0  0  0  0  0  0  0  0  0  0
  141.6320   77.3850  220.2100 C   0  0  0  0  0  0  0  0  0  0  0  0
  141.3960   76.5230  221.3740 N   0  0  0  0  0  0  0  0  0  0  0  0
  141.5140   75.1190  221.2750 C   0  0  0  0  0  0  0  0  0  0  0  0
  140.4850   74.3000  221.5140 N   0  0  0  0  0  0  0  0  0  0  0  0
  140.5710   72.9470  221.4260 C   0  0  0  0  0  0  0  0  0  0  0  0
  139.4490   72.1250  221.6930 N   0  0  0  0  0  0  0  0  0  0  0  0
  138.8780   71.9240  222.9990 C   0  0  0  0  0  0  0  0  0  0  0  0
  138.4010   70.4960  223.1400 C   0  0  0  0  0  0  0  0  0  0  0  0
  139.5830   69.6140  223.4230 C   0  0  0  0  0  0  0  0  0  0  0  0
  139.6780   69.3110  224.8250 N   0  0  0  0  0  0  0  0  0  0  0  0
  139.3250   68.1910  225.4940 C   0  0  0  0  0  0  0  0  0  0  0  0
  139.5900   68.3330  226.8330 C   0  0  0  0  0  0  0  0  0  0  0  0
  140.1280   69.5890  227.0060 C   0  0  0  0  0  0  0  0  0  0  0  0
  140.5630   70.2260  228.1460 C   0  0  0  0  0  0  0  0  0  0  0  0
  141.0700   71.5060  228.0550 C   0  0  0  0  0  0  0  0  0  0  0  0
  141.1250   72.1100  226.8170 C   0  0  0  0  0  0  0  0  0  0  0  0
  140.6870   71.4620  225.6890 C   0  0  0  0  0  0  0  0  0  0  0  0
  140.1750   70.1790  225.7510 C   0  0  0  0  0  0  0  0  0  0  0  0
  141.7670   72.4550  221.0800 N   0  0  0  0  0  0  0  0  0  0  0  0
  142.8210   73.2520  220.8330 C   0  0  0  0  0  0  0  0  0  0  0  0
  144.0550   72.6470  220.4700 N   0  0  0  0  0  0  0  0  0  0  0  0
  145.2620   72.9470  221.2050 C   0  0  0  0  0  0  0  0  0  0  0  0
  146.3460   73.4900  220.3020 C   0  0  0  0  0  0  0  0  0  0  0  0
  145.8960   73.3090  218.9410 N   0  0  0  0  0  0  0  0  0  0  0  0
  145.4840   71.9600  218.6580 C   0  0  0  0  0  0  0  0  0  0  0  0
  144.1600   71.7190  219.3630 C   0  0  0  0  0  0  0  0  0  0  0  0
  142.7190   74.5900  220.9240 N   0  0  0  0  0  0  0  0  0  0  0  0
  141.0380   77.1030  222.6450 C   0  0  0  0  0  0  0  0  0  0  0  0
  140.1497   82.3459  222.6077 H   0  0  0  0  0  0  0  0  0  0  0  0
  140.6213   81.1795  224.7313 H   0  0  0  0  0  0  0  0  0  0  0  0
  141.0325   78.7338  224.7229 H   0  0  0  0  0  0  0  0  0  0  0  0
  140.0774   81.1094  220.4443 H   0  0  0  0  0  0  0  0  0  0  0  0
  139.5309   77.8906  220.0858 H   0  0  0  0  0  0  0  0  0  0  0  0
  140.6258   79.0729  219.2983 H   0  0  0  0  0  0  0  0  0  0  0  0
  141.6302   76.7834  219.2891 H   0  0  0  0  0  0  0  0  0  0  0  0
  142.6082   77.8860  220.2871 H   0  0  0  0  0  0  0  0  0  0  0  0
  138.9990   71.6280  220.8850 H   0  0  0  0  0  0  0  0  0  0  0  0
  139.6394   72.1312  223.7654 H   0  0  0  0  0  0  0  0  0  0  0  0
  138.0238   72.6048  223.1286 H   0  0  0  0  0  0  0  0  0  0  0  0
  137.6819   70.4271  223.9695 H   0  0  0  0  0  0  0  0  0  0  0  0
  137.9096   70.1737  222.2101 H   0  0  0  0  0  0  0  0  0  0  0  0
  139.4745   68.6758  222.8591 H   0  0  0  0  0  0  0  0  0  0  0  0
  140.4966   70.1450  223.1174 H   0  0  0  0  0  0  0  0  0  0  0  0
  138.8878   67.2939  225.0314 H   0  0  0  0  0  0  0  0  0  0  0  0
  139.4074   67.5855  227.6190 H   0  0  0  0  0  0  0  0  0  0  0  0
  140.5069   69.7192  229.1207 H   0  0  0  0  0  0  0  0  0  0  0  0
  141.4235   72.0342  228.9528 H   0  0  0  0  0  0  0  0  0  0  0  0
  141.5274   73.1302  226.7315 H   0  0  0  0  0  0  0  0  0  0  0  0
  140.7444   71.9733  224.7167 H   0  0  0  0  0  0  0  0  0  0  0  0
  145.0324   73.6964  221.9769 H   0  0  0  0  0  0  0  0  0  0  0  0
  145.6285   72.0140  221.6581 H   0  0  0  0  0  0  0  0  0  0  0  0
  146.5075   74.5586  220.5070 H   0  0  0  0  0  0  0  0  0  0  0  0
  147.2972   72.9646  220.4728 H   0  0  0  0  0  0  0  0  0  0  0  0
  146.4750   73.7620  218.2290 H   0  0  0  0  0  0  0  0  0  0  0  0
  145.3595   71.8269  217.5732 H   0  0  0  0  0  0  0  0  0  0  0  0
  146.2421   71.2455  219.0113 H   0  0  0  0  0  0  0  0  0  0  0  0
  143.3298   71.8836  218.6604 H   0  0  0  0  0  0  0  0  0  0  0  0
  144.1117   70.6839  219.7322 H   0  0  0  0  0  0  0  0  0  0  0  0
  140.1254   76.6071  223.0074 H   0  0  0  0  0  0  0  0  0  0  0  0
  141.8953   76.9528  223.3177 H   0  0  0  0  0  0  0  0  0  0  0  0
  1  2  2  0
  2  3  1  0
  3  4  2  0
  4  5  1  0
  5  6  2  0
  5  7  1  0
  7  8  1  0
  8  9  1  0
  9 10  1  0
 10 11  2  0
 11 12  1  0
 12 13  1  0
 13 14  1  0
 14 15  1  0
 15 16  1  0
 16 17  1  0
 17 18  1  0
 18 19  2  0
 19 20  1  0
 20 21  2  0
 21 22  1  0
 22 23  2  0
 23 24  1  0
 24 25  2  0
 12 26  2  0
 26 27  1  0
 27 28  1  0
 28 29  1  0
 29 30  1  0
 30 31  1  0
 31 32  1  0
 32 33  1  0
 27 34  2  0
  9 35  1  0
  6  1  1  0
 34 10  1  0
 35  4  1  0
 25 17  1  0
 33 28  1  0
 25 20  1  0
  1 36  1  0
  2 37  1  0
  3 38  1  0
  6 39  1  0
  7 40  1  0
  7 41  1  0
  8 42  1  0
  8 43  1  0
 13 44  1  0
 14 45  1  0
 14 46  1  0
 15 47  1  0
 15 48  1  0
 16 49  1  0
 16 50  1  0
 18 51  1  0
 19 52  1  0
 21 53  1  0
 22 54  1  0
 23 55  1  0
 24 56  1  0
 29 57  1  0
 29 58  1  0
 30 59  1  0
 30 60  1  0
 31 61  1  0
 32 62  1  0
 32 63  1  0
 33 64  1  0
 33 65  1  0
 35 66  1  0
 35 67  1  0
M  END
>  <smiles>  (21) 
c1ccc2c(c1)CCN(c1nc(NCCCn3ccc4ccccc43)nc(N3CCNCC3)n1)C2

>  <score_type>  (21) 
oracle

>  <origin>  (21) 
autodockgpu

>  <m_score__min__energy>  (21) 
-10.76

>  <m_primary>  (21) 
energy

>  <rmsd>  (21) 
11.365704263938358

>  <m_score__min__rmsd>  (21) 
11.365704263938358

>  <meeko>  (21) 
{"free_energy": -10.19, "intermolecular_energy": -12.28, "internal_energy": -1.05, "cluster_size": 44, "cluster_id": 1, "rank_in_cluster": 19}

>  <energy>  (21) 
-10.18

>  <cluster_rmsd>  (21) 
1.66

>  <cluster>  (21) 
1

$$$$

     RDKit          3D

 67 72  0  0  0  0  0  0  0  0999 V2000
  146.1800   70.2740  219.2710 C   0  0  0  0  0  0  0  0  0  0  0  0
  144.9820   69.5930  219.2290 C   0  0  0  0  0  0  0  0  0  0  0  0
  143.8340   70.2270  219.6510 C   0  0  0  0  0  0  0  0  0  0  0  0
  143.8820   71.5340  220.1130 C   0  0  0  0  0  0  0  0  0  0  0  0
  145.0930   72.1850  220.1410 C   0  0  0  0  0  0  0  0  0  0  0  0
  146.2690   71.5800  219.7250 C   0  0  0  0  0  0  0  0  0  0  0  0
  145.0930   73.5870  220.6450 C   0  0  0  0  0  0  0  0  0  0  0  0
  143.8560   74.3130  220.1080 C   0  0  0  0  0  0  0  0  0  0  0  0
  142.6790   73.5940  220.6090 N   0  0  0  0  0  0  0  0  0  0  0  0
  141.5800   74.2920  221.1580 C   0  0  0  0  0  0  0  0  0  0  0  0
  140.4350   73.6800  221.4760 N   0  0  0  0  0  0  0  0  0  0  0  0
  139.3640   74.3280  222.0050 C   0  0  0  0  0  0  0  0  0  0  0  0
  138.1730   73.6300  222.3210 N   0  0  0  0  0  0  0  0  0  0  0  0
  137.9060   72.2640  221.9540 C   0  0  0  0  0  0  0  0  0  0  0  0
  138.1530   71.3530  223.1340 C   0  0  0  0  0  0  0  0  0  0  0  0
  139.6040   70.9700  223.1580 C   0  0  0  0  0  0  0  0  0  0  0  0
  140.1000   70.9000  224.5050 N   0  0  0  0  0  0  0  0  0  0  0  0
  140.7410   71.8350  225.2410 C   0  0  0  0  0  0  0  0  0  0  0  0
  141.0370   71.3390  226.4860 C   0  0  0  0  0  0  0  0  0  0  0  0
  140.5640   70.0470  226.5290 C   0  0  0  0  0  0  0  0  0  0  0  0
  140.6030   69.1130  227.5390 C   0  0  0  0  0  0  0  0  0  0  0  0
  140.0510   67.8660  227.3310 C   0  0  0  0  0  0  0  0  0  0  0  0
  139.4720   67.5940  226.1090 C   0  0  0  0  0  0  0  0  0  0  0  0
  139.4400   68.5360  225.1110 C   0  0  0  0  0  0  0  0  0  0  0  0
  139.9870   69.7930  225.2930 C   0  0  0  0  0  0  0  0  0  0  0  0
  139.5090   75.6440  222.1990 N   0  0  0  0  0  0  0  0  0  0  0  0
  140.6480   76.2880  221.8890 C   0  0  0  0  0  0  0  0  0  0  0  0
  140.7190   77.6880  222.1280 N   0  0  0  0  0  0  0  0  0  0  0  0
  140.4380   78.6270  221.0680 C   0  0  0  0  0  0  0  0  0  0  0  0
  141.5990   79.5650  220.8290 C   0  0  0  0  0  0  0  0  0  0  0  0
  142.5340   79.3670  221.9120 N   0  0  0  0  0  0  0  0  0  0  0  0
  141.9240   79.4700  223.2100 C   0  0  0  0  0  0  0  0  0  0  0  0
  141.0720   78.2290  223.4250 C   0  0  0  0  0  0  0  0  0  0  0  0
  141.6990   75.6330  221.3680 N   0  0  0  0  0  0  0  0  0  0  0  0
  142.6270   72.1540  220.5480 C   0  0  0  0  0  0  0  0  0  0  0  0
  147.0944   69.7642  218.9333 H   0  0  0  0  0  0  0  0  0  0  0  0
  144.9433   68.5564  218.8631 H   0  0  0  0  0  0  0  0  0  0  0  0
  142.8727   69.6931  219.6214 H   0  0  0  0  0  0  0  0  0  0  0  0
  147.2306   72.1134  219.7541 H   0  0  0  0  0  0  0  0  0  0  0  0
  145.0692   73.5830  221.7447 H   0  0  0  0  0  0  0  0  0  0  0  0
  146.0026   74.1032  220.3041 H   0  0  0  0  0  0  0  0  0  0  0  0
  143.8436   75.3526  220.4672 H   0  0  0  0  0  0  0  0  0  0  0  0
  143.8621   74.3334  219.0082 H   0  0  0  0  0  0  0  0  0  0  0  0
  137.4310   74.1400  222.8610 H   0  0  0  0  0  0  0  0  0  0  0  0
  136.8573   72.1709  221.6354 H   0  0  0  0  0  0  0  0  0  0  0  0
  138.5740   71.9750  221.1292 H   0  0  0  0  0  0  0  0  0  0  0  0
  137.8942   71.8774  224.0657 H   0  0  0  0  0  0  0  0  0  0  0  0
  137.5310   70.4502  223.0441 H   0  0  0  0  0  0  0  0  0  0  0  0
  139.7236   69.9866  222.6799 H   0  0  0  0  0  0  0  0  0  0  0  0
  140.1761   71.7369  222.6152 H   0  0  0  0  0  0  0  0  0  0  0  0
  140.9897   72.8481  224.8922 H   0  0  0  0  0  0  0  0  0  0  0  0
  141.5545   71.8731  227.2965 H   0  0  0  0  0  0  0  0  0  0  0  0
  141.0704   69.3587  228.5040 H   0  0  0  0  0  0  0  0  0  0  0  0
  140.0722   67.1038  228.1238 H   0  0  0  0  0  0  0  0  0  0  0  0
  139.0276   66.6037  225.9308 H   0  0  0  0  0  0  0  0  0  0  0  0
  138.9703   68.2862  224.1482 H   0  0  0  0  0  0  0  0  0  0  0  0
  140.2343   78.0689  220.1422 H   0  0  0  0  0  0  0  0  0  0  0  0
  139.5667   79.2290  221.3655 H   0  0  0  0  0  0  0  0  0  0  0  0
  142.0803   79.3326  219.8676 H   0  0  0  0  0  0  0  0  0  0  0  0
  141.2573   80.6100  220.7925 H   0  0  0  0  0  0  0  0  0  0  0  0
  143.4350   79.8400  221.7990 H   0  0  0  0  0  0  0  0  0  0  0  0
  142.7022   79.5282  223.9853 H   0  0  0  0  0  0  0  0  0  0  0  0
  141.3037   80.3764  223.2714 H   0  0  0  0  0  0  0  0  0  0  0  0
  141.6414   77.4817  223.9971 H   0  0  0  0  0  0  0  0  0  0  0  0
  140.1628   78.4869  223.9878 H   0  0  0  0  0  0  0  0  0  0  0  0
  142.3814   71.7732  221.5503 H   0  0  0  0  0  0  0  0  0  0  0  0
  141.8645   71.8926  219.7994 H   0  0  0  0  0  0  0  0  0  0  0  0
  1  2  2  0
  2  3  1  0
  3  4  2  0
  4  5  1  0
  5  6  2  0
  5  7  1  0
  7  8  1  0
  8  9  1  0
  9 10  1  0
 10 11  2  0
 11 12  1  0
 12 13  1  0
 13 14  1  0
 14 15  1  0
 15 16  1  0
 16 17  1  0
 17 18  1  0
 18 19  2  0
 19 20  1  0
 20 21  2  0
 21 22  1  0
 22 23  2  0
 23 24  1  0
 24 25  2  0
 12 26  2  0
 26 27  1  0
 27 28  1  0
 28 29  1  0
 29 30  1  0
 30 31  1  0
 31 32  1  0
 32 33  1  0
 27 34  2  0
  9 35  1  0
  6  1  1  0
 34 10  1  0
 35  4  1  0
 25 17  1  0
 33 28  1  0
 25 20  1  0
  1 36  1  0
  2 37  1  0
  3 38  1  0
  6 39  1  0
  7 40  1  0
  7 41  1  0
  8 42  1  0
  8 43  1  0
 13 44  1  0
 14 45  1  0
 14 46  1  0
 15 47  1  0
 15 48  1  0
 16 49  1  0
 16 50  1  0
 18 51  1  0
 19 52  1  0
 21 53  1  0
 22 54  1  0
 23 55  1  0
 24 56  1  0
 29 57  1  0
 29 58  1  0
 30 59  1  0
 30 60  1  0
 31 61  1  0
 32 62  1  0
 32 63  1  0
 33 64  1  0
 33 65  1  0
 35 66  1  0
 35 67  1  0
M  END
>  <smiles>  (22) 
c1ccc2c(c1)CCN(c1nc(NCCCn3ccc4ccccc43)nc(N3CCNCC3)n1)C2

>  <score_type>  (22) 
oracle

>  <origin>  (22) 
autodockgpu

>  <m_score__min__energy>  (22) 
-10.76

>  <m_primary>  (22) 
energy

>  <rmsd>  (22) 
11.504021994560263

>  <m_score__min__rmsd>  (22) 
11.504021994560263

>  <meeko>  (22) 
{"free_energy": -9.74, "intermolecular_energy": -11.83, "internal_energy": -1.3, "cluster_size": 4, "cluster_id": 2, "rank_in_cluster": 3}

>  <energy>  (22) 
-10.17

>  <cluster_rmsd>  (22) 
1.48

>  <cluster>  (22) 
1

$$$$

     RDKit          3D

 67 72  0  0  0  0  0  0  0  0999 V2000
  140.0780   68.4300  227.6740 C   0  0  0  0  0  0  0  0  0  0  0  0
  140.7590   69.5630  228.0680 C   0  0  0  0  0  0  0  0  0  0  0  0
  140.9710   70.5710  227.1540 C   0  0  0  0  0  0  0  0  0  0  0  0
  140.5060   70.4500  225.8540 C   0  0  0  0  0  0  0  0  0  0  0  0
  139.8300   69.3080  225.4930 C   0  0  0  0  0  0  0  0  0  0  0  0
  139.5980   68.2720  226.3840 C   0  0  0  0  0  0  0  0  0  0  0  0
  139.3500   69.2260  224.0850 C   0  0  0  0  0  0  0  0  0  0  0  0
  138.8070   70.5930  223.6590 C   0  0  0  0  0  0  0  0  0  0  0  0
  139.9140   71.5510  223.7620 N   0  0  0  0  0  0  0  0  0  0  0  0
  140.1700   72.4790  222.7280 C   0  0  0  0  0  0  0  0  0  0  0  0
  139.2700   73.3930  222.3540 N   0  0  0  0  0  0  0  0  0  0  0  0
  139.4900   74.2970  221.3630 C   0  0  0  0  0  0  0  0  0  0  0  0
  138.4980   75.2430  221.0050 N   0  0  0  0  0  0  0  0  0  0  0  0
  138.4080   76.5740  221.5460 C   0  0  0  0  0  0  0  0  0  0  0  0
  139.5170   76.8010  222.5470 C   0  0  0  0  0  0  0  0  0  0  0  0
  140.7210   77.3360  221.8270 C   0  0  0  0  0  0  0  0  0  0  0  0
  141.2350   78.5090  222.4790 N   0  0  0  0  0  0  0  0  0  0  0  0
  141.8480   78.6340  223.6770 C   0  0  0  0  0  0  0  0  0  0  0  0
  142.1750   79.9470  223.9090 C   0  0  0  0  0  0  0  0  0  0  0  0
  141.7500   80.6680  222.8160 C   0  0  0  0  0  0  0  0  0  0  0  0
  141.8320   82.0150  222.5450 C   0  0  0  0  0  0  0  0  0  0  0  0
  141.3220   82.5000  221.3590 C   0  0  0  0  0  0  0  0  0  0  0  0
  140.7430   81.6140  220.4750 C   0  0  0  0  0  0  0  0  0  0  0  0
  140.6680   80.2730  220.7600 C   0  0  0  0  0  0  0  0  0  0  0  0
  141.1700   79.7600  221.9410 C   0  0  0  0  0  0  0  0  0  0  0  0
  140.6830   74.2310  220.7610 N   0  0  0  0  0  0  0  0  0  0  0  0
  141.6100   73.3230  221.1140 C   0  0  0  0  0  0  0  0  0  0  0  0
  142.8530   73.3220  220.4240 N   0  0  0  0  0  0  0  0  0  0  0  0
  143.2510   72.1800  219.6350 C   0  0  0  0  0  0  0  0  0  0  0  0
  144.5800   71.6220  220.0900 C   0  0  0  0  0  0  0  0  0  0  0  0
  145.1400   72.5690  221.0260 N   0  0  0  0  0  0  0  0  0  0  0  0
  145.1860   73.9110  220.5110 C   0  0  0  0  0  0  0  0  0  0  0  0
  143.7640   74.4470  220.4790 C   0  0  0  0  0  0  0  0  0  0  0  0
  141.3770   72.4360  222.0970 N   0  0  0  0  0  0  0  0  0  0  0  0
  140.7630   71.5570  224.9280 C   0  0  0  0  0  0  0  0  0  0  0  0
  139.9108   67.6269  228.4069 H   0  0  0  0  0  0  0  0  0  0  0  0
  141.1282   69.6602  229.0996 H   0  0  0  0  0  0  0  0  0  0  0  0
  141.5132   71.4786  227.4578 H   0  0  0  0  0  0  0  0  0  0  0  0
  139.0565   67.3640  226.0802 H   0  0  0  0  0  0  0  0  0  0  0  0
  140.1844   68.9402  223.4277 H   0  0  0  0  0  0  0  0  0  0  0  0
  138.5534   68.4713  224.0090 H   0  0  0  0  0  0  0  0  0  0  0  0
  138.4433   70.5475  222.6219 H   0  0  0  0  0  0  0  0  0  0  0  0
  137.9668   70.8967  224.3008 H   0  0  0  0  0  0  0  0  0  0  0  0
  137.7790   74.9580  220.2950 H   0  0  0  0  0  0  0  0  0  0  0  0
  138.4985   77.3059  220.7298 H   0  0  0  0  0  0  0  0  0  0  0  0
  137.4372   76.6944  222.0491 H   0  0  0  0  0  0  0  0  0  0  0  0
  139.1873   77.5269  223.3048 H   0  0  0  0  0  0  0  0  0  0  0  0
  139.7707   75.8526  223.0431 H   0  0  0  0  0  0  0  0  0  0  0  0
  141.5029   76.5624  221.8105 H   0  0  0  0  0  0  0  0  0  0  0  0
  140.4238   77.6073  220.8032 H   0  0  0  0  0  0  0  0  0  0  0  0
  142.0552   77.8029  224.3672 H   0  0  0  0  0  0  0  0  0  0  0  0
  142.6810   80.3473  224.7999 H   0  0  0  0  0  0  0  0  0  0  0  0
  142.3003   82.6988  223.2682 H   0  0  0  0  0  0  0  0  0  0  0  0
  141.3760   83.5730  221.1227 H   0  0  0  0  0  0  0  0  0  0  0  0
  140.3340   81.9882  219.5249 H   0  0  0  0  0  0  0  0  0  0  0  0
  140.1988   79.5932  220.0336 H   0  0  0  0  0  0  0  0  0  0  0  0
  142.4844   71.3968  219.7294 H   0  0  0  0  0  0  0  0  0  0  0  0
  143.3555   72.5052  218.5894 H   0  0  0  0  0  0  0  0  0  0  0  0
  144.4325   70.6486  220.5807 H   0  0  0  0  0  0  0  0  0  0  0  0
  145.2549   71.4711  219.2346 H   0  0  0  0  0  0  0  0  0  0  0  0
  145.9780   72.2480  221.5200 H   0  0  0  0  0  0  0  0  0  0  0  0
  145.8084   74.5408  221.1636 H   0  0  0  0  0  0  0  0  0  0  0  0
  145.6220   73.9196  219.5011 H   0  0  0  0  0  0  0  0  0  0  0  0
  143.5694   75.0387  221.3856 H   0  0  0  0  0  0  0  0  0  0  0  0
  143.6225   75.0916  219.5989 H   0  0  0  0  0  0  0  0  0  0  0  0
  141.8095   71.4945  224.5950 H   0  0  0  0  0  0  0  0  0  0  0  0
  140.5493   72.4874  225.4745 H   0  0  0  0  0  0  0  0  0  0  0  0
  1  2  2  0
  2  3  1  0
  3  4  2  0
  4  5  1  0
  5  6  2  0
  5  7  1  0
  7  8  1  0
  8  9  1  0
  9 10  1  0
 10 11  2  0
 11 12  1  0
 12 13  1  0
 13 14  1  0
 14 15  1  0
 15 16  1  0
 16 17  1  0
 17 18  1  0
 18 19  2  0
 19 20  1  0
 20 21  2  0
 21 22  1  0
 22 23  2  0
 23 24  1  0
 24 25  2  0
 12 26  2  0
 26 27  1  0
 27 28  1  0
 28 29  1  0
 29 30  1  0
 30 31  1  0
 31 32  1  0
 32 33  1  0
 27 34  2  0
  9 35  1  0
  6  1  1  0
 34 10  1  0
 35  4  1  0
 25 17  1  0
 33 28  1  0
 25 20  1  0
  1 36  1  0
  2 37  1  0
  3 38  1  0
  6 39  1  0
  7 40  1  0
  7 41  1  0
  8 42  1  0
  8 43  1  0
 13 44  1  0
 14 45  1  0
 14 46  1  0
 15 47  1  0
 15 48  1  0
 16 49  1  0
 16 50  1  0
 18 51  1  0
 19 52  1  0
 21 53  1  0
 22 54  1  0
 23 55  1  0
 24 56  1  0
 29 57  1  0
 29 58  1  0
 30 59  1  0
 30 60  1  0
 31 61  1  0
 32 62  1  0
 32 63  1  0
 33 64  1  0
 33 65  1  0
 35 66  1  0
 35 67  1  0
M  END
>  <smiles>  (23) 
c1ccc2c(c1)CCN(c1nc(NCCCn3ccc4ccccc43)nc(N3CCNCC3)n1)C2

>  <score_type>  (23) 
oracle

>  <origin>  (23) 
autodockgpu

>  <m_score__min__energy>  (23) 
-10.76

>  <m_primary>  (23) 
energy

>  <rmsd>  (23) 
3.560582983458532

>  <m_score__min__rmsd>  (23) 
3.560582983458532

>  <meeko>  (23) 
{"free_energy": -9.91, "intermolecular_energy": -12.0, "internal_energy": -1.15, "cluster_size": 44, "cluster_id": 1, "rank_in_cluster": 27}

>  <energy>  (23) 
-10.07

>  <cluster_rmsd>  (23) 
1.52

>  <cluster>  (23) 
1

$$$$

     RDKit          3D

 67 72  0  0  0  0  0  0  0  0999 V2000
  141.4470   82.0500  221.4030 C   0  0  0  0  0  0  0  0  0  0  0  0
  141.6920   81.6090  220.1200 C   0  0  0  0  0  0  0  0  0  0  0  0
  141.7550   80.2550  219.8760 C   0  0  0  0  0  0  0  0  0  0  0  0
  141.5740   79.3460  220.9070 C   0  0  0  0  0  0  0  0  0  0  0  0
  141.3310   79.8190  222.1750 C   0  0  0  0  0  0  0  0  0  0  0  0
  141.2610   81.1740  222.4590 C   0  0  0  0  0  0  0  0  0  0  0  0
  141.1420   78.8030  223.2490 C   0  0  0  0  0  0  0  0  0  0  0  0
  140.3070   77.6430  222.7010 C   0  0  0  0  0  0  0  0  0  0  0  0
  141.0540   77.0620  221.5790 N   0  0  0  0  0  0  0  0  0  0  0  0
  141.2010   75.6630  221.4510 C   0  0  0  0  0  0  0  0  0  0  0  0
  140.4020   74.8020  222.0870 N   0  0  0  0  0  0  0  0  0  0  0  0
  140.5220   73.4530  221.9810 C   0  0  0  0  0  0  0  0  0  0  0  0
  139.6470   72.5850  222.6810 N   0  0  0  0  0  0  0  0  0  0  0  0
  139.9090   71.1910  222.9300 C   0  0  0  0  0  0  0  0  0  0  0  0
  138.6080   70.4250  223.0010 C   0  0  0  0  0  0  0  0  0  0  0  0
  138.1170   70.4300  224.4190 C   0  0  0  0  0  0  0  0  0  0  0  0
  138.8330   69.4720  225.2180 N   0  0  0  0  0  0  0  0  0  0  0  0
  138.8540   68.1240  225.1380 C   0  0  0  0  0  0  0  0  0  0  0  0
  139.6780   67.6040  226.1060 C   0  0  0  0  0  0  0  0  0  0  0  0
  140.1870   68.6680  226.8160 C   0  0  0  0  0  0  0  0  0  0  0  0
  141.0550   68.6970  227.8840 C   0  0  0  0  0  0  0  0  0  0  0  0
  141.4200   69.9110  228.4280 C   0  0  0  0  0  0  0  0  0  0  0  0
  140.9000   71.0650  227.8810 C   0  0  0  0  0  0  0  0  0  0  0  0
  140.0350   71.0200  226.8150 C   0  0  0  0  0  0  0  0  0  0  0  0
  139.6530   69.8170  226.2510 C   0  0  0  0  0  0  0  0  0  0  0  0
  141.5060   73.0090  221.1900 N   0  0  0  0  0  0  0  0  0  0  0  0
  142.3270   73.8500  220.5360 C   0  0  0  0  0  0  0  0  0  0  0  0
  143.3460   73.2960  219.7140 N   0  0  0  0  0  0  0  0  0  0  0  0
  143.2300   71.9470  219.2120 C   0  0  0  0  0  0  0  0  0  0  0  0
  144.4100   71.0950  219.6220 C   0  0  0  0  0  0  0  0  0  0  0  0
  145.3980   71.9830  220.1900 N   0  0  0  0  0  0  0  0  0  0  0  0
  145.7160   73.0950  219.3360 C   0  0  0  0  0  0  0  0  0  0  0  0
  144.5310   74.0460  219.3490 C   0  0  0  0  0  0  0  0  0  0  0  0
  142.1940   75.1830  220.6510 N   0  0  0  0  0  0  0  0  0  0  0  0
  141.6520   77.9180  220.5850 C   0  0  0  0  0  0  0  0  0  0  0  0
  141.3977   83.1322  221.5938 H   0  0  0  0  0  0  0  0  0  0  0  0
  141.8354   82.3296  219.3013 H   0  0  0  0  0  0  0  0  0  0  0  0
  141.9503   79.8923  218.8560 H   0  0  0  0  0  0  0  0  0  0  0  0
  141.0662   81.5374  223.4788 H   0  0  0  0  0  0  0  0  0  0  0  0
  142.1225   78.4279  223.5776 H   0  0  0  0  0  0  0  0  0  0  0  0
  140.6235   79.2606  224.1044 H   0  0  0  0  0  0  0  0  0  0  0  0
  140.1541   76.8859  223.4842 H   0  0  0  0  0  0  0  0  0  0  0  0
  139.3186   77.9953  222.3711 H   0  0  0  0  0  0  0  0  0  0  0  0
  138.7450   72.9810  223.0440 H   0  0  0  0  0  0  0  0  0  0  0  0
  140.5266   70.7852  222.1152 H   0  0  0  0  0  0  0  0  0  0  0  0
  140.4407   71.0890  223.8875 H   0  0  0  0  0  0  0  0  0  0  0  0
  137.8616   70.9040  222.3502 H   0  0  0  0  0  0  0  0  0  0  0  0
  138.7667   69.3895  222.6655 H   0  0  0  0  0  0  0  0  0  0  0  0
  138.2616   71.4335  224.8458 H   0  0  0  0  0  0  0  0  0  0  0  0
  137.0508   70.1593  224.4206 H   0  0  0  0  0  0  0  0  0  0  0  0
  138.2922   67.5284  224.4034 H   0  0  0  0  0  0  0  0  0  0  0  0
  139.8909   66.5391  226.2809 H   0  0  0  0  0  0  0  0  0  0  0  0
  141.4541   67.7602  228.3001 H   0  0  0  0  0  0  0  0  0  0  0  0
  142.1124   69.9575  229.2815 H   0  0  0  0  0  0  0  0  0  0  0  0
  141.1830   72.0393  228.3060 H   0  0  0  0  0  0  0  0  0  0  0  0
  139.6386   71.9593  226.4021 H   0  0  0  0  0  0  0  0  0  0  0  0
  142.3091   71.4962  219.6104 H   0  0  0  0  0  0  0  0  0  0  0  0
  143.2036   71.9908  218.1132 H   0  0  0  0  0  0  0  0  0  0  0  0
  144.0968   70.3513  220.3696 H   0  0  0  0  0  0  0  0  0  0  0  0
  144.8212   70.5535  218.7573 H   0  0  0  0  0  0  0  0  0  0  0  0
  146.1930   71.5170  220.6380 H   0  0  0  0  0  0  0  0  0  0  0  0
  146.6129   73.6099  219.7108 H   0  0  0  0  0  0  0  0  0  0  0  0
  145.9176   72.7471  218.3121 H   0  0  0  0  0  0  0  0  0  0  0  0
  144.7050   74.8462  220.0835 H   0  0  0  0  0  0  0  0  0  0  0  0
  144.3998   74.4996  218.3555 H   0  0  0  0  0  0  0  0  0  0  0  0
  142.7123   77.6431  220.4837 H   0  0  0  0  0  0  0  0  0  0  0  0
  141.0865   77.7692  219.6533 H   0  0  0  0  0  0  0  0  0  0  0  0
  1  2  2  0
  2  3  1  0
  3  4  2  0
  4  5  1  0
  5  6  2  0
  5  7  1  0
  7  8  1  0
  8  9  1  0
  9 10  1  0
 10 11  2  0
 11 12  1  0
 12 13  1  0
 13 14  1  0
 14 15  1  0
 15 16  1  0
 16 17  1  0
 17 18  1  0
 18 19  2  0
 19 20  1  0
 20 21  2  0
 21 22  1  0
 22 23  2  0
 23 24  1  0
 24 25  2  0
 12 26  2  0
 26 27  1  0
 27 28  1  0
 28 29  1  0
 29 30  1  0
 30 31  1  0
 31 32  1  0
 32 33  1  0
 27 34  2  0
  9 35  1  0
  6  1  1  0
 34 10  1  0
 35  4  1  0
 25 17  1  0
 33 28  1  0
 25 20  1  0
  1 36  1  0
  2 37  1  0
  3 38  1  0
  6 39  1  0
  7 40  1  0
  7 41  1  0
  8 42  1  0
  8 43  1  0
 13 44  1  0
 14 45  1  0
 14 46  1  0
 15 47  1  0
 15 48  1  0
 16 49  1  0
 16 50  1  0
 18 51  1  0
 19 52  1  0
 21 53  1  0
 22 54  1  0
 23 55  1  0
 24 56  1  0
 29 57  1  0
 29 58  1  0
 30 59  1  0
 30 60  1  0
 31 61  1  0
 32 62  1  0
 32 63  1  0
 33 64  1  0
 33 65  1  0
 35 66  1  0
 35 67  1  0
M  END
>  <smiles>  (24) 
c1ccc2c(c1)CCN(c1nc(NCCCn3ccc4ccccc43)nc(N3CCNCC3)n1)C2

>  <score_type>  (24) 
oracle

>  <origin>  (24) 
autodockgpu

>  <m_score__min__energy>  (24) 
-10.76

>  <m_primary>  (24) 
energy

>  <rmsd>  (24) 
11.9671667713278

>  <m_score__min__rmsd>  (24) 
11.9671667713278

>  <meeko>  (24) 
{"free_energy": -10.17, "intermolecular_energy": -12.26, "internal_energy": -0.94, "cluster_size": 44, "cluster_id": 1, "rank_in_cluster": 22}

>  <energy>  (24) 
-9.96

>  <cluster_rmsd>  (24) 
1.56

>  <cluster>  (24) 
1

$$$$

     RDKit          3D

 67 72  0  0  0  0  0  0  0  0999 V2000
  140.2030   68.4600  227.7590 C   0  0  0  0  0  0  0  0  0  0  0  0
  140.8390   69.6270  228.1260 C   0  0  0  0  0  0  0  0  0  0  0  0
  140.9910   70.6310  227.1960 C   0  0  0  0  0  0  0  0  0  0  0  0
  140.5120   70.4710  225.9050 C   0  0  0  0  0  0  0  0  0  0  0  0
  139.8820   69.2960  225.5700 C   0  0  0  0  0  0  0  0  0  0  0  0
  139.7100   68.2630  226.4780 C   0  0  0  0  0  0  0  0  0  0  0  0
  139.3840   69.1720  224.1710 C   0  0  0  0  0  0  0  0  0  0  0  0
  138.7740   70.5090  223.7360 C   0  0  0  0  0  0  0  0  0  0  0  0
  139.8400   71.5160  223.8080 N   0  0  0  0  0  0  0  0  0  0  0  0
  140.0380   72.4400  222.7590 C   0  0  0  0  0  0  0  0  0  0  0  0
  139.0930   73.3110  222.3900 N   0  0  0  0  0  0  0  0  0  0  0  0
  139.2580   74.2100  221.3850 C   0  0  0  0  0  0  0  0  0  0  0  0
  138.2220   75.1110  221.0340 N   0  0  0  0  0  0  0  0  0  0  0  0
  137.4450   75.8680  221.9800 C   0  0  0  0  0  0  0  0  0  0  0  0
  136.5240   76.8180  221.2500 C   0  0  0  0  0  0  0  0  0  0  0  0
  137.3300   77.9700  220.7250 C   0  0  0  0  0  0  0  0  0  0  0  0
  137.8890   78.7430  221.8010 N   0  0  0  0  0  0  0  0  0  0  0  0
  137.3210   79.7070  222.5590 C   0  0  0  0  0  0  0  0  0  0  0  0
  138.2240   80.1840  223.4760 C   0  0  0  0  0  0  0  0  0  0  0  0
  139.3980   79.4920  223.2830 C   0  0  0  0  0  0  0  0  0  0  0  0
  140.6080   79.5850  223.9330 C   0  0  0  0  0  0  0  0  0  0  0  0
  141.6490   78.7670  223.5460 C   0  0  0  0  0  0  0  0  0  0  0  0
  141.4440   77.8780  222.5130 C   0  0  0  0  0  0  0  0  0  0  0  0
  140.2320   77.7970  221.8730 C   0  0  0  0  0  0  0  0  0  0  0  0
  139.1710   78.6040  222.2410 C   0  0  0  0  0  0  0  0  0  0  0  0
  140.4410   74.1850  220.7600 N   0  0  0  0  0  0  0  0  0  0  0  0
  141.4110   73.3200  221.1070 C   0  0  0  0  0  0  0  0  0  0  0  0
  142.6390   73.3600  220.3920 N   0  0  0  0  0  0  0  0  0  0  0  0
  143.0260   72.2620  219.5380 C   0  0  0  0  0  0  0  0  0  0  0  0
  144.3660   71.6870  219.9370 C   0  0  0  0  0  0  0  0  0  0  0  0
  144.9410   72.5890  220.9090 N   0  0  0  0  0  0  0  0  0  0  0  0
  144.9720   73.9550  220.4630 C   0  0  0  0  0  0  0  0  0  0  0  0
  143.5470   74.4850  220.4860 C   0  0  0  0  0  0  0  0  0  0  0  0
  141.2330   72.4380  222.1050 N   0  0  0  0  0  0  0  0  0  0  0  0
  140.7050   71.5760  224.9600 C   0  0  0  0  0  0  0  0  0  0  0  0
  140.0830   67.6608  228.5052 H   0  0  0  0  0  0  0  0  0  0  0  0
  141.2205   69.7545  229.1498 H   0  0  0  0  0  0  0  0  0  0  0  0
  141.4959   71.5663  227.4794 H   0  0  0  0  0  0  0  0  0  0  0  0
  139.2046   67.3279  226.1948 H   0  0  0  0  0  0  0  0  0  0  0  0
  140.2197   68.9139  223.5039 H   0  0  0  0  0  0  0  0  0  0  0  0
  138.6209   68.3815  224.1177 H   0  0  0  0  0  0  0  0  0  0  0  0
  138.3959   70.4334  222.7058 H   0  0  0  0  0  0  0  0  0  0  0  0
  137.9317   70.7845  224.3876 H   0  0  0  0  0  0  0  0  0  0  0  0
  138.0040   75.2380  220.0140 H   0  0  0  0  0  0  0  0  0  0  0  0
  136.8458   75.1790  222.5934 H   0  0  0  0  0  0  0  0  0  0  0  0
  138.1238   76.4466  222.6238 H   0  0  0  0  0  0  0  0  0  0  0  0
  136.0409   76.2934  220.4125 H   0  0  0  0  0  0  0  0  0  0  0  0
  135.7494   77.1881  221.9378 H   0  0  0  0  0  0  0  0  0  0  0  0
  138.1471   77.5814  220.0994 H   0  0  0  0  0  0  0  0  0  0  0  0
  136.6674   78.6202  220.1350 H   0  0  0  0  0  0  0  0  0  0  0  0
  136.2839   80.0588  222.4559 H   0  0  0  0  0  0  0  0  0  0  0  0
  138.0436   80.9705  224.2236 H   0  0  0  0  0  0  0  0  0  0  0  0
  140.7434   80.3051  224.7535 H   0  0  0  0  0  0  0  0  0  0  0  0
  142.6240   78.8231  224.0521 H   0  0  0  0  0  0  0  0  0  0  0  0
  142.2670   77.2209  222.1953 H   0  0  0  0  0  0  0  0  0  0  0  0
  140.1025   77.0765  221.0520 H   0  0  0  0  0  0  0  0  0  0  0  0
  142.2643   71.4714  219.6070 H   0  0  0  0  0  0  0  0  0  0  0  0
  143.1091   72.6415  218.5089 H   0  0  0  0  0  0  0  0  0  0  0  0
  144.2319   70.6894  220.3805 H   0  0  0  0  0  0  0  0  0  0  0  0
  145.0241   71.5819  219.0619 H   0  0  0  0  0  0  0  0  0  0  0  0
  145.7900   72.2460  221.3690 H   0  0  0  0  0  0  0  0  0  0  0  0
  145.6046   74.5536  221.1350 H   0  0  0  0  0  0  0  0  0  0  0  0
  145.3884   74.0176  219.4468 H   0  0  0  0  0  0  0  0  0  0  0  0
  143.3682   75.0293  221.4250 H   0  0  0  0  0  0  0  0  0  0  0  0
  143.3858   75.1723  219.6424 H   0  0  0  0  0  0  0  0  0  0  0  0
  141.7482   71.5558  224.6115 H   0  0  0  0  0  0  0  0  0  0  0  0
  140.4578   72.5033  225.4975 H   0  0  0  0  0  0  0  0  0  0  0  0
  1  2  2  0
  2  3  1  0
  3  4  2  0
  4  5  1  0
  5  6  2  0
  5  7  1  0
  7  8  1  0
  8  9  1  0
  9 10  1  0
 10 11  2  0
 11 12  1  0
 12 13  1  0
 13 14  1  0
 14 15  1  0
 15 16  1  0
 16 17  1  0
 17 18  1  0
 18 19  2  0
 19 20  1  0
 20 21  2  0
 21 22  1  0
 22 23  2  0
 23 24  1  0
 24 25  2  0
 12 26  2  0
 26 27  1  0
 27 28  1  0
 28 29  1  0
 29 30  1  0
 30 31  1  0
 31 32  1  0
 32 33  1  0
 27 34  2  0
  9 35  1  0
  6  1  1  0
 34 10  1  0
 35  4  1  0
 25 17  1  0
 33 28  1  0
 25 20  1  0
  1 36  1  0
  2 37  1  0
  3 38  1  0
  6 39  1  0
  7 40  1  0
  7 41  1  0
  8 42  1  0
  8 43  1  0
 13 44  1  0
 14 45  1  0
 14 46  1  0
 15 47  1  0
 15 48  1  0
 16 49  1  0
 16 50  1  0
 18 51  1  0
 19 52  1  0
 21 53  1  0
 22 54  1  0
 23 55  1  0
 24 56  1  0
 29 57  1  0
 29 58  1  0
 30 59  1  0
 30 60  1  0
 31 61  1  0
 32 62  1  0
 32 63  1  0
 33 64  1  0
 33 65  1  0
 35 66  1  0
 35 67  1  0
M  END
>  <smiles>  (25) 
c1ccc2c(c1)CCN(c1nc(NCCCn3ccc4ccccc43)nc(N3CCNCC3)n1)C2

>  <score_type>  (25) 
oracle

>  <origin>  (25) 
autodockgpu

>  <m_score__min__energy>  (25) 
-10.76

>  <m_primary>  (25) 
energy

>  <rmsd>  (25) 
4.470527319847342

>  <m_score__min__rmsd>  (25) 
4.470527319847342

>  <meeko>  (25) 
{"free_energy": -8.9, "intermolecular_energy": -10.98, "internal_energy": -1.32, "cluster_size": 44, "cluster_id": 1, "rank_in_cluster": 44}

>  <energy>  (25) 
-9.96

>  <cluster_rmsd>  (25) 
1.7

>  <cluster>  (25) 
1

$$$$

     RDKit          3D

 67 72  0  0  0  0  0  0  0  0999 V2000
  140.0020   68.3510  227.5840 C   0  0  0  0  0  0  0  0  0  0  0  0
  140.6750   69.4800  227.9990 C   0  0  0  0  0  0  0  0  0  0  0  0
  140.8880   70.5030  227.1020 C   0  0  0  0  0  0  0  0  0  0  0  0
  140.4330   70.3990  225.7960 C   0  0  0  0  0  0  0  0  0  0  0  0
  139.7650   69.2590  225.4140 C   0  0  0  0  0  0  0  0  0  0  0  0
  139.5320   68.2090  226.2880 C   0  0  0  0  0  0  0  0  0  0  0  0
  139.2960   69.1950  224.0010 C   0  0  0  0  0  0  0  0  0  0  0  0
  138.7490   70.5660  223.5920 C   0  0  0  0  0  0  0  0  0  0  0  0
  139.8510   71.5270  223.7160 N   0  0  0  0  0  0  0  0  0  0  0  0
  140.1090   72.4720  222.6980 C   0  0  0  0  0  0  0  0  0  0  0  0
  139.2130   73.3970  222.3410 N   0  0  0  0  0  0  0  0  0  0  0  0
  139.4370   74.3160  221.3660 C   0  0  0  0  0  0  0  0  0  0  0  0
  138.4490   75.2740  221.0260 N   0  0  0  0  0  0  0  0  0  0  0  0
  138.2370   76.5110  221.7320 C   0  0  0  0  0  0  0  0  0  0  0  0
  138.6510   77.6780  220.8650 C   0  0  0  0  0  0  0  0  0  0  0  0
  140.0580   77.4560  220.3910 C   0  0  0  0  0  0  0  0  0  0  0  0
  140.8750   78.6130  220.6360 N   0  0  0  0  0  0  0  0  0  0  0  0
  141.3450   79.5400  219.7710 C   0  0  0  0  0  0  0  0  0  0  0  0
  142.0910   80.4780  220.4380 C   0  0  0  0  0  0  0  0  0  0  0  0
  142.0880   80.1240  221.7690 C   0  0  0  0  0  0  0  0  0  0  0  0
  142.6830   80.7240  222.8560 C   0  0  0  0  0  0  0  0  0  0  0  0
  142.5290   80.1640  224.1070 C   0  0  0  0  0  0  0  0  0  0  0  0
  141.7780   79.0140  224.2300 C   0  0  0  0  0  0  0  0  0  0  0  0
  141.1910   78.4270  223.1370 C   0  0  0  0  0  0  0  0  0  0  0  0
  141.3300   78.9660  221.8710 C   0  0  0  0  0  0  0  0  0  0  0  0
  140.6280   74.2540  220.7600 N   0  0  0  0  0  0  0  0  0  0  0  0
  141.5510   73.3350  221.0960 C   0  0  0  0  0  0  0  0  0  0  0  0
  142.7910   73.3390  220.4020 N   0  0  0  0  0  0  0  0  0  0  0  0
  143.1860   72.2040  219.6010 C   0  0  0  0  0  0  0  0  0  0  0  0
  144.5150   71.6390  220.0470 C   0  0  0  0  0  0  0  0  0  0  0  0
  145.0790   72.5770  220.9910 N   0  0  0  0  0  0  0  0  0  0  0  0
  145.1260   73.9240  220.4900 C   0  0  0  0  0  0  0  0  0  0  0  0
  143.7050   74.4620  220.4660 C   0  0  0  0  0  0  0  0  0  0  0  0
  141.3140   72.4330  222.0640 N   0  0  0  0  0  0  0  0  0  0  0  0
  140.6910   71.5200  224.8880 C   0  0  0  0  0  0  0  0  0  0  0  0
  139.8326   67.5370  228.3042 H   0  0  0  0  0  0  0  0  0  0  0  0
  141.0376   69.5629  229.0342 H   0  0  0  0  0  0  0  0  0  0  0  0
  141.4227   71.4089  227.4236 H   0  0  0  0  0  0  0  0  0  0  0  0
  138.9975   67.3027  225.9671 H   0  0  0  0  0  0  0  0  0  0  0  0
  140.1368   68.9234  223.3458 H   0  0  0  0  0  0  0  0  0  0  0  0
  138.5043   68.4371  223.9072 H   0  0  0  0  0  0  0  0  0  0  0  0
  138.3917   70.5343  222.5521 H   0  0  0  0  0  0  0  0  0  0  0  0
  137.9035   70.8563  224.2330 H   0  0  0  0  0  0  0  0  0  0  0  0
  137.8290   75.0720  220.2040 H   0  0  0  0  0  0  0  0  0  0  0  0
  137.1713   76.6068  221.9873 H   0  0  0  0  0  0  0  0  0  0  0  0
  138.8420   76.5109  222.6507 H   0  0  0  0  0  0  0  0  0  0  0  0
  137.9769   77.7521  219.9989 H   0  0  0  0  0  0  0  0  0  0  0  0
  138.5957   78.6112  221.4447 H   0  0  0  0  0  0  0  0  0  0  0  0
  140.4854   76.5947  220.9253 H   0  0  0  0  0  0  0  0  0  0  0  0
  140.0360   77.2667  219.3076 H   0  0  0  0  0  0  0  0  0  0  0  0
  141.1561   79.5416  218.6873 H   0  0  0  0  0  0  0  0  0  0  0  0
  142.5962   81.3484  219.9939 H   0  0  0  0  0  0  0  0  0  0  0  0
  143.2758   81.6417  222.7279 H   0  0  0  0  0  0  0  0  0  0  0  0
  142.9961   80.6257  224.9894 H   0  0  0  0  0  0  0  0  0  0  0  0
  141.6469   78.5586  225.2227 H   0  0  0  0  0  0  0  0  0  0  0  0
  140.5984   77.5099  223.2706 H   0  0  0  0  0  0  0  0  0  0  0  0
  142.4183   71.4211  219.6894 H   0  0  0  0  0  0  0  0  0  0  0  0
  143.2892   72.5398  218.5586 H   0  0  0  0  0  0  0  0  0  0  0  0
  144.3670   70.6613  220.5289 H   0  0  0  0  0  0  0  0  0  0  0  0
  145.1875   71.4945  219.1886 H   0  0  0  0  0  0  0  0  0  0  0  0
  145.9170   72.2490  221.4800 H   0  0  0  0  0  0  0  0  0  0  0  0
  145.7504   74.5462  221.1481 H   0  0  0  0  0  0  0  0  0  0  0  0
  145.5604   73.9426  219.4796 H   0  0  0  0  0  0  0  0  0  0  0  0
  143.5133   75.0453  221.3787 H   0  0  0  0  0  0  0  0  0  0  0  0
  143.5630   75.1148  219.5921 H   0  0  0  0  0  0  0  0  0  0  0  0
  141.7402   71.4674  224.5619 H   0  0  0  0  0  0  0  0  0  0  0  0
  140.4683   72.4413  225.4463 H   0  0  0  0  0  0  0  0  0  0  0  0
  1  2  2  0
  2  3  1  0
  3  4  2  0
  4  5  1  0
  5  6  2  0
  5  7  1  0
  7  8  1  0
  8  9  1  0
  9 10  1  0
 10 11  2  0
 11 12  1  0
 12 13  1  0
 13 14  1  0
 14 15  1  0
 15 16  1  0
 16 17  1  0
 17 18  1  0
 18 19  2  0
 19 20  1  0
 20 21  2  0
 21 22  1  0
 22 23  2  0
 23 24  1  0
 24 25  2  0
 12 26  2  0
 26 27  1  0
 27 28  1  0
 28 29  1  0
 29 30  1  0
 30 31  1  0
 31 32  1  0
 32 33  1  0
 27 34  2  0
  9 35  1  0
  6  1  1  0
 34 10  1  0
 35  4  1  0
 25 17  1  0
 33 28  1  0
 25 20  1  0
  1 36  1  0
  2 37  1  0
  3 38  1  0
  6 39  1  0
  7 40  1  0
  7 41  1  0
  8 42  1  0
  8 43  1  0
 13 44  1  0
 14 45  1  0
 14 46  1  0
 15 47  1  0
 15 48  1  0
 16 49  1  0
 16 50  1  0
 18 51  1  0
 19 52  1  0
 21 53  1  0
 22 54  1  0
 23 55  1  0
 24 56  1  0
 29 57  1  0
 29 58  1  0
 30 59  1  0
 30 60  1  0
 31 61  1  0
 32 62  1  0
 32 63  1  0
 33 64  1  0
 33 65  1  0
 35 66  1  0
 35 67  1  0
M  END
>  <smiles>  (26) 
c1ccc2c(c1)CCN(c1nc(NCCCn3ccc4ccccc43)nc(N3CCNCC3)n1)C2

>  <score_type>  (26) 
oracle

>  <origin>  (26) 
autodockgpu

>  <m_score__min__energy>  (26) 
-10.76

>  <m_primary>  (26) 
energy

>  <rmsd>  (26) 
4.040128084128056

>  <m_score__min__rmsd>  (26) 
4.040128084128056

>  <meeko>  (26) 
{"free_energy": -9.84, "intermolecular_energy": -11.93, "internal_energy": -1.2, "cluster_size": 44, "cluster_id": 1, "rank_in_cluster": 31}

>  <energy>  (26) 
-9.94

>  <cluster_rmsd>  (26) 
1.94

>  <cluster>  (26) 
1

$$$$

     RDKit          3D

 67 72  0  0  0  0  0  0  0  0999 V2000
  140.2270   68.4790  227.8150 C   0  0  0  0  0  0  0  0  0  0  0  0
  140.8960   69.6410  228.1380 C   0  0  0  0  0  0  0  0  0  0  0  0
  141.0430   70.6200  227.1810 C   0  0  0  0  0  0  0  0  0  0  0  0
  140.5260   70.4410  225.9070 C   0  0  0  0  0  0  0  0  0  0  0  0
  139.8650   69.2710  225.6160 C   0  0  0  0  0  0  0  0  0  0  0  0
  139.6970   68.2630  226.5530 C   0  0  0  0  0  0  0  0  0  0  0  0
  139.3280   69.1260  224.2340 C   0  0  0  0  0  0  0  0  0  0  0  0
  138.7330   70.4640  223.7840 C   0  0  0  0  0  0  0  0  0  0  0  0
  139.8190   71.4510  223.8050 N   0  0  0  0  0  0  0  0  0  0  0  0
  140.0080   72.3470  222.7290 C   0  0  0  0  0  0  0  0  0  0  0  0
  139.0470   73.1820  222.3230 N   0  0  0  0  0  0  0  0  0  0  0  0
  139.2020   74.0530  221.2920 C   0  0  0  0  0  0  0  0  0  0  0  0
  138.1490   74.9160  220.9000 N   0  0  0  0  0  0  0  0  0  0  0  0
  137.2630   75.5870  221.8150 C   0  0  0  0  0  0  0  0  0  0  0  0
  137.3310   77.0810  221.6000 C   0  0  0  0  0  0  0  0  0  0  0  0
  138.1510   77.6940  222.6990 C   0  0  0  0  0  0  0  0  0  0  0  0
  139.5160   77.8760  222.2860 N   0  0  0  0  0  0  0  0  0  0  0  0
  140.2760   77.1300  221.4550 C   0  0  0  0  0  0  0  0  0  0  0  0
  141.5320   77.6720  221.3430 C   0  0  0  0  0  0  0  0  0  0  0  0
  141.5560   78.7980  222.1350 C   0  0  0  0  0  0  0  0  0  0  0  0
  142.5690   79.6990  222.3770 C   0  0  0  0  0  0  0  0  0  0  0  0
  142.3400   80.7630  223.2250 C   0  0  0  0  0  0  0  0  0  0  0  0
  141.0970   80.8900  223.8070 C   0  0  0  0  0  0  0  0  0  0  0  0
  140.0970   79.9830  223.5560 C   0  0  0  0  0  0  0  0  0  0  0  0
  140.2990   78.9080  222.7110 C   0  0  0  0  0  0  0  0  0  0  0  0
  140.3930   74.0380  220.6820 N   0  0  0  0  0  0  0  0  0  0  0  0
  141.3800   73.2090  221.0670 C   0  0  0  0  0  0  0  0  0  0  0  0
  142.6150   73.2570  220.3650 N   0  0  0  0  0  0  0  0  0  0  0  0
  143.0350   72.1460  219.5430 C   0  0  0  0  0  0  0  0  0  0  0  0
  144.3820   71.6110  219.9720 C   0  0  0  0  0  0  0  0  0  0  0  0
  144.9260   72.5480  220.9280 N   0  0  0  0  0  0  0  0  0  0  0  0
  144.9340   73.9030  220.4480 C   0  0  0  0  0  0  0  0  0  0  0  0
  143.4980   74.4030  220.4420 C   0  0  0  0  0  0  0  0  0  0  0  0
  141.2110   72.3530  222.0900 N   0  0  0  0  0  0  0  0  0  0  0  0
  140.7160   71.5190  224.9320 C   0  0  0  0  0  0  0  0  0  0  0  0
  140.1106   67.6998  228.5827 H   0  0  0  0  0  0  0  0  0  0  0  0
  141.3072   69.7840  229.1482 H   0  0  0  0  0  0  0  0  0  0  0  0
  141.5744   71.5507  227.4290 H   0  0  0  0  0  0  0  0  0  0  0  0
  139.1660   67.3321  226.3053 H   0  0  0  0  0  0  0  0  0  0  0  0
  140.1407   68.8363  223.5516 H   0  0  0  0  0  0  0  0  0  0  0  0
  138.5483   68.3502  224.2191 H   0  0  0  0  0  0  0  0  0  0  0  0
  138.3267   70.3724  222.7659 H   0  0  0  0  0  0  0  0  0  0  0  0
  137.9136   70.7708  224.4506 H   0  0  0  0  0  0  0  0  0  0  0  0
  138.0020   75.0810  219.8740 H   0  0  0  0  0  0  0  0  0  0  0  0
  136.2329   75.2411  221.6440 H   0  0  0  0  0  0  0  0  0  0  0  0
  137.5680   75.3569  222.8465 H   0  0  0  0  0  0  0  0  0  0  0  0
  137.7994   77.2932  220.6276 H   0  0  0  0  0  0  0  0  0  0  0  0
  136.3163   77.5056  221.6110 H   0  0  0  0  0  0  0  0  0  0  0  0
  137.7225   78.6717  222.9644 H   0  0  0  0  0  0  0  0  0  0  0  0
  138.1354   77.0170  223.5659 H   0  0  0  0  0  0  0  0  0  0  0  0
  139.9367   76.2183  220.9414 H   0  0  0  0  0  0  0  0  0  0  0  0
  142.3618   77.2811  220.7359 H   0  0  0  0  0  0  0  0  0  0  0  0
  143.5514   79.5716  221.8988 H   0  0  0  0  0  0  0  0  0  0  0  0
  143.1339   81.4956  223.4326 H   0  0  0  0  0  0  0  0  0  0  0  0
  140.9024   81.7338  224.4853 H   0  0  0  0  0  0  0  0  0  0  0  0
  139.1163   80.1145  224.0366 H   0  0  0  0  0  0  0  0  0  0  0  0
  142.2896   71.3411  219.6236 H   0  0  0  0  0  0  0  0  0  0  0  0
  143.1215   72.5006  218.5053 H   0  0  0  0  0  0  0  0  0  0  0  0
  144.2641   70.6217  220.4383 H   0  0  0  0  0  0  0  0  0  0  0  0
  145.0528   71.4998  219.1073 H   0  0  0  0  0  0  0  0  0  0  0  0
  145.7760   72.2350  221.4060 H   0  0  0  0  0  0  0  0  0  0  0  0
  145.5462   74.5314  221.1116 H   0  0  0  0  0  0  0  0  0  0  0  0
  145.3609   73.9491  219.4353 H   0  0  0  0  0  0  0  0  0  0  0  0
  143.2967   74.9657  221.3655 H   0  0  0  0  0  0  0  0  0  0  0  0
  143.3324   75.0663  219.5802 H   0  0  0  0  0  0  0  0  0  0  0  0
  141.7487   71.4686  224.5565 H   0  0  0  0  0  0  0  0  0  0  0  0
  140.5026   72.4635  225.4540 H   0  0  0  0  0  0  0  0  0  0  0  0
  1  2  2  0
  2  3  1  0
  3  4  2  0
  4  5  1  0
  5  6  2  0
  5  7  1  0
  7  8  1  0
  8  9  1  0
  9 10  1  0
 10 11  2  0
 11 12  1  0
 12 13  1  0
 13 14  1  0
 14 15  1  0
 15 16  1  0
 16 17  1  0
 17 18  1  0
 18 19  2  0
 19 20  1  0
 20 21  2  0
 21 22  1  0
 22 23  2  0
 23 24  1  0
 24 25  2  0
 12 26  2  0
 26 27  1  0
 27 28  1  0
 28 29  1  0
 29 30  1  0
 30 31  1  0
 31 32  1  0
 32 33  1  0
 27 34  2  0
  9 35  1  0
  6  1  1  0
 34 10  1  0
 35  4  1  0
 25 17  1  0
 33 28  1  0
 25 20  1  0
  1 36  1  0
  2 37  1  0
  3 38  1  0
  6 39  1  0
  7 40  1  0
  7 41  1  0
  8 42  1  0
  8 43  1  0
 13 44  1  0
 14 45  1  0
 14 46  1  0
 15 47  1  0
 15 48  1  0
 16 49  1  0
 16 50  1  0
 18 51  1  0
 19 52  1  0
 21 53  1  0
 22 54  1  0
 23 55  1  0
 24 56  1  0
 29 57  1  0
 29 58  1  0
 30 59  1  0
 30 60  1  0
 31 61  1  0
 32 62  1  0
 32 63  1  0
 33 64  1  0
 33 65  1  0
 35 66  1  0
 35 67  1  0
M  END
>  <smiles>  (27) 
c1ccc2c(c1)CCN(c1nc(NCCCn3ccc4ccccc43)nc(N3CCNCC3)n1)C2

>  <score_type>  (27) 
oracle

>  <origin>  (27) 
autodockgpu

>  <m_score__min__energy>  (27) 
-10.76

>  <m_primary>  (27) 
energy

>  <rmsd>  (27) 
4.276208365542918

>  <m_score__min__rmsd>  (27) 
4.276208365542918

>  <meeko>  (27) 
{"free_energy": -9.77, "intermolecular_energy": -11.86, "internal_energy": -1.3, "cluster_size": 44, "cluster_id": 1, "rank_in_cluster": 34}

>  <energy>  (27) 
-9.91

>  <cluster_rmsd>  (27) 
1.68

>  <cluster>  (27) 
1

$$$$

     RDKit          3D

 67 72  0  0  0  0  0  0  0  0999 V2000
  138.2080   81.1050  223.4820 C   0  0  0  0  0  0  0  0  0  0  0  0
  137.1730   80.1940  223.4340 C   0  0  0  0  0  0  0  0  0  0  0  0
  137.4390   78.8940  223.0650 C   0  0  0  0  0  0  0  0  0  0  0  0
  138.7310   78.5050  222.7440 C   0  0  0  0  0  0  0  0  0  0  0  0
  139.7400   79.4370  222.8020 C   0  0  0  0  0  0  0  0  0  0  0  0
  139.5110   80.7540  223.1700 C   0  0  0  0  0  0  0  0  0  0  0  0
  141.1100   78.9710  222.4500 C   0  0  0  0  0  0  0  0  0  0  0  0
  141.3330   77.5760  223.0430 C   0  0  0  0  0  0  0  0  0  0  0  0
  140.3270   76.6870  222.4500 N   0  0  0  0  0  0  0  0  0  0  0  0
  140.6820   75.4100  221.9620 C   0  0  0  0  0  0  0  0  0  0  0  0
  139.8790   74.3490  222.0920 N   0  0  0  0  0  0  0  0  0  0  0  0
  140.1970   73.1110  221.6310 C   0  0  0  0  0  0  0  0  0  0  0  0
  139.3090   72.0200  221.7980 N   0  0  0  0  0  0  0  0  0  0  0  0
  138.3910   71.8770  222.8970 C   0  0  0  0  0  0  0  0  0  0  0  0
  138.9940   70.9880  223.9610 C   0  0  0  0  0  0  0  0  0  0  0  0
  140.3450   71.5250  224.3360 C   0  0  0  0  0  0  0  0  0  0  0  0
  140.6270   71.2920  225.7260 N   0  0  0  0  0  0  0  0  0  0  0  0
  140.8830   72.1750  226.7160 C   0  0  0  0  0  0  0  0  0  0  0  0
  141.1000   71.5120  227.8990 C   0  0  0  0  0  0  0  0  0  0  0  0
  140.9760   70.1670  227.6360 C   0  0  0  0  0  0  0  0  0  0  0  0
  141.0990   69.0770  228.4690 C   0  0  0  0  0  0  0  0  0  0  0  0
  140.9250   67.8090  227.9550 C   0  0  0  0  0  0  0  0  0  0  0  0
  140.6330   67.6710  226.6150 C   0  0  0  0  0  0  0  0  0  0  0  0
  140.5140   68.7680  225.7970 C   0  0  0  0  0  0  0  0  0  0  0  0
  140.6820   70.0500  226.2850 C   0  0  0  0  0  0  0  0  0  0  0  0
  141.3850   72.9950  221.0260 N   0  0  0  0  0  0  0  0  0  0  0  0
  142.2150   74.0430  220.8800 C   0  0  0  0  0  0  0  0  0  0  0  0
  143.4590   73.8330  220.2230 N   0  0  0  0  0  0  0  0  0  0  0  0
  143.6210   72.7410  219.2930 C   0  0  0  0  0  0  0  0  0  0  0  0
  144.7570   71.8280  219.6970 C   0  0  0  0  0  0  0  0  0  0  0  0
  145.4710   72.4860  220.7660 N   0  0  0  0  0  0  0  0  0  0  0  0
  145.8570   73.8330  220.4420 C   0  0  0  0  0  0  0  0  0  0  0  0
  144.6030   74.6920  220.4530 C   0  0  0  0  0  0  0  0  0  0  0  0
  141.8850   75.2620  221.3400 N   0  0  0  0  0  0  0  0  0  0  0  0
  138.9510   77.1080  222.3580 C   0  0  0  0  0  0  0  0  0  0  0  0
  137.9916   82.1423  223.7772 H   0  0  0  0  0  0  0  0  0  0  0  0
  136.1479   80.5022  223.6874 H   0  0  0  0  0  0  0  0  0  0  0  0
  136.6213   78.1593  223.0246 H   0  0  0  0  0  0  0  0  0  0  0  0
  140.3288   81.4884  223.2123 H   0  0  0  0  0  0  0  0  0  0  0  0
  141.2143   78.9271  221.3558 H   0  0  0  0  0  0  0  0  0  0  0  0
  141.8552   79.6702  222.8572 H   0  0  0  0  0  0  0  0  0  0  0  0
  142.3438   77.2188  222.7966 H   0  0  0  0  0  0  0  0  0  0  0  0
  141.2381   77.5975  224.1387 H   0  0  0  0  0  0  0  0  0  0  0  0
  139.3170   71.2630  221.0700 H   0  0  0  0  0  0  0  0  0  0  0  0
  138.1796   72.8674  223.3265 H   0  0  0  0  0  0  0  0  0  0  0  0
  137.4583   71.4222  222.5320 H   0  0  0  0  0  0  0  0  0  0  0  0
  138.3419   70.9780  224.8468 H   0  0  0  0  0  0  0  0  0  0  0  0
  139.0946   69.9624  223.5763 H   0  0  0  0  0  0  0  0  0  0  0  0
  141.1120   71.0262  223.7253 H   0  0  0  0  0  0  0  0  0  0  0  0
  140.3521   72.6100  224.1552 H   0  0  0  0  0  0  0  0  0  0  0  0
  140.9133   73.2676  226.5923 H   0  0  0  0  0  0  0  0  0  0  0  0
  141.3295   71.9696  228.8726 H   0  0  0  0  0  0  0  0  0  0  0  0
  141.3339   69.2165  229.5345 H   0  0  0  0  0  0  0  0  0  0  0  0
  141.0175   66.9244  228.6023 H   0  0  0  0  0  0  0  0  0  0  0  0
  140.4928   66.6647  226.1933 H   0  0  0  0  0  0  0  0  0  0  0  0
  140.2803   68.6232  224.7319 H   0  0  0  0  0  0  0  0  0  0  0  0
  142.6887   72.1580  219.2614 H   0  0  0  0  0  0  0  0  0  0  0  0
  143.8546   73.1634  218.3045 H   0  0  0  0  0  0  0  0  0  0  0  0
  144.3599   70.8634  220.0462 H   0  0  0  0  0  0  0  0  0  0  0  0
  145.4233   71.6312  218.8442 H   0  0  0  0  0  0  0  0  0  0  0  0
  146.1820   71.9130  221.2300 H   0  0  0  0  0  0  0  0  0  0  0  0
  146.5730   74.2068  221.1887 H   0  0  0  0  0  0  0  0  0  0  0  0
  146.3372   73.8674  219.4529 H   0  0  0  0  0  0  0  0  0  0  0  0
  144.5029   75.1910  221.4282 H   0  0  0  0  0  0  0  0  0  0  0  0
  144.6635   75.4597  219.6676 H   0  0  0  0  0  0  0  0  0  0  0  0
  138.6182   76.9795  221.3175 H   0  0  0  0  0  0  0  0  0  0  0  0
  138.3790   76.4875  223.0636 H   0  0  0  0  0  0  0  0  0  0  0  0
  1  2  2  0
  2  3  1  0
  3  4  2  0
  4  5  1  0
  5  6  2  0
  5  7  1  0
  7  8  1  0
  8  9  1  0
  9 10  1  0
 10 11  2  0
 11 12  1  0
 12 13  1  0
 13 14  1  0
 14 15  1  0
 15 16  1  0
 16 17  1  0
 17 18  1  0
 18 19  2  0
 19 20  1  0
 20 21  2  0
 21 22  1  0
 22 23  2  0
 23 24  1  0
 24 25  2  0
 12 26  2  0
 26 27  1  0
 27 28  1  0
 28 29  1  0
 29 30  1  0
 30 31  1  0
 31 32  1  0
 32 33  1  0
 27 34  2  0
  9 35  1  0
  6  1  1  0
 34 10  1  0
 35  4  1  0
 25 17  1  0
 33 28  1  0
 25 20  1  0
  1 36  1  0
  2 37  1  0
  3 38  1  0
  6 39  1  0
  7 40  1  0
  7 41  1  0
  8 42  1  0
  8 43  1  0
 13 44  1  0
 14 45  1  0
 14 46  1  0
 15 47  1  0
 15 48  1  0
 16 49  1  0
 16 50  1  0
 18 51  1  0
 19 52  1  0
 21 53  1  0
 22 54  1  0
 23 55  1  0
 24 56  1  0
 29 57  1  0
 29 58  1  0
 30 59  1  0
 30 60  1  0
 31 61  1  0
 32 62  1  0
 32 63  1  0
 33 64  1  0
 33 65  1  0
 35 66  1  0
 35 67  1  0
M  END
>  <smiles>  (28) 
c1ccc2c(c1)CCN(c1nc(NCCCn3ccc4ccccc43)nc(N3CCNCC3)n1)C2

>  <score_type>  (28) 
oracle

>  <origin>  (28) 
autodockgpu

>  <m_score__min__energy>  (28) 
-10.76

>  <m_primary>  (28) 
energy

>  <rmsd>  (28) 
11.80054069005097

>  <m_score__min__rmsd>  (28) 
11.80054069005097

>  <meeko>  (28) 
{"free_energy": -10.35, "intermolecular_energy": -12.44, "internal_energy": -0.98, "cluster_size": 44, "cluster_id": 1, "rank_in_cluster": 14}

>  <energy>  (28) 
-9.89

>  <cluster_rmsd>  (28) 
1.68

>  <cluster>  (28) 
1

$$$$

     RDKit          3D

 67 72  0  0  0  0  0  0  0  0999 V2000
  140.0240   68.1620  227.7760 C   0  0  0  0  0  0  0  0  0  0  0  0
  140.7490   69.2540  228.2030 C   0  0  0  0  0  0  0  0  0  0  0  0
  141.0200   70.2700  227.3130 C   0  0  0  0  0  0  0  0  0  0  0  0
  140.5680   70.1960  226.0040 C   0  0  0  0  0  0  0  0  0  0  0  0
  139.8470   69.0940  225.6110 C   0  0  0  0  0  0  0  0  0  0  0  0
  139.5560   68.0520  226.4770 C   0  0  0  0  0  0  0  0  0  0  0  0
  139.3840   69.0610  224.1950 C   0  0  0  0  0  0  0  0  0  0  0  0
  138.9090   70.4600  223.7900 C   0  0  0  0  0  0  0  0  0  0  0  0
  140.0570   71.3650  223.9270 N   0  0  0  0  0  0  0  0  0  0  0  0
  140.3690   72.3010  222.9170 C   0  0  0  0  0  0  0  0  0  0  0  0
  139.6180   73.3840  222.6930 N   0  0  0  0  0  0  0  0  0  0  0  0
  139.8960   74.2990  221.7290 C   0  0  0  0  0  0  0  0  0  0  0  0
  139.0640   75.4290  221.5330 N   0  0  0  0  0  0  0  0  0  0  0  0
  139.5330   76.7250  221.1200 C   0  0  0  0  0  0  0  0  0  0  0  0
  140.3810   76.5970  219.8760 C   0  0  0  0  0  0  0  0  0  0  0  0
  141.7710   77.0750  220.1820 C   0  0  0  0  0  0  0  0  0  0  0  0
  141.7930   78.4970  220.3930 N   0  0  0  0  0  0  0  0  0  0  0  0
  141.8070   79.5050  219.4930 C   0  0  0  0  0  0  0  0  0  0  0  0
  141.8300   80.7170  220.1370 C   0  0  0  0  0  0  0  0  0  0  0  0
  141.8320   80.4550  221.4890 C   0  0  0  0  0  0  0  0  0  0  0  0
  141.8520   81.3120  222.5660 C   0  0  0  0  0  0  0  0  0  0  0  0
  141.8500   80.7940  223.8440 C   0  0  0  0  0  0  0  0  0  0  0  0
  141.8270   79.4240  224.0040 C   0  0  0  0  0  0  0  0  0  0  0  0
  141.8070   78.5820  222.9190 C   0  0  0  0  0  0  0  0  0  0  0  0
  141.8090   79.0750  221.6280 C   0  0  0  0  0  0  0  0  0  0  0  0
  140.9860   74.0630  220.9890 N   0  0  0  0  0  0  0  0  0  0  0  0
  141.7620   72.9830  221.1890 C   0  0  0  0  0  0  0  0  0  0  0  0
  142.9030   72.8080  220.3600 N   0  0  0  0  0  0  0  0  0  0  0  0
  144.0490   72.0710  220.8370 C   0  0  0  0  0  0  0  0  0  0  0  0
  145.3110   72.9020  220.7830 C   0  0  0  0  0  0  0  0  0  0  0  0
  144.9980   74.1010  220.0410 N   0  0  0  0  0  0  0  0  0  0  0  0
  144.3890   73.8330  218.7660 C   0  0  0  0  0  0  0  0  0  0  0  0
  142.9690   73.3530  219.0180 C   0  0  0  0  0  0  0  0  0  0  0  0
  141.4740   72.0870  222.1490 N   0  0  0  0  0  0  0  0  0  0  0  0
  140.8880   71.3090  225.1050 C   0  0  0  0  0  0  0  0  0  0  0  0
  139.8104   67.3524  228.4894 H   0  0  0  0  0  0  0  0  0  0  0  0
  141.1067   69.3133  229.2415 H   0  0  0  0  0  0  0  0  0  0  0  0
  141.5986   71.1455  227.6427 H   0  0  0  0  0  0  0  0  0  0  0  0
  138.9785   67.1758  226.1472 H   0  0  0  0  0  0  0  0  0  0  0  0
  140.2141   68.7508  223.5432 H   0  0  0  0  0  0  0  0  0  0  0  0
  138.5557   68.3444  224.0926 H   0  0  0  0  0  0  0  0  0  0  0  0
  138.5580   70.4517  222.7475 H   0  0  0  0  0  0  0  0  0  0  0  0
  138.0746   70.7886  224.4270 H   0  0  0  0  0  0  0  0  0  0  0  0
  138.0330   75.3160  221.6990 H   0  0  0  0  0  0  0  0  0  0  0  0
  138.6703   77.3735  220.9073 H   0  0  0  0  0  0  0  0  0  0  0  0
  140.1398   77.1626  221.9264 H   0  0  0  0  0  0  0  0  0  0  0  0
  140.4143   75.5442  219.5588 H   0  0  0  0  0  0  0  0  0  0  0  0
  139.9485   77.2038  219.0668 H   0  0  0  0  0  0  0  0  0  0  0  0
  142.1327   76.5711  221.0904 H   0  0  0  0  0  0  0  0  0  0  0  0
  142.4191   76.8381  219.3254 H   0  0  0  0  0  0  0  0  0  0  0  0
  141.8009   79.3731  218.4009 H   0  0  0  0  0  0  0  0  0  0  0  0
  141.8442   81.7095  219.6630 H   0  0  0  0  0  0  0  0  0  0  0  0
  141.8694   82.4005  222.4086 H   0  0  0  0  0  0  0  0  0  0  0  0
  141.8664   81.4604  224.7190 H   0  0  0  0  0  0  0  0  0  0  0  0
  141.8246   78.9984  225.0183 H   0  0  0  0  0  0  0  0  0  0  0  0
  141.7891   77.4941  223.0808 H   0  0  0  0  0  0  0  0  0  0  0  0
  143.8679   71.7652  221.8780 H   0  0  0  0  0  0  0  0  0  0  0  0
  144.1877   71.1946  220.1868 H   0  0  0  0  0  0  0  0  0  0  0  0
  145.6354   73.1623  221.8014 H   0  0  0  0  0  0  0  0  0  0  0  0
  146.1269   72.3443  220.3001 H   0  0  0  0  0  0  0  0  0  0  0  0
  145.7270   74.8200  220.0490 H   0  0  0  0  0  0  0  0  0  0  0  0
  144.3712   74.7509  218.1600 H   0  0  0  0  0  0  0  0  0  0  0  0
  144.9612   73.0675  218.2215 H   0  0  0  0  0  0  0  0  0  0  0  0
  142.2693   74.1966  218.9245 H   0  0  0  0  0  0  0  0  0  0  0  0
  142.6937   72.5827  218.2826 H   0  0  0  0  0  0  0  0  0  0  0  0
  141.9356   71.2063  224.7856 H   0  0  0  0  0  0  0  0  0  0  0  0
  140.7078   72.2367  225.6679 H   0  0  0  0  0  0  0  0  0  0  0  0
  1  2  2  0
  2  3  1  0
  3  4  2  0
  4  5  1  0
  5  6  2  0
  5  7  1  0
  7  8  1  0
  8  9  1  0
  9 10  1  0
 10 11  2  0
 11 12  1  0
 12 13  1  0
 13 14  1  0
 14 15  1  0
 15 16  1  0
 16 17  1  0
 17 18  1  0
 18 19  2  0
 19 20  1  0
 20 21  2  0
 21 22  1  0
 22 23  2  0
 23 24  1  0
 24 25  2  0
 12 26  2  0
 26 27  1  0
 27 28  1  0
 28 29  1  0
 29 30  1  0
 30 31  1  0
 31 32  1  0
 32 33  1  0
 27 34  2  0
  9 35  1  0
  6  1  1  0
 34 10  1  0
 35  4  1  0
 25 17  1  0
 33 28  1  0
 25 20  1  0
  1 36  1  0
  2 37  1  0
  3 38  1  0
  6 39  1  0
  7 40  1  0
  7 41  1  0
  8 42  1  0
  8 43  1  0
 13 44  1  0
 14 45  1  0
 14 46  1  0
 15 47  1  0
 15 48  1  0
 16 49  1  0
 16 50  1  0
 18 51  1  0
 19 52  1  0
 21 53  1  0
 22 54  1  0
 23 55  1  0
 24 56  1  0
 29 57  1  0
 29 58  1  0
 30 59  1  0
 30 60  1  0
 31 61  1  0
 32 62  1  0
 32 63  1  0
 33 64  1  0
 33 65  1  0
 35 66  1  0
 35 67  1  0
M  END
>  <smiles>  (29) 
c1ccc2c(c1)CCN(c1nc(NCCCn3ccc4ccccc43)nc(N3CCNCC3)n1)C2

>  <score_type>  (29) 
oracle

>  <origin>  (29) 
autodockgpu

>  <m_score__min__energy>  (29) 
-10.76

>  <m_primary>  (29) 
energy

>  <rmsd>  (29) 
3.517181792672438

>  <m_score__min__rmsd>  (29) 
3.517181792672438

>  <meeko>  (29) 
{"free_energy": -9.94, "intermolecular_energy": -12.03, "internal_energy": -1.18, "cluster_size": 44, "cluster_id": 1, "rank_in_cluster": 26}

>  <energy>  (29) 
-9.86

>  <cluster_rmsd>  (29) 
1.75

>  <cluster>  (29) 
1

$$$$

     RDKit          3D

 67 72  0  0  0  0  0  0  0  0999 V2000
  140.2210   68.2060  227.7460 C   0  0  0  0  0  0  0  0  0  0  0  0
  140.8490   69.3540  228.1790 C   0  0  0  0  0  0  0  0  0  0  0  0
  141.0380   70.3920  227.2930 C   0  0  0  0  0  0  0  0  0  0  0  0
  140.6020   70.2830  225.9810 C   0  0  0  0  0  0  0  0  0  0  0  0
  139.9780   69.1250  225.5810 C   0  0  0  0  0  0  0  0  0  0  0  0
  139.7710   68.0600  226.4430 C   0  0  0  0  0  0  0  0  0  0  0  0
  139.5280   69.0570  224.1630 C   0  0  0  0  0  0  0  0  0  0  0  0
  138.9390   70.4130  223.7580 C   0  0  0  0  0  0  0  0  0  0  0  0
  140.0060   71.4100  223.9040 N   0  0  0  0  0  0  0  0  0  0  0  0
  140.2440   72.3720  222.8980 C   0  0  0  0  0  0  0  0  0  0  0  0
  139.3770   73.3540  222.6330 N   0  0  0  0  0  0  0  0  0  0  0  0
  139.5810   74.2920  221.6710 C   0  0  0  0  0  0  0  0  0  0  0  0
  138.6270   75.3110  221.4300 N   0  0  0  0  0  0  0  0  0  0  0  0
  138.6630   76.2130  220.3100 C   0  0  0  0  0  0  0  0  0  0  0  0
  139.6640   77.3170  220.5660 C   0  0  0  0  0  0  0  0  0  0  0  0
  140.1910   77.1790  221.9650 C   0  0  0  0  0  0  0  0  0  0  0  0
  140.0700   78.4160  222.6880 N   0  0  0  0  0  0  0  0  0  0  0  0
  138.9710   79.0200  223.1910 C   0  0  0  0  0  0  0  0  0  0  0  0
  139.3160   80.1960  223.8090 C   0  0  0  0  0  0  0  0  0  0  0  0
  140.6800   80.3310  223.6860 C   0  0  0  0  0  0  0  0  0  0  0  0
  141.5240   81.3260  224.1270 C   0  0  0  0  0  0  0  0  0  0  0  0
  142.8770   81.2280  223.8730 C   0  0  0  0  0  0  0  0  0  0  0  0
  143.3440   80.1300  223.1820 C   0  0  0  0  0  0  0  0  0  0  0  0
  142.4890   79.1460  222.7490 C   0  0  0  0  0  0  0  0  0  0  0  0
  141.1300   79.2190  222.9890 C   0  0  0  0  0  0  0  0  0  0  0  0
  140.7210   74.1860  220.9780 N   0  0  0  0  0  0  0  0  0  0  0  0
  141.6130   73.2090  221.2200 C   0  0  0  0  0  0  0  0  0  0  0  0
  142.8000   73.1690  220.4390 N   0  0  0  0  0  0  0  0  0  0  0  0
  143.1260   71.9980  219.6610 C   0  0  0  0  0  0  0  0  0  0  0  0
  144.4790   71.4370  220.0330 C   0  0  0  0  0  0  0  0  0  0  0  0
  145.1180   72.4060  220.8930 N   0  0  0  0  0  0  0  0  0  0  0  0
  145.1400   73.7300  220.3330 C   0  0  0  0  0  0  0  0  0  0  0  0
  143.7250   74.2840  220.3890 C   0  0  0  0  0  0  0  0  0  0  0  0
  141.3970   72.2900  222.1770 N   0  0  0  0  0  0  0  0  0  0  0  0
  140.8320   71.4210  225.0860 C   0  0  0  0  0  0  0  0  0  0  0  0
  140.0722   67.3797  228.4567 H   0  0  0  0  0  0  0  0  0  0  0  0
  141.1952   69.4404  229.2195 H   0  0  0  0  0  0  0  0  0  0  0  0
  141.5377   71.3128  227.6283 H   0  0  0  0  0  0  0  0  0  0  0  0
  139.2715   67.1390  226.1080 H   0  0  0  0  0  0  0  0  0  0  0  0
  140.3850   68.8195  223.5156 H   0  0  0  0  0  0  0  0  0  0  0  0
  138.7636   68.2735  224.0540 H   0  0  0  0  0  0  0  0  0  0  0  0
  138.5960   70.3782  222.7134 H   0  0  0  0  0  0  0  0  0  0  0  0
  138.0761   70.6687  224.3904 H   0  0  0  0  0  0  0  0  0  0  0  0
  137.8370   75.4180  222.1140 H   0  0  0  0  0  0  0  0  0  0  0  0
  138.9551   75.6591  219.4056 H   0  0  0  0  0  0  0  0  0  0  0  0
  137.6656   76.6555  220.1710 H   0  0  0  0  0  0  0  0  0  0  0  0
  140.4942   77.2366  219.8488 H   0  0  0  0  0  0  0  0  0  0  0  0
  139.1784   78.2966  220.4450 H   0  0  0  0  0  0  0  0  0  0  0  0
  139.6190   76.3991  222.4891 H   0  0  0  0  0  0  0  0  0  0  0  0
  141.2557   76.9079  221.9121 H   0  0  0  0  0  0  0  0  0  0  0  0
  137.9468   78.6258  223.1160 H   0  0  0  0  0  0  0  0  0  0  0  0
  138.6317   80.8978  224.3082 H   0  0  0  0  0  0  0  0  0  0  0  0
  141.1235   82.1907  224.6765 H   0  0  0  0  0  0  0  0  0  0  0  0
  143.5697   82.0110  224.2153 H   0  0  0  0  0  0  0  0  0  0  0  0
  144.4204   80.0404  222.9738 H   0  0  0  0  0  0  0  0  0  0  0  0
  142.8940   78.2829  222.2004 H   0  0  0  0  0  0  0  0  0  0  0  0
  142.3603   71.2283  219.8379 H   0  0  0  0  0  0  0  0  0  0  0  0
  143.1559   72.2890  218.6006 H   0  0  0  0  0  0  0  0  0  0  0  0
  144.3583   70.4818  220.5650 H   0  0  0  0  0  0  0  0  0  0  0  0
  145.0859   71.2497  219.1349 H   0  0  0  0  0  0  0  0  0  0  0  0
  145.9870   72.0900  221.3340 H   0  0  0  0  0  0  0  0  0  0  0  0
  145.8161   74.3717  220.9170 H   0  0  0  0  0  0  0  0  0  0  0  0
  145.4995   73.7009  219.2938 H   0  0  0  0  0  0  0  0  0  0  0  0
  143.6051   74.9071  221.2876 H   0  0  0  0  0  0  0  0  0  0  0  0
  143.5251   74.9020  219.5013 H   0  0  0  0  0  0  0  0  0  0  0  0
  141.8862   71.4075  224.7722 H   0  0  0  0  0  0  0  0  0  0  0  0
  140.5713   72.3289  225.6498 H   0  0  0  0  0  0  0  0  0  0  0  0
  1  2  2  0
  2  3  1  0
  3  4  2  0
  4  5  1  0
  5  6  2  0
  5  7  1  0
  7  8  1  0
  8  9  1  0
  9 10  1  0
 10 11  2  0
 11 12  1  0
 12 13  1  0
 13 14  1  0
 14 15  1  0
 15 16  1  0
 16 17  1  0
 17 18  1  0
 18 19  2  0
 19 20  1  0
 20 21  2  0
 21 22  1  0
 22 23  2  0
 23 24  1  0
 24 25  2  0
 12 26  2  0
 26 27  1  0
 27 28  1  0
 28 29  1  0
 29 30  1  0
 30 31  1  0
 31 32  1  0
 32 33  1  0
 27 34  2  0
  9 35  1  0
  6  1  1  0
 34 10  1  0
 35  4  1  0
 25 17  1  0
 33 28  1  0
 25 20  1  0
  1 36  1  0
  2 37  1  0
  3 38  1  0
  6 39  1  0
  7 40  1  0
  7 41  1  0
  8 42  1  0
  8 43  1  0
 13 44  1  0
 14 45  1  0
 14 46  1  0
 15 47  1  0
 15 48  1  0
 16 49  1  0
 16 50  1  0
 18 51  1  0
 19 52  1  0
 21 53  1  0
 22 54  1  0
 23 55  1  0
 24 56  1  0
 29 57  1  0
 29 58  1  0
 30 59  1  0
 30 60  1  0
 31 61  1  0
 32 62  1  0
 32 63  1  0
 33 64  1  0
 33 65  1  0
 35 66  1  0
 35 67  1  0
M  END
>  <smiles>  (30) 
c1ccc2c(c1)CCN(c1nc(NCCCn3ccc4ccccc43)nc(N3CCNCC3)n1)C2

>  <score_type>  (30) 
oracle

>  <origin>  (30) 
autodockgpu

>  <m_score__min__energy>  (30) 
-10.76

>  <m_primary>  (30) 
energy

>  <rmsd>  (30) 
3.4197838149506805

>  <m_score__min__rmsd>  (30) 
3.4197838149506805

>  <meeko>  (30) 
{"free_energy": -10.07, "intermolecular_energy": -12.16, "internal_energy": -0.94, "cluster_size": 44, "cluster_id": 1, "rank_in_cluster": 23}

>  <energy>  (30) 
-9.86

>  <cluster_rmsd>  (30) 
1.53

>  <cluster>  (30) 
1

$$$$

     RDKit          3D

 67 72  0  0  0  0  0  0  0  0999 V2000
  140.9010   81.8560  222.3730 C   0  0  0  0  0  0  0  0  0  0  0  0
  141.1870   81.2480  223.5770 C   0  0  0  0  0  0  0  0  0  0  0  0
  141.2980   79.8760  223.6280 C   0  0  0  0  0  0  0  0  0  0  0  0
  141.1250   79.1140  222.4820 C   0  0  0  0  0  0  0  0  0  0  0  0
  140.8410   79.7510  221.2970 C   0  0  0  0  0  0  0  0  0  0  0  0
  140.7210   81.1290  221.2070 C   0  0  0  0  0  0  0  0  0  0  0  0
  140.6640   78.8900  220.0950 C   0  0  0  0  0  0  0  0  0  0  0  0
  141.7090   77.7700  220.1210 C   0  0  0  0  0  0  0  0  0  0  0  0
  141.4790   76.9900  221.3420 N   0  0  0  0  0  0  0  0  0  0  0  0
  141.4700   75.5780  221.3110 C   0  0  0  0  0  0  0  0  0  0  0  0
  140.5630   74.8570  221.9780 N   0  0  0  0  0  0  0  0  0  0  0  0
  140.5330   73.4980  221.9640 C   0  0  0  0  0  0  0  0  0  0  0  0
  139.5500   72.7830  222.6920 N   0  0  0  0  0  0  0  0  0  0  0  0
  138.6160   71.8570  222.1060 C   0  0  0  0  0  0  0  0  0  0  0  0
  138.5330   70.6040  222.9480 C   0  0  0  0  0  0  0  0  0  0  0  0
  139.9070   70.2630  223.4490 C   0  0  0  0  0  0  0  0  0  0  0  0
  139.8630   69.8100  224.8130 N   0  0  0  0  0  0  0  0  0  0  0  0
  139.3710   68.6620  225.3280 C   0  0  0  0  0  0  0  0  0  0  0  0
  139.5350   68.6430  226.6910 C   0  0  0  0  0  0  0  0  0  0  0  0
  140.1510   69.8250  227.0380 C   0  0  0  0  0  0  0  0  0  0  0  0
  140.5370   70.3030  228.2700 C   0  0  0  0  0  0  0  0  0  0  0  0
  141.1460   71.5380  228.3560 C   0  0  0  0  0  0  0  0  0  0  0  0
  141.3490   72.2590  227.1990 C   0  0  0  0  0  0  0  0  0  0  0  0
  140.9580   71.7690  225.9770 C   0  0  0  0  0  0  0  0  0  0  0  0
  140.3460   70.5340  225.8620 C   0  0  0  0  0  0  0  0  0  0  0  0
  141.4790   72.8950  221.2350 N   0  0  0  0  0  0  0  0  0  0  0  0
  142.4050   73.5920  220.5530 C   0  0  0  0  0  0  0  0  0  0  0  0
  143.3740   72.8730  219.8020 N   0  0  0  0  0  0  0  0  0  0  0  0
  144.3370   72.0280  220.4670 C   0  0  0  0  0  0  0  0  0  0  0  0
  145.7570   72.4280  220.1340 C   0  0  0  0  0  0  0  0  0  0  0  0
  145.6860   73.3900  219.0590 N   0  0  0  0  0  0  0  0  0  0  0  0
  144.9040   72.9330  217.9430 C   0  0  0  0  0  0  0  0  0  0  0  0
  143.4420   72.9560  218.3570 C   0  0  0  0  0  0  0  0  0  0  0  0
  142.4210   74.9360  220.5760 N   0  0  0  0  0  0  0  0  0  0  0  0
  141.2560   77.6590  222.6000 C   0  0  0  0  0  0  0  0  0  0  0  0
  140.8130   82.9519  222.3369 H   0  0  0  0  0  0  0  0  0  0  0  0
  141.3249   81.8516  224.4862 H   0  0  0  0  0  0  0  0  0  0  0  0
  141.5253   79.3814  224.5839 H   0  0  0  0  0  0  0  0  0  0  0  0
  140.4928   81.6240  220.2515 H   0  0  0  0  0  0  0  0  0  0  0  0
  139.6549   78.4522  220.1011 H   0  0  0  0  0  0  0  0  0  0  0  0
  140.7917   79.4943  219.1848 H   0  0  0  0  0  0  0  0  0  0  0  0
  141.5943   77.1270  219.2359 H   0  0  0  0  0  0  0  0  0  0  0  0
  142.7273   78.1859  220.1095 H   0  0  0  0  0  0  0  0  0  0  0  0
  139.4950   72.9360  223.7290 H   0  0  0  0  0  0  0  0  0  0  0  0
  137.6226   72.3264  222.0525 H   0  0  0  0  0  0  0  0  0  0  0  0
  138.9577   71.5907  221.0949 H   0  0  0  0  0  0  0  0  0  0  0  0
  137.8610   70.7765  223.8016 H   0  0  0  0  0  0  0  0  0  0  0  0
  138.1401   69.7736  222.3429 H   0  0  0  0  0  0  0  0  0  0  0  0
  140.3316   69.4670  222.8196 H   0  0  0  0  0  0  0  0  0  0  0  0
  140.5308   71.1678  223.4013 H   0  0  0  0  0  0  0  0  0  0  0  0
  138.9056   67.8576  224.7395 H   0  0  0  0  0  0  0  0  0  0  0  0
  139.2321   67.8371  227.3756 H   0  0  0  0  0  0  0  0  0  0  0  0
  140.3616   69.7060  229.1771 H   0  0  0  0  0  0  0  0  0  0  0  0
  141.4635   71.9397  229.3296 H   0  0  0  0  0  0  0  0  0  0  0  0
  141.8331   73.2451  227.2554 H   0  0  0  0  0  0  0  0  0  0  0  0
  141.1349   72.3700  225.0728 H   0  0  0  0  0  0  0  0  0  0  0  0
  144.1900   72.1073  221.5542 H   0  0  0  0  0  0  0  0  0  0  0  0
  144.1822   70.9949  220.1224 H   0  0  0  0  0  0  0  0  0  0  0  0
  146.2379   72.8802  221.0139 H   0  0  0  0  0  0  0  0  0  0  0  0
  146.3512   71.5514  219.8365 H   0  0  0  0  0  0  0  0  0  0  0  0
  146.5710   73.8510  218.8300 H   0  0  0  0  0  0  0  0  0  0  0  0
  145.0588   73.5982  217.0807 H   0  0  0  0  0  0  0  0  0  0  0  0
  145.2050   71.9148  217.6553 H   0  0  0  0  0  0  0  0  0  0  0  0
  142.9742   73.8914  218.0163 H   0  0  0  0  0  0  0  0  0  0  0  0
  142.9078   72.1076  217.9043 H   0  0  0  0  0  0  0  0  0  0  0  0
  140.3311   77.2626  223.0443 H   0  0  0  0  0  0  0  0  0  0  0  0
  142.1401   77.4670  223.2257 H   0  0  0  0  0  0  0  0  0  0  0  0
  1  2  2  0
  2  3  1  0
  3  4  2  0
  4  5  1  0
  5  6  2  0
  5  7  1  0
  7  8  1  0
  8  9  1  0
  9 10  1  0
 10 11  2  0
 11 12  1  0
 12 13  1  0
 13 14  1  0
 14 15  1  0
 15 16  1  0
 16 17  1  0
 17 18  1  0
 18 19  2  0
 19 20  1  0
 20 21  2  0
 21 22  1  0
 22 23  2  0
 23 24  1  0
 24 25  2  0
 12 26  2  0
 26 27  1  0
 27 28  1  0
 28 29  1  0
 29 30  1  0
 30 31  1  0
 31 32  1  0
 32 33  1  0
 27 34  2  0
  9 35  1  0
  6  1  1  0
 34 10  1  0
 35  4  1  0
 25 17  1  0
 33 28  1  0
 25 20  1  0
  1 36  1  0
  2 37  1  0
  3 38  1  0
  6 39  1  0
  7 40  1  0
  7 41  1  0
  8 42  1  0
  8 43  1  0
 13 44  1  0
 14 45  1  0
 14 46  1  0
 15 47  1  0
 15 48  1  0
 16 49  1  0
 16 50  1  0
 18 51  1  0
 19 52  1  0
 21 53  1  0
 22 54  1  0
 23 55  1  0
 24 56  1  0
 29 57  1  0
 29 58  1  0
 30 59  1  0
 30 60  1  0
 31 61  1  0
 32 62  1  0
 32 63  1  0
 33 64  1  0
 33 65  1  0
 35 66  1  0
 35 67  1  0
M  END
>  <smiles>  (31) 
c1ccc2c(c1)CCN(c1nc(NCCCn3ccc4ccccc43)nc(N3CCNCC3)n1)C2

>  <score_type>  (31) 
oracle

>  <origin>  (31) 
autodockgpu

>  <m_score__min__energy>  (31) 
-10.76

>  <m_primary>  (31) 
energy

>  <rmsd>  (31) 
11.121703373620113

>  <m_score__min__rmsd>  (31) 
11.121703373620113

>  <meeko>  (31) 
{"free_energy": -10.46, "intermolecular_energy": -12.55, "internal_energy": -1.08, "cluster_size": 44, "cluster_id": 1, "rank_in_cluster": 12}

>  <energy>  (31) 
-9.84

>  <cluster_rmsd>  (31) 
1.71

>  <cluster>  (31) 
1

$$$$

     RDKit          3D

 67 72  0  0  0  0  0  0  0  0999 V2000
  141.7670   81.9330  221.1340 C   0  0  0  0  0  0  0  0  0  0  0  0
  141.8160   81.4360  219.8480 C   0  0  0  0  0  0  0  0  0  0  0  0
  141.7570   80.0750  219.6510 C   0  0  0  0  0  0  0  0  0  0  0  0
  141.6490   79.2120  220.7320 C   0  0  0  0  0  0  0  0  0  0  0  0
  141.6030   79.7390  222.0010 C   0  0  0  0  0  0  0  0  0  0  0  0
  141.6600   81.1040  222.2390 C   0  0  0  0  0  0  0  0  0  0  0  0
  141.4870   78.7730  223.1280 C   0  0  0  0  0  0  0  0  0  0  0  0
  140.5120   77.6580  222.7350 C   0  0  0  0  0  0  0  0  0  0  0  0
  141.0700   76.9920  221.5520 N   0  0  0  0  0  0  0  0  0  0  0  0
  141.1070   75.5830  221.4610 C   0  0  0  0  0  0  0  0  0  0  0  0
  140.1440   74.8110  221.9740 N   0  0  0  0  0  0  0  0  0  0  0  0
  140.1550   73.4550  221.9000 C   0  0  0  0  0  0  0  0  0  0  0  0
  139.1090   72.6840  222.4650 N   0  0  0  0  0  0  0  0  0  0  0  0
  138.5650   71.4900  221.8720 C   0  0  0  0  0  0  0  0  0  0  0  0
  138.2900   70.4600  222.9440 C   0  0  0  0  0  0  0  0  0  0  0  0
  139.5800   69.7870  223.3130 C   0  0  0  0  0  0  0  0  0  0  0  0
  140.0970   70.3020  224.5510 N   0  0  0  0  0  0  0  0  0  0  0  0
  140.5980   71.5230  224.8390 C   0  0  0  0  0  0  0  0  0  0  0  0
  140.9810   71.5830  226.1560 C   0  0  0  0  0  0  0  0  0  0  0  0
  140.7090   70.3520  226.7100 C   0  0  0  0  0  0  0  0  0  0  0  0
  140.9020   69.8860  227.9910 C   0  0  0  0  0  0  0  0  0  0  0  0
  140.5420   68.5910  228.3020 C   0  0  0  0  0  0  0  0  0  0  0  0
  139.9960   67.8000  227.3130 C   0  0  0  0  0  0  0  0  0  0  0  0
  139.8100   68.2790  226.0400 C   0  0  0  0  0  0  0  0  0  0  0  0
  140.1620   69.5720  225.7010 C   0  0  0  0  0  0  0  0  0  0  0  0
  141.2030   72.9080  221.2730 N   0  0  0  0  0  0  0  0  0  0  0  0
  142.1880   73.6560  220.7460 C   0  0  0  0  0  0  0  0  0  0  0  0
  143.2650   72.9960  220.0960 N   0  0  0  0  0  0  0  0  0  0  0  0
  144.2240   72.2310  220.8590 C   0  0  0  0  0  0  0  0  0  0  0  0
  145.6360   72.7250  220.6390 C   0  0  0  0  0  0  0  0  0  0  0  0
  145.5910   73.6620  219.5400 N   0  0  0  0  0  0  0  0  0  0  0  0
  144.9420   73.1310  218.3720 C   0  0  0  0  0  0  0  0  0  0  0  0
  143.4510   73.0580  218.6600 C   0  0  0  0  0  0  0  0  0  0  0  0
  142.1610   74.9980  220.8270 N   0  0  0  0  0  0  0  0  0  0  0  0
  141.5910   77.7730  220.4580 C   0  0  0  0  0  0  0  0  0  0  0  0
  141.8143   83.0213  221.2869 H   0  0  0  0  0  0  0  0  0  0  0  0
  141.9012   82.1193  218.9902 H   0  0  0  0  0  0  0  0  0  0  0  0
  141.7958   79.6688  218.6295 H   0  0  0  0  0  0  0  0  0  0  0  0
  141.6219   81.5108  223.2603 H   0  0  0  0  0  0  0  0  0  0  0  0
  142.4745   78.3394  223.3445 H   0  0  0  0  0  0  0  0  0  0  0  0
  141.1148   79.2918  224.0237 H   0  0  0  0  0  0  0  0  0  0  0  0
  140.4102   76.9379  223.5603 H   0  0  0  0  0  0  0  0  0  0  0  0
  139.5149   78.0690  222.5184 H   0  0  0  0  0  0  0  0  0  0  0  0
  138.6990   73.0030  223.3780 H   0  0  0  0  0  0  0  0  0  0  0  0
  137.6265   71.7357  221.3534 H   0  0  0  0  0  0  0  0  0  0  0  0
  139.2910   71.0798  221.1546 H   0  0  0  0  0  0  0  0  0  0  0  0
  137.8643   70.9537  223.8300 H   0  0  0  0  0  0  0  0  0  0  0  0
  137.5738   69.7138  222.5694 H   0  0  0  0  0  0  0  0  0  0  0  0
  139.4038   68.7064  223.4192 H   0  0  0  0  0  0  0  0  0  0  0  0
  140.3156   69.9828  222.5190 H   0  0  0  0  0  0  0  0  0  0  0  0
  140.6865   72.3513  224.1206 H   0  0  0  0  0  0  0  0  0  0  0  0
  141.4214   72.4496  226.6708 H   0  0  0  0  0  0  0  0  0  0  0  0
  141.3393   70.5403  228.7596 H   0  0  0  0  0  0  0  0  0  0  0  0
  140.6876   68.1972  229.3187 H   0  0  0  0  0  0  0  0  0  0  0  0
  139.7041   66.7659  227.5486 H   0  0  0  0  0  0  0  0  0  0  0  0
  139.3723   67.6210  225.2748 H   0  0  0  0  0  0  0  0  0  0  0  0
  143.9789   72.3167  221.9279 H   0  0  0  0  0  0  0  0  0  0  0  0
  144.1711   71.1843  220.5250 H   0  0  0  0  0  0  0  0  0  0  0  0
  146.0067   73.2247  221.5461 H   0  0  0  0  0  0  0  0  0  0  0  0
  146.3132   71.8881  220.4130 H   0  0  0  0  0  0  0  0  0  0  0  0
  146.4590   74.1800  219.3760 H   0  0  0  0  0  0  0  0  0  0  0  0
  145.1246   73.7901  217.5105 H   0  0  0  0  0  0  0  0  0  0  0  0
  145.3363   72.1319  218.1347 H   0  0  0  0  0  0  0  0  0  0  0  0
  142.9509   73.9519  218.2589 H   0  0  0  0  0  0  0  0  0  0  0  0
  143.0173   72.1663  218.1839 H   0  0  0  0  0  0  0  0  0  0  0  0
  142.6091   77.4213  220.2350 H   0  0  0  0  0  0  0  0  0  0  0  0
  140.9028   77.6361  219.6109 H   0  0  0  0  0  0  0  0  0  0  0  0
  1  2  2  0
  2  3  1  0
  3  4  2  0
  4  5  1  0
  5  6  2  0
  5  7  1  0
  7  8  1  0
  8  9  1  0
  9 10  1  0
 10 11  2  0
 11 12  1  0
 12 13  1  0
 13 14  1  0
 14 15  1  0
 15 16  1  0
 16 17  1  0
 17 18  1  0
 18 19  2  0
 19 20  1  0
 20 21  2  0
 21 22  1  0
 22 23  2  0
 23 24  1  0
 24 25  2  0
 12 26  2  0
 26 27  1  0
 27 28  1  0
 28 29  1  0
 29 30  1  0
 30 31  1  0
 31 32  1  0
 32 33  1  0
 27 34  2  0
  9 35  1  0
  6  1  1  0
 34 10  1  0
 35  4  1  0
 25 17  1  0
 33 28  1  0
 25 20  1  0
  1 36  1  0
  2 37  1  0
  3 38  1  0
  6 39  1  0
  7 40  1  0
  7 41  1  0
  8 42  1  0
  8 43  1  0
 13 44  1  0
 14 45  1  0
 14 46  1  0
 15 47  1  0
 15 48  1  0
 16 49  1  0
 16 50  1  0
 18 51  1  0
 19 52  1  0
 21 53  1  0
 22 54  1  0
 23 55  1  0
 24 56  1  0
 29 57  1  0
 29 58  1  0
 30 59  1  0
 30 60  1  0
 31 61  1  0
 32 62  1  0
 32 63  1  0
 33 64  1  0
 33 65  1  0
 35 66  1  0
 35 67  1  0
M  END
>  <smiles>  (32) 
c1ccc2c(c1)CCN(c1nc(NCCCn3ccc4ccccc43)nc(N3CCNCC3)n1)C2

>  <score_type>  (32) 
oracle

>  <origin>  (32) 
autodockgpu

>  <m_score__min__energy>  (32) 
-10.76

>  <m_primary>  (32) 
energy

>  <rmsd>  (32) 
11.596711942470689

>  <m_score__min__rmsd>  (32) 
11.596711942470689

>  <meeko>  (32) 
{"free_energy": -10.64, "intermolecular_energy": -12.73, "internal_energy": -1.11, "cluster_size": 44, "cluster_id": 1, "rank_in_cluster": 7}

>  <energy>  (32) 
-9.79

>  <cluster_rmsd>  (32) 
1.59

>  <cluster>  (32) 
1

$$$$

     RDKit          3D

 67 72  0  0  0  0  0  0  0  0999 V2000
  139.9680   68.8870  227.6550 C   0  0  0  0  0  0  0  0  0  0  0  0
  140.6970   70.0050  228.0020 C   0  0  0  0  0  0  0  0  0  0  0  0
  140.9520   70.9640  227.0470 C   0  0  0  0  0  0  0  0  0  0  0  0
  140.4830   70.8090  225.7520 C   0  0  0  0  0  0  0  0  0  0  0  0
  139.7590   69.6830  225.4380 C   0  0  0  0  0  0  0  0  0  0  0  0
  139.4820   68.6960  226.3710 C   0  0  0  0  0  0  0  0  0  0  0  0
  139.2760   69.5620  224.0340 C   0  0  0  0  0  0  0  0  0  0  0  0
  138.7920   70.9330  223.5500 C   0  0  0  0  0  0  0  0  0  0  0  0
  139.9400   71.8450  223.6140 N   0  0  0  0  0  0  0  0  0  0  0  0
  140.2360   72.7180  222.5440 C   0  0  0  0  0  0  0  0  0  0  0  0
  139.3440   73.5960  222.0740 N   0  0  0  0  0  0  0  0  0  0  0  0
  139.6030   74.4450  221.0460 C   0  0  0  0  0  0  0  0  0  0  0  0
  138.6200   75.3560  220.5860 N   0  0  0  0  0  0  0  0  0  0  0  0
  138.7000   76.7850  220.7330 C   0  0  0  0  0  0  0  0  0  0  0  0
  137.7120   77.2550  221.7760 C   0  0  0  0  0  0  0  0  0  0  0  0
  138.4250   77.3980  223.0900 C   0  0  0  0  0  0  0  0  0  0  0  0
  138.8660   78.7510  223.2940 N   0  0  0  0  0  0  0  0  0  0  0  0
  138.1460   79.8680  223.5420 C   0  0  0  0  0  0  0  0  0  0  0  0
  138.9790   80.9520  223.6690 C   0  0  0  0  0  0  0  0  0  0  0  0
  140.2650   80.4940  223.4920 C   0  0  0  0  0  0  0  0  0  0  0  0
  141.4650   81.1680  223.5170 C   0  0  0  0  0  0  0  0  0  0  0  0
  142.6380   80.4720  223.3080 C   0  0  0  0  0  0  0  0  0  0  0  0
  142.5700   79.1140  223.0770 C   0  0  0  0  0  0  0  0  0  0  0  0
  141.3650   78.4560  223.0540 C   0  0  0  0  0  0  0  0  0  0  0  0
  140.1750   79.1290  223.2610 C   0  0  0  0  0  0  0  0  0  0  0  0
  140.8250   74.3630  220.5070 N   0  0  0  0  0  0  0  0  0  0  0  0
  141.7440   73.4900  220.9560 C   0  0  0  0  0  0  0  0  0  0  0  0
  143.0190   73.4670  220.3280 N   0  0  0  0  0  0  0  0  0  0  0  0
  143.4260   72.3300  219.5380 C   0  0  0  0  0  0  0  0  0  0  0  0
  144.7160   71.7270  220.0470 C   0  0  0  0  0  0  0  0  0  0  0  0
  145.2530   72.6420  221.0280 N   0  0  0  0  0  0  0  0  0  0  0  0
  145.3600   73.9910  220.5430 C   0  0  0  0  0  0  0  0  0  0  0  0
  143.9560   74.5660  220.4510 C   0  0  0  0  0  0  0  0  0  0  0  0
  141.4730   72.6560  221.9760 N   0  0  0  0  0  0  0  0  0  0  0  0
  140.7870   71.8640  224.7810 C   0  0  0  0  0  0  0  0  0  0  0  0
  139.7660   68.1234  228.4206 H   0  0  0  0  0  0  0  0  0  0  0  0
  141.0703   70.1293  229.0292 H   0  0  0  0  0  0  0  0  0  0  0  0
  141.5322   71.8596  227.3140 H   0  0  0  0  0  0  0  0  0  0  0  0
  138.9019   67.8003  226.1041 H   0  0  0  0  0  0  0  0  0  0  0  0
  140.0973   69.2132  223.3907 H   0  0  0  0  0  0  0  0  0  0  0  0
  138.4479   68.8394  223.9881 H   0  0  0  0  0  0  0  0  0  0  0  0
  138.4258   70.8599  222.5153 H   0  0  0  0  0  0  0  0  0  0  0  0
  137.9661   71.2997  224.1773 H   0  0  0  0  0  0  0  0  0  0  0  0
  137.7730   74.9640  220.1040 H   0  0  0  0  0  0  0  0  0  0  0  0
  139.7178   77.0625  221.0446 H   0  0  0  0  0  0  0  0  0  0  0  0
  138.4612   77.2603  219.7702 H   0  0  0  0  0  0  0  0  0  0  0  0
  137.2920   78.2263  221.4759 H   0  0  0  0  0  0  0  0  0  0  0  0
  136.8950   76.5247  221.8722 H   0  0  0  0  0  0  0  0  0  0  0  0
  137.7397   77.1168  223.9032 H   0  0  0  0  0  0  0  0  0  0  0  0
  139.3065   76.7401  223.0830 H   0  0  0  0  0  0  0  0  0  0  0  0
  137.0501   79.9033  223.6295 H   0  0  0  0  0  0  0  0  0  0  0  0
  138.6762   81.9896  223.8734 H   0  0  0  0  0  0  0  0  0  0  0  0
  141.4886   82.2521  223.7020 H   0  0  0  0  0  0  0  0  0  0  0  0
  143.6082   80.9901  223.3253 H   0  0  0  0  0  0  0  0  0  0  0  0
  143.4978   78.5478  222.9081 H   0  0  0  0  0  0  0  0  0  0  0  0
  141.3460   77.3721  222.8672 H   0  0  0  0  0  0  0  0  0  0  0  0
  142.6353   71.5664  219.5788 H   0  0  0  0  0  0  0  0  0  0  0  0
  143.5916   72.6719  218.5057 H   0  0  0  0  0  0  0  0  0  0  0  0
  144.5186   70.7493  220.5108 H   0  0  0  0  0  0  0  0  0  0  0  0
  145.4285   71.5726  219.2233 H   0  0  0  0  0  0  0  0  0  0  0  0
  146.0560   72.2890  221.5570 H   0  0  0  0  0  0  0  0  0  0  0  0
  145.9652   74.5914  221.2382 H   0  0  0  0  0  0  0  0  0  0  0  0
  145.8463   74.0065  219.5564 H   0  0  0  0  0  0  0  0  0  0  0  0
  143.7317   75.1457  221.3585 H   0  0  0  0  0  0  0  0  0  0  0  0
  143.8760   75.2305  219.5781 H   0  0  0  0  0  0  0  0  0  0  0  0
  141.8303   71.7436  224.4539 H   0  0  0  0  0  0  0  0  0  0  0  0
  140.6117   72.8246  225.2875 H   0  0  0  0  0  0  0  0  0  0  0  0
  1  2  2  0
  2  3  1  0
  3  4  2  0
  4  5  1  0
  5  6  2  0
  5  7  1  0
  7  8  1  0
  8  9  1  0
  9 10  1  0
 10 11  2  0
 11 12  1  0
 12 13  1  0
 13 14  1  0
 14 15  1  0
 15 16  1  0
 16 17  1  0
 17 18  1  0
 18 19  2  0
 19 20  1  0
 20 21  2  0
 21 22  1  0
 22 23  2  0
 23 24  1  0
 24 25  2  0
 12 26  2  0
 26 27  1  0
 27 28  1  0
 28 29  1  0
 29 30  1  0
 30 31  1  0
 31 32  1  0
 32 33  1  0
 27 34  2  0
  9 35  1  0
  6  1  1  0
 34 10  1  0
 35  4  1  0
 25 17  1  0
 33 28  1  0
 25 20  1  0
  1 36  1  0
  2 37  1  0
  3 38  1  0
  6 39  1  0
  7 40  1  0
  7 41  1  0
  8 42  1  0
  8 43  1  0
 13 44  1  0
 14 45  1  0
 14 46  1  0
 15 47  1  0
 15 48  1  0
 16 49  1  0
 16 50  1  0
 18 51  1  0
 19 52  1  0
 21 53  1  0
 22 54  1  0
 23 55  1  0
 24 56  1  0
 29 57  1  0
 29 58  1  0
 30 59  1  0
 30 60  1  0
 31 61  1  0
 32 62  1  0
 32 63  1  0
 33 64  1  0
 33 65  1  0
 35 66  1  0
 35 67  1  0
M  END
>  <smiles>  (33) 
c1ccc2c(c1)CCN(c1nc(NCCCn3ccc4ccccc43)nc(N3CCNCC3)n1)C2

>  <score_type>  (33) 
oracle

>  <origin>  (33) 
autodockgpu

>  <m_score__min__energy>  (33) 
-10.76

>  <m_primary>  (33) 
energy

>  <rmsd>  (33) 
3.5597325419336596

>  <m_score__min__rmsd>  (33) 
3.5597325419336596

>  <meeko>  (33) 
{"free_energy": -9.69, "intermolecular_energy": -11.78, "internal_energy": -1.13, "cluster_size": 44, "cluster_id": 1, "rank_in_cluster": 38}

>  <energy>  (33) 
-9.79

>  <cluster_rmsd>  (33) 
1.61

>  <cluster>  (33) 
1

$$$$

     RDKit          3D

 67 72  0  0  0  0  0  0  0  0999 V2000
  141.5270   81.7500  222.6910 C   0  0  0  0  0  0  0  0  0  0  0  0
  141.5350   81.0530  223.8810 C   0  0  0  0  0  0  0  0  0  0  0  0
  141.3870   79.6840  223.8590 C   0  0  0  0  0  0  0  0  0  0  0  0
  141.2320   79.0130  222.6550 C   0  0  0  0  0  0  0  0  0  0  0  0
  141.2280   79.7370  221.4860 C   0  0  0  0  0  0  0  0  0  0  0  0
  141.3740   81.1160  221.4680 C   0  0  0  0  0  0  0  0  0  0  0  0
  141.0590   78.9720  220.2190 C   0  0  0  0  0  0  0  0  0  0  0  0
  141.8700   77.6750  220.3040 C   0  0  0  0  0  0  0  0  0  0  0  0
  141.3410   76.9060  221.4360 N   0  0  0  0  0  0  0  0  0  0  0  0
  141.0800   75.5230  221.3160 C   0  0  0  0  0  0  0  0  0  0  0  0
  139.9940   74.9550  221.8480 N   0  0  0  0  0  0  0  0  0  0  0  0
  139.7200   73.6280  221.7470 C   0  0  0  0  0  0  0  0  0  0  0  0
  138.5530   73.0770  222.3330 N   0  0  0  0  0  0  0  0  0  0  0  0
  137.9700   71.8160  221.9570 C   0  0  0  0  0  0  0  0  0  0  0  0
  138.0750   70.8350  223.1020 C   0  0  0  0  0  0  0  0  0  0  0  0
  139.5200   70.6850  223.4820 C   0  0  0  0  0  0  0  0  0  0  0  0
  139.6550   70.0430  224.7610 N   0  0  0  0  0  0  0  0  0  0  0  0
  139.2840   68.8040  225.1510 C   0  0  0  0  0  0  0  0  0  0  0  0
  139.6030   68.6050  226.4710 C   0  0  0  0  0  0  0  0  0  0  0  0
  140.1930   69.7640  226.9220 C   0  0  0  0  0  0  0  0  0  0  0  0
  140.6930   70.0890  228.1630 C   0  0  0  0  0  0  0  0  0  0  0  0
  141.2440   71.3380  228.3650 C   0  0  0  0  0  0  0  0  0  0  0  0
  141.2770   72.2260  227.3110 C   0  0  0  0  0  0  0  0  0  0  0  0
  140.7740   71.8870  226.0790 C   0  0  0  0  0  0  0  0  0  0  0  0
  140.2170   70.6430  225.8490 C   0  0  0  0  0  0  0  0  0  0  0  0
  140.6110   72.8920  221.0720 N   0  0  0  0  0  0  0  0  0  0  0  0
  141.7130   73.4330  220.5250 C   0  0  0  0  0  0  0  0  0  0  0  0
  142.6080   72.5810  219.8240 N   0  0  0  0  0  0  0  0  0  0  0  0
  142.1250   71.3830  219.1780 C   0  0  0  0  0  0  0  0  0  0  0  0
  142.8380   70.1490  219.6810 C   0  0  0  0  0  0  0  0  0  0  0  0
  143.9510   70.6000  220.4840 N   0  0  0  0  0  0  0  0  0  0  0  0
  144.7870   71.5540  219.8070 C   0  0  0  0  0  0  0  0  0  0  0  0
  144.0250   72.8670  219.7270 C   0  0  0  0  0  0  0  0  0  0  0  0
  141.9700   74.7490  220.6330 N   0  0  0  0  0  0  0  0  0  0  0  0
  141.0790   77.5560  222.6960 C   0  0  0  0  0  0  0  0  0  0  0  0
  141.6457   82.8433  222.7131 H   0  0  0  0  0  0  0  0  0  0  0  0
  141.6581   81.5842  224.8363 H   0  0  0  0  0  0  0  0  0  0  0  0
  141.3917   79.1188  224.8027 H   0  0  0  0  0  0  0  0  0  0  0  0
  141.3686   81.6817  220.5246 H   0  0  0  0  0  0  0  0  0  0  0  0
  139.9955   78.7324  220.0725 H   0  0  0  0  0  0  0  0  0  0  0  0
  141.4144   79.5762  219.3713 H   0  0  0  0  0  0  0  0  0  0  0  0
  141.7594   77.0997  219.3730 H   0  0  0  0  0  0  0  0  0  0  0  0
  142.9393   77.8916  220.4447 H   0  0  0  0  0  0  0  0  0  0  0  0
  138.0790   73.6230  223.0950 H   0  0  0  0  0  0  0  0  0  0  0  0
  136.9105   71.9662  221.7022 H   0  0  0  0  0  0  0  0  0  0  0  0
  138.5100   71.4141  221.0870 H   0  0  0  0  0  0  0  0  0  0  0  0
  137.5035   71.2104  223.9637 H   0  0  0  0  0  0  0  0  0  0  0  0
  137.6664   69.8604  222.7968 H   0  0  0  0  0  0  0  0  0  0  0  0
  140.0307   70.0782  222.7198 H   0  0  0  0  0  0  0  0  0  0  0  0
  139.9705   71.6866  223.5446 H   0  0  0  0  0  0  0  0  0  0  0  0
  138.7960   68.0608  224.5033 H   0  0  0  0  0  0  0  0  0  0  0  0
  139.4216   67.6922  227.0574 H   0  0  0  0  0  0  0  0  0  0  0  0
  140.6536   69.3599  228.9857 H   0  0  0  0  0  0  0  0  0  0  0  0
  141.6491   71.6196  229.3482 H   0  0  0  0  0  0  0  0  0  0  0  0
  141.7142   73.2244  227.4596 H   0  0  0  0  0  0  0  0  0  0  0  0
  140.8151   72.6195  225.2594 H   0  0  0  0  0  0  0  0  0  0  0  0
  141.0485   71.2792  219.3789 H   0  0  0  0  0  0  0  0  0  0  0  0
  142.3183   71.4742  218.0990 H   0  0  0  0  0  0  0  0  0  0  0  0
  142.1544   69.5405  220.2912 H   0  0  0  0  0  0  0  0  0  0  0  0
  143.1861   69.5284  218.8422 H   0  0  0  0  0  0  0  0  0  0  0  0
  144.4380   69.8640  221.0030 H   0  0  0  0  0  0  0  0  0  0  0  0
  145.7216   71.6976  220.3691 H   0  0  0  0  0  0  0  0  0  0  0  0
  145.0400   71.1950  218.7985 H   0  0  0  0  0  0  0  0  0  0  0  0
  144.3288   73.5238  220.5555 H   0  0  0  0  0  0  0  0  0  0  0  0
  144.2437   73.3731  218.7752 H   0  0  0  0  0  0  0  0  0  0  0  0
  140.0467   77.3244  222.9973 H   0  0  0  0  0  0  0  0  0  0  0  0
  141.8228   77.1766  223.4121 H   0  0  0  0  0  0  0  0  0  0  0  0
  1  2  2  0
  2  3  1  0
  3  4  2  0
  4  5  1  0
  5  6  2  0
  5  7  1  0
  7  8  1  0
  8  9  1  0
  9 10  1  0
 10 11  2  0
 11 12  1  0
 12 13  1  0
 13 14  1  0
 14 15  1  0
 15 16  1  0
 16 17  1  0
 17 18  1  0
 18 19  2  0
 19 20  1  0
 20 21  2  0
 21 22  1  0
 22 23  2  0
 23 24  1  0
 24 25  2  0
 12 26  2  0
 26 27  1  0
 27 28  1  0
 28 29  1  0
 29 30  1  0
 30 31  1  0
 31 32  1  0
 32 33  1  0
 27 34  2  0
  9 35  1  0
  6  1  1  0
 34 10  1  0
 35  4  1  0
 25 17  1  0
 33 28  1  0
 25 20  1  0
  1 36  1  0
  2 37  1  0
  3 38  1  0
  6 39  1  0
  7 40  1  0
  7 41  1  0
  8 42  1  0
  8 43  1  0
 13 44  1  0
 14 45  1  0
 14 46  1  0
 15 47  1  0
 15 48  1  0
 16 49  1  0
 16 50  1  0
 18 51  1  0
 19 52  1  0
 21 53  1  0
 22 54  1  0
 23 55  1  0
 24 56  1  0
 29 57  1  0
 29 58  1  0
 30 59  1  0
 30 60  1  0
 31 61  1  0
 32 62  1  0
 32 63  1  0
 33 64  1  0
 33 65  1  0
 35 66  1  0
 35 67  1  0
M  END
>  <smiles>  (34) 
c1ccc2c(c1)CCN(c1nc(NCCCn3ccc4ccccc43)nc(N3CCNCC3)n1)C2

>  <score_type>  (34) 
oracle

>  <origin>  (34) 
autodockgpu

>  <m_score__min__energy>  (34) 
-10.76

>  <m_primary>  (34) 
energy

>  <rmsd>  (34) 
11.137399437570163

>  <m_score__min__rmsd>  (34) 
11.137399437570163

>  <meeko>  (34) 
{"free_energy": -9.96, "intermolecular_energy": -12.05, "internal_energy": -1.09, "cluster_size": 44, "cluster_id": 1, "rank_in_cluster": 24}

>  <energy>  (34) 
-9.77

>  <cluster_rmsd>  (34) 
1.6

>  <cluster>  (34) 
1

$$$$

     RDKit          3D

 67 72  0  0  0  0  0  0  0  0999 V2000
  142.4280   81.2770  223.5290 C   0  0  0  0  0  0  0  0  0  0  0  0
  143.1610   80.2420  222.9890 C   0  0  0  0  0  0  0  0  0  0  0  0
  142.5420   79.0380  222.7370 C   0  0  0  0  0  0  0  0  0  0  0  0
  141.1960   78.8680  223.0240 C   0  0  0  0  0  0  0  0  0  0  0  0
  140.4920   79.9190  223.5630 C   0  0  0  0  0  0  0  0  0  0  0  0
  141.0810   81.1450  223.8300 C   0  0  0  0  0  0  0  0  0  0  0  0
  139.0500   79.6860  223.8540 C   0  0  0  0  0  0  0  0  0  0  0  0
  138.4340   78.8680  222.7140 C   0  0  0  0  0  0  0  0  0  0  0  0
  139.1530   77.5890  222.6600 N   0  0  0  0  0  0  0  0  0  0  0  0
  138.4550   76.3680  222.5360 C   0  0  0  0  0  0  0  0  0  0  0  0
  138.9520   75.3300  221.8560 N   0  0  0  0  0  0  0  0  0  0  0  0
  138.3010   74.1450  221.7210 C   0  0  0  0  0  0  0  0  0  0  0  0
  138.8740   73.0780  220.9860 N   0  0  0  0  0  0  0  0  0  0  0  0
  139.9320   72.2300  221.4710 C   0  0  0  0  0  0  0  0  0  0  0  0
  140.1440   72.4610  222.9490 C   0  0  0  0  0  0  0  0  0  0  0  0
  139.3270   71.4640  223.7190 C   0  0  0  0  0  0  0  0  0  0  0  0
  139.9710   71.1110  224.9550 N   0  0  0  0  0  0  0  0  0  0  0  0
  140.6780   71.8800  225.8120 C   0  0  0  0  0  0  0  0  0  0  0  0
  141.1190   71.1280  226.8730 C   0  0  0  0  0  0  0  0  0  0  0  0
  140.6700   69.8430  226.6690 C   0  0  0  0  0  0  0  0  0  0  0  0
  140.8360   68.7070  227.4290 C   0  0  0  0  0  0  0  0  0  0  0  0
  140.2790   67.5190  227.0020 C   0  0  0  0  0  0  0  0  0  0  0  0
  139.5710   67.5070  225.8190 C   0  0  0  0  0  0  0  0  0  0  0  0
  139.4150   68.6480  225.0720 C   0  0  0  0  0  0  0  0  0  0  0  0
  139.9620   69.8520  225.4760 C   0  0  0  0  0  0  0  0  0  0  0  0
  137.1050   74.0590  222.3160 N   0  0  0  0  0  0  0  0  0  0  0  0
  136.5780   75.0850  223.0070 C   0  0  0  0  0  0  0  0  0  0  0  0
  135.3020   74.9100  223.6090 N   0  0  0  0  0  0  0  0  0  0  0  0
  134.6950   75.9800  224.3640 C   0  0  0  0  0  0  0  0  0  0  0  0
  134.3720   75.5530  225.7780 C   0  0  0  0  0  0  0  0  0  0  0  0
  134.5620   74.1230  225.8430 N   0  0  0  0  0  0  0  0  0  0  0  0
  133.8520   73.4110  224.8150 C   0  0  0  0  0  0  0  0  0  0  0  0
  134.5630   73.6680  223.4950 C   0  0  0  0  0  0  0  0  0  0  0  0
  137.2350   76.2510  223.1320 N   0  0  0  0  0  0  0  0  0  0  0  0
  140.5930   77.5630  222.7340 C   0  0  0  0  0  0  0  0  0  0  0  0
  142.9270   82.2371  223.7272 H   0  0  0  0  0  0  0  0  0  0  0  0
  144.2289   80.3764  222.7618 H   0  0  0  0  0  0  0  0  0  0  0  0
  143.1185   78.2064  222.3056 H   0  0  0  0  0  0  0  0  0  0  0  0
  140.5050   81.9768  224.2618 H   0  0  0  0  0  0  0  0  0  0  0  0
  138.9497   79.1334  224.7998 H   0  0  0  0  0  0  0  0  0  0  0  0
  138.5290   80.6509  223.9412 H   0  0  0  0  0  0  0  0  0  0  0  0
  137.3661   78.6921  222.9106 H   0  0  0  0  0  0  0  0  0  0  0  0
  138.5194   79.4048  221.7577 H   0  0  0  0  0  0  0  0  0  0  0  0
  138.5030   72.8880  220.0220 H   0  0  0  0  0  0  0  0  0  0  0  0
  139.6613   71.1773  221.3021 H   0  0  0  0  0  0  0  0  0  0  0  0
  140.8608   72.4679  220.9318 H   0  0  0  0  0  0  0  0  0  0  0  0
  141.2088   72.3335  223.1937 H   0  0  0  0  0  0  0  0  0  0  0  0
  139.8335   73.4822  223.2150 H   0  0  0  0  0  0  0  0  0  0  0  0
  138.3417   71.9006  223.9392 H   0  0  0  0  0  0  0  0  0  0  0  0
  139.2196   70.5549  223.1090 H   0  0  0  0  0  0  0  0  0  0  0  0
  140.8724   72.9545  225.6789 H   0  0  0  0  0  0  0  0  0  0  0  0
  141.7174   71.4848  227.7242 H   0  0  0  0  0  0  0  0  0  0  0  0
  141.4075   68.7461  228.3681 H   0  0  0  0  0  0  0  0  0  0  0  0
  140.3975   66.5994  227.5939 H   0  0  0  0  0  0  0  0  0  0  0  0
  139.1230   66.5659  225.4674 H   0  0  0  0  0  0  0  0  0  0  0  0
  138.8434   68.6037  224.1332 H   0  0  0  0  0  0  0  0  0  0  0  0
  135.3909   76.8312  224.3988 H   0  0  0  0  0  0  0  0  0  0  0  0
  133.7545   76.2600  223.8669 H   0  0  0  0  0  0  0  0  0  0  0  0
  135.0457   76.0559  226.4873 H   0  0  0  0  0  0  0  0  0  0  0  0
  133.3391   75.8234  226.0426 H   0  0  0  0  0  0  0  0  0  0  0  0
  134.5120   73.7210  226.7840 H   0  0  0  0  0  0  0  0  0  0  0  0
  133.8532   72.3336  225.0370 H   0  0  0  0  0  0  0  0  0  0  0  0
  132.8079   73.7532  224.7619 H   0  0  0  0  0  0  0  0  0  0  0  0
  135.2561   72.8415  223.2790 H   0  0  0  0  0  0  0  0  0  0  0  0
  133.8302   73.7373  222.6776 H   0  0  0  0  0  0  0  0  0  0  0  0
  140.8865   76.8614  223.5287 H   0  0  0  0  0  0  0  0  0  0  0  0
  140.9585   77.2551  221.7432 H   0  0  0  0  0  0  0  0  0  0  0  0
  1  2  2  0
  2  3  1  0
  3  4  2  0
  4  5  1  0
  5  6  2  0
  5  7  1  0
  7  8  1  0
  8  9  1  0
  9 10  1  0
 10 11  2  0
 11 12  1  0
 12 13  1  0
 13 14  1  0
 14 15  1  0
 15 16  1  0
 16 17  1  0
 17 18  1  0
 18 19  2  0
 19 20  1  0
 20 21  2  0
 21 22  1  0
 22 23  2  0
 23 24  1  0
 24 25  2  0
 12 26  2  0
 26 27  1  0
 27 28  1  0
 28 29  1  0
 29 30  1  0
 30 31  1  0
 31 32  1  0
 32 33  1  0
 27 34  2  0
  9 35  1  0
  6  1  1  0
 34 10  1  0
 35  4  1  0
 25 17  1  0
 33 28  1  0
 25 20  1  0
  1 36  1  0
  2 37  1  0
  3 38  1  0
  6 39  1  0
  7 40  1  0
  7 41  1  0
  8 42  1  0
  8 43  1  0
 13 44  1  0
 14 45  1  0
 14 46  1  0
 15 47  1  0
 15 48  1  0
 16 49  1  0
 16 50  1  0
 18 51  1  0
 19 52  1  0
 21 53  1  0
 22 54  1  0
 23 55  1  0
 24 56  1  0
 29 57  1  0
 29 58  1  0
 30 59  1  0
 30 60  1  0
 31 61  1  0
 32 62  1  0
 32 63  1  0
 33 64  1  0
 33 65  1  0
 35 66  1  0
 35 67  1  0
M  END
>  <smiles>  (35) 
c1ccc2c(c1)CCN(c1nc(NCCCn3ccc4ccccc43)nc(N3CCNCC3)n1)C2

>  <score_type>  (35) 
oracle

>  <origin>  (35) 
autodockgpu

>  <m_score__min__energy>  (35) 
-10.76

>  <m_primary>  (35) 
energy

>  <rmsd>  (35) 
11.434813052864687

>  <m_score__min__rmsd>  (35) 
11.434813052864687

>  <meeko>  (35) 
{"free_energy": -9.53, "intermolecular_energy": -11.62, "internal_energy": -1.11, "cluster_size": 2, "cluster_id": 3, "rank_in_cluster": 2}

>  <energy>  (35) 
-9.76

>  <cluster_rmsd>  (35) 
1.65

>  <cluster>  (35) 
1

$$$$

     RDKit          3D

 67 72  0  0  0  0  0  0  0  0999 V2000
  140.1780   81.0850  222.5720 C   0  0  0  0  0  0  0  0  0  0  0  0
  140.6310   80.4930  223.7320 C   0  0  0  0  0  0  0  0  0  0  0  0
  140.9160   79.1450  223.7320 C   0  0  0  0  0  0  0  0  0  0  0  0
  140.7500   78.3920  222.5800 C   0  0  0  0  0  0  0  0  0  0  0  0
  140.2970   79.0120  221.4400 C   0  0  0  0  0  0  0  0  0  0  0  0
  140.0000   80.3650  221.4010 C   0  0  0  0  0  0  0  0  0  0  0  0
  140.1350   78.1600  220.2280 C   0  0  0  0  0  0  0  0  0  0  0  0
  141.3110   77.1820  220.1420 C   0  0  0  0  0  0  0  0  0  0  0  0
  141.2750   76.3530  221.3530 N   0  0  0  0  0  0  0  0  0  0  0  0
  141.4400   74.9530  221.2800 C   0  0  0  0  0  0  0  0  0  0  0  0
  140.4470   74.1030  221.5570 N   0  0  0  0  0  0  0  0  0  0  0  0
  140.5790   72.7520  221.4950 C   0  0  0  0  0  0  0  0  0  0  0  0
  139.4920   71.8980  221.8020 N   0  0  0  0  0  0  0  0  0  0  0  0
  138.7630   71.9200  223.0430 C   0  0  0  0  0  0  0  0  0  0  0  0
  138.3510   70.5180  223.4270 C   0  0  0  0  0  0  0  0  0  0  0  0
  139.5850   69.6820  223.6080 C   0  0  0  0  0  0  0  0  0  0  0  0
  139.7780   69.3370  224.9910 N   0  0  0  0  0  0  0  0  0  0  0  0
  139.5390   68.1730  225.6340 C   0  0  0  0  0  0  0  0  0  0  0  0
  139.8680   68.2880  226.9620 C   0  0  0  0  0  0  0  0  0  0  0  0
  140.3290   69.5700  227.1540 C   0  0  0  0  0  0  0  0  0  0  0  0
  140.7830   70.1970  228.2930 C   0  0  0  0  0  0  0  0  0  0  0  0
  141.1970   71.5110  228.2240 C   0  0  0  0  0  0  0  0  0  0  0  0
  141.1420   72.1600  227.0090 C   0  0  0  0  0  0  0  0  0  0  0  0
  140.6870   71.5220  225.8810 C   0  0  0  0  0  0  0  0  0  0  0  0
  140.2660   70.2050  225.9220 C   0  0  0  0  0  0  0  0  0  0  0  0
  141.7840   72.2950  221.1330 N   0  0  0  0  0  0  0  0  0  0  0  0
  142.8030   73.1230  220.8470 C   0  0  0  0  0  0  0  0  0  0  0  0
  144.0510   72.5550  220.4700 N   0  0  0  0  0  0  0  0  0  0  0  0
  145.2500   72.8620  221.2120 C   0  0  0  0  0  0  0  0  0  0  0  0
  146.3220   73.4510  220.3240 C   0  0  0  0  0  0  0  0  0  0  0  0
  145.8760   73.2930  218.9590 N   0  0  0  0  0  0  0  0  0  0  0  0
  145.4940   71.9430  218.6420 C   0  0  0  0  0  0  0  0  0  0  0  0
  144.1750   71.6550  219.3410 C   0  0  0  0  0  0  0  0  0  0  0  0
  142.6560   74.4580  220.9130 N   0  0  0  0  0  0  0  0  0  0  0  0
  141.0700   76.9630  222.6430 C   0  0  0  0  0  0  0  0  0  0  0  0
  139.9510   82.1613  222.5760 H   0  0  0  0  0  0  0  0  0  0  0  0
  140.7633   81.0898  224.6465 H   0  0  0  0  0  0  0  0  0  0  0  0
  141.2777   78.6631  224.6523 H   0  0  0  0  0  0  0  0  0  0  0  0
  139.6386   80.8468  220.4805 H   0  0  0  0  0  0  0  0  0  0  0  0
  139.1923   77.5974  220.2966 H   0  0  0  0  0  0  0  0  0  0  0  0
  140.1138   78.7941  219.3294 H   0  0  0  0  0  0  0  0  0  0  0  0
  141.2099   76.5486  219.2484 H   0  0  0  0  0  0  0  0  0  0  0  0
  142.2653   77.7241  220.0678 H   0  0  0  0  0  0  0  0  0  0  0  0
  139.1940   71.1980  221.0770 H   0  0  0  0  0  0  0  0  0  0  0  0
  139.4021   72.3409  223.8332 H   0  0  0  0  0  0  0  0  0  0  0  0
  137.8624   72.5397  222.9210 H   0  0  0  0  0  0  0  0  0  0  0  0
  137.7817   70.5448  224.3678 H   0  0  0  0  0  0  0  0  0  0  0  0
  137.7195   70.0851  222.6372 H   0  0  0  0  0  0  0  0  0  0  0  0
  139.4835   68.7591  223.0182 H   0  0  0  0  0  0  0  0  0  0  0  0
  140.4544   70.2640  223.2683 H   0  0  0  0  0  0  0  0  0  0  0  0
  139.1385   67.2640  225.1615 H   0  0  0  0  0  0  0  0  0  0  0  0
  139.7797   67.5033  227.7278 H   0  0  0  0  0  0  0  0  0  0  0  0
  140.8152   69.6547  229.2495 H   0  0  0  0  0  0  0  0  0  0  0  0
  141.5640   72.0310  229.1212 H   0  0  0  0  0  0  0  0  0  0  0  0
  141.4686   73.2083  226.9417 H   0  0  0  0  0  0  0  0  0  0  0  0
  140.6568   72.0687  224.9269 H   0  0  0  0  0  0  0  0  0  0  0  0
  145.0043   73.5864  222.0025 H   0  0  0  0  0  0  0  0  0  0  0  0
  145.6366   71.9259  221.6412 H   0  0  0  0  0  0  0  0  0  0  0  0
  146.4596   74.5176  220.5551 H   0  0  0  0  0  0  0  0  0  0  0  0
  147.2849   72.9435  220.4828 H   0  0  0  0  0  0  0  0  0  0  0  0
  146.4450   73.7760  218.2580 H   0  0  0  0  0  0  0  0  0  0  0  0
  145.3721   71.8346  217.5542 H   0  0  0  0  0  0  0  0  0  0  0  0
  146.2679   71.2367  218.9772 H   0  0  0  0  0  0  0  0  0  0  0  0
  143.3409   71.8177  218.6426 H   0  0  0  0  0  0  0  0  0  0  0  0
  144.1491   70.6105  219.6850 H   0  0  0  0  0  0  0  0  0  0  0  0
  140.2394   76.4438  223.1436 H   0  0  0  0  0  0  0  0  0  0  0  0
  142.0180   76.8720  223.1935 H   0  0  0  0  0  0  0  0  0  0  0  0
  1  2  2  0
  2  3  1  0
  3  4  2  0
  4  5  1  0
  5  6  2  0
  5  7  1  0
  7  8  1  0
  8  9  1  0
  9 10  1  0
 10 11  2  0
 11 12  1  0
 12 13  1  0
 13 14  1  0
 14 15  1  0
 15 16  1  0
 16 17  1  0
 17 18  1  0
 18 19  2  0
 19 20  1  0
 20 21  2  0
 21 22  1  0
 22 23  2  0
 23 24  1  0
 24 25  2  0
 12 26  2  0
 26 27  1  0
 27 28  1  0
 28 29  1  0
 29 30  1  0
 30 31  1  0
 31 32  1  0
 32 33  1  0
 27 34  2  0
  9 35  1  0
  6  1  1  0
 34 10  1  0
 35  4  1  0
 25 17  1  0
 33 28  1  0
 25 20  1  0
  1 36  1  0
  2 37  1  0
  3 38  1  0
  6 39  1  0
  7 40  1  0
  7 41  1  0
  8 42  1  0
  8 43  1  0
 13 44  1  0
 14 45  1  0
 14 46  1  0
 15 47  1  0
 15 48  1  0
 16 49  1  0
 16 50  1  0
 18 51  1  0
 19 52  1  0
 21 53  1  0
 22 54  1  0
 23 55  1  0
 24 56  1  0
 29 57  1  0
 29 58  1  0
 30 59  1  0
 30 60  1  0
 31 61  1  0
 32 62  1  0
 32 63  1  0
 33 64  1  0
 33 65  1  0
 35 66  1  0
 35 67  1  0
M  END
>  <smiles>  (36) 
c1ccc2c(c1)CCN(c1nc(NCCCn3ccc4ccccc43)nc(N3CCNCC3)n1)C2

>  <score_type>  (36) 
oracle

>  <origin>  (36) 
autodockgpu

>  <m_score__min__energy>  (36) 
-10.76

>  <m_primary>  (36) 
energy

>  <rmsd>  (36) 
11.424077680271468

>  <m_score__min__rmsd>  (36) 
11.424077680271468

>  <meeko>  (36) 
{"free_energy": -10.18, "intermolecular_energy": -12.27, "internal_energy": -1.06, "cluster_size": 44, "cluster_id": 1, "rank_in_cluster": 20}

>  <energy>  (36) 
-9.72

>  <cluster_rmsd>  (36) 
1.68

>  <cluster>  (36) 
1

$$$$

     RDKit          3D

 67 72  0  0  0  0  0  0  0  0999 V2000
  139.1570   80.9700  223.6970 C   0  0  0  0  0  0  0  0  0  0  0  0
  140.5330   80.8880  223.6600 C   0  0  0  0  0  0  0  0  0  0  0  0
  141.1260   79.6920  223.3220 C   0  0  0  0  0  0  0  0  0  0  0  0
  140.3500   78.5830  223.0220 C   0  0  0  0  0  0  0  0  0  0  0  0
  138.9810   78.6980  223.0680 C   0  0  0  0  0  0  0  0  0  0  0  0
  138.3480   79.8840  223.4040 C   0  0  0  0  0  0  0  0  0  0  0  0
  138.1900   77.4790  222.7370 C   0  0  0  0  0  0  0  0  0  0  0  0
  138.8500   76.7580  221.5580 C   0  0  0  0  0  0  0  0  0  0  0  0
  140.2050   76.3840  221.9810 N   0  0  0  0  0  0  0  0  0  0  0  0
  140.7160   75.0920  221.7260 C   0  0  0  0  0  0  0  0  0  0  0  0
  140.0710   73.9840  222.1030 N   0  0  0  0  0  0  0  0  0  0  0  0
  140.5400   72.7310  221.8690 C   0  0  0  0  0  0  0  0  0  0  0  0
  139.8160   71.5900  222.2930 N   0  0  0  0  0  0  0  0  0  0  0  0
  138.6380   71.6330  223.1200 C   0  0  0  0  0  0  0  0  0  0  0  0
  138.2910   70.2420  223.5990 C   0  0  0  0  0  0  0  0  0  0  0  0
  139.5590   69.4590  223.7780 C   0  0  0  0  0  0  0  0  0  0  0  0
  139.8290   69.2230  225.1700 N   0  0  0  0  0  0  0  0  0  0  0  0
  139.6790   68.0970  225.9020 C   0  0  0  0  0  0  0  0  0  0  0  0
  140.0580   68.3210  227.2020 C   0  0  0  0  0  0  0  0  0  0  0  0
  140.4590   69.6350  227.2840 C   0  0  0  0  0  0  0  0  0  0  0  0
  140.9270   70.3620  228.3560 C   0  0  0  0  0  0  0  0  0  0  0  0
  141.2680   71.6870  228.1780 C   0  0  0  0  0  0  0  0  0  0  0  0
  141.1280   72.2450  226.9250 C   0  0  0  0  0  0  0  0  0  0  0  0
  140.6590   71.5070  225.8660 C   0  0  0  0  0  0  0  0  0  0  0  0
  140.3100   70.1780  226.0160 C   0  0  0  0  0  0  0  0  0  0  0  0
  141.7120   72.6510  221.2270 N   0  0  0  0  0  0  0  0  0  0  0  0
  142.3850   73.7460  220.8350 C   0  0  0  0  0  0  0  0  0  0  0  0
  143.6230   73.5730  220.1570 N   0  0  0  0  0  0  0  0  0  0  0  0
  143.8310   72.4360  219.2910 C   0  0  0  0  0  0  0  0  0  0  0  0
  145.0310   71.6210  219.7170 C   0  0  0  0  0  0  0  0  0  0  0  0
  145.7280   72.3870  220.7240 N   0  0  0  0  0  0  0  0  0  0  0  0
  146.0210   73.7320  220.3080 C   0  0  0  0  0  0  0  0  0  0  0  0
  144.7160   74.5120  220.3010 C   0  0  0  0  0  0  0  0  0  0  0  0
  141.9070   74.9800  221.0730 N   0  0  0  0  0  0  0  0  0  0  0  0
  141.0390   77.3380  222.6700 C   0  0  0  0  0  0  0  0  0  0  0  0
  138.6871   81.9271  223.9675 H   0  0  0  0  0  0  0  0  0  0  0  0
  141.1496   81.7674  223.8976 H   0  0  0  0  0  0  0  0  0  0  0  0
  142.2229   79.6160  223.2898 H   0  0  0  0  0  0  0  0  0  0  0  0
  137.2511   79.9600  223.4367 H   0  0  0  0  0  0  0  0  0  0  0  0
  138.1626   76.8096  223.6094 H   0  0  0  0  0  0  0  0  0  0  0  0
  137.1627   77.7657  222.4679 H   0  0  0  0  0  0  0  0  0  0  0  0
  138.2747   75.8575  221.2971 H   0  0  0  0  0  0  0  0  0  0  0  0
  138.8834   77.4087  220.6717 H   0  0  0  0  0  0  0  0  0  0  0  0
  140.1580   70.6460  221.9850 H   0  0  0  0  0  0  0  0  0  0  0  0
  138.8264   72.2809  223.9887 H   0  0  0  0  0  0  0  0  0  0  0  0
  137.7985   72.0320  222.5318 H   0  0  0  0  0  0  0  0  0  0  0  0
  137.7570   70.3044  224.5587 H   0  0  0  0  0  0  0  0  0  0  0  0
  137.6463   69.7434  222.8602 H   0  0  0  0  0  0  0  0  0  0  0  0
  139.4603   68.4924  223.2622 H   0  0  0  0  0  0  0  0  0  0  0  0
  140.3913   70.0400  223.3541 H   0  0  0  0  0  0  0  0  0  0  0  0
  139.3065   67.1383  225.5119 H   0  0  0  0  0  0  0  0  0  0  0  0
  140.0439   67.5889  228.0229 H   0  0  0  0  0  0  0  0  0  0  0  0
  141.0280   69.8907  229.3448 H   0  0  0  0  0  0  0  0  0  0  0  0
  141.6444   72.2868  229.0197 H   0  0  0  0  0  0  0  0  0  0  0  0
  141.3968   73.3004  226.7708 H   0  0  0  0  0  0  0  0  0  0  0  0
  140.5591   71.9828  224.8792 H   0  0  0  0  0  0  0  0  0  0  0  0
  142.9366   71.7963  219.3214 H   0  0  0  0  0  0  0  0  0  0  0  0
  144.0140   72.8094  218.2726 H   0  0  0  0  0  0  0  0  0  0  0  0
  144.7038   70.6575  220.1349 H   0  0  0  0  0  0  0  0  0  0  0  0
  145.6874   71.4124  218.8593 H   0  0  0  0  0  0  0  0  0  0  0  0
  146.4850   71.8890  221.2010 H   0  0  0  0  0  0  0  0  0  0  0  0
  146.7296   74.1948  221.0106 H   0  0  0  0  0  0  0  0  0  0  0  0
  146.4745   73.7336  219.3059 H   0  0  0  0  0  0  0  0  0  0  0  0
  144.6087   75.0650  221.2458 H   0  0  0  0  0  0  0  0  0  0  0  0
  144.7095   75.2302  219.4679 H   0  0  0  0  0  0  0  0  0  0  0  0
  141.4066   76.8717  223.5960 H   0  0  0  0  0  0  0  0  0  0  0  0
  141.8532   77.6071  221.9810 H   0  0  0  0  0  0  0  0  0  0  0  0
  1  2  2  0
  2  3  1  0
  3  4  2  0
  4  5  1  0
  5  6  2  0
  5  7  1  0
  7  8  1  0
  8  9  1  0
  9 10  1  0
 10 11  2  0
 11 12  1  0
 12 13  1  0
 13 14  1  0
 14 15  1  0
 15 16  1  0
 16 17  1  0
 17 18  1  0
 18 19  2  0
 19 20  1  0
 20 21  2  0
 21 22  1  0
 22 23  2  0
 23 24  1  0
 24 25  2  0
 12 26  2  0
 26 27  1  0
 27 28  1  0
 28 29  1  0
 29 30  1  0
 30 31  1  0
 31 32  1  0
 32 33  1  0
 27 34  2  0
  9 35  1  0
  6  1  1  0
 34 10  1  0
 35  4  1  0
 25 17  1  0
 33 28  1  0
 25 20  1  0
  1 36  1  0
  2 37  1  0
  3 38  1  0
  6 39  1  0
  7 40  1  0
  7 41  1  0
  8 42  1  0
  8 43  1  0
 13 44  1  0
 14 45  1  0
 14 46  1  0
 15 47  1  0
 15 48  1  0
 16 49  1  0
 16 50  1  0
 18 51  1  0
 19 52  1  0
 21 53  1  0
 22 54  1  0
 23 55  1  0
 24 56  1  0
 29 57  1  0
 29 58  1  0
 30 59  1  0
 30 60  1  0
 31 61  1  0
 32 62  1  0
 32 63  1  0
 33 64  1  0
 33 65  1  0
 35 66  1  0
 35 67  1  0
M  END
>  <smiles>  (37) 
c1ccc2c(c1)CCN(c1nc(NCCCn3ccc4ccccc43)nc(N3CCNCC3)n1)C2

>  <score_type>  (37) 
oracle

>  <origin>  (37) 
autodockgpu

>  <m_score__min__energy>  (37) 
-10.76

>  <m_primary>  (37) 
energy

>  <rmsd>  (37) 
11.47512882551823

>  <m_score__min__rmsd>  (37) 
11.47512882551823

>  <meeko>  (37) 
{"free_energy": -10.76, "intermolecular_energy": -12.84, "internal_energy": -1.06, "cluster_size": 44, "cluster_id": 1, "rank_in_cluster": 1}

>  <energy>  (37) 
-9.7

>  <cluster_rmsd>  (37) 
1.69

>  <cluster>  (37) 
1

$$$$

     RDKit          3D

 67 72  0  0  0  0  0  0  0  0999 V2000
  140.1960   68.5480  227.9350 C   0  0  0  0  0  0  0  0  0  0  0  0
  140.8620   69.7160  228.2400 C   0  0  0  0  0  0  0  0  0  0  0  0
  141.0170   70.6760  227.2640 C   0  0  0  0  0  0  0  0  0  0  0  0
  140.5090   70.4700  225.9900 C   0  0  0  0  0  0  0  0  0  0  0  0
  139.8500   69.2950  225.7180 C   0  0  0  0  0  0  0  0  0  0  0  0
  139.6750   68.3060  226.6740 C   0  0  0  0  0  0  0  0  0  0  0  0
  139.3230   69.1210  224.3360 C   0  0  0  0  0  0  0  0  0  0  0  0
  138.7310   70.4500  223.8540 C   0  0  0  0  0  0  0  0  0  0  0  0
  139.8180   71.4370  223.8630 N   0  0  0  0  0  0  0  0  0  0  0  0
  140.0140   72.3110  222.7700 C   0  0  0  0  0  0  0  0  0  0  0  0
  139.0550   73.1350  222.3370 N   0  0  0  0  0  0  0  0  0  0  0  0
  139.2180   73.9850  221.2900 C   0  0  0  0  0  0  0  0  0  0  0  0
  138.1660   74.8370  220.8710 N   0  0  0  0  0  0  0  0  0  0  0  0
  138.1520   76.2650  221.0540 C   0  0  0  0  0  0  0  0  0  0  0  0
  138.4840   76.6060  222.4880 C   0  0  0  0  0  0  0  0  0  0  0  0
  139.9630   76.4570  222.6940 C   0  0  0  0  0  0  0  0  0  0  0  0
  140.6900   77.4640  221.9700 N   0  0  0  0  0  0  0  0  0  0  0  0
  140.9600   77.5560  220.6500 C   0  0  0  0  0  0  0  0  0  0  0  0
  141.6900   78.6890  220.3910 C   0  0  0  0  0  0  0  0  0  0  0  0
  141.8830   79.3280  221.5950 C   0  0  0  0  0  0  0  0  0  0  0  0
  142.5460   80.4980  221.8910 C   0  0  0  0  0  0  0  0  0  0  0  0
  142.5990   80.9340  223.1980 C   0  0  0  0  0  0  0  0  0  0  0  0
  141.9820   80.1800  224.1740 C   0  0  0  0  0  0  0  0  0  0  0  0
  141.3250   79.0150  223.8630 C   0  0  0  0  0  0  0  0  0  0  0  0
  141.2560   78.5550  222.5620 C   0  0  0  0  0  0  0  0  0  0  0  0
  140.4150   73.9600  220.6910 N   0  0  0  0  0  0  0  0  0  0  0  0
  141.3990   73.1420  221.1030 C   0  0  0  0  0  0  0  0  0  0  0  0
  142.6410   73.1790  220.4120 N   0  0  0  0  0  0  0  0  0  0  0  0
  143.0760   72.0490  219.6260 C   0  0  0  0  0  0  0  0  0  0  0  0
  144.4220   71.5340  220.0820 C   0  0  0  0  0  0  0  0  0  0  0  0
  144.9510   72.5000  221.0160 N   0  0  0  0  0  0  0  0  0  0  0  0
  144.9550   73.8420  220.4990 C   0  0  0  0  0  0  0  0  0  0  0  0
  143.5160   74.3330  220.4650 C   0  0  0  0  0  0  0  0  0  0  0  0
  141.2230   72.3080  222.1420 N   0  0  0  0  0  0  0  0  0  0  0  0
  140.7060   71.5290  224.9950 C   0  0  0  0  0  0  0  0  0  0  0  0
  140.0744   67.7842  228.7172 H   0  0  0  0  0  0  0  0  0  0  0  0
  141.2648   69.8795  229.2505 H   0  0  0  0  0  0  0  0  0  0  0  0
  141.5468   71.6115  227.4966 H   0  0  0  0  0  0  0  0  0  0  0  0
  139.1457   67.3702  226.4415 H   0  0  0  0  0  0  0  0  0  0  0  0
  140.1405   68.8172  223.6656 H   0  0  0  0  0  0  0  0  0  0  0  0
  138.5436   68.3448  224.3316 H   0  0  0  0  0  0  0  0  0  0  0  0
  138.3322   70.3376  222.8350 H   0  0  0  0  0  0  0  0  0  0  0  0
  137.9065   70.7706  224.5077 H   0  0  0  0  0  0  0  0  0  0  0  0
  137.3390   74.4010  220.3940 H   0  0  0  0  0  0  0  0  0  0  0  0
  138.8973   76.7248  220.3884 H   0  0  0  0  0  0  0  0  0  0  0  0
  137.1497   76.6497  220.8143 H   0  0  0  0  0  0  0  0  0  0  0  0
  138.1845   77.6431  222.6996 H   0  0  0  0  0  0  0  0  0  0  0  0
  137.9435   75.9294  223.1664 H   0  0  0  0  0  0  0  0  0  0  0  0
  140.1879   76.5527  223.7665 H   0  0  0  0  0  0  0  0  0  0  0  0
  140.2700   75.4685  222.3216 H   0  0  0  0  0  0  0  0  0  0  0  0
  140.6405   76.8270  219.8908 H   0  0  0  0  0  0  0  0  0  0  0  0
  142.0523   79.0232  219.4076 H   0  0  0  0  0  0  0  0  0  0  0  0
  143.0290   81.0796  221.0920 H   0  0  0  0  0  0  0  0  0  0  0  0
  143.1234   81.8655  223.4573 H   0  0  0  0  0  0  0  0  0  0  0  0
  142.0168   80.5178  225.2203 H   0  0  0  0  0  0  0  0  0  0  0  0
  140.8441   78.4365  224.6656 H   0  0  0  0  0  0  0  0  0  0  0  0
  142.3347   71.2420  219.7218 H   0  0  0  0  0  0  0  0  0  0  0  0
  143.1710   72.3759  218.5800 H   0  0  0  0  0  0  0  0  0  0  0  0
  144.3054   70.5573  220.5745 H   0  0  0  0  0  0  0  0  0  0  0  0
  145.1015   71.4027  219.2270 H   0  0  0  0  0  0  0  0  0  0  0  0
  145.7990   72.2070  221.5110 H   0  0  0  0  0  0  0  0  0  0  0  0
  145.5566   74.4922  221.1512 H   0  0  0  0  0  0  0  0  0  0  0  0
  145.3914   73.8629  219.4895 H   0  0  0  0  0  0  0  0  0  0  0  0
  143.3022   74.9203  221.3702 H   0  0  0  0  0  0  0  0  0  0  0  0
  143.3547   74.9709  219.5835 H   0  0  0  0  0  0  0  0  0  0  0  0
  141.7417   71.4723  224.6287 H   0  0  0  0  0  0  0  0  0  0  0  0
  140.4880   72.4837  225.4961 H   0  0  0  0  0  0  0  0  0  0  0  0
  1  2  2  0
  2  3  1  0
  3  4  2  0
  4  5  1  0
  5  6  2  0
  5  7  1  0
  7  8  1  0
  8  9  1  0
  9 10  1  0
 10 11  2  0
 11 12  1  0
 12 13  1  0
 13 14  1  0
 14 15  1  0
 15 16  1  0
 16 17  1  0
 17 18  1  0
 18 19  2  0
 19 20  1  0
 20 21  2  0
 21 22  1  0
 22 23  2  0
 23 24  1  0
 24 25  2  0
 12 26  2  0
 26 27  1  0
 27 28  1  0
 28 29  1  0
 29 30  1  0
 30 31  1  0
 31 32  1  0
 32 33  1  0
 27 34  2  0
  9 35  1  0
  6  1  1  0
 34 10  1  0
 35  4  1  0
 25 17  1  0
 33 28  1  0
 25 20  1  0
  1 36  1  0
  2 37  1  0
  3 38  1  0
  6 39  1  0
  7 40  1  0
  7 41  1  0
  8 42  1  0
  8 43  1  0
 13 44  1  0
 14 45  1  0
 14 46  1  0
 15 47  1  0
 15 48  1  0
 16 49  1  0
 16 50  1  0
 18 51  1  0
 19 52  1  0
 21 53  1  0
 22 54  1  0
 23 55  1  0
 24 56  1  0
 29 57  1  0
 29 58  1  0
 30 59  1  0
 30 60  1  0
 31 61  1  0
 32 62  1  0
 32 63  1  0
 33 64  1  0
 33 65  1  0
 35 66  1  0
 35 67  1  0
M  END
>  <smiles>  (38) 
c1ccc2c(c1)CCN(c1nc(NCCCn3ccc4ccccc43)nc(N3CCNCC3)n1)C2

>  <score_type>  (38) 
oracle

>  <origin>  (38) 
autodockgpu

>  <m_score__min__energy>  (38) 
-10.76

>  <m_primary>  (38) 
energy

>  <rmsd>  (38) 
3.850706762748237

>  <m_score__min__rmsd>  (38) 
3.850706762748237

>  <meeko>  (38) 
{"free_energy": -9.76, "intermolecular_energy": -11.84, "internal_energy": -1.21, "cluster_size": 44, "cluster_id": 1, "rank_in_cluster": 35}

>  <energy>  (38) 
-9.69

>  <cluster_rmsd>  (38) 
1.44

>  <cluster>  (38) 
1

$$$$

     RDKit          3D

 67 72  0  0  0  0  0  0  0  0999 V2000
  141.7510   82.2070  221.3870 C   0  0  0  0  0  0  0  0  0  0  0  0
  141.4720   81.7790  220.1070 C   0  0  0  0  0  0  0  0  0  0  0  0
  141.3200   80.4310  219.8670 C   0  0  0  0  0  0  0  0  0  0  0  0
  141.4460   79.5150  220.9010 C   0  0  0  0  0  0  0  0  0  0  0  0
  141.7250   79.9750  222.1660 C   0  0  0  0  0  0  0  0  0  0  0  0
  141.8850   81.3230  222.4460 C   0  0  0  0  0  0  0  0  0  0  0  0
  141.8510   78.9530  223.2420 C   0  0  0  0  0  0  0  0  0  0  0  0
  140.7720   77.8820  223.0460 C   0  0  0  0  0  0  0  0  0  0  0  0
  141.0040   77.2680  221.7330 N   0  0  0  0  0  0  0  0  0  0  0  0
  140.9690   75.8660  221.5710 C   0  0  0  0  0  0  0  0  0  0  0  0
  139.9600   75.1210  222.0330 N   0  0  0  0  0  0  0  0  0  0  0  0
  139.9020   73.7710  221.8910 C   0  0  0  0  0  0  0  0  0  0  0  0
  138.8090   73.0290  222.4020 N   0  0  0  0  0  0  0  0  0  0  0  0
  138.7820   71.5950  222.5230 C   0  0  0  0  0  0  0  0  0  0  0  0
  140.0490   71.1080  223.1880 C   0  0  0  0  0  0  0  0  0  0  0  0
  139.8730   69.6670  223.5710 C   0  0  0  0  0  0  0  0  0  0  0  0
  139.7350   69.5240  224.9950 N   0  0  0  0  0  0  0  0  0  0  0  0
  139.0860   68.5790  225.7110 C   0  0  0  0  0  0  0  0  0  0  0  0
  139.2100   68.8310  227.0540 C   0  0  0  0  0  0  0  0  0  0  0  0
  139.9630   69.9760  227.1810 C   0  0  0  0  0  0  0  0  0  0  0  0
  140.3750   70.6560  228.3050 C   0  0  0  0  0  0  0  0  0  0  0  0
  141.1350   71.7990  228.1660 C   0  0  0  0  0  0  0  0  0  0  0  0
  141.4600   72.2270  226.8960 C   0  0  0  0  0  0  0  0  0  0  0  0
  141.0420   71.5390  225.7840 C   0  0  0  0  0  0  0  0  0  0  0  0
  140.2790   70.3910  225.8950 C   0  0  0  0  0  0  0  0  0  0  0  0
  140.9300   73.2020  221.2490 N   0  0  0  0  0  0  0  0  0  0  0  0
  141.9590   73.9230  220.7730 C   0  0  0  0  0  0  0  0  0  0  0  0
  143.0110   73.2400  220.1020 N   0  0  0  0  0  0  0  0  0  0  0  0
  143.8660   72.3260  220.8220 C   0  0  0  0  0  0  0  0  0  0  0  0
  145.3220   72.7170  220.7100 C   0  0  0  0  0  0  0  0  0  0  0  0
  145.4060   73.7570  219.7110 N   0  0  0  0  0  0  0  0  0  0  0  0
  144.7740   73.4010  218.4700 C   0  0  0  0  0  0  0  0  0  0  0  0
  143.2700   73.4270  218.6890 C   0  0  0  0  0  0  0  0  0  0  0  0
  142.0010   75.2590  220.9210 N   0  0  0  0  0  0  0  0  0  0  0  0
  141.2730   78.0950  220.5830 C   0  0  0  0  0  0  0  0  0  0  0  0
  141.8712   83.2843  221.5740 H   0  0  0  0  0  0  0  0  0  0  0  0
  141.3719   82.5051  219.2868 H   0  0  0  0  0  0  0  0  0  0  0  0
  141.0973   80.0788  218.8490 H   0  0  0  0  0  0  0  0  0  0  0  0
  142.1084   81.6756  223.4637 H   0  0  0  0  0  0  0  0  0  0  0  0
  142.8460   78.4867  223.1923 H   0  0  0  0  0  0  0  0  0  0  0  0
  141.7237   79.4316  224.2242 H   0  0  0  0  0  0  0  0  0  0  0  0
  140.8481   77.1211  223.8367 H   0  0  0  0  0  0  0  0  0  0  0  0
  139.7669   78.3260  223.0976 H   0  0  0  0  0  0  0  0  0  0  0  0
  137.9580   73.5580  222.7170 H   0  0  0  0  0  0  0  0  0  0  0  0
  137.9144   71.2970  223.1300 H   0  0  0  0  0  0  0  0  0  0  0  0
  138.7066   71.1495  221.5201 H   0  0  0  0  0  0  0  0  0  0  0  0
  140.8933   71.2042  222.4895 H   0  0  0  0  0  0  0  0  0  0  0  0
  140.2546   71.7101  224.0853 H   0  0  0  0  0  0  0  0  0  0  0  0
  138.9706   69.2725  223.0810 H   0  0  0  0  0  0  0  0  0  0  0  0
  140.7635   69.1079  223.2480 H   0  0  0  0  0  0  0  0  0  0  0  0
  138.5369   67.7294  225.2788 H   0  0  0  0  0  0  0  0  0  0  0  0
  138.7876   68.2315  227.8739 H   0  0  0  0  0  0  0  0  0  0  0  0
  140.1005   70.2909  229.3057 H   0  0  0  0  0  0  0  0  0  0  0  0
  141.4749   72.3577  229.0505 H   0  0  0  0  0  0  0  0  0  0  0  0
  142.0656   73.1368  226.7716 H   0  0  0  0  0  0  0  0  0  0  0  0
  141.3193   71.9080  224.7855 H   0  0  0  0  0  0  0  0  0  0  0  0
  143.5768   72.3283  221.8833 H   0  0  0  0  0  0  0  0  0  0  0  0
  143.7449   71.3248  220.3828 H   0  0  0  0  0  0  0  0  0  0  0  0
  145.6876   73.0923  221.6772 H   0  0  0  0  0  0  0  0  0  0  0  0
  145.9396   71.8516  220.4277 H   0  0  0  0  0  0  0  0  0  0  0  0
  146.3200   74.2130  219.6360 H   0  0  0  0  0  0  0  0  0  0  0  0
  145.0507   74.1240  217.6885 H   0  0  0  0  0  0  0  0  0  0  0  0
  145.0977   72.4003  218.1477 H   0  0  0  0  0  0  0  0  0  0  0  0
  142.8635   74.3953  218.3616 H   0  0  0  0  0  0  0  0  0  0  0  0
  142.7892   72.6268  218.1072 H   0  0  0  0  0  0  0  0  0  0  0  0
  142.1943   77.7326  220.1035 H   0  0  0  0  0  0  0  0  0  0  0  0
  140.3961   78.0198  219.9231 H   0  0  0  0  0  0  0  0  0  0  0  0
  1  2  2  0
  2  3  1  0
  3  4  2  0
  4  5  1  0
  5  6  2  0
  5  7  1  0
  7  8  1  0
  8  9  1  0
  9 10  1  0
 10 11  2  0
 11 12  1  0
 12 13  1  0
 13 14  1  0
 14 15  1  0
 15 16  1  0
 16 17  1  0
 17 18  1  0
 18 19  2  0
 19 20  1  0
 20 21  2  0
 21 22  1  0
 22 23  2  0
 23 24  1  0
 24 25  2  0
 12 26  2  0
 26 27  1  0
 27 28  1  0
 28 29  1  0
 29 30  1  0
 30 31  1  0
 31 32  1  0
 32 33  1  0
 27 34  2  0
  9 35  1  0
  6  1  1  0
 34 10  1  0
 35  4  1  0
 25 17  1  0
 33 28  1  0
 25 20  1  0
  1 36  1  0
  2 37  1  0
  3 38  1  0
  6 39  1  0
  7 40  1  0
  7 41  1  0
  8 42  1  0
  8 43  1  0
 13 44  1  0
 14 45  1  0
 14 46  1  0
 15 47  1  0
 15 48  1  0
 16 49  1  0
 16 50  1  0
 18 51  1  0
 19 52  1  0
 21 53  1  0
 22 54  1  0
 23 55  1  0
 24 56  1  0
 29 57  1  0
 29 58  1  0
 30 59  1  0
 30 60  1  0
 31 61  1  0
 32 62  1  0
 32 63  1  0
 33 64  1  0
 33 65  1  0
 35 66  1  0
 35 67  1  0
M  END
>  <smiles>  (39) 
c1ccc2c(c1)CCN(c1nc(NCCCn3ccc4ccccc43)nc(N3CCNCC3)n1)C2

>  <score_type>  (39) 
oracle

>  <origin>  (39) 
autodockgpu

>  <m_score__min__energy>  (39) 
-10.76

>  <m_primary>  (39) 
energy

>  <rmsd>  (39) 
11.104597729675335

>  <m_score__min__rmsd>  (39) 
11.104597729675335

>  <meeko>  (39) 
{"free_energy": -10.52, "intermolecular_energy": -12.61, "internal_energy": -0.75, "cluster_size": 44, "cluster_id": 1, "rank_in_cluster": 9}

>  <energy>  (39) 
-9.68

>  <cluster_rmsd>  (39) 
1.0

>  <cluster>  (39) 
1

$$$$

     RDKit          3D

 67 72  0  0  0  0  0  0  0  0999 V2000
  141.7920   81.9500  221.2430 C   0  0  0  0  0  0  0  0  0  0  0  0
  141.7830   81.4840  219.9460 C   0  0  0  0  0  0  0  0  0  0  0  0
  141.7050   80.1280  219.7190 C   0  0  0  0  0  0  0  0  0  0  0  0
  141.6370   79.2410  220.7830 C   0  0  0  0  0  0  0  0  0  0  0  0
  141.6490   79.7380  222.0640 C   0  0  0  0  0  0  0  0  0  0  0  0
  141.7260   81.0950  222.3320 C   0  0  0  0  0  0  0  0  0  0  0  0
  141.5740   78.7450  223.1730 C   0  0  0  0  0  0  0  0  0  0  0  0
  140.5750   77.6460  222.7950 C   0  0  0  0  0  0  0  0  0  0  0  0
  141.0760   77.0050  221.5740 N   0  0  0  0  0  0  0  0  0  0  0  0
  141.0980   75.5990  221.4480 C   0  0  0  0  0  0  0  0  0  0  0  0
  140.1110   74.8270  221.9140 N   0  0  0  0  0  0  0  0  0  0  0  0
  140.1080   73.4730  221.8060 C   0  0  0  0  0  0  0  0  0  0  0  0
  139.0360   72.7020  222.3200 N   0  0  0  0  0  0  0  0  0  0  0  0
  138.6890   71.3820  221.8630 C   0  0  0  0  0  0  0  0  0  0  0  0
  138.3360   70.5030  223.0410 C   0  0  0  0  0  0  0  0  0  0  0  0
  139.5690   69.7720  223.4890 C   0  0  0  0  0  0  0  0  0  0  0  0
  140.1350   70.3820  224.6610 N   0  0  0  0  0  0  0  0  0  0  0  0
  140.6710   71.6110  224.8240 C   0  0  0  0  0  0  0  0  0  0  0  0
  141.0960   71.7770  226.1180 C   0  0  0  0  0  0  0  0  0  0  0  0
  140.8160   70.6070  226.7880 C   0  0  0  0  0  0  0  0  0  0  0  0
  141.0390   70.2510  228.0990 C   0  0  0  0  0  0  0  0  0  0  0  0
  140.6610   68.9980  228.5340 C   0  0  0  0  0  0  0  0  0  0  0  0
  140.0670   68.1360  227.6370 C   0  0  0  0  0  0  0  0  0  0  0  0
  139.8510   68.5060  226.3320 C   0  0  0  0  0  0  0  0  0  0  0  0
  140.2210   69.7550  225.8690 C   0  0  0  0  0  0  0  0  0  0  0  0
  141.1670   72.9280  221.1950 N   0  0  0  0  0  0  0  0  0  0  0  0
  142.1760   73.6770  220.7160 C   0  0  0  0  0  0  0  0  0  0  0  0
  143.2630   73.0180  220.0800 N   0  0  0  0  0  0  0  0  0  0  0  0
  144.2360   72.2890  220.8600 C   0  0  0  0  0  0  0  0  0  0  0  0
  145.6390   72.8010  220.6250 C   0  0  0  0  0  0  0  0  0  0  0  0
  145.5770   73.7100  219.5040 N   0  0  0  0  0  0  0  0  0  0  0  0
  144.9350   73.1400  218.3500 C   0  0  0  0  0  0  0  0  0  0  0  0
  143.4460   73.0490  218.6430 C   0  0  0  0  0  0  0  0  0  0  0  0
  142.1630   75.0160  220.8300 N   0  0  0  0  0  0  0  0  0  0  0  0
  141.5560   77.8090  220.4770 C   0  0  0  0  0  0  0  0  0  0  0  0
  141.8535   83.0340  221.4194 H   0  0  0  0  0  0  0  0  0  0  0  0
  141.8375   82.1872  219.1018 H   0  0  0  0  0  0  0  0  0  0  0  0
  141.6966   79.7460  218.6875 H   0  0  0  0  0  0  0  0  0  0  0  0
  141.7344   81.4771  223.3635 H   0  0  0  0  0  0  0  0  0  0  0  0
  142.5666   78.3001  223.3369 H   0  0  0  0  0  0  0  0  0  0  0  0
  141.2442   79.2443  224.0960 H   0  0  0  0  0  0  0  0  0  0  0  0
  140.5032   76.9068  223.6064 H   0  0  0  0  0  0  0  0  0  0  0  0
  139.5730   78.0691  222.6308 H   0  0  0  0  0  0  0  0  0  0  0  0
  138.4530   73.1190  223.0880 H   0  0  0  0  0  0  0  0  0  0  0  0
  137.8252   71.4466  221.1850 H   0  0  0  0  0  0  0  0  0  0  0  0
  139.5483   70.9463  221.3322 H   0  0  0  0  0  0  0  0  0  0  0  0
  137.9555   71.1248  223.8648 H   0  0  0  0  0  0  0  0  0  0  0  0
  137.5602   69.7805  222.7477 H   0  0  0  0  0  0  0  0  0  0  0  0
  139.3049   68.7292  223.7187 H   0  0  0  0  0  0  0  0  0  0  0  0
  140.3130   69.8131  222.6798 H   0  0  0  0  0  0  0  0  0  0  0  0
  140.7548   72.3703  224.0325 H   0  0  0  0  0  0  0  0  0  0  0  0
  141.5706   72.6750  226.5403 H   0  0  0  0  0  0  0  0  0  0  0  0
  141.5144   70.9595  228.7933 H   0  0  0  0  0  0  0  0  0  0  0  0
  140.8303   68.6922  229.5770 H   0  0  0  0  0  0  0  0  0  0  0  0
  139.7606   67.1342  227.9723 H   0  0  0  0  0  0  0  0  0  0  0  0
  139.3742   67.7945  225.6417 H   0  0  0  0  0  0  0  0  0  0  0  0
  143.9911   72.3975  221.9269 H   0  0  0  0  0  0  0  0  0  0  0  0
  144.2004   71.2335  220.5524 H   0  0  0  0  0  0  0  0  0  0  0  0
  146.0028   73.3286  221.5190 H   0  0  0  0  0  0  0  0  0  0  0  0
  146.3295   71.9702  220.4177 H   0  0  0  0  0  0  0  0  0  0  0  0
  146.4360   74.2380  219.3260 H   0  0  0  0  0  0  0  0  0  0  0  0
  145.1050   73.7812  217.4725 H   0  0  0  0  0  0  0  0  0  0  0  0
  145.3458   72.1423  218.1359 H   0  0  0  0  0  0  0  0  0  0  0  0
  142.9304   73.9247  218.2218 H   0  0  0  0  0  0  0  0  0  0  0  0
  143.0267   72.1389  218.1892 H   0  0  0  0  0  0  0  0  0  0  0  0
  142.5608   77.4559  220.2020 H   0  0  0  0  0  0  0  0  0  0  0  0
  140.8312   77.6974  219.6572 H   0  0  0  0  0  0  0  0  0  0  0  0
  1  2  2  0
  2  3  1  0
  3  4  2  0
  4  5  1  0
  5  6  2  0
  5  7  1  0
  7  8  1  0
  8  9  1  0
  9 10  1  0
 10 11  2  0
 11 12  1  0
 12 13  1  0
 13 14  1  0
 14 15  1  0
 15 16  1  0
 16 17  1  0
 17 18  1  0
 18 19  2  0
 19 20  1  0
 20 21  2  0
 21 22  1  0
 22 23  2  0
 23 24  1  0
 24 25  2  0
 12 26  2  0
 26 27  1  0
 27 28  1  0
 28 29  1  0
 29 30  1  0
 30 31  1  0
 31 32  1  0
 32 33  1  0
 27 34  2  0
  9 35  1  0
  6  1  1  0
 34 10  1  0
 35  4  1  0
 25 17  1  0
 33 28  1  0
 25 20  1  0
  1 36  1  0
  2 37  1  0
  3 38  1  0
  6 39  1  0
  7 40  1  0
  7 41  1  0
  8 42  1  0
  8 43  1  0
 13 44  1  0
 14 45  1  0
 14 46  1  0
 15 47  1  0
 15 48  1  0
 16 49  1  0
 16 50  1  0
 18 51  1  0
 19 52  1  0
 21 53  1  0
 22 54  1  0
 23 55  1  0
 24 56  1  0
 29 57  1  0
 29 58  1  0
 30 59  1  0
 30 60  1  0
 31 61  1  0
 32 62  1  0
 32 63  1  0
 33 64  1  0
 33 65  1  0
 35 66  1  0
 35 67  1  0
M  END
>  <smiles>  (40) 
c1ccc2c(c1)CCN(c1nc(NCCCn3ccc4ccccc43)nc(N3CCNCC3)n1)C2

>  <score_type>  (40) 
oracle

>  <origin>  (40) 
autodockgpu

>  <m_score__min__energy>  (40) 
-10.76

>  <m_primary>  (40) 
energy

>  <rmsd>  (40) 
11.476620913619671

>  <m_score__min__rmsd>  (40) 
11.476620913619671

>  <meeko>  (40) 
{"free_energy": -10.65, "intermolecular_energy": -12.74, "internal_energy": -1.13, "cluster_size": 44, "cluster_id": 1, "rank_in_cluster": 6}

>  <energy>  (40) 
-9.66

>  <cluster_rmsd>  (40) 
0.98

>  <cluster>  (40) 
1

$$$$

     RDKit          3D

 67 72  0  0  0  0  0  0  0  0999 V2000
  146.2000   69.6630  218.6070 C   0  0  0  0  0  0  0  0  0  0  0  0
  144.9730   69.1040  218.3170 C   0  0  0  0  0  0  0  0  0  0  0  0
  143.8310   69.7030  218.7990 C   0  0  0  0  0  0  0  0  0  0  0  0
  143.9120   70.8550  219.5680 C   0  0  0  0  0  0  0  0  0  0  0  0
  145.1500   71.3870  219.8390 C   0  0  0  0  0  0  0  0  0  0  0  0
  146.3220   70.8130  219.3710 C   0  0  0  0  0  0  0  0  0  0  0  0
  145.1850   72.6250  220.6680 C   0  0  0  0  0  0  0  0  0  0  0  0
  144.0410   73.5490  220.2380 C   0  0  0  0  0  0  0  0  0  0  0  0
  142.7870   72.8210  220.4660 N   0  0  0  0  0  0  0  0  0  0  0  0
  141.6860   73.4480  221.0900 C   0  0  0  0  0  0  0  0  0  0  0  0
  140.6590   72.7530  221.5870 N   0  0  0  0  0  0  0  0  0  0  0  0
  139.5880   73.3320  222.1920 C   0  0  0  0  0  0  0  0  0  0  0  0
  138.5240   72.5460  222.7000 N   0  0  0  0  0  0  0  0  0  0  0  0
  138.4570   71.1110  222.6130 C   0  0  0  0  0  0  0  0  0  0  0  0
  138.2230   70.5200  223.9840 C   0  0  0  0  0  0  0  0  0  0  0  0
  138.9570   69.2140  224.0820 C   0  0  0  0  0  0  0  0  0  0  0  0
  139.4540   68.9990  225.4140 N   0  0  0  0  0  0  0  0  0  0  0  0
  139.4080   67.8910  226.1860 C   0  0  0  0  0  0  0  0  0  0  0  0
  140.0060   68.1310  227.3980 C   0  0  0  0  0  0  0  0  0  0  0  0
  140.4400   69.4370  227.3810 C   0  0  0  0  0  0  0  0  0  0  0  0
  141.0980   70.1730  228.3410 C   0  0  0  0  0  0  0  0  0  0  0  0
  141.4290   71.4860  228.0780 C   0  0  0  0  0  0  0  0  0  0  0  0
  141.0900   72.0230  226.8550 C   0  0  0  0  0  0  0  0  0  0  0  0
  140.4340   71.2760  225.9070 C   0  0  0  0  0  0  0  0  0  0  0  0
  140.0900   69.9580  226.1440 C   0  0  0  0  0  0  0  0  0  0  0  0
  139.6070   74.6680  222.2690 N   0  0  0  0  0  0  0  0  0  0  0  0
  140.6250   75.3950  221.7780 C   0  0  0  0  0  0  0  0  0  0  0  0
  140.5670   76.8100  221.9030 N   0  0  0  0  0  0  0  0  0  0  0  0
  140.0070   77.6160  220.8440 C   0  0  0  0  0  0  0  0  0  0  0  0
  140.9940   78.6470  220.3440 C   0  0  0  0  0  0  0  0  0  0  0  0
  142.1090   78.6460  221.2620 N   0  0  0  0  0  0  0  0  0  0  0  0
  141.7110   78.7990  222.6350 C   0  0  0  0  0  0  0  0  0  0  0  0
  141.0590   77.4990  223.0790 C   0  0  0  0  0  0  0  0  0  0  0  0
  141.6780   74.8070  221.1840 N   0  0  0  0  0  0  0  0  0  0  0  0
  142.6610   71.4450  220.0520 C   0  0  0  0  0  0  0  0  0  0  0  0
  147.1100   69.1812  218.2200 H   0  0  0  0  0  0  0  0  0  0  0  0
  144.9076   68.1904  217.7078 H   0  0  0  0  0  0  0  0  0  0  0  0
  142.8475   69.2653  218.5729 H   0  0  0  0  0  0  0  0  0  0  0  0
  147.3056   71.2510  219.5961 H   0  0  0  0  0  0  0  0  0  0  0  0
  145.0662   72.3611  221.7293 H   0  0  0  0  0  0  0  0  0  0  0  0
  146.1480   73.1377  220.5278 H   0  0  0  0  0  0  0  0  0  0  0  0
  144.0558   74.4713  220.8373 H   0  0  0  0  0  0  0  0  0  0  0  0
  144.1427   73.8303  219.1794 H   0  0  0  0  0  0  0  0  0  0  0  0
  137.7290   73.0410  223.1740 H   0  0  0  0  0  0  0  0  0  0  0  0
  137.6297   70.8248  221.9470 H   0  0  0  0  0  0  0  0  0  0  0  0
  139.4077   70.7289  222.2128 H   0  0  0  0  0  0  0  0  0  0  0  0
  138.5964   71.2121  224.7531 H   0  0  0  0  0  0  0  0  0  0  0  0
  137.1467   70.3554  224.1403 H   0  0  0  0  0  0  0  0  0  0  0  0
  138.2711   68.3956  223.8179 H   0  0  0  0  0  0  0  0  0  0  0  0
  139.8116   69.2404  223.3899 H   0  0  0  0  0  0  0  0  0  0  0  0
  138.9562   66.9339  225.8862 H   0  0  0  0  0  0  0  0  0  0  0  0
  140.1172   67.4153  228.2259 H   0  0  0  0  0  0  0  0  0  0  0  0
  141.3572   69.7182  229.3084 H   0  0  0  0  0  0  0  0  0  0  0  0
  141.9537   72.0931  228.8304 H   0  0  0  0  0  0  0  0  0  0  0  0
  141.3494   73.0689  226.6339 H   0  0  0  0  0  0  0  0  0  0  0  0
  140.1775   71.7352  224.9409 H   0  0  0  0  0  0  0  0  0  0  0  0
  139.7233   76.9594  220.0083 H   0  0  0  0  0  0  0  0  0  0  0  0
  139.1302   78.1464  221.2439 H   0  0  0  0  0  0  0  0  0  0  0  0
  141.3371   78.3821  219.3330 H   0  0  0  0  0  0  0  0  0  0  0  0
  140.5290   79.6426  220.2931 H   0  0  0  0  0  0  0  0  0  0  0  0
  142.9170   79.2000  220.9640 H   0  0  0  0  0  0  0  0  0  0  0  0
  142.5927   79.0073  223.2589 H   0  0  0  0  0  0  0  0  0  0  0  0
  141.0059   79.6369  222.7390 H   0  0  0  0  0  0  0  0  0  0  0  0
  141.7986   76.8700  223.5961 H   0  0  0  0  0  0  0  0  0  0  0  0
  140.2288   77.7087  223.7695 H   0  0  0  0  0  0  0  0  0  0  0  0
  142.3094   70.8553  220.9114 H   0  0  0  0  0  0  0  0  0  0  0  0
  141.9526   71.4277  219.2107 H   0  0  0  0  0  0  0  0  0  0  0  0
  1  2  2  0
  2  3  1  0
  3  4  2  0
  4  5  1  0
  5  6  2  0
  5  7  1  0
  7  8  1  0
  8  9  1  0
  9 10  1  0
 10 11  2  0
 11 12  1  0
 12 13  1  0
 13 14  1  0
 14 15  1  0
 15 16  1  0
 16 17  1  0
 17 18  1  0
 18 19  2  0
 19 20  1  0
 20 21  2  0
 21 22  1  0
 22 23  2  0
 23 24  1  0
 24 25  2  0
 12 26  2  0
 26 27  1  0
 27 28  1  0
 28 29  1  0
 29 30  1  0
 30 31  1  0
 31 32  1  0
 32 33  1  0
 27 34  2  0
  9 35  1  0
  6  1  1  0
 34 10  1  0
 35  4  1  0
 25 17  1  0
 33 28  1  0
 25 20  1  0
  1 36  1  0
  2 37  1  0
  3 38  1  0
  6 39  1  0
  7 40  1  0
  7 41  1  0
  8 42  1  0
  8 43  1  0
 13 44  1  0
 14 45  1  0
 14 46  1  0
 15 47  1  0
 15 48  1  0
 16 49  1  0
 16 50  1  0
 18 51  1  0
 19 52  1  0
 21 53  1  0
 22 54  1  0
 23 55  1  0
 24 56  1  0
 29 57  1  0
 29 58  1  0
 30 59  1  0
 30 60  1  0
 31 61  1  0
 32 62  1  0
 32 63  1  0
 33 64  1  0
 33 65  1  0
 35 66  1  0
 35 67  1  0
M  END
>  <smiles>  (41) 
c1ccc2c(c1)CCN(c1nc(NCCCn3ccc4ccccc43)nc(N3CCNCC3)n1)C2

>  <score_type>  (41) 
oracle

>  <origin>  (41) 
autodockgpu

>  <m_score__min__energy>  (41) 
-10.76

>  <m_primary>  (41) 
energy

>  <rmsd>  (41) 
11.63070888745452

>  <m_score__min__rmsd>  (41) 
11.63070888745452

>  <meeko>  (41) 
{"free_energy": -9.83, "intermolecular_energy": -11.92, "internal_energy": -1.0, "cluster_size": 4, "cluster_id": 2, "rank_in_cluster": 2}

>  <energy>  (41) 
-9.64

>  <cluster_rmsd>  (41) 
1.17

>  <cluster>  (41) 
1

$$$$

     RDKit          3D

 67 72  0  0  0  0  0  0  0  0999 V2000
  141.2120   81.9980  222.3180 C   0  0  0  0  0  0  0  0  0  0  0  0
  141.5620   81.3990  223.5100 C   0  0  0  0  0  0  0  0  0  0  0  0
  141.6210   80.0250  223.5800 C   0  0  0  0  0  0  0  0  0  0  0  0
  141.3310   79.2520  222.4650 C   0  0  0  0  0  0  0  0  0  0  0  0
  140.9850   79.8800  221.2920 C   0  0  0  0  0  0  0  0  0  0  0  0
  140.9150   81.2600  221.1830 C   0  0  0  0  0  0  0  0  0  0  0  0
  140.6840   79.0070  220.1240 C   0  0  0  0  0  0  0  0  0  0  0  0
  141.6820   77.8450  220.0950 C   0  0  0  0  0  0  0  0  0  0  0  0
  141.5110   77.0950  221.3460 N   0  0  0  0  0  0  0  0  0  0  0  0
  141.4430   75.6850  221.3440 C   0  0  0  0  0  0  0  0  0  0  0  0
  140.3790   75.0230  221.8090 N   0  0  0  0  0  0  0  0  0  0  0  0
  140.2880   73.6670  221.8190 C   0  0  0  0  0  0  0  0  0  0  0  0
  139.1370   73.0170  222.3270 N   0  0  0  0  0  0  0  0  0  0  0  0
  138.6810   71.7190  221.9040 C   0  0  0  0  0  0  0  0  0  0  0  0
  138.5180   70.8120  223.1020 C   0  0  0  0  0  0  0  0  0  0  0  0
  139.8500   70.2050  223.4370 C   0  0  0  0  0  0  0  0  0  0  0  0
  140.2900   70.6110  224.7440 N   0  0  0  0  0  0  0  0  0  0  0  0
  140.7140   71.8190  225.1770 C   0  0  0  0  0  0  0  0  0  0  0  0
  141.0410   71.7580  226.5090 C   0  0  0  0  0  0  0  0  0  0  0  0
  140.8140   70.4640  226.9210 C   0  0  0  0  0  0  0  0  0  0  0  0
  140.9810   69.8750  228.1540 C   0  0  0  0  0  0  0  0  0  0  0  0
  140.6780   68.5390  228.3140 C   0  0  0  0  0  0  0  0  0  0  0  0
  140.2140   67.8310  227.2260 C   0  0  0  0  0  0  0  0  0  0  0  0
  140.0530   68.4320  226.0020 C   0  0  0  0  0  0  0  0  0  0  0  0
  140.3490   69.7690  225.8140 C   0  0  0  0  0  0  0  0  0  0  0  0
  141.3410   73.0030  221.3290 N   0  0  0  0  0  0  0  0  0  0  0  0
  142.4260   73.6390  220.8530 C   0  0  0  0  0  0  0  0  0  0  0  0
  143.5010   72.8580  220.3490 N   0  0  0  0  0  0  0  0  0  0  0  0
  144.6920   72.6540  221.1390 C   0  0  0  0  0  0  0  0  0  0  0  0
  145.9330   73.1180  220.4120 C   0  0  0  0  0  0  0  0  0  0  0  0
  145.5450   73.4020  219.0490 N   0  0  0  0  0  0  0  0  0  0  0  0
  144.8430   72.3140  218.4240 C   0  0  0  0  0  0  0  0  0  0  0  0
  143.4540   72.2400  219.0390 C   0  0  0  0  0  0  0  0  0  0  0  0
  142.5000   74.9820  220.8500 N   0  0  0  0  0  0  0  0  0  0  0  0
  141.4110   77.7950  222.6020 C   0  0  0  0  0  0  0  0  0  0  0  0
  141.1672   83.0959  222.2664 H   0  0  0  0  0  0  0  0  0  0  0  0
  141.7913   82.0116  224.3944 H   0  0  0  0  0  0  0  0  0  0  0  0
  141.8998   79.5373  224.5258 H   0  0  0  0  0  0  0  0  0  0  0  0
  140.6360   81.7480  220.2374 H   0  0  0  0  0  0  0  0  0  0  0  0
  139.6613   78.6119  220.2135 H   0  0  0  0  0  0  0  0  0  0  0  0
  140.7675   79.5899  219.1949 H   0  0  0  0  0  0  0  0  0  0  0  0
  141.4763   77.1928  219.2334 H   0  0  0  0  0  0  0  0  0  0  0  0
  142.7127   78.2175  220.0006 H   0  0  0  0  0  0  0  0  0  0  0  0
  138.5750   73.5120  223.0630 H   0  0  0  0  0  0  0  0  0  0  0  0
  137.7134   71.8223  221.3911 H   0  0  0  0  0  0  0  0  0  0  0  0
  139.4221   71.2819  221.2187 H   0  0  0  0  0  0  0  0  0  0  0  0
  138.1518   71.3953  223.9597 H   0  0  0  0  0  0  0  0  0  0  0  0
  137.7933   70.0171  222.8719 H   0  0  0  0  0  0  0  0  0  0  0  0
  139.7617   69.1088  223.4121 H   0  0  0  0  0  0  0  0  0  0  0  0
  140.5872   70.5505  222.6973 H   0  0  0  0  0  0  0  0  0  0  0  0
  140.7867   72.7213  224.5521 H   0  0  0  0  0  0  0  0  0  0  0  0
  141.4138   72.5862  227.1296 H   0  0  0  0  0  0  0  0  0  0  0  0
  141.3530   70.4650  229.0046 H   0  0  0  0  0  0  0  0  0  0  0  0
  140.8041   68.0482  229.2903 H   0  0  0  0  0  0  0  0  0  0  0  0
  139.9682   66.7649  227.3405 H   0  0  0  0  0  0  0  0  0  0  0  0
  139.6811   67.8377  225.1543 H   0  0  0  0  0  0  0  0  0  0  0  0
  144.5974   73.2185  222.0783 H   0  0  0  0  0  0  0  0  0  0  0  0
  144.7927   71.5762  221.3344 H   0  0  0  0  0  0  0  0  0  0  0  0
  146.3319   74.0260  220.8879 H   0  0  0  0  0  0  0  0  0  0  0  0
  146.7170   72.3470  220.4437 H   0  0  0  0  0  0  0  0  0  0  0  0
  146.2620   73.8600  218.4800 H   0  0  0  0  0  0  0  0  0  0  0  0
  144.7635   72.4930  217.3416 H   0  0  0  0  0  0  0  0  0  0  0  0
  145.3829   71.3686  218.5813 H   0  0  0  0  0  0  0  0  0  0  0  0
  142.7360   72.7759  218.4008 H   0  0  0  0  0  0  0  0  0  0  0  0
  143.1346   71.1911  219.1269 H   0  0  0  0  0  0  0  0  0  0  0  0
  140.5068   77.4458  223.1221 H   0  0  0  0  0  0  0  0  0  0  0  0
  142.3316   77.5771  223.1632 H   0  0  0  0  0  0  0  0  0  0  0  0
  1  2  2  0
  2  3  1  0
  3  4  2  0
  4  5  1  0
  5  6  2  0
  5  7  1  0
  7  8  1  0
  8  9  1  0
  9 10  1  0
 10 11  2  0
 11 12  1  0
 12 13  1  0
 13 14  1  0
 14 15  1  0
 15 16  1  0
 16 17  1  0
 17 18  1  0
 18 19  2  0
 19 20  1  0
 20 21  2  0
 21 22  1  0
 22 23  2  0
 23 24  1  0
 24 25  2  0
 12 26  2  0
 26 27  1  0
 27 28  1  0
 28 29  1  0
 29 30  1  0
 30 31  1  0
 31 32  1  0
 32 33  1  0
 27 34  2  0
  9 35  1  0
  6  1  1  0
 34 10  1  0
 35  4  1  0
 25 17  1  0
 33 28  1  0
 25 20  1  0
  1 36  1  0
  2 37  1  0
  3 38  1  0
  6 39  1  0
  7 40  1  0
  7 41  1  0
  8 42  1  0
  8 43  1  0
 13 44  1  0
 14 45  1  0
 14 46  1  0
 15 47  1  0
 15 48  1  0
 16 49  1  0
 16 50  1  0
 18 51  1  0
 19 52  1  0
 21 53  1  0
 22 54  1  0
 23 55  1  0
 24 56  1  0
 29 57  1  0
 29 58  1  0
 30 59  1  0
 30 60  1  0
 31 61  1  0
 32 62  1  0
 32 63  1  0
 33 64  1  0
 33 65  1  0
 35 66  1  0
 35 67  1  0
M  END
>  <smiles>  (42) 
c1ccc2c(c1)CCN(c1nc(NCCCn3ccc4ccccc43)nc(N3CCNCC3)n1)C2

>  <score_type>  (42) 
oracle

>  <origin>  (42) 
autodockgpu

>  <m_score__min__energy>  (42) 
-10.76

>  <m_primary>  (42) 
energy

>  <rmsd>  (42) 
11.50725290015699

>  <m_score__min__rmsd>  (42) 
11.50725290015699

>  <meeko>  (42) 
{"free_energy": -10.72, "intermolecular_energy": -12.81, "internal_energy": -1.1, "cluster_size": 44, "cluster_id": 1, "rank_in_cluster": 4}

>  <energy>  (42) 
-9.62

>  <cluster_rmsd>  (42) 
1.65

>  <cluster>  (42) 
1

$$$$

     RDKit          3D

 67 72  0  0  0  0  0  0  0  0999 V2000
  141.6220   81.8920  221.4550 C   0  0  0  0  0  0  0  0  0  0  0  0
  141.7870   81.4490  220.1600 C   0  0  0  0  0  0  0  0  0  0  0  0
  141.7140   80.0990  219.8980 C   0  0  0  0  0  0  0  0  0  0  0  0
  141.4770   79.1960  220.9230 C   0  0  0  0  0  0  0  0  0  0  0  0
  141.3170   79.6700  222.2030 C   0  0  0  0  0  0  0  0  0  0  0  0
  141.3850   81.0210  222.5060 C   0  0  0  0  0  0  0  0  0  0  0  0
  141.0650   78.6610  223.2700 C   0  0  0  0  0  0  0  0  0  0  0  0
  140.1070   77.5930  222.7330 C   0  0  0  0  0  0  0  0  0  0  0  0
  140.7620   76.9610  221.5820 N   0  0  0  0  0  0  0  0  0  0  0  0
  140.7720   75.5570  221.4330 C   0  0  0  0  0  0  0  0  0  0  0  0
  139.8390   74.7750  221.9850 N   0  0  0  0  0  0  0  0  0  0  0  0
  139.8260   73.4230  221.8560 C   0  0  0  0  0  0  0  0  0  0  0  0
  138.8120   72.6420  222.4650 N   0  0  0  0  0  0  0  0  0  0  0  0
  138.2910   71.4160  221.9200 C   0  0  0  0  0  0  0  0  0  0  0  0
  138.5170   70.2810  222.8930 C   0  0  0  0  0  0  0  0  0  0  0  0
  139.9860   70.1760  223.1840 C   0  0  0  0  0  0  0  0  0  0  0  0
  140.2730   70.5590  224.5400 N   0  0  0  0  0  0  0  0  0  0  0  0
  140.6450   71.7570  225.0400 C   0  0  0  0  0  0  0  0  0  0  0  0
  140.8170   71.6730  226.4000 C   0  0  0  0  0  0  0  0  0  0  0  0
  140.5430   70.3730  226.7600 C   0  0  0  0  0  0  0  0  0  0  0  0
  140.5670   69.7630  227.9940 C   0  0  0  0  0  0  0  0  0  0  0  0
  140.2460   68.4250  228.0950 C   0  0  0  0  0  0  0  0  0  0  0  0
  139.9100   67.7360  226.9480 C   0  0  0  0  0  0  0  0  0  0  0  0
  139.8910   68.3580  225.7240 C   0  0  0  0  0  0  0  0  0  0  0  0
  140.2080   69.6980  225.5950 C   0  0  0  0  0  0  0  0  0  0  0  0
  140.8170   72.8900  221.1320 N   0  0  0  0  0  0  0  0  0  0  0  0
  141.7710   73.6490  220.5650 C   0  0  0  0  0  0  0  0  0  0  0  0
  142.7890   73.0030  219.8110 N   0  0  0  0  0  0  0  0  0  0  0  0
  142.7750   71.5690  219.6390 C   0  0  0  0  0  0  0  0  0  0  0  0
  144.0540   70.9340  220.1350 C   0  0  0  0  0  0  0  0  0  0  0  0
  144.9830   72.0070  220.4060 N   0  0  0  0  0  0  0  0  0  0  0  0
  145.1410   72.9110  219.2990 C   0  0  0  0  0  0  0  0  0  0  0  0
  143.8710   73.7400  219.1910 C   0  0  0  0  0  0  0  0  0  0  0  0
  141.7700   74.9860  220.7000 N   0  0  0  0  0  0  0  0  0  0  0  0
  141.4100   77.7720  220.5810 C   0  0  0  0  0  0  0  0  0  0  0  0
  141.6803   82.9711  221.6603 H   0  0  0  0  0  0  0  0  0  0  0  0
  141.9746   82.1649  219.3462 H   0  0  0  0  0  0  0  0  0  0  0  0
  141.8446   79.7346  218.8684 H   0  0  0  0  0  0  0  0  0  0  0  0
  141.2564   81.3855  223.5358 H   0  0  0  0  0  0  0  0  0  0  0  0
  142.0148   78.1900  223.5634 H   0  0  0  0  0  0  0  0  0  0  0  0
  140.6185   79.1524  224.1471 H   0  0  0  0  0  0  0  0  0  0  0  0
  139.9056   76.8420  223.5111 H   0  0  0  0  0  0  0  0  0  0  0  0
  139.1474   78.0425  222.4377 H   0  0  0  0  0  0  0  0  0  0  0  0
  138.4120   72.9770  223.3760 H   0  0  0  0  0  0  0  0  0  0  0  0
  137.2124   71.5286  221.7356 H   0  0  0  0  0  0  0  0  0  0  0  0
  138.8091   71.1913  220.9761 H   0  0  0  0  0  0  0  0  0  0  0  0
  137.9689   70.4795  223.8259 H   0  0  0  0  0  0  0  0  0  0  0  0
  138.1549   69.3383  222.4570 H   0  0  0  0  0  0  0  0  0  0  0  0
  140.3099   69.1364  223.0279 H   0  0  0  0  0  0  0  0  0  0  0  0
  140.5260   70.8545  222.5072 H   0  0  0  0  0  0  0  0  0  0  0  0
  140.7896   72.6697  224.4433 H   0  0  0  0  0  0  0  0  0  0  0  0
  141.1167   72.4894  227.0735 H   0  0  0  0  0  0  0  0  0  0  0  0
  140.8397   70.3374  228.8916 H   0  0  0  0  0  0  0  0  0  0  0  0
  140.2577   67.9176  229.0709 H   0  0  0  0  0  0  0  0  0  0  0  0
  139.6526   66.6687  227.0152 H   0  0  0  0  0  0  0  0  0  0  0  0
  139.6185   67.7795  224.8290 H   0  0  0  0  0  0  0  0  0  0  0  0
  141.9276   71.1507  220.2020 H   0  0  0  0  0  0  0  0  0  0  0  0
  142.6792   71.3534  218.5646 H   0  0  0  0  0  0  0  0  0  0  0  0
  143.8596   70.3619  221.0542 H   0  0  0  0  0  0  0  0  0  0  0  0
  144.4637   70.2410  219.3854 H   0  0  0  0  0  0  0  0  0  0  0  0
  145.8450   71.7250  220.8830 H   0  0  0  0  0  0  0  0  0  0  0  0
  146.0042   73.5699  219.4742 H   0  0  0  0  0  0  0  0  0  0  0  0
  145.3151   72.3516  218.3680 H   0  0  0  0  0  0  0  0  0  0  0  0
  144.0098   74.7010  219.7079 H   0  0  0  0  0  0  0  0  0  0  0  0
  143.6371   73.9367  218.1343 H   0  0  0  0  0  0  0  0  0  0  0  0
  142.4361   77.3998  220.4446 H   0  0  0  0  0  0  0  0  0  0  0  0
  140.8066   77.6915  219.6648 H   0  0  0  0  0  0  0  0  0  0  0  0
  1  2  2  0
  2  3  1  0
  3  4  2  0
  4  5  1  0
  5  6  2  0
  5  7  1  0
  7  8  1  0
  8  9  1  0
  9 10  1  0
 10 11  2  0
 11 12  1  0
 12 13  1  0
 13 14  1  0
 14 15  1  0
 15 16  1  0
 16 17  1  0
 17 18  1  0
 18 19  2  0
 19 20  1  0
 20 21  2  0
 21 22  1  0
 22 23  2  0
 23 24  1  0
 24 25  2  0
 12 26  2  0
 26 27  1  0
 27 28  1  0
 28 29  1  0
 29 30  1  0
 30 31  1  0
 31 32  1  0
 32 33  1  0
 27 34  2  0
  9 35  1  0
  6  1  1  0
 34 10  1  0
 35  4  1  0
 25 17  1  0
 33 28  1  0
 25 20  1  0
  1 36  1  0
  2 37  1  0
  3 38  1  0
  6 39  1  0
  7 40  1  0
  7 41  1  0
  8 42  1  0
  8 43  1  0
 13 44  1  0
 14 45  1  0
 14 46  1  0
 15 47  1  0
 15 48  1  0
 16 49  1  0
 16 50  1  0
 18 51  1  0
 19 52  1  0
 21 53  1  0
 22 54  1  0
 23 55  1  0
 24 56  1  0
 29 57  1  0
 29 58  1  0
 30 59  1  0
 30 60  1  0
 31 61  1  0
 32 62  1  0
 32 63  1  0
 33 64  1  0
 33 65  1  0
 35 66  1  0
 35 67  1  0
M  END
>  <smiles>  (43) 
c1ccc2c(c1)CCN(c1nc(NCCCn3ccc4ccccc43)nc(N3CCNCC3)n1)C2

>  <score_type>  (43) 
oracle

>  <origin>  (43) 
autodockgpu

>  <m_score__min__energy>  (43) 
-10.76

>  <m_primary>  (43) 
energy

>  <rmsd>  (43) 
11.579229771939634

>  <m_score__min__rmsd>  (43) 
11.579229771939634

>  <meeko>  (43) 
{"free_energy": -9.86, "intermolecular_energy": -11.95, "internal_energy": -1.23, "cluster_size": 44, "cluster_id": 1, "rank_in_cluster": 30}

>  <energy>  (43) 
-9.35

>  <cluster_rmsd>  (43) 
1.01

>  <cluster>  (43) 
1

$$$$

     RDKit          3D

 67 72  0  0  0  0  0  0  0  0999 V2000
  139.6110   68.6620  227.8180 C   0  0  0  0  0  0  0  0  0  0  0  0
  140.3620   69.7480  228.2160 C   0  0  0  0  0  0  0  0  0  0  0  0
  140.7670   70.6670  227.2740 C   0  0  0  0  0  0  0  0  0  0  0  0
  140.4260   70.5030  225.9400 C   0  0  0  0  0  0  0  0  0  0  0  0
  139.6780   69.4100  225.5750 C   0  0  0  0  0  0  0  0  0  0  0  0
  139.2510   68.4640  226.4940 C   0  0  0  0  0  0  0  0  0  0  0  0
  139.3370   69.2770  224.1310 C   0  0  0  0  0  0  0  0  0  0  0  0
  138.9830   70.6590  223.5710 C   0  0  0  0  0  0  0  0  0  0  0  0
  140.1660   71.5110  223.7370 N   0  0  0  0  0  0  0  0  0  0  0  0
  140.6190   72.3380  222.6850 C   0  0  0  0  0  0  0  0  0  0  0  0
  139.9940   73.4700  222.3510 N   0  0  0  0  0  0  0  0  0  0  0  0
  140.4080   74.2830  221.3440 C   0  0  0  0  0  0  0  0  0  0  0  0
  139.7050   75.4720  221.0300 N   0  0  0  0  0  0  0  0  0  0  0  0
  138.3470   75.7440  221.4210 C   0  0  0  0  0  0  0  0  0  0  0  0
  138.1520   77.2300  221.6170 C   0  0  0  0  0  0  0  0  0  0  0  0
  138.3040   77.5520  223.0750 C   0  0  0  0  0  0  0  0  0  0  0  0
  138.7980   78.8890  223.2610 N   0  0  0  0  0  0  0  0  0  0  0  0
  138.1220   80.0410  223.4680 C   0  0  0  0  0  0  0  0  0  0  0  0
  138.9980   81.0910  223.5900 C   0  0  0  0  0  0  0  0  0  0  0  0
  140.2670   80.5750  223.4540 C   0  0  0  0  0  0  0  0  0  0  0  0
  141.4940   81.1980  223.4930 C   0  0  0  0  0  0  0  0  0  0  0  0
  142.6400   80.4480  223.3260 C   0  0  0  0  0  0  0  0  0  0  0  0
  142.5180   79.0890  223.1230 C   0  0  0  0  0  0  0  0  0  0  0  0
  141.2870   78.4830  223.0860 C   0  0  0  0  0  0  0  0  0  0  0  0
  140.1230   79.2100  223.2500 C   0  0  0  0  0  0  0  0  0  0  0  0
  141.5020   73.8890  220.6810 N   0  0  0  0  0  0  0  0  0  0  0  0
  142.1540   72.7550  220.9940 C   0  0  0  0  0  0  0  0  0  0  0  0
  143.3090   72.4100  220.2400 N   0  0  0  0  0  0  0  0  0  0  0  0
  144.6200   72.4650  220.8430 C   0  0  0  0  0  0  0  0  0  0  0  0
  145.5510   73.3760  220.0760 C   0  0  0  0  0  0  0  0  0  0  0  0
  144.8870   73.7170  218.8380 N   0  0  0  0  0  0  0  0  0  0  0  0
  144.4240   72.5660  218.1110 C   0  0  0  0  0  0  0  0  0  0  0  0
  143.2270   71.9950  218.8540 C   0  0  0  0  0  0  0  0  0  0  0  0
  141.7310   71.9620  221.9940 N   0  0  0  0  0  0  0  0  0  0  0  0
  140.8880   71.5150  224.9850 C   0  0  0  0  0  0  0  0  0  0  0  0
  139.2879   67.9310  228.5738 H   0  0  0  0  0  0  0  0  0  0  0  0
  140.6343   69.8786  229.2737 H   0  0  0  0  0  0  0  0  0  0  0  0
  141.3652   71.5373  227.5818 H   0  0  0  0  0  0  0  0  0  0  0  0
  138.6525   67.5940  226.1860 H   0  0  0  0  0  0  0  0  0  0  0  0
  140.1997   68.8680  223.5848 H   0  0  0  0  0  0  0  0  0  0  0  0
  138.4795   68.5982  224.0133 H   0  0  0  0  0  0  0  0  0  0  0  0
  138.7233   70.5784  222.5051 H   0  0  0  0  0  0  0  0  0  0  0  0
  138.1180   71.0848  224.1006 H   0  0  0  0  0  0  0  0  0  0  0  0
  140.2060   76.2090  220.4740 H   0  0  0  0  0  0  0  0  0  0  0  0
  137.6638   75.3876  220.6360 H   0  0  0  0  0  0  0  0  0  0  0  0
  138.1331   75.2244  222.3667 H   0  0  0  0  0  0  0  0  0  0  0  0
  138.9064   77.7812  221.0365 H   0  0  0  0  0  0  0  0  0  0  0  0
  137.1490   77.5229  221.2732 H   0  0  0  0  0  0  0  0  0  0  0  0
  137.3248   77.4591  223.5674 H   0  0  0  0  0  0  0  0  0  0  0  0
  139.0262   76.8484  223.5147 H   0  0  0  0  0  0  0  0  0  0  0  0
  137.0270   80.1252  223.5298 H   0  0  0  0  0  0  0  0  0  0  0  0
  138.7356   82.1451  223.7636 H   0  0  0  0  0  0  0  0  0  0  0  0
  141.5602   82.2839  223.6558 H   0  0  0  0  0  0  0  0  0  0  0  0
  143.6312   80.9242  223.3542 H   0  0  0  0  0  0  0  0  0  0  0  0
  143.4239   78.4798  222.9883 H   0  0  0  0  0  0  0  0  0  0  0  0
  141.2256   77.3969  222.9225 H   0  0  0  0  0  0  0  0  0  0  0  0
  144.5232   72.8395  221.8727 H   0  0  0  0  0  0  0  0  0  0  0  0
  145.0457   71.4508  220.8305 H   0  0  0  0  0  0  0  0  0  0  0  0
  145.7531   74.2866  220.6591 H   0  0  0  0  0  0  0  0  0  0  0  0
  146.5125   72.8788  219.8807 H   0  0  0  0  0  0  0  0  0  0  0  0
  145.3480   74.4440  218.2840 H   0  0  0  0  0  0  0  0  0  0  0  0
  144.1266   72.8610  217.0939 H   0  0  0  0  0  0  0  0  0  0  0  0
  145.2228   71.8136  218.0353 H   0  0  0  0  0  0  0  0  0  0  0  0
  142.2964   72.3747  218.4069 H   0  0  0  0  0  0  0  0  0  0  0  0
  143.2291   70.8970  218.7873 H   0  0  0  0  0  0  0  0  0  0  0  0
  141.9510   71.3301  224.7711 H   0  0  0  0  0  0  0  0  0  0  0  0
  140.7164   72.4966  225.4509 H   0  0  0  0  0  0  0  0  0  0  0  0
  1  2  2  0
  2  3  1  0
  3  4  2  0
  4  5  1  0
  5  6  2  0
  5  7  1  0
  7  8  1  0
  8  9  1  0
  9 10  1  0
 10 11  2  0
 11 12  1  0
 12 13  1  0
 13 14  1  0
 14 15  1  0
 15 16  1  0
 16 17  1  0
 17 18  1  0
 18 19  2  0
 19 20  1  0
 20 21  2  0
 21 22  1  0
 22 23  2  0
 23 24  1  0
 24 25  2  0
 12 26  2  0
 26 27  1  0
 27 28  1  0
 28 29  1  0
 29 30  1  0
 30 31  1  0
 31 32  1  0
 32 33  1  0
 27 34  2  0
  9 35  1  0
  6  1  1  0
 34 10  1  0
 35  4  1  0
 25 17  1  0
 33 28  1  0
 25 20  1  0
  1 36  1  0
  2 37  1  0
  3 38  1  0
  6 39  1  0
  7 40  1  0
  7 41  1  0
  8 42  1  0
  8 43  1  0
 13 44  1  0
 14 45  1  0
 14 46  1  0
 15 47  1  0
 15 48  1  0
 16 49  1  0
 16 50  1  0
 18 51  1  0
 19 52  1  0
 21 53  1  0
 22 54  1  0
 23 55  1  0
 24 56  1  0
 29 57  1  0
 29 58  1  0
 30 59  1  0
 30 60  1  0
 31 61  1  0
 32 62  1  0
 32 63  1  0
 33 64  1  0
 33 65  1  0
 35 66  1  0
 35 67  1  0
M  END
>  <smiles>  (44) 
c1ccc2c(c1)CCN(c1nc(NCCCn3ccc4ccccc43)nc(N3CCNCC3)n1)C2

>  <score_type>  (44) 
oracle

>  <origin>  (44) 
autodockgpu

>  <m_score__min__energy>  (44) 
-10.76

>  <m_primary>  (44) 
energy

>  <rmsd>  (44) 
3.695886662963052

>  <m_score__min__rmsd>  (44) 
3.695886662963052

>  <meeko>  (44) 
{"free_energy": -9.89, "intermolecular_energy": -11.98, "internal_energy": -1.0, "cluster_size": 44, "cluster_id": 1, "rank_in_cluster": 28}

>  <energy>  (44) 
-8.9

>  <cluster_rmsd>  (44) 
1.63

>  <cluster>  (44) 
1

$$$$

     RDKit          3D

 67 72  0  0  0  0  0  0  0  0999 V2000
  141.7900   81.8120  220.9830 C   0  0  0  0  0  0  0  0  0  0  0  0
  141.8340   81.2740  219.7140 C   0  0  0  0  0  0  0  0  0  0  0  0
  141.7780   79.9070  219.5610 C   0  0  0  0  0  0  0  0  0  0  0  0
  141.6800   79.0790  220.6700 C   0  0  0  0  0  0  0  0  0  0  0  0
  141.6380   79.6470  221.9210 C   0  0  0  0  0  0  0  0  0  0  0  0
  141.6920   81.0180  222.1150 C   0  0  0  0  0  0  0  0  0  0  0  0
  141.5320   78.7170  223.0800 C   0  0  0  0  0  0  0  0  0  0  0  0
  140.5590   77.5870  222.7280 C   0  0  0  0  0  0  0  0  0  0  0  0
  141.1120   76.8850  221.5640 N   0  0  0  0  0  0  0  0  0  0  0  0
  141.1530   75.4740  221.5180 C   0  0  0  0  0  0  0  0  0  0  0  0
  140.1450   74.7180  221.9630 N   0  0  0  0  0  0  0  0  0  0  0  0
  140.1590   73.3590  221.9300 C   0  0  0  0  0  0  0  0  0  0  0  0
  139.0630   72.6060  222.4180 N   0  0  0  0  0  0  0  0  0  0  0  0
  138.6720   71.3160  221.9130 C   0  0  0  0  0  0  0  0  0  0  0  0
  139.7620   70.3040  222.1810 C   0  0  0  0  0  0  0  0  0  0  0  0
  139.4490   69.5770  223.4560 C   0  0  0  0  0  0  0  0  0  0  0  0
  140.0610   70.2240  224.5840 N   0  0  0  0  0  0  0  0  0  0  0  0
  140.6410   71.4410  224.6740 C   0  0  0  0  0  0  0  0  0  0  0  0
  141.1000   71.6560  225.9500 C   0  0  0  0  0  0  0  0  0  0  0  0
  140.7960   70.5310  226.6820 C   0  0  0  0  0  0  0  0  0  0  0  0
  141.0360   70.2330  228.0050 C   0  0  0  0  0  0  0  0  0  0  0  0
  140.6270   69.0170  228.5100 C   0  0  0  0  0  0  0  0  0  0  0  0
  139.9850   68.1320  227.6690 C   0  0  0  0  0  0  0  0  0  0  0  0
  139.7530   68.4440  226.3520 C   0  0  0  0  0  0  0  0  0  0  0  0
  140.1530   69.6550  225.8200 C   0  0  0  0  0  0  0  0  0  0  0  0
  141.2590   72.7940  221.4190 N   0  0  0  0  0  0  0  0  0  0  0  0
  142.2900   73.5270  220.9640 C   0  0  0  0  0  0  0  0  0  0  0  0
  143.4210   72.8470  220.4350 N   0  0  0  0  0  0  0  0  0  0  0  0
  144.6510   72.7740  221.1890 C   0  0  0  0  0  0  0  0  0  0  0  0
  145.8160   73.3470  220.4150 C   0  0  0  0  0  0  0  0  0  0  0  0
  145.3590   73.5680  219.0620 N   0  0  0  0  0  0  0  0  0  0  0  0
  144.7500   72.4060  218.4750 C   0  0  0  0  0  0  0  0  0  0  0  0
  143.3950   72.2060  219.1360 C   0  0  0  0  0  0  0  0  0  0  0  0
  142.2600   74.8700  221.0020 N   0  0  0  0  0  0  0  0  0  0  0  0
  141.6250   77.6320  220.4420 C   0  0  0  0  0  0  0  0  0  0  0  0
  141.8340   82.9048  221.1005 H   0  0  0  0  0  0  0  0  0  0  0  0
  141.9129   81.9295  218.8342 H   0  0  0  0  0  0  0  0  0  0  0  0
  141.8112   79.4683  218.5528 H   0  0  0  0  0  0  0  0  0  0  0  0
  141.6586   81.4570  223.1231 H   0  0  0  0  0  0  0  0  0  0  0  0
  142.5222   78.2939  223.3047 H   0  0  0  0  0  0  0  0  0  0  0  0
  141.1633   79.2629  223.9609 H   0  0  0  0  0  0  0  0  0  0  0  0
  140.4642   76.8933  223.5764 H   0  0  0  0  0  0  0  0  0  0  0  0
  139.5596   77.9880  222.5036 H   0  0  0  0  0  0  0  0  0  0  0  0
  138.4940   73.0140  223.2010 H   0  0  0  0  0  0  0  0  0  0  0  0
  137.7459   70.9948  222.4122 H   0  0  0  0  0  0  0  0  0  0  0  0
  138.5052   71.3883  220.8281 H   0  0  0  0  0  0  0  0  0  0  0  0
  139.8114   69.5858  221.3493 H   0  0  0  0  0  0  0  0  0  0  0  0
  140.7311   70.8162  222.2728 H   0  0  0  0  0  0  0  0  0  0  0  0
  138.3587   69.5582  223.6005 H   0  0  0  0  0  0  0  0  0  0  0  0
  139.8467   68.5541  223.3817 H   0  0  0  0  0  0  0  0  0  0  0  0
  140.7324   72.1570  223.8439 H   0  0  0  0  0  0  0  0  0  0  0  0
  141.6134   72.5567  226.3175 H   0  0  0  0  0  0  0  0  0  0  0  0
  141.5494   70.9586  228.6530 H   0  0  0  0  0  0  0  0  0  0  0  0
  140.8092   68.7576  229.5633 H   0  0  0  0  0  0  0  0  0  0  0  0
  139.6530   67.1590  228.0603 H   0  0  0  0  0  0  0  0  0  0  0  0
  139.2387   67.7156  225.7079 H   0  0  0  0  0  0  0  0  0  0  0  0
  144.5304   73.3414  222.1236 H   0  0  0  0  0  0  0  0  0  0  0  0
  144.8643   71.7148  221.3955 H   0  0  0  0  0  0  0  0  0  0  0  0
  146.1369   74.2980  220.8650 H   0  0  0  0  0  0  0  0  0  0  0  0
  146.6737   72.6585  220.4312 H   0  0  0  0  0  0  0  0  0  0  0  0
  146.0100   74.0860  218.4640 H   0  0  0  0  0  0  0  0  0  0  0  0
  144.6197   72.5581  217.3934 H   0  0  0  0  0  0  0  0  0  0  0  0
  145.3856   71.5212  218.6272 H   0  0  0  0  0  0  0  0  0  0  0  0
  142.6080   72.6580  218.5144 H   0  0  0  0  0  0  0  0  0  0  0  0
  143.1841   71.1323  219.2484 H   0  0  0  0  0  0  0  0  0  0  0  0
  142.6430   77.2762  220.2248 H   0  0  0  0  0  0  0  0  0  0  0  0
  140.9330   77.4659  219.6032 H   0  0  0  0  0  0  0  0  0  0  0  0
  1  2  2  0
  2  3  1  0
  3  4  2  0
  4  5  1  0
  5  6  2  0
  5  7  1  0
  7  8  1  0
  8  9  1  0
  9 10  1  0
 10 11  2  0
 11 12  1  0
 12 13  1  0
 13 14  1  0
 14 15  1  0
 15 16  1  0
 16 17  1  0
 17 18  1  0
 18 19  2  0
 19 20  1  0
 20 21  2  0
 21 22  1  0
 22 23  2  0
 23 24  1  0
 24 25  2  0
 12 26  2  0
 26 27  1  0
 27 28  1  0
 28 29  1  0
 29 30  1  0
 30 31  1  0
 31 32  1  0
 32 33  1  0
 27 34  2  0
  9 35  1  0
  6  1  1  0
 34 10  1  0
 35  4  1  0
 25 17  1  0
 33 28  1  0
 25 20  1  0
  1 36  1  0
  2 37  1  0
  3 38  1  0
  6 39  1  0
  7 40  1  0
  7 41  1  0
  8 42  1  0
  8 43  1  0
 13 44  1  0
 14 45  1  0
 14 46  1  0
 15 47  1  0
 15 48  1  0
 16 49  1  0
 16 50  1  0
 18 51  1  0
 19 52  1  0
 21 53  1  0
 22 54  1  0
 23 55  1  0
 24 56  1  0
 29 57  1  0
 29 58  1  0
 30 59  1  0
 30 60  1  0
 31 61  1  0
 32 62  1  0
 32 63  1  0
 33 64  1  0
 33 65  1  0
 35 66  1  0
 35 67  1  0
M  END
>  <smiles>  (45) 
c1ccc2c(c1)CCN(c1nc(NCCCn3ccc4ccccc43)nc(N3CCNCC3)n1)C2

>  <score_type>  (45) 
oracle

>  <origin>  (45) 
autodockgpu

>  <m_score__min__energy>  (45) 
-10.76

>  <m_primary>  (45) 
energy

>  <rmsd>  (45) 
11.5085964216657

>  <m_score__min__rmsd>  (45) 
11.5085964216657

>  <meeko>  (45) 
{"free_energy": -10.47, "intermolecular_energy": -12.56, "internal_energy": -1.13, "cluster_size": 44, "cluster_id": 1, "rank_in_cluster": 10}

>  <energy>  (45) 
-9.9

>  <cluster_rmsd>  (45) 
0.0

>  <cluster>  (45) 
2

$$$$

     RDKit          3D

 67 72  0  0  0  0  0  0  0  0999 V2000
  141.5010   82.5900  221.6810 C   0  0  0  0  0  0  0  0  0  0  0  0
  141.4760   82.1780  220.3650 C   0  0  0  0  0  0  0  0  0  0  0  0
  141.4050   80.8310  220.0830 C   0  0  0  0  0  0  0  0  0  0  0  0
  141.3590   79.9000  221.1100 C   0  0  0  0  0  0  0  0  0  0  0  0
  141.3850   80.3440  222.4110 C   0  0  0  0  0  0  0  0  0  0  0  0
  141.4560   81.6900  222.7340 C   0  0  0  0  0  0  0  0  0  0  0  0
  141.3330   79.3060  223.4790 C   0  0  0  0  0  0  0  0  0  0  0  0
  140.3370   78.2160  223.0700 C   0  0  0  0  0  0  0  0  0  0  0  0
  140.8250   77.6300  221.8160 N   0  0  0  0  0  0  0  0  0  0  0  0
  140.8560   76.2300  221.6320 C   0  0  0  0  0  0  0  0  0  0  0  0
  139.8660   75.4350  222.0500 N   0  0  0  0  0  0  0  0  0  0  0  0
  139.8700   74.0870  221.8850 C   0  0  0  0  0  0  0  0  0  0  0  0
  138.7940   73.2910  222.3490 N   0  0  0  0  0  0  0  0  0  0  0  0
  138.6050   71.9030  222.0190 C   0  0  0  0  0  0  0  0  0  0  0  0
  138.5780   71.0700  223.2800 C   0  0  0  0  0  0  0  0  0  0  0  0
  139.9560   70.5320  223.5360 C   0  0  0  0  0  0  0  0  0  0  0  0
  140.3560   70.7620  224.8970 N   0  0  0  0  0  0  0  0  0  0  0  0
  140.8400   71.8810  225.4800 C   0  0  0  0  0  0  0  0  0  0  0  0
  141.0950   71.6540  226.8090 C   0  0  0  0  0  0  0  0  0  0  0  0
  140.7590   70.3430  227.0650 C   0  0  0  0  0  0  0  0  0  0  0  0
  140.8230   69.6150  228.2320 C   0  0  0  0  0  0  0  0  0  0  0  0
  140.4200   68.2960  228.2300 C   0  0  0  0  0  0  0  0  0  0  0  0
  139.9640   67.7440  227.0510 C   0  0  0  0  0  0  0  0  0  0  0  0
  139.9060   68.4830  225.8960 C   0  0  0  0  0  0  0  0  0  0  0  0
  140.3030   69.8070  225.8690 C   0  0  0  0  0  0  0  0  0  0  0  0
  140.9410   73.5720  221.2690 N   0  0  0  0  0  0  0  0  0  0  0  0
  141.9540   74.3440  220.8380 C   0  0  0  0  0  0  0  0  0  0  0  0
  143.0540   73.7180  220.1920 N   0  0  0  0  0  0  0  0  0  0  0  0
  142.9760   72.3340  219.7880 C   0  0  0  0  0  0  0  0  0  0  0  0
  144.0820   71.5080  220.4040 C   0  0  0  0  0  0  0  0  0  0  0  0
  145.0100   72.4300  221.0160 N   0  0  0  0  0  0  0  0  0  0  0  0
  145.4490   73.4670  220.1210 C   0  0  0  0  0  0  0  0  0  0  0  0
  144.2880   74.4260  219.9140 C   0  0  0  0  0  0  0  0  0  0  0  0
  141.9340   75.6780  221.0070 N   0  0  0  0  0  0  0  0  0  0  0  0
  141.2840   78.4820  220.7470 C   0  0  0  0  0  0  0  0  0  0  0  0
  141.5585   83.6661  221.9016 H   0  0  0  0  0  0  0  0  0  0  0  0
  141.5123   82.9160  219.5501 H   0  0  0  0  0  0  0  0  0  0  0  0
  141.3847   80.4920  219.0367 H   0  0  0  0  0  0  0  0  0  0  0  0
  141.4757   82.0291  223.7802 H   0  0  0  0  0  0  0  0  0  0  0  0
  142.3310   78.8625  223.6107 H   0  0  0  0  0  0  0  0  0  0  0  0
  141.0127   79.7644  224.4263 H   0  0  0  0  0  0  0  0  0  0  0  0
  140.2825   77.4432  223.8509 H   0  0  0  0  0  0  0  0  0  0  0  0
  139.3296   78.6375  222.9378 H   0  0  0  0  0  0  0  0  0  0  0  0
  138.0840   73.7410  222.9790 H   0  0  0  0  0  0  0  0  0  0  0  0
  137.6522   71.7827  221.4827 H   0  0  0  0  0  0  0  0  0  0  0  0
  139.4368   71.5670  221.3825 H   0  0  0  0  0  0  0  0  0  0  0  0
  138.2617   71.6945  224.1285 H   0  0  0  0  0  0  0  0  0  0  0  0
  137.8685   70.2377  223.1622 H   0  0  0  0  0  0  0  0  0  0  0  0
  139.9619   69.4500  223.3376 H   0  0  0  0  0  0  0  0  0  0  0  0
  140.6628   71.0505  222.8715 H   0  0  0  0  0  0  0  0  0  0  0  0
  141.0059   72.8375  224.9628 H   0  0  0  0  0  0  0  0  0  0  0  0
  141.4923   72.3810  227.5326 H   0  0  0  0  0  0  0  0  0  0  0  0
  141.1922   70.0811  229.1574 H   0  0  0  0  0  0  0  0  0  0  0  0
  140.4614   67.6958  229.1509 H   0  0  0  0  0  0  0  0  0  0  0  0
  139.6410   66.6926  227.0363 H   0  0  0  0  0  0  0  0  0  0  0  0
  139.5362   68.0124  224.9731 H   0  0  0  0  0  0  0  0  0  0  0  0
  142.0059   71.9241  220.1057 H   0  0  0  0  0  0  0  0  0  0  0  0
  143.0838   72.2897  218.6942 H   0  0  0  0  0  0  0  0  0  0  0  0
  143.6676   70.8295  221.1642 H   0  0  0  0  0  0  0  0  0  0  0  0
  144.5845   70.8953  219.6411 H   0  0  0  0  0  0  0  0  0  0  0  0
  145.7370   71.9960  221.5920 H   0  0  0  0  0  0  0  0  0  0  0  0
  146.3032   74.0032  220.5602 H   0  0  0  0  0  0  0  0  0  0  0  0
  145.7664   73.0357  219.1602 H   0  0  0  0  0  0  0  0  0  0  0  0
  144.3871   75.2822  220.5975 H   0  0  0  0  0  0  0  0  0  0  0  0
  144.2852   74.7979  218.8788 H   0  0  0  0  0  0  0  0  0  0  0  0
  142.2875   78.1482  220.4443 H   0  0  0  0  0  0  0  0  0  0  0  0
  140.5486   78.3986  219.9332 H   0  0  0  0  0  0  0  0  0  0  0  0
  1  2  2  0
  2  3  1  0
  3  4  2  0
  4  5  1  0
  5  6  2  0
  5  7  1  0
  7  8  1  0
  8  9  1  0
  9 10  1  0
 10 11  2  0
 11 12  1  0
 12 13  1  0
 13 14  1  0
 14 15  1  0
 15 16  1  0
 16 17  1  0
 17 18  1  0
 18 19  2  0
 19 20  1  0
 20 21  2  0
 21 22  1  0
 22 23  2  0
 23 24  1  0
 24 25  2  0
 12 26  2  0
 26 27  1  0
 27 28  1  0
 28 29  1  0
 29 30  1  0
 30 31  1  0
 31 32  1  0
 32 33  1  0
 27 34  2  0
  9 35  1  0
  6  1  1  0
 34 10  1  0
 35  4  1  0
 25 17  1  0
 33 28  1  0
 25 20  1  0
  1 36  1  0
  2 37  1  0
  3 38  1  0
  6 39  1  0
  7 40  1  0
  7 41  1  0
  8 42  1  0
  8 43  1  0
 13 44  1  0
 14 45  1  0
 14 46  1  0
 15 47  1  0
 15 48  1  0
 16 49  1  0
 16 50  1  0
 18 51  1  0
 19 52  1  0
 21 53  1  0
 22 54  1  0
 23 55  1  0
 24 56  1  0
 29 57  1  0
 29 58  1  0
 30 59  1  0
 30 60  1  0
 31 61  1  0
 32 62  1  0
 32 63  1  0
 33 64  1  0
 33 65  1  0
 35 66  1  0
 35 67  1  0
M  END
>  <smiles>  (46) 
c1ccc2c(c1)CCN(c1nc(NCCCn3ccc4ccccc43)nc(N3CCNCC3)n1)C2

>  <score_type>  (46) 
oracle

>  <origin>  (46) 
autodockgpu

>  <m_score__min__energy>  (46) 
-10.76

>  <m_primary>  (46) 
energy

>  <rmsd>  (46) 
11.564214900694898

>  <m_score__min__rmsd>  (46) 
11.564214900694898

>  <meeko>  (46) 
{"free_energy": -10.75, "intermolecular_energy": -12.84, "internal_energy": -1.08, "cluster_size": 44, "cluster_id": 1, "rank_in_cluster": 3}

>  <energy>  (46) 
-9.83

>  <cluster_rmsd>  (46) 
0.94

>  <cluster>  (46) 
2

$$$$

     RDKit          3D

 67 72  0  0  0  0  0  0  0  0999 V2000
  141.6600   81.9100  221.3310 C   0  0  0  0  0  0  0  0  0  0  0  0
  141.8160   81.4370  220.0450 C   0  0  0  0  0  0  0  0  0  0  0  0
  141.7930   80.0780  219.8210 C   0  0  0  0  0  0  0  0  0  0  0  0
  141.6160   79.1960  220.8760 C   0  0  0  0  0  0  0  0  0  0  0  0
  141.4630   79.6990  222.1460 C   0  0  0  0  0  0  0  0  0  0  0  0
  141.4810   81.0600  222.4110 C   0  0  0  0  0  0  0  0  0  0  0  0
  141.2760   78.7110  223.2460 C   0  0  0  0  0  0  0  0  0  0  0  0
  140.3510   77.5900  222.7600 C   0  0  0  0  0  0  0  0  0  0  0  0
  141.0080   76.9530  221.6120 N   0  0  0  0  0  0  0  0  0  0  0  0
  141.0730   75.5470  221.5010 C   0  0  0  0  0  0  0  0  0  0  0  0
  140.1260   74.7490  222.0020 N   0  0  0  0  0  0  0  0  0  0  0  0
  140.1640   73.3940  221.9090 C   0  0  0  0  0  0  0  0  0  0  0  0
  139.1330   72.5950  222.4610 N   0  0  0  0  0  0  0  0  0  0  0  0
  138.5500   71.4510  221.8080 C   0  0  0  0  0  0  0  0  0  0  0  0
  138.6270   70.2440  222.7150 C   0  0  0  0  0  0  0  0  0  0  0  0
  139.9400   70.2640  223.4420 C   0  0  0  0  0  0  0  0  0  0  0  0
  139.7770   69.8760  224.8160 N   0  0  0  0  0  0  0  0  0  0  0  0
  139.1130   68.8250  225.3450 C   0  0  0  0  0  0  0  0  0  0  0  0
  139.2150   68.8380  226.7140 C   0  0  0  0  0  0  0  0  0  0  0  0
  139.9690   69.9390  227.0510 C   0  0  0  0  0  0  0  0  0  0  0  0
  140.3640   70.4100  228.2840 C   0  0  0  0  0  0  0  0  0  0  0  0
  141.1300   71.5550  228.3580 C   0  0  0  0  0  0  0  0  0  0  0  0
  141.4780   72.1960  227.1880 C   0  0  0  0  0  0  0  0  0  0  0  0
  141.0760   71.7150  225.9660 C   0  0  0  0  0  0  0  0  0  0  0  0
  140.3080   70.5700  225.8630 C   0  0  0  0  0  0  0  0  0  0  0  0
  141.2240   72.8770  221.2760 N   0  0  0  0  0  0  0  0  0  0  0  0
  142.1940   73.6520  220.7610 C   0  0  0  0  0  0  0  0  0  0  0  0
  143.2850   73.0230  220.1030 N   0  0  0  0  0  0  0  0  0  0  0  0
  144.1970   72.1800  220.8390 C   0  0  0  0  0  0  0  0  0  0  0  0
  145.6260   72.6590  220.7160 C   0  0  0  0  0  0  0  0  0  0  0  0
  145.6440   73.6810  219.6950 N   0  0  0  0  0  0  0  0  0  0  0  0
  145.0330   73.2600  218.4630 C   0  0  0  0  0  0  0  0  0  0  0  0
  143.5310   73.1950  218.6850 C   0  0  0  0  0  0  0  0  0  0  0  0
  142.1410   74.9920  220.8610 N   0  0  0  0  0  0  0  0  0  0  0  0
  141.6000   77.7610  220.5750 C   0  0  0  0  0  0  0  0  0  0  0  0
  141.6782   82.9960  221.5051 H   0  0  0  0  0  0  0  0  0  0  0  0
  141.9571   82.1367  219.2080 H   0  0  0  0  0  0  0  0  0  0  0  0
  141.9158   79.6902  218.7990 H   0  0  0  0  0  0  0  0  0  0  0  0
  141.3586   81.4478  223.4331 H   0  0  0  0  0  0  0  0  0  0  0  0
  142.2505   78.2874  223.5304 H   0  0  0  0  0  0  0  0  0  0  0  0
  140.8290   79.2084  224.1194 H   0  0  0  0  0  0  0  0  0  0  0  0
  140.1971   76.8537  223.5626 H   0  0  0  0  0  0  0  0  0  0  0  0
  139.3675   77.9913  222.4742 H   0  0  0  0  0  0  0  0  0  0  0  0
  138.7650   72.8510  223.4100 H   0  0  0  0  0  0  0  0  0  0  0  0
  137.4967   71.6633  221.5725 H   0  0  0  0  0  0  0  0  0  0  0  0
  139.1044   71.2425  220.8811 H   0  0  0  0  0  0  0  0  0  0  0  0
  137.8021   70.2754  223.4420 H   0  0  0  0  0  0  0  0  0  0  0  0
  138.5461   69.3238  222.1178 H   0  0  0  0  0  0  0  0  0  0  0  0
  140.6330   69.5649  222.9511 H   0  0  0  0  0  0  0  0  0  0  0  0
  140.3394   71.2885  223.4135 H   0  0  0  0  0  0  0  0  0  0  0  0
  138.5686   68.0673  224.7622 H   0  0  0  0  0  0  0  0  0  0  0  0
  138.7771   68.1070  227.4097 H   0  0  0  0  0  0  0  0  0  0  0  0
  140.0712   69.8779  229.2012 H   0  0  0  0  0  0  0  0  0  0  0  0
  141.4568   71.9489  229.3317 H   0  0  0  0  0  0  0  0  0  0  0  0
  142.0889   73.1096  227.2341 H   0  0  0  0  0  0  0  0  0  0  0  0
  141.3707   72.2510  225.0517 H   0  0  0  0  0  0  0  0  0  0  0  0
  143.9095   72.1857  221.9007 H   0  0  0  0  0  0  0  0  0  0  0  0
  144.1389   71.1647  220.4198 H   0  0  0  0  0  0  0  0  0  0  0  0
  145.9679   73.0768  221.6744 H   0  0  0  0  0  0  0  0  0  0  0  0
  146.2964   71.8282  220.4508 H   0  0  0  0  0  0  0  0  0  0  0  0
  146.5270   74.1920  219.6080 H   0  0  0  0  0  0  0  0  0  0  0  0
  145.2621   73.9828  217.6661 H   0  0  0  0  0  0  0  0  0  0  0  0
  145.4187   72.2751  218.1609 H   0  0  0  0  0  0  0  0  0  0  0  0
  143.0634   74.1280  218.3373 H   0  0  0  0  0  0  0  0  0  0  0  0
  143.1019   72.3529  218.1222 H   0  0  0  0  0  0  0  0  0  0  0  0
  142.6373   77.4269  220.4254 H   0  0  0  0  0  0  0  0  0  0  0  0
  140.9803   77.6304  219.6756 H   0  0  0  0  0  0  0  0  0  0  0  0
  1  2  2  0
  2  3  1  0
  3  4  2  0
  4  5  1  0
  5  6  2  0
  5  7  1  0
  7  8  1  0
  8  9  1  0
  9 10  1  0
 10 11  2  0
 11 12  1  0
 12 13  1  0
 13 14  1  0
 14 15  1  0
 15 16  1  0
 16 17  1  0
 17 18  1  0
 18 19  2  0
 19 20  1  0
 20 21  2  0
 21 22  1  0
 22 23  2  0
 23 24  1  0
 24 25  2  0
 12 26  2  0
 26 27  1  0
 27 28  1  0
 28 29  1  0
 29 30  1  0
 30 31  1  0
 31 32  1  0
 32 33  1  0
 27 34  2  0
  9 35  1  0
  6  1  1  0
 34 10  1  0
 35  4  1  0
 25 17  1  0
 33 28  1  0
 25 20  1  0
  1 36  1  0
  2 37  1  0
  3 38  1  0
  6 39  1  0
  7 40  1  0
  7 41  1  0
  8 42  1  0
  8 43  1  0
 13 44  1  0
 14 45  1  0
 14 46  1  0
 15 47  1  0
 15 48  1  0
 16 49  1  0
 16 50  1  0
 18 51  1  0
 19 52  1  0
 21 53  1  0
 22 54  1  0
 23 55  1  0
 24 56  1  0
 29 57  1  0
 29 58  1  0
 30 59  1  0
 30 60  1  0
 31 61  1  0
 32 62  1  0
 32 63  1  0
 33 64  1  0
 33 65  1  0
 35 66  1  0
 35 67  1  0
M  END
>  <smiles>  (47) 
c1ccc2c(c1)CCN(c1nc(NCCCn3ccc4ccccc43)nc(N3CCNCC3)n1)C2

>  <score_type>  (47) 
oracle

>  <origin>  (47) 
autodockgpu

>  <m_score__min__energy>  (47) 
-10.76

>  <m_primary>  (47) 
energy

>  <rmsd>  (47) 
11.10905043554781

>  <m_score__min__rmsd>  (47) 
11.10905043554781

>  <meeko>  (47) 
{"free_energy": -10.65, "intermolecular_energy": -12.74, "internal_energy": -1.12, "cluster_size": 44, "cluster_id": 1, "rank_in_cluster": 5}

>  <energy>  (47) 
-9.74

>  <cluster_rmsd>  (47) 
0.46

>  <cluster>  (47) 
2

$$$$

     RDKit          3D

 67 72  0  0  0  0  0  0  0  0999 V2000
  141.7170   81.5830  220.9680 C   0  0  0  0  0  0  0  0  0  0  0  0
  141.8240   81.0530  219.7000 C   0  0  0  0  0  0  0  0  0  0  0  0
  141.8490   79.6850  219.5430 C   0  0  0  0  0  0  0  0  0  0  0  0
  141.7690   78.8500  220.6470 C   0  0  0  0  0  0  0  0  0  0  0  0
  141.6630   79.4090  221.8980 C   0  0  0  0  0  0  0  0  0  0  0  0
  141.6350   80.7810  222.0950 C   0  0  0  0  0  0  0  0  0  0  0  0
  141.5800   78.4710  223.0520 C   0  0  0  0  0  0  0  0  0  0  0  0
  140.6810   77.2890  222.6730 C   0  0  0  0  0  0  0  0  0  0  0  0
  141.3020   76.6240  221.5220 N   0  0  0  0  0  0  0  0  0  0  0  0
  141.4240   75.2170  221.4740 C   0  0  0  0  0  0  0  0  0  0  0  0
  140.4330   74.4040  221.8530 N   0  0  0  0  0  0  0  0  0  0  0  0
  140.5240   73.0490  221.8170 C   0  0  0  0  0  0  0  0  0  0  0  0
  139.4420   72.2340  222.2320 N   0  0  0  0  0  0  0  0  0  0  0  0
  139.4800   70.7960  222.2890 C   0  0  0  0  0  0  0  0  0  0  0  0
  139.9590   70.3440  223.6490 C   0  0  0  0  0  0  0  0  0  0  0  0
  139.3730   71.2470  224.6960 C   0  0  0  0  0  0  0  0  0  0  0  0
  140.1450   71.2030  225.9080 N   0  0  0  0  0  0  0  0  0  0  0  0
  140.8440   72.1810  226.5250 C   0  0  0  0  0  0  0  0  0  0  0  0
  141.4360   71.6950  227.6650 C   0  0  0  0  0  0  0  0  0  0  0  0
  141.0940   70.3650  227.7610 C   0  0  0  0  0  0  0  0  0  0  0  0
  141.4240   69.4230  228.7090 C   0  0  0  0  0  0  0  0  0  0  0  0
  140.9480   68.1350  228.5790 C   0  0  0  0  0  0  0  0  0  0  0  0
  140.1510   67.8300  227.4960 C   0  0  0  0  0  0  0  0  0  0  0  0
  139.8310   68.7800  226.5580 C   0  0  0  0  0  0  0  0  0  0  0  0
  140.2940   70.0780  226.6640 C   0  0  0  0  0  0  0  0  0  0  0  0
  141.6830   72.5480  221.3740 N   0  0  0  0  0  0  0  0  0  0  0  0
  142.6990   73.3390  220.9860 C   0  0  0  0  0  0  0  0  0  0  0  0
  143.8960   72.7250  220.5280 N   0  0  0  0  0  0  0  0  0  0  0  0
  145.1480   72.9630  221.2070 C   0  0  0  0  0  0  0  0  0  0  0  0
  146.1940   73.5240  220.2720 C   0  0  0  0  0  0  0  0  0  0  0  0
  145.6660   73.4180  218.9310 N   0  0  0  0  0  0  0  0  0  0  0  0
  145.2080   72.0940  218.6090 C   0  0  0  0  0  0  0  0  0  0  0  0
  143.9170   71.8480  219.3740 C   0  0  0  0  0  0  0  0  0  0  0  0
  142.5930   74.6790  221.0270 N   0  0  0  0  0  0  0  0  0  0  0  0
  141.8010   77.4020  220.4150 C   0  0  0  0  0  0  0  0  0  0  0  0
  141.6961   82.6761  221.0889 H   0  0  0  0  0  0  0  0  0  0  0  0
  141.8887   81.7149  218.8238 H   0  0  0  0  0  0  0  0  0  0  0  0
  141.9330   79.2520  218.5353 H   0  0  0  0  0  0  0  0  0  0  0  0
  141.5513   81.2143  223.1026 H   0  0  0  0  0  0  0  0  0  0  0  0
  142.5864   78.1034  223.3012 H   0  0  0  0  0  0  0  0  0  0  0  0
  141.1589   78.9925  223.9242 H   0  0  0  0  0  0  0  0  0  0  0  0
  140.6042   76.5879  223.5172 H   0  0  0  0  0  0  0  0  0  0  0  0
  139.6664   77.6337  222.4245 H   0  0  0  0  0  0  0  0  0  0  0  0
  138.5500   72.7070  222.5200 H   0  0  0  0  0  0  0  0  0  0  0  0
  138.4708   70.3977  222.1076 H   0  0  0  0  0  0  0  0  0  0  0  0
  140.1728   70.4228  221.5204 H   0  0  0  0  0  0  0  0  0  0  0  0
  139.6335   69.3090  223.8299 H   0  0  0  0  0  0  0  0  0  0  0  0
  141.0573   70.3883  223.6910 H   0  0  0  0  0  0  0  0  0  0  0  0
  139.3611   72.2788  224.3148 H   0  0  0  0  0  0  0  0  0  0  0  0
  138.3515   70.9059  224.9197 H   0  0  0  0  0  0  0  0  0  0  0  0
  140.9270   73.2174  226.1659 H   0  0  0  0  0  0  0  0  0  0  0  0
  142.0644   72.2613  228.3682 H   0  0  0  0  0  0  0  0  0  0  0  0
  142.0618   69.6951  229.5629 H   0  0  0  0  0  0  0  0  0  0  0  0
  141.1993   67.3663  229.3246 H   0  0  0  0  0  0  0  0  0  0  0  0
  139.7644   66.8066  227.3815 H   0  0  0  0  0  0  0  0  0  0  0  0
  139.1936   68.5028  225.7054 H   0  0  0  0  0  0  0  0  0  0  0  0
  144.9795   73.6797  222.0243 H   0  0  0  0  0  0  0  0  0  0  0  0
  145.5155   72.0015  221.5948 H   0  0  0  0  0  0  0  0  0  0  0  0
  146.3929   74.5778  220.5170 H   0  0  0  0  0  0  0  0  0  0  0  0
  147.1399   72.9703  220.3652 H   0  0  0  0  0  0  0  0  0  0  0  0
  146.2170   73.8920  218.2090 H   0  0  0  0  0  0  0  0  0  0  0  0
  145.0226   72.0152  217.5276 H   0  0  0  0  0  0  0  0  0  0  0  0
  145.9667   71.3476  218.8869 H   0  0  0  0  0  0  0  0  0  0  0  0
  143.0544   72.0646  218.7268 H   0  0  0  0  0  0  0  0  0  0  0  0
  143.8622   70.7976  219.6959 H   0  0  0  0  0  0  0  0  0  0  0  0
  142.8425   77.1044  220.2235 H   0  0  0  0  0  0  0  0  0  0  0  0
  141.1412   77.2001  219.5583 H   0  0  0  0  0  0  0  0  0  0  0  0
  1  2  2  0
  2  3  1  0
  3  4  2  0
  4  5  1  0
  5  6  2  0
  5  7  1  0
  7  8  1  0
  8  9  1  0
  9 10  1  0
 10 11  2  0
 11 12  1  0
 12 13  1  0
 13 14  1  0
 14 15  1  0
 15 16  1  0
 16 17  1  0
 17 18  1  0
 18 19  2  0
 19 20  1  0
 20 21  2  0
 21 22  1  0
 22 23  2  0
 23 24  1  0
 24 25  2  0
 12 26  2  0
 26 27  1  0
 27 28  1  0
 28 29  1  0
 29 30  1  0
 30 31  1  0
 31 32  1  0
 32 33  1  0
 27 34  2  0
  9 35  1  0
  6  1  1  0
 34 10  1  0
 35  4  1  0
 25 17  1  0
 33 28  1  0
 25 20  1  0
  1 36  1  0
  2 37  1  0
  3 38  1  0
  6 39  1  0
  7 40  1  0
  7 41  1  0
  8 42  1  0
  8 43  1  0
 13 44  1  0
 14 45  1  0
 14 46  1  0
 15 47  1  0
 15 48  1  0
 16 49  1  0
 16 50  1  0
 18 51  1  0
 19 52  1  0
 21 53  1  0
 22 54  1  0
 23 55  1  0
 24 56  1  0
 29 57  1  0
 29 58  1  0
 30 59  1  0
 30 60  1  0
 31 61  1  0
 32 62  1  0
 32 63  1  0
 33 64  1  0
 33 65  1  0
 35 66  1  0
 35 67  1  0
M  END
>  <smiles>  (48) 
c1ccc2c(c1)CCN(c1nc(NCCCn3ccc4ccccc43)nc(N3CCNCC3)n1)C2

>  <score_type>  (48) 
oracle

>  <origin>  (48) 
autodockgpu

>  <m_score__min__energy>  (48) 
-10.76

>  <m_primary>  (48) 
energy

>  <rmsd>  (48) 
11.871830457363112

>  <m_score__min__rmsd>  (48) 
11.871830457363112

>  <meeko>  (48) 
{"free_energy": -10.47, "intermolecular_energy": -12.56, "internal_energy": -1.02, "cluster_size": 44, "cluster_id": 1, "rank_in_cluster": 11}

>  <energy>  (48) 
-9.69

>  <cluster_rmsd>  (48) 
0.6

>  <cluster>  (48) 
2

$$$$

     RDKit          3D

 67 72  0  0  0  0  0  0  0  0999 V2000
  139.7310   81.1190  223.7900 C   0  0  0  0  0  0  0  0  0  0  0  0
  141.0800   80.8680  223.6530 C   0  0  0  0  0  0  0  0  0  0  0  0
  141.4930   79.6140  223.2620 C   0  0  0  0  0  0  0  0  0  0  0  0
  140.5640   78.6150  223.0100 C   0  0  0  0  0  0  0  0  0  0  0  0
  139.2270   78.8980  223.1560 C   0  0  0  0  0  0  0  0  0  0  0  0
  138.7730   80.1480  223.5480 C   0  0  0  0  0  0  0  0  0  0  0  0
  138.2690   77.7930  222.8740 C   0  0  0  0  0  0  0  0  0  0  0  0
  138.7480   77.0160  221.6440 C   0  0  0  0  0  0  0  0  0  0  0  0
  140.0720   76.4700  221.9640 N   0  0  0  0  0  0  0  0  0  0  0  0
  140.3980   75.1290  221.6600 C   0  0  0  0  0  0  0  0  0  0  0  0
  139.5930   74.1110  221.9790 N   0  0  0  0  0  0  0  0  0  0  0  0
  139.8830   72.8140  221.6990 C   0  0  0  0  0  0  0  0  0  0  0  0
  138.9930   71.7730  222.0620 N   0  0  0  0  0  0  0  0  0  0  0  0
  138.5340   71.5240  223.4030 C   0  0  0  0  0  0  0  0  0  0  0  0
  138.2750   70.0470  223.5960 C   0  0  0  0  0  0  0  0  0  0  0  0
  139.5880   69.3440  223.7840 C   0  0  0  0  0  0  0  0  0  0  0  0
  139.8560   69.1140  225.1780 N   0  0  0  0  0  0  0  0  0  0  0  0
  139.7090   67.9900  225.9130 C   0  0  0  0  0  0  0  0  0  0  0  0
  140.0850   68.2200  227.2130 C   0  0  0  0  0  0  0  0  0  0  0  0
  140.4800   69.5360  227.2910 C   0  0  0  0  0  0  0  0  0  0  0  0
  140.9440   70.2680  228.3610 C   0  0  0  0  0  0  0  0  0  0  0  0
  141.2790   71.5940  228.1800 C   0  0  0  0  0  0  0  0  0  0  0  0
  141.1390   72.1470  226.9250 C   0  0  0  0  0  0  0  0  0  0  0  0
  140.6750   71.4040  225.8670 C   0  0  0  0  0  0  0  0  0  0  0  0
  140.3320   70.0740  226.0210 C   0  0  0  0  0  0  0  0  0  0  0  0
  141.0440   72.5920  221.0720 N   0  0  0  0  0  0  0  0  0  0  0  0
  141.8760   73.5940  220.7380 C   0  0  0  0  0  0  0  0  0  0  0  0
  143.0900   73.2720  220.0720 N   0  0  0  0  0  0  0  0  0  0  0  0
  143.2860   71.9600  219.5020 C   0  0  0  0  0  0  0  0  0  0  0  0
  144.5170   71.2840  220.0630 C   0  0  0  0  0  0  0  0  0  0  0  0
  145.2370   72.2790  220.8240 N   0  0  0  0  0  0  0  0  0  0  0  0
  145.4890   73.4850  220.0810 C   0  0  0  0  0  0  0  0  0  0  0  0
  144.1700   74.2280  219.9380 C   0  0  0  0  0  0  0  0  0  0  0  0
  141.5740   74.8730  221.0210 N   0  0  0  0  0  0  0  0  0  0  0  0
  141.0660   77.3010  222.5970 C   0  0  0  0  0  0  0  0  0  0  0  0
  139.4051   82.1224  224.1014 H   0  0  0  0  0  0  0  0  0  0  0  0
  141.8169   81.6596  223.8536 H   0  0  0  0  0  0  0  0  0  0  0  0
  142.5666   79.4030  223.1487 H   0  0  0  0  0  0  0  0  0  0  0  0
  137.6995   80.3594  223.6618 H   0  0  0  0  0  0  0  0  0  0  0  0
  138.2206   77.1173  223.7407 H   0  0  0  0  0  0  0  0  0  0  0  0
  137.2689   78.2093  222.6830 H   0  0  0  0  0  0  0  0  0  0  0  0
  138.0476   76.1983  221.4185 H   0  0  0  0  0  0  0  0  0  0  0  0
  138.7990   77.6726  220.7629 H   0  0  0  0  0  0  0  0  0  0  0  0
  138.6420   71.1370  221.3030 H   0  0  0  0  0  0  0  0  0  0  0  0
  139.3014   71.8556  224.1180 H   0  0  0  0  0  0  0  0  0  0  0  0
  137.5999   72.0793  223.5734 H   0  0  0  0  0  0  0  0  0  0  0  0
  137.6445   69.8956  224.4845 H   0  0  0  0  0  0  0  0  0  0  0  0
  137.7575   69.6409  222.7144 H   0  0  0  0  0  0  0  0  0  0  0  0
  139.5565   68.3775  223.2598 H   0  0  0  0  0  0  0  0  0  0  0  0
  140.3869   69.9796  223.3744 H   0  0  0  0  0  0  0  0  0  0  0  0
  139.3409   67.0286  225.5254 H   0  0  0  0  0  0  0  0  0  0  0  0
  140.0729   67.4907  228.0364 H   0  0  0  0  0  0  0  0  0  0  0  0
  141.0466   69.7998  229.3511 H   0  0  0  0  0  0  0  0  0  0  0  0
  141.6506   72.1982  229.0207 H   0  0  0  0  0  0  0  0  0  0  0  0
  141.4038   73.2030  226.7679 H   0  0  0  0  0  0  0  0  0  0  0  0
  140.5745   71.8763  224.8787 H   0  0  0  0  0  0  0  0  0  0  0  0
  142.4057   71.3393  219.7252 H   0  0  0  0  0  0  0  0  0  0  0  0
  143.4228   72.0749  218.4166 H   0  0  0  0  0  0  0  0  0  0  0  0
  144.2244   70.4483  220.7157 H   0  0  0  0  0  0  0  0  0  0  0  0
  145.1441   70.8787  219.2553 H   0  0  0  0  0  0  0  0  0  0  0  0
  146.0210   71.9200  221.3760 H   0  0  0  0  0  0  0  0  0  0  0  0
  146.2148   74.1117  220.6200 H   0  0  0  0  0  0  0  0  0  0  0  0
  145.9044   73.2462  219.0908 H   0  0  0  0  0  0  0  0  0  0  0  0
  144.0879   74.9938  220.7234 H   0  0  0  0  0  0  0  0  0  0  0  0
  144.1185   74.7213  218.9562 H   0  0  0  0  0  0  0  0  0  0  0  0
  141.4393   76.7765  223.4889 H   0  0  0  0  0  0  0  0  0  0  0  0
  141.8553   77.4797  221.8519 H   0  0  0  0  0  0  0  0  0  0  0  0
  1  2  2  0
  2  3  1  0
  3  4  2  0
  4  5  1  0
  5  6  2  0
  5  7  1  0
  7  8  1  0
  8  9  1  0
  9 10  1  0
 10 11  2  0
 11 12  1  0
 12 13  1  0
 13 14  1  0
 14 15  1  0
 15 16  1  0
 16 17  1  0
 17 18  1  0
 18 19  2  0
 19 20  1  0
 20 21  2  0
 21 22  1  0
 22 23  2  0
 23 24  1  0
 24 25  2  0
 12 26  2  0
 26 27  1  0
 27 28  1  0
 28 29  1  0
 29 30  1  0
 30 31  1  0
 31 32  1  0
 32 33  1  0
 27 34  2  0
  9 35  1  0
  6  1  1  0
 34 10  1  0
 35  4  1  0
 25 17  1  0
 33 28  1  0
 25 20  1  0
  1 36  1  0
  2 37  1  0
  3 38  1  0
  6 39  1  0
  7 40  1  0
  7 41  1  0
  8 42  1  0
  8 43  1  0
 13 44  1  0
 14 45  1  0
 14 46  1  0
 15 47  1  0
 15 48  1  0
 16 49  1  0
 16 50  1  0
 18 51  1  0
 19 52  1  0
 21 53  1  0
 22 54  1  0
 23 55  1  0
 24 56  1  0
 29 57  1  0
 29 58  1  0
 30 59  1  0
 30 60  1  0
 31 61  1  0
 32 62  1  0
 32 63  1  0
 33 64  1  0
 33 65  1  0
 35 66  1  0
 35 67  1  0
M  END
>  <smiles>  (49) 
c1ccc2c(c1)CCN(c1nc(NCCCn3ccc4ccccc43)nc(N3CCNCC3)n1)C2

>  <score_type>  (49) 
oracle

>  <origin>  (49) 
autodockgpu

>  <m_score__min__energy>  (49) 
-10.76

>  <m_primary>  (49) 
energy

>  <rmsd>  (49) 
11.613083232144634

>  <m_score__min__rmsd>  (49) 
11.613083232144634

>  <meeko>  (49) 
{"free_energy": -10.28, "intermolecular_energy": -12.37, "internal_energy": -1.07, "cluster_size": 44, "cluster_id": 1, "rank_in_cluster": 17}

>  <energy>  (49) 
-9.76

>  <cluster_rmsd>  (49) 
0.0

>  <cluster>  (49) 
3

$$$$

     RDKit          3D

 67 72  0  0  0  0  0  0  0  0999 V2000
  146.2090   70.3340  219.2270 C   0  0  0  0  0  0  0  0  0  0  0  0
  145.0070   69.6640  219.1570 C   0  0  0  0  0  0  0  0  0  0  0  0
  143.8600   70.2930  219.5890 C   0  0  0  0  0  0  0  0  0  0  0  0
  143.9140   71.5850  220.0890 C   0  0  0  0  0  0  0  0  0  0  0  0
  145.1290   72.2260  220.1450 C   0  0  0  0  0  0  0  0  0  0  0  0
  146.3040   71.6260  219.7200 C   0  0  0  0  0  0  0  0  0  0  0  0
  145.1350   73.6130  220.6900 C   0  0  0  0  0  0  0  0  0  0  0  0
  143.9070   74.3630  220.1650 C   0  0  0  0  0  0  0  0  0  0  0  0
  142.7210   73.6380  220.6370 N   0  0  0  0  0  0  0  0  0  0  0  0
  141.6230   74.3280  221.1980 C   0  0  0  0  0  0  0  0  0  0  0  0
  140.4760   73.7130  221.5010 N   0  0  0  0  0  0  0  0  0  0  0  0
  139.4060   74.3520  222.0410 C   0  0  0  0  0  0  0  0  0  0  0  0
  138.2110   73.6510  222.3400 N   0  0  0  0  0  0  0  0  0  0  0  0
  137.9070   72.3240  221.8740 C   0  0  0  0  0  0  0  0  0  0  0  0
  137.8410   71.3680  223.0440 C   0  0  0  0  0  0  0  0  0  0  0  0
  138.9790   70.3940  222.9410 C   0  0  0  0  0  0  0  0  0  0  0  0
  139.2110   69.7360  224.1980 N   0  0  0  0  0  0  0  0  0  0  0  0
  138.8790   68.4880  224.5950 C   0  0  0  0  0  0  0  0  0  0  0  0
  139.2950   68.2730  225.8860 C   0  0  0  0  0  0  0  0  0  0  0  0
  139.9090   69.4310  226.3090 C   0  0  0  0  0  0  0  0  0  0  0  0
  140.4960   69.7420  227.5150 C   0  0  0  0  0  0  0  0  0  0  0  0
  141.0510   70.9920  227.6940 C   0  0  0  0  0  0  0  0  0  0  0  0
  141.0010   71.8950  226.6540 C   0  0  0  0  0  0  0  0  0  0  0  0
  140.4120   71.5700  225.4570 C   0  0  0  0  0  0  0  0  0  0  0  0
  139.8470   70.3250  225.2500 C   0  0  0  0  0  0  0  0  0  0  0  0
  139.5540   75.6640  222.2630 N   0  0  0  0  0  0  0  0  0  0  0  0
  140.6950   76.3110  221.9700 C   0  0  0  0  0  0  0  0  0  0  0  0
  140.7700   77.7050  222.2390 N   0  0  0  0  0  0  0  0  0  0  0  0
  140.2840   78.6640  221.2740 C   0  0  0  0  0  0  0  0  0  0  0  0
  141.3610   79.6440  220.8690 C   0  0  0  0  0  0  0  0  0  0  0  0
  142.4750   79.4460  221.7670 N   0  0  0  0  0  0  0  0  0  0  0  0
  142.0980   79.4930  223.1540 C   0  0  0  0  0  0  0  0  0  0  0  0
  141.3290   78.2210  223.4720 C   0  0  0  0  0  0  0  0  0  0  0  0
  141.7460   75.6630  221.4370 N   0  0  0  0  0  0  0  0  0  0  0  0
  142.6600   72.2010  220.5340 C   0  0  0  0  0  0  0  0  0  0  0  0
  147.1220   69.8276  218.8807 H   0  0  0  0  0  0  0  0  0  0  0  0
  144.9638   68.6388  218.7608 H   0  0  0  0  0  0  0  0  0  0  0  0
  142.8954   69.7669  219.5369 H   0  0  0  0  0  0  0  0  0  0  0  0
  147.2689   72.1517  219.7717 H   0  0  0  0  0  0  0  0  0  0  0  0
  145.1027   73.5771  221.7889 H   0  0  0  0  0  0  0  0  0  0  0  0
  146.0508   74.1325  220.3714 H   0  0  0  0  0  0  0  0  0  0  0  0
  143.8992   75.3920  220.5537 H   0  0  0  0  0  0  0  0  0  0  0  0
  143.9214   74.4149  219.0663 H   0  0  0  0  0  0  0  0  0  0  0  0
  137.4970   74.1300  222.9430 H   0  0  0  0  0  0  0  0  0  0  0  0
  136.9368   72.3331  221.3557 H   0  0  0  0  0  0  0  0  0  0  0  0
  138.6961   71.9944  221.1821 H   0  0  0  0  0  0  0  0  0  0  0  0
  137.9208   71.9309  223.9857 H   0  0  0  0  0  0  0  0  0  0  0  0
  136.8840   70.8259  223.0288 H   0  0  0  0  0  0  0  0  0  0  0  0
  138.7376   69.6384  222.1789 H   0  0  0  0  0  0  0  0  0  0  0  0
  139.8884   70.9466  222.6623 H   0  0  0  0  0  0  0  0  0  0  0  0
  138.3511   67.7499  223.9733 H   0  0  0  0  0  0  0  0  0  0  0  0
  139.1629   67.3510  226.4711 H   0  0  0  0  0  0  0  0  0  0  0  0
  140.5221   69.0010  228.3276 H   0  0  0  0  0  0  0  0  0  0  0  0
  141.5247   71.2631  228.6490 H   0  0  0  0  0  0  0  0  0  0  0  0
  141.4411   72.8945  226.7853 H   0  0  0  0  0  0  0  0  0  0  0  0
  140.3892   72.3142  224.6473 H   0  0  0  0  0  0  0  0  0  0  0  0
  139.9374   78.1255  220.3797 H   0  0  0  0  0  0  0  0  0  0  0  0
  139.4619   79.2297  221.7367 H   0  0  0  0  0  0  0  0  0  0  0  0
  141.6739   79.4534  219.8318 H   0  0  0  0  0  0  0  0  0  0  0  0
  140.9909   80.6783  220.9265 H   0  0  0  0  0  0  0  0  0  0  0  0
  143.3300   79.9500  221.5160 H   0  0  0  0  0  0  0  0  0  0  0  0
  142.9977   79.5533  223.7841 H   0  0  0  0  0  0  0  0  0  0  0  0
  141.4747   80.3775  223.3521 H   0  0  0  0  0  0  0  0  0  0  0  0
  142.0083   77.4763  223.9123 H   0  0  0  0  0  0  0  0  0  0  0  0
  140.5249   78.4350  224.1914 H   0  0  0  0  0  0  0  0  0  0  0  0
  142.4054   71.7931  221.5233 H   0  0  0  0  0  0  0  0  0  0  0  0
  141.9008   71.9666  219.7733 H   0  0  0  0  0  0  0  0  0  0  0  0
  1  2  2  0
  2  3  1  0
  3  4  2  0
  4  5  1  0
  5  6  2  0
  5  7  1  0
  7  8  1  0
  8  9  1  0
  9 10  1  0
 10 11  2  0
 11 12  1  0
 12 13  1  0
 13 14  1  0
 14 15  1  0
 15 16  1  0
 16 17  1  0
 17 18  1  0
 18 19  2  0
 19 20  1  0
 20 21  2  0
 21 22  1  0
 22 23  2  0
 23 24  1  0
 24 25  2  0
 12 26  2  0
 26 27  1  0
 27 28  1  0
 28 29  1  0
 29 30  1  0
 30 31  1  0
 31 32  1  0
 32 33  1  0
 27 34  2  0
  9 35  1  0
  6  1  1  0
 34 10  1  0
 35  4  1  0
 25 17  1  0
 33 28  1  0
 25 20  1  0
  1 36  1  0
  2 37  1  0
  3 38  1  0
  6 39  1  0
  7 40  1  0
  7 41  1  0
  8 42  1  0
  8 43  1  0
 13 44  1  0
 14 45  1  0
 14 46  1  0
 15 47  1  0
 15 48  1  0
 16 49  1  0
 16 50  1  0
 18 51  1  0
 19 52  1  0
 21 53  1  0
 22 54  1  0
 23 55  1  0
 24 56  1  0
 29 57  1  0
 29 58  1  0
 30 59  1  0
 30 60  1  0
 31 61  1  0
 32 62  1  0
 32 63  1  0
 33 64  1  0
 33 65  1  0
 35 66  1  0
 35 67  1  0
M  END
>  <smiles>  (50) 
c1ccc2c(c1)CCN(c1nc(NCCCn3ccc4ccccc43)nc(N3CCNCC3)n1)C2

>  <score_type>  (50) 
oracle

>  <origin>  (50) 
autodockgpu

>  <m_score__min__energy>  (50) 
-10.76

>  <m_primary>  (50) 
energy

>  <rmsd>  (50) 
11.097372163107124

>  <m_score__min__rmsd>  (50) 
11.097372163107124

>  <meeko>  (50) 
{"free_energy": -9.69, "intermolecular_energy": -11.78, "internal_energy": -1.21, "cluster_size": 4, "cluster_id": 2, "rank_in_cluster": 4}

>  <energy>  (50) 
-9.53

>  <cluster_rmsd>  (50) 
0.45

>  <cluster>  (50) 
3

$$$$
