@<TRIPOS>MOLECULE
*****
 74 79 0 0 0
SMALL
GASTEIGER

@<TRIPOS>ATOM
      1 N         143.1200   79.3900  222.9370 N.3     1  UNL1       -0.2081
      2 S         142.1150   80.7890  223.0550 S.O2    1  UNL1        0.0269
      3 O         142.2160   81.6100  221.8160 O.2     1  UNL1       -0.1584
      4 O         142.5880   81.5620  224.2450 O.2     1  UNL1       -0.1584
      5 C         140.4090   80.2680  223.2750 C.3     1  UNL1        0.0817
      6 C         139.9510   79.5470  222.0390 C.3     1  UNL1       -0.0293
      7 C         139.6790   78.0800  222.2820 C.3     1  UNL1       -0.0395
      8 C         138.5230   77.5340  221.5160 C.3     1  UNL1       -0.0495
      9 C         138.9140   76.5050  220.4830 C.3     1  UNL1       -0.0431
     10 C         139.7810   75.4060  220.9950 C.3     1  UNL1        0.0192
     11 C         139.0470   74.1390  221.2960 C.ar    1  UNL1        0.1393
     12 N         137.9640   73.7490  220.5840 N.ar    1  UNL1       -0.1990
     13 C         137.3590   72.5860  220.9280 C.ar    1  UNL1        0.2227
     14 N         136.2240   72.2040  220.1570 N.pl3   1  UNL1       -0.2949
     15 C         134.9720   71.9640  220.8310 C.3     1  UNL1        0.0192
     16 C         134.5060   70.5750  220.4520 C.3     1  UNL1       -0.0115
     17 C         134.4020   70.5340  218.9720 C.ar    1  UNL1       -0.0412
     18 C         133.3910   69.7650  218.4090 C.ar    1  UNL1       -0.0582
     19 C         133.3010   69.7330  217.0230 C.ar    1  UNL1       -0.0615
     20 C         134.1710   70.4290  216.2130 C.ar    1  UNL1       -0.0614
     21 C         135.1520   71.1720  216.8260 C.ar    1  UNL1       -0.0568
     22 C         135.2910   71.2440  218.1980 C.ar    1  UNL1       -0.0269
     23 C         136.3840   72.0770  218.7430 C.3     1  UNL1        0.0402
     24 N         137.8220   71.8400  221.9500 N.ar    1  UNL1       -0.1808
     25 C         138.8980   72.2200  222.6630 C.ar    1  UNL1        0.2227
     26 N         139.4140   71.4600  223.7460 N.pl3   1  UNL1       -0.2949
     27 C         138.7210   70.2700  224.1930 C.3     1  UNL1        0.0192
     28 C         139.7720   69.3790  224.8440 C.3     1  UNL1       -0.0115
     29 C         140.2640   70.1300  226.0390 C.ar    1  UNL1       -0.0412
     30 C         140.2780   69.5690  227.3070 C.ar    1  UNL1       -0.0582
     31 C         140.7600   70.3770  228.3220 C.ar    1  UNL1       -0.0615
     32 C         141.2010   71.6560  228.1170 C.ar    1  UNL1       -0.0614
     33 C         141.1830   72.2150  226.8320 C.ar    1  UNL1       -0.0568
     34 C         140.7050   71.4230  225.8010 C.ar    1  UNL1       -0.0269
     35 C         140.6330   71.8930  224.3920 C.3     1  UNL1        0.0402
     36 N         139.4780   73.3810  222.2970 N.ar    1  UNL1       -0.1990
     37 C         140.4510   75.7900  222.3210 C.3     1  UNL1       -0.0431
     38 C         140.9010   77.2330  222.1120 C.3     1  UNL1       -0.0495
     39 H         143.9360   79.6540  222.3280 H       1  UNL1        0.1438
     40 H         142.5720   78.7050  222.3410 H       1  UNL1        0.1438
     41 H         140.3386   79.5942  224.1417 H       1  UNL1        0.0515
     42 H         139.7723   81.1483  223.4474 H       1  UNL1        0.0515
     43 H         139.0260   80.0207  221.6785 H       1  UNL1        0.0284
     44 H         140.7607   79.6148  221.2975 H       1  UNL1        0.0284
     45 H         139.3826   78.0288  223.3401 H       1  UNL1        0.0301
     46 H         138.0206   78.3676  221.0035 H       1  UNL1        0.0268
     47 H         137.8654   77.0304  222.2399 H       1  UNL1        0.0268
     48 H         139.4544   77.0193  219.6747 H       1  UNL1        0.0272
     49 H         137.9795   76.0321  220.1467 H       1  UNL1        0.0272
     50 H         140.5006   75.2476  220.1782 H       1  UNL1        0.0379
     51 H         135.1142   72.0276  221.9199 H       1  UNL1        0.0468
     52 H         134.2248   72.7155  220.5362 H       1  UNL1        0.0468
     53 H         135.2329   69.8260  220.7994 H       1  UNL1        0.0328
     54 H         133.5353   70.3489  220.9175 H       1  UNL1        0.0328
     55 H         132.6867   69.2014  219.0385 H       1  UNL1        0.0620
     56 H         132.5074   69.1310  216.5562 H       1  UNL1        0.0618
     57 H         134.0842   70.3917  215.1171 H       1  UNL1        0.0618
     58 H         135.8572   71.7338  216.1958 H       1  UNL1        0.0621
     59 H         137.3516   71.6017  218.5244 H       1  UNL1        0.0514
     60 H         136.3529   73.0737  218.2787 H       1  UNL1        0.0514
     61 H         137.9419   70.5350  224.9229 H       1  UNL1        0.0468
     62 H         138.2275   69.7571  223.3543 H       1  UNL1        0.0468
     63 H         139.3250   68.4220  225.1511 H       1  UNL1        0.0328
     64 H         140.5915   69.1470  224.1478 H       1  UNL1        0.0328
     65 H         139.9271   68.5435  227.4949 H       1  UNL1        0.0620
     66 H         140.7900   69.9710  229.3439 H       1  UNL1        0.0618
     67 H         141.5719   72.2490  228.9660 H       1  UNL1        0.0618
     68 H         141.5343   73.2413  226.6495 H       1  UNL1        0.0621
     69 H         140.6717   72.9923  224.3804 H       1  UNL1        0.0514
     70 H         141.4837   71.4631  223.8429 H       1  UNL1        0.0514
     71 H         141.3135   75.1385  222.5248 H       1  UNL1        0.0272
     72 H         139.7738   75.6813  223.1810 H       1  UNL1        0.0272
     73 H         141.3158   77.3605  221.1012 H       1  UNL1        0.0268
     74 H         141.6873   77.5154  222.8276 H       1  UNL1        0.0268
@<TRIPOS>BOND
     1     1     2    1
     2     2     3    2
     3     2     4    2
     4     2     5    1
     5     5     6    1
     6     6     7    1
     7     7     8    1
     8     8     9    1
     9     9    10    1
    10    10    11    1
    11    11    12   ar
    12    12    13   ar
    13    13    14    1
    14    14    15    1
    15    15    16    1
    16    16    17    1
    17    17    18   ar
    18    18    19   ar
    19    19    20   ar
    20    20    21   ar
    21    21    22   ar
    22    22    23    1
    23    13    24   ar
    24    24    25   ar
    25    25    26    1
    26    26    27    1
    27    27    28    1
    28    28    29    1
    29    29    30   ar
    30    30    31   ar
    31    31    32   ar
    32    32    33   ar
    33    33    34   ar
    34    34    35    1
    35    25    36   ar
    36    10    37    1
    37    37    38    1
    38    38     7    1
    39    36    11   ar
    40    23    14    1
    41    35    26    1
    42    22    17   ar
    43    34    29   ar
    44     1    39    1
    45     1    40    1
    46     5    41    1
    47     5    42    1
    48     6    43    1
    49     6    44    1
    50     7    45    1
    51     8    46    1
    52     8    47    1
    53     9    48    1
    54     9    49    1
    55    10    50    1
    56    15    51    1
    57    15    52    1
    58    16    53    1
    59    16    54    1
    60    18    55    1
    61    19    56    1
    62    20    57    1
    63    21    58    1
    64    23    59    1
    65    23    60    1
    66    27    61    1
    67    27    62    1
    68    28    63    1
    69    28    64    1
    70    30    65    1
    71    31    66    1
    72    32    67    1
    73    33    68    1
    74    35    69    1
    75    35    70    1
    76    37    71    1
    77    37    72    1
    78    38    73    1
    79    38    74    1
