
     RDKit          3D

 67 71  0  0  0  0  0  0  0  0999 V2000
  137.8880   70.6460  221.7700 O   0  0  0  0  0  0  0  0  0  0  0  0
  138.4630   71.4470  222.5850 C   0  0  0  0  0  0  0  0  0  0  0  0
  138.4120   72.8180  222.2210 N   0  0  0  0  0  0  0  0  0  0  0  0
  137.7150   73.1470  220.9990 C   0  0  0  0  0  0  0  0  0  0  0  0
  138.6460   73.3690  219.8660 C   0  0  0  0  0  0  0  0  0  0  0  0
  138.5830   74.3320  219.0750 O   0  0  0  0  0  0  0  0  0  0  0  0
  139.6840   72.3790  219.7030 N   0  0  0  0  0  0  0  0  0  0  0  0
  139.6480   71.2030  218.8300 C   0  0  0  0  0  0  0  0  0  0  0  0
  140.4810   70.2080  219.5700 C   0  0  0  0  0  0  0  0  0  0  0  0
  140.9670   70.8810  220.8410 C   0  0  0  0  0  0  0  0  0  0  0  0
  140.9590   72.3400  220.3890 C   0  0  1  0  0  0  0  0  0  0  0  0
  142.1500   72.5890  219.5210 C   0  0  0  0  0  0  0  0  0  0  0  0
  142.9050   73.6750  220.1640 N   0  0  0  0  0  0  0  0  0  0  0  0
  142.3410   74.9180  220.4920 C   0  0  0  0  0  0  0  0  0  0  0  0
  142.5730   76.0940  219.8100 C   0  0  0  0  0  0  0  0  0  0  0  0
  141.9710   77.2890  220.2160 C   0  0  0  0  0  0  0  0  0  0  0  0
  141.1340   77.3190  221.3090 C   0  0  0  0  0  0  0  0  0  0  0  0
  140.4730   78.5250  221.7900 C   0  0  0  0  0  0  0  0  0  0  0  0
  139.2620   78.7060  221.4350 O   0  0  0  0  0  0  0  0  0  0  0  0
  141.1570   79.4570  222.6200 N   0  0  0  0  0  0  0  0  0  0  0  0
  142.5390   79.3380  223.0900 C   0  0  0  0  0  0  0  0  0  0  0  0
  142.7730   80.6670  223.8320 C   0  0  0  0  0  0  0  0  0  0  0  0
  141.7790   81.6150  223.1450 C   0  0  0  0  0  0  0  0  0  0  0  0
  140.5580   80.6880  223.1240 C   0  0  0  0  0  0  0  0  0  0  0  0
  140.8920   76.1550  222.0010 C   0  0  0  0  0  0  0  0  0  0  0  0
  141.4880   74.9860  221.5940 C   0  0  0  0  0  0  0  0  0  0  0  0
  139.1100   70.9460  223.7860 C   0  0  0  0  0  0  0  0  0  0  0  0
  140.0950   71.7720  224.3510 C   0  0  0  0  0  0  0  0  0  0  0  0
  140.7680   71.3990  225.5030 C   0  0  0  0  0  0  0  0  0  0  0  0
  140.4240   70.1870  226.0580 C   0  0  0  0  0  0  0  0  0  0  0  0
  141.1110   69.8060  227.2100 C   0  0  0  0  0  0  0  0  0  0  0  0
  140.7830   68.5690  227.7790 C   0  0  0  0  0  0  0  0  0  0  0  0
  141.4660   68.1990  228.9150 F   0  0  0  0  0  0  0  0  0  0  0  0
  139.8170   67.7630  227.2180 C   0  0  0  0  0  0  0  0  0  0  0  0
  139.1380   68.1400  226.0800 C   0  0  0  0  0  0  0  0  0  0  0  0
  139.4580   69.3720  225.5060 C   0  0  0  0  0  0  0  0  0  0  0  0
  138.8130   69.7720  224.3680 N   0  0  0  0  0  0  0  0  0  0  0  0
  138.8730   73.5330  222.8410 H   0  0  0  0  0  0  0  0  0  0  0  0
  137.0373   72.3191  220.7437 H   0  0  0  0  0  0  0  0  0  0  0  0
  137.1594   74.0812  221.1679 H   0  0  0  0  0  0  0  0  0  0  0  0
  138.6183   70.8382  218.7008 H   0  0  0  0  0  0  0  0  0  0  0  0
  140.0172   71.4065  217.8140 H   0  0  0  0  0  0  0  0  0  0  0  0
  139.8770   69.3233  219.8200 H   0  0  0  0  0  0  0  0  0  0  0  0
  141.3312   69.8782  218.9549 H   0  0  0  0  0  0  0  0  0  0  0  0
  140.2787   70.7105  221.6819 H   0  0  0  0  0  0  0  0  0  0  0  0
  141.9351   70.5178  221.2163 H   0  0  0  0  0  0  0  0  0  0  0  0
  141.0388   73.1174  221.1631 H   0  0  0  0  0  0  0  0  0  0  0  0
  142.7689   71.6822  219.4532 H   0  0  0  0  0  0  0  0  0  0  0  0
  141.8512   72.8593  218.4975 H   0  0  0  0  0  0  0  0  0  0  0  0
  143.9180   73.5230  220.3930 H   0  0  0  0  0  0  0  0  0  0  0  0
  143.2402   76.0919  218.9354 H   0  0  0  0  0  0  0  0  0  0  0  0
  142.1682   78.2151  219.6562 H   0  0  0  0  0  0  0  0  0  0  0  0
  142.6520   78.4810  223.7703 H   0  0  0  0  0  0  0  0  0  0  0  0
  143.2585   79.1655  222.2760 H   0  0  0  0  0  0  0  0  0  0  0  0
  142.5500   80.5674  224.9045 H   0  0  0  0  0  0  0  0  0  0  0  0
  143.8148   81.0167  223.7843 H   0  0  0  0  0  0  0  0  0  0  0  0
  141.5983   82.5251  223.7359 H   0  0  0  0  0  0  0  0  0  0  0  0
  142.0943   82.0118  222.1687 H   0  0  0  0  0  0  0  0  0  0  0  0
  140.1369   80.5505  224.1309 H   0  0  0  0  0  0  0  0  0  0  0  0
  139.7135   81.0612  222.5261 H   0  0  0  0  0  0  0  0  0  0  0  0
  140.2248   76.1602  222.8756 H   0  0  0  0  0  0  0  0  0  0  0  0
  141.2842   74.0654  222.1605 H   0  0  0  0  0  0  0  0  0  0  0  0
  140.3364   72.7317  223.8706 H   0  0  0  0  0  0  0  0  0  0  0  0
  141.5402   72.0405  225.9527 H   0  0  0  0  0  0  0  0  0  0  0  0
  141.8815   70.4526  227.6551 H   0  0  0  0  0  0  0  0  0  0  0  0
  139.5825   66.7970  227.6890 H   0  0  0  0  0  0  0  0  0  0  0  0
  138.3680   67.4909  225.6375 H   0  0  0  0  0  0  0  0  0  0  0  0
  1  2  2  0
  2  3  1  0
  3  4  1  0
  4  5  1  0
  5  6  2  0
  5  7  1  0
  7  8  1  0
  8  9  1  0
  9 10  1  0
 10 11  1  0
 11 12  1  0
 12 13  1  0
 13 14  1  0
 14 15  2  0
 15 16  1  0
 16 17  2  0
 17 18  1  0
 18 19  2  0
 18 20  1  0
 20 21  1  0
 21 22  1  0
 22 23  1  0
 23 24  1  0
 17 25  1  0
 25 26  2  0
  2 27  1  0
 27 28  2  0
 28 29  1  0
 29 30  2  0
 30 31  1  0
 31 32  2  0
 32 33  1  0
 32 34  1  0
 34 35  2  0
 35 36  1  0
 36 37  2  0
 11  7  1  0
 26 14  1  0
 37 27  1  0
 24 20  1  0
 36 30  1  0
  3 38  1  0
  4 39  1  0
  4 40  1  0
  8 41  1  0
  8 42  1  0
  9 43  1  0
  9 44  1  0
 10 45  1  0
 10 46  1  0
 11 47  1  1
 12 48  1  0
 12 49  1  0
 13 50  1  0
 15 51  1  0
 16 52  1  0
 21 53  1  0
 21 54  1  0
 22 55  1  0
 22 56  1  0
 23 57  1  0
 23 58  1  0
 24 59  1  0
 24 60  1  0
 25 61  1  0
 26 62  1  0
 28 63  1  0
 29 64  1  0
 31 65  1  0
 34 66  1  0
 35 67  1  0
M  END
>  <smiles>  (1) 
O=C(NCC(=O)N1CCC[C@H]1CNc1ccc(C(=O)N2CCCC2)cc1)c1ccc2cc(F)ccc2n1

>  <score_type>  (1) 
oracle

>  <origin>  (1) 
autodockgpu

>  <m_score__min__energy>  (1) 
-8.9399999999999995

>  <m_primary>  (1) 
energy

>  <rmsd>  (1) 
8.324646053348882

>  <m_score__min__rmsd>  (1) 
8.324646053348882

>  <meeko>  (1) 
{"free_energy": -7.92, "intermolecular_energy": -10.31, "internal_energy": -2.37, "cluster_size": 6, "cluster_id": 4, "rank_in_cluster": 5}

>  <energy>  (1) 
-8.94

>  <cluster_rmsd>  (1) 
0.0

>  <cluster>  (1) 
1

$$$$

     RDKit          3D

 67 71  0  0  0  0  0  0  0  0999 V2000
  141.4230   72.3170  221.5330 O   0  0  0  0  0  0  0  0  0  0  0  0
  140.5910   72.5710  222.4700 C   0  0  0  0  0  0  0  0  0  0  0  0
  139.8860   73.7970  222.3340 N   0  0  0  0  0  0  0  0  0  0  0  0
  140.1750   74.5940  221.1640 C   0  0  0  0  0  0  0  0  0  0  0  0
  140.0950   76.0480  221.4460 C   0  0  0  0  0  0  0  0  0  0  0  0
  139.2730   76.5750  222.2220 O   0  0  0  0  0  0  0  0  0  0  0  0
  141.0540   76.8760  220.7530 N   0  0  0  0  0  0  0  0  0  0  0  0
  141.5360   78.1960  221.1670 C   0  0  0  0  0  0  0  0  0  0  0  0
  141.8120   78.8760  219.8650 C   0  0  0  0  0  0  0  0  0  0  0  0
  141.4800   77.8910  218.7600 C   0  0  0  0  0  0  0  0  0  0  0  0
  141.7110   76.5740  219.4980 C   0  0  1  0  0  0  0  0  0  0  0  0
  143.1820   76.3250  219.6010 C   0  0  0  0  0  0  0  0  0  0  0  0
  143.5010   75.3280  218.5680 N   0  0  0  0  0  0  0  0  0  0  0  0
  144.0640   74.0750  218.8510 C   0  0  0  0  0  0  0  0  0  0  0  0
  144.3520   73.6070  220.1160 C   0  0  0  0  0  0  0  0  0  0  0  0
  144.9220   72.3430  220.3010 C   0  0  0  0  0  0  0  0  0  0  0  0
  145.2110   71.5370  219.2230 C   0  0  0  0  0  0  0  0  0  0  0  0
  145.8050   70.2120  219.3380 C   0  0  0  0  0  0  0  0  0  0  0  0
  147.0760   70.1480  219.4160 O   0  0  0  0  0  0  0  0  0  0  0  0
  144.9930   69.0430  219.3630 N   0  0  0  0  0  0  0  0  0  0  0  0
  143.5320   69.0080  219.2900 C   0  0  0  0  0  0  0  0  0  0  0  0
  143.2190   67.5010  219.2350 C   0  0  0  0  0  0  0  0  0  0  0  0
  144.5000   66.9140  218.6260 C   0  0  0  0  0  0  0  0  0  0  0  0
  145.5250   67.6880  219.4630 C   0  0  0  0  0  0  0  0  0  0  0  0
  144.9310   71.9890  217.9530 C   0  0  0  0  0  0  0  0  0  0  0  0
  144.3710   73.2320  217.7830 C   0  0  0  0  0  0  0  0  0  0  0  0
  140.4100   71.6460  223.5750 C   0  0  0  0  0  0  0  0  0  0  0  0
  139.7800   70.4290  223.2690 C   0  0  0  0  0  0  0  0  0  0  0  0
  139.5670   69.4680  224.2450 C   0  0  0  0  0  0  0  0  0  0  0  0
  140.0000   69.7680  225.5170 C   0  0  0  0  0  0  0  0  0  0  0  0
  139.7730   68.8060  226.5010 C   0  0  0  0  0  0  0  0  0  0  0  0
  140.1940   69.1010  227.8020 C   0  0  0  0  0  0  0  0  0  0  0  0
  139.9670   68.1480  228.7690 F   0  0  0  0  0  0  0  0  0  0  0  0
  140.8100   70.2980  228.0960 C   0  0  0  0  0  0  0  0  0  0  0  0
  141.0340   71.2480  227.1240 C   0  0  0  0  0  0  0  0  0  0  0  0
  140.6180   70.9620  225.8210 C   0  0  0  0  0  0  0  0  0  0  0  0
  140.8130   71.8880  224.8340 N   0  0  0  0  0  0  0  0  0  0  0  0
  139.1910   74.0750  223.0740 H   0  0  0  0  0  0  0  0  0  0  0  0
  141.1904   74.3558  220.8145 H   0  0  0  0  0  0  0  0  0  0  0  0
  139.4230   74.3556  220.3974 H   0  0  0  0  0  0  0  0  0  0  0  0
  140.7676   78.7357  221.7400 H   0  0  0  0  0  0  0  0  0  0  0  0
  142.4148   78.1495  221.8269 H   0  0  0  0  0  0  0  0  0  0  0  0
  141.1842   79.7742  219.7693 H   0  0  0  0  0  0  0  0  0  0  0  0
  142.8654   79.1871  219.8047 H   0  0  0  0  0  0  0  0  0  0  0  0
  140.4379   77.9923  218.4228 H   0  0  0  0  0  0  0  0  0  0  0  0
  142.0678   78.0142  217.8384 H   0  0  0  0  0  0  0  0  0  0  0  0
  141.3251   75.6526  219.0374 H   0  0  0  0  0  0  0  0  0  0  0  0
  143.7402   77.2552  219.4189 H   0  0  0  0  0  0  0  0  0  0  0  0
  143.4595   75.9673  220.6035 H   0  0  0  0  0  0  0  0  0  0  0  0
  143.3000   75.5570  217.5630 H   0  0  0  0  0  0  0  0  0  0  0  0
  144.1306   74.2359  220.9909 H   0  0  0  0  0  0  0  0  0  0  0  0
  145.1417   71.9892  221.3191 H   0  0  0  0  0  0  0  0  0  0  0  0
  143.0813   69.4724  220.1795 H   0  0  0  0  0  0  0  0  0  0  0  0
  143.1294   69.5641  218.4306 H   0  0  0  0  0  0  0  0  0  0  0  0
  143.0365   67.0965  220.2415 H   0  0  0  0  0  0  0  0  0  0  0  0
  142.3125   67.2635  218.6589 H   0  0  0  0  0  0  0  0  0  0  0  0
  144.5730   65.8276  218.7821 H   0  0  0  0  0  0  0  0  0  0  0  0
  144.6001   67.0149  217.5352 H   0  0  0  0  0  0  0  0  0  0  0  0
  145.5446   67.3367  220.5052 H   0  0  0  0  0  0  0  0  0  0  0  0
  146.5653   67.5810  219.1219 H   0  0  0  0  0  0  0  0  0  0  0  0
  145.1543   71.3586  217.0796 H   0  0  0  0  0  0  0  0  0  0  0  0
  144.1556   73.5771  216.7610 H   0  0  0  0  0  0  0  0  0  0  0  0
  139.4500   70.2350  222.2377 H   0  0  0  0  0  0  0  0  0  0  0  0
  139.0755   68.5114  224.0142 H   0  0  0  0  0  0  0  0  0  0  0  0
  139.2814   67.8512  226.2630 H   0  0  0  0  0  0  0  0  0  0  0  0
  141.1297   70.4993  229.1291 H   0  0  0  0  0  0  0  0  0  0  0  0
  141.5251   72.2021  227.3660 H   0  0  0  0  0  0  0  0  0  0  0  0
  1  2  2  0
  2  3  1  0
  3  4  1  0
  4  5  1  0
  5  6  2  0
  5  7  1  0
  7  8  1  0
  8  9  1  0
  9 10  1  0
 10 11  1  0
 11 12  1  0
 12 13  1  0
 13 14  1  0
 14 15  2  0
 15 16  1  0
 16 17  2  0
 17 18  1  0
 18 19  2  0
 18 20  1  0
 20 21  1  0
 21 22  1  0
 22 23  1  0
 23 24  1  0
 17 25  1  0
 25 26  2  0
  2 27  1  0
 27 28  2  0
 28 29  1  0
 29 30  2  0
 30 31  1  0
 31 32  2  0
 32 33  1  0
 32 34  1  0
 34 35  2  0
 35 36  1  0
 36 37  2  0
 11  7  1  0
 26 14  1  0
 37 27  1  0
 24 20  1  0
 36 30  1  0
  3 38  1  0
  4 39  1  0
  4 40  1  0
  8 41  1  0
  8 42  1  0
  9 43  1  0
  9 44  1  0
 10 45  1  0
 10 46  1  0
 11 47  1  6
 12 48  1  0
 12 49  1  0
 13 50  1  0
 15 51  1  0
 16 52  1  0
 21 53  1  0
 21 54  1  0
 22 55  1  0
 22 56  1  0
 23 57  1  0
 23 58  1  0
 24 59  1  0
 24 60  1  0
 25 61  1  0
 26 62  1  0
 28 63  1  0
 29 64  1  0
 31 65  1  0
 34 66  1  0
 35 67  1  0
M  END
>  <smiles>  (2) 
O=C(NCC(=O)N1CCC[C@H]1CNc1ccc(C(=O)N2CCCC2)cc1)c1ccc2cc(F)ccc2n1

>  <score_type>  (2) 
oracle

>  <origin>  (2) 
autodockgpu

>  <m_score__min__energy>  (2) 
-8.9399999999999995

>  <m_primary>  (2) 
energy

>  <rmsd>  (2) 
8.523414217830936

>  <m_score__min__rmsd>  (2) 
8.523414217830936

>  <meeko>  (2) 
{"free_energy": -8.94, "intermolecular_energy": -11.33, "internal_energy": -2.01, "cluster_size": 4, "cluster_id": 1, "rank_in_cluster": 1}

>  <energy>  (2) 
-8.73

>  <cluster_rmsd>  (2) 
1.17

>  <cluster>  (2) 
1

$$$$

     RDKit          3D

 67 71  0  0  0  0  0  0  0  0999 V2000
  141.1710   72.0380  221.6140 O   0  0  0  0  0  0  0  0  0  0  0  0
  140.3560   72.3300  222.5560 C   0  0  0  0  0  0  0  0  0  0  0  0
  139.5930   73.5100  222.3490 N   0  0  0  0  0  0  0  0  0  0  0  0
  139.8110   74.2240  221.1120 C   0  0  0  0  0  0  0  0  0  0  0  0
  139.8840   75.6910  221.3190 C   0  0  0  0  0  0  0  0  0  0  0  0
  139.6430   76.2670  222.3990 O   0  0  0  0  0  0  0  0  0  0  0  0
  140.2670   76.4700  220.1660 N   0  0  0  0  0  0  0  0  0  0  0  0
  139.3700   77.0950  219.1910 C   0  0  0  0  0  0  0  0  0  0  0  0
  140.1650   77.0520  217.9260 C   0  0  0  0  0  0  0  0  0  0  0  0
  141.4990   76.4050  218.2520 C   0  0  0  0  0  0  0  0  0  0  0  0
  141.6160   76.7670  219.7310 C   0  0  1  0  0  0  0  0  0  0  0  0
  142.0150   78.2030  219.8510 C   0  0  0  0  0  0  0  0  0  0  0  0
  142.1670   78.4650  221.2910 N   0  0  0  0  0  0  0  0  0  0  0  0
  141.1360   78.9690  222.0970 C   0  0  0  0  0  0  0  0  0  0  0  0
  141.0860   78.8640  223.4720 C   0  0  0  0  0  0  0  0  0  0  0  0
  140.0110   79.3920  224.1930 C   0  0  0  0  0  0  0  0  0  0  0  0
  138.9750   80.0290  223.5470 C   0  0  0  0  0  0  0  0  0  0  0  0
  137.8240   80.6030  224.2310 C   0  0  0  0  0  0  0  0  0  0  0  0
  138.0530   81.5110  225.0950 O   0  0  0  0  0  0  0  0  0  0  0  0
  136.5020   80.1620  223.9410 N   0  0  0  0  0  0  0  0  0  0  0  0
  136.1320   79.1370  222.9630 C   0  0  0  0  0  0  0  0  0  0  0  0
  134.6120   78.9930  223.1650 C   0  0  0  0  0  0  0  0  0  0  0  0
  134.4220   79.4350  224.6230 C   0  0  0  0  0  0  0  0  0  0  0  0
  135.3090   80.6850  224.5990 C   0  0  0  0  0  0  0  0  0  0  0  0
  139.0090   80.1430  222.1760 C   0  0  0  0  0  0  0  0  0  0  0  0
  140.0700   79.6210  221.4770 C   0  0  0  0  0  0  0  0  0  0  0  0
  140.2510   71.4880  223.7350 C   0  0  0  0  0  0  0  0  0  0  0  0
  139.6500   70.2330  223.5500 C   0  0  0  0  0  0  0  0  0  0  0  0
  139.5080   69.3440  224.6040 C   0  0  0  0  0  0  0  0  0  0  0  0
  139.9820   69.7550  225.8300 C   0  0  0  0  0  0  0  0  0  0  0  0
  139.8260   68.8660  226.8930 C   0  0  0  0  0  0  0  0  0  0  0  0
  140.2910   69.2730  228.1490 C   0  0  0  0  0  0  0  0  0  0  0  0
  140.1340   68.3910  229.1940 F   0  0  0  0  0  0  0  0  0  0  0  0
  140.8780   70.5070  228.3240 C   0  0  0  0  0  0  0  0  0  0  0  0
  141.0320   71.3850  227.2740 C   0  0  0  0  0  0  0  0  0  0  0  0
  140.5720   70.9860  226.0160 C   0  0  0  0  0  0  0  0  0  0  0  0
  140.6960   71.8390  224.9530 N   0  0  0  0  0  0  0  0  0  0  0  0
  138.9090   73.8160  223.0890 H   0  0  0  0  0  0  0  0  0  0  0  0
  140.7567   73.8813  220.6667 H   0  0  0  0  0  0  0  0  0  0  0  0
  138.9588   74.0180  220.4477 H   0  0  0  0  0  0  0  0  0  0  0  0
  138.4357   76.5233  219.0903 H   0  0  0  0  0  0  0  0  0  0  0  0
  139.0625   78.1122  219.4751 H   0  0  0  0  0  0  0  0  0  0  0  0
  139.6339   76.4578  217.1678 H   0  0  0  0  0  0  0  0  0  0  0  0
  140.3119   78.0654  217.5241 H   0  0  0  0  0  0  0  0  0  0  0  0
  141.4725   75.3160  218.0993 H   0  0  0  0  0  0  0  0  0  0  0  0
  142.3401   76.7377  217.6260 H   0  0  0  0  0  0  0  0  0  0  0  0
  142.3719   76.2385  220.3304 H   0  0  0  0  0  0  0  0  0  0  0  0
  142.9665   78.3799  219.3282 H   0  0  0  0  0  0  0  0  0  0  0  0
  141.2646   78.8679  219.3984 H   0  0  0  0  0  0  0  0  0  0  0  0
  143.0920   78.2680  221.7470 H   0  0  0  0  0  0  0  0  0  0  0  0
  141.9027   78.3582  224.0078 H   0  0  0  0  0  0  0  0  0  0  0  0
  139.9924   79.2976  225.2888 H   0  0  0  0  0  0  0  0  0  0  0  0
  136.3648   79.4657  221.9394 H   0  0  0  0  0  0  0  0  0  0  0  0
  136.6776   78.1918  223.1003 H   0  0  0  0  0  0  0  0  0  0  0  0
  134.0566   79.6470  222.4766 H   0  0  0  0  0  0  0  0  0  0  0  0
  134.2392   77.9777  222.9645 H   0  0  0  0  0  0  0  0  0  0  0  0
  133.3729   79.6756  224.8498 H   0  0  0  0  0  0  0  0  0  0  0  0
  134.6748   78.6845  225.3864 H   0  0  0  0  0  0  0  0  0  0  0  0
  134.8487   81.4968  224.0167 H   0  0  0  0  0  0  0  0  0  0  0  0
  135.4931   81.1315  225.5873 H   0  0  0  0  0  0  0  0  0  0  0  0
  138.1909   80.6494  221.6428 H   0  0  0  0  0  0  0  0  0  0  0  0
  140.0795   79.7214  220.3816 H   0  0  0  0  0  0  0  0  0  0  0  0
  139.2854   69.9502  222.5514 H   0  0  0  0  0  0  0  0  0  0  0  0
  139.0395   68.3581  224.4678 H   0  0  0  0  0  0  0  0  0  0  0  0
  139.3554   67.8821  226.7499 H   0  0  0  0  0  0  0  0  0  0  0  0
  141.2315   70.7975  229.3243 H   0  0  0  0  0  0  0  0  0  0  0  0
  141.5019   72.3687  227.4208 H   0  0  0  0  0  0  0  0  0  0  0  0
  1  2  2  0
  2  3  1  0
  3  4  1  0
  4  5  1  0
  5  6  2  0
  5  7  1  0
  7  8  1  0
  8  9  1  0
  9 10  1  0
 10 11  1  0
 11 12  1  0
 12 13  1  0
 13 14  1  0
 14 15  2  0
 15 16  1  0
 16 17  2  0
 17 18  1  0
 18 19  2  0
 18 20  1  0
 20 21  1  0
 21 22  1  0
 22 23  1  0
 23 24  1  0
 17 25  1  0
 25 26  2  0
  2 27  1  0
 27 28  2  0
 28 29  1  0
 29 30  2  0
 30 31  1  0
 31 32  2  0
 32 33  1  0
 32 34  1  0
 34 35  2  0
 35 36  1  0
 36 37  2  0
 11  7  1  0
 26 14  1  0
 37 27  1  0
 24 20  1  0
 36 30  1  0
  3 38  1  0
  4 39  1  0
  4 40  1  0
  8 41  1  0
  8 42  1  0
  9 43  1  0
  9 44  1  0
 10 45  1  0
 10 46  1  0
 11 47  1  1
 12 48  1  0
 12 49  1  0
 13 50  1  0
 15 51  1  0
 16 52  1  0
 21 53  1  0
 21 54  1  0
 22 55  1  0
 22 56  1  0
 23 57  1  0
 23 58  1  0
 24 59  1  0
 24 60  1  0
 25 61  1  0
 26 62  1  0
 28 63  1  0
 29 64  1  0
 31 65  1  0
 34 66  1  0
 35 67  1  0
M  END
>  <smiles>  (3) 
O=C(NCC(=O)N1CCC[C@H]1CNc1ccc(C(=O)N2CCCC2)cc1)c1ccc2cc(F)ccc2n1

>  <score_type>  (3) 
oracle

>  <origin>  (3) 
autodockgpu

>  <m_score__min__energy>  (3) 
-8.9399999999999995

>  <m_primary>  (3) 
energy

>  <rmsd>  (3) 
8.95695706463255

>  <m_score__min__rmsd>  (3) 
8.95695706463255

>  <meeko>  (3) 
{"free_energy": -8.59, "intermolecular_energy": -10.98, "internal_energy": -2.15, "cluster_size": 5, "cluster_id": 3, "rank_in_cluster": 2}

>  <energy>  (3) 
-8.54

>  <cluster_rmsd>  (3) 
1.11

>  <cluster>  (3) 
1

$$$$

     RDKit          3D

 67 71  0  0  0  0  0  0  0  0999 V2000
  139.3260   74.5890  222.4090 O   0  0  0  0  0  0  0  0  0  0  0  0
  139.8470   75.4920  221.6670 C   0  0  0  0  0  0  0  0  0  0  0  0
  140.0850   75.1030  220.3220 N   0  0  0  0  0  0  0  0  0  0  0  0
  139.7060   73.7590  219.9500 C   0  0  0  0  0  0  0  0  0  0  0  0
  138.4120   73.7230  219.2270 C   0  0  0  0  0  0  0  0  0  0  0  0
  138.1370   74.4250  218.2320 O   0  0  0  0  0  0  0  0  0  0  0  0
  137.4310   72.7970  219.7400 N   0  0  0  0  0  0  0  0  0  0  0  0
  137.6000   71.3550  219.9340 C   0  0  0  0  0  0  0  0  0  0  0  0
  136.2230   70.8210  219.7060 C   0  0  0  0  0  0  0  0  0  0  0  0
  135.3230   72.0040  219.4000 C   0  0  0  0  0  0  0  0  0  0  0  0
  136.0740   73.1080  220.1410 C   0  0  1  0  0  0  0  0  0  0  0  0
  135.8060   72.9810  221.6070 C   0  0  0  0  0  0  0  0  0  0  0  0
  137.1230   72.9560  222.2630 N   0  0  0  0  0  0  0  0  0  0  0  0
  137.5840   71.8750  223.0290 C   0  0  0  0  0  0  0  0  0  0  0  0
  136.7940   71.0930  223.8450 C   0  0  0  0  0  0  0  0  0  0  0  0
  137.3450   70.0380  224.5800 C   0  0  0  0  0  0  0  0  0  0  0  0
  138.6910   69.7570  224.5060 C   0  0  0  0  0  0  0  0  0  0  0  0
  139.3340   68.6770  225.2410 C   0  0  0  0  0  0  0  0  0  0  0  0
  139.2020   67.4970  224.7760 O   0  0  0  0  0  0  0  0  0  0  0  0
  140.0760   68.9350  226.4280 N   0  0  0  0  0  0  0  0  0  0  0  0
  140.2950   70.2480  227.0370 C   0  0  0  0  0  0  0  0  0  0  0  0
  141.0460   69.9110  228.3380 C   0  0  0  0  0  0  0  0  0  0  0  0
  140.5860   68.4750  228.6300 C   0  0  0  0  0  0  0  0  0  0  0  0
  140.7330   67.8980  227.2170 C   0  0  0  0  0  0  0  0  0  0  0  0
  139.4930   70.5280  223.6960 C   0  0  0  0  0  0  0  0  0  0  0  0
  138.9420   71.5620  222.9790 C   0  0  0  0  0  0  0  0  0  0  0  0
  140.1540   76.8070  222.2010 C   0  0  0  0  0  0  0  0  0  0  0  0
  139.0760   77.5250  222.7420 C   0  0  0  0  0  0  0  0  0  0  0  0
  139.2580   78.7860  223.2890 C   0  0  0  0  0  0  0  0  0  0  0  0
  140.5380   79.2900  223.2730 C   0  0  0  0  0  0  0  0  0  0  0  0
  140.7180   80.5640  223.8120 C   0  0  0  0  0  0  0  0  0  0  0  0
  142.0120   81.0980  223.7910 C   0  0  0  0  0  0  0  0  0  0  0  0
  142.1820   82.3560  224.3230 F   0  0  0  0  0  0  0  0  0  0  0  0
  143.0650   80.3880  223.2570 C   0  0  0  0  0  0  0  0  0  0  0  0
  142.8880   79.1300  222.7250 C   0  0  0  0  0  0  0  0  0  0  0  0
  141.6000   78.5890  222.7430 C   0  0  0  0  0  0  0  0  0  0  0  0
  141.3850   77.3470  222.2110 N   0  0  0  0  0  0  0  0  0  0  0  0
  140.5200   75.7930  219.6560 H   0  0  0  0  0  0  0  0  0  0  0  0
  140.4870   73.3375  219.3001 H   0  0  0  0  0  0  0  0  0  0  0  0
  139.5941   73.1714  220.8732 H   0  0  0  0  0  0  0  0  0  0  0  0
  138.3111   70.9388  219.2052 H   0  0  0  0  0  0  0  0  0  0  0  0
  138.0072   71.0956  220.9224 H   0  0  0  0  0  0  0  0  0  0  0  0
  136.2267   70.1217  218.8569 H   0  0  0  0  0  0  0  0  0  0  0  0
  135.8644   70.2792  220.5936 H   0  0  0  0  0  0  0  0  0  0  0  0
  135.2649   72.2040  218.3199 H   0  0  0  0  0  0  0  0  0  0  0  0
  134.2725   71.8765  219.7003 H   0  0  0  0  0  0  0  0  0  0  0  0
  135.8031   74.1507  219.9186 H   0  0  0  0  0  0  0  0  0  0  0  0
  135.2185   73.8400  221.9633 H   0  0  0  0  0  0  0  0  0  0  0  0
  135.2280   72.0726  221.8322 H   0  0  0  0  0  0  0  0  0  0  0  0
  137.7580   73.7860  222.1570 H   0  0  0  0  0  0  0  0  0  0  0  0
  135.7165   71.3015  223.9189 H   0  0  0  0  0  0  0  0  0  0  0  0
  136.6961   69.4263  225.2240 H   0  0  0  0  0  0  0  0  0  0  0  0
  140.9054   70.8890  226.3839 H   0  0  0  0  0  0  0  0  0  0  0  0
  139.3621   70.8049  227.2091 H   0  0  0  0  0  0  0  0  0  0  0  0
  142.1351   69.9566  228.1907 H   0  0  0  0  0  0  0  0  0  0  0  0
  140.8351   70.6127  229.1585 H   0  0  0  0  0  0  0  0  0  0  0  0
  141.2411   67.9691  229.3546 H   0  0  0  0  0  0  0  0  0  0  0  0
  139.5897   68.3757  229.0855 H   0  0  0  0  0  0  0  0  0  0  0  0
  141.7899   67.7832  226.9346 H   0  0  0  0  0  0  0  0  0  0  0  0
  140.3081   66.8914  227.0898 H   0  0  0  0  0  0  0  0  0  0  0  0
  140.5702   70.3173  223.6231 H   0  0  0  0  0  0  0  0  0  0  0  0
  139.5994   72.1684  222.3387 H   0  0  0  0  0  0  0  0  0  0  0  0
  138.0701   77.0799  222.7318 H   0  0  0  0  0  0  0  0  0  0  0  0
  138.4193   79.3560  223.7152 H   0  0  0  0  0  0  0  0  0  0  0  0
  139.8748   81.1279  224.2376 H   0  0  0  0  0  0  0  0  0  0  0  0
  144.0697   80.8359  223.2555 H   0  0  0  0  0  0  0  0  0  0  0  0
  143.7334   78.5693  222.2997 H   0  0  0  0  0  0  0  0  0  0  0  0
  1  2  2  0
  2  3  1  0
  3  4  1  0
  4  5  1  0
  5  6  2  0
  5  7  1  0
  7  8  1  0
  8  9  1  0
  9 10  1  0
 10 11  1  0
 11 12  1  0
 12 13  1  0
 13 14  1  0
 14 15  2  0
 15 16  1  0
 16 17  2  0
 17 18  1  0
 18 19  2  0
 18 20  1  0
 20 21  1  0
 21 22  1  0
 22 23  1  0
 23 24  1  0
 17 25  1  0
 25 26  2  0
  2 27  1  0
 27 28  2  0
 28 29  1  0
 29 30  2  0
 30 31  1  0
 31 32  2  0
 32 33  1  0
 32 34  1  0
 34 35  2  0
 35 36  1  0
 36 37  2  0
 11  7  1  0
 26 14  1  0
 37 27  1  0
 24 20  1  0
 36 30  1  0
  3 38  1  0
  4 39  1  0
  4 40  1  0
  8 41  1  0
  8 42  1  0
  9 43  1  0
  9 44  1  0
 10 45  1  0
 10 46  1  0
 11 47  1  6
 12 48  1  0
 12 49  1  0
 13 50  1  0
 15 51  1  0
 16 52  1  0
 21 53  1  0
 21 54  1  0
 22 55  1  0
 22 56  1  0
 23 57  1  0
 23 58  1  0
 24 59  1  0
 24 60  1  0
 25 61  1  0
 26 62  1  0
 28 63  1  0
 29 64  1  0
 31 65  1  0
 34 66  1  0
 35 67  1  0
M  END
>  <smiles>  (4) 
O=C(NCC(=O)N1CCC[C@H]1CNc1ccc(C(=O)N2CCCC2)cc1)c1ccc2cc(F)ccc2n1

>  <score_type>  (4) 
oracle

>  <origin>  (4) 
autodockgpu

>  <m_score__min__energy>  (4) 
-8.9399999999999995

>  <m_primary>  (4) 
energy

>  <rmsd>  (4) 
4.581767198719724

>  <m_score__min__rmsd>  (4) 
4.581767198719724

>  <meeko>  (4) 
{"free_energy": -7.7, "intermolecular_energy": -10.09, "internal_energy": -2.86, "cluster_size": 5, "cluster_id": 6, "rank_in_cluster": 4}

>  <energy>  (4) 
-8.2

>  <cluster_rmsd>  (4) 
1.63

>  <cluster>  (4) 
1

$$$$

     RDKit          3D

 67 71  0  0  0  0  0  0  0  0999 V2000
  136.3310   75.5570  221.3240 O   0  0  0  0  0  0  0  0  0  0  0  0
  136.7330   75.4290  222.5320 C   0  0  0  0  0  0  0  0  0  0  0  0
  138.1250   75.6310  222.7290 N   0  0  0  0  0  0  0  0  0  0  0  0
  138.9110   75.9640  221.5630 C   0  0  0  0  0  0  0  0  0  0  0  0
  140.0370   75.0210  221.3590 C   0  0  0  0  0  0  0  0  0  0  0  0
  141.1210   75.0690  221.9750 O   0  0  0  0  0  0  0  0  0  0  0  0
  139.8220   73.9900  220.3720 N   0  0  0  0  0  0  0  0  0  0  0  0
  140.7510   72.9190  220.0040 C   0  0  0  0  0  0  0  0  0  0  0  0
  140.4440   72.6880  218.5600 C   0  0  0  0  0  0  0  0  0  0  0  0
  139.3300   73.6450  218.1760 C   0  0  0  0  0  0  0  0  0  0  0  0
  138.6530   73.8250  219.5330 C   0  0  1  0  0  0  0  0  0  0  0  0
  137.8290   72.6130  219.8310 C   0  0  0  0  0  0  0  0  0  0  0  0
  137.4940   72.6890  221.2610 N   0  0  0  0  0  0  0  0  0  0  0  0
  137.8600   71.7070  222.1940 C   0  0  0  0  0  0  0  0  0  0  0  0
  136.9890   70.8200  222.7890 C   0  0  0  0  0  0  0  0  0  0  0  0
  137.4460   69.8770  223.7160 C   0  0  0  0  0  0  0  0  0  0  0  0
  138.7790   69.8150  224.0570 C   0  0  0  0  0  0  0  0  0  0  0  0
  139.3270   68.8630  225.0130 C   0  0  0  0  0  0  0  0  0  0  0  0
  139.1490   67.6240  224.7680 O   0  0  0  0  0  0  0  0  0  0  0  0
  140.0290   69.3040  226.1700 N   0  0  0  0  0  0  0  0  0  0  0  0
  140.2950   70.6960  226.5360 C   0  0  0  0  0  0  0  0  0  0  0  0
  140.9670   70.5740  227.9160 C   0  0  0  0  0  0  0  0  0  0  0  0
  140.4140   69.2420  228.4430 C   0  0  0  0  0  0  0  0  0  0  0  0
  140.5900   68.4030  227.1720 C   0  0  0  0  0  0  0  0  0  0  0  0
  139.6620   70.6940  223.4720 C   0  0  0  0  0  0  0  0  0  0  0  0
  139.2030   71.6150  222.5630 C   0  0  0  0  0  0  0  0  0  0  0  0
  135.7980   75.1030  223.5960 C   0  0  0  0  0  0  0  0  0  0  0  0
  135.5140   73.7400  223.7750 C   0  0  0  0  0  0  0  0  0  0  0  0
  134.6460   73.3140  224.7680 C   0  0  0  0  0  0  0  0  0  0  0  0
  134.0820   74.2900  225.5590 C   0  0  0  0  0  0  0  0  0  0  0  0
  133.1970   73.8610  226.5490 C   0  0  0  0  0  0  0  0  0  0  0  0
  132.6040   74.8410  227.3530 C   0  0  0  0  0  0  0  0  0  0  0  0
  131.7320   74.4120  228.3270 F   0  0  0  0  0  0  0  0  0  0  0  0
  132.8870   76.1770  227.1700 C   0  0  0  0  0  0  0  0  0  0  0  0
  133.7600   76.6000  226.1930 C   0  0  0  0  0  0  0  0  0  0  0  0
  134.3580   75.6290  225.3860 C   0  0  0  0  0  0  0  0  0  0  0  0
  135.2200   76.0140  224.3960 N   0  0  0  0  0  0  0  0  0  0  0  0
  138.5270   75.5330  223.6970 H   0  0  0  0  0  0  0  0  0  0  0  0
  138.2599   75.9354  220.6768 H   0  0  0  0  0  0  0  0  0  0  0  0
  139.3344   76.9676  221.7163 H   0  0  0  0  0  0  0  0  0  0  0  0
  141.7951   73.2374  220.1400 H   0  0  0  0  0  0  0  0  0  0  0  0
  140.6368   72.0155  220.6210 H   0  0  0  0  0  0  0  0  0  0  0  0
  141.3372   72.8856  217.9491 H   0  0  0  0  0  0  0  0  0  0  0  0
  140.1376   71.6454  218.3892 H   0  0  0  0  0  0  0  0  0  0  0  0
  139.7246   74.5955  217.7877 H   0  0  0  0  0  0  0  0  0  0  0  0
  138.6689   73.2870  217.3730 H   0  0  0  0  0  0  0  0  0  0  0  0
  137.9400   74.6551  219.6452 H   0  0  0  0  0  0  0  0  0  0  0  0
  136.9120   72.6160  219.2234 H   0  0  0  0  0  0  0  0  0  0  0  0
  138.3751   71.6878  219.5948 H   0  0  0  0  0  0  0  0  0  0  0  0
  136.9520   73.5170  221.6120 H   0  0  0  0  0  0  0  0  0  0  0  0
  135.9201   70.8539  222.5316 H   0  0  0  0  0  0  0  0  0  0  0  0
  136.7332   69.1777  224.1774 H   0  0  0  0  0  0  0  0  0  0  0  0
  140.9693   71.1730  225.8096 H   0  0  0  0  0  0  0  0  0  0  0  0
  139.3887   71.3191  226.5508 H   0  0  0  0  0  0  0  0  0  0  0  0
  142.0625   70.5396  227.8223 H   0  0  0  0  0  0  0  0  0  0  0  0
  140.7597   71.4263  228.5798 H   0  0  0  0  0  0  0  0  0  0  0  0
  141.0066   68.8507  229.2831 H   0  0  0  0  0  0  0  0  0  0  0  0
  139.3943   69.2777  228.8540 H   0  0  0  0  0  0  0  0  0  0  0  0
  141.6500   68.1863  226.9735 H   0  0  0  0  0  0  0  0  0  0  0  0
  140.1142   67.4120  227.2108 H   0  0  0  0  0  0  0  0  0  0  0  0
  140.7304   70.6588  223.7315 H   0  0  0  0  0  0  0  0  0  0  0  0
  139.9238   72.3093  222.1065 H   0  0  0  0  0  0  0  0  0  0  0  0
  135.9883   72.9977  223.1162 H   0  0  0  0  0  0  0  0  0  0  0  0
  134.4187   72.2481  224.9170 H   0  0  0  0  0  0  0  0  0  0  0  0
  132.9740   72.7934  226.6919 H   0  0  0  0  0  0  0  0  0  0  0  0
  132.4045   76.9225  227.8192 H   0  0  0  0  0  0  0  0  0  0  0  0
  133.9797   77.6686  226.0523 H   0  0  0  0  0  0  0  0  0  0  0  0
  1  2  2  0
  2  3  1  0
  3  4  1  0
  4  5  1  0
  5  6  2  0
  5  7  1  0
  7  8  1  0
  8  9  1  0
  9 10  1  0
 10 11  1  0
 11 12  1  0
 12 13  1  0
 13 14  1  0
 14 15  2  0
 15 16  1  0
 16 17  2  0
 17 18  1  0
 18 19  2  0
 18 20  1  0
 20 21  1  0
 21 22  1  0
 22 23  1  0
 23 24  1  0
 17 25  1  0
 25 26  2  0
  2 27  1  0
 27 28  2  0
 28 29  1  0
 29 30  2  0
 30 31  1  0
 31 32  2  0
 32 33  1  0
 32 34  1  0
 34 35  2  0
 35 36  1  0
 36 37  2  0
 11  7  1  0
 26 14  1  0
 37 27  1  0
 24 20  1  0
 36 30  1  0
  3 38  1  0
  4 39  1  0
  4 40  1  0
  8 41  1  0
  8 42  1  0
  9 43  1  0
  9 44  1  0
 10 45  1  0
 10 46  1  0
 11 47  1  6
 12 48  1  0
 12 49  1  0
 13 50  1  0
 15 51  1  0
 16 52  1  0
 21 53  1  0
 21 54  1  0
 22 55  1  0
 22 56  1  0
 23 57  1  0
 23 58  1  0
 24 59  1  0
 24 60  1  0
 25 61  1  0
 26 62  1  0
 28 63  1  0
 29 64  1  0
 31 65  1  0
 34 66  1  0
 35 67  1  0
M  END
>  <smiles>  (5) 
O=C(NCC(=O)N1CCC[C@H]1CNc1ccc(C(=O)N2CCCC2)cc1)c1ccc2cc(F)ccc2n1

>  <score_type>  (5) 
oracle

>  <origin>  (5) 
autodockgpu

>  <m_score__min__energy>  (5) 
-8.9399999999999995

>  <m_primary>  (5) 
energy

>  <rmsd>  (5) 
6.140987056104319

>  <m_score__min__rmsd>  (5) 
6.140987056104319

>  <meeko>  (5) 
{"free_energy": -7.38, "intermolecular_energy": -9.76, "internal_energy": -3.15, "cluster_size": 2, "cluster_id": 16, "rank_in_cluster": 2}

>  <energy>  (5) 
-8.9

>  <cluster_rmsd>  (5) 
0.0

>  <cluster>  (5) 
2

$$$$

     RDKit          3D

 67 71  0  0  0  0  0  0  0  0999 V2000
  141.0610   71.7970  222.1380 O   0  0  0  0  0  0  0  0  0  0  0  0
  140.1630   71.8150  223.0490 C   0  0  0  0  0  0  0  0  0  0  0  0
  138.9840   72.5360  222.7190 N   0  0  0  0  0  0  0  0  0  0  0  0
  138.9310   73.1430  221.4090 C   0  0  0  0  0  0  0  0  0  0  0  0
  139.7490   74.3770  221.3310 C   0  0  0  0  0  0  0  0  0  0  0  0
  139.4860   75.4410  221.9280 O   0  0  0  0  0  0  0  0  0  0  0  0
  140.9250   74.3000  220.4980 N   0  0  0  0  0  0  0  0  0  0  0  0
  141.1890   73.3230  219.4390 C   0  0  0  0  0  0  0  0  0  0  0  0
  142.6760   73.1800  219.4760 C   0  0  0  0  0  0  0  0  0  0  0  0
  143.1930   74.1050  220.5620 C   0  0  0  0  0  0  0  0  0  0  0  0
  142.0890   75.1600  220.5610 C   0  0  1  0  0  0  0  0  0  0  0  0
  142.2730   76.0580  219.3790 C   0  0  0  0  0  0  0  0  0  0  0  0
  142.5720   77.3920  219.9230 N   0  0  0  0  0  0  0  0  0  0  0  0
  141.6580   78.1380  220.6820 C   0  0  0  0  0  0  0  0  0  0  0  0
  140.9740   79.2460  220.2280 C   0  0  0  0  0  0  0  0  0  0  0  0
  140.0860   79.9330  221.0620 C   0  0  0  0  0  0  0  0  0  0  0  0
  139.8770   79.5200  222.3590 C   0  0  0  0  0  0  0  0  0  0  0  0
  138.9700   80.1840  223.2840 C   0  0  0  0  0  0  0  0  0  0  0  0
  139.4940   80.8880  224.2100 O   0  0  0  0  0  0  0  0  0  0  0  0
  137.5580   80.0490  223.1550 N   0  0  0  0  0  0  0  0  0  0  0  0
  136.8590   79.2770  222.1280 C   0  0  0  0  0  0  0  0  0  0  0  0
  135.3820   79.3900  222.5490 C   0  0  0  0  0  0  0  0  0  0  0  0
  135.4810   79.6270  224.0620 C   0  0  0  0  0  0  0  0  0  0  0  0
  136.5970   80.6770  224.0560 C   0  0  0  0  0  0  0  0  0  0  0  0
  140.5520   78.4160  222.8290 C   0  0  0  0  0  0  0  0  0  0  0  0
  141.4210   77.7490  222.0010 C   0  0  0  0  0  0  0  0  0  0  0  0
  140.3750   71.1340  224.3150 C   0  0  0  0  0  0  0  0  0  0  0  0
  140.9440   71.9000  225.3440 C   0  0  0  0  0  0  0  0  0  0  0  0
  141.1800   71.3550  226.5960 C   0  0  0  0  0  0  0  0  0  0  0  0
  140.8310   70.0350  226.7730 C   0  0  0  0  0  0  0  0  0  0  0  0
  141.0810   69.4830  228.0300 C   0  0  0  0  0  0  0  0  0  0  0  0
  140.7440   68.1380  228.2230 C   0  0  0  0  0  0  0  0  0  0  0  0
  140.9940   67.5990  229.4640 F   0  0  0  0  0  0  0  0  0  0  0  0
  140.1880   67.3920  227.2080 C   0  0  0  0  0  0  0  0  0  0  0  0
  139.9400   67.9370  225.9670 C   0  0  0  0  0  0  0  0  0  0  0  0
  140.2720   69.2790  225.7650 C   0  0  0  0  0  0  0  0  0  0  0  0
  140.0530   69.8500  224.5410 N   0  0  0  0  0  0  0  0  0  0  0  0
  138.2070   72.6000  223.4260 H   0  0  0  0  0  0  0  0  0  0  0  0
  139.3066   72.4214  220.6686 H   0  0  0  0  0  0  0  0  0  0  0  0
  137.8853   73.4171  221.2055 H   0  0  0  0  0  0  0  0  0  0  0  0
  140.6942   72.3642  219.6534 H   0  0  0  0  0  0  0  0  0  0  0  0
  140.8082   73.6363  218.4557 H   0  0  0  0  0  0  0  0  0  0  0  0
  142.9482   72.1396  219.7071 H   0  0  0  0  0  0  0  0  0  0  0  0
  143.1159   73.4400  218.5019 H   0  0  0  0  0  0  0  0  0  0  0  0
  143.2673   73.5931  221.5328 H   0  0  0  0  0  0  0  0  0  0  0  0
  144.2071   74.4961  220.3928 H   0  0  0  0  0  0  0  0  0  0  0  0
  142.0457   75.8576  221.4104 H   0  0  0  0  0  0  0  0  0  0  0  0
  143.1078   75.7036  218.7565 H   0  0  0  0  0  0  0  0  0  0  0  0
  141.3753   76.0750  218.7435 H   0  0  0  0  0  0  0  0  0  0  0  0
  143.5140   77.8160  219.7380 H   0  0  0  0  0  0  0  0  0  0  0  0
  141.1289   79.5942  219.1961 H   0  0  0  0  0  0  0  0  0  0  0  0
  139.5488   80.8127  220.6778 H   0  0  0  0  0  0  0  0  0  0  0  0
  137.0193   79.7115  221.1302 H   0  0  0  0  0  0  0  0  0  0  0  0
  137.2093   78.2367  222.0565 H   0  0  0  0  0  0  0  0  0  0  0  0
  134.8896   80.2354  222.0462 H   0  0  0  0  0  0  0  0  0  0  0  0
  134.7830   78.5064  222.2833 H   0  0  0  0  0  0  0  0  0  0  0  0
  134.5437   80.0210  224.4818 H   0  0  0  0  0  0  0  0  0  0  0  0
  135.6704   78.7327  224.6738 H   0  0  0  0  0  0  0  0  0  0  0  0
  136.2434   81.6414  223.6625 H   0  0  0  0  0  0  0  0  0  0  0  0
  136.9977   80.9216  225.0508 H   0  0  0  0  0  0  0  0  0  0  0  0
  140.3961   78.0703  223.8616 H   0  0  0  0  0  0  0  0  0  0  0  0
  141.9532   76.8703  222.3944 H   0  0  0  0  0  0  0  0  0  0  0  0
  141.2072   72.9509  225.1535 H   0  0  0  0  0  0  0  0  0  0  0  0
  141.6245   71.9481  227.4088 H   0  0  0  0  0  0  0  0  0  0  0  0
  141.5259   70.0818  228.8384 H   0  0  0  0  0  0  0  0  0  0  0  0
  139.9361   66.3371  227.3920 H   0  0  0  0  0  0  0  0  0  0  0  0
  139.4949   67.3348  225.1612 H   0  0  0  0  0  0  0  0  0  0  0  0
  1  2  2  0
  2  3  1  0
  3  4  1  0
  4  5  1  0
  5  6  2  0
  5  7  1  0
  7  8  1  0
  8  9  1  0
  9 10  1  0
 10 11  1  0
 11 12  1  0
 12 13  1  0
 13 14  1  0
 14 15  2  0
 15 16  1  0
 16 17  2  0
 17 18  1  0
 18 19  2  0
 18 20  1  0
 20 21  1  0
 21 22  1  0
 22 23  1  0
 23 24  1  0
 17 25  1  0
 25 26  2  0
  2 27  1  0
 27 28  2  0
 28 29  1  0
 29 30  2  0
 30 31  1  0
 31 32  2  0
 32 33  1  0
 32 34  1  0
 34 35  2  0
 35 36  1  0
 36 37  2  0
 11  7  1  0
 26 14  1  0
 37 27  1  0
 24 20  1  0
 36 30  1  0
  3 38  1  0
  4 39  1  0
  4 40  1  0
  8 41  1  0
  8 42  1  0
  9 43  1  0
  9 44  1  0
 10 45  1  0
 10 46  1  0
 11 47  1  1
 12 48  1  0
 12 49  1  0
 13 50  1  0
 15 51  1  0
 16 52  1  0
 21 53  1  0
 21 54  1  0
 22 55  1  0
 22 56  1  0
 23 57  1  0
 23 58  1  0
 24 59  1  0
 24 60  1  0
 25 61  1  0
 26 62  1  0
 28 63  1  0
 29 64  1  0
 31 65  1  0
 34 66  1  0
 35 67  1  0
M  END
>  <smiles>  (6) 
O=C(NCC(=O)N1CCC[C@H]1CNc1ccc(C(=O)N2CCCC2)cc1)c1ccc2cc(F)ccc2n1

>  <score_type>  (6) 
oracle

>  <origin>  (6) 
autodockgpu

>  <m_score__min__energy>  (6) 
-8.9399999999999995

>  <m_primary>  (6) 
energy

>  <rmsd>  (6) 
8.793592969229593

>  <m_score__min__rmsd>  (6) 
8.793592969229593

>  <meeko>  (6) 
{"free_energy": -8.51, "intermolecular_energy": -10.89, "internal_energy": -1.99, "cluster_size": 5, "cluster_id": 3, "rank_in_cluster": 3}

>  <energy>  (6) 
-8.46

>  <cluster_rmsd>  (6) 
1.22

>  <cluster>  (6) 
2

$$$$

     RDKit          3D

 67 71  0  0  0  0  0  0  0  0999 V2000
  138.6620   72.3600  222.2160 O   0  0  0  0  0  0  0  0  0  0  0  0
  139.7920   72.0020  222.6990 C   0  0  0  0  0  0  0  0  0  0  0  0
  140.9280   72.4990  222.0060 N   0  0  0  0  0  0  0  0  0  0  0  0
  140.6810   73.3500  220.8640 C   0  0  0  0  0  0  0  0  0  0  0  0
  140.4500   74.7610  221.2580 C   0  0  0  0  0  0  0  0  0  0  0  0
  139.9210   75.1200  222.3300 O   0  0  0  0  0  0  0  0  0  0  0  0
  140.8830   75.7570  220.3080 N   0  0  0  0  0  0  0  0  0  0  0  0
  140.1770   76.1830  219.0980 C   0  0  0  0  0  0  0  0  0  0  0  0
  141.2900   76.5500  218.1710 C   0  0  0  0  0  0  0  0  0  0  0  0
  142.5930   76.3230  218.9150 C   0  0  0  0  0  0  0  0  0  0  0  0
  142.1160   76.5170  220.3520 C   0  0  1  0  0  0  0  0  0  0  0  0
  141.9460   77.9790  220.6170 C   0  0  0  0  0  0  0  0  0  0  0  0
  141.4210   78.0880  221.9860 N   0  0  0  0  0  0  0  0  0  0  0  0
  140.3950   78.9730  222.3520 C   0  0  0  0  0  0  0  0  0  0  0  0
  139.1060   78.5990  222.6670 C   0  0  0  0  0  0  0  0  0  0  0  0
  138.1450   79.5550  223.0130 C   0  0  0  0  0  0  0  0  0  0  0  0
  138.4660   80.8940  223.0460 C   0  0  0  0  0  0  0  0  0  0  0  0
  137.5210   81.9450  223.3960 C   0  0  0  0  0  0  0  0  0  0  0  0
  137.1960   82.7670  222.4770 O   0  0  0  0  0  0  0  0  0  0  0  0
  136.9860   82.0440  224.7120 N   0  0  0  0  0  0  0  0  0  0  0  0
  137.2850   81.1500  225.8320 C   0  0  0  0  0  0  0  0  0  0  0  0
  136.5350   81.8000  227.0090 C   0  0  0  0  0  0  0  0  0  0  0  0
  136.4680   83.2760  226.5920 C   0  0  0  0  0  0  0  0  0  0  0  0
  136.0470   83.0790  225.1310 C   0  0  0  0  0  0  0  0  0  0  0  0
  139.7480   81.2840  222.7340 C   0  0  0  0  0  0  0  0  0  0  0  0
  140.6840   80.3370  222.3950 C   0  0  0  0  0  0  0  0  0  0  0  0
  139.8620   71.1480  223.8720 C   0  0  0  0  0  0  0  0  0  0  0  0
  139.2930   69.8710  223.7450 C   0  0  0  0  0  0  0  0  0  0  0  0
  139.3140   68.9700  224.7970 C   0  0  0  0  0  0  0  0  0  0  0  0
  139.9140   69.3910  225.9630 C   0  0  0  0  0  0  0  0  0  0  0  0
  139.9220   68.4890  227.0260 C   0  0  0  0  0  0  0  0  0  0  0  0
  140.5170   68.9060  228.2230 C   0  0  0  0  0  0  0  0  0  0  0  0
  140.5210   68.0110  229.2680 F   0  0  0  0  0  0  0  0  0  0  0  0
  141.0710   70.1610  228.3410 C   0  0  0  0  0  0  0  0  0  0  0  0
  141.0630   71.0520  227.2910 C   0  0  0  0  0  0  0  0  0  0  0  0
  140.4730   70.6440  226.0920 C   0  0  0  0  0  0  0  0  0  0  0  0
  140.4350   71.5080  225.0320 N   0  0  0  0  0  0  0  0  0  0  0  0
  141.8900   72.2370  222.3430 H   0  0  0  0  0  0  0  0  0  0  0  0
  141.5529   73.3070  220.1947 H   0  0  0  0  0  0  0  0  0  0  0  0
  139.7728   72.9862  220.3611 H   0  0  0  0  0  0  0  0  0  0  0  0
  139.5718   75.3630  218.6840 H   0  0  0  0  0  0  0  0  0  0  0  0
  139.4711   77.0077  219.2757 H   0  0  0  0  0  0  0  0  0  0  0  0
  141.2550   75.9170  217.2721 H   0  0  0  0  0  0  0  0  0  0  0  0
  141.2014   77.5995  217.8537 H   0  0  0  0  0  0  0  0  0  0  0  0
  142.9865   75.3093  218.7490 H   0  0  0  0  0  0  0  0  0  0  0  0
  143.4211   76.9795  218.6094 H   0  0  0  0  0  0  0  0  0  0  0  0
  142.7812   76.1844  221.1625 H   0  0  0  0  0  0  0  0  0  0  0  0
  142.9135   78.4963  220.5370 H   0  0  0  0  0  0  0  0  0  0  0  0
  141.2652   78.4426  219.8879 H   0  0  0  0  0  0  0  0  0  0  0  0
  141.8270   77.4760  222.7360 H   0  0  0  0  0  0  0  0  0  0  0  0
  138.8294   77.5345  222.6460 H   0  0  0  0  0  0  0  0  0  0  0  0
  137.1226   79.2340  223.2612 H   0  0  0  0  0  0  0  0  0  0  0  0
  136.9097   80.1345  225.6374 H   0  0  0  0  0  0  0  0  0  0  0  0
  138.3632   81.0355  226.0173 H   0  0  0  0  0  0  0  0  0  0  0  0
  135.5274   81.3734  227.1215 H   0  0  0  0  0  0  0  0  0  0  0  0
  137.0265   81.6425  227.9804 H   0  0  0  0  0  0  0  0  0  0  0  0
  135.7167   83.8360  227.1681 H   0  0  0  0  0  0  0  0  0  0  0  0
  137.3867   83.8598  226.7504 H   0  0  0  0  0  0  0  0  0  0  0  0
  135.0049   82.7355  225.0530 H   0  0  0  0  0  0  0  0  0  0  0  0
  136.0769   83.9942  224.5215 H   0  0  0  0  0  0  0  0  0  0  0  0
  140.0223   82.3490  222.7558 H   0  0  0  0  0  0  0  0  0  0  0  0
  141.7033   80.6681  222.1473 H   0  0  0  0  0  0  0  0  0  0  0  0
  138.8225   69.5809  222.7940 H   0  0  0  0  0  0  0  0  0  0  0  0
  138.8727   67.9666  224.7055 H   0  0  0  0  0  0  0  0  0  0  0  0
  139.4777   67.4875  226.9281 H   0  0  0  0  0  0  0  0  0  0  0  0
  141.5302   70.4585  229.2953 H   0  0  0  0  0  0  0  0  0  0  0  0
  141.5070   72.0532  227.3930 H   0  0  0  0  0  0  0  0  0  0  0  0
  1  2  2  0
  2  3  1  0
  3  4  1  0
  4  5  1  0
  5  6  2  0
  5  7  1  0
  7  8  1  0
  8  9  1  0
  9 10  1  0
 10 11  1  0
 11 12  1  0
 12 13  1  0
 13 14  1  0
 14 15  2  0
 15 16  1  0
 16 17  2  0
 17 18  1  0
 18 19  2  0
 18 20  1  0
 20 21  1  0
 21 22  1  0
 22 23  1  0
 23 24  1  0
 17 25  1  0
 25 26  2  0
  2 27  1  0
 27 28  2  0
 28 29  1  0
 29 30  2  0
 30 31  1  0
 31 32  2  0
 32 33  1  0
 32 34  1  0
 34 35  2  0
 35 36  1  0
 36 37  2  0
 11  7  1  0
 26 14  1  0
 37 27  1  0
 24 20  1  0
 36 30  1  0
  3 38  1  0
  4 39  1  0
  4 40  1  0
  8 41  1  0
  8 42  1  0
  9 43  1  0
  9 44  1  0
 10 45  1  0
 10 46  1  0
 11 47  1  1
 12 48  1  0
 12 49  1  0
 13 50  1  0
 15 51  1  0
 16 52  1  0
 21 53  1  0
 21 54  1  0
 22 55  1  0
 22 56  1  0
 23 57  1  0
 23 58  1  0
 24 59  1  0
 24 60  1  0
 25 61  1  0
 26 62  1  0
 28 63  1  0
 29 64  1  0
 31 65  1  0
 34 66  1  0
 35 67  1  0
M  END
>  <smiles>  (7) 
O=C(NCC(=O)N1CCC[C@H]1CNc1ccc(C(=O)N2CCCC2)cc1)c1ccc2cc(F)ccc2n1

>  <score_type>  (7) 
oracle

>  <origin>  (7) 
autodockgpu

>  <m_score__min__energy>  (7) 
-8.9399999999999995

>  <m_primary>  (7) 
energy

>  <rmsd>  (7) 
9.155410956767122

>  <m_score__min__rmsd>  (7) 
9.155410956767122

>  <meeko>  (7) 
{"free_energy": -8.76, "intermolecular_energy": -11.15, "internal_energy": -1.76, "cluster_size": 5, "cluster_id": 3, "rank_in_cluster": 1}

>  <energy>  (7) 
-7.38

>  <cluster_rmsd>  (7) 
1.67

>  <cluster>  (7) 
2

$$$$

     RDKit          3D

 67 71  0  0  0  0  0  0  0  0999 V2000
  139.9650   74.8050  222.1140 O   0  0  0  0  0  0  0  0  0  0  0  0
  140.6240   75.8860  221.9310 C   0  0  0  0  0  0  0  0  0  0  0  0
  141.8200   75.7430  221.1780 N   0  0  0  0  0  0  0  0  0  0  0  0
  142.1410   74.4170  220.7020 C   0  0  0  0  0  0  0  0  0  0  0  0
  141.5530   74.1450  219.3680 C   0  0  0  0  0  0  0  0  0  0  0  0
  141.6310   74.9140  218.3890 O   0  0  0  0  0  0  0  0  0  0  0  0
  140.8510   72.8900  219.2350 N   0  0  0  0  0  0  0  0  0  0  0  0
  141.3440   71.5630  219.6100 C   0  0  0  0  0  0  0  0  0  0  0  0
  140.6760   70.6640  218.6220 C   0  0  0  0  0  0  0  0  0  0  0  0
  139.8130   71.5360  217.7280 C   0  0  0  0  0  0  0  0  0  0  0  0
  139.5270   72.6940  218.6810 C   0  0  1  0  0  0  0  0  0  0  0  0
  138.4880   72.2680  219.6680 C   0  0  0  0  0  0  0  0  0  0  0  0
  138.9860   72.6800  220.9890 N   0  0  0  0  0  0  0  0  0  0  0  0
  139.2160   71.7830  222.0430 C   0  0  0  0  0  0  0  0  0  0  0  0
  140.2640   71.8650  222.9350 C   0  0  0  0  0  0  0  0  0  0  0  0
  140.4170   70.9170  223.9520 C   0  0  0  0  0  0  0  0  0  0  0  0
  139.5250   69.8770  224.0840 C   0  0  0  0  0  0  0  0  0  0  0  0
  139.6210   68.8530  225.1150 C   0  0  0  0  0  0  0  0  0  0  0  0
  139.1920   67.6890  224.8230 O   0  0  0  0  0  0  0  0  0  0  0  0
  140.1720   69.1480  226.3950 N   0  0  0  0  0  0  0  0  0  0  0  0
  140.6990   70.4440  226.8260 C   0  0  0  0  0  0  0  0  0  0  0  0
  141.0370   70.2080  228.3100 C   0  0  0  0  0  0  0  0  0  0  0  0
  140.0770   69.0740  228.6980 C   0  0  0  0  0  0  0  0  0  0  0  0
  140.2840   68.1730  227.4750 C   0  0  0  0  0  0  0  0  0  0  0  0
  138.4740   69.7790  223.2010 C   0  0  0  0  0  0  0  0  0  0  0  0
  138.3320   70.7160  222.2060 C   0  0  0  0  0  0  0  0  0  0  0  0
  140.1470   77.1480  222.4710 C   0  0  0  0  0  0  0  0  0  0  0  0
  141.1290   78.0300  222.9470 C   0  0  0  0  0  0  0  0  0  0  0  0
  140.7880   79.2660  223.4730 C   0  0  0  0  0  0  0  0  0  0  0  0
  139.4470   79.5770  223.5050 C   0  0  0  0  0  0  0  0  0  0  0  0
  139.1030   80.8160  224.0470 C   0  0  0  0  0  0  0  0  0  0  0  0
  137.7430   81.1430  224.0980 C   0  0  0  0  0  0  0  0  0  0  0  0
  137.4100   82.3660  224.6350 F   0  0  0  0  0  0  0  0  0  0  0  0
  136.7840   80.2710  223.6310 C   0  0  0  0  0  0  0  0  0  0  0  0
  137.1240   79.0490  223.0950 C   0  0  0  0  0  0  0  0  0  0  0  0
  138.4790   78.7140  223.0390 C   0  0  0  0  0  0  0  0  0  0  0  0
  138.8520   77.5020  222.5250 N   0  0  0  0  0  0  0  0  0  0  0  0
  142.4180   76.5910  220.9970 H   0  0  0  0  0  0  0  0  0  0  0  0
  143.2346   74.3198  220.6340 H   0  0  0  0  0  0  0  0  0  0  0  0
  141.7189   73.6910  221.4124 H   0  0  0  0  0  0  0  0  0  0  0  0
  142.4387   71.5075  219.5178 H   0  0  0  0  0  0  0  0  0  0  0  0
  141.1236   71.2983  220.6547 H   0  0  0  0  0  0  0  0  0  0  0  0
  141.4321   70.1395  218.0193 H   0  0  0  0  0  0  0  0  0  0  0  0
  140.0641   69.9079  219.1357 H   0  0  0  0  0  0  0  0  0  0  0  0
  140.3591   71.8694  216.8332 H   0  0  0  0  0  0  0  0  0  0  0  0
  138.9194   71.0401  217.3211 H   0  0  0  0  0  0  0  0  0  0  0  0
  139.1128   73.6195  218.2545 H   0  0  0  0  0  0  0  0  0  0  0  0
  137.5296   72.7620  219.4504 H   0  0  0  0  0  0  0  0  0  0  0  0
  138.3143   71.1826  219.6250 H   0  0  0  0  0  0  0  0  0  0  0  0
  139.1820   73.6970  221.1630 H   0  0  0  0  0  0  0  0  0  0  0  0
  140.9896   72.6869  222.8457 H   0  0  0  0  0  0  0  0  0  0  0  0
  141.2594   71.0035  224.6540 H   0  0  0  0  0  0  0  0  0  0  0  0
  141.5990   70.7142  226.2542 H   0  0  0  0  0  0  0  0  0  0  0  0
  139.9915   71.2718  226.6702 H   0  0  0  0  0  0  0  0  0  0  0  0
  142.0857   69.8999  228.4339 H   0  0  0  0  0  0  0  0  0  0  0  0
  140.9239   71.1081  228.9322 H   0  0  0  0  0  0  0  0  0  0  0  0
  140.3770   68.5787  229.6333 H   0  0  0  0  0  0  0  0  0  0  0  0
  139.0383   69.3751  228.8993 H   0  0  0  0  0  0  0  0  0  0  0  0
  141.2745   67.6947  227.4875 H   0  0  0  0  0  0  0  0  0  0  0  0
  139.5785   67.3320  227.4043 H   0  0  0  0  0  0  0  0  0  0  0  0
  137.7512   68.9547  223.2913 H   0  0  0  0  0  0  0  0  0  0  0  0
  137.4863   70.6209  221.5091 H   0  0  0  0  0  0  0  0  0  0  0  0
  142.1878   77.7353  222.9019 H   0  0  0  0  0  0  0  0  0  0  0  0
  141.5513   79.9644  223.8467 H   0  0  0  0  0  0  0  0  0  0  0  0
  139.8713   81.5093  224.4199 H   0  0  0  0  0  0  0  0  0  0  0  0
  135.7234   80.5573  223.6875 H   0  0  0  0  0  0  0  0  0  0  0  0
  136.3530   78.3584  222.7227 H   0  0  0  0  0  0  0  0  0  0  0  0
  1  2  2  0
  2  3  1  0
  3  4  1  0
  4  5  1  0
  5  6  2  0
  5  7  1  0
  7  8  1  0
  8  9  1  0
  9 10  1  0
 10 11  1  0
 11 12  1  0
 12 13  1  0
 13 14  1  0
 14 15  2  0
 15 16  1  0
 16 17  2  0
 17 18  1  0
 18 19  2  0
 18 20  1  0
 20 21  1  0
 21 22  1  0
 22 23  1  0
 23 24  1  0
 17 25  1  0
 25 26  2  0
  2 27  1  0
 27 28  2  0
 28 29  1  0
 29 30  2  0
 30 31  1  0
 31 32  2  0
 32 33  1  0
 32 34  1  0
 34 35  2  0
 35 36  1  0
 36 37  2  0
 11  7  1  0
 26 14  1  0
 37 27  1  0
 24 20  1  0
 36 30  1  0
  3 38  1  0
  4 39  1  0
  4 40  1  0
  8 41  1  0
  8 42  1  0
  9 43  1  0
  9 44  1  0
 10 45  1  0
 10 46  1  0
 11 47  1  6
 12 48  1  0
 12 49  1  0
 13 50  1  0
 15 51  1  0
 16 52  1  0
 21 53  1  0
 21 54  1  0
 22 55  1  0
 22 56  1  0
 23 57  1  0
 23 58  1  0
 24 59  1  0
 24 60  1  0
 25 61  1  0
 26 62  1  0
 28 63  1  0
 29 64  1  0
 31 65  1  0
 34 66  1  0
 35 67  1  0
M  END
>  <smiles>  (8) 
O=C(NCC(=O)N1CCC[C@H]1CNc1ccc(C(=O)N2CCCC2)cc1)c1ccc2cc(F)ccc2n1

>  <score_type>  (8) 
oracle

>  <origin>  (8) 
autodockgpu

>  <m_score__min__energy>  (8) 
-8.9399999999999995

>  <m_primary>  (8) 
energy

>  <rmsd>  (8) 
3.9584948841249963

>  <m_score__min__rmsd>  (8) 
3.9584948841249963

>  <meeko>  (8) 
{"free_energy": -7.83, "intermolecular_energy": -10.21, "internal_energy": -2.62, "cluster_size": 1, "cluster_id": 15, "rank_in_cluster": 1}

>  <energy>  (8) 
-8.76

>  <cluster_rmsd>  (8) 
0.0

>  <cluster>  (8) 
3

$$$$

     RDKit          3D

 67 71  0  0  0  0  0  0  0  0999 V2000
  140.6940   78.5900  219.3950 O   0  0  0  0  0  0  0  0  0  0  0  0
  141.9060   78.5680  218.9860 C   0  0  0  0  0  0  0  0  0  0  0  0
  142.5010   79.8430  218.7920 N   0  0  0  0  0  0  0  0  0  0  0  0
  141.6860   80.9990  219.0870 C   0  0  0  0  0  0  0  0  0  0  0  0
  141.3650   81.1040  220.5310 C   0  0  0  0  0  0  0  0  0  0  0  0
  142.2040   81.0150  221.4510 O   0  0  0  0  0  0  0  0  0  0  0  0
  139.9760   81.3250  220.8520 N   0  0  0  0  0  0  0  0  0  0  0  0
  138.8130   80.8450  220.1020 C   0  0  0  0  0  0  0  0  0  0  0  0
  137.7940   81.9120  220.3410 C   0  0  0  0  0  0  0  0  0  0  0  0
  138.4340   82.9560  221.2380 C   0  0  0  0  0  0  0  0  0  0  0  0
  139.4560   82.0880  221.9690 C   0  0  1  0  0  0  0  0  0  0  0  0
  138.7540   81.2800  223.0120 C   0  0  0  0  0  0  0  0  0  0  0  0
  139.7510   80.3340  223.5360 N   0  0  0  0  0  0  0  0  0  0  0  0
  139.9250   79.0370  223.0310 C   0  0  0  0  0  0  0  0  0  0  0  0
  141.1400   78.4760  222.6970 C   0  0  0  0  0  0  0  0  0  0  0  0
  141.2150   77.1740  222.1920 C   0  0  0  0  0  0  0  0  0  0  0  0
  140.0750   76.4210  222.0150 C   0  0  0  0  0  0  0  0  0  0  0  0
  140.0750   75.0610  221.4940 C   0  0  0  0  0  0  0  0  0  0  0  0
  140.2430   74.1160  222.3340 O   0  0  0  0  0  0  0  0  0  0  0  0
  139.8960   74.8050  220.1050 N   0  0  0  0  0  0  0  0  0  0  0  0
  139.6860   75.8140  219.0650 C   0  0  0  0  0  0  0  0  0  0  0  0
  139.6800   74.9830  217.7680 C   0  0  0  0  0  0  0  0  0  0  0  0
  140.5230   73.7580  218.1490 C   0  0  0  0  0  0  0  0  0  0  0  0
  139.8990   73.4690  219.5190 C   0  0  0  0  0  0  0  0  0  0  0  0
  138.8540   76.9660  222.3430 C   0  0  0  0  0  0  0  0  0  0  0  0
  138.7920   78.2450  222.8380 C   0  0  0  0  0  0  0  0  0  0  0  0
  142.5880   77.3060  218.7510 C   0  0  0  0  0  0  0  0  0  0  0  0
  142.7660   76.9380  217.4090 C   0  0  0  0  0  0  0  0  0  0  0  0
  143.4140   75.7600  217.0700 C   0  0  0  0  0  0  0  0  0  0  0  0
  143.8660   74.9790  218.1090 C   0  0  0  0  0  0  0  0  0  0  0  0
  144.5060   73.7880  217.7670 C   0  0  0  0  0  0  0  0  0  0  0  0
  144.9610   72.9760  218.8120 C   0  0  0  0  0  0  0  0  0  0  0  0
  145.5900   71.8010  218.4680 F   0  0  0  0  0  0  0  0  0  0  0  0
  144.7810   73.3430  220.1280 C   0  0  0  0  0  0  0  0  0  0  0  0
  144.1500   74.5200  220.4660 C   0  0  0  0  0  0  0  0  0  0  0  0
  143.6930   75.3380  219.4290 C   0  0  0  0  0  0  0  0  0  0  0  0
  143.0500   76.5070  219.7280 N   0  0  0  0  0  0  0  0  0  0  0  0
  143.4940   79.9000  218.4480 H   0  0  0  0  0  0  0  0  0  0  0  0
  142.2298   81.9040  218.7782 H   0  0  0  0  0  0  0  0  0  0  0  0
  140.7391   80.8939  218.5372 H   0  0  0  0  0  0  0  0  0  0  0  0
  139.0444   80.7524  219.0306 H   0  0  0  0  0  0  0  0  0  0  0  0
  138.4765   79.8463  220.4171 H   0  0  0  0  0  0  0  0  0  0  0  0
  137.4960   82.3685  219.3856 H   0  0  0  0  0  0  0  0  0  0  0  0
  136.8942   81.4917  220.8139 H   0  0  0  0  0  0  0  0  0  0  0  0
  138.9183   83.7533  220.6551 H   0  0  0  0  0  0  0  0  0  0  0  0
  137.7339   83.4968  221.8917 H   0  0  0  0  0  0  0  0  0  0  0  0
  140.2522   82.5971  222.5319 H   0  0  0  0  0  0  0  0  0  0  0  0
  138.3871   81.9329  223.8177 H   0  0  0  0  0  0  0  0  0  0  0  0
  137.8828   80.7545  222.5938 H   0  0  0  0  0  0  0  0  0  0  0  0
  140.3700   80.6360  224.3290 H   0  0  0  0  0  0  0  0  0  0  0  0
  142.0624   79.0605  222.8296 H   0  0  0  0  0  0  0  0  0  0  0  0
  142.1949   76.7465  221.9333 H   0  0  0  0  0  0  0  0  0  0  0  0
  138.7263   76.3327  219.2061 H   0  0  0  0  0  0  0  0  0  0  0  0
  140.4511   76.6043  219.0686 H   0  0  0  0  0  0  0  0  0  0  0  0
  138.6571   74.6896  217.4895 H   0  0  0  0  0  0  0  0  0  0  0  0
  140.0720   75.5293  216.8974 H   0  0  0  0  0  0  0  0  0  0  0  0
  140.3832   72.9238  217.4457 H   0  0  0  0  0  0  0  0  0  0  0  0
  141.6127   73.9077  218.1428 H   0  0  0  0  0  0  0  0  0  0  0  0
  138.8797   73.0668  219.4229 H   0  0  0  0  0  0  0  0  0  0  0  0
  140.4333   72.7125  220.1125 H   0  0  0  0  0  0  0  0  0  0  0  0
  137.9329   76.3797  222.2092 H   0  0  0  0  0  0  0  0  0  0  0  0
  137.8073   78.6635  223.0934 H   0  0  0  0  0  0  0  0  0  0  0  0
  142.3853   77.5946  216.6128 H   0  0  0  0  0  0  0  0  0  0  0  0
  143.5598   75.4639  216.0207 H   0  0  0  0  0  0  0  0  0  0  0  0
  144.6478   73.4978  216.7155 H   0  0  0  0  0  0  0  0  0  0  0  0
  145.1493   72.6816  220.9261 H   0  0  0  0  0  0  0  0  0  0  0  0
  144.0102   74.8069  221.5187 H   0  0  0  0  0  0  0  0  0  0  0  0
  1  2  2  0
  2  3  1  0
  3  4  1  0
  4  5  1  0
  5  6  2  0
  5  7  1  0
  7  8  1  0
  8  9  1  0
  9 10  1  0
 10 11  1  0
 11 12  1  0
 12 13  1  0
 13 14  1  0
 14 15  2  0
 15 16  1  0
 16 17  2  0
 17 18  1  0
 18 19  2  0
 18 20  1  0
 20 21  1  0
 21 22  1  0
 22 23  1  0
 23 24  1  0
 17 25  1  0
 25 26  2  0
  2 27  1  0
 27 28  2  0
 28 29  1  0
 29 30  2  0
 30 31  1  0
 31 32  2  0
 32 33  1  0
 32 34  1  0
 34 35  2  0
 35 36  1  0
 36 37  2  0
 11  7  1  0
 26 14  1  0
 37 27  1  0
 24 20  1  0
 36 30  1  0
  3 38  1  0
  4 39  1  0
  4 40  1  0
  8 41  1  0
  8 42  1  0
  9 43  1  0
  9 44  1  0
 10 45  1  0
 10 46  1  0
 11 47  1  1
 12 48  1  0
 12 49  1  0
 13 50  1  0
 15 51  1  0
 16 52  1  0
 21 53  1  0
 21 54  1  0
 22 55  1  0
 22 56  1  0
 23 57  1  0
 23 58  1  0
 24 59  1  0
 24 60  1  0
 25 61  1  0
 26 62  1  0
 28 63  1  0
 29 64  1  0
 31 65  1  0
 34 66  1  0
 35 67  1  0
M  END
>  <smiles>  (9) 
O=C(NCC(=O)N1CCC[C@H]1CNc1ccc(C(=O)N2CCCC2)cc1)c1ccc2cc(F)ccc2n1

>  <score_type>  (9) 
oracle

>  <origin>  (9) 
autodockgpu

>  <m_score__min__energy>  (9) 
-8.9399999999999995

>  <m_primary>  (9) 
energy

>  <rmsd>  (9) 
7.760738639954138

>  <m_score__min__rmsd>  (9) 
7.760738639954138

>  <meeko>  (9) 
{"free_energy": -5.82, "intermolecular_energy": -8.2, "internal_energy": -4.22, "cluster_size": 2, "cluster_id": 23, "rank_in_cluster": 2}

>  <energy>  (9) 
-8.59

>  <cluster_rmsd>  (9) 
1.67

>  <cluster>  (9) 
3

$$$$

     RDKit          3D

 67 71  0  0  0  0  0  0  0  0999 V2000
  141.1430   72.4370  221.8830 O   0  0  0  0  0  0  0  0  0  0  0  0
  140.0990   72.4170  222.6230 C   0  0  0  0  0  0  0  0  0  0  0  0
  139.0590   73.2980  222.2230 N   0  0  0  0  0  0  0  0  0  0  0  0
  139.2910   74.0920  221.0380 C   0  0  0  0  0  0  0  0  0  0  0  0
  140.2470   75.1980  221.2840 C   0  0  0  0  0  0  0  0  0  0  0  0
  140.8810   75.3630  222.3460 O   0  0  0  0  0  0  0  0  0  0  0  0
  140.4280   76.1270  220.1950 N   0  0  0  0  0  0  0  0  0  0  0  0
  140.5990   75.7970  218.7780 C   0  0  0  0  0  0  0  0  0  0  0  0
  141.4730   76.9010  218.2780 C   0  0  0  0  0  0  0  0  0  0  0  0
  141.7510   77.8250  219.4500 C   0  0  0  0  0  0  0  0  0  0  0  0
  140.5010   77.5710  220.2900 C   0  0  1  0  0  0  0  0  0  0  0  0
  139.3470   78.3020  219.6830 C   0  0  0  0  0  0  0  0  0  0  0  0
  138.3490   78.4500  220.7530 N   0  0  0  0  0  0  0  0  0  0  0  0
  137.6810   77.3660  221.3420 C   0  0  0  0  0  0  0  0  0  0  0  0
  136.7740   76.5530  220.6970 C   0  0  0  0  0  0  0  0  0  0  0  0
  136.1510   75.4970  221.3700 C   0  0  0  0  0  0  0  0  0  0  0  0
  136.4280   75.2470  222.6950 C   0  0  0  0  0  0  0  0  0  0  0  0
  135.8190   74.1680  223.4600 C   0  0  0  0  0  0  0  0  0  0  0  0
  136.0450   72.9750  223.0690 O   0  0  0  0  0  0  0  0  0  0  0  0
  135.0060   74.4400  224.5970 N   0  0  0  0  0  0  0  0  0  0  0  0
  134.6940   75.7660  225.1330 C   0  0  0  0  0  0  0  0  0  0  0  0
  133.6970   75.4600  226.2660 C   0  0  0  0  0  0  0  0  0  0  0  0
  133.0720   74.1320  225.8150 C   0  0  0  0  0  0  0  0  0  0  0  0
  134.3570   73.4070  225.3970 C   0  0  0  0  0  0  0  0  0  0  0  0
  137.3310   76.0490  223.3550 C   0  0  0  0  0  0  0  0  0  0  0  0
  137.9380   77.0830  222.6840 C   0  0  0  0  0  0  0  0  0  0  0  0
  140.0250   71.5400  223.7790 C   0  0  0  0  0  0  0  0  0  0  0  0
  139.3150   70.3420  223.6050 C   0  0  0  0  0  0  0  0  0  0  0  0
  139.1910   69.4270  224.6380 C   0  0  0  0  0  0  0  0  0  0  0  0
  139.7930   69.7540  225.8320 C   0  0  0  0  0  0  0  0  0  0  0  0
  139.6550   68.8380  226.8750 C   0  0  0  0  0  0  0  0  0  0  0  0
  140.2500   69.1610  228.1010 C   0  0  0  0  0  0  0  0  0  0  0  0
  140.1100   68.2540  229.1260 F   0  0  0  0  0  0  0  0  0  0  0  0
  140.9430   70.3400  228.2660 C   0  0  0  0  0  0  0  0  0  0  0  0
  141.0780   71.2440  227.2350 C   0  0  0  0  0  0  0  0  0  0  0  0
  140.4890   70.9300  226.0080 C   0  0  0  0  0  0  0  0  0  0  0  0
  140.5930   71.8100  224.9660 N   0  0  0  0  0  0  0  0  0  0  0  0
  138.1740   73.3400  222.7910 H   0  0  0  0  0  0  0  0  0  0  0  0
  139.6971   73.4414  220.2494 H   0  0  0  0  0  0  0  0  0  0  0  0
  138.3311   74.5360  220.7354 H   0  0  0  0  0  0  0  0  0  0  0  0
  141.0884   74.8194  218.6561 H   0  0  0  0  0  0  0  0  0  0  0  0
  139.6464   75.7183  218.2336 H   0  0  0  0  0  0  0  0  0  0  0  0
  142.4169   76.4882  217.8924 H   0  0  0  0  0  0  0  0  0  0  0  0
  140.9798   77.4475  217.4606 H   0  0  0  0  0  0  0  0  0  0  0  0
  142.6681   77.5397  219.9862 H   0  0  0  0  0  0  0  0  0  0  0  0
  141.9218   78.8776  219.1799 H   0  0  0  0  0  0  0  0  0  0  0  0
  140.5050   77.9195  221.3333 H   0  0  0  0  0  0  0  0  0  0  0  0
  139.6685   79.2900  219.3216 H   0  0  0  0  0  0  0  0  0  0  0  0
  138.9343   77.7565  218.8215 H   0  0  0  0  0  0  0  0  0  0  0  0
  138.1160   79.4130  221.1000 H   0  0  0  0  0  0  0  0  0  0  0  0
  136.5369   76.7371  219.6388 H   0  0  0  0  0  0  0  0  0  0  0  0
  135.4320   74.8594  220.8347 H   0  0  0  0  0  0  0  0  0  0  0  0
  135.5977   76.2563  225.5241 H   0  0  0  0  0  0  0  0  0  0  0  0
  134.2897   76.4539  224.3758 H   0  0  0  0  0  0  0  0  0  0  0  0
  134.2144   75.3478  227.2303 H   0  0  0  0  0  0  0  0  0  0  0  0
  132.9578   76.2589  226.4250 H   0  0  0  0  0  0  0  0  0  0  0  0
  132.5543   73.6170  226.6376 H   0  0  0  0  0  0  0  0  0  0  0  0
  132.2934   74.2085  225.0418 H   0  0  0  0  0  0  0  0  0  0  0  0
  134.9664   73.1280  226.2692 H   0  0  0  0  0  0  0  0  0  0  0  0
  134.1922   72.4572  224.8672 H   0  0  0  0  0  0  0  0  0  0  0  0
  137.5654   75.8633  224.4136 H   0  0  0  0  0  0  0  0  0  0  0  0
  138.6566   77.7141  223.2274 H   0  0  0  0  0  0  0  0  0  0  0  0
  138.8492   70.1258  222.6322 H   0  0  0  0  0  0  0  0  0  0  0  0
  138.6381   68.4847  224.5102 H   0  0  0  0  0  0  0  0  0  0  0  0
  139.1001   67.8979  226.7397 H   0  0  0  0  0  0  0  0  0  0  0  0
  141.3984   70.5646  229.2418 H   0  0  0  0  0  0  0  0  0  0  0  0
  141.6324   72.1839  227.3739 H   0  0  0  0  0  0  0  0  0  0  0  0
  1  2  2  0
  2  3  1  0
  3  4  1  0
  4  5  1  0
  5  6  2  0
  5  7  1  0
  7  8  1  0
  8  9  1  0
  9 10  1  0
 10 11  1  0
 11 12  1  0
 12 13  1  0
 13 14  1  0
 14 15  2  0
 15 16  1  0
 16 17  2  0
 17 18  1  0
 18 19  2  0
 18 20  1  0
 20 21  1  0
 21 22  1  0
 22 23  1  0
 23 24  1  0
 17 25  1  0
 25 26  2  0
  2 27  1  0
 27 28  2  0
 28 29  1  0
 29 30  2  0
 30 31  1  0
 31 32  2  0
 32 33  1  0
 32 34  1  0
 34 35  2  0
 35 36  1  0
 36 37  2  0
 11  7  1  0
 26 14  1  0
 37 27  1  0
 24 20  1  0
 36 30  1  0
  3 38  1  0
  4 39  1  0
  4 40  1  0
  8 41  1  0
  8 42  1  0
  9 43  1  0
  9 44  1  0
 10 45  1  0
 10 46  1  0
 11 47  1  1
 12 48  1  0
 12 49  1  0
 13 50  1  0
 15 51  1  0
 16 52  1  0
 21 53  1  0
 21 54  1  0
 22 55  1  0
 22 56  1  0
 23 57  1  0
 23 58  1  0
 24 59  1  0
 24 60  1  0
 25 61  1  0
 26 62  1  0
 28 63  1  0
 29 64  1  0
 31 65  1  0
 34 66  1  0
 35 67  1  0
M  END
>  <smiles>  (10) 
O=C(NCC(=O)N1CCC[C@H]1CNc1ccc(C(=O)N2CCCC2)cc1)c1ccc2cc(F)ccc2n1

>  <score_type>  (10) 
oracle

>  <origin>  (10) 
autodockgpu

>  <m_score__min__energy>  (10) 
-8.9399999999999995

>  <m_primary>  (10) 
energy

>  <rmsd>  (10) 
8.158832370537642

>  <m_score__min__rmsd>  (10) 
8.158832370537642

>  <meeko>  (10) 
{"free_energy": -7.38, "intermolecular_energy": -9.77, "internal_energy": -3.18, "cluster_size": 3, "cluster_id": 2, "rank_in_cluster": 3}

>  <energy>  (10) 
-8.51

>  <cluster_rmsd>  (10) 
1.97

>  <cluster>  (10) 
3

$$$$

     RDKit          3D

 67 71  0  0  0  0  0  0  0  0999 V2000
  139.8820   78.1620  219.2310 O   0  0  0  0  0  0  0  0  0  0  0  0
  141.0940   77.9240  219.5620 C   0  0  0  0  0  0  0  0  0  0  0  0
  141.8790   79.0740  219.8430 N   0  0  0  0  0  0  0  0  0  0  0  0
  141.2240   80.3580  219.7380 C   0  0  0  0  0  0  0  0  0  0  0  0
  140.4310   80.6810  220.9490 C   0  0  0  0  0  0  0  0  0  0  0  0
  139.2510   81.0870  220.9360 O   0  0  0  0  0  0  0  0  0  0  0  0
  141.1090   80.5000  222.2110 N   0  0  0  0  0  0  0  0  0  0  0  0
  140.8630   81.2340  223.4540 C   0  0  0  0  0  0  0  0  0  0  0  0
  142.2080   81.2530  224.1050 C   0  0  0  0  0  0  0  0  0  0  0  0
  143.1640   80.5070  223.1920 C   0  0  0  0  0  0  0  0  0  0  0  0
  142.1840   79.5700  222.4900 C   0  0  1  0  0  0  0  0  0  0  0  0
  141.8260   78.4540  223.4190 C   0  0  0  0  0  0  0  0  0  0  0  0
  141.2960   77.3730  222.5740 N   0  0  0  0  0  0  0  0  0  0  0  0
  139.9400   77.0130  222.5400 C   0  0  0  0  0  0  0  0  0  0  0  0
  139.4680   75.7350  222.3270 C   0  0  0  0  0  0  0  0  0  0  0  0
  138.0940   75.4720  222.3020 C   0  0  0  0  0  0  0  0  0  0  0  0
  137.1810   76.4850  222.4900 C   0  0  0  0  0  0  0  0  0  0  0  0
  135.7380   76.2870  222.4780 C   0  0  0  0  0  0  0  0  0  0  0  0
  135.1100   76.6460  221.4280 O   0  0  0  0  0  0  0  0  0  0  0  0
  135.0640   75.7170  223.5950 N   0  0  0  0  0  0  0  0  0  0  0  0
  135.6910   75.2650  224.8380 C   0  0  0  0  0  0  0  0  0  0  0  0
  134.4880   74.8640  225.7120 C   0  0  0  0  0  0  0  0  0  0  0  0
  133.3560   75.7320  225.1440 C   0  0  0  0  0  0  0  0  0  0  0  0
  133.6220   75.5050  223.6510 C   0  0  0  0  0  0  0  0  0  0  0  0
  137.6350   77.7670  222.7040 C   0  0  0  0  0  0  0  0  0  0  0  0
  138.9860   78.0140  222.7260 C   0  0  0  0  0  0  0  0  0  0  0  0
  141.5910   76.5610  219.6330 C   0  0  0  0  0  0  0  0  0  0  0  0
  140.6890   75.5510  219.2630 C   0  0  0  0  0  0  0  0  0  0  0  0
  141.0610   74.2160  219.2820 C   0  0  0  0  0  0  0  0  0  0  0  0
  142.3490   73.9370  219.6820 C   0  0  0  0  0  0  0  0  0  0  0  0
  142.7180   72.5920  219.7140 C   0  0  0  0  0  0  0  0  0  0  0  0
  144.0190   72.2900  220.1320 C   0  0  0  0  0  0  0  0  0  0  0  0
  144.3770   70.9610  220.1620 F   0  0  0  0  0  0  0  0  0  0  0  0
  144.8990   73.2860  220.4960 C   0  0  0  0  0  0  0  0  0  0  0  0
  144.5340   74.6140  220.4640 C   0  0  0  0  0  0  0  0  0  0  0  0
  143.2370   74.9250  220.0480 C   0  0  0  0  0  0  0  0  0  0  0  0
  142.8370   76.2330  220.0160 N   0  0  0  0  0  0  0  0  0  0  0  0
  142.8890   78.9530  220.1130 H   0  0  0  0  0  0  0  0  0  0  0  0
  141.9889   81.1358  219.5972 H   0  0  0  0  0  0  0  0  0  0  0  0
  140.5339   80.3170  218.8824 H   0  0  0  0  0  0  0  0  0  0  0  0
  140.5095   82.2549  223.2470 H   0  0  0  0  0  0  0  0  0  0  0  0
  140.0843   80.7756  224.0812 H   0  0  0  0  0  0  0  0  0  0  0  0
  142.5472   82.2910  224.2373 H   0  0  0  0  0  0  0  0  0  0  0  0
  142.1668   80.7779  225.0962 H   0  0  0  0  0  0  0  0  0  0  0  0
  143.6617   81.1836  222.4818 H   0  0  0  0  0  0  0  0  0  0  0  0
  143.9978   80.0053  223.7050 H   0  0  0  0  0  0  0  0  0  0  0  0
  142.5303   79.0506  221.5843 H   0  0  0  0  0  0  0  0  0  0  0  0
  142.7175   78.1102  223.9639 H   0  0  0  0  0  0  0  0  0  0  0  0
  141.0881   78.7764  224.1684 H   0  0  0  0  0  0  0  0  0  0  0  0
  141.9580   76.8370  221.9610 H   0  0  0  0  0  0  0  0  0  0  0  0
  140.1811   74.9114  222.1747 H   0  0  0  0  0  0  0  0  0  0  0  0
  137.7396   74.4449  222.1303 H   0  0  0  0  0  0  0  0  0  0  0  0
  136.3514   74.4042  224.6566 H   0  0  0  0  0  0  0  0  0  0  0  0
  136.3271   76.0317  225.3044 H   0  0  0  0  0  0  0  0  0  0  0  0
  134.2591   73.7934  225.6052 H   0  0  0  0  0  0  0  0  0  0  0  0
  134.6588   75.0174  226.7878 H   0  0  0  0  0  0  0  0  0  0  0  0
  132.3631   75.3689  225.4479 H   0  0  0  0  0  0  0  0  0  0  0  0
  133.3479   76.7815  225.4734 H   0  0  0  0  0  0  0  0  0  0  0  0
  133.3505   74.4848  223.3420 H   0  0  0  0  0  0  0  0  0  0  0  0
  133.0398   76.1545  222.9808 H   0  0  0  0  0  0  0  0  0  0  0  0
  136.9199   78.5888  222.8565 H   0  0  0  0  0  0  0  0  0  0  0  0
  139.3303   79.0445  222.8975 H   0  0  0  0  0  0  0  0  0  0  0  0
  139.6695   75.8238  218.9527 H   0  0  0  0  0  0  0  0  0  0  0  0
  140.3616   73.4182  218.9917 H   0  0  0  0  0  0  0  0  0  0  0  0
  142.0135   71.7993  219.4219 H   0  0  0  0  0  0  0  0  0  0  0  0
  145.9149   73.0148  220.8191 H   0  0  0  0  0  0  0  0  0  0  0  0
  145.2411   75.4042  220.7566 H   0  0  0  0  0  0  0  0  0  0  0  0
  1  2  2  0
  2  3  1  0
  3  4  1  0
  4  5  1  0
  5  6  2  0
  5  7  1  0
  7  8  1  0
  8  9  1  0
  9 10  1  0
 10 11  1  0
 11 12  1  0
 12 13  1  0
 13 14  1  0
 14 15  2  0
 15 16  1  0
 16 17  2  0
 17 18  1  0
 18 19  2  0
 18 20  1  0
 20 21  1  0
 21 22  1  0
 22 23  1  0
 23 24  1  0
 17 25  1  0
 25 26  2  0
  2 27  1  0
 27 28  2  0
 28 29  1  0
 29 30  2  0
 30 31  1  0
 31 32  2  0
 32 33  1  0
 32 34  1  0
 34 35  2  0
 35 36  1  0
 36 37  2  0
 11  7  1  0
 26 14  1  0
 37 27  1  0
 24 20  1  0
 36 30  1  0
  3 38  1  0
  4 39  1  0
  4 40  1  0
  8 41  1  0
  8 42  1  0
  9 43  1  0
  9 44  1  0
 10 45  1  0
 10 46  1  0
 11 47  1  6
 12 48  1  0
 12 49  1  0
 13 50  1  0
 15 51  1  0
 16 52  1  0
 21 53  1  0
 21 54  1  0
 22 55  1  0
 22 56  1  0
 23 57  1  0
 23 58  1  0
 24 59  1  0
 24 60  1  0
 25 61  1  0
 26 62  1  0
 28 63  1  0
 29 64  1  0
 31 65  1  0
 34 66  1  0
 35 67  1  0
M  END
>  <smiles>  (11) 
O=C(NCC(=O)N1CCC[C@H]1CNc1ccc(C(=O)N2CCCC2)cc1)c1ccc2cc(F)ccc2n1

>  <score_type>  (11) 
oracle

>  <origin>  (11) 
autodockgpu

>  <m_score__min__energy>  (11) 
-8.9399999999999995

>  <m_primary>  (11) 
energy

>  <rmsd>  (11) 
7.49896706784965

>  <m_score__min__rmsd>  (11) 
7.49896706784965

>  <meeko>  (11) 
{"free_energy": -7.09, "intermolecular_energy": -9.48, "internal_energy": -3.63, "cluster_size": 2, "cluster_id": 8, "rank_in_cluster": 2}

>  <energy>  (11) 
-8.37

>  <cluster_rmsd>  (11) 
1.42

>  <cluster>  (11) 
3

$$$$

     RDKit          3D

 67 71  0  0  0  0  0  0  0  0999 V2000
  143.0270   79.2330  218.1550 O   0  0  0  0  0  0  0  0  0  0  0  0
  142.3780   78.2390  218.6320 C   0  0  0  0  0  0  0  0  0  0  0  0
  141.0850   78.5480  219.1340 N   0  0  0  0  0  0  0  0  0  0  0  0
  140.6550   79.9240  219.0360 C   0  0  0  0  0  0  0  0  0  0  0  0
  141.2730   80.7780  220.0780 C   0  0  0  0  0  0  0  0  0  0  0  0
  141.7780   81.9000  219.8670 O   0  0  0  0  0  0  0  0  0  0  0  0
  141.2690   80.2400  221.4180 N   0  0  0  0  0  0  0  0  0  0  0  0
  140.6680   80.8470  222.6070 C   0  0  0  0  0  0  0  0  0  0  0  0
  141.5570   80.3750  223.7110 C   0  0  0  0  0  0  0  0  0  0  0  0
  142.6290   79.5000  223.0870 C   0  0  0  0  0  0  0  0  0  0  0  0
  141.8800   79.0010  221.8540 C   0  0  1  0  0  0  0  0  0  0  0  0
  140.9170   77.9340  222.2670 C   0  0  0  0  0  0  0  0  0  0  0  0
  141.4220   76.6810  221.6860 N   0  0  0  0  0  0  0  0  0  0  0  0
  140.7160   75.4690  221.7330 C   0  0  0  0  0  0  0  0  0  0  0  0
  139.3560   75.3540  221.9310 C   0  0  0  0  0  0  0  0  0  0  0  0
  138.7400   74.1000  221.9700 C   0  0  0  0  0  0  0  0  0  0  0  0
  139.4780   72.9480  221.8120 C   0  0  0  0  0  0  0  0  0  0  0  0
  138.9060   71.6090  221.8420 C   0  0  0  0  0  0  0  0  0  0  0  0
  138.2680   71.2250  220.8060 O   0  0  0  0  0  0  0  0  0  0  0  0
  139.0570   70.7700  222.9820 N   0  0  0  0  0  0  0  0  0  0  0  0
  139.7760   71.1090  224.2110 C   0  0  0  0  0  0  0  0  0  0  0  0
  139.5070   69.8970  225.1210 C   0  0  0  0  0  0  0  0  0  0  0  0
  138.1770   69.3560  224.5770 C   0  0  0  0  0  0  0  0  0  0  0  0
  138.4980   69.4250  223.0800 C   0  0  0  0  0  0  0  0  0  0  0  0
  140.8370   73.0440  221.6140 C   0  0  0  0  0  0  0  0  0  0  0  0
  141.4320   74.2810  221.5770 C   0  0  0  0  0  0  0  0  0  0  0  0
  142.9580   76.9070  218.6400 C   0  0  0  0  0  0  0  0  0  0  0  0
  142.8950   76.1960  217.4320 C   0  0  0  0  0  0  0  0  0  0  0  0
  143.4280   74.9210  217.3230 C   0  0  0  0  0  0  0  0  0  0  0  0
  144.0150   74.3950  218.4520 C   0  0  0  0  0  0  0  0  0  0  0  0
  144.5390   73.1070  218.3460 C   0  0  0  0  0  0  0  0  0  0  0  0
  145.1270   72.5530  219.4880 C   0  0  0  0  0  0  0  0  0  0  0  0
  145.6410   71.2810  219.3770 F   0  0  0  0  0  0  0  0  0  0  0  0
  145.1840   73.2560  220.6710 C   0  0  0  0  0  0  0  0  0  0  0  0
  144.6670   74.5280  220.7760 C   0  0  0  0  0  0  0  0  0  0  0  0
  144.0780   75.0910  219.6400 C   0  0  0  0  0  0  0  0  0  0  0  0
  143.5430   76.3470  219.7120 N   0  0  0  0  0  0  0  0  0  0  0  0
  140.4990   77.7790  219.5510 H   0  0  0  0  0  0  0  0  0  0  0  0
  140.9355   80.3134  218.0462 H   0  0  0  0  0  0  0  0  0  0  0  0
  139.5649   79.9489  219.1810 H   0  0  0  0  0  0  0  0  0  0  0  0
  140.6740   81.9447  222.5364 H   0  0  0  0  0  0  0  0  0  0  0  0
  139.6136   80.5682  222.7502 H   0  0  0  0  0  0  0  0  0  0  0  0
  142.0205   81.2360  224.2148 H   0  0  0  0  0  0  0  0  0  0  0  0
  140.9813   79.8104  224.4592 H   0  0  0  0  0  0  0  0  0  0  0  0
  143.5225   80.0809  222.8145 H   0  0  0  0  0  0  0  0  0  0  0  0
  143.0205   78.7085  223.7429 H   0  0  0  0  0  0  0  0  0  0  0  0
  142.4665   78.5230  221.0555 H   0  0  0  0  0  0  0  0  0  0  0  0
  140.8788   77.8580  223.3637 H   0  0  0  0  0  0  0  0  0  0  0  0
  139.8976   78.1562  221.9184 H   0  0  0  0  0  0  0  0  0  0  0  0
  142.3570   76.6830  221.2100 H   0  0  0  0  0  0  0  0  0  0  0  0
  138.7478   76.2615  222.0600 H   0  0  0  0  0  0  0  0  0  0  0  0
  137.6536   74.0324  222.1287 H   0  0  0  0  0  0  0  0  0  0  0  0
  140.8526   71.2266  224.0186 H   0  0  0  0  0  0  0  0  0  0  0  0
  139.4493   72.0617  224.6533 H   0  0  0  0  0  0  0  0  0  0  0  0
  140.3070   69.1475  225.0304 H   0  0  0  0  0  0  0  0  0  0  0  0
  139.4697   70.1532  226.1901 H   0  0  0  0  0  0  0  0  0  0  0  0
  137.9805   68.3267  224.9116 H   0  0  0  0  0  0  0  0  0  0  0  0
  137.2747   69.8975  224.8972 H   0  0  0  0  0  0  0  0  0  0  0  0
  139.2317   68.6594  222.7876 H   0  0  0  0  0  0  0  0  0  0  0  0
  137.6371   69.2404  222.4206 H   0  0  0  0  0  0  0  0  0  0  0  0
  141.4429   72.1348  221.4861 H   0  0  0  0  0  0  0  0  0  0  0  0
  142.5189   74.3381  221.4177 H   0  0  0  0  0  0  0  0  0  0  0  0
  142.4147   76.6580  216.5569 H   0  0  0  0  0  0  0  0  0  0  0  0
  143.3841   74.3566  216.3799 H   0  0  0  0  0  0  0  0  0  0  0  0
  144.4917   72.5477  217.4000 H   0  0  0  0  0  0  0  0  0  0  0  0
  145.6527   72.7913  221.5510 H   0  0  0  0  0  0  0  0  0  0  0  0
  144.7159   75.0837  221.7241 H   0  0  0  0  0  0  0  0  0  0  0  0
  1  2  2  0
  2  3  1  0
  3  4  1  0
  4  5  1  0
  5  6  2  0
  5  7  1  0
  7  8  1  0
  8  9  1  0
  9 10  1  0
 10 11  1  0
 11 12  1  0
 12 13  1  0
 13 14  1  0
 14 15  2  0
 15 16  1  0
 16 17  2  0
 17 18  1  0
 18 19  2  0
 18 20  1  0
 20 21  1  0
 21 22  1  0
 22 23  1  0
 23 24  1  0
 17 25  1  0
 25 26  2  0
  2 27  1  0
 27 28  2  0
 28 29  1  0
 29 30  2  0
 30 31  1  0
 31 32  2  0
 32 33  1  0
 32 34  1  0
 34 35  2  0
 35 36  1  0
 36 37  2  0
 11  7  1  0
 26 14  1  0
 37 27  1  0
 24 20  1  0
 36 30  1  0
  3 38  1  0
  4 39  1  0
  4 40  1  0
  8 41  1  0
  8 42  1  0
  9 43  1  0
  9 44  1  0
 10 45  1  0
 10 46  1  0
 11 47  1  6
 12 48  1  0
 12 49  1  0
 13 50  1  0
 15 51  1  0
 16 52  1  0
 21 53  1  0
 21 54  1  0
 22 55  1  0
 22 56  1  0
 23 57  1  0
 23 58  1  0
 24 59  1  0
 24 60  1  0
 25 61  1  0
 26 62  1  0
 28 63  1  0
 29 64  1  0
 31 65  1  0
 34 66  1  0
 35 67  1  0
M  END
>  <smiles>  (12) 
O=C(NCC(=O)N1CCC[C@H]1CNc1ccc(C(=O)N2CCCC2)cc1)c1ccc2cc(F)ccc2n1

>  <score_type>  (12) 
oracle

>  <origin>  (12) 
autodockgpu

>  <m_score__min__energy>  (12) 
-8.9399999999999995

>  <m_primary>  (12) 
energy

>  <rmsd>  (12) 
6.902961219660528

>  <m_score__min__rmsd>  (12) 
6.902961219660528

>  <meeko>  (12) 
{"free_energy": -7.42, "intermolecular_energy": -9.8, "internal_energy": -3.35, "cluster_size": 1, "cluster_id": 17, "rank_in_cluster": 1}

>  <energy>  (12) 
-7.77

>  <cluster_rmsd>  (12) 
1.79

>  <cluster>  (12) 
3

$$$$

     RDKit          3D

 67 71  0  0  0  0  0  0  0  0999 V2000
  136.2030   73.7190  221.2690 O   0  0  0  0  0  0  0  0  0  0  0  0
  136.5870   74.2900  222.3470 C   0  0  0  0  0  0  0  0  0  0  0  0
  137.9190   74.7830  222.3270 N   0  0  0  0  0  0  0  0  0  0  0  0
  138.6690   74.5980  221.1050 C   0  0  0  0  0  0  0  0  0  0  0  0
  139.9290   73.8500  221.3310 C   0  0  0  0  0  0  0  0  0  0  0  0
  140.7690   74.1260  222.2120 O   0  0  0  0  0  0  0  0  0  0  0  0
  140.1620   72.7290  220.4510 N   0  0  0  0  0  0  0  0  0  0  0  0
  141.0900   71.6180  220.6700 C   0  0  0  0  0  0  0  0  0  0  0  0
  141.5080   71.2510  219.2830 C   0  0  0  0  0  0  0  0  0  0  0  0
  140.7770   72.1780  218.3290 C   0  0  0  0  0  0  0  0  0  0  0  0
  139.5390   72.4960  219.1650 C   0  0  1  0  0  0  0  0  0  0  0  0
  138.6060   71.3280  219.1190 C   0  0  0  0  0  0  0  0  0  0  0  0
  137.7950   71.4040  220.3440 N   0  0  0  0  0  0  0  0  0  0  0  0
  138.1610   70.7930  221.5520 C   0  0  0  0  0  0  0  0  0  0  0  0
  137.9510   71.3310  222.8040 C   0  0  0  0  0  0  0  0  0  0  0  0
  138.3590   70.6500  223.9560 C   0  0  0  0  0  0  0  0  0  0  0  0
  138.9820   69.4250  223.8650 C   0  0  0  0  0  0  0  0  0  0  0  0
  139.4330   68.6590  225.0190 C   0  0  0  0  0  0  0  0  0  0  0  0
  139.1900   67.4080  225.0190 O   0  0  0  0  0  0  0  0  0  0  0  0
  140.1170   69.2890  226.0970 N   0  0  0  0  0  0  0  0  0  0  0  0
  140.4540   70.7100  226.1900 C   0  0  0  0  0  0  0  0  0  0  0  0
  141.0650   70.8350  227.5980 C   0  0  0  0  0  0  0  0  0  0  0  0
  140.4110   69.6690  228.3530 C   0  0  0  0  0  0  0  0  0  0  0  0
  140.5830   68.5820  227.2860 C   0  0  0  0  0  0  0  0  0  0  0  0
  139.2000   68.8740  222.6230 C   0  0  0  0  0  0  0  0  0  0  0  0
  138.7950   69.5510  221.4990 C   0  0  0  0  0  0  0  0  0  0  0  0
  135.6930   74.4050  223.4860 C   0  0  0  0  0  0  0  0  0  0  0  0
  135.4520   75.7060  223.9570 C   0  0  0  0  0  0  0  0  0  0  0  0
  134.6060   75.9330  225.0310 C   0  0  0  0  0  0  0  0  0  0  0  0
  134.0230   74.8260  225.6060 C   0  0  0  0  0  0  0  0  0  0  0  0
  133.1830   75.0550  226.6960 C   0  0  0  0  0  0  0  0  0  0  0  0
  132.5920   73.9390  227.3010 C   0  0  0  0  0  0  0  0  0  0  0  0
  131.7650   74.1720  228.3760 F   0  0  0  0  0  0  0  0  0  0  0  0
  132.8340   72.6660  226.8350 C   0  0  0  0  0  0  0  0  0  0  0  0
  133.6640   72.4410  225.7590 C   0  0  0  0  0  0  0  0  0  0  0  0
  134.2580   73.5480  225.1480 C   0  0  0  0  0  0  0  0  0  0  0  0
  135.0980   73.3600  224.0840 N   0  0  0  0  0  0  0  0  0  0  0  0
  138.3050   75.2570  223.1840 H   0  0  0  0  0  0  0  0  0  0  0  0
  138.0483   74.0390  220.3892 H   0  0  0  0  0  0  0  0  0  0  0  0
  138.9311   75.5925  220.7149 H   0  0  0  0  0  0  0  0  0  0  0  0
  141.9537   71.9370  221.2719 H   0  0  0  0  0  0  0  0  0  0  0  0
  140.6405   70.7803  221.2233 H   0  0  0  0  0  0  0  0  0  0  0  0
  142.5950   71.3779  219.1718 H   0  0  0  0  0  0  0  0  0  0  0  0
  141.2627   70.2004  219.0684 H   0  0  0  0  0  0  0  0  0  0  0  0
  141.3637   73.0819  218.1082 H   0  0  0  0  0  0  0  0  0  0  0  0
  140.5690   71.7514  217.3366 H   0  0  0  0  0  0  0  0  0  0  0  0
  138.9096   73.3409  218.8487 H   0  0  0  0  0  0  0  0  0  0  0  0
  137.9611   71.3895  218.2300 H   0  0  0  0  0  0  0  0  0  0  0  0
  139.1558   70.3771  219.0599 H   0  0  0  0  0  0  0  0  0  0  0  0
  136.8940   71.9420  220.3230 H   0  0  0  0  0  0  0  0  0  0  0  0
  137.4560   72.3088  222.8984 H   0  0  0  0  0  0  0  0  0  0  0  0
  138.1803   71.0976  224.9448 H   0  0  0  0  0  0  0  0  0  0  0  0
  141.1832   70.9939  225.4169 H   0  0  0  0  0  0  0  0  0  0  0  0
  139.5876   71.3699  226.0355 H   0  0  0  0  0  0  0  0  0  0  0  0
  142.1590   70.7240  227.5672 H   0  0  0  0  0  0  0  0  0  0  0  0
  140.8864   71.8140  228.0666 H   0  0  0  0  0  0  0  0  0  0  0  0
  140.9459   69.4253  229.2828 H   0  0  0  0  0  0  0  0  0  0  0  0
  139.3806   69.8412  228.6975 H   0  0  0  0  0  0  0  0  0  0  0  0
  141.6344   68.2741  227.1877 H   0  0  0  0  0  0  0  0  0  0  0  0
  140.0457   67.6460  227.4989 H   0  0  0  0  0  0  0  0  0  0  0  0
  139.6960   67.8965  222.5311 H   0  0  0  0  0  0  0  0  0  0  0  0
  138.9781   69.0949  220.5149 H   0  0  0  0  0  0  0  0  0  0  0  0
  135.9428   76.5589  223.4653 H   0  0  0  0  0  0  0  0  0  0  0  0
  134.4098   76.9483  225.4059 H   0  0  0  0  0  0  0  0  0  0  0  0
  132.9922   76.0732  227.0660 H   0  0  0  0  0  0  0  0  0  0  0  0
  132.3542   71.8104  227.3327 H   0  0  0  0  0  0  0  0  0  0  0  0
  133.8532   71.4214  225.3922 H   0  0  0  0  0  0  0  0  0  0  0  0
  1  2  2  0
  2  3  1  0
  3  4  1  0
  4  5  1  0
  5  6  2  0
  5  7  1  0
  7  8  1  0
  8  9  1  0
  9 10  1  0
 10 11  1  0
 11 12  1  0
 12 13  1  0
 13 14  1  0
 14 15  2  0
 15 16  1  0
 16 17  2  0
 17 18  1  0
 18 19  2  0
 18 20  1  0
 20 21  1  0
 21 22  1  0
 22 23  1  0
 23 24  1  0
 17 25  1  0
 25 26  2  0
  2 27  1  0
 27 28  2  0
 28 29  1  0
 29 30  2  0
 30 31  1  0
 31 32  2  0
 32 33  1  0
 32 34  1  0
 34 35  2  0
 35 36  1  0
 36 37  2  0
 11  7  1  0
 26 14  1  0
 37 27  1  0
 24 20  1  0
 36 30  1  0
  3 38  1  0
  4 39  1  0
  4 40  1  0
  8 41  1  0
  8 42  1  0
  9 43  1  0
  9 44  1  0
 10 45  1  0
 10 46  1  0
 11 47  1  6
 12 48  1  0
 12 49  1  0
 13 50  1  0
 15 51  1  0
 16 52  1  0
 21 53  1  0
 21 54  1  0
 22 55  1  0
 22 56  1  0
 23 57  1  0
 23 58  1  0
 24 59  1  0
 24 60  1  0
 25 61  1  0
 26 62  1  0
 28 63  1  0
 29 64  1  0
 31 65  1  0
 34 66  1  0
 35 67  1  0
M  END
>  <smiles>  (13) 
O=C(NCC(=O)N1CCC[C@H]1CNc1ccc(C(=O)N2CCCC2)cc1)c1ccc2cc(F)ccc2n1

>  <score_type>  (13) 
oracle

>  <origin>  (13) 
autodockgpu

>  <m_score__min__energy>  (13) 
-8.9399999999999995

>  <m_primary>  (13) 
energy

>  <rmsd>  (13) 
6.024212337642957

>  <m_score__min__rmsd>  (13) 
6.024212337642957

>  <meeko>  (13) 
{"free_energy": -7.45, "intermolecular_energy": -9.84, "internal_energy": -3.18, "cluster_size": 2, "cluster_id": 16, "rank_in_cluster": 1}

>  <energy>  (13) 
-8.66

>  <cluster_rmsd>  (13) 
0.0

>  <cluster>  (13) 
4

$$$$

     RDKit          3D

 67 71  0  0  0  0  0  0  0  0999 V2000
  137.7200   72.9710  220.7280 O   0  0  0  0  0  0  0  0  0  0  0  0
  137.5380   73.4990  221.8790 C   0  0  0  0  0  0  0  0  0  0  0  0
  136.8390   72.6880  222.8110 N   0  0  0  0  0  0  0  0  0  0  0  0
  136.4330   71.3750  222.3640 C   0  0  0  0  0  0  0  0  0  0  0  0
  137.5890   70.5420  221.9530 C   0  0  0  0  0  0  0  0  0  0  0  0
  137.6780   69.9430  220.8620 O   0  0  0  0  0  0  0  0  0  0  0  0
  138.6660   70.4450  222.9090 N   0  0  0  0  0  0  0  0  0  0  0  0
  139.3230   69.2210  223.3710 C   0  0  0  0  0  0  0  0  0  0  0  0
  139.7130   69.5560  224.7740 C   0  0  0  0  0  0  0  0  0  0  0  0
  139.2610   70.9800  225.0410 C   0  0  0  0  0  0  0  0  0  0  0  0
  139.2930   71.5400  223.6210 C   0  0  1  0  0  0  0  0  0  0  0  0
  140.7120   71.8120  223.2350 C   0  0  0  0  0  0  0  0  0  0  0  0
  140.6530   72.6410  222.0210 N   0  0  0  0  0  0  0  0  0  0  0  0
  141.7660   72.8960  221.2060 C   0  0  0  0  0  0  0  0  0  0  0  0
  142.1890   74.1500  220.8180 C   0  0  0  0  0  0  0  0  0  0  0  0
  143.3090   74.3070  219.9950 C   0  0  0  0  0  0  0  0  0  0  0  0
  144.0150   73.2120  219.5520 C   0  0  0  0  0  0  0  0  0  0  0  0
  145.1880   73.2980  218.6940 C   0  0  0  0  0  0  0  0  0  0  0  0
  146.3080   72.9590  219.2020 O   0  0  0  0  0  0  0  0  0  0  0  0
  145.0820   73.7420  217.3450 N   0  0  0  0  0  0  0  0  0  0  0  0
  143.8490   74.1420  216.6660 C   0  0  0  0  0  0  0  0  0  0  0  0
  144.3480   74.6330  215.2940 C   0  0  0  0  0  0  0  0  0  0  0  0
  145.7880   75.0700  215.5970 C   0  0  0  0  0  0  0  0  0  0  0  0
  146.2190   73.8630  216.4380 C   0  0  0  0  0  0  0  0  0  0  0  0
  143.6060   71.9530  219.9290 C   0  0  0  0  0  0  0  0  0  0  0  0
  142.5050   71.8100  220.7380 C   0  0  0  0  0  0  0  0  0  0  0  0
  138.0290   74.8360  222.1680 C   0  0  0  0  0  0  0  0  0  0  0  0
  137.0530   75.8150  222.4140 C   0  0  0  0  0  0  0  0  0  0  0  0
  137.4090   77.1210  222.7120 C   0  0  0  0  0  0  0  0  0  0  0  0
  138.7560   77.4030  222.7510 C   0  0  0  0  0  0  0  0  0  0  0  0
  139.1130   78.7210  223.0380 C   0  0  0  0  0  0  0  0  0  0  0  0
  140.4780   79.0280  223.0680 C   0  0  0  0  0  0  0  0  0  0  0  0
  140.8240   80.3300  223.3510 F   0  0  0  0  0  0  0  0  0  0  0  0
  141.4300   78.0620  222.8240 C   0  0  0  0  0  0  0  0  0  0  0  0
  141.0770   76.7610  222.5410 C   0  0  0  0  0  0  0  0  0  0  0  0
  139.7170   76.4450  222.5100 C   0  0  0  0  0  0  0  0  0  0  0  0
  139.3300   75.1650  222.2190 N   0  0  0  0  0  0  0  0  0  0  0  0
  136.6460   73.0630  223.7760 H   0  0  0  0  0  0  0  0  0  0  0  0
  135.9053   70.8684  223.1855 H   0  0  0  0  0  0  0  0  0  0  0  0
  135.7800   71.5029  221.4881 H   0  0  0  0  0  0  0  0  0  0  0  0
  138.6298   68.3672  223.3468 H   0  0  0  0  0  0  0  0  0  0  0  0
  140.1765   68.9245  222.7435 H   0  0  0  0  0  0  0  0  0  0  0  0
  139.2207   68.8670  225.4761 H   0  0  0  0  0  0  0  0  0  0  0  0
  140.8006   69.4612  224.9088 H   0  0  0  0  0  0  0  0  0  0  0  0
  138.2487   71.0131  225.4700 H   0  0  0  0  0  0  0  0  0  0  0  0
  139.8734   71.5311  225.7699 H   0  0  0  0  0  0  0  0  0  0  0  0
  138.7879   72.4997  223.4368 H   0  0  0  0  0  0  0  0  0  0  0  0
  141.2301   72.3520  224.0412 H   0  0  0  0  0  0  0  0  0  0  0  0
  141.2661   70.8785  223.0576 H   0  0  0  0  0  0  0  0  0  0  0  0
  139.7360   73.0680  221.7420 H   0  0  0  0  0  0  0  0  0  0  0  0
  141.6382   75.0385  221.1603 H   0  0  0  0  0  0  0  0  0  0  0  0
  143.6290   75.3168  219.6986 H   0  0  0  0  0  0  0  0  0  0  0  0
  143.1648   73.2879  216.5546 H   0  0  0  0  0  0  0  0  0  0  0  0
  143.2803   74.9053  217.2173 H   0  0  0  0  0  0  0  0  0  0  0  0
  144.3273   73.8223  214.5508 H   0  0  0  0  0  0  0  0  0  0  0  0
  143.7290   75.4348  214.8651 H   0  0  0  0  0  0  0  0  0  0  0  0
  146.3906   75.1746  214.6827 H   0  0  0  0  0  0  0  0  0  0  0  0
  145.8977   76.0524  216.0796 H   0  0  0  0  0  0  0  0  0  0  0  0
  146.3413   72.9616  215.8196 H   0  0  0  0  0  0  0  0  0  0  0  0
  147.1910   73.9808  216.9392 H   0  0  0  0  0  0  0  0  0  0  0  0
  144.1578   71.0660  219.5843 H   0  0  0  0  0  0  0  0  0  0  0  0
  142.1932   70.7960  221.0289 H   0  0  0  0  0  0  0  0  0  0  0  0
  135.9886   75.5411  222.3695 H   0  0  0  0  0  0  0  0  0  0  0  0
  136.6520   77.8947  222.9079 H   0  0  0  0  0  0  0  0  0  0  0  0
  138.3505   79.4895  223.2332 H   0  0  0  0  0  0  0  0  0  0  0  0
  142.4949   78.3358  222.8559 H   0  0  0  0  0  0  0  0  0  0  0  0
  141.8421   75.9952  222.3456 H   0  0  0  0  0  0  0  0  0  0  0  0
  1  2  2  0
  2  3  1  0
  3  4  1  0
  4  5  1  0
  5  6  2  0
  5  7  1  0
  7  8  1  0
  8  9  1  0
  9 10  1  0
 10 11  1  0
 11 12  1  0
 12 13  1  0
 13 14  1  0
 14 15  2  0
 15 16  1  0
 16 17  2  0
 17 18  1  0
 18 19  2  0
 18 20  1  0
 20 21  1  0
 21 22  1  0
 22 23  1  0
 23 24  1  0
 17 25  1  0
 25 26  2  0
  2 27  1  0
 27 28  2  0
 28 29  1  0
 29 30  2  0
 30 31  1  0
 31 32  2  0
 32 33  1  0
 32 34  1  0
 34 35  2  0
 35 36  1  0
 36 37  2  0
 11  7  1  0
 26 14  1  0
 37 27  1  0
 24 20  1  0
 36 30  1  0
  3 38  1  0
  4 39  1  0
  4 40  1  0
  8 41  1  0
  8 42  1  0
  9 43  1  0
  9 44  1  0
 10 45  1  0
 10 46  1  0
 11 47  1  1
 12 48  1  0
 12 49  1  0
 13 50  1  0
 15 51  1  0
 16 52  1  0
 21 53  1  0
 21 54  1  0
 22 55  1  0
 22 56  1  0
 23 57  1  0
 23 58  1  0
 24 59  1  0
 24 60  1  0
 25 61  1  0
 26 62  1  0
 28 63  1  0
 29 64  1  0
 31 65  1  0
 34 66  1  0
 35 67  1  0
M  END
>  <smiles>  (14) 
O=C(NCC(=O)N1CCC[C@H]1CNc1ccc(C(=O)N2CCCC2)cc1)c1ccc2cc(F)ccc2n1

>  <score_type>  (14) 
oracle

>  <origin>  (14) 
autodockgpu

>  <m_score__min__energy>  (14) 
-8.9399999999999995

>  <m_primary>  (14) 
energy

>  <rmsd>  (14) 
6.952809963808114

>  <m_score__min__rmsd>  (14) 
6.952809963808114

>  <meeko>  (14) 
{"free_energy": -6.5, "intermolecular_energy": -8.89, "internal_energy": -3.46, "cluster_size": 1, "cluster_id": 22, "rank_in_cluster": 1}

>  <energy>  (14) 
-8.65

>  <cluster_rmsd>  (14) 
1.25

>  <cluster>  (14) 
4

$$$$

     RDKit          3D

 67 71  0  0  0  0  0  0  0  0999 V2000
  142.1720   77.1690  218.9030 O   0  0  0  0  0  0  0  0  0  0  0  0
  142.2840   76.4870  219.9800 C   0  0  0  0  0  0  0  0  0  0  0  0
  141.7980   77.1260  221.1510 N   0  0  0  0  0  0  0  0  0  0  0  0
  141.2300   78.4450  220.9920 C   0  0  0  0  0  0  0  0  0  0  0  0
  139.9640   78.4190  220.2200 C   0  0  0  0  0  0  0  0  0  0  0  0
  139.7810   79.0130  219.1380 O   0  0  0  0  0  0  0  0  0  0  0  0
  138.8940   77.6380  220.7930 N   0  0  0  0  0  0  0  0  0  0  0  0
  137.4600   77.9300  220.7280 C   0  0  0  0  0  0  0  0  0  0  0  0
  136.9430   77.3680  222.0120 C   0  0  0  0  0  0  0  0  0  0  0  0
  138.1240   76.7650  222.7510 C   0  0  0  0  0  0  0  0  0  0  0  0
  139.0290   76.4220  221.5690 C   0  0  1  0  0  0  0  0  0  0  0  0
  138.5140   75.1880  220.9010 C   0  0  0  0  0  0  0  0  0  0  0  0
  139.5690   74.1730  221.0480 N   0  0  0  0  0  0  0  0  0  0  0  0
  139.4880   73.1000  221.9480 C   0  0  0  0  0  0  0  0  0  0  0  0
  138.3190   72.4740  222.3260 C   0  0  0  0  0  0  0  0  0  0  0  0
  138.3360   71.4130  223.2380 C   0  0  0  0  0  0  0  0  0  0  0  0
  139.5220   70.9700  223.7800 C   0  0  0  0  0  0  0  0  0  0  0  0
  139.6160   69.8730  224.7330 C   0  0  0  0  0  0  0  0  0  0  0  0
  139.1860   68.7340  224.3560 O   0  0  0  0  0  0  0  0  0  0  0  0
  140.1670   70.0730  226.0310 N   0  0  0  0  0  0  0  0  0  0  0  0
  140.6950   71.3330  226.5570 C   0  0  0  0  0  0  0  0  0  0  0  0
  141.0330   70.9880  228.0190 C   0  0  0  0  0  0  0  0  0  0  0  0
  140.0720   69.8300  228.3220 C   0  0  0  0  0  0  0  0  0  0  0  0
  140.2780   69.0210  227.0360 C   0  0  0  0  0  0  0  0  0  0  0  0
  140.6980   71.5840  223.4130 C   0  0  0  0  0  0  0  0  0  0  0  0
  140.6700   72.6240  222.5170 C   0  0  0  0  0  0  0  0  0  0  0  0
  142.8720   75.1580  219.9610 C   0  0  0  0  0  0  0  0  0  0  0  0
  144.2650   75.0940  220.1210 C   0  0  0  0  0  0  0  0  0  0  0  0
  144.9290   73.8770  220.1300 C   0  0  0  0  0  0  0  0  0  0  0  0
  144.1570   72.7480  219.9730 C   0  0  0  0  0  0  0  0  0  0  0  0
  144.8270   71.5250  219.9690 C   0  0  0  0  0  0  0  0  0  0  0  0
  144.0580   70.3680  219.7970 C   0  0  0  0  0  0  0  0  0  0  0  0
  144.7260   69.1640  219.7930 F   0  0  0  0  0  0  0  0  0  0  0  0
  142.6920   70.4390  219.6390 C   0  0  0  0  0  0  0  0  0  0  0  0
  142.0300   71.6470  219.6430 C   0  0  0  0  0  0  0  0  0  0  0  0
  142.7890   72.8070  219.8150 C   0  0  0  0  0  0  0  0  0  0  0  0
  142.1660   74.0250  219.8120 N   0  0  0  0  0  0  0  0  0  0  0  0
  141.8670   76.6270  222.0760 H   0  0  0  0  0  0  0  0  0  0  0  0
  141.0293   78.8670  221.9878 H   0  0  0  0  0  0  0  0  0  0  0  0
  141.9529   79.0598  220.4357 H   0  0  0  0  0  0  0  0  0  0  0  0
  137.2796   79.0135  220.6698 H   0  0  0  0  0  0  0  0  0  0  0  0
  136.9709   77.5028  219.8402 H   0  0  0  0  0  0  0  0  0  0  0  0
  136.4892   78.1671  222.6166 H   0  0  0  0  0  0  0  0  0  0  0  0
  136.1737   76.6053  221.8206 H   0  0  0  0  0  0  0  0  0  0  0  0
  138.5956   77.4916  223.4289 H   0  0  0  0  0  0  0  0  0  0  0  0
  137.8765   75.9171  223.4066 H   0  0  0  0  0  0  0  0  0  0  0  0
  140.0804   76.1788  221.7821 H   0  0  0  0  0  0  0  0  0  0  0  0
  137.5877   74.8489  221.3877 H   0  0  0  0  0  0  0  0  0  0  0  0
  138.2792   75.3727  219.8423 H   0  0  0  0  0  0  0  0  0  0  0  0
  140.4300   74.2480  220.4530 H   0  0  0  0  0  0  0  0  0  0  0  0
  137.3609   72.8130  221.9052 H   0  0  0  0  0  0  0  0  0  0  0  0
  137.3917   70.9274  223.5252 H   0  0  0  0  0  0  0  0  0  0  0  0
  141.5952   71.6441  226.0066 H   0  0  0  0  0  0  0  0  0  0  0  0
  139.9879   72.1704  226.4632 H   0  0  0  0  0  0  0  0  0  0  0  0
  142.0813   70.6704  228.1196 H   0  0  0  0  0  0  0  0  0  0  0  0
  140.9212   71.8398  228.7060 H   0  0  0  0  0  0  0  0  0  0  0  0
  140.3712   69.2668  229.2183 H   0  0  0  0  0  0  0  0  0  0  0  0
  139.0337   70.1169  228.5446 H   0  0  0  0  0  0  0  0  0  0  0  0
  141.2680   68.5420  227.0132 H   0  0  0  0  0  0  0  0  0  0  0  0
  139.5718   68.1881  226.9036 H   0  0  0  0  0  0  0  0  0  0  0  0
  141.6549   71.2434  223.8352 H   0  0  0  0  0  0  0  0  0  0  0  0
  141.6197   73.1024  222.2357 H   0  0  0  0  0  0  0  0  0  0  0  0
  144.8391   76.0245  220.2412 H   0  0  0  0  0  0  0  0  0  0  0  0
  146.0200   73.8164  220.2565 H   0  0  0  0  0  0  0  0  0  0  0  0
  145.9183   71.4715  220.0962 H   0  0  0  0  0  0  0  0  0  0  0  0
  142.1168   69.5108  219.5067 H   0  0  0  0  0  0  0  0  0  0  0  0
  140.9386   71.6966  219.5149 H   0  0  0  0  0  0  0  0  0  0  0  0
  1  2  2  0
  2  3  1  0
  3  4  1  0
  4  5  1  0
  5  6  2  0
  5  7  1  0
  7  8  1  0
  8  9  1  0
  9 10  1  0
 10 11  1  0
 11 12  1  0
 12 13  1  0
 13 14  1  0
 14 15  2  0
 15 16  1  0
 16 17  2  0
 17 18  1  0
 18 19  2  0
 18 20  1  0
 20 21  1  0
 21 22  1  0
 22 23  1  0
 23 24  1  0
 17 25  1  0
 25 26  2  0
  2 27  1  0
 27 28  2  0
 28 29  1  0
 29 30  2  0
 30 31  1  0
 31 32  2  0
 32 33  1  0
 32 34  1  0
 34 35  2  0
 35 36  1  0
 36 37  2  0
 11  7  1  0
 26 14  1  0
 37 27  1  0
 24 20  1  0
 36 30  1  0
  3 38  1  0
  4 39  1  0
  4 40  1  0
  8 41  1  0
  8 42  1  0
  9 43  1  0
  9 44  1  0
 10 45  1  0
 10 46  1  0
 11 47  1  1
 12 48  1  0
 12 49  1  0
 13 50  1  0
 15 51  1  0
 16 52  1  0
 21 53  1  0
 21 54  1  0
 22 55  1  0
 22 56  1  0
 23 57  1  0
 23 58  1  0
 24 59  1  0
 24 60  1  0
 25 61  1  0
 26 62  1  0
 28 63  1  0
 29 64  1  0
 31 65  1  0
 34 66  1  0
 35 67  1  0
M  END
>  <smiles>  (15) 
O=C(NCC(=O)N1CCC[C@H]1CNc1ccc(C(=O)N2CCCC2)cc1)c1ccc2cc(F)ccc2n1

>  <score_type>  (15) 
oracle

>  <origin>  (15) 
autodockgpu

>  <m_score__min__energy>  (15) 
-8.9399999999999995

>  <m_primary>  (15) 
energy

>  <rmsd>  (15) 
6.138338348599852

>  <m_score__min__rmsd>  (15) 
6.138338348599852

>  <meeko>  (15) 
{"free_energy": -6.98, "intermolecular_energy": -9.37, "internal_energy": -3.18, "cluster_size": 4, "cluster_id": 10, "rank_in_cluster": 3}

>  <energy>  (15) 
-8.09

>  <cluster_rmsd>  (15) 
1.25

>  <cluster>  (15) 
4

$$$$

     RDKit          3D

 67 71  0  0  0  0  0  0  0  0999 V2000
  140.8720   73.6490  222.3380 O   0  0  0  0  0  0  0  0  0  0  0  0
  140.1610   72.5850  222.3300 C   0  0  0  0  0  0  0  0  0  0  0  0
  139.4680   72.3320  221.1170 N   0  0  0  0  0  0  0  0  0  0  0  0
  139.6540   73.2820  220.0440 C   0  0  0  0  0  0  0  0  0  0  0  0
  140.9770   73.1340  219.3890 C   0  0  0  0  0  0  0  0  0  0  0  0
  141.5200   72.0410  219.1310 O   0  0  0  0  0  0  0  0  0  0  0  0
  141.6470   74.3640  219.0420 N   0  0  0  0  0  0  0  0  0  0  0  0
  141.5830   75.0680  217.7600 C   0  0  0  0  0  0  0  0  0  0  0  0
  142.9270   75.7130  217.6620 C   0  0  0  0  0  0  0  0  0  0  0  0
  143.6970   75.3480  218.9180 C   0  0  0  0  0  0  0  0  0  0  0  0
  142.5370   75.1330  219.8870 C   0  0  1  0  0  0  0  0  0  0  0  0
  142.0060   76.4640  220.3150 C   0  0  0  0  0  0  0  0  0  0  0  0
  141.3670   76.2480  221.6220 N   0  0  0  0  0  0  0  0  0  0  0  0
  140.1580   76.8510  222.0000 C   0  0  0  0  0  0  0  0  0  0  0  0
  139.0580   76.1770  222.4880 C   0  0  0  0  0  0  0  0  0  0  0  0
  137.8900   76.8640  222.8330 C   0  0  0  0  0  0  0  0  0  0  0  0
  137.8100   78.2310  222.6900 C   0  0  0  0  0  0  0  0  0  0  0  0
  136.6280   79.0120  223.0270 C   0  0  0  0  0  0  0  0  0  0  0  0
  135.5350   78.6930  222.4530 O   0  0  0  0  0  0  0  0  0  0  0  0
  136.6980   80.0870  223.9590 N   0  0  0  0  0  0  0  0  0  0  0  0
  137.8950   80.5260  224.6780 C   0  0  0  0  0  0  0  0  0  0  0  0
  137.4110   81.7760  225.4340 C   0  0  0  0  0  0  0  0  0  0  0  0
  136.2440   82.2650  224.5650 C   0  0  0  0  0  0  0  0  0  0  0  0
  135.5550   80.9160  224.3300 C   0  0  0  0  0  0  0  0  0  0  0  0
  138.8980   78.9200  222.2040 C   0  0  0  0  0  0  0  0  0  0  0  0
  140.0410   78.2350  221.8690 C   0  0  0  0  0  0  0  0  0  0  0  0
  140.0970   71.7260  223.5010 C   0  0  0  0  0  0  0  0  0  0  0  0
  139.3890   70.5230  223.3490 C   0  0  0  0  0  0  0  0  0  0  0  0
  139.2740   69.6230  224.3960 C   0  0  0  0  0  0  0  0  0  0  0  0
  139.8820   69.9700  225.5820 C   0  0  0  0  0  0  0  0  0  0  0  0
  139.7540   69.0700  226.6400 C   0  0  0  0  0  0  0  0  0  0  0  0
  140.3560   69.4130  227.8560 C   0  0  0  0  0  0  0  0  0  0  0  0
  140.2250   68.5210  228.8960 F   0  0  0  0  0  0  0  0  0  0  0  0
  141.0470   70.5960  227.9990 C   0  0  0  0  0  0  0  0  0  0  0  0
  141.1730   71.4850  226.9530 C   0  0  0  0  0  0  0  0  0  0  0  0
  140.5770   71.1500  225.7350 C   0  0  0  0  0  0  0  0  0  0  0  0
  140.6720   72.0150  224.6800 N   0  0  0  0  0  0  0  0  0  0  0  0
  138.8570   71.4780  221.0430 H   0  0  0  0  0  0  0  0  0  0  0  0
  138.8667   73.1258  219.2919 H   0  0  0  0  0  0  0  0  0  0  0  0
  139.6009   74.2929  220.4744 H   0  0  0  0  0  0  0  0  0  0  0  0
  141.4210   74.3641  216.9303 H   0  0  0  0  0  0  0  0  0  0  0  0
  140.7524   75.7869  217.7017 H   0  0  0  0  0  0  0  0  0  0  0  0
  143.4586   75.3415  216.7735 H   0  0  0  0  0  0  0  0  0  0  0  0
  142.8286   76.8047  217.5697 H   0  0  0  0  0  0  0  0  0  0  0  0
  144.2901   74.4317  218.7815 H   0  0  0  0  0  0  0  0  0  0  0  0
  144.4379   76.0943  219.2406 H   0  0  0  0  0  0  0  0  0  0  0  0
  142.7510   74.6231  220.8379 H   0  0  0  0  0  0  0  0  0  0  0  0
  142.8267   77.1907  220.4069 H   0  0  0  0  0  0  0  0  0  0  0  0
  141.2926   76.8666  219.5809 H   0  0  0  0  0  0  0  0  0  0  0  0
  141.8320   75.6110  222.3150 H   0  0  0  0  0  0  0  0  0  0  0  0
  139.1001   75.0843  222.6074 H   0  0  0  0  0  0  0  0  0  0  0  0
  137.0257   76.3062  223.2228 H   0  0  0  0  0  0  0  0  0  0  0  0
  138.2415   79.7511  225.3777 H   0  0  0  0  0  0  0  0  0  0  0  0
  138.7485   80.7266  224.0137 H   0  0  0  0  0  0  0  0  0  0  0  0
  137.0702   81.5192  226.4479 H   0  0  0  0  0  0  0  0  0  0  0  0
  138.1970   82.5324  225.5752 H   0  0  0  0  0  0  0  0  0  0  0  0
  135.5960   82.9734  225.1018 H   0  0  0  0  0  0  0  0  0  0  0  0
  136.5239   82.8227  223.6591 H   0  0  0  0  0  0  0  0  0  0  0  0
  135.0661   80.5464  225.2435 H   0  0  0  0  0  0  0  0  0  0  0  0
  134.7480   80.9404  223.5829 H   0  0  0  0  0  0  0  0  0  0  0  0
  138.8527   80.0125  222.0845 H   0  0  0  0  0  0  0  0  0  0  0  0
  140.9002   78.8019  221.4811 H   0  0  0  0  0  0  0  0  0  0  0  0
  138.9178   70.2913  222.3824 H   0  0  0  0  0  0  0  0  0  0  0  0
  138.7237   68.6770  224.2853 H   0  0  0  0  0  0  0  0  0  0  0  0
  139.2008   68.1264  226.5230 H   0  0  0  0  0  0  0  0  0  0  0  0
  141.5080   70.8364  228.9684 H   0  0  0  0  0  0  0  0  0  0  0  0
  141.7255   72.4285  227.0737 H   0  0  0  0  0  0  0  0  0  0  0  0
  1  2  2  0
  2  3  1  0
  3  4  1  0
  4  5  1  0
  5  6  2  0
  5  7  1  0
  7  8  1  0
  8  9  1  0
  9 10  1  0
 10 11  1  0
 11 12  1  0
 12 13  1  0
 13 14  1  0
 14 15  2  0
 15 16  1  0
 16 17  2  0
 17 18  1  0
 18 19  2  0
 18 20  1  0
 20 21  1  0
 21 22  1  0
 22 23  1  0
 23 24  1  0
 17 25  1  0
 25 26  2  0
  2 27  1  0
 27 28  2  0
 28 29  1  0
 29 30  2  0
 30 31  1  0
 31 32  2  0
 32 33  1  0
 32 34  1  0
 34 35  2  0
 35 36  1  0
 36 37  2  0
 11  7  1  0
 26 14  1  0
 37 27  1  0
 24 20  1  0
 36 30  1  0
  3 38  1  0
  4 39  1  0
  4 40  1  0
  8 41  1  0
  8 42  1  0
  9 43  1  0
  9 44  1  0
 10 45  1  0
 10 46  1  0
 11 47  1  1
 12 48  1  0
 12 49  1  0
 13 50  1  0
 15 51  1  0
 16 52  1  0
 21 53  1  0
 21 54  1  0
 22 55  1  0
 22 56  1  0
 23 57  1  0
 23 58  1  0
 24 59  1  0
 24 60  1  0
 25 61  1  0
 26 62  1  0
 28 63  1  0
 29 64  1  0
 31 65  1  0
 34 66  1  0
 35 67  1  0
M  END
>  <smiles>  (16) 
O=C(NCC(=O)N1CCC[C@H]1CNc1ccc(C(=O)N2CCCC2)cc1)c1ccc2cc(F)ccc2n1

>  <score_type>  (16) 
oracle

>  <origin>  (16) 
autodockgpu

>  <m_score__min__energy>  (16) 
-8.9399999999999995

>  <m_primary>  (16) 
energy

>  <rmsd>  (16) 
8.384466575633407

>  <m_score__min__rmsd>  (16) 
8.384466575633407

>  <meeko>  (16) 
{"free_energy": -7.77, "intermolecular_energy": -10.16, "internal_energy": -2.59, "cluster_size": 5, "cluster_id": 3, "rank_in_cluster": 5}

>  <energy>  (16) 
-7.97

>  <cluster_rmsd>  (16) 
1.09

>  <cluster>  (16) 
4

$$$$

     RDKit          3D

 67 71  0  0  0  0  0  0  0  0999 V2000
  140.7080   73.3910  222.6510 O   0  0  0  0  0  0  0  0  0  0  0  0
  139.8760   72.4230  222.7410 C   0  0  0  0  0  0  0  0  0  0  0  0
  138.9530   72.3200  221.6670 N   0  0  0  0  0  0  0  0  0  0  0  0
  139.0670   73.2950  220.6070 C   0  0  0  0  0  0  0  0  0  0  0  0
  138.2490   74.5040  220.8680 C   0  0  0  0  0  0  0  0  0  0  0  0
  137.0050   74.5510  220.7740 O   0  0  0  0  0  0  0  0  0  0  0  0
  138.9800   75.6860  221.2570 N   0  0  0  0  0  0  0  0  0  0  0  0
  139.0720   76.2590  222.6020 C   0  0  0  0  0  0  0  0  0  0  0  0
  139.2120   77.7220  222.3350 C   0  0  0  0  0  0  0  0  0  0  0  0
  139.2050   77.9110  220.8290 C   0  0  0  0  0  0  0  0  0  0  0  0
  139.7480   76.5540  220.3890 C   0  0  1  0  0  0  0  0  0  0  0  0
  141.2260   76.5230  220.6140 C   0  0  0  0  0  0  0  0  0  0  0  0
  141.5380   75.1690  221.0960 N   0  0  0  0  0  0  0  0  0  0  0  0
  142.3610   74.2720  220.4000 C   0  0  0  0  0  0  0  0  0  0  0  0
  141.9100   73.2760  219.5590 C   0  0  0  0  0  0  0  0  0  0  0  0
  142.8080   72.4220  218.9120 C   0  0  0  0  0  0  0  0  0  0  0  0
  144.1650   72.5540  219.1000 C   0  0  0  0  0  0  0  0  0  0  0  0
  145.1590   71.7030  218.4610 C   0  0  0  0  0  0  0  0  0  0  0  0
  145.9390   72.2510  217.6140 O   0  0  0  0  0  0  0  0  0  0  0  0
  145.2500   70.3170  218.7730 N   0  0  0  0  0  0  0  0  0  0  0  0
  144.4130   69.5950  219.7330 C   0  0  0  0  0  0  0  0  0  0  0  0
  144.8690   68.1330  219.5670 C   0  0  0  0  0  0  0  0  0  0  0  0
  145.3990   68.1080  218.1260 C   0  0  0  0  0  0  0  0  0  0  0  0
  146.2120   69.4070  218.1590 C   0  0  0  0  0  0  0  0  0  0  0  0
  144.6330   73.5430  219.9360 C   0  0  0  0  0  0  0  0  0  0  0  0
  143.7420   74.3770  220.5670 C   0  0  0  0  0  0  0  0  0  0  0  0
  139.9090   71.5180  223.8780 C   0  0  0  0  0  0  0  0  0  0  0  0
  139.2990   70.2680  223.6930 C   0  0  0  0  0  0  0  0  0  0  0  0
  139.2820   69.3230  224.7060 C   0  0  0  0  0  0  0  0  0  0  0  0
  139.8860   69.6740  225.8920 C   0  0  0  0  0  0  0  0  0  0  0  0
  139.8570   68.7270  226.9160 C   0  0  0  0  0  0  0  0  0  0  0  0
  140.4550   69.0740  228.1330 C   0  0  0  0  0  0  0  0  0  0  0  0
  140.4220   68.1360  229.1400 F   0  0  0  0  0  0  0  0  0  0  0  0
  141.0500   70.3040  228.3080 C   0  0  0  0  0  0  0  0  0  0  0  0
  141.0800   71.2380  227.2970 C   0  0  0  0  0  0  0  0  0  0  0  0
  140.4860   70.9010  226.0780 C   0  0  0  0  0  0  0  0  0  0  0  0
  140.4850   71.8100  225.0560 N   0  0  0  0  0  0  0  0  0  0  0  0
  138.2330   71.5520  221.6800 H   0  0  0  0  0  0  0  0  0  0  0  0
  140.1213   73.5942  220.5127 H   0  0  0  0  0  0  0  0  0  0  0  0
  138.6982   72.8312  219.6803 H   0  0  0  0  0  0  0  0  0  0  0  0
  138.1629   76.0486  223.1844 H   0  0  0  0  0  0  0  0  0  0  0  0
  139.9017   75.8450  223.1938 H   0  0  0  0  0  0  0  0  0  0  0  0
  138.3711   78.2688  222.7865 H   0  0  0  0  0  0  0  0  0  0  0  0
  140.1450   78.1089  222.7708 H   0  0  0  0  0  0  0  0  0  0  0  0
  138.1898   78.0886  220.4446 H   0  0  0  0  0  0  0  0  0  0  0  0
  139.7776   78.7782  220.4682 H   0  0  0  0  0  0  0  0  0  0  0  0
  139.6436   76.2795  219.3289 H   0  0  0  0  0  0  0  0  0  0  0  0
  141.7594   76.7256  219.6736 H   0  0  0  0  0  0  0  0  0  0  0  0
  141.5378   77.2890  221.3393 H   0  0  0  0  0  0  0  0  0  0  0  0
  141.1280   74.8480  222.0080 H   0  0  0  0  0  0  0  0  0  0  0  0
  140.8293   73.1520  219.3953 H   0  0  0  0  0  0  0  0  0  0  0  0
  142.4256   71.6354  218.2449 H   0  0  0  0  0  0  0  0  0  0  0  0
  144.5926   69.9503  220.7584 H   0  0  0  0  0  0  0  0  0  0  0  0
  143.3361   69.7339  219.5567 H   0  0  0  0  0  0  0  0  0  0  0  0
  145.6622   67.8805  220.2861 H   0  0  0  0  0  0  0  0  0  0  0  0
  144.0681   67.4017  219.7510 H   0  0  0  0  0  0  0  0  0  0  0  0
  146.0308   67.2287  217.9322 H   0  0  0  0  0  0  0  0  0  0  0  0
  144.6347   68.0433  217.3375 H   0  0  0  0  0  0  0  0  0  0  0  0
  147.1184   69.3016  218.7732 H   0  0  0  0  0  0  0  0  0  0  0  0
  146.5864   69.7347  217.1780 H   0  0  0  0  0  0  0  0  0  0  0  0
  145.7142   73.6647  220.0977 H   0  0  0  0  0  0  0  0  0  0  0  0
  144.1341   75.1606  221.2320 H   0  0  0  0  0  0  0  0  0  0  0  0
  138.8264   70.0345  222.7275 H   0  0  0  0  0  0  0  0  0  0  0  0
  138.8086   68.3396  224.5691 H   0  0  0  0  0  0  0  0  0  0  0  0
  139.3823   67.7451  226.7725 H   0  0  0  0  0  0  0  0  0  0  0  0
  141.5114   70.5453  229.2770 H   0  0  0  0  0  0  0  0  0  0  0  0
  141.5565   72.2185  227.4442 H   0  0  0  0  0  0  0  0  0  0  0  0
  1  2  2  0
  2  3  1  0
  3  4  1  0
  4  5  1  0
  5  6  2  0
  5  7  1  0
  7  8  1  0
  8  9  1  0
  9 10  1  0
 10 11  1  0
 11 12  1  0
 12 13  1  0
 13 14  1  0
 14 15  2  0
 15 16  1  0
 16 17  2  0
 17 18  1  0
 18 19  2  0
 18 20  1  0
 20 21  1  0
 21 22  1  0
 22 23  1  0
 23 24  1  0
 17 25  1  0
 25 26  2  0
  2 27  1  0
 27 28  2  0
 28 29  1  0
 29 30  2  0
 30 31  1  0
 31 32  2  0
 32 33  1  0
 32 34  1  0
 34 35  2  0
 35 36  1  0
 36 37  2  0
 11  7  1  0
 26 14  1  0
 37 27  1  0
 24 20  1  0
 36 30  1  0
  3 38  1  0
  4 39  1  0
  4 40  1  0
  8 41  1  0
  8 42  1  0
  9 43  1  0
  9 44  1  0
 10 45  1  0
 10 46  1  0
 11 47  1  6
 12 48  1  0
 12 49  1  0
 13 50  1  0
 15 51  1  0
 16 52  1  0
 21 53  1  0
 21 54  1  0
 22 55  1  0
 22 56  1  0
 23 57  1  0
 23 58  1  0
 24 59  1  0
 24 60  1  0
 25 61  1  0
 26 62  1  0
 28 63  1  0
 29 64  1  0
 31 65  1  0
 34 66  1  0
 35 67  1  0
M  END
>  <smiles>  (17) 
O=C(NCC(=O)N1CCC[C@H]1CNc1ccc(C(=O)N2CCCC2)cc1)c1ccc2cc(F)ccc2n1

>  <score_type>  (17) 
oracle

>  <origin>  (17) 
autodockgpu

>  <m_score__min__energy>  (17) 
-8.9399999999999995

>  <m_primary>  (17) 
energy

>  <rmsd>  (17) 
8.317263365409682

>  <m_score__min__rmsd>  (17) 
8.317263365409682

>  <meeko>  (17) 
{"free_energy": -8.2, "intermolecular_energy": -10.59, "internal_energy": -2.66, "cluster_size": 4, "cluster_id": 1, "rank_in_cluster": 4}

>  <energy>  (17) 
-7.92

>  <cluster_rmsd>  (17) 
1.62

>  <cluster>  (17) 
4

$$$$

     RDKit          3D

 67 71  0  0  0  0  0  0  0  0999 V2000
  140.3130   74.9370  222.3330 O   0  0  0  0  0  0  0  0  0  0  0  0
  141.0060   75.6480  221.5270 C   0  0  0  0  0  0  0  0  0  0  0  0
  141.6590   74.9240  220.4940 N   0  0  0  0  0  0  0  0  0  0  0  0
  141.4560   73.4940  220.4650 C   0  0  0  0  0  0  0  0  0  0  0  0
  140.9450   73.0280  219.1530 C   0  0  0  0  0  0  0  0  0  0  0  0
  141.6590   72.5780  218.2340 O   0  0  0  0  0  0  0  0  0  0  0  0
  139.5160   73.1170  218.9680 N   0  0  0  0  0  0  0  0  0  0  0  0
  138.7090   72.3820  217.9920 C   0  0  0  0  0  0  0  0  0  0  0  0
  137.5980   73.3340  217.6890 C   0  0  0  0  0  0  0  0  0  0  0  0
  137.8240   74.5770  218.5290 C   0  0  0  0  0  0  0  0  0  0  0  0
  138.6000   73.9710  219.6960 C   0  0  1  0  0  0  0  0  0  0  0  0
  137.6460   73.2510  220.5950 C   0  0  0  0  0  0  0  0  0  0  0  0
  138.1970   73.3690  221.9540 N   0  0  0  0  0  0  0  0  0  0  0  0
  138.6310   72.2700  222.7090 C   0  0  0  0  0  0  0  0  0  0  0  0
  139.9470   71.8800  222.8500 C   0  0  0  0  0  0  0  0  0  0  0  0
  140.2850   70.7630  223.6200 C   0  0  0  0  0  0  0  0  0  0  0  0
  139.3120   70.0240  224.2550 C   0  0  0  0  0  0  0  0  0  0  0  0
  139.5880   68.8510  225.0710 C   0  0  0  0  0  0  0  0  0  0  0  0
  139.2110   67.7210  224.6150 O   0  0  0  0  0  0  0  0  0  0  0  0
  140.2530   68.9670  226.3250 N   0  0  0  0  0  0  0  0  0  0  0  0
  140.7350   70.2090  226.9310 C   0  0  0  0  0  0  0  0  0  0  0  0
  141.2470   69.7520  228.3090 C   0  0  0  0  0  0  0  0  0  0  0  0
  140.4150   68.4890  228.5750 C   0  0  0  0  0  0  0  0  0  0  0  0
  140.5480   67.8340  227.1960 C   0  0  0  0  0  0  0  0  0  0  0  0
  137.9940   70.4000  224.1250 C   0  0  0  0  0  0  0  0  0  0  0  0
  137.6720   71.4990  223.3670 C   0  0  0  0  0  0  0  0  0  0  0  0
  141.0920   77.0890  221.6930 C   0  0  0  0  0  0  0  0  0  0  0  0
  141.0680   77.5640  223.0130 C   0  0  0  0  0  0  0  0  0  0  0  0
  141.1550   78.9200  223.2880 C   0  0  0  0  0  0  0  0  0  0  0  0
  141.2640   79.7660  222.2070 C   0  0  0  0  0  0  0  0  0  0  0  0
  141.3380   81.1310  222.4830 C   0  0  0  0  0  0  0  0  0  0  0  0
  141.4360   82.0060  221.3950 C   0  0  0  0  0  0  0  0  0  0  0  0
  141.5080   83.3520  221.6750 F   0  0  0  0  0  0  0  0  0  0  0  0
  141.4580   81.5330  220.1020 C   0  0  0  0  0  0  0  0  0  0  0  0
  141.3850   80.1840  219.8290 C   0  0  0  0  0  0  0  0  0  0  0  0
  141.2880   79.3030  220.9090 C   0  0  0  0  0  0  0  0  0  0  0  0
  141.2000   77.9580  220.6740 N   0  0  0  0  0  0  0  0  0  0  0  0
  142.2550   75.4450  219.7990 H   0  0  0  0  0  0  0  0  0  0  0  0
  142.4152   72.9957  220.6690 H   0  0  0  0  0  0  0  0  0  0  0  0
  140.7048   73.2436  221.2286 H   0  0  0  0  0  0  0  0  0  0  0  0
  139.2925   72.1547  217.0876 H   0  0  0  0  0  0  0  0  0  0  0  0
  138.3564   71.4094  218.3658 H   0  0  0  0  0  0  0  0  0  0  0  0
  137.6077   73.5954  216.6205 H   0  0  0  0  0  0  0  0  0  0  0  0
  136.6233   72.8801  217.9213 H   0  0  0  0  0  0  0  0  0  0  0  0
  138.4180   75.3306  217.9913 H   0  0  0  0  0  0  0  0  0  0  0  0
  136.9088   75.1175  218.8122 H   0  0  0  0  0  0  0  0  0  0  0  0
  139.1244   74.6590  220.3755 H   0  0  0  0  0  0  0  0  0  0  0  0
  136.6502   73.7156  220.5453 H   0  0  0  0  0  0  0  0  0  0  0  0
  137.5314   72.1980  220.2981 H   0  0  0  0  0  0  0  0  0  0  0  0
  138.2720   74.3210  222.3900 H   0  0  0  0  0  0  0  0  0  0  0  0
  140.7403   72.4552  222.3503 H   0  0  0  0  0  0  0  0  0  0  0  0
  141.3409   70.4710  223.7197 H   0  0  0  0  0  0  0  0  0  0  0  0
  141.5475   70.6496  226.3345 H   0  0  0  0  0  0  0  0  0  0  0  0
  139.9601   70.9871  226.9949 H   0  0  0  0  0  0  0  0  0  0  0  0
  142.3217   69.5196  228.2760 H   0  0  0  0  0  0  0  0  0  0  0  0
  141.1403   70.5183  229.0910 H   0  0  0  0  0  0  0  0  0  0  0  0
  140.8485   67.8676  229.3724 H   0  0  0  0  0  0  0  0  0  0  0  0
  139.3863   68.6599  228.9252 H   0  0  0  0  0  0  0  0  0  0  0  0
  141.5642   67.4479  227.0276 H   0  0  0  0  0  0  0  0  0  0  0  0
  139.8976   66.9603  227.0424 H   0  0  0  0  0  0  0  0  0  0  0  0
  137.2027   69.8230  224.6258 H   0  0  0  0  0  0  0  0  0  0  0  0
  136.6134   71.7835  223.2747 H   0  0  0  0  0  0  0  0  0  0  0  0
  140.9786   76.8484  223.8437 H   0  0  0  0  0  0  0  0  0  0  0  0
  141.1378   79.3016  224.3196 H   0  0  0  0  0  0  0  0  0  0  0  0
  141.3200   81.5059  223.5170 H   0  0  0  0  0  0  0  0  0  0  0  0
  141.5355   82.2472  219.2690 H   0  0  0  0  0  0  0  0  0  0  0  0
  141.4025   79.8128  218.7937 H   0  0  0  0  0  0  0  0  0  0  0  0
  1  2  2  0
  2  3  1  0
  3  4  1  0
  4  5  1  0
  5  6  2  0
  5  7  1  0
  7  8  1  0
  8  9  1  0
  9 10  1  0
 10 11  1  0
 11 12  1  0
 12 13  1  0
 13 14  1  0
 14 15  2  0
 15 16  1  0
 16 17  2  0
 17 18  1  0
 18 19  2  0
 18 20  1  0
 20 21  1  0
 21 22  1  0
 22 23  1  0
 23 24  1  0
 17 25  1  0
 25 26  2  0
  2 27  1  0
 27 28  2  0
 28 29  1  0
 29 30  2  0
 30 31  1  0
 31 32  2  0
 32 33  1  0
 32 34  1  0
 34 35  2  0
 35 36  1  0
 36 37  2  0
 11  7  1  0
 26 14  1  0
 37 27  1  0
 24 20  1  0
 36 30  1  0
  3 38  1  0
  4 39  1  0
  4 40  1  0
  8 41  1  0
  8 42  1  0
  9 43  1  0
  9 44  1  0
 10 45  1  0
 10 46  1  0
 11 47  1  1
 12 48  1  0
 12 49  1  0
 13 50  1  0
 15 51  1  0
 16 52  1  0
 21 53  1  0
 21 54  1  0
 22 55  1  0
 22 56  1  0
 23 57  1  0
 23 58  1  0
 24 59  1  0
 24 60  1  0
 25 61  1  0
 26 62  1  0
 28 63  1  0
 29 64  1  0
 31 65  1  0
 34 66  1  0
 35 67  1  0
M  END
>  <smiles>  (18) 
O=C(NCC(=O)N1CCC[C@H]1CNc1ccc(C(=O)N2CCCC2)cc1)c1ccc2cc(F)ccc2n1

>  <score_type>  (18) 
oracle

>  <origin>  (18) 
autodockgpu

>  <m_score__min__energy>  (18) 
-8.9399999999999995

>  <m_primary>  (18) 
energy

>  <rmsd>  (18) 
3.556125265108208

>  <m_score__min__rmsd>  (18) 
3.556125265108208

>  <meeko>  (18) 
{"free_energy": -7.67, "intermolecular_energy": -10.06, "internal_energy": -2.83, "cluster_size": 5, "cluster_id": 6, "rank_in_cluster": 5}

>  <energy>  (18) 
-7.11

>  <cluster_rmsd>  (18) 
1.78

>  <cluster>  (18) 
4

$$$$

     RDKit          3D

 67 71  0  0  0  0  0  0  0  0999 V2000
  141.2630   78.8650  224.0860 O   0  0  0  0  0  0  0  0  0  0  0  0
  141.4510   78.3720  222.9210 C   0  0  0  0  0  0  0  0  0  0  0  0
  142.4390   79.0300  222.1410 N   0  0  0  0  0  0  0  0  0  0  0  0
  143.1150   80.1530  222.7490 C   0  0  0  0  0  0  0  0  0  0  0  0
  142.1930   81.2820  223.0180 C   0  0  0  0  0  0  0  0  0  0  0  0
  142.0480   81.8290  224.1310 O   0  0  0  0  0  0  0  0  0  0  0  0
  141.4290   81.7530  221.8880 N   0  0  0  0  0  0  0  0  0  0  0  0
  141.0910   83.1430  221.5730 C   0  0  0  0  0  0  0  0  0  0  0  0
  139.7700   83.0210  220.8850 C   0  0  0  0  0  0  0  0  0  0  0  0
  139.4220   81.5450  220.8310 C   0  0  0  0  0  0  0  0  0  0  0  0
  140.8250   80.9400  220.8520 C   0  0  1  0  0  0  0  0  0  0  0  0
  141.4390   81.0860  219.4970 C   0  0  0  0  0  0  0  0  0  0  0  0
  140.8490   80.0260  218.6650 N   0  0  0  0  0  0  0  0  0  0  0  0
  141.2950   78.6960  218.6780 C   0  0  0  0  0  0  0  0  0  0  0  0
  142.6140   78.3050  218.5820 C   0  0  0  0  0  0  0  0  0  0  0  0
  142.9630   76.9510  218.5960 C   0  0  0  0  0  0  0  0  0  0  0  0
  141.9970   75.9760  218.7050 C   0  0  0  0  0  0  0  0  0  0  0  0
  142.2850   74.5490  218.7260 C   0  0  0  0  0  0  0  0  0  0  0  0
  141.4720   73.7810  218.1130 O   0  0  0  0  0  0  0  0  0  0  0  0
  143.4280   74.0390  219.4050 N   0  0  0  0  0  0  0  0  0  0  0  0
  144.4240   74.8320  220.1270 C   0  0  0  0  0  0  0  0  0  0  0  0
  145.3410   73.7630  220.7490 C   0  0  0  0  0  0  0  0  0  0  0  0
  144.4100   72.5480  220.8650 C   0  0  0  0  0  0  0  0  0  0  0  0
  143.7660   72.6210  219.4760 C   0  0  0  0  0  0  0  0  0  0  0  0
  140.6760   76.3490  218.8010 C   0  0  0  0  0  0  0  0  0  0  0  0
  140.3430   77.6820  218.7870 C   0  0  0  0  0  0  0  0  0  0  0  0
  140.6890   77.2210  222.4680 C   0  0  0  0  0  0  0  0  0  0  0  0
  139.3180   77.4320  222.2510 C   0  0  0  0  0  0  0  0  0  0  0  0
  138.4980   76.4060  221.8070 C   0  0  0  0  0  0  0  0  0  0  0  0
  139.0930   75.1830  221.5960 C   0  0  0  0  0  0  0  0  0  0  0  0
  138.2640   74.1480  221.1620 C   0  0  0  0  0  0  0  0  0  0  0  0
  138.8510   72.8950  220.9550 C   0  0  0  0  0  0  0  0  0  0  0  0
  138.0280   71.8770  220.5280 F   0  0  0  0  0  0  0  0  0  0  0  0
  140.1970   72.6950  221.1720 C   0  0  0  0  0  0  0  0  0  0  0  0
  141.0150   73.7170  221.6000 C   0  0  0  0  0  0  0  0  0  0  0  0
  140.4380   74.9720  221.8090 C   0  0  0  0  0  0  0  0  0  0  0  0
  141.2190   76.0070  222.2460 N   0  0  0  0  0  0  0  0  0  0  0  0
  142.6400   78.6840  221.1670 H   0  0  0  0  0  0  0  0  0  0  0  0
  143.5612   79.8257  223.6996 H   0  0  0  0  0  0  0  0  0  0  0  0
  143.8845   80.5051  222.0462 H   0  0  0  0  0  0  0  0  0  0  0  0
  141.0054   83.7462  222.4889 H   0  0  0  0  0  0  0  0  0  0  0  0
  141.8536   83.6460  220.9604 H   0  0  0  0  0  0  0  0  0  0  0  0
  139.0003   83.5685  221.4487 H   0  0  0  0  0  0  0  0  0  0  0  0
  139.8187   83.4462  219.8717 H   0  0  0  0  0  0  0  0  0  0  0  0
  138.8299   81.2331  221.7040 H   0  0  0  0  0  0  0  0  0  0  0  0
  138.8018   81.2465  219.9729 H   0  0  0  0  0  0  0  0  0  0  0  0
  140.9173   79.8641  221.0613 H   0  0  0  0  0  0  0  0  0  0  0  0
  141.2056   82.0754  219.0768 H   0  0  0  0  0  0  0  0  0  0  0  0
  142.5347   80.9991  219.5410 H   0  0  0  0  0  0  0  0  0  0  0  0
  140.0530   80.2680  218.0240 H   0  0  0  0  0  0  0  0  0  0  0  0
  143.4015   79.0679  218.4933 H   0  0  0  0  0  0  0  0  0  0  0  0
  144.0214   76.6615  218.5190 H   0  0  0  0  0  0  0  0  0  0  0  0
  144.9853   75.4814  219.4391 H   0  0  0  0  0  0  0  0  0  0  0  0
  143.9796   75.5066  220.8736 H   0  0  0  0  0  0  0  0  0  0  0  0
  146.1978   73.5454  220.0944 H   0  0  0  0  0  0  0  0  0  0  0  0
  145.7810   74.0697  221.7093 H   0  0  0  0  0  0  0  0  0  0  0  0
  144.9675   71.6116  221.0146 H   0  0  0  0  0  0  0  0  0  0  0  0
  143.7128   72.5602  221.7158 H   0  0  0  0  0  0  0  0  0  0  0  0
  144.4750   72.3339  218.6855 H   0  0  0  0  0  0  0  0  0  0  0  0
  142.9125   71.9418  219.3336 H   0  0  0  0  0  0  0  0  0  0  0  0
  139.8905   75.5839  218.8885 H   0  0  0  0  0  0  0  0  0  0  0  0
  139.2819   77.9612  218.8650 H   0  0  0  0  0  0  0  0  0  0  0  0
  138.8876   78.4272  222.4362 H   0  0  0  0  0  0  0  0  0  0  0  0
  137.4233   76.5620  221.6318 H   0  0  0  0  0  0  0  0  0  0  0  0
  137.1900   74.3110  220.9892 H   0  0  0  0  0  0  0  0  0  0  0  0
  140.6275   71.6975  220.9996 H   0  0  0  0  0  0  0  0  0  0  0  0
  142.0886   73.5504  221.7718 H   0  0  0  0  0  0  0  0  0  0  0  0
  1  2  2  0
  2  3  1  0
  3  4  1  0
  4  5  1  0
  5  6  2  0
  5  7  1  0
  7  8  1  0
  8  9  1  0
  9 10  1  0
 10 11  1  0
 11 12  1  0
 12 13  1  0
 13 14  1  0
 14 15  2  0
 15 16  1  0
 16 17  2  0
 17 18  1  0
 18 19  2  0
 18 20  1  0
 20 21  1  0
 21 22  1  0
 22 23  1  0
 23 24  1  0
 17 25  1  0
 25 26  2  0
  2 27  1  0
 27 28  2  0
 28 29  1  0
 29 30  2  0
 30 31  1  0
 31 32  2  0
 32 33  1  0
 32 34  1  0
 34 35  2  0
 35 36  1  0
 36 37  2  0
 11  7  1  0
 26 14  1  0
 37 27  1  0
 24 20  1  0
 36 30  1  0
  3 38  1  0
  4 39  1  0
  4 40  1  0
  8 41  1  0
  8 42  1  0
  9 43  1  0
  9 44  1  0
 10 45  1  0
 10 46  1  0
 11 47  1  1
 12 48  1  0
 12 49  1  0
 13 50  1  0
 15 51  1  0
 16 52  1  0
 21 53  1  0
 21 54  1  0
 22 55  1  0
 22 56  1  0
 23 57  1  0
 23 58  1  0
 24 59  1  0
 24 60  1  0
 25 61  1  0
 26 62  1  0
 28 63  1  0
 29 64  1  0
 31 65  1  0
 34 66  1  0
 35 67  1  0
M  END
>  <smiles>  (19) 
O=C(NCC(=O)N1CCC[C@H]1CNc1ccc(C(=O)N2CCCC2)cc1)c1ccc2cc(F)ccc2n1

>  <score_type>  (19) 
oracle

>  <origin>  (19) 
autodockgpu

>  <m_score__min__energy>  (19) 
-8.9399999999999995

>  <m_primary>  (19) 
energy

>  <rmsd>  (19) 
7.924431522352841

>  <m_score__min__rmsd>  (19) 
7.924431522352841

>  <meeko>  (19) 
{"free_energy": -6.55, "intermolecular_energy": -8.94, "internal_energy": -3.81, "cluster_size": 1, "cluster_id": 21, "rank_in_cluster": 1}

>  <energy>  (19) 
-8.39

>  <cluster_rmsd>  (19) 
0.0

>  <cluster>  (19) 
5

$$$$

     RDKit          3D

 67 71  0  0  0  0  0  0  0  0999 V2000
  140.6900   73.4880  222.1120 O   0  0  0  0  0  0  0  0  0  0  0  0
  140.5650   72.2150  222.1500 C   0  0  0  0  0  0  0  0  0  0  0  0
  140.6970   71.5590  220.8980 N   0  0  0  0  0  0  0  0  0  0  0  0
  140.9660   72.3890  219.7460 C   0  0  0  0  0  0  0  0  0  0  0  0
  139.7910   73.2080  219.3610 C   0  0  0  0  0  0  0  0  0  0  0  0
  139.8540   74.2930  218.7470 O   0  0  0  0  0  0  0  0  0  0  0  0
  138.5030   72.6780  219.7410 N   0  0  0  0  0  0  0  0  0  0  0  0
  138.1240   71.2660  219.8210 C   0  0  0  0  0  0  0  0  0  0  0  0
  136.6700   71.2880  219.4750 C   0  0  0  0  0  0  0  0  0  0  0  0
  136.2860   72.7340  219.2230 C   0  0  0  0  0  0  0  0  0  0  0  0
  137.3230   73.4400  220.0940 C   0  0  1  0  0  0  0  0  0  0  0  0
  136.9100   73.3340  221.5270 C   0  0  0  0  0  0  0  0  0  0  0  0
  137.9750   73.9810  222.3090 N   0  0  0  0  0  0  0  0  0  0  0  0
  138.1680   75.3700  222.3480 C   0  0  0  0  0  0  0  0  0  0  0  0
  137.3100   76.2690  222.9450 C   0  0  0  0  0  0  0  0  0  0  0  0
  137.5820   77.6410  222.9280 C   0  0  0  0  0  0  0  0  0  0  0  0
  138.7140   78.1260  222.3120 C   0  0  0  0  0  0  0  0  0  0  0  0
  139.0620   79.5390  222.2530 C   0  0  0  0  0  0  0  0  0  0  0  0
  138.2460   80.3160  221.6560 O   0  0  0  0  0  0  0  0  0  0  0  0
  140.2640   80.0250  222.8410 N   0  0  0  0  0  0  0  0  0  0  0  0
  141.2580   79.2220  223.5560 C   0  0  0  0  0  0  0  0  0  0  0  0
  142.3790   80.2350  223.8540 C   0  0  0  0  0  0  0  0  0  0  0  0
  142.2010   81.2720  222.7350 C   0  0  0  0  0  0  0  0  0  0  0  0
  140.6770   81.4240  222.8060 C   0  0  0  0  0  0  0  0  0  0  0  0
  139.5810   77.2420  221.7100 C   0  0  0  0  0  0  0  0  0  0  0  0
  139.3050   75.8970  221.7340 C   0  0  0  0  0  0  0  0  0  0  0  0
  140.3090   71.5310  223.4060 C   0  0  0  0  0  0  0  0  0  0  0  0
  139.5420   70.3590  223.3280 C   0  0  0  0  0  0  0  0  0  0  0  0
  139.2460   69.6200  224.4630 C   0  0  0  0  0  0  0  0  0  0  0  0
  139.7390   70.0950  225.6580 C   0  0  0  0  0  0  0  0  0  0  0  0
  139.4300   69.3580  226.8010 C   0  0  0  0  0  0  0  0  0  0  0  0
  139.9120   69.8340  228.0260 C   0  0  0  0  0  0  0  0  0  0  0  0
  139.6020   69.1030  229.1510 F   0  0  0  0  0  0  0  0  0  0  0  0
  140.6630   70.9870  228.0950 C   0  0  0  0  0  0  0  0  0  0  0  0
  140.9680   71.7140  226.9660 C   0  0  0  0  0  0  0  0  0  0  0  0
  140.4920   71.2460  225.7380 C   0  0  0  0  0  0  0  0  0  0  0  0
  140.7650   71.9500  224.5980 N   0  0  0  0  0  0  0  0  0  0  0  0
  140.5970   70.5110  220.8530 H   0  0  0  0  0  0  0  0  0  0  0  0
  141.8047   73.0608  219.9811 H   0  0  0  0  0  0  0  0  0  0  0  0
  141.2087   71.7273  218.9014 H   0  0  0  0  0  0  0  0  0  0  0  0
  138.6932   70.6623  219.0987 H   0  0  0  0  0  0  0  0  0  0  0  0
  138.3289   70.8172  220.8042 H   0  0  0  0  0  0  0  0  0  0  0  0
  136.4894   70.6879  218.5710 H   0  0  0  0  0  0  0  0  0  0  0  0
  136.0694   70.8633  220.2929 H   0  0  0  0  0  0  0  0  0  0  0  0
  136.3912   73.0053  218.1622 H   0  0  0  0  0  0  0  0  0  0  0  0
  135.2399   72.9825  219.4551 H   0  0  0  0  0  0  0  0  0  0  0  0
  137.4663   74.5206  219.9466 H   0  0  0  0  0  0  0  0  0  0  0  0
  135.9519   73.8502  221.6871 H   0  0  0  0  0  0  0  0  0  0  0  0
  136.7718   72.2851  221.8282 H   0  0  0  0  0  0  0  0  0  0  0  0
  138.6300   73.3820  222.8690 H   0  0  0  0  0  0  0  0  0  0  0  0
  136.3993   75.9024  223.4414 H   0  0  0  0  0  0  0  0  0  0  0  0
  136.8841   78.3400  223.4119 H   0  0  0  0  0  0  0  0  0  0  0  0
  140.8387   78.8123  224.4868 H   0  0  0  0  0  0  0  0  0  0  0  0
  141.6048   78.3513  222.9802 H   0  0  0  0  0  0  0  0  0  0  0  0
  142.2464   80.6937  224.8450 H   0  0  0  0  0  0  0  0  0  0  0  0
  143.3818   79.7834  223.8760 H   0  0  0  0  0  0  0  0  0  0  0  0
  142.7223   82.2149  222.9570 H   0  0  0  0  0  0  0  0  0  0  0  0
  142.6075   80.9893  221.7528 H   0  0  0  0  0  0  0  0  0  0  0  0
  140.3656   81.9609  223.7142 H   0  0  0  0  0  0  0  0  0  0  0  0
  140.2387   82.0078  221.9831 H   0  0  0  0  0  0  0  0  0  0  0  0
  140.4899   77.6111  221.2125 H   0  0  0  0  0  0  0  0  0  0  0  0
  140.0099   75.2059  221.2487 H   0  0  0  0  0  0  0  0  0  0  0  0
  139.1692   70.0207  222.3499 H   0  0  0  0  0  0  0  0  0  0  0  0
  138.6466   68.6991  224.4116 H   0  0  0  0  0  0  0  0  0  0  0  0
  138.8303   68.4377  226.7421 H   0  0  0  0  0  0  0  0  0  0  0  0
  141.0269   71.3344  229.0732 H   0  0  0  0  0  0  0  0  0  0  0  0
  141.5675   72.6342  227.0286 H   0  0  0  0  0  0  0  0  0  0  0  0
  1  2  2  0
  2  3  1  0
  3  4  1  0
  4  5  1  0
  5  6  2  0
  5  7  1  0
  7  8  1  0
  8  9  1  0
  9 10  1  0
 10 11  1  0
 11 12  1  0
 12 13  1  0
 13 14  1  0
 14 15  2  0
 15 16  1  0
 16 17  2  0
 17 18  1  0
 18 19  2  0
 18 20  1  0
 20 21  1  0
 21 22  1  0
 22 23  1  0
 23 24  1  0
 17 25  1  0
 25 26  2  0
  2 27  1  0
 27 28  2  0
 28 29  1  0
 29 30  2  0
 30 31  1  0
 31 32  2  0
 32 33  1  0
 32 34  1  0
 34 35  2  0
 35 36  1  0
 36 37  2  0
 11  7  1  0
 26 14  1  0
 37 27  1  0
 24 20  1  0
 36 30  1  0
  3 38  1  0
  4 39  1  0
  4 40  1  0
  8 41  1  0
  8 42  1  0
  9 43  1  0
  9 44  1  0
 10 45  1  0
 10 46  1  0
 11 47  1  6
 12 48  1  0
 12 49  1  0
 13 50  1  0
 15 51  1  0
 16 52  1  0
 21 53  1  0
 21 54  1  0
 22 55  1  0
 22 56  1  0
 23 57  1  0
 23 58  1  0
 24 59  1  0
 24 60  1  0
 25 61  1  0
 26 62  1  0
 28 63  1  0
 29 64  1  0
 31 65  1  0
 34 66  1  0
 35 67  1  0
M  END
>  <smiles>  (20) 
O=C(NCC(=O)N1CCC[C@H]1CNc1ccc(C(=O)N2CCCC2)cc1)c1ccc2cc(F)ccc2n1

>  <score_type>  (20) 
oracle

>  <origin>  (20) 
autodockgpu

>  <m_score__min__energy>  (20) 
-8.9399999999999995

>  <m_primary>  (20) 
energy

>  <rmsd>  (20) 
8.380127538703556

>  <m_score__min__rmsd>  (20) 
8.380127538703556

>  <meeko>  (20) 
{"free_energy": -7.59, "intermolecular_energy": -9.98, "internal_energy": -3.03, "cluster_size": 2, "cluster_id": 13, "rank_in_cluster": 2}

>  <energy>  (20) 
-8.17

>  <cluster_rmsd>  (20) 
0.0

>  <cluster>  (20) 
6

$$$$

     RDKit          3D

 67 71  0  0  0  0  0  0  0  0999 V2000
  139.9710   72.9780  222.7360 O   0  0  0  0  0  0  0  0  0  0  0  0
  140.0890   71.7080  222.8400 C   0  0  0  0  0  0  0  0  0  0  0  0
  140.0240   70.9940  221.6140 N   0  0  0  0  0  0  0  0  0  0  0  0
  139.8500   71.7730  220.4090 C   0  0  0  0  0  0  0  0  0  0  0  0
  141.0130   71.6580  219.4970 C   0  0  0  0  0  0  0  0  0  0  0  0
  141.3780   70.6000  218.9440 O   0  0  0  0  0  0  0  0  0  0  0  0
  141.7470   72.8780  219.2570 N   0  0  0  0  0  0  0  0  0  0  0  0
  141.3940   73.9440  218.3170 C   0  0  0  0  0  0  0  0  0  0  0  0
  142.7260   74.4790  217.9000 C   0  0  0  0  0  0  0  0  0  0  0  0
  143.7850   73.6860  218.6430 C   0  0  0  0  0  0  0  0  0  0  0  0
  142.9910   73.2770  219.8810 C   0  0  1  0  0  0  0  0  0  0  0  0
  142.8860   74.4500  220.8030 C   0  0  0  0  0  0  0  0  0  0  0  0
  141.4720   74.5310  221.2010 N   0  0  0  0  0  0  0  0  0  0  0  0
  140.7810   75.7430  221.3550 C   0  0  0  0  0  0  0  0  0  0  0  0
  139.8400   76.2320  220.4740 C   0  0  0  0  0  0  0  0  0  0  0  0
  139.2070   77.4570  220.7070 C   0  0  0  0  0  0  0  0  0  0  0  0
  139.5100   78.2040  221.8230 C   0  0  0  0  0  0  0  0  0  0  0  0
  138.8930   79.4870  222.1310 C   0  0  0  0  0  0  0  0  0  0  0  0
  137.6690   79.4740  222.4880 O   0  0  0  0  0  0  0  0  0  0  0  0
  139.6320   80.7000  222.0350 N   0  0  0  0  0  0  0  0  0  0  0  0
  141.0370   80.8230  221.6460 C   0  0  0  0  0  0  0  0  0  0  0  0
  141.2570   82.3460  221.5980 C   0  0  0  0  0  0  0  0  0  0  0  0
  139.8450   82.8810  221.3140 C   0  0  0  0  0  0  0  0  0  0  0  0
  139.0700   82.0170  222.3160 C   0  0  0  0  0  0  0  0  0  0  0  0
  140.4480   77.7310  222.7120 C   0  0  0  0  0  0  0  0  0  0  0  0
  141.0630   76.5260  222.4740 C   0  0  0  0  0  0  0  0  0  0  0  0
  140.2740   71.0830  224.1390 C   0  0  0  0  0  0  0  0  0  0  0  0
  140.7770   71.9060  225.1580 C   0  0  0  0  0  0  0  0  0  0  0  0
  140.9820   71.4170  226.4380 C   0  0  0  0  0  0  0  0  0  0  0  0
  140.6700   70.0930  226.6530 C   0  0  0  0  0  0  0  0  0  0  0  0
  140.8900   69.5970  227.9390 C   0  0  0  0  0  0  0  0  0  0  0  0
  140.5910   68.2500  228.1710 C   0  0  0  0  0  0  0  0  0  0  0  0
  140.8100   67.7670  229.4410 F   0  0  0  0  0  0  0  0  0  0  0  0
  140.0980   67.4470  227.1660 C   0  0  0  0  0  0  0  0  0  0  0  0
  139.8820   67.9370  225.8970 C   0  0  0  0  0  0  0  0  0  0  0  0
  140.1760   69.2810  225.6550 C   0  0  0  0  0  0  0  0  0  0  0  0
  139.9860   69.7970  224.4030 N   0  0  0  0  0  0  0  0  0  0  0  0
  140.1040   69.9440  221.6260 H   0  0  0  0  0  0  0  0  0  0  0  0
  138.9511   71.4177  219.8838 H   0  0  0  0  0  0  0  0  0  0  0  0
  139.7514   72.8292  220.7001 H   0  0  0  0  0  0  0  0  0  0  0  0
  140.8411   73.5435  217.4545 H   0  0  0  0  0  0  0  0  0  0  0  0
  140.7375   74.7095  218.7562 H   0  0  0  0  0  0  0  0  0  0  0  0
  142.8573   74.3572  216.8147 H   0  0  0  0  0  0  0  0  0  0  0  0
  142.8058   75.5505  218.1357 H   0  0  0  0  0  0  0  0  0  0  0  0
  144.1200   72.8116  218.0658 H   0  0  0  0  0  0  0  0  0  0  0  0
  144.7149   74.2359  218.8501 H   0  0  0  0  0  0  0  0  0  0  0  0
  143.4087   72.4845  220.5193 H   0  0  0  0  0  0  0  0  0  0  0  0
  143.5233   74.2991  221.6868 H   0  0  0  0  0  0  0  0  0  0  0  0
  143.2194   75.3769  220.3135 H   0  0  0  0  0  0  0  0  0  0  0  0
  140.9440   73.6420  221.3820 H   0  0  0  0  0  0  0  0  0  0  0  0
  139.5837   75.6509  219.5759 H   0  0  0  0  0  0  0  0  0  0  0  0
  138.4589   77.8277  219.9908 H   0  0  0  0  0  0  0  0  0  0  0  0
  141.6952   80.3527  222.3914 H   0  0  0  0  0  0  0  0  0  0  0  0
  141.2659   80.3240  220.6928 H   0  0  0  0  0  0  0  0  0  0  0  0
  141.6383   82.7224  222.5587 H   0  0  0  0  0  0  0  0  0  0  0  0
  142.0009   82.6568  220.8496 H   0  0  0  0  0  0  0  0  0  0  0  0
  139.7559   83.9546  221.5363 H   0  0  0  0  0  0  0  0  0  0  0  0
  139.5107   82.8163  220.2680 H   0  0  0  0  0  0  0  0  0  0  0  0
  139.2647   82.3271  223.3532 H   0  0  0  0  0  0  0  0  0  0  0  0
  137.9761   82.0755  222.2167 H   0  0  0  0  0  0  0  0  0  0  0  0
  140.7039   78.3148  223.6085 H   0  0  0  0  0  0  0  0  0  0  0  0
  141.8092   76.1635  223.1963 H   0  0  0  0  0  0  0  0  0  0  0  0
  141.0126   72.9575  224.9368 H   0  0  0  0  0  0  0  0  0  0  0  0
  141.3748   72.0552  227.2433 H   0  0  0  0  0  0  0  0  0  0  0  0
  141.2835   70.2406  228.7396 H   0  0  0  0  0  0  0  0  0  0  0  0
  139.8721   66.3922  227.3815 H   0  0  0  0  0  0  0  0  0  0  0  0
  139.4900   67.2898  225.0986 H   0  0  0  0  0  0  0  0  0  0  0  0
  1  2  2  0
  2  3  1  0
  3  4  1  0
  4  5  1  0
  5  6  2  0
  5  7  1  0
  7  8  1  0
  8  9  1  0
  9 10  1  0
 10 11  1  0
 11 12  1  0
 12 13  1  0
 13 14  1  0
 14 15  2  0
 15 16  1  0
 16 17  2  0
 17 18  1  0
 18 19  2  0
 18 20  1  0
 20 21  1  0
 21 22  1  0
 22 23  1  0
 23 24  1  0
 17 25  1  0
 25 26  2  0
  2 27  1  0
 27 28  2  0
 28 29  1  0
 29 30  2  0
 30 31  1  0
 31 32  2  0
 32 33  1  0
 32 34  1  0
 34 35  2  0
 35 36  1  0
 36 37  2  0
 11  7  1  0
 26 14  1  0
 37 27  1  0
 24 20  1  0
 36 30  1  0
  3 38  1  0
  4 39  1  0
  4 40  1  0
  8 41  1  0
  8 42  1  0
  9 43  1  0
  9 44  1  0
 10 45  1  0
 10 46  1  0
 11 47  1  1
 12 48  1  0
 12 49  1  0
 13 50  1  0
 15 51  1  0
 16 52  1  0
 21 53  1  0
 21 54  1  0
 22 55  1  0
 22 56  1  0
 23 57  1  0
 23 58  1  0
 24 59  1  0
 24 60  1  0
 25 61  1  0
 26 62  1  0
 28 63  1  0
 29 64  1  0
 31 65  1  0
 34 66  1  0
 35 67  1  0
M  END
>  <smiles>  (21) 
O=C(NCC(=O)N1CCC[C@H]1CNc1ccc(C(=O)N2CCCC2)cc1)c1ccc2cc(F)ccc2n1

>  <score_type>  (21) 
oracle

>  <origin>  (21) 
autodockgpu

>  <m_score__min__energy>  (21) 
-8.9399999999999995

>  <m_primary>  (21) 
energy

>  <rmsd>  (21) 
8.273065345152451

>  <m_score__min__rmsd>  (21) 
8.273065345152451

>  <meeko>  (21) 
{"free_energy": -7.11, "intermolecular_energy": -9.49, "internal_energy": -2.89, "cluster_size": 6, "cluster_id": 4, "rank_in_cluster": 6}

>  <energy>  (21) 
-8.06

>  <cluster_rmsd>  (21) 
1.82

>  <cluster>  (21) 
6

$$$$

     RDKit          3D

 67 71  0  0  0  0  0  0  0  0999 V2000
  139.8860   73.4280  222.3610 O   0  0  0  0  0  0  0  0  0  0  0  0
  139.9540   72.1520  222.3040 C   0  0  0  0  0  0  0  0  0  0  0  0
  140.0020   71.6080  220.9930 N   0  0  0  0  0  0  0  0  0  0  0  0
  139.9840   72.5440  219.8930 C   0  0  0  0  0  0  0  0  0  0  0  0
  140.8260   72.0920  218.7600 C   0  0  0  0  0  0  0  0  0  0  0  0
  141.0440   70.8970  218.4710 O   0  0  0  0  0  0  0  0  0  0  0  0
  141.4160   73.1370  217.9580 N   0  0  0  0  0  0  0  0  0  0  0  0
  140.8060   74.4190  217.5980 C   0  0  0  0  0  0  0  0  0  0  0  0
  141.4000   74.7100  216.2590 C   0  0  0  0  0  0  0  0  0  0  0  0
  142.3420   73.5690  215.9230 C   0  0  0  0  0  0  0  0  0  0  0  0
  142.7220   73.1150  217.3310 C   0  0  1  0  0  0  0  0  0  0  0  0
  143.7120   74.0780  217.9040 C   0  0  0  0  0  0  0  0  0  0  0  0
  143.4110   74.1670  219.3410 N   0  0  0  0  0  0  0  0  0  0  0  0
  142.7330   75.2490  219.9220 C   0  0  0  0  0  0  0  0  0  0  0  0
  142.8440   76.5620  219.5130 C   0  0  0  0  0  0  0  0  0  0  0  0
  142.1330   77.5780  220.1590 C   0  0  0  0  0  0  0  0  0  0  0  0
  141.3050   77.2900  221.2220 C   0  0  0  0  0  0  0  0  0  0  0  0
  140.5350   78.2940  221.9430 C   0  0  0  0  0  0  0  0  0  0  0  0
  139.2670   78.2600  221.8130 O   0  0  0  0  0  0  0  0  0  0  0  0
  141.1780   79.2700  222.7560 N   0  0  0  0  0  0  0  0  0  0  0  0
  142.6190   79.3890  222.9800 C   0  0  0  0  0  0  0  0  0  0  0  0
  142.7390   80.6700  223.8260 C   0  0  0  0  0  0  0  0  0  0  0  0
  141.4820   81.4550  223.4260 C   0  0  0  0  0  0  0  0  0  0  0  0
  140.4660   80.3090  223.4930 C   0  0  0  0  0  0  0  0  0  0  0  0
  141.1830   75.9860  221.6430 C   0  0  0  0  0  0  0  0  0  0  0  0
  141.8860   74.9960  221.0010 C   0  0  0  0  0  0  0  0  0  0  0  0
  139.9780   71.3550  223.5190 C   0  0  0  0  0  0  0  0  0  0  0  0
  139.4120   70.0740  223.4320 C   0  0  0  0  0  0  0  0  0  0  0  0
  139.3910   69.2240  224.5270 C   0  0  0  0  0  0  0  0  0  0  0  0
  139.9490   69.7000  225.6920 C   0  0  0  0  0  0  0  0  0  0  0  0
  139.9160   68.8490  226.7970 C   0  0  0  0  0  0  0  0  0  0  0  0
  140.4660   69.3230  227.9930 C   0  0  0  0  0  0  0  0  0  0  0  0
  140.4290   68.4790  229.0800 F   0  0  0  0  0  0  0  0  0  0  0  0
  141.0190   70.5830  228.0720 C   0  0  0  0  0  0  0  0  0  0  0  0
  141.0520   71.4220  226.9810 C   0  0  0  0  0  0  0  0  0  0  0  0
  140.5050   70.9580  225.7820 C   0  0  0  0  0  0  0  0  0  0  0  0
  140.5090   71.7700  224.6810 N   0  0  0  0  0  0  0  0  0  0  0  0
  140.0500   70.5630  220.8720 H   0  0  0  0  0  0  0  0  0  0  0  0
  138.9479   72.6575  219.5413 H   0  0  0  0  0  0  0  0  0  0  0  0
  140.3904   73.4996  220.2558 H   0  0  0  0  0  0  0  0  0  0  0  0
  139.7113   74.3318  217.5343 H   0  0  0  0  0  0  0  0  0  0  0  0
  140.9948   75.2114  218.3372 H   0  0  0  0  0  0  0  0  0  0  0  0
  140.6051   74.7768  215.5015 H   0  0  0  0  0  0  0  0  0  0  0  0
  141.9401   75.6682  216.2736 H   0  0  0  0  0  0  0  0  0  0  0  0
  141.8336   72.7721  215.3605 H   0  0  0  0  0  0  0  0  0  0  0  0
  143.1911   73.8435  215.2799 H   0  0  0  0  0  0  0  0  0  0  0  0
  143.2196   72.1399  217.4389 H   0  0  0  0  0  0  0  0  0  0  0  0
  144.7366   73.7083  217.7509 H   0  0  0  0  0  0  0  0  0  0  0  0
  143.6427   75.0622  217.4175 H   0  0  0  0  0  0  0  0  0  0  0  0
  143.7160   73.3860  219.9730 H   0  0  0  0  0  0  0  0  0  0  0  0
  143.5008   76.8130  218.6671 H   0  0  0  0  0  0  0  0  0  0  0  0
  142.2357   78.6178  219.8151 H   0  0  0  0  0  0  0  0  0  0  0  0
  143.0064   78.5171  223.5274 H   0  0  0  0  0  0  0  0  0  0  0  0
  143.1985   79.4330  222.0461 H   0  0  0  0  0  0  0  0  0  0  0  0
  142.7364   80.4374  224.9011 H   0  0  0  0  0  0  0  0  0  0  0  0
  143.6738   81.2230  223.6520 H   0  0  0  0  0  0  0  0  0  0  0  0
  141.2494   82.2573  224.1417 H   0  0  0  0  0  0  0  0  0  0  0  0
  141.5377   81.9878  222.4653 H   0  0  0  0  0  0  0  0  0  0  0  0
  140.2666   80.0048  224.5311 H   0  0  0  0  0  0  0  0  0  0  0  0
  139.4733   80.5558  223.0885 H   0  0  0  0  0  0  0  0  0  0  0  0
  140.5258   75.7375  222.4894 H   0  0  0  0  0  0  0  0  0  0  0  0
  141.7764   73.9595  221.3527 H   0  0  0  0  0  0  0  0  0  0  0  0
  138.9776   69.7385  222.4788 H   0  0  0  0  0  0  0  0  0  0  0  0
  138.9499   68.2181  224.4678 H   0  0  0  0  0  0  0  0  0  0  0  0
  139.4744   67.8437  226.7305 H   0  0  0  0  0  0  0  0  0  0  0  0
  141.4431   70.9256  229.0274 H   0  0  0  0  0  0  0  0  0  0  0  0
  141.4952   72.4263  227.0511 H   0  0  0  0  0  0  0  0  0  0  0  0
  1  2  2  0
  2  3  1  0
  3  4  1  0
  4  5  1  0
  5  6  2  0
  5  7  1  0
  7  8  1  0
  8  9  1  0
  9 10  1  0
 10 11  1  0
 11 12  1  0
 12 13  1  0
 13 14  1  0
 14 15  2  0
 15 16  1  0
 16 17  2  0
 17 18  1  0
 18 19  2  0
 18 20  1  0
 20 21  1  0
 21 22  1  0
 22 23  1  0
 23 24  1  0
 17 25  1  0
 25 26  2  0
  2 27  1  0
 27 28  2  0
 28 29  1  0
 29 30  2  0
 30 31  1  0
 31 32  2  0
 32 33  1  0
 32 34  1  0
 34 35  2  0
 35 36  1  0
 36 37  2  0
 11  7  1  0
 26 14  1  0
 37 27  1  0
 24 20  1  0
 36 30  1  0
  3 38  1  0
  4 39  1  0
  4 40  1  0
  8 41  1  0
  8 42  1  0
  9 43  1  0
  9 44  1  0
 10 45  1  0
 10 46  1  0
 11 47  1  6
 12 48  1  0
 12 49  1  0
 13 50  1  0
 15 51  1  0
 16 52  1  0
 21 53  1  0
 21 54  1  0
 22 55  1  0
 22 56  1  0
 23 57  1  0
 23 58  1  0
 24 59  1  0
 24 60  1  0
 25 61  1  0
 26 62  1  0
 28 63  1  0
 29 64  1  0
 31 65  1  0
 34 66  1  0
 35 67  1  0
M  END
>  <smiles>  (22) 
O=C(NCC(=O)N1CCC[C@H]1CNc1ccc(C(=O)N2CCCC2)cc1)c1ccc2cc(F)ccc2n1

>  <score_type>  (22) 
oracle

>  <origin>  (22) 
autodockgpu

>  <m_score__min__energy>  (22) 
-8.9399999999999995

>  <m_primary>  (22) 
energy

>  <rmsd>  (22) 
8.681486328022936

>  <m_score__min__rmsd>  (22) 
8.681486328022936

>  <meeko>  (22) 
{"free_energy": -8.09, "intermolecular_energy": -10.48, "internal_energy": -2.29, "cluster_size": 6, "cluster_id": 4, "rank_in_cluster": 3}

>  <energy>  (22) 
-7.76

>  <cluster_rmsd>  (22) 
1.56

>  <cluster>  (22) 
6

$$$$

     RDKit          3D

 67 71  0  0  0  0  0  0  0  0999 V2000
  140.1400   72.8540  222.5060 O   0  0  0  0  0  0  0  0  0  0  0  0
  139.9730   71.5860  222.5050 C   0  0  0  0  0  0  0  0  0  0  0  0
  139.7860   71.0030  221.2240 N   0  0  0  0  0  0  0  0  0  0  0  0
  139.8190   71.8940  220.0860 C   0  0  0  0  0  0  0  0  0  0  0  0
  140.4970   71.2830  218.9180 C   0  0  0  0  0  0  0  0  0  0  0  0
  139.9190   70.6270  218.0270 O   0  0  0  0  0  0  0  0  0  0  0  0
  141.9240   71.4850  218.8420 N   0  0  0  0  0  0  0  0  0  0  0  0
  142.6920   71.9000  217.6660 C   0  0  0  0  0  0  0  0  0  0  0  0
  144.0090   71.2250  217.8680 C   0  0  0  0  0  0  0  0  0  0  0  0
  143.9290   70.4570  219.1740 C   0  0  0  0  0  0  0  0  0  0  0  0
  142.8830   71.2920  219.9100 C   0  0  1  0  0  0  0  0  0  0  0  0
  143.5260   72.5450  220.4130 C   0  0  0  0  0  0  0  0  0  0  0  0
  142.4530   73.3290  221.0450 N   0  0  0  0  0  0  0  0  0  0  0  0
  142.2740   74.7050  220.8320 C   0  0  0  0  0  0  0  0  0  0  0  0
  143.0670   75.4870  220.0190 C   0  0  0  0  0  0  0  0  0  0  0  0
  142.8160   76.8550  219.8740 C   0  0  0  0  0  0  0  0  0  0  0  0
  141.7710   77.4530  220.5420 C   0  0  0  0  0  0  0  0  0  0  0  0
  141.4500   78.8700  220.4400 C   0  0  0  0  0  0  0  0  0  0  0  0
  141.2490   79.3400  219.2720 O   0  0  0  0  0  0  0  0  0  0  0  0
  141.3660   79.6900  221.6010 N   0  0  0  0  0  0  0  0  0  0  0  0
  141.5680   79.2500  222.9820 C   0  0  0  0  0  0  0  0  0  0  0  0
  141.4780   80.5600  223.7850 C   0  0  0  0  0  0  0  0  0  0  0  0
  141.8950   81.6170  222.7530 C   0  0  0  0  0  0  0  0  0  0  0  0
  141.0620   81.1170  221.5670 C   0  0  0  0  0  0  0  0  0  0  0  0
  140.9700   76.6870  221.3580 C   0  0  0  0  0  0  0  0  0  0  0  0
  141.2250   75.3440  221.4930 C   0  0  0  0  0  0  0  0  0  0  0  0
  139.9830   70.8340  223.7490 C   0  0  0  0  0  0  0  0  0  0  0  0
  139.3900   69.5630  223.7100 C   0  0  0  0  0  0  0  0  0  0  0  0
  139.3530   68.7550  224.8360 C   0  0  0  0  0  0  0  0  0  0  0  0
  139.9210   69.2630  225.9820 C   0  0  0  0  0  0  0  0  0  0  0  0
  139.8720   68.4550  227.1180 C   0  0  0  0  0  0  0  0  0  0  0  0
  140.4330   68.9620  228.2960 C   0  0  0  0  0  0  0  0  0  0  0  0
  140.3800   68.1600  229.4140 F   0  0  0  0  0  0  0  0  0  0  0  0
  141.0110   70.2120  228.3280 C   0  0  0  0  0  0  0  0  0  0  0  0
  141.0610   71.0090  227.2060 C   0  0  0  0  0  0  0  0  0  0  0  0
  140.5040   70.5110  226.0250 C   0  0  0  0  0  0  0  0  0  0  0  0
  140.5230   71.2820  224.8950 N   0  0  0  0  0  0  0  0  0  0  0  0
  139.6330   69.9640  221.1490 H   0  0  0  0  0  0  0  0  0  0  0  0
  138.7864   72.1474  219.8040 H   0  0  0  0  0  0  0  0  0  0  0  0
  140.3858   72.7913  220.3751 H   0  0  0  0  0  0  0  0  0  0  0  0
  142.2104   71.5571  216.7384 H   0  0  0  0  0  0  0  0  0  0  0  0
  142.7759   72.9923  217.5670 H   0  0  0  0  0  0  0  0  0  0  0  0
  144.2084   70.5331  217.0364 H   0  0  0  0  0  0  0  0  0  0  0  0
  144.8233   71.9638  217.9009 H   0  0  0  0  0  0  0  0  0  0  0  0
  143.5897   69.4222  219.0188 H   0  0  0  0  0  0  0  0  0  0  0  0
  144.8865   70.3428  219.7034 H   0  0  0  0  0  0  0  0  0  0  0  0
  142.4216   70.8594  220.8100 H   0  0  0  0  0  0  0  0  0  0  0  0
  144.3072   72.3043  221.1490 H   0  0  0  0  0  0  0  0  0  0  0  0
  144.0063   73.1055  219.5975 H   0  0  0  0  0  0  0  0  0  0  0  0
  141.7820   72.8440  221.6890 H   0  0  0  0  0  0  0  0  0  0  0  0
  143.9078   75.0289  219.4776 H   0  0  0  0  0  0  0  0  0  0  0  0
  143.4604   77.4599  219.2191 H   0  0  0  0  0  0  0  0  0  0  0  0
  140.7828   78.5438  223.2899 H   0  0  0  0  0  0  0  0  0  0  0  0
  142.5190   78.7174  223.1304 H   0  0  0  0  0  0  0  0  0  0  0  0
  140.4527   80.7369  224.1420 H   0  0  0  0  0  0  0  0  0  0  0  0
  142.1041   80.5618  224.6894 H   0  0  0  0  0  0  0  0  0  0  0  0
  141.6086   82.6332  223.0616 H   0  0  0  0  0  0  0  0  0  0  0  0
  142.9763   81.7084  222.5728 H   0  0  0  0  0  0  0  0  0  0  0  0
  139.9889   81.3059  221.7179 H   0  0  0  0  0  0  0  0  0  0  0  0
  141.2914   81.6087  220.6101 H   0  0  0  0  0  0  0  0  0  0  0  0
  140.1303   77.1476  221.8990 H   0  0  0  0  0  0  0  0  0  0  0  0
  140.5748   74.7475  222.1498 H   0  0  0  0  0  0  0  0  0  0  0  0
  138.9470   69.2016  222.7703 H   0  0  0  0  0  0  0  0  0  0  0  0
  138.8921   67.7565  224.8145 H   0  0  0  0  0  0  0  0  0  0  0  0
  139.4100   67.4572  227.0892 H   0  0  0  0  0  0  0  0  0  0  0  0
  141.4420   70.5816  229.2702 H   0  0  0  0  0  0  0  0  0  0  0  0
  141.5247   72.0060  227.2384 H   0  0  0  0  0  0  0  0  0  0  0  0
  1  2  2  0
  2  3  1  0
  3  4  1  0
  4  5  1  0
  5  6  2  0
  5  7  1  0
  7  8  1  0
  8  9  1  0
  9 10  1  0
 10 11  1  0
 11 12  1  0
 12 13  1  0
 13 14  1  0
 14 15  2  0
 15 16  1  0
 16 17  2  0
 17 18  1  0
 18 19  2  0
 18 20  1  0
 20 21  1  0
 21 22  1  0
 22 23  1  0
 23 24  1  0
 17 25  1  0
 25 26  2  0
  2 27  1  0
 27 28  2  0
 28 29  1  0
 29 30  2  0
 30 31  1  0
 31 32  2  0
 32 33  1  0
 32 34  1  0
 34 35  2  0
 35 36  1  0
 36 37  2  0
 11  7  1  0
 26 14  1  0
 37 27  1  0
 24 20  1  0
 36 30  1  0
  3 38  1  0
  4 39  1  0
  4 40  1  0
  8 41  1  0
  8 42  1  0
  9 43  1  0
  9 44  1  0
 10 45  1  0
 10 46  1  0
 11 47  1  1
 12 48  1  0
 12 49  1  0
 13 50  1  0
 15 51  1  0
 16 52  1  0
 21 53  1  0
 21 54  1  0
 22 55  1  0
 22 56  1  0
 23 57  1  0
 23 58  1  0
 24 59  1  0
 24 60  1  0
 25 61  1  0
 26 62  1  0
 28 63  1  0
 29 64  1  0
 31 65  1  0
 34 66  1  0
 35 67  1  0
M  END
>  <smiles>  (23) 
O=C(NCC(=O)N1CCC[C@H]1CNc1ccc(C(=O)N2CCCC2)cc1)c1ccc2cc(F)ccc2n1

>  <score_type>  (23) 
oracle

>  <origin>  (23) 
autodockgpu

>  <m_score__min__energy>  (23) 
-8.9399999999999995

>  <m_primary>  (23) 
energy

>  <rmsd>  (23) 
9.19815986847476

>  <m_score__min__rmsd>  (23) 
9.19815986847476

>  <meeko>  (23) 
{"free_energy": -7.97, "intermolecular_energy": -10.36, "internal_energy": -2.68, "cluster_size": 6, "cluster_id": 4, "rank_in_cluster": 4}

>  <energy>  (23) 
-7.7

>  <cluster_rmsd>  (23) 
1.44

>  <cluster>  (23) 
6

$$$$

     RDKit          3D

 67 71  0  0  0  0  0  0  0  0999 V2000
  138.7570   72.5120  222.7560 O   0  0  0  0  0  0  0  0  0  0  0  0
  138.2330   71.4010  223.1150 C   0  0  0  0  0  0  0  0  0  0  0  0
  137.0820   71.0120  222.3810 N   0  0  0  0  0  0  0  0  0  0  0  0
  136.6500   71.8940  221.3210 C   0  0  0  0  0  0  0  0  0  0  0  0
  135.3090   72.4700  221.5850 C   0  0  0  0  0  0  0  0  0  0  0  0
  134.3390   72.3960  220.8020 O   0  0  0  0  0  0  0  0  0  0  0  0
  135.1560   73.1540  222.8460 N   0  0  0  0  0  0  0  0  0  0  0  0
  135.4660   72.6250  224.1760 C   0  0  0  0  0  0  0  0  0  0  0  0
  134.4710   73.3130  225.0530 C   0  0  0  0  0  0  0  0  0  0  0  0
  133.6380   74.2220  224.1670 C   0  0  0  0  0  0  0  0  0  0  0  0
  134.6420   74.4930  223.0480 C   0  0  1  0  0  0  0  0  0  0  0  0
  135.6480   75.4900  223.5270 C   0  0  0  0  0  0  0  0  0  0  0  0
  136.9590   74.9930  223.0820 N   0  0  0  0  0  0  0  0  0  0  0  0
  137.9910   75.8300  222.6330 C   0  0  0  0  0  0  0  0  0  0  0  0
  139.2560   75.4060  222.2840 C   0  0  0  0  0  0  0  0  0  0  0  0
  140.2250   76.3180  221.8530 C   0  0  0  0  0  0  0  0  0  0  0  0
  139.9380   77.6620  221.7680 C   0  0  0  0  0  0  0  0  0  0  0  0
  140.8950   78.6680  221.3290 C   0  0  0  0  0  0  0  0  0  0  0  0
  141.1060   78.7640  220.0750 O   0  0  0  0  0  0  0  0  0  0  0  0
  141.5630   79.5070  222.2660 N   0  0  0  0  0  0  0  0  0  0  0  0
  141.3850   79.4850  223.7190 C   0  0  0  0  0  0  0  0  0  0  0  0
  142.4310   80.5000  224.2160 C   0  0  0  0  0  0  0  0  0  0  0  0
  143.4850   80.4700  223.1000 C   0  0  0  0  0  0  0  0  0  0  0  0
  142.5410   80.5230  221.8930 C   0  0  0  0  0  0  0  0  0  0  0  0
  138.6800   78.1020  222.1130 C   0  0  0  0  0  0  0  0  0  0  0  0
  137.7360   77.1980  222.5350 C   0  0  0  0  0  0  0  0  0  0  0  0
  138.8080   70.6250  224.2000 C   0  0  0  0  0  0  0  0  0  0  0  0
  138.6590   69.2320  224.1140 C   0  0  0  0  0  0  0  0  0  0  0  0
  139.1790   68.3950  225.0890 C   0  0  0  0  0  0  0  0  0  0  0  0
  139.8400   68.9970  226.1360 C   0  0  0  0  0  0  0  0  0  0  0  0
  140.3510   68.1550  227.1230 C   0  0  0  0  0  0  0  0  0  0  0  0
  141.0150   68.7510  228.2010 C   0  0  0  0  0  0  0  0  0  0  0  0
  141.5160   67.9140  229.1720 F   0  0  0  0  0  0  0  0  0  0  0  0
  141.1560   70.1190  228.2800 C   0  0  0  0  0  0  0  0  0  0  0  0
  140.6520   70.9510  227.3050 C   0  0  0  0  0  0  0  0  0  0  0  0
  139.9880   70.3640  226.2240 C   0  0  0  0  0  0  0  0  0  0  0  0
  139.4630   71.1610  225.2440 N   0  0  0  0  0  0  0  0  0  0  0  0
  136.5940   70.1130  222.6290 H   0  0  0  0  0  0  0  0  0  0  0  0
  137.3758   72.7149  221.2250 H   0  0  0  0  0  0  0  0  0  0  0  0
  136.5886   71.3045  220.3943 H   0  0  0  0  0  0  0  0  0  0  0  0
  135.3329   71.5336  224.2080 H   0  0  0  0  0  0  0  0  0  0  0  0
  136.5079   72.8029  224.4807 H   0  0  0  0  0  0  0  0  0  0  0  0
  133.8245   72.5701  225.5431 H   0  0  0  0  0  0  0  0  0  0  0  0
  134.9795   73.8937  225.8367 H   0  0  0  0  0  0  0  0  0  0  0  0
  132.7370   73.7138  223.7930 H   0  0  0  0  0  0  0  0  0  0  0  0
  133.2445   75.1207  224.6645 H   0  0  0  0  0  0  0  0  0  0  0  0
  134.2637   74.9371  222.1154 H   0  0  0  0  0  0  0  0  0  0  0  0
  135.4452   76.4780  223.0880 H   0  0  0  0  0  0  0  0  0  0  0  0
  135.6115   75.6040  224.6205 H   0  0  0  0  0  0  0  0  0  0  0  0
  137.1420   73.9590  223.0970 H   0  0  0  0  0  0  0  0  0  0  0  0
  139.5062   74.3366  222.3454 H   0  0  0  0  0  0  0  0  0  0  0  0
  141.2275   75.9575  221.5789 H   0  0  0  0  0  0  0  0  0  0  0  0
  140.3679   79.7985  223.9967 H   0  0  0  0  0  0  0  0  0  0  0  0
  141.5143   78.4833  224.1547 H   0  0  0  0  0  0  0  0  0  0  0  0
  141.9921   81.5032  224.3206 H   0  0  0  0  0  0  0  0  0  0  0  0
  142.8383   80.2573  225.2086 H   0  0  0  0  0  0  0  0  0  0  0  0
  144.1557   81.3410  223.1400 H   0  0  0  0  0  0  0  0  0  0  0  0
  144.1816   79.6190  223.1241 H   0  0  0  0  0  0  0  0  0  0  0  0
  142.0750   81.5137  221.7867 H   0  0  0  0  0  0  0  0  0  0  0  0
  143.0310   80.3493  220.9236 H   0  0  0  0  0  0  0  0  0  0  0  0
  138.4322   79.1719  222.0510 H   0  0  0  0  0  0  0  0  0  0  0  0
  136.7366   77.5684  222.8072 H   0  0  0  0  0  0  0  0  0  0  0  0
  138.1207   68.7973  223.2588 H   0  0  0  0  0  0  0  0  0  0  0  0
  139.0688   67.3022  225.0291 H   0  0  0  0  0  0  0  0  0  0  0  0
  140.2364   67.0630  227.0567 H   0  0  0  0  0  0  0  0  0  0  0  0
  141.6828   70.5566  229.1408 H   0  0  0  0  0  0  0  0  0  0  0  0
  140.7682   72.0426  227.3747 H   0  0  0  0  0  0  0  0  0  0  0  0
  1  2  2  0
  2  3  1  0
  3  4  1  0
  4  5  1  0
  5  6  2  0
  5  7  1  0
  7  8  1  0
  8  9  1  0
  9 10  1  0
 10 11  1  0
 11 12  1  0
 12 13  1  0
 13 14  1  0
 14 15  2  0
 15 16  1  0
 16 17  2  0
 17 18  1  0
 18 19  2  0
 18 20  1  0
 20 21  1  0
 21 22  1  0
 22 23  1  0
 23 24  1  0
 17 25  1  0
 25 26  2  0
  2 27  1  0
 27 28  2  0
 28 29  1  0
 29 30  2  0
 30 31  1  0
 31 32  2  0
 32 33  1  0
 32 34  1  0
 34 35  2  0
 35 36  1  0
 36 37  2  0
 11  7  1  0
 26 14  1  0
 37 27  1  0
 24 20  1  0
 36 30  1  0
  3 38  1  0
  4 39  1  0
  4 40  1  0
  8 41  1  0
  8 42  1  0
  9 43  1  0
  9 44  1  0
 10 45  1  0
 10 46  1  0
 11 47  1  6
 12 48  1  0
 12 49  1  0
 13 50  1  0
 15 51  1  0
 16 52  1  0
 21 53  1  0
 21 54  1  0
 22 55  1  0
 22 56  1  0
 23 57  1  0
 23 58  1  0
 24 59  1  0
 24 60  1  0
 25 61  1  0
 26 62  1  0
 28 63  1  0
 29 64  1  0
 31 65  1  0
 34 66  1  0
 35 67  1  0
M  END
>  <smiles>  (24) 
O=C(NCC(=O)N1CCC[C@H]1CNc1ccc(C(=O)N2CCCC2)cc1)c1ccc2cc(F)ccc2n1

>  <score_type>  (24) 
oracle

>  <origin>  (24) 
autodockgpu

>  <m_score__min__energy>  (24) 
-8.9399999999999995

>  <m_primary>  (24) 
energy

>  <rmsd>  (24) 
9.859491335341461

>  <m_score__min__rmsd>  (24) 
9.859491335341461

>  <meeko>  (24) 
{"free_energy": -7.84, "intermolecular_energy": -10.22, "internal_energy": -2.67, "cluster_size": 1, "cluster_id": 14, "rank_in_cluster": 1}

>  <energy>  (24) 
-7.67

>  <cluster_rmsd>  (24) 
0.87

>  <cluster>  (24) 
6

$$$$

     RDKit          3D

 67 71  0  0  0  0  0  0  0  0999 V2000
  141.4950   72.7900  221.0530 O   0  0  0  0  0  0  0  0  0  0  0  0
  140.6190   72.9320  221.9740 C   0  0  0  0  0  0  0  0  0  0  0  0
  139.9900   74.2050  222.0170 N   0  0  0  0  0  0  0  0  0  0  0  0
  140.3960   75.1710  221.0230 C   0  0  0  0  0  0  0  0  0  0  0  0
  140.4430   76.5490  221.5700 C   0  0  0  0  0  0  0  0  0  0  0  0
  139.9650   76.8910  222.6710 O   0  0  0  0  0  0  0  0  0  0  0  0
  141.0960   77.5330  220.7400 N   0  0  0  0  0  0  0  0  0  0  0  0
  141.8260   78.7190  221.1930 C   0  0  0  0  0  0  0  0  0  0  0  0
  141.5940   79.6990  220.0890 C   0  0  0  0  0  0  0  0  0  0  0  0
  140.7410   79.0070  219.0410 C   0  0  0  0  0  0  0  0  0  0  0  0
  141.1370   77.5540  219.2920 C   0  0  1  0  0  0  0  0  0  0  0  0
  142.4870   77.3070  218.6970 C   0  0  0  0  0  0  0  0  0  0  0  0
  143.2520   76.5670  219.7120 N   0  0  0  0  0  0  0  0  0  0  0  0
  143.6870   75.2440  219.5390 C   0  0  0  0  0  0  0  0  0  0  0  0
  143.7090   74.5720  218.3350 C   0  0  0  0  0  0  0  0  0  0  0  0
  144.1540   73.2480  218.2600 C   0  0  0  0  0  0  0  0  0  0  0  0
  144.5800   72.5850  219.3890 C   0  0  0  0  0  0  0  0  0  0  0  0
  145.0560   71.2080  219.3880 C   0  0  0  0  0  0  0  0  0  0  0  0
  146.3140   71.0270  219.2880 O   0  0  0  0  0  0  0  0  0  0  0  0
  144.1480   70.1160  219.4940 N   0  0  0  0  0  0  0  0  0  0  0  0
  142.6940   70.2160  219.6220 C   0  0  0  0  0  0  0  0  0  0  0  0
  142.2350   68.7470  219.5730 C   0  0  0  0  0  0  0  0  0  0  0  0
  143.3610   68.0700  218.7790 C   0  0  0  0  0  0  0  0  0  0  0  0
  144.5580   68.7160  219.4850 C   0  0  0  0  0  0  0  0  0  0  0  0
  144.5650   73.2410  220.5980 C   0  0  0  0  0  0  0  0  0  0  0  0
  144.1260   74.5410  220.6610 C   0  0  0  0  0  0  0  0  0  0  0  0
  140.3180   71.8430  222.8880 C   0  0  0  0  0  0  0  0  0  0  0  0
  139.6520   70.7370  222.3380 C   0  0  0  0  0  0  0  0  0  0  0  0
  139.3260   69.6370  223.1170 C   0  0  0  0  0  0  0  0  0  0  0  0
  139.6860   69.6890  224.4440 C   0  0  0  0  0  0  0  0  0  0  0  0
  139.3460   68.5880  225.2300 C   0  0  0  0  0  0  0  0  0  0  0  0
  139.6920   68.6300  226.5860 C   0  0  0  0  0  0  0  0  0  0  0  0
  139.3530   67.5410  227.3560 F   0  0  0  0  0  0  0  0  0  0  0  0
  140.3440   69.7200  227.1200 C   0  0  0  0  0  0  0  0  0  0  0  0
  140.6800   70.8070  226.3430 C   0  0  0  0  0  0  0  0  0  0  0  0
  140.3390   70.7740  224.9890 C   0  0  0  0  0  0  0  0  0  0  0  0
  140.6460   71.8420  224.1910 N   0  0  0  0  0  0  0  0  0  0  0  0
  139.2640   74.3950  222.7560 H   0  0  0  0  0  0  0  0  0  0  0  0
  141.3968   74.9014  220.6545 H   0  0  0  0  0  0  0  0  0  0  0  0
  139.6537   75.1540  220.2114 H   0  0  0  0  0  0  0  0  0  0  0  0
  141.4210   79.0928  222.1450 H   0  0  0  0  0  0  0  0  0  0  0  0
  142.8919   78.5252  221.3835 H   0  0  0  0  0  0  0  0  0  0  0  0
  141.0691   80.5847  220.4763 H   0  0  0  0  0  0  0  0  0  0  0  0
  142.5494   80.0303  219.6560 H   0  0  0  0  0  0  0  0  0  0  0  0
  139.6675   79.1730  219.2141 H   0  0  0  0  0  0  0  0  0  0  0  0
  140.8985   79.3582  218.0105 H   0  0  0  0  0  0  0  0  0  0  0  0
  140.5105   76.7673  218.8464 H   0  0  0  0  0  0  0  0  0  0  0  0
  142.3954   76.7098  217.7778 H   0  0  0  0  0  0  0  0  0  0  0  0
  142.9853   78.2498  218.4271 H   0  0  0  0  0  0  0  0  0  0  0  0
  143.4890   77.0440  220.6160 H   0  0  0  0  0  0  0  0  0  0  0  0
  143.3721   75.0839  217.4215 H   0  0  0  0  0  0  0  0  0  0  0  0
  144.1637   72.7312  217.2890 H   0  0  0  0  0  0  0  0  0  0  0  0
  142.4133   70.6854  220.5764 H   0  0  0  0  0  0  0  0  0  0  0  0
  142.2338   70.8382  218.8403 H   0  0  0  0  0  0  0  0  0  0  0  0
  142.1522   68.3230  220.5846 H   0  0  0  0  0  0  0  0  0  0  0  0
  141.2407   68.6144  219.1215 H   0  0  0  0  0  0  0  0  0  0  0  0
  143.3513   66.9764  218.8967 H   0  0  0  0  0  0  0  0  0  0  0  0
  143.3220   68.2025  217.6877 H   0  0  0  0  0  0  0  0  0  0  0  0
  144.6854   68.3250  220.5053 H   0  0  0  0  0  0  0  0  0  0  0  0
  145.5276   68.5288  219.0004 H   0  0  0  0  0  0  0  0  0  0  0  0
  144.9029   72.7270  221.5099 H   0  0  0  0  0  0  0  0  0  0  0  0
  144.1204   75.0488  221.6367 H   0  0  0  0  0  0  0  0  0  0  0  0
  139.3840   70.7427  221.2711 H   0  0  0  0  0  0  0  0  0  0  0  0
  138.8049   68.7652  222.6946 H   0  0  0  0  0  0  0  0  0  0  0  0
  138.8255   67.7193  224.8006 H   0  0  0  0  0  0  0  0  0  0  0  0
  140.6017   69.7224  228.1894 H   0  0  0  0  0  0  0  0  0  0  0  0
  141.2007   71.6740  226.7756 H   0  0  0  0  0  0  0  0  0  0  0  0
  1  2  2  0
  2  3  1  0
  3  4  1  0
  4  5  1  0
  5  6  2  0
  5  7  1  0
  7  8  1  0
  8  9  1  0
  9 10  1  0
 10 11  1  0
 11 12  1  0
 12 13  1  0
 13 14  1  0
 14 15  2  0
 15 16  1  0
 16 17  2  0
 17 18  1  0
 18 19  2  0
 18 20  1  0
 20 21  1  0
 21 22  1  0
 22 23  1  0
 23 24  1  0
 17 25  1  0
 25 26  2  0
  2 27  1  0
 27 28  2  0
 28 29  1  0
 29 30  2  0
 30 31  1  0
 31 32  2  0
 32 33  1  0
 32 34  1  0
 34 35  2  0
 35 36  1  0
 36 37  2  0
 11  7  1  0
 26 14  1  0
 37 27  1  0
 24 20  1  0
 36 30  1  0
  3 38  1  0
  4 39  1  0
  4 40  1  0
  8 41  1  0
  8 42  1  0
  9 43  1  0
  9 44  1  0
 10 45  1  0
 10 46  1  0
 11 47  1  6
 12 48  1  0
 12 49  1  0
 13 50  1  0
 15 51  1  0
 16 52  1  0
 21 53  1  0
 21 54  1  0
 22 55  1  0
 22 56  1  0
 23 57  1  0
 23 58  1  0
 24 59  1  0
 24 60  1  0
 25 61  1  0
 26 62  1  0
 28 63  1  0
 29 64  1  0
 31 65  1  0
 34 66  1  0
 35 67  1  0
M  END
>  <smiles>  (25) 
O=C(NCC(=O)N1CCC[C@H]1CNc1ccc(C(=O)N2CCCC2)cc1)c1ccc2cc(F)ccc2n1

>  <score_type>  (25) 
oracle

>  <origin>  (25) 
autodockgpu

>  <m_score__min__energy>  (25) 
-8.9399999999999995

>  <m_primary>  (25) 
energy

>  <rmsd>  (25) 
8.326507465343052

>  <m_score__min__rmsd>  (25) 
8.326507465343052

>  <meeko>  (25) 
{"free_energy": -8.54, "intermolecular_energy": -10.92, "internal_energy": -2.78, "cluster_size": 4, "cluster_id": 1, "rank_in_cluster": 3}

>  <energy>  (25) 
-8.09

>  <cluster_rmsd>  (25) 
0.0

>  <cluster>  (25) 
7

$$$$

     RDKit          3D

 67 71  0  0  0  0  0  0  0  0999 V2000
  141.1820   72.1660  221.6690 O   0  0  0  0  0  0  0  0  0  0  0  0
  140.3130   72.3830  222.5820 C   0  0  0  0  0  0  0  0  0  0  0  0
  139.4550   73.4900  222.3470 N   0  0  0  0  0  0  0  0  0  0  0  0
  139.6510   74.2230  221.1170 C   0  0  0  0  0  0  0  0  0  0  0  0
  140.6800   75.2820  221.2550 C   0  0  0  0  0  0  0  0  0  0  0  0
  141.0480   75.7750  222.3400 O   0  0  0  0  0  0  0  0  0  0  0  0
  141.2730   75.7460  220.0230 N   0  0  0  0  0  0  0  0  0  0  0  0
  140.8230   75.4440  218.6630 C   0  0  0  0  0  0  0  0  0  0  0  0
  142.0940   75.4590  217.8770 C   0  0  0  0  0  0  0  0  0  0  0  0
  143.2190   75.7860  218.8420 C   0  0  0  0  0  0  0  0  0  0  0  0
  142.4470   76.5840  219.8900 C   0  0  1  0  0  0  0  0  0  0  0  0
  142.1840   77.9580  219.3620 C   0  0  0  0  0  0  0  0  0  0  0  0
  141.8770   78.7940  220.5320 N   0  0  0  0  0  0  0  0  0  0  0  0
  140.6700   78.7150  221.2430 C   0  0  0  0  0  0  0  0  0  0  0  0
  140.5470   78.8680  222.6080 C   0  0  0  0  0  0  0  0  0  0  0  0
  139.2990   78.7650  223.2320 C   0  0  0  0  0  0  0  0  0  0  0  0
  138.1640   78.5070  222.4960 C   0  0  0  0  0  0  0  0  0  0  0  0
  136.8340   78.3850  223.0760 C   0  0  0  0  0  0  0  0  0  0  0  0
  136.2330   79.4660  223.3870 O   0  0  0  0  0  0  0  0  0  0  0  0
  136.2350   77.1100  223.2830 N   0  0  0  0  0  0  0  0  0  0  0  0
  136.8330   75.8160  222.9530 C   0  0  0  0  0  0  0  0  0  0  0  0
  135.8080   74.8060  223.5000 C   0  0  0  0  0  0  0  0  0  0  0  0
  135.1200   75.5980  224.6210 C   0  0  0  0  0  0  0  0  0  0  0  0
  134.9130   76.9200  223.8710 C   0  0  0  0  0  0  0  0  0  0  0  0
  138.2700   78.3510  221.1330 C   0  0  0  0  0  0  0  0  0  0  0  0
  139.4990   78.4550  220.5300 C   0  0  0  0  0  0  0  0  0  0  0  0
  140.2430   71.5330  223.7580 C   0  0  0  0  0  0  0  0  0  0  0  0
  139.6640   70.2680  223.5760 C   0  0  0  0  0  0  0  0  0  0  0  0
  139.5560   69.3710  224.6270 C   0  0  0  0  0  0  0  0  0  0  0  0
  140.0410   69.7850  225.8470 C   0  0  0  0  0  0  0  0  0  0  0  0
  139.9200   68.8870  226.9080 C   0  0  0  0  0  0  0  0  0  0  0  0
  140.3960   69.2980  228.1590 C   0  0  0  0  0  0  0  0  0  0  0  0
  140.2730   68.4070  229.2010 F   0  0  0  0  0  0  0  0  0  0  0  0
  140.9620   70.5420  228.3310 C   0  0  0  0  0  0  0  0  0  0  0  0
  141.0820   71.4280  227.2830 C   0  0  0  0  0  0  0  0  0  0  0  0
  140.6100   71.0270  226.0310 C   0  0  0  0  0  0  0  0  0  0  0  0
  140.7010   71.8870  224.9710 N   0  0  0  0  0  0  0  0  0  0  0  0
  138.7210   73.7330  223.0620 H   0  0  0  0  0  0  0  0  0  0  0  0
  139.9685   73.5204  220.3324 H   0  0  0  0  0  0  0  0  0  0  0  0
  138.6987   74.7086  220.8574 H   0  0  0  0  0  0  0  0  0  0  0  0
  140.3409   74.4564  218.6163 H   0  0  0  0  0  0  0  0  0  0  0  0
  140.0725   76.1548  218.2869 H   0  0  0  0  0  0  0  0  0  0  0  0
  142.2652   74.4733  217.4197 H   0  0  0  0  0  0  0  0  0  0  0  0
  142.0439   76.2055  217.0707 H   0  0  0  0  0  0  0  0  0  0  0  0
  143.6670   74.8769  219.2697 H   0  0  0  0  0  0  0  0  0  0  0  0
  144.0737   76.3146  218.3947 H   0  0  0  0  0  0  0  0  0  0  0  0
  142.9375   76.7700  220.8569 H   0  0  0  0  0  0  0  0  0  0  0  0
  143.0728   78.3430  218.8407 H   0  0  0  0  0  0  0  0  0  0  0  0
  141.3544   77.9584  218.6397 H   0  0  0  0  0  0  0  0  0  0  0  0
  142.5920   79.4890  220.8610 H   0  0  0  0  0  0  0  0  0  0  0  0
  141.4417   79.0737  223.2140 H   0  0  0  0  0  0  0  0  0  0  0  0
  139.2236   78.8914  224.3221 H   0  0  0  0  0  0  0  0  0  0  0  0
  136.9558   75.7039  221.8656 H   0  0  0  0  0  0  0  0  0  0  0  0
  137.8386   75.6840  223.3788 H   0  0  0  0  0  0  0  0  0  0  0  0
  135.0876   74.5113  222.7227 H   0  0  0  0  0  0  0  0  0  0  0  0
  136.2627   73.8657  223.8452 H   0  0  0  0  0  0  0  0  0  0  0  0
  134.1671   75.1412  224.9266 H   0  0  0  0  0  0  0  0  0  0  0  0
  135.6762   75.6677  225.5675 H   0  0  0  0  0  0  0  0  0  0  0  0
  134.1353   76.8297  223.0983 H   0  0  0  0  0  0  0  0  0  0  0  0
  134.5710   77.7534  224.5023 H   0  0  0  0  0  0  0  0  0  0  0  0
  137.3741   78.1439  220.5293 H   0  0  0  0  0  0  0  0  0  0  0  0
  139.5633   78.3281  219.4392 H   0  0  0  0  0  0  0  0  0  0  0  0
  139.2892   69.9832  222.5818 H   0  0  0  0  0  0  0  0  0  0  0  0
  139.1048   68.3768  224.4928 H   0  0  0  0  0  0  0  0  0  0  0  0
  139.4679   67.8941  226.7671 H   0  0  0  0  0  0  0  0  0  0  0  0
  141.3261   70.8343  229.3270 H   0  0  0  0  0  0  0  0  0  0  0  0
  141.5352   72.4198  227.4276 H   0  0  0  0  0  0  0  0  0  0  0  0
  1  2  2  0
  2  3  1  0
  3  4  1  0
  4  5  1  0
  5  6  2  0
  5  7  1  0
  7  8  1  0
  8  9  1  0
  9 10  1  0
 10 11  1  0
 11 12  1  0
 12 13  1  0
 13 14  1  0
 14 15  2  0
 15 16  1  0
 16 17  2  0
 17 18  1  0
 18 19  2  0
 18 20  1  0
 20 21  1  0
 21 22  1  0
 22 23  1  0
 23 24  1  0
 17 25  1  0
 25 26  2  0
  2 27  1  0
 27 28  2  0
 28 29  1  0
 29 30  2  0
 30 31  1  0
 31 32  2  0
 32 33  1  0
 32 34  1  0
 34 35  2  0
 35 36  1  0
 36 37  2  0
 11  7  1  0
 26 14  1  0
 37 27  1  0
 24 20  1  0
 36 30  1  0
  3 38  1  0
  4 39  1  0
  4 40  1  0
  8 41  1  0
  8 42  1  0
  9 43  1  0
  9 44  1  0
 10 45  1  0
 10 46  1  0
 11 47  1  1
 12 48  1  0
 12 49  1  0
 13 50  1  0
 15 51  1  0
 16 52  1  0
 21 53  1  0
 21 54  1  0
 22 55  1  0
 22 56  1  0
 23 57  1  0
 23 58  1  0
 24 59  1  0
 24 60  1  0
 25 61  1  0
 26 62  1  0
 28 63  1  0
 29 64  1  0
 31 65  1  0
 34 66  1  0
 35 67  1  0
M  END
>  <smiles>  (26) 
O=C(NCC(=O)N1CCC[C@H]1CNc1ccc(C(=O)N2CCCC2)cc1)c1ccc2cc(F)ccc2n1

>  <score_type>  (26) 
oracle

>  <origin>  (26) 
autodockgpu

>  <m_score__min__energy>  (26) 
-8.9399999999999995

>  <m_primary>  (26) 
energy

>  <rmsd>  (26) 
8.827598230954965

>  <m_score__min__rmsd>  (26) 
8.827598230954965

>  <meeko>  (26) 
{"free_energy": -8.39, "intermolecular_energy": -10.77, "internal_energy": -2.51, "cluster_size": 1, "cluster_id": 5, "rank_in_cluster": 1}

>  <energy>  (26) 
-8.06

>  <cluster_rmsd>  (26) 
0.0

>  <cluster>  (26) 
8

$$$$

     RDKit          3D

 67 71  0  0  0  0  0  0  0  0999 V2000
  140.7220   73.0410  222.6060 O   0  0  0  0  0  0  0  0  0  0  0  0
  139.8490   72.1230  222.7870 C   0  0  0  0  0  0  0  0  0  0  0  0
  138.8090   72.0810  221.8210 N   0  0  0  0  0  0  0  0  0  0  0  0
  138.8640   73.0550  220.7550 C   0  0  0  0  0  0  0  0  0  0  0  0
  138.5810   74.4290  221.2370 C   0  0  0  0  0  0  0  0  0  0  0  0
  137.5850   74.7490  221.9180 O   0  0  0  0  0  0  0  0  0  0  0  0
  139.5500   75.4350  220.8730 N   0  0  0  0  0  0  0  0  0  0  0  0
  139.5290   76.2830  219.6790 C   0  0  0  0  0  0  0  0  0  0  0  0
  140.9800   76.5020  219.3970 C   0  0  0  0  0  0  0  0  0  0  0  0
  141.7660   75.7660  220.4670 C   0  0  0  0  0  0  0  0  0  0  0  0
  140.7480   75.7880  221.6060 C   0  0  1  0  0  0  0  0  0  0  0  0
  140.7320   77.1510  222.2210 C   0  0  0  0  0  0  0  0  0  0  0  0
  139.3600   77.3640  222.7050 N   0  0  0  0  0  0  0  0  0  0  0  0
  138.8600   78.6200  223.0810 C   0  0  0  0  0  0  0  0  0  0  0  0
  139.5570   79.5610  223.8100 C   0  0  0  0  0  0  0  0  0  0  0  0
  138.9730   80.7870  224.1450 C   0  0  0  0  0  0  0  0  0  0  0  0
  137.6860   81.0820  223.7560 C   0  0  0  0  0  0  0  0  0  0  0  0
  137.0120   82.3350  224.0680 C   0  0  0  0  0  0  0  0  0  0  0  0
  136.9370   83.2030  223.1380 O   0  0  0  0  0  0  0  0  0  0  0  0
  136.4640   82.5730  225.3600 N   0  0  0  0  0  0  0  0  0  0  0  0
  136.4880   81.6420  226.4900 C   0  0  0  0  0  0  0  0  0  0  0  0
  135.8720   82.4650  227.6360 C   0  0  0  0  0  0  0  0  0  0  0  0
  136.1850   83.9090  227.2190 C   0  0  0  0  0  0  0  0  0  0  0  0
  135.7900   83.8100  225.7410 C   0  0  0  0  0  0  0  0  0  0  0  0
  136.9750   80.1540  223.0280 C   0  0  0  0  0  0  0  0  0  0  0  0
  137.5590   78.9540  222.7040 C   0  0  0  0  0  0  0  0  0  0  0  0
  139.9530   71.2110  223.9130 C   0  0  0  0  0  0  0  0  0  0  0  0
  139.4850   69.9050  223.6990 C   0  0  0  0  0  0  0  0  0  0  0  0
  139.5460   68.9490  224.7000 C   0  0  0  0  0  0  0  0  0  0  0  0
  140.0840   69.3450  225.9040 C   0  0  0  0  0  0  0  0  0  0  0  0
  140.1330   68.3870  226.9160 C   0  0  0  0  0  0  0  0  0  0  0  0
  140.6650   68.7770  228.1500 C   0  0  0  0  0  0  0  0  0  0  0  0
  140.7090   67.8260  229.1450 F   0  0  0  0  0  0  0  0  0  0  0  0
  141.1210   70.0610  228.3540 C   0  0  0  0  0  0  0  0  0  0  0  0
  141.0730   71.0070  227.3550 C   0  0  0  0  0  0  0  0  0  0  0  0
  140.5450   70.6270  226.1180 C   0  0  0  0  0  0  0  0  0  0  0  0
  140.4690   71.5450  225.1070 N   0  0  0  0  0  0  0  0  0  0  0  0
  138.0510   71.3570  221.9130 H   0  0  0  0  0  0  0  0  0  0  0  0
  139.8694   73.0360  220.3091 H   0  0  0  0  0  0  0  0  0  0  0  0
  138.0935   72.7908  220.0158 H   0  0  0  0  0  0  0  0  0  0  0  0
  139.0358   75.7714  218.8393 H   0  0  0  0  0  0  0  0  0  0  0  0
  138.9690   77.2189  219.8217 H   0  0  0  0  0  0  0  0  0  0  0  0
  141.2342   76.1045  218.4033 H   0  0  0  0  0  0  0  0  0  0  0  0
  141.2202   77.5754  219.4076 H   0  0  0  0  0  0  0  0  0  0  0  0
  142.0120   74.7390  220.1591 H   0  0  0  0  0  0  0  0  0  0  0  0
  142.7434   76.2080  220.7105 H   0  0  0  0  0  0  0  0  0  0  0  0
  140.9231   75.1215  222.4634 H   0  0  0  0  0  0  0  0  0  0  0  0
  141.4441   77.2005  223.0580 H   0  0  0  0  0  0  0  0  0  0  0  0
  141.0263   77.9230  221.4948 H   0  0  0  0  0  0  0  0  0  0  0  0
  138.7130   76.5410  222.7770 H   0  0  0  0  0  0  0  0  0  0  0  0
  140.5862   79.3443  224.1323 H   0  0  0  0  0  0  0  0  0  0  0  0
  139.5483   81.5232  224.7255 H   0  0  0  0  0  0  0  0  0  0  0  0
  135.8838   80.7477  226.2774 H   0  0  0  0  0  0  0  0  0  0  0  0
  137.4968   81.2687  226.7204 H   0  0  0  0  0  0  0  0  0  0  0  0
  134.7869   82.2983  227.7055 H   0  0  0  0  0  0  0  0  0  0  0  0
  136.2697   82.2003  228.6269 H   0  0  0  0  0  0  0  0  0  0  0  0
  135.5701   84.6403  227.7641 H   0  0  0  0  0  0  0  0  0  0  0  0
  137.2114   84.2513  227.4170 H   0  0  0  0  0  0  0  0  0  0  0  0
  134.6997   83.7315  225.6177 H   0  0  0  0  0  0  0  0  0  0  0  0
  136.0682   84.6853  225.1356 H   0  0  0  0  0  0  0  0  0  0  0  0
  135.9455   80.3726  222.7080 H   0  0  0  0  0  0  0  0  0  0  0  0
  136.9759   78.2249  222.1222 H   0  0  0  0  0  0  0  0  0  0  0  0
  139.0625   69.6359  222.7197 H   0  0  0  0  0  0  0  0  0  0  0  0
  139.1822   67.9232  224.5406 H   0  0  0  0  0  0  0  0  0  0  0  0
  139.7671   67.3629  226.7504 H   0  0  0  0  0  0  0  0  0  0  0  0
  141.5323   70.3362  229.3364 H   0  0  0  0  0  0  0  0  0  0  0  0
  141.4389   72.0303  227.5251 H   0  0  0  0  0  0  0  0  0  0  0  0
  1  2  2  0
  2  3  1  0
  3  4  1  0
  4  5  1  0
  5  6  2  0
  5  7  1  0
  7  8  1  0
  8  9  1  0
  9 10  1  0
 10 11  1  0
 11 12  1  0
 12 13  1  0
 13 14  1  0
 14 15  2  0
 15 16  1  0
 16 17  2  0
 17 18  1  0
 18 19  2  0
 18 20  1  0
 20 21  1  0
 21 22  1  0
 22 23  1  0
 23 24  1  0
 17 25  1  0
 25 26  2  0
  2 27  1  0
 27 28  2  0
 28 29  1  0
 29 30  2  0
 30 31  1  0
 31 32  2  0
 32 33  1  0
 32 34  1  0
 34 35  2  0
 35 36  1  0
 36 37  2  0
 11  7  1  0
 26 14  1  0
 37 27  1  0
 24 20  1  0
 36 30  1  0
  3 38  1  0
  4 39  1  0
  4 40  1  0
  8 41  1  0
  8 42  1  0
  9 43  1  0
  9 44  1  0
 10 45  1  0
 10 46  1  0
 11 47  1  1
 12 48  1  0
 12 49  1  0
 13 50  1  0
 15 51  1  0
 16 52  1  0
 21 53  1  0
 21 54  1  0
 22 55  1  0
 22 56  1  0
 23 57  1  0
 23 58  1  0
 24 59  1  0
 24 60  1  0
 25 61  1  0
 26 62  1  0
 28 63  1  0
 29 64  1  0
 31 65  1  0
 34 66  1  0
 35 67  1  0
M  END
>  <smiles>  (27) 
O=C(NCC(=O)N1CCC[C@H]1CNc1ccc(C(=O)N2CCCC2)cc1)c1ccc2cc(F)ccc2n1

>  <score_type>  (27) 
oracle

>  <origin>  (27) 
autodockgpu

>  <m_score__min__energy>  (27) 
-8.9399999999999995

>  <m_primary>  (27) 
energy

>  <rmsd>  (27) 
9.14393529659977

>  <m_score__min__rmsd>  (27) 
9.14393529659977

>  <meeko>  (27) 
{"free_energy": -8.37, "intermolecular_energy": -10.75, "internal_energy": -2.36, "cluster_size": 5, "cluster_id": 3, "rank_in_cluster": 4}

>  <energy>  (27) 
-7.09

>  <cluster_rmsd>  (27) 
1.06

>  <cluster>  (27) 
8

$$$$

     RDKit          3D

 67 71  0  0  0  0  0  0  0  0999 V2000
  139.4250   75.6530  222.3390 O   0  0  0  0  0  0  0  0  0  0  0  0
  140.5750   76.1210  222.0280 C   0  0  0  0  0  0  0  0  0  0  0  0
  141.5170   75.1570  221.5820 N   0  0  0  0  0  0  0  0  0  0  0  0
  141.0720   73.7840  221.5180 C   0  0  0  0  0  0  0  0  0  0  0  0
  140.6430   73.3990  220.1510 C   0  0  0  0  0  0  0  0  0  0  0  0
  141.2520   73.7020  219.1060 O   0  0  0  0  0  0  0  0  0  0  0  0
  139.4310   72.6180  220.0700 N   0  0  0  0  0  0  0  0  0  0  0  0
  139.3120   71.1640  220.2020 C   0  0  0  0  0  0  0  0  0  0  0  0
  138.1540   70.8390  219.3160 C   0  0  0  0  0  0  0  0  0  0  0  0
  137.6570   72.1450  218.7230 C   0  0  0  0  0  0  0  0  0  0  0  0
  138.0950   73.1170  219.8160 C   0  0  1  0  0  0  0  0  0  0  0  0
  137.1520   73.0090  220.9710 C   0  0  0  0  0  0  0  0  0  0  0  0
  137.9840   73.0540  222.1830 N   0  0  0  0  0  0  0  0  0  0  0  0
  138.2930   71.9210  222.9500 C   0  0  0  0  0  0  0  0  0  0  0  0
  137.3800   70.9740  223.3620 C   0  0  0  0  0  0  0  0  0  0  0  0
  137.7810   69.8780  224.1330 C   0  0  0  0  0  0  0  0  0  0  0  0
  139.0990   69.7200  224.5000 C   0  0  0  0  0  0  0  0  0  0  0  0
  139.5890   68.6070  225.3000 C   0  0  0  0  0  0  0  0  0  0  0  0
  139.3300   67.4300  224.8820 O   0  0  0  0  0  0  0  0  0  0  0  0
  140.3250   68.8300  226.4980 N   0  0  0  0  0  0  0  0  0  0  0  0
  140.6820   70.1350  227.0580 C   0  0  0  0  0  0  0  0  0  0  0  0
  141.3520   69.7710  228.3950 C   0  0  0  0  0  0  0  0  0  0  0  0
  140.7170   68.4150  228.7330 C   0  0  0  0  0  0  0  0  0  0  0  0
  140.8320   67.7600  227.3520 C   0  0  0  0  0  0  0  0  0  0  0  0
  140.0230   70.6570  224.0980 C   0  0  0  0  0  0  0  0  0  0  0  0
  139.6190   71.7290  223.3410 C   0  0  0  0  0  0  0  0  0  0  0  0
  140.8530   77.5430  222.1390 C   0  0  0  0  0  0  0  0  0  0  0  0
  141.4540   77.9660  223.3340 C   0  0  0  0  0  0  0  0  0  0  0  0
  141.7740   79.2990  223.5420 C   0  0  0  0  0  0  0  0  0  0  0  0
  141.4720   80.1750  222.5240 C   0  0  0  0  0  0  0  0  0  0  0  0
  141.7820   81.5180  222.7390 C   0  0  0  0  0  0  0  0  0  0  0  0
  141.4690   82.4240  221.7190 C   0  0  0  0  0  0  0  0  0  0  0  0
  141.7760   83.7480  221.9380 F   0  0  0  0  0  0  0  0  0  0  0  0
  140.8770   82.0020  220.5490 C   0  0  0  0  0  0  0  0  0  0  0  0
  140.5710   80.6750  220.3370 C   0  0  0  0  0  0  0  0  0  0  0  0
  140.8810   79.7630  221.3490 C   0  0  0  0  0  0  0  0  0  0  0  0
  140.5790   78.4400  221.1770 N   0  0  0  0  0  0  0  0  0  0  0  0
  142.4870   75.4700  221.3180 H   0  0  0  0  0  0  0  0  0  0  0  0
  141.8991   73.1284  221.8279 H   0  0  0  0  0  0  0  0  0  0  0  0
  140.2056   73.6774  222.1873 H   0  0  0  0  0  0  0  0  0  0  0  0
  140.2269   70.6597  219.8576 H   0  0  0  0  0  0  0  0  0  0  0  0
  139.1682   70.8337  221.2414 H   0  0  0  0  0  0  0  0  0  0  0  0
  138.4741   70.1589  218.5129 H   0  0  0  0  0  0  0  0  0  0  0  0
  137.3554   70.3421  219.8864 H   0  0  0  0  0  0  0  0  0  0  0  0
  138.1420   72.3671  217.7610 H   0  0  0  0  0  0  0  0  0  0  0  0
  136.5829   72.1672  218.4869 H   0  0  0  0  0  0  0  0  0  0  0  0
  138.0903   74.1912  219.5793 H   0  0  0  0  0  0  0  0  0  0  0  0
  136.4421   73.8492  220.9640 H   0  0  0  0  0  0  0  0  0  0  0  0
  136.5623   72.0817  220.9228 H   0  0  0  0  0  0  0  0  0  0  0  0
  138.3710   73.9780  222.4990 H   0  0  0  0  0  0  0  0  0  0  0  0
  136.3220   71.0816  223.0807 H   0  0  0  0  0  0  0  0  0  0  0  0
  137.0353   69.1339  224.4497 H   0  0  0  0  0  0  0  0  0  0  0  0
  141.3816   70.6694  226.3985 H   0  0  0  0  0  0  0  0  0  0  0  0
  139.8179   70.8053  227.1763 H   0  0  0  0  0  0  0  0  0  0  0  0
  142.4423   69.6808  228.2806 H   0  0  0  0  0  0  0  0  0  0  0  0
  141.2040   70.5294  229.1779 H   0  0  0  0  0  0  0  0  0  0  0  0
  141.2875   67.8696  229.4992 H   0  0  0  0  0  0  0  0  0  0  0  0
  139.7040   68.4550  229.1600 H   0  0  0  0  0  0  0  0  0  0  0  0
  141.8749   67.5081  227.1091 H   0  0  0  0  0  0  0  0  0  0  0  0
  140.2934   66.8059  227.2545 H   0  0  0  0  0  0  0  0  0  0  0  0
  141.0802   70.5478  224.3817 H   0  0  0  0  0  0  0  0  0  0  0  0
  140.3722   72.4677  223.0296 H   0  0  0  0  0  0  0  0  0  0  0  0
  141.6750   77.2279  224.1190 H   0  0  0  0  0  0  0  0  0  0  0  0
  142.2462   79.6399  224.4751 H   0  0  0  0  0  0  0  0  0  0  0  0
  142.2544   81.8523  223.6745 H   0  0  0  0  0  0  0  0  0  0  0  0
  140.6435   82.7398  219.7673 H   0  0  0  0  0  0  0  0  0  0  0  0
  140.0977   80.3444  219.4007 H   0  0  0  0  0  0  0  0  0  0  0  0
  1  2  2  0
  2  3  1  0
  3  4  1  0
  4  5  1  0
  5  6  2  0
  5  7  1  0
  7  8  1  0
  8  9  1  0
  9 10  1  0
 10 11  1  0
 11 12  1  0
 12 13  1  0
 13 14  1  0
 14 15  2  0
 15 16  1  0
 16 17  2  0
 17 18  1  0
 18 19  2  0
 18 20  1  0
 20 21  1  0
 21 22  1  0
 22 23  1  0
 23 24  1  0
 17 25  1  0
 25 26  2  0
  2 27  1  0
 27 28  2  0
 28 29  1  0
 29 30  2  0
 30 31  1  0
 31 32  2  0
 32 33  1  0
 32 34  1  0
 34 35  2  0
 35 36  1  0
 36 37  2  0
 11  7  1  0
 26 14  1  0
 37 27  1  0
 24 20  1  0
 36 30  1  0
  3 38  1  0
  4 39  1  0
  4 40  1  0
  8 41  1  0
  8 42  1  0
  9 43  1  0
  9 44  1  0
 10 45  1  0
 10 46  1  0
 11 47  1  6
 12 48  1  0
 12 49  1  0
 13 50  1  0
 15 51  1  0
 16 52  1  0
 21 53  1  0
 21 54  1  0
 22 55  1  0
 22 56  1  0
 23 57  1  0
 23 58  1  0
 24 59  1  0
 24 60  1  0
 25 61  1  0
 26 62  1  0
 28 63  1  0
 29 64  1  0
 31 65  1  0
 34 66  1  0
 35 67  1  0
M  END
>  <smiles>  (28) 
O=C(NCC(=O)N1CCC[C@H]1CNc1ccc(C(=O)N2CCCC2)cc1)c1ccc2cc(F)ccc2n1

>  <score_type>  (28) 
oracle

>  <origin>  (28) 
autodockgpu

>  <m_score__min__energy>  (28) 
-8.9399999999999995

>  <m_primary>  (28) 
energy

>  <rmsd>  (28) 
4.029888261214951

>  <m_score__min__rmsd>  (28) 
4.029888261214951

>  <meeko>  (28) 
{"free_energy": -8.17, "intermolecular_energy": -10.55, "internal_energy": -2.62, "cluster_size": 5, "cluster_id": 6, "rank_in_cluster": 1}

>  <energy>  (28) 
-7.98

>  <cluster_rmsd>  (28) 
0.0

>  <cluster>  (28) 
9

$$$$

     RDKit          3D

 67 71  0  0  0  0  0  0  0  0999 V2000
  139.9260   74.1570  222.0470 O   0  0  0  0  0  0  0  0  0  0  0  0
  141.0020   74.6840  221.6000 C   0  0  0  0  0  0  0  0  0  0  0  0
  141.9720   73.7620  221.1240 N   0  0  0  0  0  0  0  0  0  0  0  0
  141.6300   72.3590  221.1850 C   0  0  0  0  0  0  0  0  0  0  0  0
  141.9490   71.6510  219.9230 C   0  0  0  0  0  0  0  0  0  0  0  0
  143.1050   71.4050  219.5200 O   0  0  0  0  0  0  0  0  0  0  0  0
  140.8160   71.2310  219.1340 N   0  0  0  0  0  0  0  0  0  0  0  0
  140.5860   69.9020  218.5630 C   0  0  0  0  0  0  0  0  0  0  0  0
  139.8190   70.1990  217.3160 C   0  0  0  0  0  0  0  0  0  0  0  0
  139.6370   71.7040  217.2440 C   0  0  0  0  0  0  0  0  0  0  0  0
  139.6910   72.0490  218.7300 C   0  0  1  0  0  0  0  0  0  0  0  0
  138.3860   71.6850  219.3640 C   0  0  0  0  0  0  0  0  0  0  0  0
  138.4480   72.1870  220.7450 N   0  0  0  0  0  0  0  0  0  0  0  0
  138.6610   71.3600  221.8580 C   0  0  0  0  0  0  0  0  0  0  0  0
  138.3110   71.6760  223.1540 C   0  0  0  0  0  0  0  0  0  0  0  0
  138.5700   70.7900  224.2040 C   0  0  0  0  0  0  0  0  0  0  0  0
  139.1820   69.5790  223.9680 C   0  0  0  0  0  0  0  0  0  0  0  0
  139.4840   68.6070  225.0090 C   0  0  0  0  0  0  0  0  0  0  0  0
  139.1600   67.3940  224.7860 O   0  0  0  0  0  0  0  0  0  0  0  0
  140.1140   69.0020  226.2240 N   0  0  0  0  0  0  0  0  0  0  0  0
  140.5330   70.3600  226.5730 C   0  0  0  0  0  0  0  0  0  0  0  0
  141.0290   70.2110  228.0230 C   0  0  0  0  0  0  0  0  0  0  0  0
  140.2390   68.9950  228.5260 C   0  0  0  0  0  0  0  0  0  0  0  0
  140.4300   68.0810  227.3110 C   0  0  0  0  0  0  0  0  0  0  0  0
  139.5380   69.2480  222.6800 C   0  0  0  0  0  0  0  0  0  0  0  0
  139.2790   70.1260  221.6560 C   0  0  0  0  0  0  0  0  0  0  0  0
  141.1790   76.1260  221.5980 C   0  0  0  0  0  0  0  0  0  0  0  0
  141.4880   76.7120  220.3600 C   0  0  0  0  0  0  0  0  0  0  0  0
  141.6670   78.0810  220.2410 C   0  0  0  0  0  0  0  0  0  0  0  0
  141.5270   78.8270  221.3890 C   0  0  0  0  0  0  0  0  0  0  0  0
  141.7200   80.2040  221.2700 C   0  0  0  0  0  0  0  0  0  0  0  0
  141.5960   80.9760  222.4310 C   0  0  0  0  0  0  0  0  0  0  0  0
  141.7880   82.3330  222.3070 F   0  0  0  0  0  0  0  0  0  0  0  0
  141.2940   80.3950  223.6430 C   0  0  0  0  0  0  0  0  0  0  0  0
  141.1030   79.0350  223.7600 C   0  0  0  0  0  0  0  0  0  0  0  0
  141.2240   78.2560  222.6060 C   0  0  0  0  0  0  0  0  0  0  0  0
  141.0540   76.9020  222.6880 N   0  0  0  0  0  0  0  0  0  0  0  0
  142.8870   74.1260  220.7500 H   0  0  0  0  0  0  0  0  0  0  0  0
  142.1941   71.8920  222.0058 H   0  0  0  0  0  0  0  0  0  0  0  0
  140.5453   72.2822  221.3511 H   0  0  0  0  0  0  0  0  0  0  0  0
  141.5377   69.4012  218.3318 H   0  0  0  0  0  0  0  0  0  0  0  0
  140.0552   69.2229  219.2465 H   0  0  0  0  0  0  0  0  0  0  0  0
  140.3781   69.8452  216.4372 H   0  0  0  0  0  0  0  0  0  0  0  0
  138.8441   69.6896  217.3285 H   0  0  0  0  0  0  0  0  0  0  0  0
  140.4505   72.1872  216.6829 H   0  0  0  0  0  0  0  0  0  0  0  0
  138.7263   72.0362  216.7241 H   0  0  0  0  0  0  0  0  0  0  0  0
  139.8249   73.1052  219.0065 H   0  0  0  0  0  0  0  0  0  0  0  0
  137.5536   72.1587  218.8229 H   0  0  0  0  0  0  0  0  0  0  0  0
  138.2170   70.5983  219.3392 H   0  0  0  0  0  0  0  0  0  0  0  0
  138.3290   73.2150  220.9170 H   0  0  0  0  0  0  0  0  0  0  0  0
  137.8214   72.6383  223.3644 H   0  0  0  0  0  0  0  0  0  0  0  0
  138.2818   71.0631  225.2298 H   0  0  0  0  0  0  0  0  0  0  0  0
  141.3419   70.7056  225.9126 H   0  0  0  0  0  0  0  0  0  0  0  0
  139.7279   71.1018  226.4656 H   0  0  0  0  0  0  0  0  0  0  0  0
  142.1120   70.0211  228.0543 H   0  0  0  0  0  0  0  0  0  0  0  0
  140.8753   71.1140  228.6321 H   0  0  0  0  0  0  0  0  0  0  0  0
  140.6759   68.5662  229.4399 H   0  0  0  0  0  0  0  0  0  0  0  0
  139.1964   69.1902  228.8175 H   0  0  0  0  0  0  0  0  0  0  0  0
  141.4637   67.7114  227.2409 H   0  0  0  0  0  0  0  0  0  0  0  0
  139.8170   67.1678  227.3271 H   0  0  0  0  0  0  0  0  0  0  0  0
  140.0274   68.2851  222.4720 H   0  0  0  0  0  0  0  0  0  0  0  0
  139.5713   69.8441  220.6337 H   0  0  0  0  0  0  0  0  0  0  0  0
  141.5897   76.0738  219.4698 H   0  0  0  0  0  0  0  0  0  0  0  0
  141.9093   78.5489  219.2754 H   0  0  0  0  0  0  0  0  0  0  0  0
  141.9604   80.6652  220.3007 H   0  0  0  0  0  0  0  0  0  0  0  0
  141.2034   81.0301  224.5366 H   0  0  0  0  0  0  0  0  0  0  0  0
  140.8629   78.5772  224.7310 H   0  0  0  0  0  0  0  0  0  0  0  0
  1  2  2  0
  2  3  1  0
  3  4  1  0
  4  5  1  0
  5  6  2  0
  5  7  1  0
  7  8  1  0
  8  9  1  0
  9 10  1  0
 10 11  1  0
 11 12  1  0
 12 13  1  0
 13 14  1  0
 14 15  2  0
 15 16  1  0
 16 17  2  0
 17 18  1  0
 18 19  2  0
 18 20  1  0
 20 21  1  0
 21 22  1  0
 22 23  1  0
 23 24  1  0
 17 25  1  0
 25 26  2  0
  2 27  1  0
 27 28  2  0
 28 29  1  0
 29 30  2  0
 30 31  1  0
 31 32  2  0
 32 33  1  0
 32 34  1  0
 34 35  2  0
 35 36  1  0
 36 37  2  0
 11  7  1  0
 26 14  1  0
 37 27  1  0
 24 20  1  0
 36 30  1  0
  3 38  1  0
  4 39  1  0
  4 40  1  0
  8 41  1  0
  8 42  1  0
  9 43  1  0
  9 44  1  0
 10 45  1  0
 10 46  1  0
 11 47  1  6
 12 48  1  0
 12 49  1  0
 13 50  1  0
 15 51  1  0
 16 52  1  0
 21 53  1  0
 21 54  1  0
 22 55  1  0
 22 56  1  0
 23 57  1  0
 23 58  1  0
 24 59  1  0
 24 60  1  0
 25 61  1  0
 26 62  1  0
 28 63  1  0
 29 64  1  0
 31 65  1  0
 34 66  1  0
 35 67  1  0
M  END
>  <smiles>  (29) 
O=C(NCC(=O)N1CCC[C@H]1CNc1ccc(C(=O)N2CCCC2)cc1)c1ccc2cc(F)ccc2n1

>  <score_type>  (29) 
oracle

>  <origin>  (29) 
autodockgpu

>  <m_score__min__energy>  (29) 
-8.9399999999999995

>  <m_primary>  (29) 
energy

>  <rmsd>  (29) 
4.419514387537399

>  <m_score__min__rmsd>  (29) 
4.419514387537399

>  <meeko>  (29) 
{"free_energy": -7.76, "intermolecular_energy": -10.15, "internal_energy": -2.82, "cluster_size": 5, "cluster_id": 6, "rank_in_cluster": 3}

>  <energy>  (29) 
-7.88

>  <cluster_rmsd>  (29) 
0.32

>  <cluster>  (29) 
9

$$$$

     RDKit          3D

 67 71  0  0  0  0  0  0  0  0999 V2000
  136.3170   77.1750  222.0420 O   0  0  0  0  0  0  0  0  0  0  0  0
  136.4810   76.1460  222.7840 C   0  0  0  0  0  0  0  0  0  0  0  0
  137.6360   75.3720  222.4940 N   0  0  0  0  0  0  0  0  0  0  0  0
  138.4860   75.8360  221.4220 C   0  0  0  0  0  0  0  0  0  0  0  0
  139.8890   76.0230  221.8620 C   0  0  0  0  0  0  0  0  0  0  0  0
  140.6840   75.0930  222.1110 O   0  0  0  0  0  0  0  0  0  0  0  0
  140.3290   77.3910  221.9980 N   0  0  0  0  0  0  0  0  0  0  0  0
  141.4380   78.0330  221.2890 C   0  0  0  0  0  0  0  0  0  0  0  0
  141.9310   79.0400  222.2760 C   0  0  0  0  0  0  0  0  0  0  0  0
  141.0580   78.9280  223.5120 C   0  0  0  0  0  0  0  0  0  0  0  0
  139.7730   78.3950  222.8820 C   0  0  1  0  0  0  0  0  0  0  0  0
  139.0640   79.5180  222.1940 C   0  0  0  0  0  0  0  0  0  0  0  0
  137.6660   79.4580  222.6480 N   0  0  0  0  0  0  0  0  0  0  0  0
  137.1710   80.2100  223.7230 C   0  0  0  0  0  0  0  0  0  0  0  0
  135.8350   80.3620  224.0300 C   0  0  0  0  0  0  0  0  0  0  0  0
  135.4330   81.1400  225.1210 C   0  0  0  0  0  0  0  0  0  0  0  0
  136.3640   81.7740  225.9130 C   0  0  0  0  0  0  0  0  0  0  0  0
  136.0210   82.5990  227.0630 C   0  0  0  0  0  0  0  0  0  0  0  0
  136.6110   83.7250  227.1700 O   0  0  0  0  0  0  0  0  0  0  0  0
  135.0660   82.1610  228.0240 N   0  0  0  0  0  0  0  0  0  0  0  0
  134.3280   80.8980  227.9890 C   0  0  0  0  0  0  0  0  0  0  0  0
  133.5490   80.9090  229.3170 C   0  0  0  0  0  0  0  0  0  0  0  0
  134.4180   81.8070  230.2090 C   0  0  0  0  0  0  0  0  0  0  0  0
  134.6880   82.9330  229.2040 C   0  0  0  0  0  0  0  0  0  0  0  0
  137.7010   81.6330  225.6210 C   0  0  0  0  0  0  0  0  0  0  0  0
  138.0850   80.8670  224.5470 C   0  0  0  0  0  0  0  0  0  0  0  0
  135.5300   75.8300  223.8360 C   0  0  0  0  0  0  0  0  0  0  0  0
  134.8110   76.9110  224.3680 C   0  0  0  0  0  0  0  0  0  0  0  0
  133.8700   76.7220  225.3680 C   0  0  0  0  0  0  0  0  0  0  0  0
  133.6830   75.4310  225.8080 C   0  0  0  0  0  0  0  0  0  0  0  0
  132.7450   75.2440  226.8240 C   0  0  0  0  0  0  0  0  0  0  0  0
  132.5520   73.9390  227.2920 C   0  0  0  0  0  0  0  0  0  0  0  0
  131.6260   73.7610  228.2950 F   0  0  0  0  0  0  0  0  0  0  0  0
  133.2630   72.8830  226.7660 C   0  0  0  0  0  0  0  0  0  0  0  0
  134.1880   73.0680  225.7630 C   0  0  0  0  0  0  0  0  0  0  0  0
  134.3870   74.3670  225.2890 C   0  0  0  0  0  0  0  0  0  0  0  0
  135.3080   74.5890  224.3020 N   0  0  0  0  0  0  0  0  0  0  0  0
  137.8290   74.5050  223.0600 H   0  0  0  0  0  0  0  0  0  0  0  0
  138.4654   75.0964  220.6080 H   0  0  0  0  0  0  0  0  0  0  0  0
  138.1042   76.8113  221.0859 H   0  0  0  0  0  0  0  0  0  0  0  0
  142.2239   77.3041  221.0420 H   0  0  0  0  0  0  0  0  0  0  0  0
  141.1383   78.4783  220.3289 H   0  0  0  0  0  0  0  0  0  0  0  0
  142.9792   78.8303  222.5356 H   0  0  0  0  0  0  0  0  0  0  0  0
  141.8797   80.0548  221.8545 H   0  0  0  0  0  0  0  0  0  0  0  0
  141.4765   78.2224  224.2448 H   0  0  0  0  0  0  0  0  0  0  0  0
  140.9416   79.8610  224.0829 H   0  0  0  0  0  0  0  0  0  0  0  0
  139.0065   77.9800  223.5530 H   0  0  0  0  0  0  0  0  0  0  0  0
  139.5148   80.4818  222.4730 H   0  0  0  0  0  0  0  0  0  0  0  0
  139.1351   79.4275  221.1000 H   0  0  0  0  0  0  0  0  0  0  0  0
  136.9970   78.8230  222.1470 H   0  0  0  0  0  0  0  0  0  0  0  0
  135.0755   79.8649  223.4087 H   0  0  0  0  0  0  0  0  0  0  0  0
  134.3620   81.2463  225.3485 H   0  0  0  0  0  0  0  0  0  0  0  0
  133.6422   80.8656  227.1296 H   0  0  0  0  0  0  0  0  0  0  0  0
  134.9810   80.0196  227.8791 H   0  0  0  0  0  0  0  0  0  0  0  0
  132.5438   81.3354  229.1839 H   0  0  0  0  0  0  0  0  0  0  0  0
  133.3846   79.9051  229.7356 H   0  0  0  0  0  0  0  0  0  0  0  0
  133.8720   82.1641  231.0947 H   0  0  0  0  0  0  0  0  0  0  0  0
  135.3093   81.3301  230.6428 H   0  0  0  0  0  0  0  0  0  0  0  0
  133.7871   83.5371  229.0211 H   0  0  0  0  0  0  0  0  0  0  0  0
  135.4420   83.6643  229.5308 H   0  0  0  0  0  0  0  0  0  0  0  0
  138.4585   82.1309  226.2441 H   0  0  0  0  0  0  0  0  0  0  0  0
  139.1583   80.7676  224.3276 H   0  0  0  0  0  0  0  0  0  0  0  0
  134.9972   77.9253  223.9852 H   0  0  0  0  0  0  0  0  0  0  0  0
  133.3001   77.5630  225.7897 H   0  0  0  0  0  0  0  0  0  0  0  0
  132.1788   76.0898  227.2412 H   0  0  0  0  0  0  0  0  0  0  0  0
  133.0879   71.8694  227.1559 H   0  0  0  0  0  0  0  0  0  0  0  0
  134.7524   72.2199  225.3481 H   0  0  0  0  0  0  0  0  0  0  0  0
  1  2  2  0
  2  3  1  0
  3  4  1  0
  4  5  1  0
  5  6  2  0
  5  7  1  0
  7  8  1  0
  8  9  1  0
  9 10  1  0
 10 11  1  0
 11 12  1  0
 12 13  1  0
 13 14  1  0
 14 15  2  0
 15 16  1  0
 16 17  2  0
 17 18  1  0
 18 19  2  0
 18 20  1  0
 20 21  1  0
 21 22  1  0
 22 23  1  0
 23 24  1  0
 17 25  1  0
 25 26  2  0
  2 27  1  0
 27 28  2  0
 28 29  1  0
 29 30  2  0
 30 31  1  0
 31 32  2  0
 32 33  1  0
 32 34  1  0
 34 35  2  0
 35 36  1  0
 36 37  2  0
 11  7  1  0
 26 14  1  0
 37 27  1  0
 24 20  1  0
 36 30  1  0
  3 38  1  0
  4 39  1  0
  4 40  1  0
  8 41  1  0
  8 42  1  0
  9 43  1  0
  9 44  1  0
 10 45  1  0
 10 46  1  0
 11 47  1  1
 12 48  1  0
 12 49  1  0
 13 50  1  0
 15 51  1  0
 16 52  1  0
 21 53  1  0
 21 54  1  0
 22 55  1  0
 22 56  1  0
 23 57  1  0
 23 58  1  0
 24 59  1  0
 24 60  1  0
 25 61  1  0
 26 62  1  0
 28 63  1  0
 29 64  1  0
 31 65  1  0
 34 66  1  0
 35 67  1  0
M  END
>  <smiles>  (30) 
O=C(NCC(=O)N1CCC[C@H]1CNc1ccc(C(=O)N2CCCC2)cc1)c1ccc2cc(F)ccc2n1

>  <score_type>  (30) 
oracle

>  <origin>  (30) 
autodockgpu

>  <m_score__min__energy>  (30) 
-8.9399999999999995

>  <m_primary>  (30) 
energy

>  <rmsd>  (30) 
8.510916535207203

>  <m_score__min__rmsd>  (30) 
8.510916535207203

>  <meeko>  (30) 
{"free_energy": -8.09, "intermolecular_energy": -10.48, "internal_energy": -2.98, "cluster_size": 1, "cluster_id": 7, "rank_in_cluster": 1}

>  <energy>  (30) 
-7.97

>  <cluster_rmsd>  (30) 
0.0

>  <cluster>  (30) 
10

$$$$

     RDKit          3D

 67 71  0  0  0  0  0  0  0  0999 V2000
  140.3960   76.5180  219.6230 O   0  0  0  0  0  0  0  0  0  0  0  0
  141.6700   76.6400  219.6290 C   0  0  0  0  0  0  0  0  0  0  0  0
  142.1480   77.9740  219.7160 N   0  0  0  0  0  0  0  0  0  0  0  0
  141.1570   79.0220  219.8000 C   0  0  0  0  0  0  0  0  0  0  0  0
  141.7030   80.2590  220.4090 C   0  0  0  0  0  0  0  0  0  0  0  0
  142.1250   81.2400  219.7640 O   0  0  0  0  0  0  0  0  0  0  0  0
  141.7280   80.2910  221.8520 N   0  0  0  0  0  0  0  0  0  0  0  0
  140.9340   81.1590  222.7260 C   0  0  0  0  0  0  0  0  0  0  0  0
  141.8310   81.3600  223.9040 C   0  0  0  0  0  0  0  0  0  0  0  0
  143.1040   80.5760  223.6440 C   0  0  0  0  0  0  0  0  0  0  0  0
  142.5610   79.4870  222.7220 C   0  0  1  0  0  0  0  0  0  0  0  0
  141.8250   78.4750  223.5410 C   0  0  0  0  0  0  0  0  0  0  0  0
  141.2090   77.5440  222.5840 N   0  0  0  0  0  0  0  0  0  0  0  0
  139.8340   77.2700  222.5490 C   0  0  0  0  0  0  0  0  0  0  0  0
  138.8380   78.2120  222.6920 C   0  0  0  0  0  0  0  0  0  0  0  0
  137.4890   77.8440  222.6510 C   0  0  0  0  0  0  0  0  0  0  0  0
  137.1250   76.5290  222.4670 C   0  0  0  0  0  0  0  0  0  0  0  0
  135.7440   76.0710  222.4140 C   0  0  0  0  0  0  0  0  0  0  0  0
  135.1220   76.2220  221.3110 O   0  0  0  0  0  0  0  0  0  0  0  0
  135.1200   75.4790  223.5490 N   0  0  0  0  0  0  0  0  0  0  0  0
  135.7460   75.2510  224.8520 C   0  0  0  0  0  0  0  0  0  0  0  0
  134.5870   74.7100  225.7080 C   0  0  0  0  0  0  0  0  0  0  0  0
  133.3520   75.3080  225.0190 C   0  0  0  0  0  0  0  0  0  0  0  0
  133.7380   75.0130  223.5650 C   0  0  0  0  0  0  0  0  0  0  0  0
  138.1070   75.5750  222.3230 C   0  0  0  0  0  0  0  0  0  0  0  0
  139.4280   75.9480  222.3650 C   0  0  0  0  0  0  0  0  0  0  0  0
  142.5280   75.4700  219.5510 C   0  0  0  0  0  0  0  0  0  0  0  0
  142.1140   74.4530  218.6760 C   0  0  0  0  0  0  0  0  0  0  0  0
  142.8620   73.2980  218.5160 C   0  0  0  0  0  0  0  0  0  0  0  0
  144.0210   73.2020  219.2530 C   0  0  0  0  0  0  0  0  0  0  0  0
  144.7660   72.0330  219.1010 C   0  0  0  0  0  0  0  0  0  0  0  0
  145.9400   71.9130  219.8540 C   0  0  0  0  0  0  0  0  0  0  0  0
  146.6710   70.7570  219.7000 F   0  0  0  0  0  0  0  0  0  0  0  0
  146.3400   72.9140  220.7120 C   0  0  0  0  0  0  0  0  0  0  0  0
  145.6030   74.0680  220.8620 C   0  0  0  0  0  0  0  0  0  0  0  0
  144.4310   74.1970  220.1140 C   0  0  0  0  0  0  0  0  0  0  0  0
  143.6680   75.3250  220.2480 N   0  0  0  0  0  0  0  0  0  0  0  0
  143.1860   78.1490  219.7160 H   0  0  0  0  0  0  0  0  0  0  0  0
  140.7993   79.2540  218.7860 H   0  0  0  0  0  0  0  0  0  0  0  0
  140.3376   78.6627  220.4400 H   0  0  0  0  0  0  0  0  0  0  0  0
  140.7080   82.1161  222.2332 H   0  0  0  0  0  0  0  0  0  0  0  0
  139.9573   80.7290  222.9929 H   0  0  0  0  0  0  0  0  0  0  0  0
  142.0647   82.4285  224.0206 H   0  0  0  0  0  0  0  0  0  0  0  0
  141.3433   81.0137  224.8272 H   0  0  0  0  0  0  0  0  0  0  0  0
  143.8672   81.1908  223.1444 H   0  0  0  0  0  0  0  0  0  0  0  0
  143.6136   80.2074  224.5465 H   0  0  0  0  0  0  0  0  0  0  0  0
  143.2878   78.8826  222.1595 H   0  0  0  0  0  0  0  0  0  0  0  0
  142.5223   77.9380  224.2008 H   0  0  0  0  0  0  0  0  0  0  0  0
  141.0681   78.9510  224.1818 H   0  0  0  0  0  0  0  0  0  0  0  0
  141.8220   77.0530  221.8880 H   0  0  0  0  0  0  0  0  0  0  0  0
  139.1077   79.2680  222.8405 H   0  0  0  0  0  0  0  0  0  0  0  0
  136.7111   78.6131  222.7670 H   0  0  0  0  0  0  0  0  0  0  0  0
  136.5582   74.5131  224.7759 H   0  0  0  0  0  0  0  0  0  0  0  0
  136.2081   76.1560  225.2733 H   0  0  0  0  0  0  0  0  0  0  0  0
  134.5589   73.6105  225.6885 H   0  0  0  0  0  0  0  0  0  0  0  0
  134.6669   74.9789  226.7716 H   0  0  0  0  0  0  0  0  0  0  0  0
  132.4243   74.7957  225.3136 H   0  0  0  0  0  0  0  0  0  0  0  0
  133.1381   76.3615  225.2522 H   0  0  0  0  0  0  0  0  0  0  0  0
  133.6704   73.9388  223.3382 H   0  0  0  0  0  0  0  0  0  0  0  0
  133.0883   75.4890  222.8158 H   0  0  0  0  0  0  0  0  0  0  0  0
  137.8350   74.5195  222.1751 H   0  0  0  0  0  0  0  0  0  0  0  0
  140.1985   75.1716  222.2487 H   0  0  0  0  0  0  0  0  0  0  0  0
  141.1800   74.5754  218.1080 H   0  0  0  0  0  0  0  0  0  0  0  0
  142.5452   72.4961  217.8330 H   0  0  0  0  0  0  0  0  0  0  0  0
  144.4434   71.2355  218.4155 H   0  0  0  0  0  0  0  0  0  0  0  0
  147.2678   72.7890  221.2896 H   0  0  0  0  0  0  0  0  0  0  0  0
  145.9275   74.8630  221.5495 H   0  0  0  0  0  0  0  0  0  0  0  0
  1  2  2  0
  2  3  1  0
  3  4  1  0
  4  5  1  0
  5  6  2  0
  5  7  1  0
  7  8  1  0
  8  9  1  0
  9 10  1  0
 10 11  1  0
 11 12  1  0
 12 13  1  0
 13 14  1  0
 14 15  2  0
 15 16  1  0
 16 17  2  0
 17 18  1  0
 18 19  2  0
 18 20  1  0
 20 21  1  0
 21 22  1  0
 22 23  1  0
 23 24  1  0
 17 25  1  0
 25 26  2  0
  2 27  1  0
 27 28  2  0
 28 29  1  0
 29 30  2  0
 30 31  1  0
 31 32  2  0
 32 33  1  0
 32 34  1  0
 34 35  2  0
 35 36  1  0
 36 37  2  0
 11  7  1  0
 26 14  1  0
 37 27  1  0
 24 20  1  0
 36 30  1  0
  3 38  1  0
  4 39  1  0
  4 40  1  0
  8 41  1  0
  8 42  1  0
  9 43  1  0
  9 44  1  0
 10 45  1  0
 10 46  1  0
 11 47  1  6
 12 48  1  0
 12 49  1  0
 13 50  1  0
 15 51  1  0
 16 52  1  0
 21 53  1  0
 21 54  1  0
 22 55  1  0
 22 56  1  0
 23 57  1  0
 23 58  1  0
 24 59  1  0
 24 60  1  0
 25 61  1  0
 26 62  1  0
 28 63  1  0
 29 64  1  0
 31 65  1  0
 34 66  1  0
 35 67  1  0
M  END
>  <smiles>  (31) 
O=C(NCC(=O)N1CCC[C@H]1CNc1ccc(C(=O)N2CCCC2)cc1)c1ccc2cc(F)ccc2n1

>  <score_type>  (31) 
oracle

>  <origin>  (31) 
autodockgpu

>  <m_score__min__energy>  (31) 
-8.9399999999999995

>  <m_primary>  (31) 
energy

>  <rmsd>  (31) 
7.884204718694236

>  <m_score__min__rmsd>  (31) 
7.884204718694236

>  <meeko>  (31) 
{"free_energy": -8.06, "intermolecular_energy": -10.45, "internal_energy": -2.68, "cluster_size": 2, "cluster_id": 8, "rank_in_cluster": 1}

>  <energy>  (31) 
-7.49

>  <cluster_rmsd>  (31) 
1.73

>  <cluster>  (31) 
10

$$$$

     RDKit          3D

 67 71  0  0  0  0  0  0  0  0999 V2000
  139.0550   70.9990  221.1360 O   0  0  0  0  0  0  0  0  0  0  0  0
  138.8690   71.6200  222.2390 C   0  0  0  0  0  0  0  0  0  0  0  0
  138.1260   72.8260  222.1340 N   0  0  0  0  0  0  0  0  0  0  0  0
  137.6620   73.1980  220.8170 C   0  0  0  0  0  0  0  0  0  0  0  0
  138.1550   74.5350  220.4070 C   0  0  0  0  0  0  0  0  0  0  0  0
  137.5760   75.2870  219.5970 O   0  0  0  0  0  0  0  0  0  0  0  0
  139.3950   74.9600  221.0130 N   0  0  0  0  0  0  0  0  0  0  0  0
  139.5630   75.5750  222.3310 C   0  0  0  0  0  0  0  0  0  0  0  0
  140.7470   76.4670  222.1390 C   0  0  0  0  0  0  0  0  0  0  0  0
  141.2070   76.3030  220.7020 C   0  0  0  0  0  0  0  0  0  0  0  0
  140.7160   74.8840  220.4250 C   0  0  1  0  0  0  0  0  0  0  0  0
  141.6430   73.9110  221.0810 C   0  0  0  0  0  0  0  0  0  0  0  0
  141.4030   72.6150  220.4280 N   0  0  0  0  0  0  0  0  0  0  0  0
  142.4210   71.6900  220.1510 C   0  0  0  0  0  0  0  0  0  0  0  0
  143.7580   72.0020  220.0240 C   0  0  0  0  0  0  0  0  0  0  0  0
  144.7030   71.0110  219.7390 C   0  0  0  0  0  0  0  0  0  0  0  0
  144.3190   69.6990  219.5770 C   0  0  0  0  0  0  0  0  0  0  0  0
  145.2440   68.6150  219.2780 C   0  0  0  0  0  0  0  0  0  0  0  0
  145.9250   68.1460  220.2490 O   0  0  0  0  0  0  0  0  0  0  0  0
  145.3780   68.1050  217.9550 N   0  0  0  0  0  0  0  0  0  0  0  0
  144.6400   68.5650  216.7780 C   0  0  0  0  0  0  0  0  0  0  0  0
  145.2720   67.7560  215.6300 C   0  0  0  0  0  0  0  0  0  0  0  0
  146.6800   67.4560  216.1660 C   0  0  0  0  0  0  0  0  0  0  0  0
  146.2960   67.0320  217.5880 C   0  0  0  0  0  0  0  0  0  0  0  0
  142.9880   69.3700  219.7000 C   0  0  0  0  0  0  0  0  0  0  0  0
  142.0690   70.3510  219.9810 C   0  0  0  0  0  0  0  0  0  0  0  0
  139.3960   71.0940  223.4870 C   0  0  0  0  0  0  0  0  0  0  0  0
  140.3310   71.9000  224.1540 C   0  0  0  0  0  0  0  0  0  0  0  0
  140.8910   71.5020  225.3580 C   0  0  0  0  0  0  0  0  0  0  0  0
  140.4850   70.2850  225.8570 C   0  0  0  0  0  0  0  0  0  0  0  0
  141.0580   69.8780  227.0620 C   0  0  0  0  0  0  0  0  0  0  0  0
  140.6660   68.6370  227.5780 C   0  0  0  0  0  0  0  0  0  0  0  0
  141.2360   68.2420  228.7660 F   0  0  0  0  0  0  0  0  0  0  0  0
  139.7490   67.8500  226.9160 C   0  0  0  0  0  0  0  0  0  0  0  0
  139.1830   68.2520  225.7270 C   0  0  0  0  0  0  0  0  0  0  0  0
  139.5670   69.4900  225.2050 C   0  0  0  0  0  0  0  0  0  0  0  0
  139.0350   69.9150  224.0190 N   0  0  0  0  0  0  0  0  0  0  0  0
  137.9430   73.3940  223.0010 H   0  0  0  0  0  0  0  0  0  0  0  0
  138.0180   72.4514  220.0919 H   0  0  0  0  0  0  0  0  0  0  0  0
  136.5630   73.2368  220.8444 H   0  0  0  0  0  0  0  0  0  0  0  0
  138.6722   76.1558  222.6124 H   0  0  0  0  0  0  0  0  0  0  0  0
  139.7012   74.8397  223.1374 H   0  0  0  0  0  0  0  0  0  0  0  0
  140.4644   77.5134  222.3267 H   0  0  0  0  0  0  0  0  0  0  0  0
  141.5529   76.2007  222.8388 H   0  0  0  0  0  0  0  0  0  0  0  0
  140.7310   77.0369  220.0350 H   0  0  0  0  0  0  0  0  0  0  0  0
  142.2836   76.4599  220.5401 H   0  0  0  0  0  0  0  0  0  0  0  0
  140.6863   74.5463  219.3786 H   0  0  0  0  0  0  0  0  0  0  0  0
  142.6880   74.2231  220.9374 H   0  0  0  0  0  0  0  0  0  0  0  0
  141.4644   73.8540  222.1649 H   0  0  0  0  0  0  0  0  0  0  0  0
  140.4240   72.3590  220.1510 H   0  0  0  0  0  0  0  0  0  0  0  0
  144.0860   73.0446  220.1485 H   0  0  0  0  0  0  0  0  0  0  0  0
  145.7645   71.2830  219.6433 H   0  0  0  0  0  0  0  0  0  0  0  0
  143.5669   68.3429  216.8733 H   0  0  0  0  0  0  0  0  0  0  0  0
  144.7036   69.6526  216.6261 H   0  0  0  0  0  0  0  0  0  0  0  0
  144.7121   66.8277  215.4434 H   0  0  0  0  0  0  0  0  0  0  0  0
  145.2749   68.2903  214.6685 H   0  0  0  0  0  0  0  0  0  0  0  0
  147.1710   66.6439  215.6097 H   0  0  0  0  0  0  0  0  0  0  0  0
  147.4048   68.2802  216.0925 H   0  0  0  0  0  0  0  0  0  0  0  0
  145.7972   66.0517  217.5973 H   0  0  0  0  0  0  0  0  0  0  0  0
  147.1485   66.9082  218.2721 H   0  0  0  0  0  0  0  0  0  0  0  0
  142.6623   68.3269  219.5739 H   0  0  0  0  0  0  0  0  0  0  0  0
  141.0101   70.0688  220.0761 H   0  0  0  0  0  0  0  0  0  0  0  0
  140.6247   72.8644  223.7139 H   0  0  0  0  0  0  0  0  0  0  0  0
  141.6237   72.1278  225.8885 H   0  0  0  0  0  0  0  0  0  0  0  0
  141.7905   70.5086  227.5872 H   0  0  0  0  0  0  0  0  0  0  0  0
  139.4628   66.8792  227.3469 H   0  0  0  0  0  0  0  0  0  0  0  0
  138.4513   67.6184  225.2043 H   0  0  0  0  0  0  0  0  0  0  0  0
  1  2  2  0
  2  3  1  0
  3  4  1  0
  4  5  1  0
  5  6  2  0
  5  7  1  0
  7  8  1  0
  8  9  1  0
  9 10  1  0
 10 11  1  0
 11 12  1  0
 12 13  1  0
 13 14  1  0
 14 15  2  0
 15 16  1  0
 16 17  2  0
 17 18  1  0
 18 19  2  0
 18 20  1  0
 20 21  1  0
 21 22  1  0
 22 23  1  0
 23 24  1  0
 17 25  1  0
 25 26  2  0
  2 27  1  0
 27 28  2  0
 28 29  1  0
 29 30  2  0
 30 31  1  0
 31 32  2  0
 32 33  1  0
 32 34  1  0
 34 35  2  0
 35 36  1  0
 36 37  2  0
 11  7  1  0
 26 14  1  0
 37 27  1  0
 24 20  1  0
 36 30  1  0
  3 38  1  0
  4 39  1  0
  4 40  1  0
  8 41  1  0
  8 42  1  0
  9 43  1  0
  9 44  1  0
 10 45  1  0
 10 46  1  0
 11 47  1  6
 12 48  1  0
 12 49  1  0
 13 50  1  0
 15 51  1  0
 16 52  1  0
 21 53  1  0
 21 54  1  0
 22 55  1  0
 22 56  1  0
 23 57  1  0
 23 58  1  0
 24 59  1  0
 24 60  1  0
 25 61  1  0
 26 62  1  0
 28 63  1  0
 29 64  1  0
 31 65  1  0
 34 66  1  0
 35 67  1  0
M  END
>  <smiles>  (32) 
O=C(NCC(=O)N1CCC[C@H]1CNc1ccc(C(=O)N2CCCC2)cc1)c1ccc2cc(F)ccc2n1

>  <score_type>  (32) 
oracle

>  <origin>  (32) 
autodockgpu

>  <m_score__min__energy>  (32) 
-8.9399999999999995

>  <m_primary>  (32) 
energy

>  <rmsd>  (32) 
7.5396528254348025

>  <m_score__min__rmsd>  (32) 
7.5396528254348025

>  <meeko>  (32) 
{"free_energy": -7.87, "intermolecular_energy": -10.26, "internal_energy": -2.99, "cluster_size": 1, "cluster_id": 12, "rank_in_cluster": 1}

>  <energy>  (32) 
-6.98

>  <cluster_rmsd>  (32) 
1.26

>  <cluster>  (32) 
10

$$$$

     RDKit          3D

 67 71  0  0  0  0  0  0  0  0999 V2000
  137.3350   69.8360  222.2600 O   0  0  0  0  0  0  0  0  0  0  0  0
  137.7130   70.5420  223.2580 C   0  0  0  0  0  0  0  0  0  0  0  0
  137.3380   71.9100  223.2050 N   0  0  0  0  0  0  0  0  0  0  0  0
  136.5720   72.3370  222.0560 C   0  0  0  0  0  0  0  0  0  0  0  0
  137.4120   73.0340  221.0520 C   0  0  0  0  0  0  0  0  0  0  0  0
  136.9700   73.7720  220.1480 O   0  0  0  0  0  0  0  0  0  0  0  0
  138.8350   72.8180  221.1640 N   0  0  0  0  0  0  0  0  0  0  0  0
  139.5880   71.6580  220.6840 C   0  0  0  0  0  0  0  0  0  0  0  0
  140.7100   71.5550  221.6650 C   0  0  0  0  0  0  0  0  0  0  0  0
  140.5440   72.6870  222.6630 C   0  0  0  0  0  0  0  0  0  0  0  0
  139.7960   73.6980  221.7970 C   0  0  1  0  0  0  0  0  0  0  0  0
  140.7650   74.3490  220.8620 C   0  0  0  0  0  0  0  0  0  0  0  0
  141.4150   75.4220  221.6290 N   0  0  0  0  0  0  0  0  0  0  0  0
  140.7930   76.6430  221.9300 C   0  0  0  0  0  0  0  0  0  0  0  0
  139.6610   77.1260  221.3080 C   0  0  0  0  0  0  0  0  0  0  0  0
  139.1140   78.3610  221.6700 C   0  0  0  0  0  0  0  0  0  0  0  0
  139.6970   79.1260  222.6560 C   0  0  0  0  0  0  0  0  0  0  0  0
  139.1850   80.4200  223.0850 C   0  0  0  0  0  0  0  0  0  0  0  0
  140.0040   81.3970  223.0920 O   0  0  0  0  0  0  0  0  0  0  0  0
  137.8270   80.5800  223.4800 N   0  0  0  0  0  0  0  0  0  0  0  0
  136.8070   79.5290  223.4990 C   0  0  0  0  0  0  0  0  0  0  0  0
  135.5870   80.2360  224.1180 C   0  0  0  0  0  0  0  0  0  0  0  0
  136.2320   81.3460  224.9590 C   0  0  0  0  0  0  0  0  0  0  0  0
  137.2560   81.8440  223.9330 C   0  0  0  0  0  0  0  0  0  0  0  0
  140.8270   78.6590  223.2870 C   0  0  0  0  0  0  0  0  0  0  0  0
  141.3550   77.4440  222.9240 C   0  0  0  0  0  0  0  0  0  0  0  0
  138.4700   69.9450  224.3450 C   0  0  0  0  0  0  0  0  0  0  0  0
  138.5780   68.5460  224.3320 C   0  0  0  0  0  0  0  0  0  0  0  0
  139.2870   67.8730  225.3150 C   0  0  0  0  0  0  0  0  0  0  0  0
  139.8720   68.6430  226.2950 C   0  0  0  0  0  0  0  0  0  0  0  0
  140.5740   67.9650  227.2910 C   0  0  0  0  0  0  0  0  0  0  0  0
  141.1630   68.7320  228.3020 C   0  0  0  0  0  0  0  0  0  0  0  0
  141.8540   68.0560  229.2830 F   0  0  0  0  0  0  0  0  0  0  0  0
  141.0520   70.1050  228.3100 C   0  0  0  0  0  0  0  0  0  0  0  0
  140.3590   70.7750  227.3260 C   0  0  0  0  0  0  0  0  0  0  0  0
  139.7680   70.0180  226.3120 C   0  0  0  0  0  0  0  0  0  0  0  0
  139.0610   70.6490  225.3250 N   0  0  0  0  0  0  0  0  0  0  0  0
  137.6240   72.5520  223.9890 H   0  0  0  0  0  0  0  0  0  0  0  0
  136.1167   71.4533  221.5852 H   0  0  0  0  0  0  0  0  0  0  0  0
  135.8048   73.0440  222.4046 H   0  0  0  0  0  0  0  0  0  0  0  0
  138.9667   70.7504  220.6975 H   0  0  0  0  0  0  0  0  0  0  0  0
  139.9304   71.7640  219.6440 H   0  0  0  0  0  0  0  0  0  0  0  0
  140.6679   70.5863  222.1844 H   0  0  0  0  0  0  0  0  0  0  0  0
  141.6814   71.6264  221.1538 H   0  0  0  0  0  0  0  0  0  0  0  0
  139.9494   72.3780  223.5353 H   0  0  0  0  0  0  0  0  0  0  0  0
  141.4818   73.0580  223.1023 H   0  0  0  0  0  0  0  0  0  0  0  0
  139.3128   74.5479  222.3012 H   0  0  0  0  0  0  0  0  0  0  0  0
  141.5126   73.6190  220.5181 H   0  0  0  0  0  0  0  0  0  0  0  0
  140.2580   74.7440  219.9693 H   0  0  0  0  0  0  0  0  0  0  0  0
  142.3960   75.2760  221.9750 H   0  0  0  0  0  0  0  0  0  0  0  0
  139.1817   76.5316  220.5162 H   0  0  0  0  0  0  0  0  0  0  0  0
  138.2088   78.7253  221.1621 H   0  0  0  0  0  0  0  0  0  0  0  0
  136.5845   79.1765  222.4810 H   0  0  0  0  0  0  0  0  0  0  0  0
  137.1184   78.6349  224.0591 H   0  0  0  0  0  0  0  0  0  0  0  0
  134.9347   80.6569  223.3387 H   0  0  0  0  0  0  0  0  0  0  0  0
  134.9427   79.5633  224.7030 H   0  0  0  0  0  0  0  0  0  0  0  0
  135.5099   82.1279  225.2367 H   0  0  0  0  0  0  0  0  0  0  0  0
  136.6431   81.0316  225.9297 H   0  0  0  0  0  0  0  0  0  0  0  0
  136.7714   82.3877  223.1086 H   0  0  0  0  0  0  0  0  0  0  0  0
  137.9909   82.5580  224.3331 H   0  0  0  0  0  0  0  0  0  0  0  0
  141.3050   79.2555  224.0780 H   0  0  0  0  0  0  0  0  0  0  0  0
  142.2593   77.0876  223.4390 H   0  0  0  0  0  0  0  0  0  0  0  0
  138.0919   67.9736  223.5282 H   0  0  0  0  0  0  0  0  0  0  0  0
  139.3778   66.7768  225.3121 H   0  0  0  0  0  0  0  0  0  0  0  0
  140.6614   66.8685  227.2821 H   0  0  0  0  0  0  0  0  0  0  0  0
  141.5270   70.6787  229.1195 H   0  0  0  0  0  0  0  0  0  0  0  0
  140.2737   71.8716  227.3385 H   0  0  0  0  0  0  0  0  0  0  0  0
  1  2  2  0
  2  3  1  0
  3  4  1  0
  4  5  1  0
  5  6  2  0
  5  7  1  0
  7  8  1  0
  8  9  1  0
  9 10  1  0
 10 11  1  0
 11 12  1  0
 12 13  1  0
 13 14  1  0
 14 15  2  0
 15 16  1  0
 16 17  2  0
 17 18  1  0
 18 19  2  0
 18 20  1  0
 20 21  1  0
 21 22  1  0
 22 23  1  0
 23 24  1  0
 17 25  1  0
 25 26  2  0
  2 27  1  0
 27 28  2  0
 28 29  1  0
 29 30  2  0
 30 31  1  0
 31 32  2  0
 32 33  1  0
 32 34  1  0
 34 35  2  0
 35 36  1  0
 36 37  2  0
 11  7  1  0
 26 14  1  0
 37 27  1  0
 24 20  1  0
 36 30  1  0
  3 38  1  0
  4 39  1  0
  4 40  1  0
  8 41  1  0
  8 42  1  0
  9 43  1  0
  9 44  1  0
 10 45  1  0
 10 46  1  0
 11 47  1  1
 12 48  1  0
 12 49  1  0
 13 50  1  0
 15 51  1  0
 16 52  1  0
 21 53  1  0
 21 54  1  0
 22 55  1  0
 22 56  1  0
 23 57  1  0
 23 58  1  0
 24 59  1  0
 24 60  1  0
 25 61  1  0
 26 62  1  0
 28 63  1  0
 29 64  1  0
 31 65  1  0
 34 66  1  0
 35 67  1  0
M  END
>  <smiles>  (33) 
O=C(NCC(=O)N1CCC[C@H]1CNc1ccc(C(=O)N2CCCC2)cc1)c1ccc2cc(F)ccc2n1

>  <score_type>  (33) 
oracle

>  <origin>  (33) 
autodockgpu

>  <m_score__min__energy>  (33) 
-8.9399999999999995

>  <m_primary>  (33) 
energy

>  <rmsd>  (33) 
9.446662086508445

>  <m_score__min__rmsd>  (33) 
9.446662086508445

>  <meeko>  (33) 
{"free_energy": -7.96, "intermolecular_energy": -10.35, "internal_energy": -2.26, "cluster_size": 1, "cluster_id": 11, "rank_in_cluster": 1}

>  <energy>  (33) 
-6.95

>  <cluster_rmsd>  (33) 
1.36

>  <cluster>  (33) 
10

$$$$

     RDKit          3D

 67 71  0  0  0  0  0  0  0  0999 V2000
  140.7080   73.5400  222.2980 O   0  0  0  0  0  0  0  0  0  0  0  0
  140.4560   72.2860  222.2570 C   0  0  0  0  0  0  0  0  0  0  0  0
  140.3930   71.7260  220.9540 N   0  0  0  0  0  0  0  0  0  0  0  0
  140.6310   72.6190  219.8430 C   0  0  0  0  0  0  0  0  0  0  0  0
  141.8400   72.2430  219.0710 C   0  0  0  0  0  0  0  0  0  0  0  0
  141.9140   71.2600  218.3050 O   0  0  0  0  0  0  0  0  0  0  0  0
  142.9890   73.0990  219.2450 N   0  0  0  0  0  0  0  0  0  0  0  0
  144.3180   72.9160  218.6570 C   0  0  0  0  0  0  0  0  0  0  0  0
  145.2250   73.5090  219.6850 C   0  0  0  0  0  0  0  0  0  0  0  0
  144.3540   74.0170  220.8200 C   0  0  0  0  0  0  0  0  0  0  0  0
  143.0610   74.2960  220.0570 C   0  0  1  0  0  0  0  0  0  0  0  0
  143.2130   75.5700  219.2880 C   0  0  0  0  0  0  0  0  0  0  0  0
  142.5830   76.6180  220.1050 N   0  0  0  0  0  0  0  0  0  0  0  0
  141.3380   76.4640  220.7320 C   0  0  0  0  0  0  0  0  0  0  0  0
  141.0920   76.7020  222.0680 C   0  0  0  0  0  0  0  0  0  0  0  0
  139.8160   76.5140  222.6080 C   0  0  0  0  0  0  0  0  0  0  0  0
  138.7740   76.0840  221.8170 C   0  0  0  0  0  0  0  0  0  0  0  0
  137.4200   75.8650  222.3080 C   0  0  0  0  0  0  0  0  0  0  0  0
  136.7670   76.8910  222.6920 O   0  0  0  0  0  0  0  0  0  0  0  0
  136.8570   74.5590  222.3540 N   0  0  0  0  0  0  0  0  0  0  0  0
  137.5160   73.3230  221.9300 C   0  0  0  0  0  0  0  0  0  0  0  0
  136.4990   72.2330  222.3170 C   0  0  0  0  0  0  0  0  0  0  0  0
  135.7280   72.8870  223.4720 C   0  0  0  0  0  0  0  0  0  0  0  0
  135.5140   74.2710  222.8470 C   0  0  0  0  0  0  0  0  0  0  0  0
  139.0020   75.8420  220.4810 C   0  0  0  0  0  0  0  0  0  0  0  0
  140.2590   76.0300  219.9610 C   0  0  0  0  0  0  0  0  0  0  0  0
  140.2560   71.5280  223.4810 C   0  0  0  0  0  0  0  0  0  0  0  0
  139.5200   70.3390  223.3600 C   0  0  0  0  0  0  0  0  0  0  0  0
  139.2790   69.5310  224.4610 C   0  0  0  0  0  0  0  0  0  0  0  0
  139.7940   69.9550  225.6650 C   0  0  0  0  0  0  0  0  0  0  0  0
  139.5390   69.1490  226.7750 C   0  0  0  0  0  0  0  0  0  0  0  0
  140.0440   69.5720  228.0100 C   0  0  0  0  0  0  0  0  0  0  0  0
  139.7890   68.7720  229.1010 F   0  0  0  0  0  0  0  0  0  0  0  0
  140.7640   70.7410  228.1210 C   0  0  0  0  0  0  0  0  0  0  0  0
  141.0160   71.5370  227.0250 C   0  0  0  0  0  0  0  0  0  0  0  0
  140.5170   71.1220  225.7880 C   0  0  0  0  0  0  0  0  0  0  0  0
  140.7360   71.8950  224.6810 N   0  0  0  0  0  0  0  0  0  0  0  0
  140.1810   70.7000  220.8440 H   0  0  0  0  0  0  0  0  0  0  0  0
  139.7594   72.5903  219.1725 H   0  0  0  0  0  0  0  0  0  0  0  0
  140.7904   73.6286  220.2495 H   0  0  0  0  0  0  0  0  0  0  0  0
  144.5387   71.8494  218.5031 H   0  0  0  0  0  0  0  0  0  0  0  0
  144.4217   73.3829  217.6664 H   0  0  0  0  0  0  0  0  0  0  0  0
  145.9210   72.7436  220.0588 H   0  0  0  0  0  0  0  0  0  0  0  0
  145.8178   74.3289  219.2534 H   0  0  0  0  0  0  0  0  0  0  0  0
  144.2118   73.2533  221.5988 H   0  0  0  0  0  0  0  0  0  0  0  0
  144.7634   74.8780  221.3687 H   0  0  0  0  0  0  0  0  0  0  0  0
  142.1445   74.4567  220.6436 H   0  0  0  0  0  0  0  0  0  0  0  0
  144.2780   75.7966  219.1316 H   0  0  0  0  0  0  0  0  0  0  0  0
  142.7441   75.4984  218.2955 H   0  0  0  0  0  0  0  0  0  0  0  0
  143.0840   77.5320  220.2320 H   0  0  0  0  0  0  0  0  0  0  0  0
  141.9109   77.0445  222.7177 H   0  0  0  0  0  0  0  0  0  0  0  0
  139.6427   76.7117  223.6761 H   0  0  0  0  0  0  0  0  0  0  0  0
  137.6986   73.3252  220.8453 H   0  0  0  0  0  0  0  0  0  0  0  0
  138.5024   73.1780  222.3948 H   0  0  0  0  0  0  0  0  0  0  0  0
  135.8299   71.9980  221.4761 H   0  0  0  0  0  0  0  0  0  0  0  0
  136.9672   71.2760  222.5908 H   0  0  0  0  0  0  0  0  0  0  0  0
  134.7772   72.3740  223.6787 H   0  0  0  0  0  0  0  0  0  0  0  0
  136.2324   72.8769  224.4495 H   0  0  0  0  0  0  0  0  0  0  0  0
  134.7808   74.2362  222.0277 H   0  0  0  0  0  0  0  0  0  0  0  0
  135.1111   75.0257  223.5385 H   0  0  0  0  0  0  0  0  0  0  0  0
  138.1814   75.4998  219.8333 H   0  0  0  0  0  0  0  0  0  0  0  0
  140.4221   75.8300  218.8917 H   0  0  0  0  0  0  0  0  0  0  0  0
  139.1279   70.0432  222.3757 H   0  0  0  0  0  0  0  0  0  0  0  0
  138.7044   68.5969  224.3763 H   0  0  0  0  0  0  0  0  0  0  0  0
  138.9629   68.2165  226.6830 H   0  0  0  0  0  0  0  0  0  0  0  0
  141.1462   71.0458  229.1064 H   0  0  0  0  0  0  0  0  0  0  0  0
  141.5917   72.4694  227.1210 H   0  0  0  0  0  0  0  0  0  0  0  0
  1  2  2  0
  2  3  1  0
  3  4  1  0
  4  5  1  0
  5  6  2  0
  5  7  1  0
  7  8  1  0
  8  9  1  0
  9 10  1  0
 10 11  1  0
 11 12  1  0
 12 13  1  0
 13 14  1  0
 14 15  2  0
 15 16  1  0
 16 17  2  0
 17 18  1  0
 18 19  2  0
 18 20  1  0
 20 21  1  0
 21 22  1  0
 22 23  1  0
 23 24  1  0
 17 25  1  0
 25 26  2  0
  2 27  1  0
 27 28  2  0
 28 29  1  0
 29 30  2  0
 30 31  1  0
 31 32  2  0
 32 33  1  0
 32 34  1  0
 34 35  2  0
 35 36  1  0
 36 37  2  0
 11  7  1  0
 26 14  1  0
 37 27  1  0
 24 20  1  0
 36 30  1  0
  3 38  1  0
  4 39  1  0
  4 40  1  0
  8 41  1  0
  8 42  1  0
  9 43  1  0
  9 44  1  0
 10 45  1  0
 10 46  1  0
 11 47  1  1
 12 48  1  0
 12 49  1  0
 13 50  1  0
 15 51  1  0
 16 52  1  0
 21 53  1  0
 21 54  1  0
 22 55  1  0
 22 56  1  0
 23 57  1  0
 23 58  1  0
 24 59  1  0
 24 60  1  0
 25 61  1  0
 26 62  1  0
 28 63  1  0
 29 64  1  0
 31 65  1  0
 34 66  1  0
 35 67  1  0
M  END
>  <smiles>  (34) 
O=C(NCC(=O)N1CCC[C@H]1CNc1ccc(C(=O)N2CCCC2)cc1)c1ccc2cc(F)ccc2n1

>  <score_type>  (34) 
oracle

>  <origin>  (34) 
autodockgpu

>  <m_score__min__energy>  (34) 
-8.9399999999999995

>  <m_primary>  (34) 
energy

>  <rmsd>  (34) 
8.750468351865626

>  <m_score__min__rmsd>  (34) 
8.750468351865626

>  <meeko>  (34) 
{"free_energy": -7.88, "intermolecular_energy": -10.26, "internal_energy": -3.1, "cluster_size": 2, "cluster_id": 9, "rank_in_cluster": 2}

>  <energy>  (34) 
-7.96

>  <cluster_rmsd>  (34) 
0.0

>  <cluster>  (34) 
11

$$$$

     RDKit          3D

 67 71  0  0  0  0  0  0  0  0999 V2000
  141.5460   73.8890  220.8460 O   0  0  0  0  0  0  0  0  0  0  0  0
  140.8250   74.6560  221.5730 C   0  0  0  0  0  0  0  0  0  0  0  0
  139.8060   74.0010  222.3140 N   0  0  0  0  0  0  0  0  0  0  0  0
  139.7120   72.5660  222.1750 C   0  0  0  0  0  0  0  0  0  0  0  0
  138.8160   72.1700  221.0620 C   0  0  0  0  0  0  0  0  0  0  0  0
  139.1090   71.3390  220.1780 O   0  0  0  0  0  0  0  0  0  0  0  0
  137.5240   72.8130  221.0360 N   0  0  0  0  0  0  0  0  0  0  0  0
  137.0070   73.7060  219.9980 C   0  0  0  0  0  0  0  0  0  0  0  0
  136.1130   74.6280  220.7610 C   0  0  0  0  0  0  0  0  0  0  0  0
  136.1560   74.1990  222.2160 C   0  0  0  0  0  0  0  0  0  0  0  0
  136.4900   72.7190  222.0470 C   0  0  1  0  0  0  0  0  0  0  0  0
  135.2580   71.9860  221.6220 C   0  0  0  0  0  0  0  0  0  0  0  0
  135.5910   70.5540  221.6880 N   0  0  0  0  0  0  0  0  0  0  0  0
  136.5360   70.0210  222.5780 C   0  0  0  0  0  0  0  0  0  0  0  0
  137.6140   69.2440  222.2110 C   0  0  0  0  0  0  0  0  0  0  0  0
  138.5020   68.7490  223.1720 C   0  0  0  0  0  0  0  0  0  0  0  0
  138.3170   69.0260  224.5080 C   0  0  0  0  0  0  0  0  0  0  0  0
  139.1980   68.5450  225.5640 C   0  0  0  0  0  0  0  0  0  0  0  0
  139.1900   67.2930  225.8050 O   0  0  0  0  0  0  0  0  0  0  0  0
  140.0300   69.4420  226.2920 N   0  0  0  0  0  0  0  0  0  0  0  0
  140.1220   70.8880  226.0880 C   0  0  0  0  0  0  0  0  0  0  0  0
  141.0650   71.3430  227.2170 C   0  0  0  0  0  0  0  0  0  0  0  0
  140.8630   70.2560  228.2830 C   0  0  0  0  0  0  0  0  0  0  0  0
  140.9240   69.0270  227.3690 C   0  0  0  0  0  0  0  0  0  0  0  0
  137.2450   69.7990  224.8920 C   0  0  0  0  0  0  0  0  0  0  0  0
  136.3800   70.2810  223.9400 C   0  0  0  0  0  0  0  0  0  0  0  0
  141.0660   76.0880  221.6090 C   0  0  0  0  0  0  0  0  0  0  0  0
  141.5310   76.6690  220.4180 C   0  0  0  0  0  0  0  0  0  0  0  0
  141.7830   78.0290  220.3360 C   0  0  0  0  0  0  0  0  0  0  0  0
  141.5580   78.7720  221.4730 C   0  0  0  0  0  0  0  0  0  0  0  0
  141.8250   80.1390  221.3940 C   0  0  0  0  0  0  0  0  0  0  0  0
  141.6130   80.9060  222.5450 C   0  0  0  0  0  0  0  0  0  0  0  0
  141.8790   82.2540  222.4600 F   0  0  0  0  0  0  0  0  0  0  0  0
  141.1590   80.3290  223.7110 C   0  0  0  0  0  0  0  0  0  0  0  0
  140.8950   78.9790  223.7890 C   0  0  0  0  0  0  0  0  0  0  0  0
  141.1020   78.2050  222.6440 C   0  0  0  0  0  0  0  0  0  0  0  0
  140.8630   76.8590  222.6900 N   0  0  0  0  0  0  0  0  0  0  0  0
  139.1690   74.5720  222.9270 H   0  0  0  0  0  0  0  0  0  0  0  0
  140.7168   72.1619  221.9822 H   0  0  0  0  0  0  0  0  0  0  0  0
  139.2913   72.1626  223.1079 H   0  0  0  0  0  0  0  0  0  0  0  0
  137.8230   74.2600  219.5110 H   0  0  0  0  0  0  0  0  0  0  0  0
  136.4889   73.1731  219.1871 H   0  0  0  0  0  0  0  0  0  0  0  0
  136.4697   75.6640  220.6636 H   0  0  0  0  0  0  0  0  0  0  0  0
  135.0849   74.5827  220.3725 H   0  0  0  0  0  0  0  0  0  0  0  0
  136.9382   74.7326  222.7759 H   0  0  0  0  0  0  0  0  0  0  0  0
  135.2383   74.4043  222.7866 H   0  0  0  0  0  0  0  0  0  0  0  0
  136.8258   72.1641  222.9354 H   0  0  0  0  0  0  0  0  0  0  0  0
  134.4239   72.2156  222.3014 H   0  0  0  0  0  0  0  0  0  0  0  0
  134.9456   72.2793  220.6089 H   0  0  0  0  0  0  0  0  0  0  0  0
  135.1020   69.8890  221.0390 H   0  0  0  0  0  0  0  0  0  0  0  0
  137.7781   69.0102  221.1487 H   0  0  0  0  0  0  0  0  0  0  0  0
  139.3567   68.1322  222.8571 H   0  0  0  0  0  0  0  0  0  0  0  0
  140.5475   71.1208  225.1007 H   0  0  0  0  0  0  0  0  0  0  0  0
  139.1438   71.3905  226.1140 H   0  0  0  0  0  0  0  0  0  0  0  0
  142.1096   71.3728  226.8736 H   0  0  0  0  0  0  0  0  0  0  0  0
  140.8511   72.3583  227.5823 H   0  0  0  0  0  0  0  0  0  0  0  0
  141.6684   70.2556  229.0323 H   0  0  0  0  0  0  0  0  0  0  0  0
  139.9544   70.3509  228.8957 H   0  0  0  0  0  0  0  0  0  0  0  0
  141.9447   68.8466  227.0009 H   0  0  0  0  0  0  0  0  0  0  0  0
  140.6414   68.0824  227.8567 H   0  0  0  0  0  0  0  0  0  0  0  0
  137.0818   70.0295  225.9551 H   0  0  0  0  0  0  0  0  0  0  0  0
  135.5290   70.8976  224.2649 H   0  0  0  0  0  0  0  0  0  0  0  0
  141.6979   76.0338  219.5356 H   0  0  0  0  0  0  0  0  0  0  0  0
  142.1455   78.4929  219.4068 H   0  0  0  0  0  0  0  0  0  0  0  0
  142.1884   80.5966  220.4621 H   0  0  0  0  0  0  0  0  0  0  0  0
  141.0040   80.9598  224.5987 H   0  0  0  0  0  0  0  0  0  0  0  0
  140.5327   78.5248  224.7230 H   0  0  0  0  0  0  0  0  0  0  0  0
  1  2  2  0
  2  3  1  0
  3  4  1  0
  4  5  1  0
  5  6  2  0
  5  7  1  0
  7  8  1  0
  8  9  1  0
  9 10  1  0
 10 11  1  0
 11 12  1  0
 12 13  1  0
 13 14  1  0
 14 15  2  0
 15 16  1  0
 16 17  2  0
 17 18  1  0
 18 19  2  0
 18 20  1  0
 20 21  1  0
 21 22  1  0
 22 23  1  0
 23 24  1  0
 17 25  1  0
 25 26  2  0
  2 27  1  0
 27 28  2  0
 28 29  1  0
 29 30  2  0
 30 31  1  0
 31 32  2  0
 32 33  1  0
 32 34  1  0
 34 35  2  0
 35 36  1  0
 36 37  2  0
 11  7  1  0
 26 14  1  0
 37 27  1  0
 24 20  1  0
 36 30  1  0
  3 38  1  0
  4 39  1  0
  4 40  1  0
  8 41  1  0
  8 42  1  0
  9 43  1  0
  9 44  1  0
 10 45  1  0
 10 46  1  0
 11 47  1  1
 12 48  1  0
 12 49  1  0
 13 50  1  0
 15 51  1  0
 16 52  1  0
 21 53  1  0
 21 54  1  0
 22 55  1  0
 22 56  1  0
 23 57  1  0
 23 58  1  0
 24 59  1  0
 24 60  1  0
 25 61  1  0
 26 62  1  0
 28 63  1  0
 29 64  1  0
 31 65  1  0
 34 66  1  0
 35 67  1  0
M  END
>  <smiles>  (35) 
O=C(NCC(=O)N1CCC[C@H]1CNc1ccc(C(=O)N2CCCC2)cc1)c1ccc2cc(F)ccc2n1

>  <score_type>  (35) 
oracle

>  <origin>  (35) 
autodockgpu

>  <m_score__min__energy>  (35) 
-8.9399999999999995

>  <m_primary>  (35) 
energy

>  <rmsd>  (35) 
4.460410200358876

>  <m_score__min__rmsd>  (35) 
4.460410200358876

>  <meeko>  (35) 
{"free_energy": -8.06, "intermolecular_energy": -10.44, "internal_energy": -2.41, "cluster_size": 5, "cluster_id": 6, "rank_in_cluster": 2}

>  <energy>  (35) 
-7.87

>  <cluster_rmsd>  (35) 
0.0

>  <cluster>  (35) 
12

$$$$

     RDKit          3D

 67 71  0  0  0  0  0  0  0  0999 V2000
  140.8140   75.9410  219.4030 O   0  0  0  0  0  0  0  0  0  0  0  0
  142.0510   75.8990  219.7250 C   0  0  0  0  0  0  0  0  0  0  0  0
  142.5720   77.1010  220.2740 N   0  0  0  0  0  0  0  0  0  0  0  0
  141.6560   78.2090  220.4150 C   0  0  0  0  0  0  0  0  0  0  0  0
  140.8740   78.1310  221.6730 C   0  0  0  0  0  0  0  0  0  0  0  0
  141.2950   78.4890  222.7920 O   0  0  0  0  0  0  0  0  0  0  0  0
  139.5380   77.6000  221.5490 N   0  0  0  0  0  0  0  0  0  0  0  0
  138.4150   78.2040  220.8290 C   0  0  0  0  0  0  0  0  0  0  0  0
  137.2280   77.7530  221.6170 C   0  0  0  0  0  0  0  0  0  0  0  0
  137.7410   76.8920  222.7570 C   0  0  0  0  0  0  0  0  0  0  0  0
  139.0370   76.3730  222.1350 C   0  0  1  0  0  0  0  0  0  0  0  0
  138.7090   75.2940  221.1540 C   0  0  0  0  0  0  0  0  0  0  0  0
  139.7460   74.2640  221.3180 N   0  0  0  0  0  0  0  0  0  0  0  0
  139.5910   73.1340  222.1340 C   0  0  0  0  0  0  0  0  0  0  0  0
  138.3880   72.5160  222.4050 C   0  0  0  0  0  0  0  0  0  0  0  0
  138.3290   71.3950  223.2400 C   0  0  0  0  0  0  0  0  0  0  0  0
  139.4720   70.8840  223.8120 C   0  0  0  0  0  0  0  0  0  0  0  0
  139.4880   69.7220  224.6900 C   0  0  0  0  0  0  0  0  0  0  0  0
  138.9850   68.6410  224.2360 O   0  0  0  0  0  0  0  0  0  0  0  0
  140.0420   69.7970  225.9990 N   0  0  0  0  0  0  0  0  0  0  0  0
  140.6500   70.9810  226.6090 C   0  0  0  0  0  0  0  0  0  0  0  0
  140.9540   70.5180  228.0460 C   0  0  0  0  0  0  0  0  0  0  0  0
  139.9170   69.4090  228.2690 C   0  0  0  0  0  0  0  0  0  0  0  0
  140.0770   68.6760  226.9320 C   0  0  0  0  0  0  0  0  0  0  0  0
  140.6810   71.4880  223.5530 C   0  0  0  0  0  0  0  0  0  0  0  0
  140.7270   72.5880  222.7310 C   0  0  0  0  0  0  0  0  0  0  0  0
  142.8300   74.6880  219.5280 C   0  0  0  0  0  0  0  0  0  0  0  0
  143.9950   74.8180  218.7560 C   0  0  0  0  0  0  0  0  0  0  0  0
  144.8180   73.7300  218.5140 C   0  0  0  0  0  0  0  0  0  0  0  0
  144.4350   72.5280  219.0640 C   0  0  0  0  0  0  0  0  0  0  0  0
  145.2580   71.4300  218.8080 C   0  0  0  0  0  0  0  0  0  0  0  0
  144.8750   70.1970  219.3480 C   0  0  0  0  0  0  0  0  0  0  0  0
  145.6910   69.1180  219.0920 F   0  0  0  0  0  0  0  0  0  0  0  0
  143.7290   70.0760  220.1030 C   0  0  0  0  0  0  0  0  0  0  0  0
  142.9180   71.1600  220.3560 C   0  0  0  0  0  0  0  0  0  0  0  0
  143.2920   72.3950  219.8210 C   0  0  0  0  0  0  0  0  0  0  0  0
  142.5020   73.4900  220.0410 N   0  0  0  0  0  0  0  0  0  0  0  0
  143.5870   77.1400  220.5530 H   0  0  0  0  0  0  0  0  0  0  0  0
  142.2309   79.1468  220.4125 H   0  0  0  0  0  0  0  0  0  0  0  0
  140.9482   78.1720  219.5738 H   0  0  0  0  0  0  0  0  0  0  0  0
  138.4927   79.3012  220.8244 H   0  0  0  0  0  0  0  0  0  0  0  0
  138.3699   77.9085  219.7704 H   0  0  0  0  0  0  0  0  0  0  0  0
  136.6890   78.6245  222.0170 H   0  0  0  0  0  0  0  0  0  0  0  0
  136.5336   77.1834  220.9819 H   0  0  0  0  0  0  0  0  0  0  0  0
  137.9322   77.4858  223.6630 H   0  0  0  0  0  0  0  0  0  0  0  0
  137.0451   76.1110  223.0973 H   0  0  0  0  0  0  0  0  0  0  0  0
  139.7729   75.8995  222.8015 H   0  0  0  0  0  0  0  0  0  0  0  0
  137.7156   74.8729  221.3678 H   0  0  0  0  0  0  0  0  0  0  0  0
  138.6861   75.6806  220.1244 H   0  0  0  0  0  0  0  0  0  0  0  0
  140.6540   74.3710  220.8010 H   0  0  0  0  0  0  0  0  0  0  0  0
  137.4629   72.9097  221.9587 H   0  0  0  0  0  0  0  0  0  0  0  0
  137.3590   70.9170  223.4415 H   0  0  0  0  0  0  0  0  0  0  0  0
  141.5728   71.2663  226.0827 H   0  0  0  0  0  0  0  0  0  0  0  0
  140.0014   71.8686  226.5693 H   0  0  0  0  0  0  0  0  0  0  0  0
  141.9784   70.1257  228.1281 H   0  0  0  0  0  0  0  0  0  0  0  0
  140.8936   71.3280  228.7878 H   0  0  0  0  0  0  0  0  0  0  0  0
  140.1729   68.7686  229.1260 H   0  0  0  0  0  0  0  0  0  0  0  0
  138.8986   69.7486  228.5087 H   0  0  0  0  0  0  0  0  0  0  0  0
  141.0333   68.1350  226.8790 H   0  0  0  0  0  0  0  0  0  0  0  0
  139.3178   67.9028  226.7432 H   0  0  0  0  0  0  0  0  0  0  0  0
  141.6046   71.0927  224.0011 H   0  0  0  0  0  0  0  0  0  0  0  0
  141.7019   73.0583  222.5353 H   0  0  0  0  0  0  0  0  0  0  0  0
  144.2589   75.7999  218.3362 H   0  0  0  0  0  0  0  0  0  0  0  0
  145.7335   73.8225  217.9113 H   0  0  0  0  0  0  0  0  0  0  0  0
  146.1725   71.5300  218.2049 H   0  0  0  0  0  0  0  0  0  0  0  0
  143.4558   69.0923  220.5126 H   0  0  0  0  0  0  0  0  0  0  0  0
  142.0047   71.0566  220.9602 H   0  0  0  0  0  0  0  0  0  0  0  0
  1  2  2  0
  2  3  1  0
  3  4  1  0
  4  5  1  0
  5  6  2  0
  5  7  1  0
  7  8  1  0
  8  9  1  0
  9 10  1  0
 10 11  1  0
 11 12  1  0
 12 13  1  0
 13 14  1  0
 14 15  2  0
 15 16  1  0
 16 17  2  0
 17 18  1  0
 18 19  2  0
 18 20  1  0
 20 21  1  0
 21 22  1  0
 22 23  1  0
 23 24  1  0
 17 25  1  0
 25 26  2  0
  2 27  1  0
 27 28  2  0
 28 29  1  0
 29 30  2  0
 30 31  1  0
 31 32  2  0
 32 33  1  0
 32 34  1  0
 34 35  2  0
 35 36  1  0
 36 37  2  0
 11  7  1  0
 26 14  1  0
 37 27  1  0
 24 20  1  0
 36 30  1  0
  3 38  1  0
  4 39  1  0
  4 40  1  0
  8 41  1  0
  8 42  1  0
  9 43  1  0
  9 44  1  0
 10 45  1  0
 10 46  1  0
 11 47  1  1
 12 48  1  0
 12 49  1  0
 13 50  1  0
 15 51  1  0
 16 52  1  0
 21 53  1  0
 21 54  1  0
 22 55  1  0
 22 56  1  0
 23 57  1  0
 23 58  1  0
 24 59  1  0
 24 60  1  0
 25 61  1  0
 26 62  1  0
 28 63  1  0
 29 64  1  0
 31 65  1  0
 34 66  1  0
 35 67  1  0
M  END
>  <smiles>  (36) 
O=C(NCC(=O)N1CCC[C@H]1CNc1ccc(C(=O)N2CCCC2)cc1)c1ccc2cc(F)ccc2n1

>  <score_type>  (36) 
oracle

>  <origin>  (36) 
autodockgpu

>  <m_score__min__energy>  (36) 
-8.9399999999999995

>  <m_primary>  (36) 
energy

>  <rmsd>  (36) 
6.289762236184638

>  <m_score__min__rmsd>  (36) 
6.289762236184638

>  <meeko>  (36) 
{"free_energy": -6.95, "intermolecular_energy": -9.34, "internal_energy": -3.58, "cluster_size": 4, "cluster_id": 10, "rank_in_cluster": 4}

>  <energy>  (36) 
-7.87

>  <cluster_rmsd>  (36) 
0.0

>  <cluster>  (36) 
13

$$$$

     RDKit          3D

 67 71  0  0  0  0  0  0  0  0999 V2000
  140.2810   73.4440  222.2940 O   0  0  0  0  0  0  0  0  0  0  0  0
  140.2710   74.4360  221.4860 C   0  0  0  0  0  0  0  0  0  0  0  0
  140.6520   74.1300  220.1530 N   0  0  0  0  0  0  0  0  0  0  0  0
  140.9870   72.7550  219.8640 C   0  0  0  0  0  0  0  0  0  0  0  0
  142.1760   72.2980  220.6240 C   0  0  0  0  0  0  0  0  0  0  0  0
  142.1380   71.5130  221.5940 O   0  0  0  0  0  0  0  0  0  0  0  0
  143.4460   72.8200  220.1790 N   0  0  0  0  0  0  0  0  0  0  0  0
  144.7320   72.1200  220.1790 C   0  0  0  0  0  0  0  0  0  0  0  0
  145.7160   73.2230  220.3950 C   0  0  0  0  0  0  0  0  0  0  0  0
  144.9300   74.5180  220.4980 C   0  0  0  0  0  0  0  0  0  0  0  0
  143.7030   74.1500  219.6660 C   0  0  1  0  0  0  0  0  0  0  0  0
  144.0620   74.2070  218.2150 C   0  0  0  0  0  0  0  0  0  0  0  0
  144.0170   75.6280  217.8390 N   0  0  0  0  0  0  0  0  0  0  0  0
  142.9500   76.4790  218.1650 C   0  0  0  0  0  0  0  0  0  0  0  0
  141.9020   76.7890  217.3240 C   0  0  0  0  0  0  0  0  0  0  0  0
  140.8850   77.6560  217.7340 C   0  0  0  0  0  0  0  0  0  0  0  0
  140.9080   78.2230  218.9880 C   0  0  0  0  0  0  0  0  0  0  0  0
  139.8850   79.1340  219.4840 C   0  0  0  0  0  0  0  0  0  0  0  0
  138.6710   78.7590  219.3810 O   0  0  0  0  0  0  0  0  0  0  0  0
  140.2340   80.3900  220.0570 N   0  0  0  0  0  0  0  0  0  0  0  0
  141.5920   80.9090  220.2300 C   0  0  0  0  0  0  0  0  0  0  0  0
  141.3580   82.3300  220.7760 C   0  0  0  0  0  0  0  0  0  0  0  0
  139.9640   82.6740  220.2310 C   0  0  0  0  0  0  0  0  0  0  0  0
  139.2590   81.3530  220.5590 C   0  0  0  0  0  0  0  0  0  0  0  0
  141.9470   77.9260  219.8400 C   0  0  0  0  0  0  0  0  0  0  0  0
  142.9410   77.0720  219.4270 C   0  0  0  0  0  0  0  0  0  0  0  0
  139.8910   75.7620  221.9420 C   0  0  0  0  0  0  0  0  0  0  0  0
  138.5160   76.0450  221.9490 C   0  0  0  0  0  0  0  0  0  0  0  0
  138.0400   77.2750  222.3750 C   0  0  0  0  0  0  0  0  0  0  0  0
  138.9790   78.1950  222.7850 C   0  0  0  0  0  0  0  0  0  0  0  0
  138.5010   79.4370  223.2010 C   0  0  0  0  0  0  0  0  0  0  0  0
  139.4430   80.3890  223.6090 C   0  0  0  0  0  0  0  0  0  0  0  0
  138.9640   81.6130  224.0180 F   0  0  0  0  0  0  0  0  0  0  0  0
  140.7910   80.1040  223.5980 C   0  0  0  0  0  0  0  0  0  0  0  0
  141.2630   78.8770  223.1880 C   0  0  0  0  0  0  0  0  0  0  0  0
  140.3300   77.9210  222.7800 C   0  0  0  0  0  0  0  0  0  0  0  0
  140.7640   76.6960  222.3530 N   0  0  0  0  0  0  0  0  0  0  0  0
  140.6760   74.9010  219.4360 H   0  0  0  0  0  0  0  0  0  0  0  0
  140.1303   72.1181  220.1293 H   0  0  0  0  0  0  0  0  0  0  0  0
  141.2221   72.6821  218.7919 H   0  0  0  0  0  0  0  0  0  0  0  0
  144.7803   71.3822  220.9934 H   0  0  0  0  0  0  0  0  0  0  0  0
  144.9152   71.5507  219.2558 H   0  0  0  0  0  0  0  0  0  0  0  0
  146.2779   73.0491  221.3246 H   0  0  0  0  0  0  0  0  0  0  0  0
  146.4356   73.2701  219.5644 H   0  0  0  0  0  0  0  0  0  0  0  0
  144.6623   74.7514  221.5391 H   0  0  0  0  0  0  0  0  0  0  0  0
  145.4683   75.4151  220.1582 H   0  0  0  0  0  0  0  0  0  0  0  0
  142.8199   74.8019  219.7386 H   0  0  0  0  0  0  0  0  0  0  0  0
  145.0721   73.8017  218.0555 H   0  0  0  0  0  0  0  0  0  0  0  0
  143.3690   73.6081  217.6058 H   0  0  0  0  0  0  0  0  0  0  0  0
  144.8190   76.0360  217.2980 H   0  0  0  0  0  0  0  0  0  0  0  0
  141.8658   76.3481  216.3169 H   0  0  0  0  0  0  0  0  0  0  0  0
  140.0576   77.8876  217.0472 H   0  0  0  0  0  0  0  0  0  0  0  0
  142.1591   80.2987  220.9483 H   0  0  0  0  0  0  0  0  0  0  0  0
  142.1810   80.8951  219.3011 H   0  0  0  0  0  0  0  0  0  0  0  0
  141.3675   82.3392  221.8759 H   0  0  0  0  0  0  0  0  0  0  0  0
  142.1348   83.0478  220.4739 H   0  0  0  0  0  0  0  0  0  0  0  0
  139.5119   83.5270  220.7582 H   0  0  0  0  0  0  0  0  0  0  0  0
  139.9271   82.9861  219.1769 H   0  0  0  0  0  0  0  0  0  0  0  0
  139.0971   81.2384  221.6410 H   0  0  0  0  0  0  0  0  0  0  0  0
  138.2541   81.2528  220.1229 H   0  0  0  0  0  0  0  0  0  0  0  0
  141.9816   78.3697  220.8459 H   0  0  0  0  0  0  0  0  0  0  0  0
  143.7642   76.8467  220.1210 H   0  0  0  0  0  0  0  0  0  0  0  0
  137.8043   75.2775  221.6107 H   0  0  0  0  0  0  0  0  0  0  0  0
  136.9644   77.5051  222.3851 H   0  0  0  0  0  0  0  0  0  0  0  0
  137.4240   79.6605  223.2084 H   0  0  0  0  0  0  0  0  0  0  0  0
  141.5061   80.8737  223.9240 H   0  0  0  0  0  0  0  0  0  0  0  0
  142.3407   78.6568  223.1820 H   0  0  0  0  0  0  0  0  0  0  0  0
  1  2  2  0
  2  3  1  0
  3  4  1  0
  4  5  1  0
  5  6  2  0
  5  7  1  0
  7  8  1  0
  8  9  1  0
  9 10  1  0
 10 11  1  0
 11 12  1  0
 12 13  1  0
 13 14  1  0
 14 15  2  0
 15 16  1  0
 16 17  2  0
 17 18  1  0
 18 19  2  0
 18 20  1  0
 20 21  1  0
 21 22  1  0
 22 23  1  0
 23 24  1  0
 17 25  1  0
 25 26  2  0
  2 27  1  0
 27 28  2  0
 28 29  1  0
 29 30  2  0
 30 31  1  0
 31 32  2  0
 32 33  1  0
 32 34  1  0
 34 35  2  0
 35 36  1  0
 36 37  2  0
 11  7  1  0
 26 14  1  0
 37 27  1  0
 24 20  1  0
 36 30  1  0
  3 38  1  0
  4 39  1  0
  4 40  1  0
  8 41  1  0
  8 42  1  0
  9 43  1  0
  9 44  1  0
 10 45  1  0
 10 46  1  0
 11 47  1  6
 12 48  1  0
 12 49  1  0
 13 50  1  0
 15 51  1  0
 16 52  1  0
 21 53  1  0
 21 54  1  0
 22 55  1  0
 22 56  1  0
 23 57  1  0
 23 58  1  0
 24 59  1  0
 24 60  1  0
 25 61  1  0
 26 62  1  0
 28 63  1  0
 29 64  1  0
 31 65  1  0
 34 66  1  0
 35 67  1  0
M  END
>  <smiles>  (37) 
O=C(NCC(=O)N1CCC[C@H]1CNc1ccc(C(=O)N2CCCC2)cc1)c1ccc2cc(F)ccc2n1

>  <score_type>  (37) 
oracle

>  <origin>  (37) 
autodockgpu

>  <m_score__min__energy>  (37) 
-8.9399999999999995

>  <m_primary>  (37) 
energy

>  <rmsd>  (37) 
7.144435669936096

>  <m_score__min__rmsd>  (37) 
7.144435669936096

>  <meeko>  (37) 
{"free_energy": -6.72, "intermolecular_energy": -9.11, "internal_energy": -3.81, "cluster_size": 2, "cluster_id": 20, "rank_in_cluster": 2}

>  <energy>  (37) 
-7.59

>  <cluster_rmsd>  (37) 
1.38

>  <cluster>  (37) 
13

$$$$

     RDKit          3D

 67 71  0  0  0  0  0  0  0  0999 V2000
  139.9590   75.7580  222.5820 O   0  0  0  0  0  0  0  0  0  0  0  0
  140.3500   76.4340  221.5700 C   0  0  0  0  0  0  0  0  0  0  0  0
  140.4850   75.6930  220.3650 N   0  0  0  0  0  0  0  0  0  0  0  0
  140.1560   74.2870  220.4200 C   0  0  0  0  0  0  0  0  0  0  0  0
  141.1180   73.5200  221.2480 C   0  0  0  0  0  0  0  0  0  0  0  0
  140.8640   73.0500  222.3760 O   0  0  0  0  0  0  0  0  0  0  0  0
  142.4270   73.3240  220.6720 N   0  0  0  0  0  0  0  0  0  0  0  0
  143.2380   72.1060  220.7280 C   0  0  0  0  0  0  0  0  0  0  0  0
  144.6370   72.6330  220.7250 C   0  0  0  0  0  0  0  0  0  0  0  0
  144.5510   74.1460  220.6550 C   0  0  0  0  0  0  0  0  0  0  0  0
  143.2080   74.3030  219.9450 C   0  0  1  0  0  0  0  0  0  0  0  0
  143.3890   74.0100  218.4890 C   0  0  0  0  0  0  0  0  0  0  0  0
  143.9650   75.2270  217.8960 N   0  0  0  0  0  0  0  0  0  0  0  0
  143.2860   76.4530  217.8360 C   0  0  0  0  0  0  0  0  0  0  0  0
  143.0420   77.2740  218.9170 C   0  0  0  0  0  0  0  0  0  0  0  0
  142.3490   78.4780  218.7620 C   0  0  0  0  0  0  0  0  0  0  0  0
  141.8910   78.8720  217.5240 C   0  0  0  0  0  0  0  0  0  0  0  0
  141.1620   80.1100  217.2860 C   0  0  0  0  0  0  0  0  0  0  0  0
  139.9100   80.0150  217.0660 O   0  0  0  0  0  0  0  0  0  0  0  0
  141.8270   81.3690  217.3000 N   0  0  0  0  0  0  0  0  0  0  0  0
  143.2520   81.5860  217.5510 C   0  0  0  0  0  0  0  0  0  0  0  0
  143.4220   83.0990  217.3220 C   0  0  0  0  0  0  0  0  0  0  0  0
  142.2750   83.4240  216.3550 C   0  0  0  0  0  0  0  0  0  0  0  0
  141.1580   82.6420  217.0560 C   0  0  0  0  0  0  0  0  0  0  0  0
  142.1260   78.0640  216.4340 C   0  0  0  0  0  0  0  0  0  0  0  0
  142.8090   76.8830  216.5980 C   0  0  0  0  0  0  0  0  0  0  0  0
  140.6250   77.8560  221.6860 C   0  0  0  0  0  0  0  0  0  0  0  0
  141.4780   78.2390  222.7330 C   0  0  0  0  0  0  0  0  0  0  0  0
  141.8170   79.5680  222.9300 C   0  0  0  0  0  0  0  0  0  0  0  0
  141.2760   80.4830  222.0550 C   0  0  0  0  0  0  0  0  0  0  0  0
  141.6060   81.8220  222.2630 C   0  0  0  0  0  0  0  0  0  0  0  0
  141.0540   82.7670  221.3900 C   0  0  0  0  0  0  0  0  0  0  0  0
  141.3840   84.0860  221.6010 F   0  0  0  0  0  0  0  0  0  0  0  0
  140.2160   82.3840  220.3660 C   0  0  0  0  0  0  0  0  0  0  0  0
  139.8890   81.0610  220.1610 C   0  0  0  0  0  0  0  0  0  0  0  0
  140.4370   80.1110  221.0270 C   0  0  0  0  0  0  0  0  0  0  0  0
  140.1240   78.7900  220.8610 N   0  0  0  0  0  0  0  0  0  0  0  0
  140.8120   76.1840  219.4940 H   0  0  0  0  0  0  0  0  0  0  0  0
  139.1498   74.1749  220.8502 H   0  0  0  0  0  0  0  0  0  0  0  0
  140.1991   73.8891  219.3954 H   0  0  0  0  0  0  0  0  0  0  0  0
  143.0323   71.5359  221.6460 H   0  0  0  0  0  0  0  0  0  0  0  0
  143.0347   71.4114  219.8996 H   0  0  0  0  0  0  0  0  0  0  0  0
  145.1558   72.3280  221.6458 H   0  0  0  0  0  0  0  0  0  0  0  0
  145.2002   72.2356  219.8677 H   0  0  0  0  0  0  0  0  0  0  0  0
  144.5389   74.6009  221.6564 H   0  0  0  0  0  0  0  0  0  0  0  0
  145.3995   74.6355  220.1546 H   0  0  0  0  0  0  0  0  0  0  0  0
  142.7377   75.2974  219.9513 H   0  0  0  0  0  0  0  0  0  0  0  0
  144.0724   73.1589  218.3530 H   0  0  0  0  0  0  0  0  0  0  0  0
  142.4347   73.7433  218.0113 H   0  0  0  0  0  0  0  0  0  0  0  0
  144.9340   75.1850  217.4950 H   0  0  0  0  0  0  0  0  0  0  0  0
  143.3976   76.9773  219.9148 H   0  0  0  0  0  0  0  0  0  0  0  0
  142.1674   79.1178  219.6381 H   0  0  0  0  0  0  0  0  0  0  0  0
  143.5174   81.3107  218.5824 H   0  0  0  0  0  0  0  0  0  0  0  0
  143.9018   80.9760  216.9063 H   0  0  0  0  0  0  0  0  0  0  0  0
  143.3170   83.6572  218.2640 H   0  0  0  0  0  0  0  0  0  0  0  0
  144.4133   83.3731  216.9318 H   0  0  0  0  0  0  0  0  0  0  0  0
  142.0620   84.5023  216.3122 H   0  0  0  0  0  0  0  0  0  0  0  0
  142.4509   83.1640  215.3007 H   0  0  0  0  0  0  0  0  0  0  0  0
  140.8534   83.1259  217.9957 H   0  0  0  0  0  0  0  0  0  0  0  0
  140.2255   82.5629  216.4779 H   0  0  0  0  0  0  0  0  0  0  0  0
  141.7689   78.3624  215.4373 H   0  0  0  0  0  0  0  0  0  0  0  0
  142.9870   76.2503  215.7160 H   0  0  0  0  0  0  0  0  0  0  0  0
  141.8840   77.4714  223.4082 H   0  0  0  0  0  0  0  0  0  0  0  0
  142.4863   79.8772  223.7464 H   0  0  0  0  0  0  0  0  0  0  0  0
  142.2749   82.1242  223.0823 H   0  0  0  0  0  0  0  0  0  0  0  0
  139.7986   83.1511  219.6971 H   0  0  0  0  0  0  0  0  0  0  0  0
  139.2182   80.7624  219.3420 H   0  0  0  0  0  0  0  0  0  0  0  0
  1  2  2  0
  2  3  1  0
  3  4  1  0
  4  5  1  0
  5  6  2  0
  5  7  1  0
  7  8  1  0
  8  9  1  0
  9 10  1  0
 10 11  1  0
 11 12  1  0
 12 13  1  0
 13 14  1  0
 14 15  2  0
 15 16  1  0
 16 17  2  0
 17 18  1  0
 18 19  2  0
 18 20  1  0
 20 21  1  0
 21 22  1  0
 22 23  1  0
 23 24  1  0
 17 25  1  0
 25 26  2  0
  2 27  1  0
 27 28  2  0
 28 29  1  0
 29 30  2  0
 30 31  1  0
 31 32  2  0
 32 33  1  0
 32 34  1  0
 34 35  2  0
 35 36  1  0
 36 37  2  0
 11  7  1  0
 26 14  1  0
 37 27  1  0
 24 20  1  0
 36 30  1  0
  3 38  1  0
  4 39  1  0
  4 40  1  0
  8 41  1  0
  8 42  1  0
  9 43  1  0
  9 44  1  0
 10 45  1  0
 10 46  1  0
 11 47  1  6
 12 48  1  0
 12 49  1  0
 13 50  1  0
 15 51  1  0
 16 52  1  0
 21 53  1  0
 21 54  1  0
 22 55  1  0
 22 56  1  0
 23 57  1  0
 23 58  1  0
 24 59  1  0
 24 60  1  0
 25 61  1  0
 26 62  1  0
 28 63  1  0
 29 64  1  0
 31 65  1  0
 34 66  1  0
 35 67  1  0
M  END
>  <smiles>  (38) 
O=C(NCC(=O)N1CCC[C@H]1CNc1ccc(C(=O)N2CCCC2)cc1)c1ccc2cc(F)ccc2n1

>  <score_type>  (38) 
oracle

>  <origin>  (38) 
autodockgpu

>  <m_score__min__energy>  (38) 
-8.9399999999999995

>  <m_primary>  (38) 
energy

>  <rmsd>  (38) 
7.08181433828433

>  <m_score__min__rmsd>  (38) 
7.08181433828433

>  <meeko>  (38) 
{"free_energy": -6.99, "intermolecular_energy": -9.38, "internal_energy": -3.44, "cluster_size": 1, "cluster_id": 18, "rank_in_cluster": 1}

>  <energy>  (38) 
-7.84

>  <cluster_rmsd>  (38) 
0.0

>  <cluster>  (38) 
14

$$$$

     RDKit          3D

 67 71  0  0  0  0  0  0  0  0999 V2000
  141.0640   72.0440  221.5310 O   0  0  0  0  0  0  0  0  0  0  0  0
  140.3080   72.3980  222.5010 C   0  0  0  0  0  0  0  0  0  0  0  0
  139.6240   73.6290  222.3150 N   0  0  0  0  0  0  0  0  0  0  0  0
  139.8470   74.3210  221.0660 C   0  0  0  0  0  0  0  0  0  0  0  0
  141.0070   75.2430  221.1380 C   0  0  0  0  0  0  0  0  0  0  0  0
  142.2000   74.8860  221.0650 O   0  0  0  0  0  0  0  0  0  0  0  0
  140.6890   76.6410  221.3030 N   0  0  0  0  0  0  0  0  0  0  0  0
  141.4890   77.7830  220.8530 C   0  0  0  0  0  0  0  0  0  0  0  0
  141.1850   78.8300  221.8750 C   0  0  0  0  0  0  0  0  0  0  0  0
  140.2030   78.2270  222.8630 C   0  0  0  0  0  0  0  0  0  0  0  0
  139.5260   77.1920  221.9670 C   0  0  1  0  0  0  0  0  0  0  0  0
  138.5560   77.8870  221.0660 C   0  0  0  0  0  0  0  0  0  0  0  0
  137.4760   76.9230  220.8060 N   0  0  0  0  0  0  0  0  0  0  0  0
  136.9150   76.1050  221.7980 C   0  0  0  0  0  0  0  0  0  0  0  0
  136.6840   76.4920  223.1010 C   0  0  0  0  0  0  0  0  0  0  0  0
  136.1260   75.6030  224.0260 C   0  0  0  0  0  0  0  0  0  0  0  0
  135.7950   74.3190  223.6550 C   0  0  0  0  0  0  0  0  0  0  0  0
  135.2120   73.3390  224.5610 C   0  0  0  0  0  0  0  0  0  0  0  0
  135.5760   72.1250  224.4200 O   0  0  0  0  0  0  0  0  0  0  0  0
  134.2740   73.7280  225.5590 N   0  0  0  0  0  0  0  0  0  0  0  0
  133.7980   75.0890  225.8090 C   0  0  0  0  0  0  0  0  0  0  0  0
  132.7280   74.8930  226.8990 C   0  0  0  0  0  0  0  0  0  0  0  0
  132.2670   73.4480  226.6600 C   0  0  0  0  0  0  0  0  0  0  0  0
  133.6430   72.7950  226.4880 C   0  0  0  0  0  0  0  0  0  0  0  0
  136.0190   73.9160  222.3580 C   0  0  0  0  0  0  0  0  0  0  0  0
  136.5680   74.7970  221.4580 C   0  0  0  0  0  0  0  0  0  0  0  0
  140.1860   71.5690  223.6880 C   0  0  0  0  0  0  0  0  0  0  0  0
  139.5270   70.3410  223.5220 C   0  0  0  0  0  0  0  0  0  0  0  0
  139.3640   69.4660  224.5850 C   0  0  0  0  0  0  0  0  0  0  0  0
  139.8760   69.8640  225.8000 C   0  0  0  0  0  0  0  0  0  0  0  0
  139.7000   68.9900  226.8720 C   0  0  0  0  0  0  0  0  0  0  0  0
  140.2030   69.3860  228.1170 C   0  0  0  0  0  0  0  0  0  0  0  0
  140.0250   68.5190  229.1720 F   0  0  0  0  0  0  0  0  0  0  0  0
  140.8460   70.5940  228.2730 C   0  0  0  0  0  0  0  0  0  0  0  0
  141.0200   71.4570  227.2140 C   0  0  0  0  0  0  0  0  0  0  0  0
  140.5230   71.0700  225.9670 C   0  0  0  0  0  0  0  0  0  0  0  0
  140.6660   71.9090  224.8960 N   0  0  0  0  0  0  0  0  0  0  0  0
  138.9910   73.9850  223.0770 H   0  0  0  0  0  0  0  0  0  0  0  0
  140.0333   73.5775  220.2770 H   0  0  0  0  0  0  0  0  0  0  0  0
  138.9512   74.9203  220.8463 H   0  0  0  0  0  0  0  0  0  0  0  0
  142.5610   77.5366  220.8463 H   0  0  0  0  0  0  0  0  0  0  0  0
  141.2542   78.0988  219.8258 H   0  0  0  0  0  0  0  0  0  0  0  0
  142.1076   79.1269  222.3953 H   0  0  0  0  0  0  0  0  0  0  0  0
  140.7577   79.7251  221.3994 H   0  0  0  0  0  0  0  0  0  0  0  0
  140.7173   77.7562  223.7138 H   0  0  0  0  0  0  0  0  0  0  0  0
  139.5198   78.9481  223.3355 H   0  0  0  0  0  0  0  0  0  0  0  0
  138.9164   76.4147  222.4509 H   0  0  0  0  0  0  0  0  0  0  0  0
  138.1551   78.7856  221.5576 H   0  0  0  0  0  0  0  0  0  0  0  0
  139.0377   78.2116  220.1318 H   0  0  0  0  0  0  0  0  0  0  0  0
  137.1000   76.8340  219.8300 H   0  0  0  0  0  0  0  0  0  0  0  0
  136.9419   77.5134  223.4175 H   0  0  0  0  0  0  0  0  0  0  0  0
  135.9499   75.9332  225.0604 H   0  0  0  0  0  0  0  0  0  0  0  0
  134.6144   75.7325  226.1688 H   0  0  0  0  0  0  0  0  0  0  0  0
  133.4088   75.5825  224.9062 H   0  0  0  0  0  0  0  0  0  0  0  0
  133.1589   75.0112  227.9042 H   0  0  0  0  0  0  0  0  0  0  0  0
  131.9106   75.6273  226.8467 H   0  0  0  0  0  0  0  0  0  0  0  0
  131.7196   73.0398  227.5224 H   0  0  0  0  0  0  0  0  0  0  0  0
  131.5625   73.3032  225.8277 H   0  0  0  0  0  0  0  0  0  0  0  0
  134.1883   72.7424  227.4419 H   0  0  0  0  0  0  0  0  0  0  0  0
  133.6121   71.7531  226.1366 H   0  0  0  0  0  0  0  0  0  0  0  0
  135.7599   72.8942  222.0438 H   0  0  0  0  0  0  0  0  0  0  0  0
  136.7412   74.4570  220.4263 H   0  0  0  0  0  0  0  0  0  0  0  0
  139.1332   70.0682  222.5318 H   0  0  0  0  0  0  0  0  0  0  0  0
  138.8506   68.5007  224.4639 H   0  0  0  0  0  0  0  0  0  0  0  0
  139.1856   68.0261  226.7444 H   0  0  0  0  0  0  0  0  0  0  0  0
  141.2289   70.8756  229.2650 H   0  0  0  0  0  0  0  0  0  0  0  0
  141.5340   72.4205  227.3458 H   0  0  0  0  0  0  0  0  0  0  0  0
  1  2  2  0
  2  3  1  0
  3  4  1  0
  4  5  1  0
  5  6  2  0
  5  7  1  0
  7  8  1  0
  8  9  1  0
  9 10  1  0
 10 11  1  0
 11 12  1  0
 12 13  1  0
 13 14  1  0
 14 15  2  0
 15 16  1  0
 16 17  2  0
 17 18  1  0
 18 19  2  0
 18 20  1  0
 20 21  1  0
 21 22  1  0
 22 23  1  0
 23 24  1  0
 17 25  1  0
 25 26  2  0
  2 27  1  0
 27 28  2  0
 28 29  1  0
 29 30  2  0
 30 31  1  0
 31 32  2  0
 32 33  1  0
 32 34  1  0
 34 35  2  0
 35 36  1  0
 36 37  2  0
 11  7  1  0
 26 14  1  0
 37 27  1  0
 24 20  1  0
 36 30  1  0
  3 38  1  0
  4 39  1  0
  4 40  1  0
  8 41  1  0
  8 42  1  0
  9 43  1  0
  9 44  1  0
 10 45  1  0
 10 46  1  0
 11 47  1  1
 12 48  1  0
 12 49  1  0
 13 50  1  0
 15 51  1  0
 16 52  1  0
 21 53  1  0
 21 54  1  0
 22 55  1  0
 22 56  1  0
 23 57  1  0
 23 58  1  0
 24 59  1  0
 24 60  1  0
 25 61  1  0
 26 62  1  0
 28 63  1  0
 29 64  1  0
 31 65  1  0
 34 66  1  0
 35 67  1  0
M  END
>  <smiles>  (39) 
O=C(NCC(=O)N1CCC[C@H]1CNc1ccc(C(=O)N2CCCC2)cc1)c1ccc2cc(F)ccc2n1

>  <score_type>  (39) 
oracle

>  <origin>  (39) 
autodockgpu

>  <m_score__min__energy>  (39) 
-8.9399999999999995

>  <m_primary>  (39) 
energy

>  <rmsd>  (39) 
8.228159286747688

>  <m_score__min__rmsd>  (39) 
8.228159286747688

>  <meeko>  (39) 
{"free_energy": -8.46, "intermolecular_energy": -10.85, "internal_energy": -2.17, "cluster_size": 3, "cluster_id": 2, "rank_in_cluster": 2}

>  <energy>  (39) 
-7.83

>  <cluster_rmsd>  (39) 
0.0

>  <cluster>  (39) 
15

$$$$

     RDKit          3D

 67 71  0  0  0  0  0  0  0  0999 V2000
  139.9720   72.9660  222.7150 O   0  0  0  0  0  0  0  0  0  0  0  0
  140.2260   71.7180  222.8260 C   0  0  0  0  0  0  0  0  0  0  0  0
  140.3990   71.0260  221.5970 N   0  0  0  0  0  0  0  0  0  0  0  0
  140.2820   71.8040  220.3850 C   0  0  0  0  0  0  0  0  0  0  0  0
  141.0350   71.2000  219.2590 C   0  0  0  0  0  0  0  0  0  0  0  0
  140.5490   70.4090  218.4250 O   0  0  0  0  0  0  0  0  0  0  0  0
  142.4240   71.5810  219.1550 N   0  0  0  0  0  0  0  0  0  0  0  0
  143.1710   71.8500  217.9250 C   0  0  0  0  0  0  0  0  0  0  0  0
  144.5600   71.4230  218.2750 C   0  0  0  0  0  0  0  0  0  0  0  0
  144.5350   70.9350  219.7120 C   0  0  0  0  0  0  0  0  0  0  0  0
  143.3590   71.7480  220.2480 C   0  0  1  0  0  0  0  0  0  0  0  0
  143.8060   73.1560  220.4850 C   0  0  0  0  0  0  0  0  0  0  0  0
  142.8140   74.0160  219.8220 N   0  0  0  0  0  0  0  0  0  0  0  0
  142.1860   75.1000  220.4550 C   0  0  0  0  0  0  0  0  0  0  0  0
  141.4110   75.0080  221.5920 C   0  0  0  0  0  0  0  0  0  0  0  0
  140.8170   76.1450  222.1490 C   0  0  0  0  0  0  0  0  0  0  0  0
  140.9910   77.3840  221.5730 C   0  0  0  0  0  0  0  0  0  0  0  0
  140.4040   78.6100  222.0950 C   0  0  0  0  0  0  0  0  0  0  0  0
  139.1700   78.8170  221.8470 O   0  0  0  0  0  0  0  0  0  0  0  0
  141.1810   79.5330  222.8500 N   0  0  0  0  0  0  0  0  0  0  0  0
  142.5950   79.3860  223.1980 C   0  0  0  0  0  0  0  0  0  0  0  0
  142.9250   80.7160  223.8990 C   0  0  0  0  0  0  0  0  0  0  0  0
  141.8970   81.6810  223.2910 C   0  0  0  0  0  0  0  0  0  0  0  0
  140.6570   80.7840  223.3890 C   0  0  0  0  0  0  0  0  0  0  0  0
  141.7610   77.4930  220.4370 C   0  0  0  0  0  0  0  0  0  0  0  0
  142.3400   76.3700  219.8990 C   0  0  0  0  0  0  0  0  0  0  0  0
  140.3240   71.0920  224.1340 C   0  0  0  0  0  0  0  0  0  0  0  0
  140.8350   71.8920  225.1670 C   0  0  0  0  0  0  0  0  0  0  0  0
  140.9620   71.4000  226.4570 C   0  0  0  0  0  0  0  0  0  0  0  0
  140.5640   70.0990  226.6670 C   0  0  0  0  0  0  0  0  0  0  0  0
  140.7040   69.6010  227.9620 C   0  0  0  0  0  0  0  0  0  0  0  0
  140.3180   68.2750  228.1900 C   0  0  0  0  0  0  0  0  0  0  0  0
  140.4590   67.7900  229.4700 F   0  0  0  0  0  0  0  0  0  0  0  0
  139.8180   67.4950  227.1700 C   0  0  0  0  0  0  0  0  0  0  0  0
  139.6800   67.9870  225.8910 C   0  0  0  0  0  0  0  0  0  0  0  0
  140.0620   69.3100  225.6540 C   0  0  0  0  0  0  0  0  0  0  0  0
  139.9510   69.8280  224.3930 N   0  0  0  0  0  0  0  0  0  0  0  0
  140.6020   69.9930  221.6130 H   0  0  0  0  0  0  0  0  0  0  0  0
  139.2198   71.8693  220.1067 H   0  0  0  0  0  0  0  0  0  0  0  0
  140.7057   72.8002  220.5799 H   0  0  0  0  0  0  0  0  0  0  0  0
  142.7757   71.2596  217.0852 H   0  0  0  0  0  0  0  0  0  0  0  0
  143.1088   72.8993  217.6008 H   0  0  0  0  0  0  0  0  0  0  0  0
  144.8833   70.6107  217.6074 H   0  0  0  0  0  0  0  0  0  0  0  0
  145.2646   72.2600  218.1607 H   0  0  0  0  0  0  0  0  0  0  0  0
  144.3447   69.8533  219.7725 H   0  0  0  0  0  0  0  0  0  0  0  0
  145.4783   71.0667  220.2624 H   0  0  0  0  0  0  0  0  0  0  0  0
  142.9272   71.4488  221.2145 H   0  0  0  0  0  0  0  0  0  0  0  0
  143.8370   73.3703  221.5635 H   0  0  0  0  0  0  0  0  0  0  0  0
  144.8171   73.3289  220.0878 H   0  0  0  0  0  0  0  0  0  0  0  0
  142.5560   73.8180  218.8240 H   0  0  0  0  0  0  0  0  0  0  0  0
  141.2581   74.0277  222.0669 H   0  0  0  0  0  0  0  0  0  0  0  0
  140.2040   76.0487  223.0573 H   0  0  0  0  0  0  0  0  0  0  0  0
  142.7476   78.5339  223.8767 H   0  0  0  0  0  0  0  0  0  0  0  0
  143.2354   79.1876  222.3259 H   0  0  0  0  0  0  0  0  0  0  0  0
  142.7958   80.6332  224.9882 H   0  0  0  0  0  0  0  0  0  0  0  0
  143.9665   81.0393  223.7546 H   0  0  0  0  0  0  0  0  0  0  0  0
  141.7908   82.6011  223.8844 H   0  0  0  0  0  0  0  0  0  0  0  0
  142.1340   82.0601  222.2859 H   0  0  0  0  0  0  0  0  0  0  0  0
  140.3229   80.6676  224.4306 H   0  0  0  0  0  0  0  0  0  0  0  0
  139.7720   81.1713  222.8628 H   0  0  0  0  0  0  0  0  0  0  0  0
  141.9116   78.4741  219.9629 H   0  0  0  0  0  0  0  0  0  0  0  0
  142.9514   76.4765  218.9908 H   0  0  0  0  0  0  0  0  0  0  0  0
  141.1399   72.9264  224.9500 H   0  0  0  0  0  0  0  0  0  0  0  0
  141.3616   72.0195  227.2734 H   0  0  0  0  0  0  0  0  0  0  0  0
  141.1029   70.2268  228.7740 H   0  0  0  0  0  0  0  0  0  0  0  0
  139.5226   66.4568  227.3819 H   0  0  0  0  0  0  0  0  0  0  0  0
  139.2815   67.3580  225.0813 H   0  0  0  0  0  0  0  0  0  0  0  0
  1  2  2  0
  2  3  1  0
  3  4  1  0
  4  5  1  0
  5  6  2  0
  5  7  1  0
  7  8  1  0
  8  9  1  0
  9 10  1  0
 10 11  1  0
 11 12  1  0
 12 13  1  0
 13 14  1  0
 14 15  2  0
 15 16  1  0
 16 17  2  0
 17 18  1  0
 18 19  2  0
 18 20  1  0
 20 21  1  0
 21 22  1  0
 22 23  1  0
 23 24  1  0
 17 25  1  0
 25 26  2  0
  2 27  1  0
 27 28  2  0
 28 29  1  0
 29 30  2  0
 30 31  1  0
 31 32  2  0
 32 33  1  0
 32 34  1  0
 34 35  2  0
 35 36  1  0
 36 37  2  0
 11  7  1  0
 26 14  1  0
 37 27  1  0
 24 20  1  0
 36 30  1  0
  3 38  1  0
  4 39  1  0
  4 40  1  0
  8 41  1  0
  8 42  1  0
  9 43  1  0
  9 44  1  0
 10 45  1  0
 10 46  1  0
 11 47  1  1
 12 48  1  0
 12 49  1  0
 13 50  1  0
 15 51  1  0
 16 52  1  0
 21 53  1  0
 21 54  1  0
 22 55  1  0
 22 56  1  0
 23 57  1  0
 23 58  1  0
 24 59  1  0
 24 60  1  0
 25 61  1  0
 26 62  1  0
 28 63  1  0
 29 64  1  0
 31 65  1  0
 34 66  1  0
 35 67  1  0
M  END
>  <smiles>  (40) 
O=C(NCC(=O)N1CCC[C@H]1CNc1ccc(C(=O)N2CCCC2)cc1)c1ccc2cc(F)ccc2n1

>  <score_type>  (40) 
oracle

>  <origin>  (40) 
autodockgpu

>  <m_score__min__energy>  (40) 
-8.9399999999999995

>  <m_primary>  (40) 
energy

>  <rmsd>  (40) 
8.85853172315023

>  <m_score__min__rmsd>  (40) 
8.85853172315023

>  <meeko>  (40) 
{"free_energy": -8.65, "intermolecular_energy": -11.03, "internal_energy": -2.1, "cluster_size": 6, "cluster_id": 4, "rank_in_cluster": 2}

>  <energy>  (40) 
-7.45

>  <cluster_rmsd>  (40) 
0.0

>  <cluster>  (40) 
16

$$$$

     RDKit          3D

 67 71  0  0  0  0  0  0  0  0999 V2000
  139.3470   77.4120  221.2270 O   0  0  0  0  0  0  0  0  0  0  0  0
  139.7390   76.2790  221.6740 C   0  0  0  0  0  0  0  0  0  0  0  0
  138.9140   75.7090  222.6800 N   0  0  0  0  0  0  0  0  0  0  0  0
  137.7400   76.4570  223.0670 C   0  0  0  0  0  0  0  0  0  0  0  0
  136.4870   75.7900  222.6370 C   0  0  0  0  0  0  0  0  0  0  0  0
  135.4530   75.7090  223.3320 O   0  0  0  0  0  0  0  0  0  0  0  0
  136.5050   75.2100  221.3160 N   0  0  0  0  0  0  0  0  0  0  0  0
  136.6670   75.9210  220.0460 C   0  0  0  0  0  0  0  0  0  0  0  0
  135.8710   75.0910  219.0910 C   0  0  0  0  0  0  0  0  0  0  0  0
  135.2970   73.9250  219.8750 C   0  0  0  0  0  0  0  0  0  0  0  0
  136.3410   73.8100  220.9830 C   0  0  1  0  0  0  0  0  0  0  0  0
  137.5630   73.1450  220.4350 C   0  0  0  0  0  0  0  0  0  0  0  0
  138.5520   73.1450  221.5240 N   0  0  0  0  0  0  0  0  0  0  0  0
  138.6970   72.0880  222.4350 C   0  0  0  0  0  0  0  0  0  0  0  0
  137.6590   71.4800  223.1100 C   0  0  0  0  0  0  0  0  0  0  0  0
  137.9010   70.4350  224.0080 C   0  0  0  0  0  0  0  0  0  0  0  0
  139.1830   69.9900  224.2400 C   0  0  0  0  0  0  0  0  0  0  0  0
  139.5120   68.9100  225.1590 C   0  0  0  0  0  0  0  0  0  0  0  0
  139.1940   67.7270  224.8050 O   0  0  0  0  0  0  0  0  0  0  0  0
  140.1600   69.1710  226.4000 N   0  0  0  0  0  0  0  0  0  0  0  0
  140.5740   70.4850  226.8940 C   0  0  0  0  0  0  0  0  0  0  0  0
  141.0970   70.1780  228.3090 C   0  0  0  0  0  0  0  0  0  0  0  0
  140.3260   68.9050  228.6840 C   0  0  0  0  0  0  0  0  0  0  0  0
  140.5040   68.1360  227.3700 C   0  0  0  0  0  0  0  0  0  0  0  0
  140.2310   70.5860  223.5750 C   0  0  0  0  0  0  0  0  0  0  0  0
  139.9820   71.6110  222.6950 C   0  0  0  0  0  0  0  0  0  0  0  0
  140.9460   75.6550  221.1590 C   0  0  0  0  0  0  0  0  0  0  0  0
  141.8180   76.4880  220.4420 C   0  0  0  0  0  0  0  0  0  0  0  0
  143.0040   76.0000  219.9160 C   0  0  0  0  0  0  0  0  0  0  0  0
  143.2770   74.6680  220.1320 C   0  0  0  0  0  0  0  0  0  0  0  0
  144.4640   74.1750  219.5910 C   0  0  0  0  0  0  0  0  0  0  0  0
  144.7500   72.8190  219.7900 C   0  0  0  0  0  0  0  0  0  0  0  0
  145.9230   72.3390  219.2530 F   0  0  0  0  0  0  0  0  0  0  0  0
  143.8890   72.0060  220.4940 C   0  0  0  0  0  0  0  0  0  0  0  0
  142.7160   72.4940  221.0280 C   0  0  0  0  0  0  0  0  0  0  0  0
  142.4230   73.8460  220.8350 C   0  0  0  0  0  0  0  0  0  0  0  0
  141.2610   74.3610  221.3410 N   0  0  0  0  0  0  0  0  0  0  0  0
  139.1820   74.7810  223.0990 H   0  0  0  0  0  0  0  0  0  0  0  0
  137.7296   76.5593  224.1622 H   0  0  0  0  0  0  0  0  0  0  0  0
  137.7869   77.4397  222.5749 H   0  0  0  0  0  0  0  0  0  0  0  0
  136.2653   76.9430  220.1112 H   0  0  0  0  0  0  0  0  0  0  0  0
  137.7189   76.0375  219.7460 H   0  0  0  0  0  0  0  0  0  0  0  0
  135.0567   75.6913  218.6591 H   0  0  0  0  0  0  0  0  0  0  0  0
  136.5043   74.7314  218.2666 H   0  0  0  0  0  0  0  0  0  0  0  0
  134.2992   74.1551  220.2767 H   0  0  0  0  0  0  0  0  0  0  0  0
  135.1393   73.0067  219.2903 H   0  0  0  0  0  0  0  0  0  0  0  0
  136.0892   73.2004  221.8633 H   0  0  0  0  0  0  0  0  0  0  0  0
  137.3318   72.1139  220.1296 H   0  0  0  0  0  0  0  0  0  0  0  0
  137.9431   73.6723  219.5476 H   0  0  0  0  0  0  0  0  0  0  0  0
  139.1860   73.9740  221.6340 H   0  0  0  0  0  0  0  0  0  0  0  0
  136.6272   71.8214  222.9399 H   0  0  0  0  0  0  0  0  0  0  0  0
  137.0579   69.9638  224.5344 H   0  0  0  0  0  0  0  0  0  0  0  0
  141.3681   70.9115  226.2635 H   0  0  0  0  0  0  0  0  0  0  0  0
  139.7609   71.2258  226.8852 H   0  0  0  0  0  0  0  0  0  0  0  0
  142.1819   69.9968  228.3004 H   0  0  0  0  0  0  0  0  0  0  0  0
  140.9470   71.0047  229.0190 H   0  0  0  0  0  0  0  0  0  0  0  0
  140.7821   68.3802  229.5364 H   0  0  0  0  0  0  0  0  0  0  0  0
  139.2870   69.0552  229.0125 H   0  0  0  0  0  0  0  0  0  0  0  0
  141.5397   67.7884  227.2412 H   0  0  0  0  0  0  0  0  0  0  0  0
  139.9002   67.2198  227.2926 H   0  0  0  0  0  0  0  0  0  0  0  0
  141.2619   70.2433  223.7474 H   0  0  0  0  0  0  0  0  0  0  0  0
  140.8318   72.0754  222.1732 H   0  0  0  0  0  0  0  0  0  0  0  0
  141.5561   77.5462  220.2948 H   0  0  0  0  0  0  0  0  0  0  0  0
  143.6939   76.6459  219.3531 H   0  0  0  0  0  0  0  0  0  0  0  0
  145.1495   74.8267  219.0293 H   0  0  0  0  0  0  0  0  0  0  0  0
  144.1432   70.9448  220.6328 H   0  0  0  0  0  0  0  0  0  0  0  0
  142.0322   71.8396  221.5884 H   0  0  0  0  0  0  0  0  0  0  0  0
  1  2  2  0
  2  3  1  0
  3  4  1  0
  4  5  1  0
  5  6  2  0
  5  7  1  0
  7  8  1  0
  8  9  1  0
  9 10  1  0
 10 11  1  0
 11 12  1  0
 12 13  1  0
 13 14  1  0
 14 15  2  0
 15 16  1  0
 16 17  2  0
 17 18  1  0
 18 19  2  0
 18 20  1  0
 20 21  1  0
 21 22  1  0
 22 23  1  0
 23 24  1  0
 17 25  1  0
 25 26  2  0
  2 27  1  0
 27 28  2  0
 28 29  1  0
 29 30  2  0
 30 31  1  0
 31 32  2  0
 32 33  1  0
 32 34  1  0
 34 35  2  0
 35 36  1  0
 36 37  2  0
 11  7  1  0
 26 14  1  0
 37 27  1  0
 24 20  1  0
 36 30  1  0
  3 38  1  0
  4 39  1  0
  4 40  1  0
  8 41  1  0
  8 42  1  0
  9 43  1  0
  9 44  1  0
 10 45  1  0
 10 46  1  0
 11 47  1  1
 12 48  1  0
 12 49  1  0
 13 50  1  0
 15 51  1  0
 16 52  1  0
 21 53  1  0
 21 54  1  0
 22 55  1  0
 22 56  1  0
 23 57  1  0
 23 58  1  0
 24 59  1  0
 24 60  1  0
 25 61  1  0
 26 62  1  0
 28 63  1  0
 29 64  1  0
 31 65  1  0
 34 66  1  0
 35 67  1  0
M  END
>  <smiles>  (41) 
O=C(NCC(=O)N1CCC[C@H]1CNc1ccc(C(=O)N2CCCC2)cc1)c1ccc2cc(F)ccc2n1

>  <score_type>  (41) 
oracle

>  <origin>  (41) 
autodockgpu

>  <m_score__min__energy>  (41) 
-8.9399999999999995

>  <m_primary>  (41) 
energy

>  <rmsd>  (41) 
5.301454248689897

>  <m_score__min__rmsd>  (41) 
5.301454248689897

>  <meeko>  (41) 
{"free_energy": -7.49, "intermolecular_energy": -9.88, "internal_energy": -3.43, "cluster_size": 4, "cluster_id": 10, "rank_in_cluster": 2}

>  <energy>  (41) 
-7.38

>  <cluster_rmsd>  (41) 
1.16

>  <cluster>  (41) 
16

$$$$

     RDKit          3D

 67 71  0  0  0  0  0  0  0  0999 V2000
  141.2200   72.6130  222.0050 O   0  0  0  0  0  0  0  0  0  0  0  0
  140.1700   72.5390  222.7330 C   0  0  0  0  0  0  0  0  0  0  0  0
  139.1170   73.4170  222.3620 N   0  0  0  0  0  0  0  0  0  0  0  0
  139.3440   74.2680  221.2170 C   0  0  0  0  0  0  0  0  0  0  0  0
  140.2290   75.4140  221.5390 C   0  0  0  0  0  0  0  0  0  0  0  0
  141.4010   75.3080  221.9530 O   0  0  0  0  0  0  0  0  0  0  0  0
  139.6560   76.7240  221.3450 N   0  0  0  0  0  0  0  0  0  0  0  0
  139.9160   77.6410  220.2330 C   0  0  0  0  0  0  0  0  0  0  0  0
  139.7640   78.9870  220.8640 C   0  0  0  0  0  0  0  0  0  0  0  0
  139.4080   78.7660  222.3220 C   0  0  0  0  0  0  0  0  0  0  0  0
  138.7280   77.4020  222.2260 C   0  0  1  0  0  0  0  0  0  0  0  0
  137.3500   77.5820  221.6730 C   0  0  0  0  0  0  0  0  0  0  0  0
  136.8010   76.2290  221.4950 N   0  0  0  0  0  0  0  0  0  0  0  0
  136.1180   75.5350  222.5040 C   0  0  0  0  0  0  0  0  0  0  0  0
  135.4130   74.3640  222.3180 C   0  0  0  0  0  0  0  0  0  0  0  0
  134.7550   73.7450  223.3860 C   0  0  0  0  0  0  0  0  0  0  0  0
  134.7940   74.2920  224.6490 C   0  0  0  0  0  0  0  0  0  0  0  0
  134.1340   73.7050  225.8060 C   0  0  0  0  0  0  0  0  0  0  0  0
  133.6110   74.5080  226.6480 O   0  0  0  0  0  0  0  0  0  0  0  0
  134.0780   72.2940  225.9840 N   0  0  0  0  0  0  0  0  0  0  0  0
  134.6340   71.2900  225.0760 C   0  0  0  0  0  0  0  0  0  0  0  0
  134.3890   69.9660  225.8240 C   0  0  0  0  0  0  0  0  0  0  0  0
  134.3430   70.4130  227.2920 C   0  0  0  0  0  0  0  0  0  0  0  0
  133.4440   71.6440  227.1270 C   0  0  0  0  0  0  0  0  0  0  0  0
  135.4930   75.4610  224.8520 C   0  0  0  0  0  0  0  0  0  0  0  0
  136.1360   76.0600  223.7970 C   0  0  0  0  0  0  0  0  0  0  0  0
  140.1020   71.6090  223.8470 C   0  0  0  0  0  0  0  0  0  0  0  0
  139.4450   70.3930  223.6010 C   0  0  0  0  0  0  0  0  0  0  0  0
  139.3320   69.4280  224.5900 C   0  0  0  0  0  0  0  0  0  0  0  0
  139.8910   69.7240  225.8130 C   0  0  0  0  0  0  0  0  0  0  0  0
  139.7650   68.7580  226.8110 C   0  0  0  0  0  0  0  0  0  0  0  0
  140.3150   69.0490  228.0640 C   0  0  0  0  0  0  0  0  0  0  0  0
  140.1870   68.0920  229.0450 F   0  0  0  0  0  0  0  0  0  0  0  0
  140.9570   70.2450  228.2990 C   0  0  0  0  0  0  0  0  0  0  0  0
  141.0810   71.1990  227.3130 C   0  0  0  0  0  0  0  0  0  0  0  0
  140.5360   70.9170  226.0580 C   0  0  0  0  0  0  0  0  0  0  0  0
  140.6290   71.8470  225.0590 N   0  0  0  0  0  0  0  0  0  0  0  0
  138.2260   73.4160  222.9240 H   0  0  0  0  0  0  0  0  0  0  0  0
  139.8117   73.6720  220.4195 H   0  0  0  0  0  0  0  0  0  0  0  0
  138.3718   74.6709  220.8969 H   0  0  0  0  0  0  0  0  0  0  0  0
  140.9326   77.5030  219.8363 H   0  0  0  0  0  0  0  0  0  0  0  0
  139.2432   77.4854  219.3768 H   0  0  0  0  0  0  0  0  0  0  0  0
  140.7079   79.5468  220.7880 H   0  0  0  0  0  0  0  0  0  0  0  0
  138.9801   79.5681  220.3562 H   0  0  0  0  0  0  0  0  0  0  0  0
  140.3034   78.7316  222.9600 H   0  0  0  0  0  0  0  0  0  0  0  0
  138.7938   79.5588  222.7739 H   0  0  0  0  0  0  0  0  0  0  0  0
  138.5598   76.8456  223.1599 H   0  0  0  0  0  0  0  0  0  0  0  0
  136.7288   78.1565  222.3759 H   0  0  0  0  0  0  0  0  0  0  0  0
  137.3678   78.1363  220.7230 H   0  0  0  0  0  0  0  0  0  0  0  0
  136.9220   75.7500  220.5690 H   0  0  0  0  0  0  0  0  0  0  0  0
  135.3676   73.9110  221.3166 H   0  0  0  0  0  0  0  0  0  0  0  0
  134.2002   72.8107  223.2149 H   0  0  0  0  0  0  0  0  0  0  0  0
  134.1102   71.2995  224.1088 H   0  0  0  0  0  0  0  0  0  0  0  0
  135.6943   71.4622  224.8391 H   0  0  0  0  0  0  0  0  0  0  0  0
  133.4367   69.5079  225.5186 H   0  0  0  0  0  0  0  0  0  0  0  0
  135.1550   69.2024  225.6234 H   0  0  0  0  0  0  0  0  0  0  0  0
  133.8881   69.6518  227.9429 H   0  0  0  0  0  0  0  0  0  0  0  0
  135.3185   70.5943  227.7668 H   0  0  0  0  0  0  0  0  0  0  0  0
  132.4047   71.3596  226.9059 H   0  0  0  0  0  0  0  0  0  0  0  0
  133.3664   72.2750  228.0246 H   0  0  0  0  0  0  0  0  0  0  0  0
  135.5360   75.9126  225.8541 H   0  0  0  0  0  0  0  0  0  0  0  0
  136.6889   76.9934  223.9786 H   0  0  0  0  0  0  0  0  0  0  0  0
  139.0129   70.2028  222.6075 H   0  0  0  0  0  0  0  0  0  0  0  0
  138.8203   68.4717  224.4064 H   0  0  0  0  0  0  0  0  0  0  0  0
  139.2526   67.8035  226.6202 H   0  0  0  0  0  0  0  0  0  0  0  0
  141.3796   70.4424  229.2952 H   0  0  0  0  0  0  0  0  0  0  0  0
  141.5931   72.1529  227.5078 H   0  0  0  0  0  0  0  0  0  0  0  0
  1  2  2  0
  2  3  1  0
  3  4  1  0
  4  5  1  0
  5  6  2  0
  5  7  1  0
  7  8  1  0
  8  9  1  0
  9 10  1  0
 10 11  1  0
 11 12  1  0
 12 13  1  0
 13 14  1  0
 14 15  2  0
 15 16  1  0
 16 17  2  0
 17 18  1  0
 18 19  2  0
 18 20  1  0
 20 21  1  0
 21 22  1  0
 22 23  1  0
 23 24  1  0
 17 25  1  0
 25 26  2  0
  2 27  1  0
 27 28  2  0
 28 29  1  0
 29 30  2  0
 30 31  1  0
 31 32  2  0
 32 33  1  0
 32 34  1  0
 34 35  2  0
 35 36  1  0
 36 37  2  0
 11  7  1  0
 26 14  1  0
 37 27  1  0
 24 20  1  0
 36 30  1  0
  3 38  1  0
  4 39  1  0
  4 40  1  0
  8 41  1  0
  8 42  1  0
  9 43  1  0
  9 44  1  0
 10 45  1  0
 10 46  1  0
 11 47  1  1
 12 48  1  0
 12 49  1  0
 13 50  1  0
 15 51  1  0
 16 52  1  0
 21 53  1  0
 21 54  1  0
 22 55  1  0
 22 56  1  0
 23 57  1  0
 23 58  1  0
 24 59  1  0
 24 60  1  0
 25 61  1  0
 26 62  1  0
 28 63  1  0
 29 64  1  0
 31 65  1  0
 34 66  1  0
 35 67  1  0
M  END
>  <smiles>  (42) 
O=C(NCC(=O)N1CCC[C@H]1CNc1ccc(C(=O)N2CCCC2)cc1)c1ccc2cc(F)ccc2n1

>  <score_type>  (42) 
oracle

>  <origin>  (42) 
autodockgpu

>  <m_score__min__energy>  (42) 
-8.9399999999999995

>  <m_primary>  (42) 
energy

>  <rmsd>  (42) 
8.116375348259638

>  <m_score__min__rmsd>  (42) 
8.116375348259638

>  <meeko>  (42) 
{"free_energy": -8.9, "intermolecular_energy": -11.28, "internal_energy": -2.01, "cluster_size": 3, "cluster_id": 2, "rank_in_cluster": 1}

>  <energy>  (42) 
-7.42

>  <cluster_rmsd>  (42) 
0.0

>  <cluster>  (42) 
17

$$$$

     RDKit          3D

 67 71  0  0  0  0  0  0  0  0999 V2000
  141.2980   73.0910  222.0220 O   0  0  0  0  0  0  0  0  0  0  0  0
  140.2210   72.8350  222.6630 C   0  0  0  0  0  0  0  0  0  0  0  0
  139.1030   73.6370  222.3080 N   0  0  0  0  0  0  0  0  0  0  0  0
  139.3050   74.6230  221.2710 C   0  0  0  0  0  0  0  0  0  0  0  0
  139.1570   76.0080  221.7800 C   0  0  0  0  0  0  0  0  0  0  0  0
  138.1540   76.4360  222.3880 O   0  0  0  0  0  0  0  0  0  0  0  0
  140.2730   76.8900  221.5380 N   0  0  0  0  0  0  0  0  0  0  0  0
  141.0470   77.6240  222.5410 C   0  0  0  0  0  0  0  0  0  0  0  0
  141.4600   78.8600  221.8090 C   0  0  0  0  0  0  0  0  0  0  0  0
  140.9030   78.7600  220.4000 C   0  0  0  0  0  0  0  0  0  0  0  0
  140.8340   77.2420  220.2490 C   0  0  1  0  0  0  0  0  0  0  0  0
  142.2100   76.7140  219.9950 C   0  0  0  0  0  0  0  0  0  0  0  0
  142.2370   75.3560  220.5600 N   0  0  0  0  0  0  0  0  0  0  0  0
  143.0460   74.3260  220.0570 C   0  0  0  0  0  0  0  0  0  0  0  0
  144.2750   73.9670  220.5680 C   0  0  0  0  0  0  0  0  0  0  0  0
  145.0160   72.9290  219.9930 C   0  0  0  0  0  0  0  0  0  0  0  0
  144.5340   72.2420  218.9020 C   0  0  0  0  0  0  0  0  0  0  0  0
  145.2480   71.1520  218.2510 C   0  0  0  0  0  0  0  0  0  0  0  0
  146.0550   71.4610  217.3140 O   0  0  0  0  0  0  0  0  0  0  0  0
  145.0490   69.8000  218.6510 N   0  0  0  0  0  0  0  0  0  0  0  0
  144.1570   69.3410  219.7170 C   0  0  0  0  0  0  0  0  0  0  0  0
  144.2530   67.8070  219.6190 C   0  0  0  0  0  0  0  0  0  0  0  0
  144.6340   67.5880  218.1480 C   0  0  0  0  0  0  0  0  0  0  0  0
  145.7210   68.6630  218.0320 C   0  0  0  0  0  0  0  0  0  0  0  0
  143.3090   72.5870  218.3790 C   0  0  0  0  0  0  0  0  0  0  0  0
  142.5900   73.6080  218.9510 C   0  0  0  0  0  0  0  0  0  0  0  0
  140.1870   71.7910  223.6720 C   0  0  0  0  0  0  0  0  0  0  0  0
  139.6410   70.5610  223.2740 C   0  0  0  0  0  0  0  0  0  0  0  0
  139.5700   69.4910  224.1530 C   0  0  0  0  0  0  0  0  0  0  0  0
  140.0560   69.6990  225.4240 C   0  0  0  0  0  0  0  0  0  0  0  0
  139.9720   68.6270  226.3120 C   0  0  0  0  0  0  0  0  0  0  0  0
  140.4500   68.8260  227.6120 C   0  0  0  0  0  0  0  0  0  0  0  0
  140.3630   67.7640  228.4840 F   0  0  0  0  0  0  0  0  0  0  0  0
  140.9820   70.0370  227.9970 C   0  0  0  0  0  0  0  0  0  0  0  0
  141.0660   71.0960  227.1200 C   0  0  0  0  0  0  0  0  0  0  0  0
  140.5920   70.9060  225.8190 C   0  0  0  0  0  0  0  0  0  0  0  0
  140.6470   71.9400  224.9250 N   0  0  0  0  0  0  0  0  0  0  0  0
  138.1850   73.4870  222.8020 H   0  0  0  0  0  0  0  0  0  0  0  0
  140.3182   74.5028  220.8601 H   0  0  0  0  0  0  0  0  0  0  0  0
  138.5387   74.4630  220.4983 H   0  0  0  0  0  0  0  0  0  0  0  0
  140.4272   77.8710  223.4156 H   0  0  0  0  0  0  0  0  0  0  0  0
  141.8978   77.0502  222.9370 H   0  0  0  0  0  0  0  0  0  0  0  0
  141.0524   79.7491  222.3123 H   0  0  0  0  0  0  0  0  0  0  0  0
  142.5560   78.9514  221.7881 H   0  0  0  0  0  0  0  0  0  0  0  0
  139.9087   79.2238  220.3203 H   0  0  0  0  0  0  0  0  0  0  0  0
  141.4956   79.2756  219.6300 H   0  0  0  0  0  0  0  0  0  0  0  0
  140.2442   76.8358  219.4140 H   0  0  0  0  0  0  0  0  0  0  0  0
  142.4131   76.6819  218.9144 H   0  0  0  0  0  0  0  0  0  0  0  0
  142.9773   77.3552  220.4535 H   0  0  0  0  0  0  0  0  0  0  0  0
  141.6230   75.1360  221.3820 H   0  0  0  0  0  0  0  0  0  0  0  0
  144.6783   74.5038  221.4393 H   0  0  0  0  0  0  0  0  0  0  0  0
  145.9943   72.6590  220.4173 H   0  0  0  0  0  0  0  0  0  0  0  0
  144.5012   69.6959  220.6996 H   0  0  0  0  0  0  0  0  0  0  0  0
  143.1286   69.7168  219.6110 H   0  0  0  0  0  0  0  0  0  0  0  0
  145.0286   67.4139  220.2927 H   0  0  0  0  0  0  0  0  0  0  0  0
  143.3267   67.2913  219.9122 H   0  0  0  0  0  0  0  0  0  0  0  0
  145.0297   66.5775  217.9684 H   0  0  0  0  0  0  0  0  0  0  0  0
  143.8087   67.6633  217.4246 H   0  0  0  0  0  0  0  0  0  0  0  0
  146.6299   68.3807  218.5836 H   0  0  0  0  0  0  0  0  0  0  0  0
  146.0729   68.8457  217.0059 H   0  0  0  0  0  0  0  0  0  0  0  0
  142.9078   72.0483  217.5079 H   0  0  0  0  0  0  0  0  0  0  0  0
  141.6132   73.8708  218.5188 H   0  0  0  0  0  0  0  0  0  0  0  0
  139.2631   70.4438  222.2476 H   0  0  0  0  0  0  0  0  0  0  0  0
  139.1458   68.5226  223.8493 H   0  0  0  0  0  0  0  0  0  0  0  0
  139.5460   67.6613  226.0022 H   0  0  0  0  0  0  0  0  0  0  0  0
  141.3476   70.1610  229.0270 H   0  0  0  0  0  0  0  0  0  0  0  0
  141.4925   72.0603  227.4336 H   0  0  0  0  0  0  0  0  0  0  0  0
  1  2  2  0
  2  3  1  0
  3  4  1  0
  4  5  1  0
  5  6  2  0
  5  7  1  0
  7  8  1  0
  8  9  1  0
  9 10  1  0
 10 11  1  0
 11 12  1  0
 12 13  1  0
 13 14  1  0
 14 15  2  0
 15 16  1  0
 16 17  2  0
 17 18  1  0
 18 19  2  0
 18 20  1  0
 20 21  1  0
 21 22  1  0
 22 23  1  0
 23 24  1  0
 17 25  1  0
 25 26  2  0
  2 27  1  0
 27 28  2  0
 28 29  1  0
 29 30  2  0
 30 31  1  0
 31 32  2  0
 32 33  1  0
 32 34  1  0
 34 35  2  0
 35 36  1  0
 36 37  2  0
 11  7  1  0
 26 14  1  0
 37 27  1  0
 24 20  1  0
 36 30  1  0
  3 38  1  0
  4 39  1  0
  4 40  1  0
  8 41  1  0
  8 42  1  0
  9 43  1  0
  9 44  1  0
 10 45  1  0
 10 46  1  0
 11 47  1  6
 12 48  1  0
 12 49  1  0
 13 50  1  0
 15 51  1  0
 16 52  1  0
 21 53  1  0
 21 54  1  0
 22 55  1  0
 22 56  1  0
 23 57  1  0
 23 58  1  0
 24 59  1  0
 24 60  1  0
 25 61  1  0
 26 62  1  0
 28 63  1  0
 29 64  1  0
 31 65  1  0
 34 66  1  0
 35 67  1  0
M  END
>  <smiles>  (43) 
O=C(NCC(=O)N1CCC[C@H]1CNc1ccc(C(=O)N2CCCC2)cc1)c1ccc2cc(F)ccc2n1

>  <score_type>  (43) 
oracle

>  <origin>  (43) 
autodockgpu

>  <m_score__min__energy>  (43) 
-8.9399999999999995

>  <m_primary>  (43) 
energy

>  <rmsd>  (43) 
8.390330301379574

>  <m_score__min__rmsd>  (43) 
8.390330301379574

>  <meeko>  (43) 
{"free_energy": -8.73, "intermolecular_energy": -11.12, "internal_energy": -2.73, "cluster_size": 4, "cluster_id": 1, "rank_in_cluster": 2}

>  <energy>  (43) 
-6.99

>  <cluster_rmsd>  (43) 
0.0

>  <cluster>  (43) 
18

$$$$

     RDKit          3D

 67 71  0  0  0  0  0  0  0  0999 V2000
  139.8760   73.5750  222.3860 O   0  0  0  0  0  0  0  0  0  0  0  0
  140.3780   72.4000  222.4430 C   0  0  0  0  0  0  0  0  0  0  0  0
  141.0890   71.9900  221.2840 N   0  0  0  0  0  0  0  0  0  0  0  0
  141.1730   72.9380  220.1970 C   0  0  0  0  0  0  0  0  0  0  0  0
  139.8670   73.1300  219.5200 C   0  0  0  0  0  0  0  0  0  0  0  0
  139.4810   74.2050  219.0180 O   0  0  0  0  0  0  0  0  0  0  0  0
  139.0140   71.9680  219.4590 N   0  0  0  0  0  0  0  0  0  0  0  0
  139.4370   70.5660  219.4640 C   0  0  0  0  0  0  0  0  0  0  0  0
  138.3850   69.8940  218.6430 C   0  0  0  0  0  0  0  0  0  0  0  0
  137.3940   70.9610  218.2150 C   0  0  0  0  0  0  0  0  0  0  0  0
  137.5690   71.9590  219.3570 C   0  0  1  0  0  0  0  0  0  0  0  0
  136.8550   71.4460  220.5670 C   0  0  0  0  0  0  0  0  0  0  0  0
  137.2580   72.3190  221.6800 N   0  0  0  0  0  0  0  0  0  0  0  0
  136.4200   72.6280  222.7620 C   0  0  0  0  0  0  0  0  0  0  0  0
  135.9730   71.7200  223.6980 C   0  0  0  0  0  0  0  0  0  0  0  0
  135.1310   72.1200  224.7410 C   0  0  0  0  0  0  0  0  0  0  0  0
  134.7270   73.4310  224.8560 C   0  0  0  0  0  0  0  0  0  0  0  0
  133.8530   73.9200  225.9130 C   0  0  0  0  0  0  0  0  0  0  0  0
  134.2200   74.9720  226.5330 O   0  0  0  0  0  0  0  0  0  0  0  0
  132.6400   73.2470  226.2340 N   0  0  0  0  0  0  0  0  0  0  0  0
  132.1240   72.0440  225.5790 C   0  0  0  0  0  0  0  0  0  0  0  0
  130.8710   71.7040  226.4050 C   0  0  0  0  0  0  0  0  0  0  0  0
  131.1910   72.3240  227.7730 C   0  0  0  0  0  0  0  0  0  0  0  0
  131.7280   73.6770  227.2890 C   0  0  0  0  0  0  0  0  0  0  0  0
  135.1640   74.3510  223.9290 C   0  0  0  0  0  0  0  0  0  0  0  0
  135.9900   73.9480  222.9090 C   0  0  0  0  0  0  0  0  0  0  0  0
  140.2100   71.5770  223.6290 C   0  0  0  0  0  0  0  0  0  0  0  0
  139.5100   70.3730  223.4550 C   0  0  0  0  0  0  0  0  0  0  0  0
  139.3020   69.5060  224.5160 C   0  0  0  0  0  0  0  0  0  0  0  0
  139.8110   69.8870  225.7370 C   0  0  0  0  0  0  0  0  0  0  0  0
  139.5890   69.0210  226.8080 C   0  0  0  0  0  0  0  0  0  0  0  0
  140.0890   69.3990  228.0590 C   0  0  0  0  0  0  0  0  0  0  0  0
  139.8660   68.5400  229.1110 F   0  0  0  0  0  0  0  0  0  0  0  0
  140.7730   70.5830  228.2230 C   0  0  0  0  0  0  0  0  0  0  0  0
  140.9930   71.4380  227.1660 C   0  0  0  0  0  0  0  0  0  0  0  0
  140.4980   71.0690  225.9130 C   0  0  0  0  0  0  0  0  0  0  0  0
  140.6860   71.9010  224.8430 N   0  0  0  0  0  0  0  0  0  0  0  0
  141.5210   71.0310  221.2580 H   0  0  0  0  0  0  0  0  0  0  0  0
  141.5110   73.9057  220.5960 H   0  0  0  0  0  0  0  0  0  0  0  0
  141.8827   72.5411  219.4562 H   0  0  0  0  0  0  0  0  0  0  0  0
  140.4300   70.4511  219.0049 H   0  0  0  0  0  0  0  0  0  0  0  0
  139.5311   70.1455  220.4761 H   0  0  0  0  0  0  0  0  0  0  0  0
  138.8404   69.4267  217.7574 H   0  0  0  0  0  0  0  0  0  0  0  0
  137.8821   69.1070  219.2242 H   0  0  0  0  0  0  0  0  0  0  0  0
  137.6625   71.4013  217.2434 H   0  0  0  0  0  0  0  0  0  0  0  0
  136.3644   70.6038  218.0657 H   0  0  0  0  0  0  0  0  0  0  0  0
  137.1553   72.9694  219.2230 H   0  0  0  0  0  0  0  0  0  0  0  0
  135.7663   71.4961  220.4176 H   0  0  0  0  0  0  0  0  0  0  0  0
  137.1100   70.3951  220.7683 H   0  0  0  0  0  0  0  0  0  0  0  0
  138.2210   72.7370  221.6740 H   0  0  0  0  0  0  0  0  0  0  0  0
  136.2825   70.6671  223.6237 H   0  0  0  0  0  0  0  0  0  0  0  0
  134.7878   71.3786  225.4776 H   0  0  0  0  0  0  0  0  0  0  0  0
  131.8618   72.2475  224.5303 H   0  0  0  0  0  0  0  0  0  0  0  0
  132.8553   71.2230  225.5467 H   0  0  0  0  0  0  0  0  0  0  0  0
  129.9705   72.1572  225.9648 H   0  0  0  0  0  0  0  0  0  0  0  0
  130.6588   70.6257  226.4530 H   0  0  0  0  0  0  0  0  0  0  0  0
  130.2928   72.4342  228.3984 H   0  0  0  0  0  0  0  0  0  0  0  0
  131.8695   71.7423  228.4143 H   0  0  0  0  0  0  0  0  0  0  0  0
  130.9231   74.3141  226.8937 H   0  0  0  0  0  0  0  0  0  0  0  0
  132.1958   74.2889  228.0743 H   0  0  0  0  0  0  0  0  0  0  0  0
  134.8529   75.4033  224.0054 H   0  0  0  0  0  0  0  0  0  0  0  0
  136.3271   74.6966  222.1769 H   0  0  0  0  0  0  0  0  0  0  0  0
  139.1199   70.1132  222.4598 H   0  0  0  0  0  0  0  0  0  0  0  0
  138.7566   68.5593  224.3887 H   0  0  0  0  0  0  0  0  0  0  0  0
  139.0414   68.0764  226.6740 H   0  0  0  0  0  0  0  0  0  0  0  0
  141.1519   70.8517  229.2201 H   0  0  0  0  0  0  0  0  0  0  0  0
  141.5412   72.3816  227.3041 H   0  0  0  0  0  0  0  0  0  0  0  0
  1  2  2  0
  2  3  1  0
  3  4  1  0
  4  5  1  0
  5  6  2  0
  5  7  1  0
  7  8  1  0
  8  9  1  0
  9 10  1  0
 10 11  1  0
 11 12  1  0
 12 13  1  0
 13 14  1  0
 14 15  2  0
 15 16  1  0
 16 17  2  0
 17 18  1  0
 18 19  2  0
 18 20  1  0
 20 21  1  0
 21 22  1  0
 22 23  1  0
 23 24  1  0
 17 25  1  0
 25 26  2  0
  2 27  1  0
 27 28  2  0
 28 29  1  0
 29 30  2  0
 30 31  1  0
 31 32  2  0
 32 33  1  0
 32 34  1  0
 34 35  2  0
 35 36  1  0
 36 37  2  0
 11  7  1  0
 26 14  1  0
 37 27  1  0
 24 20  1  0
 36 30  1  0
  3 38  1  0
  4 39  1  0
  4 40  1  0
  8 41  1  0
  8 42  1  0
  9 43  1  0
  9 44  1  0
 10 45  1  0
 10 46  1  0
 11 47  1  6
 12 48  1  0
 12 49  1  0
 13 50  1  0
 15 51  1  0
 16 52  1  0
 21 53  1  0
 21 54  1  0
 22 55  1  0
 22 56  1  0
 23 57  1  0
 23 58  1  0
 24 59  1  0
 24 60  1  0
 25 61  1  0
 26 62  1  0
 28 63  1  0
 29 64  1  0
 31 65  1  0
 34 66  1  0
 35 67  1  0
M  END
>  <smiles>  (44) 
O=C(NCC(=O)N1CCC[C@H]1CNc1ccc(C(=O)N2CCCC2)cc1)c1ccc2cc(F)ccc2n1

>  <score_type>  (44) 
oracle

>  <origin>  (44) 
autodockgpu

>  <m_score__min__energy>  (44) 
-8.9399999999999995

>  <m_primary>  (44) 
energy

>  <rmsd>  (44) 
8.123429465081552

>  <m_score__min__rmsd>  (44) 
8.123429465081552

>  <meeko>  (44) 
{"free_energy": -6.91, "intermolecular_energy": -9.3, "internal_energy": -3.2, "cluster_size": 1, "cluster_id": 19, "rank_in_cluster": 1}

>  <energy>  (44) 
-6.91

>  <cluster_rmsd>  (44) 
0.0

>  <cluster>  (44) 
19

$$$$

     RDKit          3D

 67 71  0  0  0  0  0  0  0  0999 V2000
  140.0310   73.5060  222.3570 O   0  0  0  0  0  0  0  0  0  0  0  0
  139.9720   72.2300  222.3050 C   0  0  0  0  0  0  0  0  0  0  0  0
  139.8680   71.6830  220.9990 N   0  0  0  0  0  0  0  0  0  0  0  0
  139.8550   72.6160  219.8960 C   0  0  0  0  0  0  0  0  0  0  0  0
  140.5540   72.0810  218.7020 C   0  0  0  0  0  0  0  0  0  0  0  0
  140.0460   71.9890  217.5660 O   0  0  0  0  0  0  0  0  0  0  0  0
  141.9150   71.6480  218.9120 N   0  0  0  0  0  0  0  0  0  0  0  0
  142.5230   70.4010  218.4420 C   0  0  0  0  0  0  0  0  0  0  0  0
  143.5340   70.1000  219.4990 C   0  0  0  0  0  0  0  0  0  0  0  0
  143.4590   71.2140  220.5280 C   0  0  0  0  0  0  0  0  0  0  0  0
  142.9430   72.3520  219.6500 C   0  0  1  0  0  0  0  0  0  0  0  0
  144.0700   72.8760  218.8190 C   0  0  0  0  0  0  0  0  0  0  0  0
  144.4260   74.1830  219.3910 N   0  0  0  0  0  0  0  0  0  0  0  0
  143.4770   75.1180  219.8330 C   0  0  0  0  0  0  0  0  0  0  0  0
  142.5430   74.8860  220.8200 C   0  0  0  0  0  0  0  0  0  0  0  0
  141.6290   75.8790  221.1900 C   0  0  0  0  0  0  0  0  0  0  0  0
  141.6410   77.1100  220.5750 C   0  0  0  0  0  0  0  0  0  0  0  0
  140.7220   78.1900  220.9060 C   0  0  0  0  0  0  0  0  0  0  0  0
  139.6370   78.2570  220.2390 O   0  0  0  0  0  0  0  0  0  0  0  0
  141.0280   79.1270  221.9330 N   0  0  0  0  0  0  0  0  0  0  0  0
  142.2350   79.1330  222.7610 C   0  0  0  0  0  0  0  0  0  0  0  0
  142.0830   80.4180  223.5950 C   0  0  0  0  0  0  0  0  0  0  0  0
  141.1950   81.2950  222.7020 C   0  0  0  0  0  0  0  0  0  0  0  0
  140.1580   80.2380  222.3050 C   0  0  0  0  0  0  0  0  0  0  0  0
  142.5670   77.3580  219.5870 C   0  0  0  0  0  0  0  0  0  0  0  0
  143.4600   76.3760  219.2320 C   0  0  0  0  0  0  0  0  0  0  0  0
  140.0120   71.4340  223.5210 C   0  0  0  0  0  0  0  0  0  0  0  0
  139.4840   70.1370  223.4310 C   0  0  0  0  0  0  0  0  0  0  0  0
  139.4810   69.2880  224.5260 C   0  0  0  0  0  0  0  0  0  0  0  0
  140.0180   69.7800  225.6940 C   0  0  0  0  0  0  0  0  0  0  0  0
  140.0030   68.9300  226.8000 C   0  0  0  0  0  0  0  0  0  0  0  0
  140.5330   69.4200  227.9990 C   0  0  0  0  0  0  0  0  0  0  0  0
  140.5150   68.5760  229.0860 F   0  0  0  0  0  0  0  0  0  0  0  0
  141.0490   70.6950  228.0800 C   0  0  0  0  0  0  0  0  0  0  0  0
  141.0640   71.5340  226.9880 C   0  0  0  0  0  0  0  0  0  0  0  0
  140.5380   71.0530  225.7870 C   0  0  0  0  0  0  0  0  0  0  0  0
  140.5240   71.8650  224.6850 N   0  0  0  0  0  0  0  0  0  0  0  0
  139.8060   70.6380  220.8820 H   0  0  0  0  0  0  0  0  0  0  0  0
  138.8105   72.8328  219.6276 H   0  0  0  0  0  0  0  0  0  0  0  0
  140.3828   73.5262  220.2170 H   0  0  0  0  0  0  0  0  0  0  0  0
  141.7742   69.5983  218.3713 H   0  0  0  0  0  0  0  0  0  0  0  0
  142.9599   70.4844  217.4359 H   0  0  0  0  0  0  0  0  0  0  0  0
  143.3062   69.1339  219.9732 H   0  0  0  0  0  0  0  0  0  0  0  0
  144.5431   70.0384  219.0655 H   0  0  0  0  0  0  0  0  0  0  0  0
  142.7563   70.9736  221.3394 H   0  0  0  0  0  0  0  0  0  0  0  0
  144.4028   71.4247  221.0522 H   0  0  0  0  0  0  0  0  0  0  0  0
  142.5534   73.2507  220.1505 H   0  0  0  0  0  0  0  0  0  0  0  0
  144.9298   72.1915  218.8668 H   0  0  0  0  0  0  0  0  0  0  0  0
  143.7812   72.9657  217.7614 H   0  0  0  0  0  0  0  0  0  0  0  0
  145.4400   74.4400  219.4770 H   0  0  0  0  0  0  0  0  0  0  0  0
  142.5158   73.9081  221.3230 H   0  0  0  0  0  0  0  0  0  0  0  0
  140.8929   75.6733  221.9811 H   0  0  0  0  0  0  0  0  0  0  0  0
  142.2735   78.2447  223.4086 H   0  0  0  0  0  0  0  0  0  0  0  0
  143.1630   79.1089  222.1710 H   0  0  0  0  0  0  0  0  0  0  0  0
  141.5948   80.2103  224.5586 H   0  0  0  0  0  0  0  0  0  0  0  0
  143.0436   80.8881  223.8525 H   0  0  0  0  0  0  0  0  0  0  0  0
  140.7438   82.1299  223.2582 H   0  0  0  0  0  0  0  0  0  0  0  0
  141.7058   81.7998  221.8687 H   0  0  0  0  0  0  0  0  0  0  0  0
  139.5044   79.9750  223.1497 H   0  0  0  0  0  0  0  0  0  0  0  0
  139.4630   80.5566  221.5141 H   0  0  0  0  0  0  0  0  0  0  0  0
  142.5918   78.3364  219.0848 H   0  0  0  0  0  0  0  0  0  0  0  0
  144.1925   76.5914  218.4401 H   0  0  0  0  0  0  0  0  0  0  0  0
  139.0655   69.7885  222.4753 H   0  0  0  0  0  0  0  0  0  0  0  0
  139.0693   68.2698  224.4648 H   0  0  0  0  0  0  0  0  0  0  0  0
  139.5901   67.9127  226.7323 H   0  0  0  0  0  0  0  0  0  0  0  0
  141.4577   71.0504  229.0374 H   0  0  0  0  0  0  0  0  0  0  0  0
  141.4772   72.5509  227.0595 H   0  0  0  0  0  0  0  0  0  0  0  0
  1  2  2  0
  2  3  1  0
  3  4  1  0
  4  5  1  0
  5  6  2  0
  5  7  1  0
  7  8  1  0
  8  9  1  0
  9 10  1  0
 10 11  1  0
 11 12  1  0
 12 13  1  0
 13 14  1  0
 14 15  2  0
 15 16  1  0
 16 17  2  0
 17 18  1  0
 18 19  2  0
 18 20  1  0
 20 21  1  0
 21 22  1  0
 22 23  1  0
 23 24  1  0
 17 25  1  0
 25 26  2  0
  2 27  1  0
 27 28  2  0
 28 29  1  0
 29 30  2  0
 30 31  1  0
 31 32  2  0
 32 33  1  0
 32 34  1  0
 34 35  2  0
 35 36  1  0
 36 37  2  0
 11  7  1  0
 26 14  1  0
 37 27  1  0
 24 20  1  0
 36 30  1  0
  3 38  1  0
  4 39  1  0
  4 40  1  0
  8 41  1  0
  8 42  1  0
  9 43  1  0
  9 44  1  0
 10 45  1  0
 10 46  1  0
 11 47  1  1
 12 48  1  0
 12 49  1  0
 13 50  1  0
 15 51  1  0
 16 52  1  0
 21 53  1  0
 21 54  1  0
 22 55  1  0
 22 56  1  0
 23 57  1  0
 23 58  1  0
 24 59  1  0
 24 60  1  0
 25 61  1  0
 26 62  1  0
 28 63  1  0
 29 64  1  0
 31 65  1  0
 34 66  1  0
 35 67  1  0
M  END
>  <smiles>  (45) 
O=C(NCC(=O)N1CCC[C@H]1CNc1ccc(C(=O)N2CCCC2)cc1)c1ccc2cc(F)ccc2n1

>  <score_type>  (45) 
oracle

>  <origin>  (45) 
autodockgpu

>  <m_score__min__energy>  (45) 
-8.9399999999999995

>  <m_primary>  (45) 
energy

>  <rmsd>  (45) 
9.245727420746807

>  <m_score__min__rmsd>  (45) 
9.245727420746807

>  <meeko>  (45) 
{"free_energy": -8.66, "intermolecular_energy": -11.05, "internal_energy": -1.95, "cluster_size": 6, "cluster_id": 4, "rank_in_cluster": 1}

>  <energy>  (45) 
-6.73

>  <cluster_rmsd>  (45) 
0.0

>  <cluster>  (45) 
20

$$$$

     RDKit          3D

 67 71  0  0  0  0  0  0  0  0999 V2000
  140.0270   73.4030  222.3330 O   0  0  0  0  0  0  0  0  0  0  0  0
  140.1320   74.4080  221.5490 C   0  0  0  0  0  0  0  0  0  0  0  0
  140.6110   74.1090  220.2460 N   0  0  0  0  0  0  0  0  0  0  0  0
  140.9060   72.7240  219.9570 C   0  0  0  0  0  0  0  0  0  0  0  0
  142.0650   72.2250  220.7370 C   0  0  0  0  0  0  0  0  0  0  0  0
  141.9770   71.5720  221.7970 O   0  0  0  0  0  0  0  0  0  0  0  0
  143.3670   72.5360  220.1970 N   0  0  0  0  0  0  0  0  0  0  0  0
  144.5000   71.6200  220.0520 C   0  0  0  0  0  0  0  0  0  0  0  0
  145.6820   72.5180  220.2190 C   0  0  0  0  0  0  0  0  0  0  0  0
  145.1560   73.9230  220.4440 C   0  0  0  0  0  0  0  0  0  0  0  0
  143.8180   73.8250  219.7140 C   0  0  1  0  0  0  0  0  0  0  0  0
  144.0590   73.8970  218.2400 C   0  0  0  0  0  0  0  0  0  0  0  0
  144.0610   75.3270  217.8960 N   0  0  0  0  0  0  0  0  0  0  0  0
  143.1200   76.2420  218.3920 C   0  0  0  0  0  0  0  0  0  0  0  0
  143.1280   76.7700  219.6660 C   0  0  0  0  0  0  0  0  0  0  0  0
  142.1420   77.6730  220.0750 C   0  0  0  0  0  0  0  0  0  0  0  0
  141.1380   78.0550  219.2140 C   0  0  0  0  0  0  0  0  0  0  0  0
  140.0780   78.9890  219.5690 C   0  0  0  0  0  0  0  0  0  0  0  0
  138.8780   78.6250  219.3350 O   0  0  0  0  0  0  0  0  0  0  0  0
  140.3770   80.2530  220.1520 N   0  0  0  0  0  0  0  0  0  0  0  0
  141.7130   80.7600  220.4680 C   0  0  0  0  0  0  0  0  0  0  0  0
  141.4380   82.1950  220.9530 C   0  0  0  0  0  0  0  0  0  0  0  0
  140.1210   82.5430  220.2440 C   0  0  0  0  0  0  0  0  0  0  0  0
  139.3640   81.2380  220.5170 C   0  0  0  0  0  0  0  0  0  0  0  0
  141.1150   77.5380  217.9380 C   0  0  0  0  0  0  0  0  0  0  0  0
  142.0880   76.6520  217.5470 C   0  0  0  0  0  0  0  0  0  0  0  0
  139.7750   75.7430  221.9990 C   0  0  0  0  0  0  0  0  0  0  0  0
  138.4080   76.0600  221.9790 C   0  0  0  0  0  0  0  0  0  0  0  0
  137.9550   77.3010  222.3980 C   0  0  0  0  0  0  0  0  0  0  0  0
  138.9080   78.1970  222.8280 C   0  0  0  0  0  0  0  0  0  0  0  0
  138.4520   79.4500  223.2370 C   0  0  0  0  0  0  0  0  0  0  0  0
  139.4090   80.3770  223.6640 C   0  0  0  0  0  0  0  0  0  0  0  0
  138.9520   81.6130  224.0650 F   0  0  0  0  0  0  0  0  0  0  0  0
  140.7490   80.0600  223.6790 C   0  0  0  0  0  0  0  0  0  0  0  0
  141.1990   78.8230  223.2750 C   0  0  0  0  0  0  0  0  0  0  0  0
  140.2510   77.8900  222.8480 C   0  0  0  0  0  0  0  0  0  0  0  0
  140.6640   76.6550  222.4280 N   0  0  0  0  0  0  0  0  0  0  0  0
  140.7320   74.8900  219.5500 H   0  0  0  0  0  0  0  0  0  0  0  0
  140.0240   72.1147  220.2035 H   0  0  0  0  0  0  0  0  0  0  0  0
  141.1586   72.6475  218.8891 H   0  0  0  0  0  0  0  0  0  0  0  0
  144.4815   70.8422  220.8296 H   0  0  0  0  0  0  0  0  0  0  0  0
  144.4993   71.0780  219.0948 H   0  0  0  0  0  0  0  0  0  0  0  0
  146.2789   72.1967  221.0853 H   0  0  0  0  0  0  0  0  0  0  0  0
  146.3259   72.4824  219.3278 H   0  0  0  0  0  0  0  0  0  0  0  0
  145.0224   74.1425  221.5136 H   0  0  0  0  0  0  0  0  0  0  0  0
  145.8182   74.7277  220.0918 H   0  0  0  0  0  0  0  0  0  0  0  0
  143.0772   74.6185  219.8919 H   0  0  0  0  0  0  0  0  0  0  0  0
  145.0289   73.4427  217.9892 H   0  0  0  0  0  0  0  0  0  0  0  0
  143.2865   73.3501  217.6795 H   0  0  0  0  0  0  0  0  0  0  0  0
  144.8010   75.6910  217.2460 H   0  0  0  0  0  0  0  0  0  0  0  0
  143.9208   76.4768  220.3699 H   0  0  0  0  0  0  0  0  0  0  0  0
  142.1688   78.0825  221.0956 H   0  0  0  0  0  0  0  0  0  0  0  0
  142.1858   80.1598  221.2593 H   0  0  0  0  0  0  0  0  0  0  0  0
  142.4040   80.7182  219.6132 H   0  0  0  0  0  0  0  0  0  0  0  0
  141.3212   82.2289  222.0463 H   0  0  0  0  0  0  0  0  0  0  0  0
  142.2545   82.8966  220.7272 H   0  0  0  0  0  0  0  0  0  0  0  0
  139.6237   83.4132  220.6973 H   0  0  0  0  0  0  0  0  0  0  0  0
  140.2098   82.8313  219.1862 H   0  0  0  0  0  0  0  0  0  0  0  0
  139.0768   81.1503  221.5752 H   0  0  0  0  0  0  0  0  0  0  0  0
  138.4147   81.1392  219.9702 H   0  0  0  0  0  0  0  0  0  0  0  0
  140.3214   77.8333  217.2359 H   0  0  0  0  0  0  0  0  0  0  0  0
  142.0526   76.2482  216.5244 H   0  0  0  0  0  0  0  0  0  0  0  0
  137.6842   75.3112  221.6250 H   0  0  0  0  0  0  0  0  0  0  0  0
  136.8855   77.5578  222.3875 H   0  0  0  0  0  0  0  0  0  0  0  0
  137.3808   79.6999  223.2243 H   0  0  0  0  0  0  0  0  0  0  0  0
  141.4758   80.8114  224.0212 H   0  0  0  0  0  0  0  0  0  0  0  0
  142.2711   78.5772  223.2880 H   0  0  0  0  0  0  0  0  0  0  0  0
  1  2  2  0
  2  3  1  0
  3  4  1  0
  4  5  1  0
  5  6  2  0
  5  7  1  0
  7  8  1  0
  8  9  1  0
  9 10  1  0
 10 11  1  0
 11 12  1  0
 12 13  1  0
 13 14  1  0
 14 15  2  0
 15 16  1  0
 16 17  2  0
 17 18  1  0
 18 19  2  0
 18 20  1  0
 20 21  1  0
 21 22  1  0
 22 23  1  0
 23 24  1  0
 17 25  1  0
 25 26  2  0
  2 27  1  0
 27 28  2  0
 28 29  1  0
 29 30  2  0
 30 31  1  0
 31 32  2  0
 32 33  1  0
 32 34  1  0
 34 35  2  0
 35 36  1  0
 36 37  2  0
 11  7  1  0
 26 14  1  0
 37 27  1  0
 24 20  1  0
 36 30  1  0
  3 38  1  0
  4 39  1  0
  4 40  1  0
  8 41  1  0
  8 42  1  0
  9 43  1  0
  9 44  1  0
 10 45  1  0
 10 46  1  0
 11 47  1  1
 12 48  1  0
 12 49  1  0
 13 50  1  0
 15 51  1  0
 16 52  1  0
 21 53  1  0
 21 54  1  0
 22 55  1  0
 22 56  1  0
 23 57  1  0
 23 58  1  0
 24 59  1  0
 24 60  1  0
 25 61  1  0
 26 62  1  0
 28 63  1  0
 29 64  1  0
 31 65  1  0
 34 66  1  0
 35 67  1  0
M  END
>  <smiles>  (46) 
O=C(NCC(=O)N1CCC[C@H]1CNc1ccc(C(=O)N2CCCC2)cc1)c1ccc2cc(F)ccc2n1

>  <score_type>  (46) 
oracle

>  <origin>  (46) 
autodockgpu

>  <m_score__min__energy>  (46) 
-8.9399999999999995

>  <m_primary>  (46) 
energy

>  <rmsd>  (46) 
7.236755775846078

>  <m_score__min__rmsd>  (46) 
7.236755775846078

>  <meeko>  (46) 
{"free_energy": -6.73, "intermolecular_energy": -9.12, "internal_energy": -3.84, "cluster_size": 2, "cluster_id": 20, "rank_in_cluster": 1}

>  <energy>  (46) 
-6.72

>  <cluster_rmsd>  (46) 
0.29

>  <cluster>  (46) 
20

$$$$

     RDKit          3D

 67 71  0  0  0  0  0  0  0  0999 V2000
  140.6630   76.9830  219.3610 O   0  0  0  0  0  0  0  0  0  0  0  0
  141.4370   76.5470  220.2820 C   0  0  0  0  0  0  0  0  0  0  0  0
  141.4220   77.2970  221.4880 N   0  0  0  0  0  0  0  0  0  0  0  0
  140.5380   78.4390  221.5400 C   0  0  0  0  0  0  0  0  0  0  0  0
  139.3630   78.1970  222.4110 C   0  0  0  0  0  0  0  0  0  0  0  0
  139.1210   78.8210  223.4640 O   0  0  0  0  0  0  0  0  0  0  0  0
  138.4600   77.1590  221.9750 N   0  0  0  0  0  0  0  0  0  0  0  0
  137.2920   77.3190  221.1050 C   0  0  0  0  0  0  0  0  0  0  0  0
  136.3600   76.2580  221.5940 C   0  0  0  0  0  0  0  0  0  0  0  0
  137.0590   75.5290  222.7270 C   0  0  0  0  0  0  0  0  0  0  0  0
  138.5160   75.7560  222.3310 C   0  0  1  0  0  0  0  0  0  0  0  0
  138.8650   74.8340  221.2070 C   0  0  0  0  0  0  0  0  0  0  0  0
  138.0740   73.6120  221.4200 N   0  0  0  0  0  0  0  0  0  0  0  0
  138.4810   72.5640  222.2590 C   0  0  0  0  0  0  0  0  0  0  0  0
  139.7910   72.1990  222.4860 C   0  0  0  0  0  0  0  0  0  0  0  0
  140.1020   71.1320  223.3350 C   0  0  0  0  0  0  0  0  0  0  0  0
  139.1060   70.4200  223.9630 C   0  0  0  0  0  0  0  0  0  0  0  0
  139.3530   69.2990  224.8590 C   0  0  0  0  0  0  0  0  0  0  0  0
  138.9380   68.1520  224.4860 O   0  0  0  0  0  0  0  0  0  0  0  0
  140.0310   69.4820  226.0980 N   0  0  0  0  0  0  0  0  0  0  0  0
  140.5540   70.7490  226.6120 C   0  0  0  0  0  0  0  0  0  0  0  0
  141.0630   70.3740  228.0160 C   0  0  0  0  0  0  0  0  0  0  0  0
  140.1950   69.1600  228.3750 C   0  0  0  0  0  0  0  0  0  0  0  0
  140.2980   68.4050  227.0450 C   0  0  0  0  0  0  0  0  0  0  0  0
  137.7920   70.7710  223.7470 C   0  0  0  0  0  0  0  0  0  0  0  0
  137.4980   71.8200  222.9120 C   0  0  0  0  0  0  0  0  0  0  0  0
  142.2550   75.3650  220.0670 C   0  0  0  0  0  0  0  0  0  0  0  0
  141.6390   74.2980  219.3950 C   0  0  0  0  0  0  0  0  0  0  0  0
  142.3300   73.1270  219.1260 C   0  0  0  0  0  0  0  0  0  0  0  0
  143.6380   73.0670  219.5520 C   0  0  0  0  0  0  0  0  0  0  0  0
  144.3280   71.8830  219.2930 C   0  0  0  0  0  0  0  0  0  0  0  0
  145.6550   71.8000  219.7310 C   0  0  0  0  0  0  0  0  0  0  0  0
  146.3300   70.6280  219.4730 F   0  0  0  0  0  0  0  0  0  0  0  0
  146.2530   72.8510  220.3910 C   0  0  0  0  0  0  0  0  0  0  0  0
  145.5710   74.0200  220.6460 C   0  0  0  0  0  0  0  0  0  0  0  0
  144.2460   74.1120  220.2120 C   0  0  0  0  0  0  0  0  0  0  0  0
  143.5350   75.2540  220.4600 N   0  0  0  0  0  0  0  0  0  0  0  0
  142.0420   77.0000  222.2850 H   0  0  0  0  0  0  0  0  0  0  0  0
  141.0968   79.3023  221.9304 H   0  0  0  0  0  0  0  0  0  0  0  0
  140.1702   78.6286  220.5208 H   0  0  0  0  0  0  0  0  0  0  0  0
  136.8478   78.3188  221.2196 H   0  0  0  0  0  0  0  0  0  0  0  0
  137.5322   77.2254  220.0356 H   0  0  0  0  0  0  0  0  0  0  0  0
  135.4281   76.7147  221.9587 H   0  0  0  0  0  0  0  0  0  0  0  0
  136.1038   75.5610  220.7824 H   0  0  0  0  0  0  0  0  0  0  0  0
  136.8274   75.9768  223.7047 H   0  0  0  0  0  0  0  0  0  0  0  0
  136.7707   74.4742  222.8462 H   0  0  0  0  0  0  0  0  0  0  0  0
  139.2907   75.5487  223.0839 H   0  0  0  0  0  0  0  0  0  0  0  0
  138.6052   75.2934  220.2419 H   0  0  0  0  0  0  0  0  0  0  0  0
  139.9430   74.6160  221.1864 H   0  0  0  0  0  0  0  0  0  0  0  0
  137.1550   73.5100  220.9230 H   0  0  0  0  0  0  0  0  0  0  0  0
  140.6024   72.7544  221.9928 H   0  0  0  0  0  0  0  0  0  0  0  0
  141.1543   70.8590  223.5026 H   0  0  0  0  0  0  0  0  0  0  0  0
  141.3744   71.1222  225.9814 H   0  0  0  0  0  0  0  0  0  0  0  0
  139.8031   71.5527  226.6251 H   0  0  0  0  0  0  0  0  0  0  0  0
  142.1297   70.1063  227.9931 H   0  0  0  0  0  0  0  0  0  0  0  0
  140.9864   71.1962  228.7427 H   0  0  0  0  0  0  0  0  0  0  0  0
  140.6150   68.5834  229.2124 H   0  0  0  0  0  0  0  0  0  0  0  0
  139.1746   69.3871  228.7173 H   0  0  0  0  0  0  0  0  0  0  0  0
  141.3007   67.9769  226.8991 H   0  0  0  0  0  0  0  0  0  0  0  0
  139.6206   67.5428  226.9571 H   0  0  0  0  0  0  0  0  0  0  0  0
  136.9824   70.2137  224.2409 H   0  0  0  0  0  0  0  0  0  0  0  0
  136.4427   72.0852  222.7509 H   0  0  0  0  0  0  0  0  0  0  0  0
  140.5904   74.3926  219.0765 H   0  0  0  0  0  0  0  0  0  0  0  0
  141.8564   72.2863  218.5978 H   0  0  0  0  0  0  0  0  0  0  0  0
  143.8478   71.0462  218.7646 H   0  0  0  0  0  0  0  0  0  0  0  0
  147.2977   72.7544  220.7215 H   0  0  0  0  0  0  0  0  0  0  0  0
  146.0541   74.8549  221.1746 H   0  0  0  0  0  0  0  0  0  0  0  0
  1  2  2  0
  2  3  1  0
  3  4  1  0
  4  5  1  0
  5  6  2  0
  5  7  1  0
  7  8  1  0
  8  9  1  0
  9 10  1  0
 10 11  1  0
 11 12  1  0
 12 13  1  0
 13 14  1  0
 14 15  2  0
 15 16  1  0
 16 17  2  0
 17 18  1  0
 18 19  2  0
 18 20  1  0
 20 21  1  0
 21 22  1  0
 22 23  1  0
 23 24  1  0
 17 25  1  0
 25 26  2  0
  2 27  1  0
 27 28  2  0
 28 29  1  0
 29 30  2  0
 30 31  1  0
 31 32  2  0
 32 33  1  0
 32 34  1  0
 34 35  2  0
 35 36  1  0
 36 37  2  0
 11  7  1  0
 26 14  1  0
 37 27  1  0
 24 20  1  0
 36 30  1  0
  3 38  1  0
  4 39  1  0
  4 40  1  0
  8 41  1  0
  8 42  1  0
  9 43  1  0
  9 44  1  0
 10 45  1  0
 10 46  1  0
 11 47  1  1
 12 48  1  0
 12 49  1  0
 13 50  1  0
 15 51  1  0
 16 52  1  0
 21 53  1  0
 21 54  1  0
 22 55  1  0
 22 56  1  0
 23 57  1  0
 23 58  1  0
 24 59  1  0
 24 60  1  0
 25 61  1  0
 26 62  1  0
 28 63  1  0
 29 64  1  0
 31 65  1  0
 34 66  1  0
 35 67  1  0
M  END
>  <smiles>  (47) 
O=C(NCC(=O)N1CCC[C@H]1CNc1ccc(C(=O)N2CCCC2)cc1)c1ccc2cc(F)ccc2n1

>  <score_type>  (47) 
oracle

>  <origin>  (47) 
autodockgpu

>  <m_score__min__energy>  (47) 
-8.9399999999999995

>  <m_primary>  (47) 
energy

>  <rmsd>  (47) 
6.0727743514230825

>  <m_score__min__rmsd>  (47) 
6.0727743514230825

>  <meeko>  (47) 
{"free_energy": -7.97, "intermolecular_energy": -10.35, "internal_energy": -2.3, "cluster_size": 4, "cluster_id": 10, "rank_in_cluster": 1}

>  <energy>  (47) 
-6.55

>  <cluster_rmsd>  (47) 
0.0

>  <cluster>  (47) 
21

$$$$

     RDKit          3D

 67 71  0  0  0  0  0  0  0  0999 V2000
  140.6100   73.3720  222.6460 O   0  0  0  0  0  0  0  0  0  0  0  0
  140.0580   72.2190  222.5990 C   0  0  0  0  0  0  0  0  0  0  0  0
  139.4920   71.8720  221.3440 N   0  0  0  0  0  0  0  0  0  0  0  0
  139.6150   72.8390  220.2780 C   0  0  0  0  0  0  0  0  0  0  0  0
  138.4150   72.8680  219.4080 C   0  0  0  0  0  0  0  0  0  0  0  0
  138.4190   72.6140  218.1860 O   0  0  0  0  0  0  0  0  0  0  0  0
  137.1740   73.2160  220.0590 N   0  0  0  0  0  0  0  0  0  0  0  0
  136.1070   72.2990  220.4640 C   0  0  0  0  0  0  0  0  0  0  0  0
  134.8760   73.1340  220.3270 C   0  0  0  0  0  0  0  0  0  0  0  0
  135.3110   74.5100  219.8540 C   0  0  0  0  0  0  0  0  0  0  0  0
  136.7300   74.5470  220.4180 C   0  0  1  0  0  0  0  0  0  0  0  0
  136.6640   74.8140  221.8880 C   0  0  0  0  0  0  0  0  0  0  0  0
  138.0570   74.9210  222.3470 N   0  0  0  0  0  0  0  0  0  0  0  0
  138.7460   76.1390  222.4450 C   0  0  0  0  0  0  0  0  0  0  0  0
  138.1620   77.3560  222.7290 C   0  0  0  0  0  0  0  0  0  0  0  0
  138.9310   78.5220  222.7990 C   0  0  0  0  0  0  0  0  0  0  0  0
  140.2900   78.4820  222.5820 C   0  0  0  0  0  0  0  0  0  0  0  0
  141.1540   79.6540  222.6370 C   0  0  0  0  0  0  0  0  0  0  0  0
  142.0490   79.6760  223.5450 O   0  0  0  0  0  0  0  0  0  0  0  0
  140.9990   80.7260  221.7130 N   0  0  0  0  0  0  0  0  0  0  0  0
  140.0140   80.7940  220.6320 C   0  0  0  0  0  0  0  0  0  0  0  0
  140.2270   82.2040  220.0510 C   0  0  0  0  0  0  0  0  0  0  0  0
  140.8040   82.9760  221.2460 C   0  0  0  0  0  0  0  0  0  0  0  0
  141.8210   81.9310  221.7220 C   0  0  0  0  0  0  0  0  0  0  0  0
  140.8890   77.2760  222.2970 C   0  0  0  0  0  0  0  0  0  0  0  0
  140.1250   76.1370  222.2310 C   0  0  0  0  0  0  0  0  0  0  0  0
  140.0360   71.3580  223.7700 C   0  0  0  0  0  0  0  0  0  0  0  0
  139.4430   70.0970  223.6010 C   0  0  0  0  0  0  0  0  0  0  0  0
  139.3770   69.1910  224.6480 C   0  0  0  0  0  0  0  0  0  0  0  0
  139.9170   69.5920  225.8490 C   0  0  0  0  0  0  0  0  0  0  0  0
  139.8380   68.6850  226.9060 C   0  0  0  0  0  0  0  0  0  0  0  0
  140.3710   69.0810  228.1390 C   0  0  0  0  0  0  0  0  0  0  0  0
  140.2890   68.1820  229.1770 F   0  0  0  0  0  0  0  0  0  0  0  0
  140.9490   70.3210  228.2970 C   0  0  0  0  0  0  0  0  0  0  0  0
  141.0270   71.2160  227.2540 C   0  0  0  0  0  0  0  0  0  0  0  0
  140.4990   70.8290  226.0190 C   0  0  0  0  0  0  0  0  0  0  0  0
  140.5480   71.6980  224.9640 N   0  0  0  0  0  0  0  0  0  0  0  0
  139.0140   70.9400  221.2360 H   0  0  0  0  0  0  0  0  0  0  0  0
  139.7571   73.8366  220.7191 H   0  0  0  0  0  0  0  0  0  0  0  0
  140.4758   72.5500  219.6571 H   0  0  0  0  0  0  0  0  0  0  0  0
  136.0660   71.4225  219.8006 H   0  0  0  0  0  0  0  0  0  0  0  0
  136.2452   71.8937  221.4772 H   0  0  0  0  0  0  0  0  0  0  0  0
  134.1947   72.6815  219.5914 H   0  0  0  0  0  0  0  0  0  0  0  0
  134.3449   73.2035  221.2878 H   0  0  0  0  0  0  0  0  0  0  0  0
  135.3056   74.5852  218.7566 H   0  0  0  0  0  0  0  0  0  0  0  0
  134.6622   75.3377  220.1765 H   0  0  0  0  0  0  0  0  0  0  0  0
  137.4099   75.3270  220.0448 H   0  0  0  0  0  0  0  0  0  0  0  0
  136.1253   75.7534  222.0814 H   0  0  0  0  0  0  0  0  0  0  0  0
  136.1271   74.0133  222.4178 H   0  0  0  0  0  0  0  0  0  0  0  0
  138.5710   74.0470  222.6180 H   0  0  0  0  0  0  0  0  0  0  0  0
  137.0772   77.4101  222.9027 H   0  0  0  0  0  0  0  0  0  0  0  0
  138.4449   79.4814  223.0299 H   0  0  0  0  0  0  0  0  0  0  0  0
  140.2069   80.0213  219.8732 H   0  0  0  0  0  0  0  0  0  0  0  0
  138.9836   80.6198  220.9754 H   0  0  0  0  0  0  0  0  0  0  0  0
  140.9370   82.1841  219.2111 H   0  0  0  0  0  0  0  0  0  0  0  0
  139.3089   82.6521  219.6432 H   0  0  0  0  0  0  0  0  0  0  0  0
  141.2876   83.9149  220.9384 H   0  0  0  0  0  0  0  0  0  0  0  0
  140.0731   83.3084  221.9979 H   0  0  0  0  0  0  0  0  0  0  0  0
  142.6702   81.8470  221.0279 H   0  0  0  0  0  0  0  0  0  0  0  0
  142.2866   82.1576  222.6925 H   0  0  0  0  0  0  0  0  0  0  0  0
  141.9740   77.2249  222.1230 H   0  0  0  0  0  0  0  0  0  0  0  0
  140.6208   75.1827  221.9997 H   0  0  0  0  0  0  0  0  0  0  0  0
  139.0238   69.8233  222.6216 H   0  0  0  0  0  0  0  0  0  0  0  0
  138.9156   68.2000  224.5251 H   0  0  0  0  0  0  0  0  0  0  0  0
  139.3745   67.6960  226.7759 H   0  0  0  0  0  0  0  0  0  0  0  0
  141.3576   70.6026  229.2787 H   0  0  0  0  0  0  0  0  0  0  0  0
  141.4902   72.2046  227.3882 H   0  0  0  0  0  0  0  0  0  0  0  0
  1  2  2  0
  2  3  1  0
  3  4  1  0
  4  5  1  0
  5  6  2  0
  5  7  1  0
  7  8  1  0
  8  9  1  0
  9 10  1  0
 10 11  1  0
 11 12  1  0
 12 13  1  0
 13 14  1  0
 14 15  2  0
 15 16  1  0
 16 17  2  0
 17 18  1  0
 18 19  2  0
 18 20  1  0
 20 21  1  0
 21 22  1  0
 22 23  1  0
 23 24  1  0
 17 25  1  0
 25 26  2  0
  2 27  1  0
 27 28  2  0
 28 29  1  0
 29 30  2  0
 30 31  1  0
 31 32  2  0
 32 33  1  0
 32 34  1  0
 34 35  2  0
 35 36  1  0
 36 37  2  0
 11  7  1  0
 26 14  1  0
 37 27  1  0
 24 20  1  0
 36 30  1  0
  3 38  1  0
  4 39  1  0
  4 40  1  0
  8 41  1  0
  8 42  1  0
  9 43  1  0
  9 44  1  0
 10 45  1  0
 10 46  1  0
 11 47  1  6
 12 48  1  0
 12 49  1  0
 13 50  1  0
 15 51  1  0
 16 52  1  0
 21 53  1  0
 21 54  1  0
 22 55  1  0
 22 56  1  0
 23 57  1  0
 23 58  1  0
 24 59  1  0
 24 60  1  0
 25 61  1  0
 26 62  1  0
 28 63  1  0
 29 64  1  0
 31 65  1  0
 34 66  1  0
 35 67  1  0
M  END
>  <smiles>  (48) 
O=C(NCC(=O)N1CCC[C@H]1CNc1ccc(C(=O)N2CCCC2)cc1)c1ccc2cc(F)ccc2n1

>  <score_type>  (48) 
oracle

>  <origin>  (48) 
autodockgpu

>  <m_score__min__energy>  (48) 
-8.9399999999999995

>  <m_primary>  (48) 
energy

>  <rmsd>  (48) 
8.710146399967465

>  <m_score__min__rmsd>  (48) 
8.710146399967465

>  <meeko>  (48) 
{"free_energy": -7.87, "intermolecular_energy": -10.26, "internal_energy": -2.71, "cluster_size": 2, "cluster_id": 13, "rank_in_cluster": 1}

>  <energy>  (48) 
-6.5

>  <cluster_rmsd>  (48) 
0.0

>  <cluster>  (48) 
22

$$$$

     RDKit          3D

 67 71  0  0  0  0  0  0  0  0999 V2000
  140.4710   73.4920  222.3230 O   0  0  0  0  0  0  0  0  0  0  0  0
  140.4510   72.2130  222.3190 C   0  0  0  0  0  0  0  0  0  0  0  0
  140.6320   71.6120  221.0440 N   0  0  0  0  0  0  0  0  0  0  0  0
  140.8280   72.5000  219.9220 C   0  0  0  0  0  0  0  0  0  0  0  0
  142.0180   72.1300  219.1180 C   0  0  0  0  0  0  0  0  0  0  0  0
  142.0710   71.1600  218.3360 O   0  0  0  0  0  0  0  0  0  0  0  0
  143.1740   72.9790  219.2810 N   0  0  0  0  0  0  0  0  0  0  0  0
  144.5360   72.7070  218.8170 C   0  0  0  0  0  0  0  0  0  0  0  0
  145.3840   73.3940  219.8380 C   0  0  0  0  0  0  0  0  0  0  0  0
  144.4470   74.0430  220.8410 C   0  0  0  0  0  0  0  0  0  0  0  0
  143.2200   74.2590  219.9580 C   0  0  1  0  0  0  0  0  0  0  0  0
  143.4620   75.4350  219.0660 C   0  0  0  0  0  0  0  0  0  0  0  0
  142.8380   76.5880  219.7330 N   0  0  0  0  0  0  0  0  0  0  0  0
  141.6170   76.5150  220.4210 C   0  0  0  0  0  0  0  0  0  0  0  0
  141.4260   76.8980  221.7320 C   0  0  0  0  0  0  0  0  0  0  0  0
  140.1720   76.7820  222.3380 C   0  0  0  0  0  0  0  0  0  0  0  0
  139.0970   76.2780  221.6400 C   0  0  0  0  0  0  0  0  0  0  0  0
  137.7630   76.1270  222.2050 C   0  0  0  0  0  0  0  0  0  0  0  0
  137.2160   77.1700  222.6940 O   0  0  0  0  0  0  0  0  0  0  0  0
  137.1040   74.8650  222.2070 N   0  0  0  0  0  0  0  0  0  0  0  0
  137.6390   73.6150  221.6640 C   0  0  0  0  0  0  0  0  0  0  0  0
  136.5660   72.5790  222.0490 C   0  0  0  0  0  0  0  0  0  0  0  0
  135.9200   73.2090  223.2900 C   0  0  0  0  0  0  0  0  0  0  0  0
  135.7760   74.6440  222.7680 C   0  0  0  0  0  0  0  0  0  0  0  0
  139.2700   75.8900  220.3310 C   0  0  0  0  0  0  0  0  0  0  0  0
  140.5070   76.0100  219.7450 C   0  0  0  0  0  0  0  0  0  0  0  0
  140.2550   71.4680  223.5510 C   0  0  0  0  0  0  0  0  0  0  0  0
  139.5310   70.2700  223.4440 C   0  0  0  0  0  0  0  0  0  0  0  0
  139.2950   69.4750  224.5540 C   0  0  0  0  0  0  0  0  0  0  0  0
  139.8020   69.9180  225.7540 C   0  0  0  0  0  0  0  0  0  0  0  0
  139.5530   69.1240  226.8730 C   0  0  0  0  0  0  0  0  0  0  0  0
  140.0500   69.5670  228.1040 C   0  0  0  0  0  0  0  0  0  0  0  0
  139.8000   68.7790  229.2040 F   0  0  0  0  0  0  0  0  0  0  0  0
  140.7590   70.7440  228.2020 C   0  0  0  0  0  0  0  0  0  0  0  0
  141.0060   71.5290  227.0970 C   0  0  0  0  0  0  0  0  0  0  0  0
  140.5140   71.0940  225.8630 C   0  0  0  0  0  0  0  0  0  0  0  0
  140.7290   71.8550  224.7470 N   0  0  0  0  0  0  0  0  0  0  0  0
  140.6170   70.5620  220.9650 H   0  0  0  0  0  0  0  0  0  0  0  0
  139.9377   72.4586  219.2773 H   0  0  0  0  0  0  0  0  0  0  0  0
  140.9884   73.5140  220.3170 H   0  0  0  0  0  0  0  0  0  0  0  0
  144.7384   71.6260  218.7979 H   0  0  0  0  0  0  0  0  0  0  0  0
  144.7224   73.0590  217.7916 H   0  0  0  0  0  0  0  0  0  0  0  0
  146.0297   72.6620  220.3452 H   0  0  0  0  0  0  0  0  0  0  0  0
  146.0298   74.1480  219.3641 H   0  0  0  0  0  0  0  0  0  0  0  0
  144.2284   73.3747  221.6869 H   0  0  0  0  0  0  0  0  0  0  0  0
  144.8390   74.9527  221.3193 H   0  0  0  0  0  0  0  0  0  0  0  0
  142.2682   74.5024  220.4529 H   0  0  0  0  0  0  0  0  0  0  0  0
  144.5418   75.6042  218.9418 H   0  0  0  0  0  0  0  0  0  0  0  0
  143.0388   75.2730  218.0637 H   0  0  0  0  0  0  0  0  0  0  0  0
  143.3230   77.5180  219.6980 H   0  0  0  0  0  0  0  0  0  0  0  0
  142.2721   77.3002  222.3085 H   0  0  0  0  0  0  0  0  0  0  0  0
  140.0422   77.0967  223.3840 H   0  0  0  0  0  0  0  0  0  0  0  0
  137.7546   73.6765  220.5718 H   0  0  0  0  0  0  0  0  0  0  0  0
  138.6379   73.3675  222.0524 H   0  0  0  0  0  0  0  0  0  0  0  0
  135.8307   72.4503  221.2410 H   0  0  0  0  0  0  0  0  0  0  0  0
  136.9746   71.5742  222.2317 H   0  0  0  0  0  0  0  0  0  0  0  0
  134.9466   72.7544  223.5265 H   0  0  0  0  0  0  0  0  0  0  0  0
  136.4809   73.0966  224.2295 H   0  0  0  0  0  0  0  0  0  0  0  0
  134.9938   74.7182  221.9982 H   0  0  0  0  0  0  0  0  0  0  0  0
  135.4756   75.3780  223.5302 H   0  0  0  0  0  0  0  0  0  0  0  0
  138.4229   75.4861  219.7572 H   0  0  0  0  0  0  0  0  0  0  0  0
  140.6267   75.6943  218.6981 H   0  0  0  0  0  0  0  0  0  0  0  0
  139.1447   69.9573  222.4627 H   0  0  0  0  0  0  0  0  0  0  0  0
  138.7293   68.5346  224.4795 H   0  0  0  0  0  0  0  0  0  0  0  0
  138.9869   68.1844  226.7912 H   0  0  0  0  0  0  0  0  0  0  0  0
  141.1364   71.0643  229.1844 H   0  0  0  0  0  0  0  0  0  0  0  0
  141.5723   72.4681  227.1831 H   0  0  0  0  0  0  0  0  0  0  0  0
  1  2  2  0
  2  3  1  0
  3  4  1  0
  4  5  1  0
  5  6  2  0
  5  7  1  0
  7  8  1  0
  8  9  1  0
  9 10  1  0
 10 11  1  0
 11 12  1  0
 12 13  1  0
 13 14  1  0
 14 15  2  0
 15 16  1  0
 16 17  2  0
 17 18  1  0
 18 19  2  0
 18 20  1  0
 20 21  1  0
 21 22  1  0
 22 23  1  0
 23 24  1  0
 17 25  1  0
 25 26  2  0
  2 27  1  0
 27 28  2  0
 28 29  1  0
 29 30  2  0
 30 31  1  0
 31 32  2  0
 32 33  1  0
 32 34  1  0
 34 35  2  0
 35 36  1  0
 36 37  2  0
 11  7  1  0
 26 14  1  0
 37 27  1  0
 24 20  1  0
 36 30  1  0
  3 38  1  0
  4 39  1  0
  4 40  1  0
  8 41  1  0
  8 42  1  0
  9 43  1  0
  9 44  1  0
 10 45  1  0
 10 46  1  0
 11 47  1  1
 12 48  1  0
 12 49  1  0
 13 50  1  0
 15 51  1  0
 16 52  1  0
 21 53  1  0
 21 54  1  0
 22 55  1  0
 22 56  1  0
 23 57  1  0
 23 58  1  0
 24 59  1  0
 24 60  1  0
 25 61  1  0
 26 62  1  0
 28 63  1  0
 29 64  1  0
 31 65  1  0
 34 66  1  0
 35 67  1  0
M  END
>  <smiles>  (49) 
O=C(NCC(=O)N1CCC[C@H]1CNc1ccc(C(=O)N2CCCC2)cc1)c1ccc2cc(F)ccc2n1

>  <score_type>  (49) 
oracle

>  <origin>  (49) 
autodockgpu

>  <m_score__min__energy>  (49) 
-8.9399999999999995

>  <m_primary>  (49) 
energy

>  <rmsd>  (49) 
8.888765710415337

>  <m_score__min__rmsd>  (49) 
8.888765710415337

>  <meeko>  (49) 
{"free_energy": -7.98, "intermolecular_energy": -10.37, "internal_energy": -2.91, "cluster_size": 2, "cluster_id": 9, "rank_in_cluster": 1}

>  <energy>  (49) 
-6.11

>  <cluster_rmsd>  (49) 
0.0

>  <cluster>  (49) 
23

$$$$

     RDKit          3D

 67 71  0  0  0  0  0  0  0  0999 V2000
  141.4940   77.4370  217.4540 O   0  0  0  0  0  0  0  0  0  0  0  0
  142.3530   77.2450  218.3830 C   0  0  0  0  0  0  0  0  0  0  0  0
  142.5620   78.3510  219.2490 N   0  0  0  0  0  0  0  0  0  0  0  0
  141.7840   79.5410  218.9930 C   0  0  0  0  0  0  0  0  0  0  0  0
  140.5690   79.6070  219.8400 C   0  0  0  0  0  0  0  0  0  0  0  0
  139.4180   79.3260  219.4500 O   0  0  0  0  0  0  0  0  0  0  0  0
  140.7760   80.0290  221.2050 N   0  0  0  0  0  0  0  0  0  0  0  0
  140.3090   81.2730  221.8210 C   0  0  0  0  0  0  0  0  0  0  0  0
  141.3640   81.5630  222.8380 C   0  0  0  0  0  0  0  0  0  0  0  0
  142.3890   80.4470  222.7570 C   0  0  0  0  0  0  0  0  0  0  0  0
  141.5090   79.3150  222.2300 C   0  0  1  0  0  0  0  0  0  0  0  0
  140.6720   78.7860  223.3510 C   0  0  0  0  0  0  0  0  0  0  0  0
  139.6370   77.9480  222.7270 N   0  0  0  0  0  0  0  0  0  0  0  0
  139.8560   76.6230  222.3220 C   0  0  0  0  0  0  0  0  0  0  0  0
  138.8810   75.6510  222.2420 C   0  0  0  0  0  0  0  0  0  0  0  0
  139.1960   74.3500  221.8340 C   0  0  0  0  0  0  0  0  0  0  0  0
  140.4890   74.0110  221.5040 C   0  0  0  0  0  0  0  0  0  0  0  0
  140.8910   72.6790  221.0720 C   0  0  0  0  0  0  0  0  0  0  0  0
  141.3570   71.8940  221.9620 O   0  0  0  0  0  0  0  0  0  0  0  0
  140.7660   72.2790  219.7110 N   0  0  0  0  0  0  0  0  0  0  0  0
  140.2370   73.0960  218.6190 C   0  0  0  0  0  0  0  0  0  0  0  0
  140.4530   72.2090  217.3790 C   0  0  0  0  0  0  0  0  0  0  0  0
  141.6380   71.3280  217.8000 C   0  0  0  0  0  0  0  0  0  0  0  0
  141.1630   70.9660  219.2120 C   0  0  0  0  0  0  0  0  0  0  0  0
  141.4740   74.9690  221.5780 C   0  0  0  0  0  0  0  0  0  0  0  0
  141.1540   76.2430  221.9800 C   0  0  0  0  0  0  0  0  0  0  0  0
  143.0400   75.9700  218.5070 C   0  0  0  0  0  0  0  0  0  0  0  0
  143.0060   75.1350  217.3800 C   0  0  0  0  0  0  0  0  0  0  0  0
  143.6380   73.9010  217.3840 C   0  0  0  0  0  0  0  0  0  0  0  0
  144.2920   73.5430  218.5410 C   0  0  0  0  0  0  0  0  0  0  0  0
  144.9170   72.2960  218.5490 C   0  0  0  0  0  0  0  0  0  0  0  0
  145.5750   71.9110  219.7220 C   0  0  0  0  0  0  0  0  0  0  0  0
  146.1890   70.6780  219.7230 F   0  0  0  0  0  0  0  0  0  0  0  0
  145.6030   72.7350  220.8250 C   0  0  0  0  0  0  0  0  0  0  0  0
  144.9860   73.9670  220.8170 C   0  0  0  0  0  0  0  0  0  0  0  0
  144.3270   74.3610  219.6500 C   0  0  0  0  0  0  0  0  0  0  0  0
  143.6930   75.5720  219.6110 N   0  0  0  0  0  0  0  0  0  0  0  0
  143.2620   78.2650  220.0310 H   0  0  0  0  0  0  0  0  0  0  0  0
  142.4078   80.4234  219.1985 H   0  0  0  0  0  0  0  0  0  0  0  0
  141.4623   79.5152  217.9414 H   0  0  0  0  0  0  0  0  0  0  0  0
  140.2436   82.0815  221.0780 H   0  0  0  0  0  0  0  0  0  0  0  0
  139.3014   81.1898  222.2543 H   0  0  0  0  0  0  0  0  0  0  0  0
  141.8418   82.5294  222.6194 H   0  0  0  0  0  0  0  0  0  0  0  0
  140.9278   81.6182  223.8463 H   0  0  0  0  0  0  0  0  0  0  0  0
  143.2029   80.6904  222.0581 H   0  0  0  0  0  0  0  0  0  0  0  0
  142.9099   80.2275  223.7007 H   0  0  0  0  0  0  0  0  0  0  0  0
  142.0082   78.4176  221.8357 H   0  0  0  0  0  0  0  0  0  0  0  0
  141.2877   78.1851  224.0365 H   0  0  0  0  0  0  0  0  0  0  0  0
  140.2274   79.6017  223.9401 H   0  0  0  0  0  0  0  0  0  0  0  0
  138.6810   78.3540  222.5720 H   0  0  0  0  0  0  0  0  0  0  0  0
  137.8420   75.9016  222.5023 H   0  0  0  0  0  0  0  0  0  0  0  0
  138.4025   73.5904  221.7763 H   0  0  0  0  0  0  0  0  0  0  0  0
  139.1687   73.3108  218.7690 H   0  0  0  0  0  0  0  0  0  0  0  0
  140.7273   74.0773  218.5380 H   0  0  0  0  0  0  0  0  0  0  0  0
  139.5618   71.6005  217.1659 H   0  0  0  0  0  0  0  0  0  0  0  0
  140.6388   72.7816  216.4584 H   0  0  0  0  0  0  0  0  0  0  0  0
  141.7433   70.4409  217.1582 H   0  0  0  0  0  0  0  0  0  0  0  0
  142.6297   71.7996  217.7363 H   0  0  0  0  0  0  0  0  0  0  0  0
  140.3129   70.2683  219.1869 H   0  0  0  0  0  0  0  0  0  0  0  0
  141.9156   70.4526  219.8284 H   0  0  0  0  0  0  0  0  0  0  0  0
  142.5121   74.7160  221.3167 H   0  0  0  0  0  0  0  0  0  0  0  0
  141.9549   76.9951  222.0345 H   0  0  0  0  0  0  0  0  0  0  0  0
  142.4691   75.4648  216.4784 H   0  0  0  0  0  0  0  0  0  0  0  0
  143.6177   73.2400  216.5050 H   0  0  0  0  0  0  0  0  0  0  0  0
  144.8934   71.6401  217.6663 H   0  0  0  0  0  0  0  0  0  0  0  0
  146.1292   72.4025  221.7319 H   0  0  0  0  0  0  0  0  0  0  0  0
  145.0115   74.6199  221.7019 H   0  0  0  0  0  0  0  0  0  0  0  0
  1  2  2  0
  2  3  1  0
  3  4  1  0
  4  5  1  0
  5  6  2  0
  5  7  1  0
  7  8  1  0
  8  9  1  0
  9 10  1  0
 10 11  1  0
 11 12  1  0
 12 13  1  0
 13 14  1  0
 14 15  2  0
 15 16  1  0
 16 17  2  0
 17 18  1  0
 18 19  2  0
 18 20  1  0
 20 21  1  0
 21 22  1  0
 22 23  1  0
 23 24  1  0
 17 25  1  0
 25 26  2  0
  2 27  1  0
 27 28  2  0
 28 29  1  0
 29 30  2  0
 30 31  1  0
 31 32  2  0
 32 33  1  0
 32 34  1  0
 34 35  2  0
 35 36  1  0
 36 37  2  0
 11  7  1  0
 26 14  1  0
 37 27  1  0
 24 20  1  0
 36 30  1  0
  3 38  1  0
  4 39  1  0
  4 40  1  0
  8 41  1  0
  8 42  1  0
  9 43  1  0
  9 44  1  0
 10 45  1  0
 10 46  1  0
 11 47  1  6
 12 48  1  0
 12 49  1  0
 13 50  1  0
 15 51  1  0
 16 52  1  0
 21 53  1  0
 21 54  1  0
 22 55  1  0
 22 56  1  0
 23 57  1  0
 23 58  1  0
 24 59  1  0
 24 60  1  0
 25 61  1  0
 26 62  1  0
 28 63  1  0
 29 64  1  0
 31 65  1  0
 34 66  1  0
 35 67  1  0
M  END
>  <smiles>  (50) 
O=C(NCC(=O)N1CCC[C@H]1CNc1ccc(C(=O)N2CCCC2)cc1)c1ccc2cc(F)ccc2n1

>  <score_type>  (50) 
oracle

>  <origin>  (50) 
autodockgpu

>  <m_score__min__energy>  (50) 
-8.9399999999999995

>  <m_primary>  (50) 
energy

>  <rmsd>  (50) 
7.41956649358307

>  <m_score__min__rmsd>  (50) 
7.41956649358307

>  <meeko>  (50) 
{"free_energy": -6.11, "intermolecular_energy": -8.49, "internal_energy": -4.03, "cluster_size": 2, "cluster_id": 23, "rank_in_cluster": 1}

>  <energy>  (50) 
-5.82

>  <cluster_rmsd>  (50) 
1.92

>  <cluster>  (50) 
23

$$$$
