@<TRIPOS>MOLECULE
*****
 62 65 0 0 0
SMALL
GASTEIGER

@<TRIPOS>ATOM
      1 C         140.5700   84.1080  221.1530 C.3     1  UNL1       -0.0397
      2 C         140.6180   82.6840  221.5930 C.ar    1  UNL1       -0.0504
      3 C         139.4240   82.0110  221.6630 C.ar    1  UNL1       -0.0585
      4 C         139.4570   80.6970  222.0670 C.ar    1  UNL1       -0.0566
      5 C         140.6450   80.0550  222.3960 C.ar    1  UNL1       -0.0275
      6 C         140.5630   78.6380  222.8180 C.3     1  UNL1        0.0456
      7 C         139.1240   78.1430  222.7190 C.3     1  UNL1       -0.0425
      8 N         141.4330   77.7620  222.0610 N.am    1  UNL1       -0.3072
      9 C         141.4430   77.7910  220.6520 C.2     1  UNL1        0.2341
     10 O         140.7230   78.5520  219.9520 O.2     1  UNL1       -0.2738
     11 C         142.3520   76.8730  219.9380 C.3     1  UNL1        0.1047
     12 C         142.8520   77.3860  218.6310 C.3     1  UNL1        0.0018
     13 C         142.8010   76.1380  217.7660 C.3     1  UNL1        0.0731
     14 O         143.7730   75.2040  218.1170 O.3     1  UNL1       -0.3902
     15 C         141.4480   75.6090  218.2320 C.3     1  UNL1        0.0416
     16 N         141.7240   75.5840  219.6770 N.am    1  UNL1       -0.2861
     17 C         141.4480   74.5510  220.6030 C.2     1  UNL1        0.2334
     18 O         142.4070   73.8570  221.0350 O.2     1  UNL1       -0.2739
     19 C         140.0410   74.3450  221.0100 C.3     1  UNL1        0.0887
     20 N         139.9030   73.4890  222.1560 N.am    1  UNL1       -0.3015
     21 C         140.1850   72.1010  222.1030 C.2     1  UNL1        0.2628
     22 O         140.5730   71.5800  221.0140 O.2     1  UNL1       -0.2685
     23 C         140.0270   71.2650  223.3100 C.ar    1  UNL1        0.1260
     24 C         139.4330   70.0290  223.1920 C.ar    1  UNL1       -0.0306
     25 C         139.2970   69.2620  224.3490 C.ar    1  UNL1       -0.0503
     26 C         139.7440   69.7250  225.5730 C.ar    1  UNL1        0.0031
     27 C         139.6230   68.9890  226.7360 C.ar    1  UNL1       -0.0173
     28 C         140.0830   69.4910  227.9310 C.ar    1  UNL1        0.1241
     29 F         139.9800   68.7910  229.0930 F       1  UNL1       -0.2055
     30 C         140.6660   70.7370  227.9610 C.ar    1  UNL1       -0.0244
     31 C         140.8020   71.5050  226.8030 C.ar    1  UNL1       -0.0330
     32 C         140.3230   70.9600  225.6090 C.ar    1  UNL1        0.0720
     33 N         140.4650   71.7160  224.5160 N.ar    1  UNL1       -0.2421
     34 C         141.8280   80.7430  222.3200 C.ar    1  UNL1       -0.0566
     35 C         141.8010   82.0650  221.9150 C.ar    1  UNL1       -0.0585
     36 H         140.5479   84.7640  222.0357 H       1  UNL1        0.0278
     37 H         141.4610   84.3355  220.5494 H       1  UNL1        0.0278
     38 H         139.6657   84.2750  220.5494 H       1  UNL1        0.0278
     39 H         138.4753   82.5046  221.4054 H       1  UNL1        0.0620
     40 H         138.5130   80.1361  222.1319 H       1  UNL1        0.0621
     41 H         140.9071   78.6052  223.8623 H       1  UNL1        0.0545
     42 H         138.7143   78.0021  223.7301 H       1  UNL1        0.0251
     43 H         138.5177   78.8842  222.1777 H       1  UNL1        0.0251
     44 H         139.1020   77.1856  222.1777 H       1  UNL1        0.0251
     45 H         142.0400   77.1210  222.5970 H       1  UNL1        0.1493
     46 H         143.2056   76.7750  220.6248 H       1  UNL1        0.0597
     47 H         142.1970   78.1755  218.2338 H       1  UNL1        0.0313
     48 H         143.8484   77.8488  218.6863 H       1  UNL1        0.0313
     49 H         142.9492   76.3246  216.6921 H       1  UNL1        0.0610
     50 H         144.6850   75.4570  217.8480 H       1  UNL1        0.2098
     51 H         140.6237   76.2913  217.9771 H       1  UNL1        0.0490
     52 H         141.1224   74.6575  217.7864 H       1  UNL1        0.0490
     53 H         139.5994   75.3236  221.2493 H       1  UNL1        0.0558
     54 H         139.5265   73.8537  220.1710 H       1  UNL1        0.0558
     55 H         139.5820   73.8560  223.0990 H       1  UNL1        0.1496
     56 H         139.0778   69.6589  222.2189 H       1  UNL1        0.0641
     57 H         138.8253   68.2702  224.2867 H       1  UNL1        0.0625
     58 H         139.1552   67.9939  226.7059 H       1  UNL1        0.0653
     59 H         141.0328   71.1366  228.9179 H       1  UNL1        0.0647
     60 H         141.2684   72.5009  226.8297 H       1  UNL1        0.0640
     61 H         142.7794   80.2537  222.5759 H       1  UNL1        0.0621
     62 H         142.7425   82.6301  221.8496 H       1  UNL1        0.0620
@<TRIPOS>BOND
     1     1     2    1
     2     2     3   ar
     3     3     4   ar
     4     4     5   ar
     5     5     6    1
     6     6     7    1
     7     6     8    1
     8     8     9   am
     9     9    10    2
    10     9    11    1
    11    11    12    1
    12    12    13    1
    13    13    14    1
    14    13    15    1
    15    15    16    1
    16    16    17   am
    17    17    18    2
    18    17    19    1
    19    19    20    1
    20    20    21   am
    21    21    22    2
    22    21    23    1
    23    23    24   ar
    24    24    25   ar
    25    25    26   ar
    26    26    27   ar
    27    27    28   ar
    28    28    29    1
    29    28    30   ar
    30    30    31   ar
    31    31    32   ar
    32    32    33   ar
    33     5    34   ar
    34    34    35   ar
    35    35     2   ar
    36    16    11    1
    37    33    23   ar
    38    32    26   ar
    39     1    36    1
    40     1    37    1
    41     1    38    1
    42     3    39    1
    43     4    40    1
    44     6    41    1
    45     7    42    1
    46     7    43    1
    47     7    44    1
    48     8    45    1
    49    11    46    1
    50    12    47    1
    51    12    48    1
    52    13    49    1
    53    14    50    1
    54    15    51    1
    55    15    52    1
    56    19    53    1
    57    19    54    1
    58    20    55    1
    59    24    56    1
    60    25    57    1
    61    27    58    1
    62    30    59    1
    63    31    60    1
    64    34    61    1
    65    35    62    1
