@<TRIPOS>MOLECULE
*****
 60 63 0 0 0
SMALL
GASTEIGER

@<TRIPOS>ATOM
      1 C         139.9380   73.2200  218.6130 C.3     1  UNL1        0.0032
      2 N         140.6180   74.1560  219.4880 N.am    1  UNL1       -0.3017
      3 C         140.6100   73.9160  220.9190 C.3     1  UNL1        0.0300
      4 C         139.3180   73.3850  221.4540 C.3     1  UNL1        0.0277
      5 N         139.5430   72.7130  222.7030 N.am    1  UNL1       -0.3086
      6 C         139.3540   71.2870  222.7110 C.2     1  UNL1        0.2625
      7 O         139.0080   70.7830  221.6110 O.2     1  UNL1       -0.2685
      8 C         139.5530   70.4890  223.9150 C.ar    1  UNL1        0.1260
      9 C         139.1200   69.1820  223.8840 C.ar    1  UNL1       -0.0306
     10 C         139.2780   68.3660  224.9950 C.ar    1  UNL1       -0.0503
     11 C         139.8720   68.9130  226.0950 C.ar    1  UNL1        0.0031
     12 C         140.0370   68.1160  227.2090 C.ar    1  UNL1       -0.0173
     13 C         140.6270   68.6460  228.3190 C.ar    1  UNL1        0.1241
     14 F         140.8080   67.8840  229.4430 F       1  UNL1       -0.2055
     15 C         141.0610   69.9590  228.3480 C.ar    1  UNL1       -0.0244
     16 C         140.9090   70.7870  227.2430 C.ar    1  UNL1       -0.0330
     17 C         140.3110   70.2310  226.1370 C.ar    1  UNL1        0.0720
     18 N         140.1310   70.9800  225.0240 N.ar    1  UNL1       -0.2421
     19 C         141.2890   75.3200  219.0180 C.2     1  UNL1        0.2344
     20 O         141.5450   75.4100  217.7540 O.2     1  UNL1       -0.2738
     21 C         141.7250   76.4480  219.8310 C.3     1  UNL1        0.1104
     22 C         142.8310   77.2630  219.1900 C.3     1  UNL1        0.0002
     23 C         142.0410   78.4160  218.5540 C.3     1  UNL1        0.0715
     24 O         142.8820   79.5200  218.3840 O.3     1  UNL1       -0.3904
     25 C         141.0220   78.6680  219.6370 C.3     1  UNL1        0.0474
     26 N         140.7540   77.3980  220.2380 N.3     1  UNL1       -0.1622
     27 S         140.5280   77.5000  221.9350 S.O2    1  UNL1        0.0616
     28 O         139.0390   77.5360  222.1980 O.2     1  UNL1       -0.1528
     29 O         141.0820   76.3490  222.6780 O.2     1  UNL1       -0.1528
     30 C         141.1960   78.9630  222.6260 C.ar    1  UNL1        0.1055
     31 C         140.4120   79.9430  223.2080 C.ar    1  UNL1       -0.0353
     32 C         140.9370   81.0960  223.7540 C.ar    1  UNL1       -0.0599
     33 C         142.3010   81.2890  223.7220 C.ar    1  UNL1       -0.0616
     34 C         143.0780   80.3120  223.1420 C.ar    1  UNL1       -0.0599
     35 C         142.5770   79.1630  222.5960 C.ar    1  UNL1       -0.0353
     36 H         139.3984   72.4773  219.2190 H       1  UNL1        0.0428
     37 H         139.2233   73.7644  217.9782 H       1  UNL1        0.0428
     38 H         140.6766   72.7086  217.9782 H       1  UNL1        0.0428
     39 H         141.4018   73.1880  221.1492 H       1  UNL1        0.0480
     40 H         140.7688   74.8925  221.3998 H       1  UNL1        0.0480
     41 H         138.6180   74.2191  221.6100 H       1  UNL1        0.0477
     42 H         138.8937   72.6721  220.7316 H       1  UNL1        0.0477
     43 H         139.8290   73.1450  223.5980 H       1  UNL1        0.1491
     44 H         138.6468   68.7833  222.9745 H       1  UNL1        0.0641
     45 H         138.9380   67.3199  224.9893 H       1  UNL1        0.0625
     46 H         139.6981   67.0695  227.2023 H       1  UNL1        0.0653
     47 H         141.5336   70.3534  229.2597 H       1  UNL1        0.0647
     48 H         141.2494   71.8330  227.2525 H       1  UNL1        0.0640
     49 H         142.0517   75.8914  220.7218 H       1  UNL1        0.0576
     50 H         143.5439   77.6324  219.9419 H       1  UNL1        0.0311
     51 H         143.4461   76.6962  218.4756 H       1  UNL1        0.0311
     52 H         141.6091   78.2141  217.5627 H       1  UNL1        0.0607
     53 H         143.3330   79.4290  217.5020 H       1  UNL1        0.2098
     54 H         141.4258   79.3660  220.3851 H       1  UNL1        0.0470
     55 H         140.1058   79.1183  219.2275 H       1  UNL1        0.0470
     56 H         139.3222   79.7965  223.2367 H       1  UNL1        0.0637
     57 H         140.2769   81.8498  224.2080 H       1  UNL1        0.0618
     58 H         142.7551   82.1963  224.1470 H       1  UNL1        0.0618
     59 H         144.1670   80.4648  223.1162 H       1  UNL1        0.0618
     60 H         143.2454   78.4151  222.1445 H       1  UNL1        0.0637
@<TRIPOS>BOND
     1     1     2    1
     2     2     3    1
     3     3     4    1
     4     4     5    1
     5     5     6   am
     6     6     7    2
     7     6     8    1
     8     8     9   ar
     9     9    10   ar
    10    10    11   ar
    11    11    12   ar
    12    12    13   ar
    13    13    14    1
    14    13    15   ar
    15    15    16   ar
    16    16    17   ar
    17    17    18   ar
    18     2    19   am
    19    19    20    2
    20    19    21    1
    21    21    22    1
    22    22    23    1
    23    23    24    1
    24    23    25    1
    25    25    26    1
    26    26    27    1
    27    27    28    2
    28    27    29    2
    29    27    30    1
    30    30    31   ar
    31    31    32   ar
    32    32    33   ar
    33    33    34   ar
    34    34    35   ar
    35    18     8   ar
    36    26    21    1
    37    35    30   ar
    38    17    11   ar
    39     1    36    1
    40     1    37    1
    41     1    38    1
    42     3    39    1
    43     3    40    1
    44     4    41    1
    45     4    42    1
    46     5    43    1
    47     9    44    1
    48    10    45    1
    49    12    46    1
    50    15    47    1
    51    16    48    1
    52    21    49    1
    53    22    50    1
    54    22    51    1
    55    23    52    1
    56    24    53    1
    57    25    54    1
    58    25    55    1
    59    31    56    1
    60    32    57    1
    61    33    58    1
    62    34    59    1
    63    35    60    1
