
 57 61  0  0  0  0  0  0  0  0999 V2000
  142.8420   74.1870  220.0510 O   0  0  0  0  0  0  0  0  0  0  0  0
  141.7960   74.1420  220.7700 C   0  0  0  0  0  0  0  0  0  0  0  0
  141.2600   72.8030  221.0890 C   0  0  0  0  0  0  0  0  0  0  0  0
  140.0470   72.9540  221.9290 C   0  0  0  0  0  0  0  0  0  0  0  0
  139.3400   71.7330  222.3740 C   0  0  0  0  0  0  0  0  0  0  0  0
  138.1690   71.3630  221.7090 C   0  0  0  0  0  0  0  0  0  0  0  0
  137.4800   70.2250  222.1100 C   0  0  0  0  0  0  0  0  0  0  0  0
  137.9510   69.4680  223.1590 C   0  0  0  0  0  0  0  0  0  0  0  0
  139.1190   69.8360  223.8260 C   0  0  0  0  0  0  0  0  0  0  0  0
  139.5420   68.9770  224.9170 C   0  0  0  0  0  0  0  0  0  0  0  0
  139.2310   67.7440  224.8120 O   0  0  0  0  0  0  0  0  0  0  0  0
  140.2650   69.4550  226.0550 N   0  0  0  0  0  0  0  0  0  0  0  0
  140.6880   70.8170  226.3170 C   0  0  0  0  0  0  0  0  0  0  0  0
  140.8660   70.8540  227.8040 C   0  0  0  0  0  0  0  0  0  0  0  0
  140.4390   69.5100  228.3480 C   0  0  0  0  0  0  0  0  0  0  0  0
  140.6970   68.6050  227.1510 C   0  0  0  0  0  0  0  0  0  0  0  0
  139.8000   70.9660  223.4240 C   0  0  0  0  0  0  0  0  0  0  0  0
  139.5560   74.0700  222.3080 N   0  0  0  0  0  0  0  0  0  0  0  0
  140.0740   75.3540  222.0010 C   0  0  0  0  0  0  0  0  0  0  0  0
  139.4900   76.5110  222.4510 C   0  0  0  0  0  0  0  0  0  0  0  0
  140.0330   77.7370  222.1290 C   0  0  0  0  0  0  0  0  0  0  0  0
  141.1780   77.8070  221.3460 C   0  0  0  0  0  0  0  0  0  0  0  0
  141.7310   79.0800  221.0260 N   0  0  0  0  0  0  0  0  0  0  0  0
  142.2260   80.0080  222.0230 C   0  0  0  0  0  0  0  0  0  0  0  0
  141.4730   81.3070  221.8440 C   0  0  0  0  0  0  0  0  0  0  0  0
  141.4800   81.7470  220.4150 C   0  0  0  0  0  0  0  0  0  0  0  0
  140.9430   80.6990  219.4680 C   0  0  0  0  0  0  0  0  0  0  0  0
  141.7900   79.4500  219.6230 C   0  0  0  0  0  0  0  0  0  0  0  0
  141.7650   76.6270  220.8920 C   0  0  0  0  0  0  0  0  0  0  0  0
  141.2130   75.3930  221.2200 C   0  0  0  0  0  0  0  0  0  0  0  0
  141.0002   72.2786  220.1576 H   0  0  0  0  0  0  0  0  0  0  0  0
  142.0177   72.2202  221.6332 H   0  0  0  0  0  0  0  0  0  0  0  0
  137.7939   71.9697  220.8716 H   0  0  0  0  0  0  0  0  0  0  0  0
  136.5576   69.9287  221.5890 H   0  0  0  0  0  0  0  0  0  0  0  0
  137.4027   68.5675  223.4729 H   0  0  0  0  0  0  0  0  0  0  0  0
  141.6348   71.0394  225.8030 H   0  0  0  0  0  0  0  0  0  0  0  0
  139.9664   71.5644  225.9554 H   0  0  0  0  0  0  0  0  0  0  0  0
  141.9215   71.0407  228.0511 H   0  0  0  0  0  0  0  0  0  0  0  0
  140.2615   71.6598  228.2459 H   0  0  0  0  0  0  0  0  0  0  0  0
  141.0489   69.2146  229.2145 H   0  0  0  0  0  0  0  0  0  0  0  0
  139.4030   69.4830  228.7169 H   0  0  0  0  0  0  0  0  0  0  0  0
  141.7625   68.3458  227.0641 H   0  0  0  0  0  0  0  0  0  0  0  0
  140.1811   67.6347  227.1997 H   0  0  0  0  0  0  0  0  0  0  0  0
  140.7219   71.2593  223.9475 H   0  0  0  0  0  0  0  0  0  0  0  0
  138.5836   76.4604  223.0721 H   0  0  0  0  0  0  0  0  0  0  0  0
  139.5588   78.6605  222.4927 H   0  0  0  0  0  0  0  0  0  0  0  0
  142.0486   79.6064  223.0316 H   0  0  0  0  0  0  0  0  0  0  0  0
  143.3080   80.1663  221.9035 H   0  0  0  0  0  0  0  0  0  0  0  0
  140.4321   81.1656  222.1702 H   0  0  0  0  0  0  0  0  0  0  0  0
  141.9685   82.0814  222.4480 H   0  0  0  0  0  0  0  0  0  0  0  0
  140.8600   82.6511  220.3243 H   0  0  0  0  0  0  0  0  0  0  0  0
  142.5271   81.9351  220.1355 H   0  0  0  0  0  0  0  0  0  0  0  0
  139.8955   80.4730  219.7162 H   0  0  0  0  0  0  0  0  0  0  0  0
  140.9849   81.0632  218.4309 H   0  0  0  0  0  0  0  0  0  0  0  0
  141.3871   78.6384  218.9992 H   0  0  0  0  0  0  0  0  0  0  0  0
  142.8269   79.6318  219.3040 H   0  0  0  0  0  0  0  0  0  0  0  0
  142.6711   76.6719  220.2700 H   0  0  0  0  0  0  0  0  0  0  0  0
  1  2  2  0
  2  3  1  0
  3  4  1  0
  4  5  1  0
  5  6  2  0
  6  7  1  0
  7  8  2  0
  8  9  1  0
  9 10  1  0
 10 11  2  0
 10 12  1  0
 12 13  1  0
 13 14  1  0
 14 15  1  0
 15 16  1  0
  9 17  2  0
  4 18  2  0
 18 19  1  0
 19 20  2  0
 20 21  1  0
 21 22  2  0
 22 23  1  0
 23 24  1  0
 24 25  1  0
 25 26  1  0
 26 27  1  0
 27 28  1  0
 22 29  1  0
 29 30  2  0
 30  2  1  0
 17  5  1  0
 30 19  1  0
 16 12  1  0
 28 23  1  0
  3 31  1  0
  3 32  1  0
  6 33  1  0
  7 34  1  0
  8 35  1  0
 13 36  1  0
 13 37  1  0
 14 38  1  0
 14 39  1  0
 15 40  1  0
 15 41  1  0
 16 42  1  0
 16 43  1  0
 17 44  1  0
 20 45  1  0
 21 46  1  0
 24 47  1  0
 24 48  1  0
 25 49  1  0
 25 50  1  0
 26 51  1  0
 26 52  1  0
 27 53  1  0
 27 54  1  0
 28 55  1  0
 28 56  1  0
 29 57  1  0
M  END
