
 53 57  0  0  0  0  0  0  0  0999 V2000
  136.1200   71.7710  220.4040 O   0  0  0  0  0  0  0  0  0  0  0  0
  137.2210   72.2110  221.1470 C   0  0  0  0  0  0  0  0  0  0  0  0
  137.5890   73.5140  220.9960 N   0  0  0  0  0  0  0  0  0  0  0  0
  138.6480   74.0180  221.6830 C   0  0  0  0  0  0  0  0  0  0  0  0
  139.0530   75.3730  221.5440 N   0  0  0  0  0  0  0  0  0  0  0  0
  140.2730   75.7780  220.8730 C   0  0  0  0  0  0  0  0  0  0  0  0
  141.0480   76.5680  221.9370 C   0  0  0  0  0  0  0  0  0  0  0  0
  140.2710   77.7610  222.1950 N   0  0  0  0  0  0  0  0  0  0  0  0
  140.9160   78.9130  222.7290 C   0  0  0  0  0  0  0  0  0  0  0  0
  140.2300   79.9550  223.3260 C   0  0  0  0  0  0  0  0  0  0  0  0
  140.8660   81.0640  223.8440 C   0  0  0  0  0  0  0  0  0  0  0  0
  142.2250   81.1850  223.7880 C   0  0  0  0  0  0  0  0  0  0  0  0
  142.9350   80.1610  223.1980 C   0  0  0  0  0  0  0  0  0  0  0  0
  142.2890   79.0370  222.6730 C   0  0  0  0  0  0  0  0  0  0  0  0
  138.8440   77.7890  221.9160 C   0  0  0  0  0  0  0  0  0  0  0  0
  138.2210   76.4210  222.0930 C   0  0  0  0  0  0  0  0  0  0  0  0
  139.3060   73.1820  222.5080 N   0  0  0  0  0  0  0  0  0  0  0  0
  138.9430   71.8880  222.6600 C   0  0  0  0  0  0  0  0  0  0  0  0
  139.6890   71.0670  223.5510 N   0  0  0  0  0  0  0  0  0  0  0  0
  139.4760   69.6510  223.5850 C   0  0  0  0  0  0  0  0  0  0  0  0
  138.8240   69.3260  224.9060 C   0  0  0  0  0  0  0  0  0  0  0  0
  139.5820   69.9860  226.0010 C   0  0  0  0  0  0  0  0  0  0  0  0
  139.4140   69.4990  227.2910 C   0  0  0  0  0  0  0  0  0  0  0  0
  140.0900   70.0720  228.3410 C   0  0  0  0  0  0  0  0  0  0  0  0
  140.9540   71.1410  228.1650 C   0  0  0  0  0  0  0  0  0  0  0  0
  141.1210   71.6290  226.8670 C   0  0  0  0  0  0  0  0  0  0  0  0
  140.4350   71.0490  225.7980 C   0  0  0  0  0  0  0  0  0  0  0  0
  140.6750   71.6370  224.4400 C   0  0  0  0  0  0  0  0  0  0  0  0
  137.8920   71.3880  221.9790 N   0  0  0  0  0  0  0  0  0  0  0  0
  135.3510   72.4040  220.1470 H   0  0  0  0  0  0  0  0  0  0  0  0
  140.8474   74.8990  220.5452 H   0  0  0  0  0  0  0  0  0  0  0  0
  140.0772   76.3725  219.9684 H   0  0  0  0  0  0  0  0  0  0  0  0
  141.1498   75.9723  222.8561 H   0  0  0  0  0  0  0  0  0  0  0  0
  142.0633   76.8157  221.5938 H   0  0  0  0  0  0  0  0  0  0  0  0
  139.1334   79.8971  223.3903 H   0  0  0  0  0  0  0  0  0  0  0  0
  140.2696   81.8628  224.3091 H   0  0  0  0  0  0  0  0  0  0  0  0
  142.7353   82.0684  224.1992 H   0  0  0  0  0  0  0  0  0  0  0  0
  144.0313   80.2293  223.1390 H   0  0  0  0  0  0  0  0  0  0  0  0
  142.8856   78.2385  222.2077 H   0  0  0  0  0  0  0  0  0  0  0  0
  138.3582   78.4956  222.6050 H   0  0  0  0  0  0  0  0  0  0  0  0
  138.7010   78.1026  220.8714 H   0  0  0  0  0  0  0  0  0  0  0  0
  138.0752   76.2331  223.1670 H   0  0  0  0  0  0  0  0  0  0  0  0
  137.2619   76.4115  221.5544 H   0  0  0  0  0  0  0  0  0  0  0  0
  138.8182   69.3495  222.7565 H   0  0  0  0  0  0  0  0  0  0  0  0
  140.4287   69.1116  223.4783 H   0  0  0  0  0  0  0  0  0  0  0  0
  137.7867   69.6920  224.9042 H   0  0  0  0  0  0  0  0  0  0  0  0
  138.8249   68.2369  225.0604 H   0  0  0  0  0  0  0  0  0  0  0  0
  138.7371   68.6512  227.4726 H   0  0  0  0  0  0  0  0  0  0  0  0
  139.9406   69.6693  229.3537 H   0  0  0  0  0  0  0  0  0  0  0  0
  141.4884   71.5886  229.0159 H   0  0  0  0  0  0  0  0  0  0  0  0
  141.7981   72.4767  226.6855 H   0  0  0  0  0  0  0  0  0  0  0  0
  140.5626   72.7306  224.4769 H   0  0  0  0  0  0  0  0  0  0  0  0
  141.6937   71.4133  224.0905 H   0  0  0  0  0  0  0  0  0  0  0  0
  1  2  1  0
  2  3  2  0
  3  4  1  0
  4  5  1  0
  5  6  1  0
  6  7  1  0
  7  8  1  0
  8  9  1  0
  9 10  2  0
 10 11  1  0
 11 12  2  0
 12 13  1  0
 13 14  2  0
  8 15  1  0
 15 16  1  0
  4 17  2  0
 17 18  1  0
 18 19  1  0
 19 20  1  0
 20 21  1  0
 21 22  1  0
 22 23  2  0
 23 24  1  0
 24 25  2  0
 25 26  1  0
 26 27  2  0
 27 28  1  0
 18 29  2  0
 29  2  1  0
 16  5  1  0
 28 19  1  0
 14  9  1  0
 27 22  1  0
  1 30  1  0
  6 31  1  0
  6 32  1  0
  7 33  1  0
  7 34  1  0
 10 35  1  0
 11 36  1  0
 12 37  1  0
 13 38  1  0
 14 39  1  0
 15 40  1  0
 15 41  1  0
 16 42  1  0
 16 43  1  0
 20 44  1  0
 20 45  1  0
 21 46  1  0
 21 47  1  0
 23 48  1  0
 24 49  1  0
 25 50  1  0
 26 51  1  0
 28 52  1  0
 28 53  1  0
M  END
