@<TRIPOS>MOLECULE
*****
 75 80 0 0 0
SMALL
GASTEIGER

@<TRIPOS>ATOM
      1 C         145.4220   70.8800  218.4780 C.3     1  UNL1       -0.0482
      2 C         145.0300   72.1850  219.1260 C.3     1  UNL1        0.0206
      3 C         143.6520   72.1160  219.7460 C.3     1  UNL1        0.0301
      4 N         143.4270   73.3840  220.4250 N.pl3   1  UNL1       -0.2968
      5 C         142.1850   73.6190  221.0760 C.ar    1  UNL1        0.2238
      6 N         141.6450   74.8470  221.2160 N.ar    1  UNL1       -0.1807
      7 C         140.4680   75.0520  221.8350 C.ar    1  UNL1        0.2237
      8 N         139.9830   76.3860  221.9310 N.pl3   1  UNL1       -0.2969
      9 C         138.6970   76.6320  222.5600 C.3     1  UNL1        0.0293
     10 C         138.3010   78.0720  222.5050 C.3     1  UNL1        0.0360
     11 N         138.5120   78.6680  221.2100 N.3     1  UNL1       -0.1778
     12 S         138.2750   80.3570  221.2120 S.O2    1  UNL1        0.0360
     13 O         136.7800   80.5900  221.0630 O.2     1  UNL1       -0.1577
     14 O         138.9550   80.9460  220.0100 O.2     1  UNL1       -0.1577
     15 C         138.8460   81.1470  222.6980 C.3     1  UNL1        0.1069
     16 C         140.2680   80.7200  222.8840 C.ar    1  UNL1       -0.0250
     17 C         141.2630   81.2430  222.0630 C.ar    1  UNL1       -0.0570
     18 C         142.5620   80.8250  222.2660 C.ar    1  UNL1       -0.0615
     19 C         142.9190   79.9130  223.2420 C.ar    1  UNL1       -0.0617
     20 C         141.9120   79.4010  224.0520 C.ar    1  UNL1       -0.0615
     21 C         140.5930   79.8080  223.8670 C.ar    1  UNL1       -0.0570
     22 C         139.7480   78.3340  220.5800 C.3     1  UNL1        0.0360
     23 C         140.7020   77.5370  221.4330 C.3     1  UNL1        0.0293
     24 N         139.7800   74.0160  222.3440 N.ar    1  UNL1       -0.1807
     25 C         140.2950   72.7620  222.2220 C.ar    1  UNL1        0.2240
     26 N         139.6080   71.6180  222.7440 N.pl3   1  UNL1       -0.2948
     27 C         139.8940   71.1510  224.0800 C.3     1  UNL1        0.0192
     28 C         138.7370   70.2290  224.4830 C.3     1  UNL1       -0.0115
     29 C         138.7550   69.1240  223.4840 C.ar    1  UNL1       -0.0412
     30 C         138.8220   67.7910  223.8490 C.ar    1  UNL1       -0.0582
     31 C         138.8330   66.8490  222.8350 C.ar    1  UNL1       -0.0615
     32 C         138.7790   67.2260  221.5140 C.ar    1  UNL1       -0.0614
     33 C         138.7120   68.5510  221.1550 C.ar    1  UNL1       -0.0568
     34 C         138.7000   69.5070  222.1490 C.ar    1  UNL1       -0.0269
     35 C         138.6320   70.9630  221.8830 C.3     1  UNL1        0.0402
     36 N         141.4830   72.5930  221.5910 N.ar    1  UNL1       -0.1807
     37 C         144.4730   74.3750  220.4220 C.3     1  UNL1        0.0275
     38 C         145.8290   73.7920  220.7130 C.3     1  UNL1        0.0120
     39 N         145.9630   72.4320  220.2330 N.3     1  UNL1       -0.3105
     40 H         145.6454   70.1363  219.2571 H       1  UNL1        0.0245
     41 H         144.5930   70.5178  217.8522 H       1  UNL1        0.0245
     42 H         146.3134   71.0345  217.8522 H       1  UNL1        0.0245
     43 H         145.0468   72.9670  218.3526 H       1  UNL1        0.0473
     44 H         142.8930   71.9663  218.9641 H       1  UNL1        0.0480
     45 H         143.5804   71.2748  220.4512 H       1  UNL1        0.0480
     46 H         137.9312   76.0352  222.0430 H       1  UNL1        0.0478
     47 H         138.7825   76.3483  223.6193 H       1  UNL1        0.0478
     48 H         137.2331   78.1511  222.7569 H       1  UNL1        0.0459
     49 H         138.9350   78.6138  223.2223 H       1  UNL1        0.0459
     50 H         138.7877   82.2405  222.5940 H       1  UNL1        0.0565
     51 H         138.2282   80.8636  223.5629 H       1  UNL1        0.0565
     52 H         141.0202   81.9698  221.2738 H       1  UNL1        0.0621
     53 H         143.3516   81.2370  221.6204 H       1  UNL1        0.0618
     54 H         143.9661   79.6026  223.3733 H       1  UNL1        0.0618
     55 H         142.1572   78.6736  224.8399 H       1  UNL1        0.0618
     56 H         139.8017   79.3979  224.5117 H       1  UNL1        0.0621
     57 H         139.5234   77.7457  219.6781 H       1  UNL1        0.0459
     58 H         140.2513   79.2881  220.3645 H       1  UNL1        0.0459
     59 H         141.5618   77.2104  220.8297 H       1  UNL1        0.0478
     60 H         141.0792   78.1481  222.2662 H       1  UNL1        0.0478
     61 H         140.8432   70.5952  224.0920 H       1  UNL1        0.0468
     62 H         139.9905   71.9933  224.7808 H       1  UNL1        0.0468
     63 H         138.8931   69.8346  225.4979 H       1  UNL1        0.0328
     64 H         137.7729   70.7585  224.4944 H       1  UNL1        0.0328
     65 H         138.8650   67.4909  224.9064 H       1  UNL1        0.0620
     66 H         138.8858   65.7804  223.0905 H       1  UNL1        0.0618
     67 H         138.7896   66.4537  220.7307 H       1  UNL1        0.0618
     68 H         138.6688   68.8433  220.0954 H       1  UNL1        0.0621
     69 H         138.8702   71.1623  220.8278 H       1  UNL1        0.0514
     70 H         137.6209   71.3447  222.0878 H       1  UNL1        0.0514
     71 H         144.5012   74.8533  219.4318 H       1  UNL1        0.0477
     72 H         144.2458   75.0989  221.2184 H       1  UNL1        0.0477
     73 H         146.5929   74.4151  220.2250 H       1  UNL1        0.0439
     74 H         145.9579   73.7750  221.8053 H       1  UNL1        0.0439
     75 H         146.9510   72.1900  219.9680 H       1  UNL1        0.1223
@<TRIPOS>BOND
     1     1     2    1
     2     2     3    1
     3     3     4    1
     4     4     5    1
     5     5     6   ar
     6     6     7   ar
     7     7     8    1
     8     8     9    1
     9     9    10    1
    10    10    11    1
    11    11    12    1
    12    12    13    2
    13    12    14    2
    14    12    15    1
    15    15    16    1
    16    16    17   ar
    17    17    18   ar
    18    18    19   ar
    19    19    20   ar
    20    20    21   ar
    21    11    22    1
    22    22    23    1
    23     7    24   ar
    24    24    25   ar
    25    25    26    1
    26    26    27    1
    27    27    28    1
    28    28    29    1
    29    29    30   ar
    30    30    31   ar
    31    31    32   ar
    32    32    33   ar
    33    33    34   ar
    34    34    35    1
    35    25    36   ar
    36     4    37    1
    37    37    38    1
    38    38    39    1
    39    39     2    1
    40    36     5   ar
    41    23     8    1
    42    35    26    1
    43    21    16   ar
    44    34    29   ar
    45     1    40    1
    46     1    41    1
    47     1    42    1
    48     2    43    1
    49     3    44    1
    50     3    45    1
    51     9    46    1
    52     9    47    1
    53    10    48    1
    54    10    49    1
    55    15    50    1
    56    15    51    1
    57    17    52    1
    58    18    53    1
    59    19    54    1
    60    20    55    1
    61    21    56    1
    62    22    57    1
    63    22    58    1
    64    23    59    1
    65    23    60    1
    66    27    61    1
    67    27    62    1
    68    28    63    1
    69    28    64    1
    70    30    65    1
    71    31    66    1
    72    32    67    1
    73    33    68    1
    74    35    69    1
    75    35    70    1
    76    37    71    1
    77    37    72    1
    78    38    73    1
    79    38    74    1
    80    39    75    1
