
     RDKit          3D

 66 69  0  0  0  0  0  0  0  0999 V2000
  137.0360   75.6630  222.7600 C   0  0  0  0  0  0  0  0  0  0  0  0
  138.1890   75.5180  221.9220 N   0  0  0  0  0  0  0  0  0  0  0  0
  138.0000   74.7660  220.6750 C   0  0  0  0  0  0  0  0  0  0  0  0
  137.6230   73.3310  221.0070 C   0  0  0  0  0  0  0  0  0  0  0  0
  138.3580   72.9780  222.2150 N   0  0  0  0  0  0  0  0  0  0  0  0
  138.3520   71.6010  222.5780 C   0  0  0  0  0  0  0  0  0  0  0  0
  137.6980   70.8350  221.7890 O   0  0  0  0  0  0  0  0  0  0  0  0
  139.0400   71.0980  223.7560 C   0  0  0  0  0  0  0  0  0  0  0  0
  140.0520   71.8870  224.2860 C   0  0  0  0  0  0  0  0  0  0  0  0
  140.7510   71.4610  225.4120 C   0  0  0  0  0  0  0  0  0  0  0  0
  140.3930   70.2600  225.9450 C   0  0  0  0  0  0  0  0  0  0  0  0
  141.0910   69.8270  227.0740 C   0  0  0  0  0  0  0  0  0  0  0  0
  140.7440   68.5970  227.6420 C   0  0  0  0  0  0  0  0  0  0  0  0
  141.4070   68.1560  228.7390 F   0  0  0  0  0  0  0  0  0  0  0  0
  139.7270   67.8260  227.0920 C   0  0  0  0  0  0  0  0  0  0  0  0
  139.0390   68.2590  225.9760 C   0  0  0  0  0  0  0  0  0  0  0  0
  139.3870   69.4710  225.4220 C   0  0  0  0  0  0  0  0  0  0  0  0
  138.7360   69.9200  224.3330 N   0  0  0  0  0  0  0  0  0  0  0  0
  139.4750   76.0230  222.1720 C   0  0  0  0  0  0  0  0  0  0  0  0
  140.4090   75.1350  222.3140 O   0  0  0  0  0  0  0  0  0  0  0  0
  139.8990   77.4090  222.2960 C   0  0  1  0  0  0  0  0  0  0  0  0
  138.8830   78.3580  222.8930 C   0  0  0  0  0  0  0  0  0  0  0  0
  139.2750   79.7350  222.3970 C   0  0  0  0  0  0  0  0  0  0  0  0
  140.6910   80.0920  222.7020 C   0  0  2  0  0  0  0  0  0  0  0  0
  141.1200   81.1350  221.7320 C   0  0  0  0  0  0  0  0  0  0  0  0
  141.2510   82.3500  222.0610 O   0  0  0  0  0  0  0  0  0  0  0  0
  141.3830   80.7040  220.4020 N   0  0  0  0  0  0  0  0  0  0  0  0
  141.8140   81.6680  219.3790 C   0  0  0  0  0  0  0  0  0  0  0  0
  141.9350   80.9520  218.0680 C   0  0  0  0  0  0  0  0  0  0  0  0
  142.0560   81.6750  216.8770 C   0  0  0  0  0  0  0  0  0  0  0  0
  142.1640   80.9540  215.7010 C   0  0  0  0  0  0  0  0  0  0  0  0
  142.1490   79.5770  215.7480 C   0  0  0  0  0  0  0  0  0  0  0  0
  142.0290   78.8760  216.9310 C   0  0  0  0  0  0  0  0  0  0  0  0
  141.9240   79.6000  218.0750 N   0  0  0  0  0  0  0  0  0  0  0  0
  141.6940   78.9900  222.6540 C   0  0  0  0  0  0  0  0  0  0  0  0
  141.1550   77.6510  223.0950 C   0  0  0  0  0  0  0  0  0  0  0  0
  137.3428   75.6244  223.8156 H   0  0  0  0  0  0  0  0  0  0  0  0
  136.5521   76.6291  222.5539 H   0  0  0  0  0  0  0  0  0  0  0  0
  136.3279   74.8468  222.5539 H   0  0  0  0  0  0  0  0  0  0  0  0
  137.1965   75.2299  220.0841 H   0  0  0  0  0  0  0  0  0  0  0  0
  138.9331   74.7770  220.0926 H   0  0  0  0  0  0  0  0  0  0  0  0
  136.5402   73.2542  221.1851 H   0  0  0  0  0  0  0  0  0  0  0  0
  137.8722   72.6526  220.1777 H   0  0  0  0  0  0  0  0  0  0  0  0
  138.8670   73.6770  222.8000 H   0  0  0  0  0  0  0  0  0  0  0  0
  140.3017   72.8496  223.8158 H   0  0  0  0  0  0  0  0  0  0  0  0
  141.5566   72.0674  225.8516 H   0  0  0  0  0  0  0  0  0  0  0  0
  141.8957   70.4394  227.5070 H   0  0  0  0  0  0  0  0  0  0  0  0
  139.4674   66.8605  227.5506 H   0  0  0  0  0  0  0  0  0  0  0  0
  138.2327   67.6509  225.5400 H   0  0  0  0  0  0  0  0  0  0  0  0
  140.0645   77.6189  221.2290 H   0  0  0  0  0  0  0  0  0  0  0  0
  138.9206   78.3200  223.9917 H   0  0  0  0  0  0  0  0  0  0  0  0
  137.8564   78.0950  222.5982 H   0  0  0  0  0  0  0  0  0  0  0  0
  138.6176   80.4776  222.8729 H   0  0  0  0  0  0  0  0  0  0  0  0
  139.1696   79.7287  221.3021 H   0  0  0  0  0  0  0  0  0  0  0  0
  140.6768   80.4196  223.7520 H   0  0  0  0  0  0  0  0  0  0  0  0
  141.2720   79.6910  220.1320 H   0  0  0  0  0  0  0  0  0  0  0  0
  141.0710   82.4746  219.2935 H   0  0  0  0  0  0  0  0  0  0  0  0
  142.7837   82.1050  219.6594 H   0  0  0  0  0  0  0  0  0  0  0  0
  142.0650   82.7750  216.8752 H   0  0  0  0  0  0  0  0  0  0  0  0
  142.2610   81.4754  214.7373 H   0  0  0  0  0  0  0  0  0  0  0  0
  142.2360   79.0147  214.8066 H   0  0  0  0  0  0  0  0  0  0  0  0
  142.0189   77.7762  216.9464 H   0  0  0  0  0  0  0  0  0  0  0  0
  142.5345   79.2582  223.3110 H   0  0  0  0  0  0  0  0  0  0  0  0
  141.9973   78.8807  221.6023 H   0  0  0  0  0  0  0  0  0  0  0  0
  140.9233   77.6703  224.1701 H   0  0  0  0  0  0  0  0  0  0  0  0
  141.8921   76.8517  222.9281 H   0  0  0  0  0  0  0  0  0  0  0  0
  1  2  1  0
  2  3  1  0
  3  4  1  0
  4  5  1  0
  5  6  1  0
  6  7  2  0
  6  8  1  0
  8  9  2  0
  9 10  1  0
 10 11  2  0
 11 12  1  0
 12 13  2  0
 13 14  1  0
 13 15  1  0
 15 16  2  0
 16 17  1  0
 17 18  2  0
  2 19  1  0
 19 20  2  0
 19 21  1  0
 21 22  1  0
 22 23  1  0
 23 24  1  0
 24 25  1  0
 25 26  2  0
 25 27  1  0
 27 28  1  0
 28 29  1  0
 29 30  2  0
 30 31  1  0
 31 32  2  0
 32 33  1  0
 33 34  2  0
 24 35  1  0
 35 36  1  0
 18  8  1  0
 36 21  1  0
 17 11  1  0
 34 29  1  0
  1 37  1  0
  1 38  1  0
  1 39  1  0
  3 40  1  0
  3 41  1  0
  4 42  1  0
  4 43  1  0
  5 44  1  0
  9 45  1  0
 10 46  1  0
 12 47  1  0
 15 48  1  0
 16 49  1  0
 21 50  1  6
 22 51  1  0
 22 52  1  0
 23 53  1  0
 23 54  1  0
 24 55  1  1
 27 56  1  0
 28 57  1  0
 28 58  1  0
 30 59  1  0
 31 60  1  0
 32 61  1  0
 33 62  1  0
 35 63  1  0
 35 64  1  0
 36 65  1  0
 36 66  1  0
M  END
