@<TRIPOS>MOLECULE
*****
 77 83 0 0 0
SMALL
GASTEIGER

@<TRIPOS>ATOM
      1 C         140.7090   79.8490  223.6770 C.ar    1  UNL1       -0.0615
      2 C         141.8380   79.5430  222.9210 C.ar    1  UNL1       -0.0614
      3 C         141.7780   78.5130  221.9970 C.ar    1  UNL1       -0.0568
      4 C         140.5850   77.8350  221.8740 C.ar    1  UNL1       -0.0269
      5 C         139.4610   78.1290  222.6160 C.ar    1  UNL1       -0.0412
      6 C         139.5350   79.1590  223.5340 C.ar    1  UNL1       -0.0582
      7 C         138.2120   77.3330  222.4070 C.3     1  UNL1       -0.0115
      8 C         138.5880   75.8710  222.3560 C.3     1  UNL1        0.0192
      9 N         139.8020   75.6320  221.6330 N.pl3   1  UNL1       -0.2948
     10 C         140.3610   74.3240  221.6630 C.ar    1  UNL1        0.2240
     11 N         141.1710   73.9320  220.6610 N.ar    1  UNL1       -0.1807
     12 C         141.6940   72.6960  220.6960 C.ar    1  UNL1        0.2237
     13 N         142.5650   72.2620  219.6280 N.pl3   1  UNL1       -0.2995
     14 C         142.0340   71.6320  218.4330 C.3     1  UNL1        0.0152
     15 C         142.8260   70.4060  218.0750 C.3     1  UNL1       -0.0331
     16 C         144.2770   70.8690  217.8810 C.3     1  UNL1       -0.0254
     17 C         145.0430   69.7560  217.2570 C.3     1  UNL1        0.0018
     18 N         145.6460   68.9230  218.2590 N.3     1  UNL1       -0.3021
     19 C         146.3410   67.8380  217.6450 C.3     1  UNL1       -0.0011
     20 C         145.6780   66.5650  218.1550 C.3     1  UNL1       -0.0390
     21 C         144.2910   67.0710  218.5470 C.3     1  UNL1       -0.0390
     22 C         144.6330   68.4010  219.1460 C.3     1  UNL1       -0.0011
     23 C         144.7840   71.2880  219.2250 C.3     1  UNL1       -0.0331
     24 C         143.9960   72.4590  219.7540 C.3     1  UNL1        0.0152
     25 N         141.4170   71.8590  221.7120 N.ar    1  UNL1       -0.1807
     26 C         140.6140   72.2310  222.7180 C.ar    1  UNL1        0.2240
     27 N         140.2850   71.3860  223.8180 N.pl3   1  UNL1       -0.2948
     28 C         139.5530   70.1520  223.6080 C.3     1  UNL1        0.0192
     29 C         138.6470   69.8170  224.7640 C.3     1  UNL1       -0.0115
     30 C         139.4280   69.8710  226.0400 C.ar    1  UNL1       -0.0412
     31 C         139.1240   68.9440  227.0040 C.ar    1  UNL1       -0.0582
     32 C         139.8480   68.9850  228.2020 C.ar    1  UNL1       -0.0615
     33 C         140.8280   69.9400  228.3690 C.ar    1  UNL1       -0.0614
     34 C         141.1010   70.8610  227.3580 C.ar    1  UNL1       -0.0568
     35 C         140.4070   70.8380  226.1880 C.ar    1  UNL1       -0.0269
     36 C         140.7210   71.8330  225.1300 C.3     1  UNL1        0.0402
     37 N         140.0990   73.4690  222.6680 N.ar    1  UNL1       -0.1807
     38 C         140.4360   76.7020  220.8930 C.3     1  UNL1        0.0402
     39 H         140.7620   80.6679  224.4095 H       1  UNL1        0.0618
     40 H         142.7684   80.1139  223.0565 H       1  UNL1        0.0618
     41 H         142.6512   78.2460  221.3836 H       1  UNL1        0.0621
     42 H         138.6586   79.4223  224.1445 H       1  UNL1        0.0620
     43 H         137.5143   77.5094  223.2389 H       1  UNL1        0.0328
     44 H         137.7226   77.6327  221.4686 H       1  UNL1        0.0328
     45 H         138.7149   75.5052  223.3856 H       1  UNL1        0.0468
     46 H         137.7806   75.3408  221.8296 H       1  UNL1        0.0468
     47 H         140.9874   71.3448  218.6122 H       1  UNL1        0.0465
     48 H         142.0993   72.3477  217.6002 H       1  UNL1        0.0465
     49 H         142.7682   69.6654  218.8862 H       1  UNL1        0.0283
     50 H         142.4341   69.9298  217.1642 H       1  UNL1        0.0283
     51 H         144.3794   71.7298  217.2038 H       1  UNL1        0.0314
     52 H         144.3602   69.1473  216.6460 H       1  UNL1        0.0429
     53 H         145.8395   70.1854  216.6316 H       1  UNL1        0.0429
     54 H         146.2545   67.9006  216.5502 H       1  UNL1        0.0426
     55 H         147.4128   67.8580  217.8916 H       1  UNL1        0.0426
     56 H         145.6174   65.8011  217.3659 H       1  UNL1        0.0278
     57 H         146.2230   66.0771  218.9766 H       1  UNL1        0.0278
     58 H         143.6370   67.1791  217.6691 H       1  UNL1        0.0278
     59 H         143.7356   66.3997  219.2184 H       1  UNL1        0.0278
     60 H         143.7525   69.0600  219.1676 H       1  UNL1        0.0426
     61 H         144.9760   68.3246  220.1884 H       1  UNL1        0.0426
     62 H         144.6899   70.4445  219.9248 H       1  UNL1        0.0283
     63 H         145.8376   71.5883  219.1261 H       1  UNL1        0.0283
     64 H         144.2414   72.5991  220.8171 H       1  UNL1        0.0465
     65 H         144.2674   73.3433  219.1588 H       1  UNL1        0.0465
     66 H         138.9423   70.2540  222.6988 H       1  UNL1        0.0468
     67 H         140.2876   69.3389  223.5115 H       1  UNL1        0.0468
     68 H         137.8229   70.5443  224.8071 H       1  UNL1        0.0328
     69 H         138.2359   68.8059  224.6275 H       1  UNL1        0.0328
     70 H         138.3371   68.1928  226.8414 H       1  UNL1        0.0620
     71 H         139.6365   68.2613  229.0030 H       1  UNL1        0.0618
     72 H         141.3998   69.9759  229.3081 H       1  UNL1        0.0618
     73 H         141.8872   71.6155  227.5084 H       1  UNL1        0.0621
     74 H         140.2136   72.7791  225.3699 H       1  UNL1        0.0514
     75 H         141.8127   71.9646  225.0995 H       1  UNL1        0.0514
     76 H         141.4210   76.3822  220.5223 H       1  UNL1        0.0514
     77 H         139.8440   76.9976  220.0143 H       1  UNL1        0.0514
@<TRIPOS>BOND
     1     1     2   ar
     2     2     3   ar
     3     3     4   ar
     4     4     5   ar
     5     5     6   ar
     6     5     7    1
     7     7     8    1
     8     8     9    1
     9     9    10    1
    10    10    11   ar
    11    11    12   ar
    12    12    13    1
    13    13    14    1
    14    14    15    1
    15    15    16    1
    16    16    17    1
    17    17    18    1
    18    18    19    1
    19    19    20    1
    20    20    21    1
    21    21    22    1
    22    16    23    1
    23    23    24    1
    24    12    25   ar
    25    25    26   ar
    26    26    27    1
    27    27    28    1
    28    28    29    1
    29    29    30    1
    30    30    31   ar
    31    31    32   ar
    32    32    33   ar
    33    33    34   ar
    34    34    35   ar
    35    35    36    1
    36    26    37   ar
    37     9    38    1
    38     6     1   ar
    39    37    10   ar
    40    38     4    1
    41    24    13    1
    42    36    27    1
    43    22    18    1
    44    35    30   ar
    45     1    39    1
    46     2    40    1
    47     3    41    1
    48     6    42    1
    49     7    43    1
    50     7    44    1
    51     8    45    1
    52     8    46    1
    53    14    47    1
    54    14    48    1
    55    15    49    1
    56    15    50    1
    57    16    51    1
    58    17    52    1
    59    17    53    1
    60    19    54    1
    61    19    55    1
    62    20    56    1
    63    20    57    1
    64    21    58    1
    65    21    59    1
    66    22    60    1
    67    22    61    1
    68    23    62    1
    69    23    63    1
    70    24    64    1
    71    24    65    1
    72    28    66    1
    73    28    67    1
    74    29    68    1
    75    29    69    1
    76    31    70    1
    77    32    71    1
    78    33    72    1
    79    34    73    1
    80    36    74    1
    81    36    75    1
    82    38    76    1
    83    38    77    1
