
     RDKit          3D

 71 75  0  0  1  0  0  0  0  0999 V2000
  142.5470   81.5920  224.4380 C   0  0  0  0  0  0  0  0  0  0  0  0
  141.9030   80.9720  223.2220 C   0  0  2  0  0  0  0  0  0  0  0  0
  140.4560   80.5940  223.4520 C   0  0  0  0  0  0  0  0  0  0  0  0
  140.1640   79.2010  222.9650 C   0  0  0  0  0  0  0  0  0  0  0  0
  140.7020   78.9730  221.5660 C   0  0  2  0  0  0  0  0  0  0  0  0
  140.3720   77.6230  221.1530 N   0  0  0  0  0  0  0  0  0  0  0  0
  140.8970   77.0610  219.9760 C   0  0  0  0  0  0  0  0  0  0  0  0
  141.6770   77.7770  219.2730 O   0  0  0  0  0  0  0  0  0  0  0  0
  140.6030   75.6890  219.4960 C   0  0  1  0  0  0  0  0  0  0  0  0
  141.9660   75.1080  219.0850 C   0  0  0  0  0  0  0  0  0  0  0  0
  142.5090   74.8390  220.4810 C   0  0  2  0  0  0  0  0  0  0  0  0
  143.7470   74.0220  220.4310 C   0  0  0  0  0  0  0  0  0  0  0  0
  144.9820   74.6230  220.5830 C   0  0  0  0  0  0  0  0  0  0  0  0
  146.1500   73.8860  220.5400 C   0  0  0  0  0  0  0  0  0  0  0  0
  146.0370   72.5270  220.3380 C   0  0  0  0  0  0  0  0  0  0  0  0
  144.8250   71.9020  220.1840 C   0  0  0  0  0  0  0  0  0  0  0  0
  143.6760   72.6520  220.2300 C   0  0  0  0  0  0  0  0  0  0  0  0
  141.3520   74.0740  221.0850 C   0  0  0  0  0  0  0  0  0  0  0  0
  140.2020   74.7920  220.5820 N   0  0  0  0  0  0  0  0  0  0  0  0
  138.8540   74.6970  221.0250 C   0  0  0  0  0  0  0  0  0  0  0  0
  138.1130   75.6970  221.2140 O   0  0  0  0  0  0  0  0  0  0  0  0
  138.2890   73.3430  221.2770 C   0  0  0  0  0  0  0  0  0  0  0  0
  138.7910   72.7680  222.4950 N   0  0  0  0  0  0  0  0  0  0  0  0
  138.6640   71.3500  222.6480 C   0  0  0  0  0  0  0  0  0  0  0  0
  138.1340   70.6370  221.7450 O   0  0  0  0  0  0  0  0  0  0  0  0
  139.1670   70.7240  223.8850 C   0  0  0  0  0  0  0  0  0  0  0  0
  139.0970   69.3480  224.0070 C   0  0  0  0  0  0  0  0  0  0  0  0
  139.5470   68.7100  225.1300 C   0  0  0  0  0  0  0  0  0  0  0  0
  140.0740   69.4700  226.1420 C   0  0  0  0  0  0  0  0  0  0  0  0
  140.5380   68.8580  227.2900 C   0  0  0  0  0  0  0  0  0  0  0  0
  141.0650   69.6280  228.2980 C   0  0  0  0  0  0  0  0  0  0  0  0
  141.1570   70.9990  228.2270 C   0  0  0  0  0  0  0  0  0  0  0  0
  140.6800   71.5920  227.0540 C   0  0  0  0  0  0  0  0  0  0  0  0
  140.1490   70.8550  226.0280 C   0  0  0  0  0  0  0  0  0  0  0  0
  139.6870   71.4130  224.8940 N   0  0  0  0  0  0  0  0  0  0  0  0
  142.1770   79.2390  221.5080 C   0  0  0  0  0  0  0  0  0  0  0  0
  142.7190   79.7590  222.8240 C   0  0  0  0  0  0  0  0  0  0  0  0
  142.1015   81.1631  225.3477 H   0  0  0  0  0  0  0  0  0  0  0  0
  143.6274   81.3854  224.4263 H   0  0  0  0  0  0  0  0  0  0  0  0
  142.3815   82.6794  224.4263 H   0  0  0  0  0  0  0  0  0  0  0  0
  141.8925   81.7168  222.4126 H   0  0  0  0  0  0  0  0  0  0  0  0
  139.8115   81.3034  222.9122 H   0  0  0  0  0  0  0  0  0  0  0  0
  140.2587   80.6290  224.5336 H   0  0  0  0  0  0  0  0  0  0  0  0
  139.0749   79.0466  222.9579 H   0  0  0  0  0  0  0  0  0  0  0  0
  140.6580   78.4896  223.6431 H   0  0  0  0  0  0  0  0  0  0  0  0
  140.2329   79.6790  220.8649 H   0  0  0  0  0  0  0  0  0  0  0  0
  139.7330   77.0600  221.7440 H   0  0  0  0  0  0  0  0  0  0  0  0
  139.8202   75.7519  218.7257 H   0  0  0  0  0  0  0  0  0  0  0  0
  141.8650   74.1869  218.4922 H   0  0  0  0  0  0  0  0  0  0  0  0
  142.5880   75.7448  218.4388 H   0  0  0  0  0  0  0  0  0  0  0  0
  142.8025   75.7370  221.0444 H   0  0  0  0  0  0  0  0  0  0  0  0
  145.0364   75.7102  220.7414 H   0  0  0  0  0  0  0  0  0  0  0  0
  147.1325   74.3654  220.6623 H   0  0  0  0  0  0  0  0  0  0  0  0
  146.9537   71.9202  220.2987 H   0  0  0  0  0  0  0  0  0  0  0  0
  144.7748   70.8146  220.0258 H   0  0  0  0  0  0  0  0  0  0  0  0
  142.6973   72.1651  220.1072 H   0  0  0  0  0  0  0  0  0  0  0  0
  141.3469   73.0279  220.7449 H   0  0  0  0  0  0  0  0  0  0  0  0
  141.3885   74.0208  222.1831 H   0  0  0  0  0  0  0  0  0  0  0  0
  137.1941   73.4225  221.3467 H   0  0  0  0  0  0  0  0  0  0  0  0
  138.5884   72.6896  220.4443 H   0  0  0  0  0  0  0  0  0  0  0  0
  139.2360   73.3060  223.2700 H   0  0  0  0  0  0  0  0  0  0  0  0
  138.6709   68.7549  223.1844 H   0  0  0  0  0  0  0  0  0  0  0  0
  139.4876   67.6152  225.2189 H   0  0  0  0  0  0  0  0  0  0  0  0
  140.4860   67.7644  227.3960 H   0  0  0  0  0  0  0  0  0  0  0  0
  141.4309   69.1247  229.2051 H   0  0  0  0  0  0  0  0  0  0  0  0
  141.5822   71.5955  229.0476 H   0  0  0  0  0  0  0  0  0  0  0  0
  140.7327   72.6859  226.9514 H   0  0  0  0  0  0  0  0  0  0  0  0
  142.3712   79.9868  220.7250 H   0  0  0  0  0  0  0  0  0  0  0  0
  142.6825   78.2871  221.2881 H   0  0  0  0  0  0  0  0  0  0  0  0
  143.7754   80.0423  222.7064 H   0  0  0  0  0  0  0  0  0  0  0  0
  142.6493   78.9815  223.5990 H   0  0  0  0  0  0  0  0  0  0  0  0
  1  2  1  0
  2  3  1  0
  3  4  1  0
  4  5  1  0
  5  6  1  0
  6  7  1  0
  7  8  2  0
  7  9  1  0
  9 10  1  0
 10 11  1  0
 11 12  1  0
 12 13  2  0
 13 14  1  0
 14 15  2  0
 15 16  1  0
 16 17  2  0
 11 18  1  0
 18 19  1  0
 19 20  1  0
 20 21  2  0
 20 22  1  0
 22 23  1  0
 23 24  1  0
 24 25  2  0
 24 26  1  0
 26 27  2  0
 27 28  1  0
 28 29  2  0
 29 30  1  0
 30 31  2  0
 31 32  1  0
 32 33  2  0
 33 34  1  0
 34 35  2  0
  5 36  1  0
 36 37  1  0
 37  2  1  0
 19  9  1  0
 35 26  1  0
 17 12  1  0
 34 29  1  0
  1 38  1  0
  1 39  1  0
  1 40  1  0
  2 41  1  6
  3 42  1  0
  3 43  1  0
  4 44  1  0
  4 45  1  0
  5 46  1  6
  6 47  1  0
  9 48  1  6
 10 49  1  0
 10 50  1  0
 11 51  1  1
 13 52  1  0
 14 53  1  0
 15 54  1  0
 16 55  1  0
 17 56  1  0
 18 57  1  0
 18 58  1  0
 22 59  1  0
 22 60  1  0
 23 61  1  0
 27 62  1  0
 28 63  1  0
 30 64  1  0
 31 65  1  0
 32 66  1  0
 33 67  1  0
 36 68  1  0
 36 69  1  0
 37 70  1  0
 37 71  1  0
M  END
