@<TRIPOS>MOLECULE
*****
 68 74 0 0 0
SMALL
GASTEIGER

@<TRIPOS>ATOM
      1 O         141.4210   72.7700  221.8010 O.2     1  UNL1       -0.2680
      2 C         140.3070   72.8050  222.4330 C.2     1  UNL1        0.2672
      3 C         140.1670   71.8030  223.4860 C.ar    1  UNL1        0.1034
      4 C         140.5080   71.8790  224.8200 C.ar    1  UNL1       -0.0231
      5 C         140.1610   70.6370  225.3540 C.ar    1  UNL1        0.0143
      6 C         140.2630   70.1220  226.6300 C.ar    1  UNL1        0.0270
      7 BR        141.0000   71.1940  228.0510 Br      1  UNL1       -0.0496
      8 C         139.8270   68.8150  226.8770 C.ar    1  UNL1       -0.0471
      9 C         139.2970   68.0310  225.8770 C.ar    1  UNL1       -0.0587
     10 C         139.1920   68.5480  224.5840 C.ar    1  UNL1       -0.0377
     11 C         139.6270   69.8390  224.3590 C.ar    1  UNL1        0.0481
     12 N         139.6400   70.5700  223.2280 N.ar    1  UNL1       -0.3505
     13 N         139.3310   73.7470  222.1010 N.am    1  UNL1       -0.2651
     14 C         139.5620   75.1890  222.0010 C.3     1  UNL1        0.0310
     15 C         138.6350   75.5750  220.8660 C.3     1  UNL1        0.0275
     16 C         139.3170   75.4870  219.5310 C.3     1  UNL1       -0.0278
     17 C         140.1190   76.7670  219.5370 C.3     1  UNL1        0.0001
     18 N         139.3030   77.7500  220.2330 N.3     1  UNL1       -0.2985
     19 C         140.1190   78.6160  221.0420 C.3     1  UNL1        0.0106
     20 C         139.5360   78.7830  222.4030 C.3     1  UNL1       -0.0357
     21 C         140.5000   79.4790  223.3490 C.3     1  UNL1       -0.0332
     22 C         141.3540   80.4240  222.5280 C.3     1  UNL1        0.0193
     23 C         141.7670   81.5530  223.4750 C.3     1  UNL1       -0.0335
     24 C         142.9120   80.8670  224.2220 C.3     1  UNL1       -0.0388
     25 C         143.5980   80.1410  223.0830 C.3     1  UNL1       -0.0036
     26 N         142.5990   79.8500  222.1040 N.3     1  UNL1       -0.3105
     27 C         140.5680   81.0510  221.3990 C.3     1  UNL1       -0.0332
     28 C         140.1410   79.9970  220.3980 C.3     1  UNL1       -0.0357
     29 C         138.2820   77.0440  220.9370 C.3     1  UNL1        0.0104
     30 C         137.5070   74.6620  221.0480 C.ar    1  UNL1       -0.0170
     31 C         136.1880   74.6590  220.6620 C.ar    1  UNL1       -0.0562
     32 C         135.3010   73.6460  220.9700 C.ar    1  UNL1       -0.0614
     33 C         135.7630   72.5640  221.7120 C.ar    1  UNL1       -0.0600
     34 C         137.0860   72.5520  222.1080 C.ar    1  UNL1       -0.0400
     35 C         137.9630   73.5680  221.7960 C.ar    1  UNL1        0.0404
     36 H         140.9562   72.7332  225.3486 H       1  UNL1        0.0647
     37 H         139.9098   68.4046  227.8942 H       1  UNL1        0.0629
     38 H         138.9594   67.0069  226.0945 H       1  UNL1        0.0619
     39 H         138.7738   67.9427  223.7663 H       1  UNL1        0.0638
     40 H         139.2890   70.2130  222.3020 H       1  UNL1        0.1660
     41 H         139.2886   75.7038  222.9339 H       1  UNL1        0.0478
     42 H         140.6139   75.4601  221.8281 H       1  UNL1        0.0478
     43 H         139.9674   74.6022  219.4664 H       1  UNL1        0.0287
     44 H         138.6325   75.3828  218.6763 H       1  UNL1        0.0287
     45 H         141.0719   76.6182  220.0660 H       1  UNL1        0.0427
     46 H         140.3603   77.0953  218.5152 H       1  UNL1        0.0427
     47 H         141.1230   78.1731  221.1180 H       1  UNL1        0.0462
     48 H         138.6175   79.3834  222.3256 H       1  UNL1        0.0281
     49 H         139.3221   77.7829  222.8081 H       1  UNL1        0.0281
     50 H         139.9378   80.0450  224.1063 H       1  UNL1        0.0283
     51 H         141.1315   78.7410  223.8654 H       1  UNL1        0.0283
     52 H         142.1122   82.4412  222.9254 H       1  UNL1        0.0283
     53 H         140.9605   81.9385  224.1161 H       1  UNL1        0.0283
     54 H         143.5815   81.5990  224.6973 H       1  UNL1        0.0278
     55 H         142.5916   80.2170  225.0496 H       1  UNL1        0.0278
     56 H         144.3795   80.7797  222.6455 H       1  UNL1        0.0424
     57 H         144.0749   79.2165  223.4405 H       1  UNL1        0.0424
     58 H         142.8440   80.2280  221.1470 H       1  UNL1        0.1225
     59 H         139.6739   81.5426  221.8101 H       1  UNL1        0.0283
     60 H         141.2059   81.7876  220.8886 H       1  UNL1        0.0283
     61 H         139.1337   80.2383  220.0278 H       1  UNL1        0.0281
     62 H         140.8621   79.9871  219.5674 H       1  UNL1        0.0281
     63 H         138.2477   77.3746  221.9856 H       1  UNL1        0.0436
     64 H         137.2939   77.2335  220.4923 H       1  UNL1        0.0436
     65 H         135.8176   75.5119  220.0743 H       1  UNL1        0.0621
     66 H         134.2539   73.6938  220.6364 H       1  UNL1        0.0618
     67 H         135.0893   71.7360  221.9776 H       1  UNL1        0.0618
     68 H         137.4541   71.6980  222.6955 H       1  UNL1        0.0636
@<TRIPOS>BOND
     1     1     2    2
     2     2     3    1
     3     3     4   ar
     4     4     5   ar
     5     5     6   ar
     6     6     7    1
     7     6     8   ar
     8     8     9   ar
     9     9    10   ar
    10    10    11   ar
    11    11    12   ar
    12     2    13   am
    13    13    14    1
    14    15    14    1
    15    15    16    1
    16    16    17    1
    17    17    18    1
    18    18    19    1
    19    19    20    1
    20    20    21    1
    21    21    22    1
    22    22    23    1
    23    23    24    1
    24    24    25    1
    25    25    26    1
    26    22    27    1
    27    27    28    1
    28    18    29    1
    29    15    30    1
    30    30    31   ar
    31    31    32   ar
    32    32    33   ar
    33    33    34   ar
    34    34    35   ar
    35    12     3   ar
    36    35    13    1
    37    11     5   ar
    38    29    15    1
    39    35    30   ar
    40    28    19    1
    41    22    26    1
    42     4    36    1
    43     8    37    1
    44     9    38    1
    45    10    39    1
    46    12    40    1
    47    14    41    1
    48    14    42    1
    49    16    43    1
    50    16    44    1
    51    17    45    1
    52    17    46    1
    53    19    47    1
    54    20    48    1
    55    20    49    1
    56    21    50    1
    57    21    51    1
    58    23    52    1
    59    23    53    1
    60    24    54    1
    61    24    55    1
    62    25    56    1
    63    25    57    1
    64    26    58    1
    65    27    59    1
    66    27    60    1
    67    28    61    1
    68    28    62    1
    69    29    63    1
    70    29    64    1
    71    31    65    1
    72    32    66    1
    73    33    67    1
    74    34    68    1
