
     RDKit          3D

 60 65  0  0  0  0  0  0  0  0999 V2000
  133.7430   73.7160  226.4800 O   0  0  0  0  0  0  0  0  0  0  0  0
  134.3330   74.5810  225.5750 C   0  0  0  0  0  0  0  0  0  0  0  0
  134.0220   75.9070  225.6570 C   0  0  0  0  0  0  0  0  0  0  0  0
  134.6040   76.7750  224.7590 C   0  0  0  0  0  0  0  0  0  0  0  0
  135.4890   76.2910  223.7950 C   0  0  0  0  0  0  0  0  0  0  0  0
  135.8190   74.9630  223.6900 C   0  0  0  0  0  0  0  0  0  0  0  0
  136.7050   74.4180  222.7380 N   0  0  0  0  0  0  0  0  0  0  0  0
  137.9400   74.9300  222.3310 C   0  0  0  0  0  0  0  0  0  0  0  0
  138.1570   76.2770  222.4610 N   0  0  0  0  0  0  0  0  0  0  0  0
  139.3050   76.8680  222.1020 C   0  0  0  0  0  0  0  0  0  0  0  0
  139.4850   78.2700  222.2550 N   0  0  0  0  0  0  0  0  0  0  0  0
  138.7080   78.9860  223.2240 C   0  0  0  0  0  0  0  0  0  0  0  0
  139.1010   80.4490  223.2480 C   0  0  0  0  0  0  0  0  0  0  0  0
  140.5850   80.5110  223.2970 C   0  0  0  0  0  0  0  0  0  0  0  0
  141.2800   81.2780  224.2090 C   0  0  0  0  0  0  0  0  0  0  0  0
  142.6760   81.2900  224.2000 C   0  0  0  0  0  0  0  0  0  0  0  0
  143.3590   80.5230  223.2630 C   0  0  0  0  0  0  0  0  0  0  0  0
  142.6700   79.7450  222.3370 C   0  0  0  0  0  0  0  0  0  0  0  0
  141.2910   79.7590  222.3780 C   0  0  0  0  0  0  0  0  0  0  0  0
  140.4630   78.9520  221.4190 C   0  0  0  0  0  0  0  0  0  0  0  0
  140.2830   76.1020  221.5930 N   0  0  0  0  0  0  0  0  0  0  0  0
  140.1200   74.7750  221.4450 C   0  0  0  0  0  0  0  0  0  0  0  0
  141.1960   73.9950  220.8940 N   0  0  0  0  0  0  0  0  0  0  0  0
  141.2130   72.5880  221.2250 C   0  0  0  0  0  0  0  0  0  0  0  0
  141.9860   71.8720  220.1210 C   0  0  0  0  0  0  0  0  0  0  0  0
  143.3710   72.4570  220.1970 C   0  0  0  0  0  0  0  0  0  0  0  0
  144.4930   71.6600  220.2910 C   0  0  0  0  0  0  0  0  0  0  0  0
  145.7400   72.2740  220.3570 C   0  0  0  0  0  0  0  0  0  0  0  0
  145.7930   73.6690  220.3270 C   0  0  0  0  0  0  0  0  0  0  0  0
  144.6630   74.4440  220.2340 C   0  0  0  0  0  0  0  0  0  0  0  0
  143.4350   73.8360  220.1690 C   0  0  0  0  0  0  0  0  0  0  0  0
  142.1690   74.6430  220.0670 C   0  0  0  0  0  0  0  0  0  0  0  0
  138.9570   74.2360  221.8180 N   0  0  0  0  0  0  0  0  0  0  0  0
  135.2040   74.1180  224.6220 C   0  0  0  0  0  0  0  0  0  0  0  0
  133.2590   72.8790  226.1720 H   0  0  0  0  0  0  0  0  0  0  0  0
  133.3227   76.2746  226.4224 H   0  0  0  0  0  0  0  0  0  0  0  0
  134.3710   77.8492  224.8021 H   0  0  0  0  0  0  0  0  0  0  0  0
  135.9412   77.0037  223.0896 H   0  0  0  0  0  0  0  0  0  0  0  0
  136.3850   73.5100  222.2840 H   0  0  0  0  0  0  0  0  0  0  0  0
  137.6420   78.9023  222.9657 H   0  0  0  0  0  0  0  0  0  0  0  0
  138.8942   78.5527  224.2178 H   0  0  0  0  0  0  0  0  0  0  0  0
  138.7336   80.9517  222.3412 H   0  0  0  0  0  0  0  0  0  0  0  0
  138.6626   80.9541  224.1213 H   0  0  0  0  0  0  0  0  0  0  0  0
  140.7319   81.8827  224.9465 H   0  0  0  0  0  0  0  0  0  0  0  0
  143.2305   81.9008  224.9277 H   0  0  0  0  0  0  0  0  0  0  0  0
  144.4589   80.5311  223.2533 H   0  0  0  0  0  0  0  0  0  0  0  0
  143.2087   79.1374  221.5950 H   0  0  0  0  0  0  0  0  0  0  0  0
  139.9614   79.6084  220.6927 H   0  0  0  0  0  0  0  0  0  0  0  0
  141.0730   78.2475  220.8346 H   0  0  0  0  0  0  0  0  0  0  0  0
  141.7114   72.4351  222.1936 H   0  0  0  0  0  0  0  0  0  0  0  0
  140.1891   72.1935  221.3026 H   0  0  0  0  0  0  0  0  0  0  0  0
  142.0106   70.7874  220.3030 H   0  0  0  0  0  0  0  0  0  0  0  0
  141.5265   72.0072  219.1307 H   0  0  0  0  0  0  0  0  0  0  0  0
  144.4039   70.5638  220.3133 H   0  0  0  0  0  0  0  0  0  0  0  0
  146.6602   71.6759  220.4309 H   0  0  0  0  0  0  0  0  0  0  0  0
  146.7737   74.1644  220.3797 H   0  0  0  0  0  0  0  0  0  0  0  0
  144.7418   75.5410  220.2118 H   0  0  0  0  0  0  0  0  0  0  0  0
  142.3446   75.6691  220.4223 H   0  0  0  0  0  0  0  0  0  0  0  0
  141.8229   74.7033  219.0246 H   0  0  0  0  0  0  0  0  0  0  0  0
  135.4280   73.0416  224.5885 H   0  0  0  0  0  0  0  0  0  0  0  0
  1  2  1  0
  2  3  2  0
  3  4  1  0
  4  5  2  0
  5  6  1  0
  6  7  1  0
  7  8  1  0
  8  9  2  0
  9 10  1  0
 10 11  1  0
 11 12  1  0
 12 13  1  0
 13 14  1  0
 14 15  2  0
 15 16  1  0
 16 17  2  0
 17 18  1  0
 18 19  2  0
 19 20  1  0
 10 21  2  0
 21 22  1  0
 22 23  1  0
 23 24  1  0
 24 25  1  0
 25 26  1  0
 26 27  2  0
 27 28  1  0
 28 29  2  0
 29 30  1  0
 30 31  2  0
 31 32  1  0
 22 33  2  0
  6 34  2  0
 34  2  1  0
 33  8  1  0
 20 11  1  0
 32 23  1  0
 19 14  1  0
 31 26  1  0
  1 35  1  0
  3 36  1  0
  4 37  1  0
  5 38  1  0
  7 39  1  0
 12 40  1  0
 12 41  1  0
 13 42  1  0
 13 43  1  0
 15 44  1  0
 16 45  1  0
 17 46  1  0
 18 47  1  0
 20 48  1  0
 20 49  1  0
 24 50  1  0
 24 51  1  0
 25 52  1  0
 25 53  1  0
 27 54  1  0
 28 55  1  0
 29 56  1  0
 30 57  1  0
 32 58  1  0
 32 59  1  0
 34 60  1  0
M  END
