@<TRIPOS>MOLECULE
*****
 56 60 0 0 0
SMALL
GASTEIGER

@<TRIPOS>ATOM
      1 O         139.2830   76.4170  222.3200 O.2     1  UNL1       -0.2698
      2 C         140.5040   76.5420  222.1170 C.2     1  UNL1        0.2504
      3 N         141.2620   75.3930  221.7600 N.am    1  UNL1       -0.2503
      4 C         140.6260   74.1290  221.6410 C.ar    1  UNL1        0.2276
      5 N         140.3010   73.7040  220.3880 N.ar    1  UNL1       -0.1805
      6 C         139.6980   72.5030  220.2720 C.ar    1  UNL1        0.2238
      7 N         139.3550   72.0490  218.9730 N.pl3   1  UNL1       -0.2971
      8 C         138.9360   70.6700  218.8380 C.3     1  UNL1        0.0274
      9 C         138.7390   70.2180  217.4360 C.3     1  UNL1        0.0118
     10 N         138.4460   71.2780  216.4950 N.3     1  UNL1       -0.3130
     11 C         139.4250   72.3340  216.5330 C.3     1  UNL1        0.0118
     12 C         139.4420   72.9800  217.8820 C.3     1  UNL1        0.0274
     13 N         139.4400   71.7700  221.3840 N.ar    1  UNL1       -0.1807
     14 C         139.7610   72.1900  222.6180 C.ar    1  UNL1        0.2240
     15 N         139.4850   71.4150  223.7830 N.pl3   1  UNL1       -0.2948
     16 C         138.3390   70.5240  223.7850 C.3     1  UNL1        0.0192
     17 C         138.9230   69.1170  223.9170 C.3     1  UNL1       -0.0115
     18 C         139.6560   69.1180  225.2150 C.ar    1  UNL1       -0.0412
     19 C         139.6770   67.9540  225.9810 C.ar    1  UNL1       -0.0582
     20 C         140.3460   67.9000  227.2000 C.ar    1  UNL1       -0.0615
     21 C         140.9940   69.0320  227.6420 C.ar    1  UNL1       -0.0614
     22 C         140.9840   70.2070  226.8890 C.ar    1  UNL1       -0.0568
     23 C         140.3100   70.2430  225.6700 C.ar    1  UNL1       -0.0269
     24 C         140.3500   71.5290  224.9370 C.3     1  UNL1        0.0402
     25 N         140.3610   73.3890  222.7170 N.ar    1  UNL1       -0.1805
     26 C         141.0890   77.8700  222.2580 C.ar    1  UNL1        0.0371
     27 C         141.4590   78.2920  223.5050 C.ar    1  UNL1       -0.0496
     28 C         142.0210   79.5300  223.7460 C.ar    1  UNL1       -0.0610
     29 C         142.2190   80.3850  222.6650 C.ar    1  UNL1       -0.0617
     30 C         141.8500   79.9760  221.3870 C.ar    1  UNL1       -0.0610
     31 C         141.2890   78.7260  221.1950 C.ar    1  UNL1       -0.0496
     32 H         142.2750   75.4730  221.5880 H       1  UNL1        0.1580
     33 H         139.7034   70.0314  219.2998 H       1  UNL1        0.0477
     34 H         137.9560   70.5921  219.3314 H       1  UNL1        0.0477
     35 H         139.6584   69.7117  217.1067 H       1  UNL1        0.0439
     36 H         137.8600   69.5567  217.4431 H       1  UNL1        0.0439
     37 H         138.5050   70.8360  215.5390 H       1  UNL1        0.1220
     38 H         140.4192   71.9146  216.3193 H       1  UNL1        0.0439
     39 H         139.1640   73.0903  215.7781 H       1  UNL1        0.0439
     40 H         140.3796   73.5462  217.9834 H       1  UNL1        0.0477
     41 H         138.5522   73.6242  217.9394 H       1  UNL1        0.0477
     42 H         137.6779   70.7482  224.6351 H       1  UNL1        0.0468
     43 H         137.7329   70.6329  222.8735 H       1  UNL1        0.0468
     44 H         138.1198   68.3655  223.9282 H       1  UNL1        0.0328
     45 H         139.5819   68.8646  223.0731 H       1  UNL1        0.0328
     46 H         139.1536   67.0588  225.6142 H       1  UNL1        0.0620
     47 H         140.3570   66.9756  227.7961 H       1  UNL1        0.0618
     48 H         141.5278   69.0097  228.6035 H       1  UNL1        0.0618
     49 H         141.5067   71.1022  227.2568 H       1  UNL1        0.0621
     50 H         139.9966   72.3412  225.5892 H       1  UNL1        0.0514
     51 H         141.3790   71.7562  224.6213 H       1  UNL1        0.0514
     52 H         141.3015   77.6132  224.3562 H       1  UNL1        0.0625
     53 H         142.3047   79.8327  224.7648 H       1  UNL1        0.0618
     54 H         142.6647   81.3786  222.8204 H       1  UNL1        0.0618
     55 H         142.0045   80.6469  220.5291 H       1  UNL1        0.0618
     56 H         140.9988   78.4108  220.1819 H       1  UNL1        0.0625
@<TRIPOS>BOND
     1     1     2    2
     2     2     3   am
     3     3     4    1
     4     4     5   ar
     5     5     6   ar
     6     6     7    1
     7     7     8    1
     8     8     9    1
     9     9    10    1
    10    10    11    1
    11    11    12    1
    12     6    13   ar
    13    13    14   ar
    14    14    15    1
    15    15    16    1
    16    16    17    1
    17    17    18    1
    18    18    19   ar
    19    19    20   ar
    20    20    21   ar
    21    21    22   ar
    22    22    23   ar
    23    23    24    1
    24    14    25   ar
    25     2    26    1
    26    26    27   ar
    27    27    28   ar
    28    28    29   ar
    29    29    30   ar
    30    30    31   ar
    31    25     4   ar
    32    31    26   ar
    33    12     7    1
    34    24    15    1
    35    23    18   ar
    36     3    32    1
    37     8    33    1
    38     8    34    1
    39     9    35    1
    40     9    36    1
    41    10    37    1
    42    11    38    1
    43    11    39    1
    44    12    40    1
    45    12    41    1
    46    16    42    1
    47    16    43    1
    48    17    44    1
    49    17    45    1
    50    19    46    1
    51    20    47    1
    52    21    48    1
    53    22    49    1
    54    24    50    1
    55    24    51    1
    56    27    52    1
    57    28    53    1
    58    29    54    1
    59    30    55    1
    60    31    56    1
