@<TRIPOS>MOLECULE
*****
 55 59 0 0 0
SMALL
GASTEIGER

@<TRIPOS>ATOM
      1 O         138.9720   70.3590  221.4190 O.2     1  UNL1       -0.2685
      2 C         139.0080   71.0520  222.4790 C.2     1  UNL1        0.2628
      3 N         138.6760   72.4400  222.4010 N.am    1  UNL1       -0.3015
      4 C         138.3010   73.0620  221.1350 C.3     1  UNL1        0.0887
      5 C         139.5070   73.3610  220.3300 C.2     1  UNL1        0.2327
      6 O         139.9850   72.4550  219.5740 O.2     1  UNL1       -0.2739
      7 N         140.1560   74.6060  220.3590 N.am    1  UNL1       -0.3002
      8 C         141.3290   74.7830  219.5300 C.3     1  UNL1        0.0153
      9 C         141.8320   76.2060  219.5390 C.3     1  UNL1       -0.0302
     10 C         141.7860   76.8730  220.8660 C.3     1  UNL1       -0.0110
     11 C         141.6170   78.3500  220.7770 C.ar    1  UNL1       -0.0192
     12 C         141.2460   79.1160  219.6820 C.ar    1  UNL1        0.0062
     13 N         141.2040   80.4120  219.9950 N.ar    1  UNL1       -0.3604
     14 C         141.5430   80.5510  221.2990 C.ar    1  UNL1        0.0467
     15 C         141.6640   81.6460  222.1430 C.ar    1  UNL1       -0.0378
     16 C         142.0370   81.5170  223.4720 C.ar    1  UNL1       -0.0598
     17 C         142.2940   80.2480  223.9630 C.ar    1  UNL1       -0.0611
     18 C         142.1760   79.1430  223.1310 C.ar    1  UNL1       -0.0523
     19 C         141.8020   79.2780  221.7940 C.ar    1  UNL1        0.0031
     20 C         140.7720   76.3700  221.8180 C.3     1  UNL1       -0.0302
     21 C         139.6160   75.6390  221.2160 C.3     1  UNL1        0.0153
     22 C         139.3770   70.4740  223.7750 C.ar    1  UNL1        0.1260
     23 C         139.1770   69.1120  223.9440 C.ar    1  UNL1       -0.0306
     24 C         139.5030   68.4980  225.1420 C.ar    1  UNL1       -0.0504
     25 C         140.0300   69.3170  226.1390 C.ar    1  UNL1        0.0004
     26 C         140.3590   68.7160  227.3400 C.ar    1  UNL1       -0.0526
     27 C         140.8900   69.4830  228.3720 C.ar    1  UNL1       -0.0611
     28 C         141.0790   70.8360  228.1770 C.ar    1  UNL1       -0.0597
     29 C         140.7460   71.4240  226.9710 C.ar    1  UNL1       -0.0357
     30 C         140.2120   70.6680  225.9270 C.ar    1  UNL1        0.0718
     31 N         139.8910   71.2390  224.7630 N.ar    1  UNL1       -0.2421
     32 H         138.7150   72.9890  223.3000 H       1  UNL1        0.1496
     33 H         137.6507   72.3758  220.5726 H       1  UNL1        0.0558
     34 H         137.7686   74.0018  221.3429 H       1  UNL1        0.0558
     35 H         142.1272   74.1241  219.9024 H       1  UNL1        0.0465
     36 H         141.0490   74.5333  218.4959 H       1  UNL1        0.0465
     37 H         142.8763   76.2023  219.1935 H       1  UNL1        0.0286
     38 H         141.1602   76.7769  218.8812 H       1  UNL1        0.0286
     39 H         142.7772   76.6113  221.2649 H       1  UNL1        0.0350
     40 H         141.0166   78.7084  218.6864 H       1  UNL1        0.0810
     41 H         140.9520   81.2150  219.3530 H       1  UNL1        0.1653
     42 H         141.4570   82.6500  221.7441 H       1  UNL1        0.0638
     43 H         142.1266   82.4010  224.1205 H       1  UNL1        0.0618
     44 H         142.5920   80.1154  225.0135 H       1  UNL1        0.0618
     45 H         142.3816   78.1405  223.5343 H       1  UNL1        0.0624
     46 H         141.2760   75.6861  222.5168 H       1  UNL1        0.0286
     47 H         140.3429   77.2636  222.2948 H       1  UNL1        0.0286
     48 H         139.0028   75.1868  222.0094 H       1  UNL1        0.0465
     49 H         138.9786   76.3268  220.6409 H       1  UNL1        0.0465
     50 H         138.7566   68.5153  223.1210 H       1  UNL1        0.0641
     51 H         139.3537   67.4195  225.2985 H       1  UNL1        0.0625
     52 H         140.2016   67.6362  227.4788 H       1  UNL1        0.0624
     53 H         141.1561   69.0165  229.3320 H       1  UNL1        0.0618
     54 H         141.4977   71.4511  228.9871 H       1  UNL1        0.0618
     55 H         140.9044   72.5037  226.8324 H       1  UNL1        0.0639
@<TRIPOS>BOND
     1     1     2    2
     2     2     3   am
     3     3     4    1
     4     4     5    1
     5     5     6    2
     6     5     7   am
     7     7     8    1
     8     8     9    1
     9     9    10    1
    10    10    11    1
    11    11    12   ar
    12    12    13   ar
    13    13    14   ar
    14    14    15   ar
    15    15    16   ar
    16    16    17   ar
    17    17    18   ar
    18    18    19   ar
    19    10    20    1
    20    20    21    1
    21     2    22    1
    22    22    23   ar
    23    23    24   ar
    24    24    25   ar
    25    25    26   ar
    26    26    27   ar
    27    27    28   ar
    28    28    29   ar
    29    29    30   ar
    30    30    31   ar
    31    21     7    1
    32    31    22   ar
    33    19    11   ar
    34    30    25   ar
    35    19    14   ar
    36     3    32    1
    37     4    33    1
    38     4    34    1
    39     8    35    1
    40     8    36    1
    41     9    37    1
    42     9    38    1
    43    10    39    1
    44    12    40    1
    45    13    41    1
    46    15    42    1
    47    16    43    1
    48    17    44    1
    49    18    45    1
    50    20    46    1
    51    20    47    1
    52    21    48    1
    53    21    49    1
    54    23    50    1
    55    24    51    1
    56    26    52    1
    57    27    53    1
    58    28    54    1
    59    29    55    1
